AV-unprocessed.smi:2451|AV-procd|sdf|9684|dock4
  -GOLD-   2272013323D 1   1.00000     0.00000
 Structure written by MMmdl.
 37 38  0  0  0  0  0  0  0  0  2 V2000
  153.4625  142.3952  160.5104 C   0  0  0  0  0  0  0  0  0  0  0  0
  152.3476  141.8049  159.6273 C   0  0  1  0  0  0  0  0  0  0  0  0
  151.8494  142.8946  158.6445 C   0  0  0  0  0  0  0  0  0  0  0  0
  150.7419  142.3372  157.7299 C   0  0  0  0  0  0  0  0  0  0  0  0
  151.1764  141.0503  156.9866 C   0  0  0  0  0  0  0  0  0  0  0  0
  151.6884  139.9300  157.9232 C   0  0  2  0  0  0  0  0  0  0  0  0
  150.5710  139.3813  158.6842 N   0  5  0  0  0  0  0  0  0  0  0  0
  150.3151  137.7810  158.6962 S   0  0  0  0  0  0  0  0  0  0  0  0
  150.6059  137.1519  157.3974 O   0  0  0  0  0  0  0  0  0  0  0  0
  150.8701  137.1273  159.8930 O   0  0  0  0  0  0  0  0  0  0  0  0
  148.4826  137.7356  158.8911 C   0  0  0  0  0  0  0  0  0  0  0  0
  148.1030  136.7944  159.9993 C   0  0  0  0  0  0  0  0  0  0  0  0
  148.2649  135.3820  160.0533 C   0  0  0  0  0  0  0  0  0  0  0  0
  147.7601  135.0494  161.2769 C   0  0  0  0  0  0  0  0  0  0  0  0
  147.3302  136.1577  161.9311 O   0  0  0  0  0  0  0  0  0  0  0  0
  147.5571  137.2675  161.1091 N   0  0  0  0  0  0  0  0  0  0  0  0
  152.7892  140.4992  158.8781 C   0  0  2  0  0  0  0  0  0  0  0  0
  153.3720  139.4178  159.8230 C   0  0  0  0  0  0  0  0  0  0  0  0
  154.3668  142.5869  159.9322 H   0  0  0  0  0  0  0  0  0  0  0  0
  153.7213  141.7301  161.3337 H   0  0  0  0  0  0  0  0  0  0  0  0
  153.1489  143.3390  160.9574 H   0  0  0  0  0  0  0  0  0  0  0  0
  151.5196  141.5617  160.2968 H   0  0  0  0  0  0  0  0  0  0  0  0
  151.4742  143.7600  159.1917 H   0  0  0  0  0  0  0  0  0  0  0  0
  152.6806  143.2479  158.0325 H   0  0  0  0  0  0  0  0  0  0  0  0
  149.8437  142.1484  158.3210 H   0  0  0  0  0  0  0  0  0  0  0  0
  150.4596  143.0970  157.0009 H   0  0  0  0  0  0  0  0  0  0  0  0
  150.3535  140.6804  156.3733 H   0  0  0  0  0  0  0  0  0  0  0  0
  151.9724  141.3091  156.2875 H   0  0  0  0  0  0  0  0  0  0  0  0
  152.1507  139.1651  157.2976 H   0  0  0  0  0  0  0  0  0  0  0  0
  148.1388  138.7469  159.1068 H   0  0  0  0  0  0  0  0  0  0  0  0
  148.0454  137.4319  157.9397 H   0  0  0  0  0  0  0  0  0  0  0  0
  148.6793  134.7199  159.3078 H   0  0  0  0  0  0  0  0  0  0  0  0
  147.6442  134.1130  161.8024 H   0  0  0  0  0  0  0  0  0  0  0  0
  153.6155  140.7911  158.2280 H   0  0  0  0  0  0  0  0  0  0  0  0
  152.6637  139.1315  160.6025 H   0  0  0  0  0  0  0  0  0  0  0  0
  154.2739  139.7716  160.3207 H   0  0  0  0  0  0  0  0  0  0  0  0
  153.6637  138.5103  159.2901 H   0  0  0  0  0  0  0  0  0  0  0  0
  1  2  1  0  0  0  0
  1 19  1  0  0  0  0
  1 20  1  0  0  0  0
  1 21  1  0  0  0  0
  2 17  1  0  0  0  0
  2  3  1  0  0  0  0
  2 22  1  0  0  0  0
  3  4  1  0  0  0  0
  3 23  1  0  0  0  0
  3 24  1  0  0  0  0
  4  5  1  0  0  0  0
  4 25  1  0  0  0  0
  4 26  1  0  0  0  0
  5  6  1  0  0  0  0
  5 27  1  0  0  0  0
  5 28  1  0  0  0  0
  6  7  1  0  0  0  0
  6 17  1  0  0  0  0
  6 29  1  0  0  0  0
  7  8  1  0  0  0  0
  8  9  2  0  0  0  0
  8 10  2  0  0  0  0
  8 11  1  0  0  0  0
 11 12  1  0  0  0  0
 11 30  1  0  0  0  0
 11 31  1  0  0  0  0
 12 16  2  0  0  0  0
 12 13  1  0  0  0  0
 13 14  2  0  0  0  0
 13 32  1  0  0  0  0
 14 15  1  0  0  0  0
 14 33  1  0  0  0  0
 15 16  1  0  0  0  0
 17 18  1  0  0  0  0
 17 34  1  0  0  0  0
 18 35  1  0  0  0  0
 18 36  1  0  0  0  0
 18 37  1  0  0  0  0
M  CHG  1   7  -1
M  END
> <s_m_source_file>
AV-unprocessed.smi

> <i_m_source_file_index>
2451

> <i_lp_mmshare_version>
43012

> <i_f3d_flags>
0

> <s_epik_input>
W0NIM11bQ0BASF0xW0NIMl1bQ0gyXVtDSDJdW0NASF0oW0NASF0xW0NIM10pW05IXVMoPU8pKD1PKVtDSDJdYzJbY0hdW2NIXW9uMg==

> <s_epik_cmdline>
J2VwaWtfcHl0aG9uJywgJy1waCcsICc3LjAnLCAnLXRuJywgJzgnLCAnLW1hJywgJzIwMCcsICctbWV0YWxfYmluZGluZycsICctaW1hZScsICc8aW5maWxlLm1hZT4nLCAnLW9tYWUnLCAnPG91dGZpbGUubWFlPic=

> <r_lp_tautomer_probability>
1

> <r_epik_Ionization_Penalty>
5.22693

> <r_epik_Ionization_Penalty_Charging>
5.22693

> <r_epik_Ionization_Penalty_Neutral>
2.67702e-10

> <r_epik_State_Penalty>
5.22685

> <r_epik_Charging_Adjusted_Penalty>
10.4538

> <i_epik_Tot_Q>
-1

> <i_epik_Tot_abs_Q>
1

> <r_epik_Metal_State_Penalty>
1.28716

> <b_epik_Metal_Only>
1

> <s_lp_Force_Field>
OPLS_2005

> <r_lp_Energy>
15.3657

> <b_lp_Chiralities_Consistent>
1

> <s_lp_Variant>
AV-unprocessed.smi:2451-16

> <Gold.Version>
5.8.1

> <Gold.Id.Protein>
6NUR|6NUR_protein|mol2

> <Gold.PLP.Fitness>
37.8807

> <Gold.PLP.PLP>
-30.1161

> <Gold.PLP.part.hbond>
-3.0198

> <Gold.PLP.part.metal>
0.0000

> <Gold.PLP.part.buried>
-4.9712

> <Gold.PLP.part.nonpolar>
-22.7273

> <Gold.PLP.part.repulsive>
0.0000

> <Gold.PLP.ligand.clash>
0.0000

> <Gold.PLP.ligand.torsion>
0.8732

> <Gold.PLP.Chemscore.Hbond>
2.8400

> <Gold.PLP.Chemscore.CHOScore>
0.0000

> <Gold.PLP.Chemscore.Metal>
0.0000

> <Gold.Chemscore.Hbonds>
donor molecule, donor type, donor heavy atom, donor atom, acceptor molecule, acceptor atom, score
      P1  H  6896  6908       L1    10  0.93
      P1  H  6931  6943       L1    16  0.85
      P1  H  6934  6947       L1    16  0.93

> <Gold.PLP.Chemscore.Internal.Correction>
0.9909

> <Gold.Rescore>
     Score         DG    S(hbond)    S(metal)    S(lipo)     H(rot)  DE(clash)    DE(int)     intcor
     18.07     -19.29       2.41        0.00      79.95       1.40       0.01       1.22       ----

> <Gold.Chemscore.Fitness>
18.0661

> <Gold.Chemscore.DG>
-19.2911

> <Gold.Chemscore.ZeroCoef>
-5.4800

> <Gold.Chemscore.Hbond>
2.4063

> <Gold.Chemscore.Metal>
0.0000

> <Gold.Chemscore.Lipo>
79.9541

> <Gold.Chemscore.Internal_Hbond>
0.0000

> <Gold.Chemscore.DEClash>
0.0073

> <Gold.Chemscore.DEInternal>
1.2177

> <Gold.Chemscore.Rot>
1.3986

> <Gold.Chemscore.Internal.Correction>
   9.000000E+99

> <Gold.Chemscore.Hbonds>
donor molecule, donor type, donor heavy atom, donor atom, acceptor molecule, acceptor atom, score
      P1  H  6896  6908       L1    10  0.85
      P1  H  6931  6943       L1    16  0.18
      P1  H  6934  6947       L1    16  0.71

> <Gold.Chemscore.Hbond.Weighted>
-8.0369

> <Gold.Chemscore.Metal.Weighted>
-0.0000

> <Gold.Chemscore.Lipo.Weighted>
-9.3546

> <Gold.Chemscore.Internal_Hbond.Weighted>
0.0000

> <Gold.Chemscore.DEClash.Weighted>
0.0073

> <Gold.Chemscore.DEInternal.Weighted>
1.2177

> <Gold.Chemscore.Rot.Weighted>
3.5804

> <Gold.Chemscore.Internal.Correction.Weighted>
   9.000000E+99

> <Gold.Protein.RotatedTorsions>
[ 6907 6896 6895 6894 ] final -148.72 input  -60.11 | X-H torsion
[ 7974 7965 7964 7962 ] final   70.17 input  175.53 | X-H torsion
[ 8008 7997 7996 7995 ] final   87.23 input   59.86 | X-H torsion
[ 10167 10162 10161 10158 ] final -142.06 input  -65.29 | X-H torsion
[ 10718 10713 10712 10709 ] final  -40.05 input   66.30 | X-H torsion
[ 10763 10752 10751 10750 ] final -158.84 input  -60.55 | X-H torsion
[ 11005 11000 10999 10996 ] final -153.43 input  -57.11 | X-H torsion

> <Gold.Protein.ActiveResidues>
 VAL166  LYS551  ARG553  GLY616  TRP617  ASP618  TYR619  PRO620  LYS621  CYS622 
 ASP623  PHE694  ASN695  SER759  ASP760  ASP761  ALA762  ILE779  LEU786  VAL792 
 PHE793  MET794  SER795  GLU796  ALA797  LYS798  CYS799  TRP800  GLU811  SER814 

> <Gold.Protein.RotatedAtoms>
  151.1738  133.4767  159.2593 H   0  0  0  0  0  0  0  0  0  0  0  0  # atno 6907 bound_to 6896
  151.1329  135.0139  159.8600 H   0  0  0  0  0  0  0  0  0  0  0  0  # atno 6908 bound_to 6896
  152.5460  134.1639  159.8622 H   0  0  0  0  0  0  0  0  0  0  0  0  # atno 6909 bound_to 6896
  145.7814  139.2889  143.1263 H   0  0  0  0  0  0  0  0  0  0  0  0  # atno 7974 bound_to 7965
  155.9727  140.3384  155.6590 H   0  0  0  0  0  0  0  0  0  0  0  0  # atno 8008 bound_to 7997
  155.6653  140.0720  157.2557 H   0  0  0  0  0  0  0  0  0  0  0  0  # atno 8009 bound_to 7997
  154.4170  140.1701  156.1808 H   0  0  0  0  0  0  0  0  0  0  0  0  # atno 8010 bound_to 7997
  139.8125  143.7684  152.2664 H   0  0  0  0  0  0  0  0  0  0  0  0  # atno 10167 bound_to 10162
  156.2856  130.4222  149.8291 H   0  0  0  0  0  0  0  0  0  0  0  0  # atno 10718 bound_to 10713
  154.7524  135.3096  154.8533 H   0  0  0  0  0  0  0  0  0  0  0  0  # atno 10763 bound_to 10752
  153.9317  135.6784  153.4749 H   0  0  0  0  0  0  0  0  0  0  0  0  # atno 10764 bound_to 10752
  153.1120  135.4862  154.8980 H   0  0  0  0  0  0  0  0  0  0  0  0  # atno 10765 bound_to 10752
  140.7083  134.3861  157.5201 H   0  0  0  0  0  0  0  0  0  0  0  0  # atno 11005 bound_to 11000
  146.0070  140.8470  142.9990 LP  0  0  0  0  0  0  0  0  0  0  0  0  # atno 17320 bound_to 7965
  144.6796  140.2434  143.7341 LP  0  0  0  0  0  0  0  0  0  0  0  0  # atno 17321 bound_to 7965
  139.7837  144.7435  151.0052 LP  0  0  0  0  0  0  0  0  0  0  0  0  # atno 17342 bound_to 10162
  140.7817  143.4515  151.0406 LP  0  0  0  0  0  0  0  0  0  0  0  0  # atno 17343 bound_to 10162
  156.5722  130.8430  151.3360 LP  0  0  0  0  0  0  0  0  0  0  0  0  # atno 17370 bound_to 10713
  157.7327  130.9720  150.1944 LP  0  0  0  0  0  0  0  0  0  0  0  0  # atno 17371 bound_to 10713
  139.8878  134.8872  156.2507 LP  0  0  0  0  0  0  0  0  0  0  0  0  # atno 17394 bound_to 11000
  141.0106  133.7098  156.1106 LP  0  0  0  0  0  0  0  0  0  0  0  0  # atno 17395 bound_to 11000

$$$$
