AV-unprocessed.smi:3145|AV-procd|sdf|11981|dock10
  -GOLD-   2272017383D 1   1.00000     0.00000
 Structure written by MMmdl.
 34 34  0  0  0  0  0  0  0  0  1 V2000
  144.0726  136.2871  152.2476 C   0  0  0  0  0  0  0  0  0  0  0  0
  145.4819  135.8212  151.8560 C   0  0  2  0  0  0  0  0  0  0  0  0
  145.7509  134.3843  152.3579 C   0  0  0  0  0  0  0  0  0  0  0  0
  145.2419  133.3587  151.4634 N   0  0  0  0  0  0  0  0  0  0  0  0
  145.9545  132.4431  150.7185 C   0  0  0  0  0  0  0  0  0  0  0  0
  145.0491  131.6762  150.0427 C   0  0  0  0  0  0  0  0  0  0  0  0
  143.7909  132.2085  150.4405 C   0  0  0  0  0  0  0  0  0  0  0  0
  143.9091  133.2170  151.2886 N   0  0  0  0  0  0  0  0  0  0  0  0
  146.4345  136.7506  152.4552 N   0  0  0  0  0  0  0  0  0  0  0  0
  146.1751  136.9741  153.8829 C   0  0  0  0  0  0  0  0  0  0  0  0
  147.2203  137.8991  154.4989 C   0  0  0  0  0  0  0  0  0  0  0  0
  147.0437  138.3785  155.6183 O   0  0  0  0  0  0  0  0  0  0  0  0
  148.3038  138.1446  153.7485 N   0  0  0  0  0  0  0  0  0  0  0  0
  149.4091  139.0037  154.1442 C   0  0  0  0  0  0  0  0  0  0  0  0
  150.6687  138.1686  154.3960 C   0  0  0  0  0  0  0  0  0  0  0  0
  151.8347  138.9942  154.7440 C   0  0  0  0  0  0  0  0  0  0  0  0
  152.7522  139.6438  155.0176 N   0  0  0  0  0  0  0  0  0  0  0  0
  143.3124  135.6365  151.8142 H   0  0  0  0  0  0  0  0  0  0  0  0
  143.8774  137.2991  151.8910 H   0  0  0  0  0  0  0  0  0  0  0  0
  143.9345  136.2818  153.3296 H   0  0  0  0  0  0  0  0  0  0  0  0
  145.5454  135.8498  150.7663 H   0  0  0  0  0  0  0  0  0  0  0  0
  146.8196  134.2249  152.5129 H   0  0  0  0  0  0  0  0  0  0  0  0
  145.2766  134.2378  153.3289 H   0  0  0  0  0  0  0  0  0  0  0  0
  147.0342  132.4112  150.7359 H   0  0  0  0  0  0  0  0  0  0  0  0
  145.2543  130.8592  149.3672 H   0  0  0  0  0  0  0  0  0  0  0  0
  142.8021  131.8942  150.1406 H   0  0  0  0  0  0  0  0  0  0  0  0
  147.3757  136.4154  152.3069 H   0  0  0  0  0  0  0  0  0  0  0  0
  145.1951  137.4280  154.0310 H   0  0  0  0  0  0  0  0  0  0  0  0
  146.1653  136.0172  154.4065 H   0  0  0  0  0  0  0  0  0  0  0  0
  148.3641  137.6992  152.8436 H   0  0  0  0  0  0  0  0  0  0  0  0
  149.5977  139.7376  153.3591 H   0  0  0  0  0  0  0  0  0  0  0  0
  149.1384  139.5549  155.0463 H   0  0  0  0  0  0  0  0  0  0  0  0
  150.5032  137.4635  155.2111 H   0  0  0  0  0  0  0  0  0  0  0  0
  150.9247  137.5868  153.5101 H   0  0  0  0  0  0  0  0  0  0  0  0
  1  2  1  0  0  0  0
  1 18  1  0  0  0  0
  1 19  1  0  0  0  0
  1 20  1  0  0  0  0
  2  3  1  0  0  0  0
  2  9  1  0  0  0  0
  2 21  1  0  0  0  0
  3  4  1  0  0  0  0
  3 22  1  0  0  0  0
  3 23  1  0  0  0  0
  4  8  1  0  0  0  0
  4  5  1  0  0  0  0
  5  6  2  0  0  0  0
  5 24  1  0  0  0  0
  6  7  1  0  0  0  0
  6 25  1  0  0  0  0
  7  8  2  0  0  0  0
  7 26  1  0  0  0  0
  9 10  1  0  0  0  0
  9 27  1  0  0  0  0
 10 11  1  0  0  0  0
 10 28  1  0  0  0  0
 10 29  1  0  0  0  0
 11 12  2  0  0  0  0
 11 13  1  0  0  0  0
 13 14  1  0  0  0  0
 13 30  1  0  0  0  0
 14 15  1  0  0  0  0
 14 31  1  0  0  0  0
 14 32  1  0  0  0  0
 15 16  1  0  0  0  0
 15 33  1  0  0  0  0
 15 34  1  0  0  0  0
 16 17  3  0  0  0  0
M  END
> <s_m_source_file>
AV-unprocessed.smi

> <i_m_source_file_index>
3145

> <i_lp_mmshare_version>
43012

> <i_f3d_flags>
0

> <s_epik_input>
bjFbY0hdW2NIXVtjSF1uMVtDSDJdW0NAQEhdKFtDSDNdKVtOSF1bQ0gyXUMoPU8pW05IXVtDSDJdW0NIMl1DI04=

> <s_epik_cmdline>
J2VwaWtfcHl0aG9uJywgJy1waCcsICc3LjAnLCAnLXRuJywgJzgnLCAnLW1hJywgJzIwMCcsICctbWV0YWxfYmluZGluZycsICctaW1hZScsICc8aW5maWxlLm1hZT4nLCAnLW9tYWUnLCAnPG91dGZpbGUubWFlPic=

> <r_lp_tautomer_probability>
1

> <r_epik_Ionization_Penalty>
0.765991

> <r_epik_Ionization_Penalty_Charging>
0

> <r_epik_Ionization_Penalty_Neutral>
0.765991

> <r_epik_State_Penalty>
0.794192

> <r_epik_Charging_Adjusted_Penalty>
0.794192

> <i_epik_Tot_Q>
0

> <i_epik_Tot_abs_Q>
0

> <r_epik_Metal_State_Penalty>
0.806127

> <b_epik_Metal_Only>
0

> <s_lp_Force_Field>
OPLS_2005

> <r_lp_Energy>
5.26669

> <b_lp_Chiralities_Consistent>
1

> <s_lp_Variant>
AV-unprocessed.smi:3145-3

> <Gold.Version>
5.8.1

> <Gold.Id.Protein>
6NUR|6NUR_protein|mol2

> <Gold.PLP.Fitness>
44.3956

> <Gold.PLP.PLP>
-30.7314

> <Gold.PLP.part.hbond>
-4.0000

> <Gold.PLP.part.metal>
0.0000

> <Gold.PLP.part.buried>
-4.9761

> <Gold.PLP.part.nonpolar>
-22.9415

> <Gold.PLP.part.repulsive>
0.2117

> <Gold.PLP.ligand.clash>
0.0000

> <Gold.PLP.ligand.torsion>
0.5280

> <Gold.PLP.Chemscore.Hbond>
2.9600

> <Gold.PLP.Chemscore.CHOScore>
1.9227

> <Gold.PLP.Chemscore.Metal>
0.0000

> <Gold.Chemscore.Hbonds>
donor molecule, donor type, donor heavy atom, donor atom, acceptor molecule, acceptor atom, score
      L1  H     9    27       P1  7948  1.00
      L1  H    13    30       P1  7948  0.96
      P1  H  7997  8008       L1    17  1.00
      L1  C     5    24       P1 10747  1.00
      L1  C     7    26       P1 10952  0.89

> <Gold.PLP.Chemscore.Internal.Correction>
0.0720

> <Gold.Rescore>
     Score         DG    S(hbond)    S(metal)    S(lipo)     H(rot)  DE(clash)    DE(int)     intcor
     14.87     -15.41       2.95        0.00      61.97       2.80       0.00       0.55       ----

> <Gold.Chemscore.Fitness>
14.8690

> <Gold.Chemscore.DG>
-15.4147

> <Gold.Chemscore.ZeroCoef>
-5.4800

> <Gold.Chemscore.Hbond>
2.9501

> <Gold.Chemscore.Metal>
0.0000

> <Gold.Chemscore.Lipo>
61.9730

> <Gold.Chemscore.Internal_Hbond>
0.0000

> <Gold.Chemscore.DEClash>
0.0000

> <Gold.Chemscore.DEInternal>
0.5457

> <Gold.Chemscore.Rot>
2.8006

> <Gold.Chemscore.Internal.Correction>
   9.000000E+99

> <Gold.Chemscore.Hbonds>
donor molecule, donor type, donor heavy atom, donor atom, acceptor molecule, acceptor atom, score
      L1  H     9    27       P1  7948  0.99
      L1  H    13    30       P1  7948  0.92
      P1  H  7997  8008       L1    17  0.97

> <Gold.Chemscore.Hbond.Weighted>
-9.8534

> <Gold.Chemscore.Metal.Weighted>
-0.0000

> <Gold.Chemscore.Lipo.Weighted>
-7.2508

> <Gold.Chemscore.Internal_Hbond.Weighted>
0.0000

> <Gold.Chemscore.DEClash.Weighted>
0.0000

> <Gold.Chemscore.DEInternal.Weighted>
0.5457

> <Gold.Chemscore.Rot.Weighted>
7.1696

> <Gold.Chemscore.Internal.Correction.Weighted>
   9.000000E+99

> <Gold.Protein.RotatedTorsions>
[ 6907 6896 6895 6894 ] final  131.38 input  -60.11 | X-H torsion
[ 7974 7965 7964 7962 ] final  -61.09 input  175.53 | X-H torsion
[ 8008 7997 7996 7995 ] final  -17.56 input   59.86 | X-H torsion
[ 10167 10162 10161 10158 ] final -134.57 input  -65.29 | X-H torsion
[ 10718 10713 10712 10709 ] final  179.69 input   66.30 | X-H torsion
[ 10763 10752 10751 10750 ] final  -75.27 input  -60.55 | X-H torsion
[ 11005 11000 10999 10996 ] final -139.80 input  -57.11 | X-H torsion

> <Gold.Protein.ActiveResidues>
 VAL166  LYS551  ARG553  GLY616  TRP617  ASP618  TYR619  PRO620  LYS621  CYS622 
 ASP623  PHE694  ASN695  SER759  ASP760  ASP761  ALA762  ILE779  LEU786  VAL792 
 PHE793  MET794  SER795  GLU796  ALA797  LYS798  CYS799  TRP800  GLU811  SER814 

> <Gold.Protein.RotatedAtoms>
  152.3432  133.6091  159.5890 H   0  0  0  0  0  0  0  0  0  0  0  0  # atno 6907 bound_to 6896
  150.7491  133.9690  159.3548 H   0  0  0  0  0  0  0  0  0  0  0  0  # atno 6908 bound_to 6896
  151.7551  135.0824  160.0388 H   0  0  0  0  0  0  0  0  0  0  0  0  # atno 6909 bound_to 6896
  145.8076  140.8618  143.0199 H   0  0  0  0  0  0  0  0  0  0  0  0  # atno 7974 bound_to 7965
  154.4969  140.2139  155.9427 H   0  0  0  0  0  0  0  0  0  0  0  0  # atno 8008 bound_to 7997
  156.1383  140.3184  155.8422 H   0  0  0  0  0  0  0  0  0  0  0  0  # atno 8009 bound_to 7997
  155.4169  140.0494  157.3019 H   0  0  0  0  0  0  0  0  0  0  0  0  # atno 8010 bound_to 7997
  139.8867  143.6772  152.2619 H   0  0  0  0  0  0  0  0  0  0  0  0  # atno 10167 bound_to 10162
  156.8720  130.9787  151.3072 H   0  0  0  0  0  0  0  0  0  0  0  0  # atno 10718 bound_to 10713
  154.4842  135.5837  153.6412 H   0  0  0  0  0  0  0  0  0  0  0  0  # atno 10763 bound_to 10752
  152.9852  135.6097  154.3207 H   0  0  0  0  0  0  0  0  0  0  0  0  # atno 10764 bound_to 10752
  154.3101  135.2845  155.2549 H   0  0  0  0  0  0  0  0  0  0  0  0  # atno 10765 bound_to 10752
  140.8485  134.2315  157.4773 H   0  0  0  0  0  0  0  0  0  0  0  0  # atno 11005 bound_to 11000
  144.6761  140.0349  143.7482 LP  0  0  0  0  0  0  0  0  0  0  0  0  # atno 17320 bound_to 7965
  145.9812  139.2942  143.1041 LP  0  0  0  0  0  0  0  0  0  0  0  0  # atno 17321 bound_to 7965
  139.7147  144.7614  151.1054 LP  0  0  0  0  0  0  0  0  0  0  0  0  # atno 17342 bound_to 10162
  140.7734  143.5285  150.9451 LP  0  0  0  0  0  0  0  0  0  0  0  0  # atno 17343 bound_to 10162
  157.6190  130.8640  149.9077 LP  0  0  0  0  0  0  0  0  0  0  0  0  # atno 17370 bound_to 10713
  156.0721  130.3683  150.0753 LP  0  0  0  0  0  0  0  0  0  0  0  0  # atno 17371 bound_to 10713
  139.8704  134.9671  156.4586 LP  0  0  0  0  0  0  0  0  0  0  0  0  # atno 17394 bound_to 11000
  140.8817  133.7913  155.9473 LP  0  0  0  0  0  0  0  0  0  0  0  0  # atno 17395 bound_to 11000

$$$$
