AV-unprocessed.smi:281|AV-procd|sdf|2113|dock4
  -GOLD-   2262021403D 1   1.00000     0.00000
 Structure written by MMmdl.
 55 59  0  0  0  0  0  0  0  0  1 V2000
  146.4038  143.0040  153.9211 C   0  0  0  0  0  0  0  0  0  0  0  0
  146.9200  141.6325  154.3665 C   0  0  2  0  0  0  0  0  0  0  0  0
  148.4477  141.6137  154.5303 C   0  0  0  0  0  0  0  0  0  0  0  0
  148.8814  140.2634  154.8648 N   0  0  0  0  0  0  0  0  0  0  0  0
  150.1270  140.0846  155.3709 C   0  0  0  0  0  0  0  0  0  0  0  0
  151.0864  139.4796  154.6208 N   0  0  0  0  0  0  0  0  0  0  0  0
  152.3132  139.2941  155.1169 C   0  0  0  0  0  0  0  0  0  0  0  0
  152.7894  139.6351  156.3159 N   0  0  0  0  0  0  0  0  0  0  0  0
  151.8354  140.2529  157.0698 C   0  0  0  0  0  0  0  0  0  0  0  0
  150.4913  140.5128  156.6786 C   0  0  0  0  0  0  0  0  0  0  0  0
  149.8180  141.1638  157.7055 N   0  0  0  0  0  0  0  0  0  0  0  0
  150.7082  141.2707  158.6533 C   0  0  0  0  0  0  0  0  0  0  0  0
  151.9513  140.7600  158.3528 N   0  0  0  0  0  0  0  0  0  0  0  0
  153.1210  140.7491  159.2190 C   0  0  0  0  0  0  0  0  0  0  0  0
  153.3307  142.0698  159.9987 C   0  0  1  0  0  0  0  0  0  0  0  0
  154.5707  142.0070  160.6799 O   0  0  0  0  0  0  0  0  0  0  0  0
  153.3288  143.2950  159.0818 C   0  0  0  0  0  0  0  0  0  0  0  0
  152.0098  143.9848  159.4083 C   0  0  0  0  0  0  0  0  0  0  0  0
  151.8665  143.7370  160.7951 O   0  0  0  0  0  0  0  0  0  0  0  0
  152.2091  142.3758  161.0119 C   0  0  0  0  0  0  0  0  0  0  0  0
  148.4566  139.2733  153.8832 C   0  0  0  0  0  0  0  0  0  0  0  0
  146.9235  139.3243  153.6725 C   0  0  1  0  0  0  0  0  0  0  0  0
  146.5189  138.4420  152.5025 C   0  0  0  0  0  0  0  0  0  0  0  0
  146.4394  137.0554  153.1333 C   0  0  0  0  0  0  0  0  0  0  0  0
  146.0947  137.2684  154.4985 O   0  0  0  0  0  0  0  0  0  0  0  0
  146.1341  138.6572  154.8224 C   0  0  2  0  0  0  0  0  0  0  0  0
  144.6647  139.1033  154.9507 C   0  0  0  0  0  0  0  0  0  0  0  0
  146.5264  140.6700  153.3862 O   0  0  0  0  0  0  0  0  0  0  0  0
  146.6652  143.7757  154.6454 H   0  0  0  0  0  0  0  0  0  0  0  0
  145.3183  142.9968  153.8203 H   0  0  0  0  0  0  0  0  0  0  0  0
  146.8261  143.2911  152.9576 H   0  0  0  0  0  0  0  0  0  0  0  0
  146.4633  141.3894  155.3258 H   0  0  0  0  0  0  0  0  0  0  0  0
  148.9341  141.9352  153.6080 H   0  0  0  0  0  0  0  0  0  0  0  0
  148.7416  142.3106  155.3167 H   0  0  0  0  0  0  0  0  0  0  0  0
  153.0141  138.8020  154.4587 H   0  0  0  0  0  0  0  0  0  0  0  0
  150.4824  141.7347  159.6023 H   0  0  0  0  0  0  0  0  0  0  0  0
  153.0233  139.9122  159.9120 H   0  0  0  0  0  0  0  0  0  0  0  0
  153.9988  140.5353  158.6076 H   0  0  0  0  0  0  0  0  0  0  0  0
  154.8914  141.1192  160.6336 H   0  0  0  0  0  0  0  0  0  0  0  0
  154.1512  143.9696  159.3262 H   0  0  0  0  0  0  0  0  0  0  0  0
  153.4147  143.0474  158.0234 H   0  0  0  0  0  0  0  0  0  0  0  0
  152.0249  145.0521  159.1863 H   0  0  0  0  0  0  0  0  0  0  0  0
  151.1821  143.5277  158.8632 H   0  0  0  0  0  0  0  0  0  0  0  0
  151.3196  141.7790  160.8077 H   0  0  0  0  0  0  0  0  0  0  0  0
  152.4945  142.1961  162.0492 H   0  0  0  0  0  0  0  0  0  0  0  0
  148.9659  139.4947  152.9441 H   0  0  0  0  0  0  0  0  0  0  0  0
  148.7635  138.2680  154.1687 H   0  0  0  0  0  0  0  0  0  0  0  0
  145.5343  138.7324  152.1337 H   0  0  0  0  0  0  0  0  0  0  0  0
  147.2092  138.4876  151.6597 H   0  0  0  0  0  0  0  0  0  0  0  0
  145.7101  136.4160  152.6355 H   0  0  0  0  0  0  0  0  0  0  0  0
  147.4082  136.5570  153.0918 H   0  0  0  0  0  0  0  0  0  0  0  0
  146.6330  138.7988  155.7819 H   0  0  0  0  0  0  0  0  0  0  0  0
  144.5764  140.1559  155.2146 H   0  0  0  0  0  0  0  0  0  0  0  0
  144.1596  138.5333  155.7304 H   0  0  0  0  0  0  0  0  0  0  0  0
  144.1118  138.9482  154.0244 H   0  0  0  0  0  0  0  0  0  0  0  0
  1  2  1  0  0  0  0
  1 29  1  0  0  0  0
  1 30  1  0  0  0  0
  1 31  1  0  0  0  0
  2 28  1  0  0  0  0
  2  3  1  0  0  0  0
  2 32  1  0  0  0  0
  3  4  1  0  0  0  0
  3 33  1  0  0  0  0
  3 34  1  0  0  0  0
  4  5  1  0  0  0  0
  4 21  1  0  0  0  0
  5 10  1  0  0  0  0
  5  6  2  0  0  0  0
  6  7  1  0  0  0  0
  7  8  2  0  0  0  0
  7 35  1  0  0  0  0
  8  9  1  0  0  0  0
  9 13  1  0  0  0  0
  9 10  2  0  0  0  0
 10 11  1  0  0  0  0
 11 12  2  0  0  0  0
 12 13  1  0  0  0  0
 12 36  1  0  0  0  0
 13 14  1  0  0  0  0
 14 15  1  0  0  0  0
 14 37  1  0  0  0  0
 14 38  1  0  0  0  0
 15 20  1  0  0  0  0
 15 16  1  0  0  0  0
 15 17  1  0  0  0  0
 16 39  1  0  0  0  0
 17 18  1  0  0  0  0
 17 40  1  0  0  0  0
 17 41  1  0  0  0  0
 18 19  1  0  0  0  0
 18 42  1  0  0  0  0
 18 43  1  0  0  0  0
 19 20  1  0  0  0  0
 20 44  1  0  0  0  0
 20 45  1  0  0  0  0
 21 22  1  0  0  0  0
 21 46  1  0  0  0  0
 21 47  1  0  0  0  0
 22 26  1  0  0  0  0
 22 23  1  0  0  0  0
 22 28  1  0  0  0  0
 23 24  1  0  0  0  0
 23 48  1  0  0  0  0
 23 49  1  0  0  0  0
 24 25  1  0  0  0  0
 24 50  1  0  0  0  0
 24 51  1  0  0  0  0
 25 26  1  0  0  0  0
 26 27  1  0  0  0  0
 26 52  1  0  0  0  0
 27 53  1  0  0  0  0
 27 54  1  0  0  0  0
 27 55  1  0  0  0  0
M  END
> <s_m_source_file>
AV-unprocessed.smi

> <i_m_source_file_index>
281

> <i_lp_mmshare_version>
43012

> <i_f3d_flags>
0

> <s_epik_input>
W0NIM11bQ0BASF0xT1tDSDJdW0NIMl1bQ0BAXTEyW0NIMl1OKFtDSDJdW0NASF0oTzIpW0NIM10pYyhuW2NIXW4zKWMoYzM0KW5bY0hdbjRbQ0gyXVtDQEBdNShbT0hdKVtDSDJdW0NIMl1PW0NIMl01

> <s_epik_cmdline>
J2VwaWtfcHl0aG9uJywgJy1waCcsICc3LjAnLCAnLXRuJywgJzgnLCAnLW1hJywgJzIwMCcsICctbWV0YWxfYmluZGluZycsICctaW1hZScsICc8aW5maWxlLm1hZT4nLCAnLW9tYWUnLCAnPG91dGZpbGUubWFlPic=

> <r_lp_tautomer_probability>
1

> <r_epik_Ionization_Penalty>
0.00571331

> <r_epik_Ionization_Penalty_Charging>
0

> <r_epik_Ionization_Penalty_Neutral>
0.00571331

> <r_epik_State_Penalty>
0.00399586

> <r_epik_Charging_Adjusted_Penalty>
0.00399586

> <i_epik_Tot_Q>
0

> <i_epik_Tot_abs_Q>
0

> <r_epik_Metal_State_Penalty>
-0

> <b_epik_Metal_Only>
0

> <s_lp_Force_Field>
OPLS_2005

> <r_lp_Energy>
53.7875

> <b_lp_Chiralities_Consistent>
1

> <s_lp_Variant>
AV-unprocessed.smi:281-13

> <Gold.Version>
5.8.1

> <Gold.Id.Protein>
6NUR|6NUR_protein|mol2

> <Gold.PLP.Fitness>
45.6221

> <Gold.PLP.PLP>
-41.5476

> <Gold.PLP.part.hbond>
-3.0000

> <Gold.PLP.part.metal>
0.0000

> <Gold.PLP.part.buried>
3.8570

> <Gold.PLP.part.nonpolar>
-42.2100

> <Gold.PLP.part.repulsive>
1.2784

> <Gold.PLP.ligand.clash>
0.0000

> <Gold.PLP.ligand.torsion>
0.7566

> <Gold.PLP.Chemscore.Hbond>
1.7500

> <Gold.PLP.Chemscore.CHOScore>
0.0000

> <Gold.PLP.Chemscore.Metal>
0.0000

> <Gold.Chemscore.Hbonds>
donor molecule, donor type, donor heavy atom, donor atom, acceptor molecule, acceptor atom, score
      P1  H  7989  7998       L1     6  0.65
      P1  H  7997  8010       L1     8  1.00

> <Gold.PLP.Chemscore.Internal.Correction>
0.3376

> <Gold.Rescore>
     Score         DG    S(hbond)    S(metal)    S(lipo)     H(rot)  DE(clash)    DE(int)     intcor
     10.78     -16.06       0.93        0.00     109.72       2.09       3.68       1.59       ----

> <Gold.Chemscore.Fitness>
10.7823

> <Gold.Chemscore.DG>
-16.0552

> <Gold.Chemscore.ZeroCoef>
-5.4800

> <Gold.Chemscore.Hbond>
0.9267

> <Gold.Chemscore.Metal>
0.0000

> <Gold.Chemscore.Lipo>
109.7201

> <Gold.Chemscore.Internal_Hbond>
0.0000

> <Gold.Chemscore.DEClash>
3.6791

> <Gold.Chemscore.DEInternal>
1.5938

> <Gold.Chemscore.Rot>
2.0927

> <Gold.Chemscore.Internal.Correction>
   9.000000E+99

> <Gold.Chemscore.Hbonds>
donor molecule, donor type, donor heavy atom, donor atom, acceptor molecule, acceptor atom, score
      P1  H  7989  7998       L1     6  0.02
      P1  H  7997  8010       L1     8  0.90

> <Gold.Chemscore.Hbond.Weighted>
-3.0953

> <Gold.Chemscore.Metal.Weighted>
-0.0000

> <Gold.Chemscore.Lipo.Weighted>
-12.8372

> <Gold.Chemscore.Internal_Hbond.Weighted>
0.0000

> <Gold.Chemscore.DEClash.Weighted>
3.6791

> <Gold.Chemscore.DEInternal.Weighted>
1.5938

> <Gold.Chemscore.Rot.Weighted>
5.3573

> <Gold.Chemscore.Internal.Correction.Weighted>
   9.000000E+99

> <Gold.Protein.RotatedTorsions>
[ 6907 6896 6895 6894 ] final   98.78 input  -60.11 | X-H torsion
[ 7974 7965 7964 7962 ] final  139.07 input  175.53 | X-H torsion
[ 8008 7997 7996 7995 ] final   76.51 input   59.86 | X-H torsion
[ 10167 10162 10161 10158 ] final -138.83 input  -65.29 | X-H torsion
[ 10718 10713 10712 10709 ] final -102.46 input   66.30 | X-H torsion
[ 10763 10752 10751 10750 ] final  -63.22 input  -60.55 | X-H torsion
[ 11005 11000 10999 10996 ] final  -51.99 input  -57.11 | X-H torsion

> <Gold.Protein.ActiveResidues>
 VAL166  LYS551  ARG553  GLY616  TRP617  ASP618  TYR619  PRO620  LYS621  CYS622 
 ASP623  PHE694  ASN695  SER759  ASP760  ASP761  ALA762  ILE779  LEU786  VAL792 
 PHE793  MET794  SER795  GLU796  ALA797  LYS798  CYS799  TRP800  GLU811  SER814 

> <Gold.Protein.RotatedAtoms>
  152.5403  134.0528  159.8117 H   0  0  0  0  0  0  0  0  0  0  0  0  # atno 6907 bound_to 6896
  151.0667  133.5492  159.2637 H   0  0  0  0  0  0  0  0  0  0  0  0  # atno 6908 bound_to 6896
  151.2370  135.0583  159.9064 H   0  0  0  0  0  0  0  0  0  0  0  0  # atno 6909 bound_to 6896
  144.9313  139.5043  143.5616 H   0  0  0  0  0  0  0  0  0  0  0  0  # atno 7974 bound_to 7965
  155.8283  140.3467  155.5556 H   0  0  0  0  0  0  0  0  0  0  0  0  # atno 8008 bound_to 7997
  155.8269  140.0921  157.1836 H   0  0  0  0  0  0  0  0  0  0  0  0  # atno 8009 bound_to 7997
  154.4004  140.1419  156.3554 H   0  0  0  0  0  0  0  0  0  0  0  0  # atno 8010 bound_to 7997
  139.8439  143.7286  152.2662 H   0  0  0  0  0  0  0  0  0  0  0  0  # atno 10167 bound_to 10162
  156.0229  130.5421  150.7111 H   0  0  0  0  0  0  0  0  0  0  0  0  # atno 10718 bound_to 10713
  154.3117  135.6214  153.5469 H   0  0  0  0  0  0  0  0  0  0  0  0  # atno 10763 bound_to 10752
  152.9829  135.5703  154.5169 H   0  0  0  0  0  0  0  0  0  0  0  0  # atno 10764 bound_to 10752
  154.4820  135.2863  155.1539 H   0  0  0  0  0  0  0  0  0  0  0  0  # atno 10765 bound_to 10752
  141.0901  133.6634  156.3959 H   0  0  0  0  0  0  0  0  0  0  0  0  # atno 11005 bound_to 11000
  146.3248  139.8266  142.8916 LP  0  0  0  0  0  0  0  0  0  0  0  0  # atno 17320 bound_to 7965
  145.3137  141.0226  143.3540 LP  0  0  0  0  0  0  0  0  0  0  0  0  # atno 17321 bound_to 7965
  139.7531  144.7528  151.0476 LP  0  0  0  0  0  0  0  0  0  0  0  0  # atno 17342 bound_to 10162
  140.7795  143.4836  150.9985 LP  0  0  0  0  0  0  0  0  0  0  0  0  # atno 17343 bound_to 10162
  157.4749  131.0897  151.0601 LP  0  0  0  0  0  0  0  0  0  0  0  0  # atno 17370 bound_to 10713
  157.1051  130.5998  149.5469 LP  0  0  0  0  0  0  0  0  0  0  0  0  # atno 17371 bound_to 10713
  140.5272  134.6247  157.5338 LP  0  0  0  0  0  0  0  0  0  0  0  0  # atno 17394 bound_to 11000
  139.9725  134.7269  156.0013 LP  0  0  0  0  0  0  0  0  0  0  0  0  # atno 17395 bound_to 11000

$$$$
