AV-unprocessed.smi:3011|AV-procd|sdf|11460|dock8
  -GOLD-   2272016393D 1   1.00000     0.00000
 Structure written by MMmdl.
 47 49  0  0  0  0  0  0  0  0  2 V2000
  146.7317  138.1658  163.4402 C   0  0  0  0  0  0  0  0  0  0  0  0
  147.4227  137.6844  162.2971 O   0  0  0  0  0  0  0  0  0  0  0  0
  147.3093  136.3470  161.9782 C   0  0  0  0  0  0  0  0  0  0  0  0
  146.5609  135.4181  162.7450 C   0  0  0  0  0  0  0  0  0  0  0  0
  146.4821  134.0691  162.3548 C   0  0  0  0  0  0  0  0  0  0  0  0
  147.1462  133.6334  161.1958 C   0  0  0  0  0  0  0  0  0  0  0  0
  147.8924  134.5458  160.4282 C   0  0  0  0  0  0  0  0  0  0  0  0
  147.9824  135.9071  160.8148 C   0  0  0  0  0  0  0  0  0  0  0  0
  148.7022  136.8538  160.1165 O   0  0  0  0  0  0  0  0  0  0  0  0
  149.0178  136.6005  158.7543 C   0  0  0  0  0  0  0  0  0  0  0  0
  147.9167  137.1998  157.8696 C   0  0  0  0  0  0  0  0  0  0  0  0
  148.3923  137.4763  156.5052 N   0  0  0  0  0  0  0  0  0  0  0  0
  148.6042  136.6392  155.4462 C   0  0  0  0  0  0  0  0  0  0  0  0
  148.4136  135.1504  155.4106 C   0  0  1  0  0  0  0  0  0  0  0  0
  146.9546  134.7746  155.7095 C   0  0  0  0  0  0  0  0  0  0  0  0
  148.8046  134.5908  154.1228 N   0  0  0  0  0  0  0  0  0  0  0  0
  148.8566  133.2807  153.8529 C   0  0  0  0  0  0  0  0  0  0  0  0
  148.5740  132.4146  154.6766 O   0  0  0  0  0  0  0  0  0  0  0  0
  149.0613  137.4076  154.4158 N   0  3  0  0  0  0  0  0  0  0  0  0
  149.1158  138.7449  154.8065 C   0  0  0  0  0  0  0  0  0  0  0  0
  149.5003  139.8839  154.1058 C   0  0  0  0  0  0  0  0  0  0  0  0
  149.4323  141.1082  154.8025 C   0  0  0  0  0  0  0  0  0  0  0  0
  148.9960  141.1671  156.1419 C   0  0  0  0  0  0  0  0  0  0  0  0
  148.6114  140.0047  156.8424 C   0  0  0  0  0  0  0  0  0  0  0  0
  148.6827  138.7979  156.1465 C   0  0  0  0  0  0  0  0  0  0  0  0
  146.9174  139.2342  163.5477 H   0  0  0  0  0  0  0  0  0  0  0  0
  147.0802  137.6777  164.3512 H   0  0  0  0  0  0  0  0  0  0  0  0
  145.6541  138.0270  163.3434 H   0  0  0  0  0  0  0  0  0  0  0  0
  146.0353  135.7156  163.6394 H   0  0  0  0  0  0  0  0  0  0  0  0
  145.9099  133.3684  162.9449 H   0  0  0  0  0  0  0  0  0  0  0  0
  147.0844  132.5978  160.8956 H   0  0  0  0  0  0  0  0  0  0  0  0
  148.3897  134.1735  159.5458 H   0  0  0  0  0  0  0  0  0  0  0  0
  149.9790  137.0458  158.4936 H   0  0  0  0  0  0  0  0  0  0  0  0
  149.0830  135.5258  158.5791 H   0  0  0  0  0  0  0  0  0  0  0  0
  147.0538  136.5358  157.8173 H   0  0  0  0  0  0  0  0  0  0  0  0
  147.5538  138.1327  158.2998 H   0  0  0  0  0  0  0  0  0  0  0  0
  149.0324  134.6976  156.1866 H   0  0  0  0  0  0  0  0  0  0  0  0
  146.6358  135.1781  156.6709 H   0  0  0  0  0  0  0  0  0  0  0  0
  146.8295  133.6921  155.7494 H   0  0  0  0  0  0  0  0  0  0  0  0
  146.2743  135.1581  154.9483 H   0  0  0  0  0  0  0  0  0  0  0  0
  149.0508  135.2400  153.3895 H   0  0  0  0  0  0  0  0  0  0  0  0
  149.1772  133.0848  152.8179 H   0  0  0  0  0  0  0  0  0  0  0  0
  149.8332  139.8412  153.0791 H   0  0  0  0  0  0  0  0  0  0  0  0
  149.7189  142.0201  154.2989 H   0  0  0  0  0  0  0  0  0  0  0  0
  148.9552  142.1237  156.6425 H   0  0  0  0  0  0  0  0  0  0  0  0
  148.2770  140.0623  157.8677 H   0  0  0  0  0  0  0  0  0  0  0  0
  149.3098  137.0388  153.5071 H   0  0  0  0  0  0  0  0  0  0  0  0
  1  2  1  0  0  0  0
  1 26  1  0  0  0  0
  1 27  1  0  0  0  0
  1 28  1  0  0  0  0
  2  3  1  0  0  0  0
  3  8  1  0  0  0  0
  3  4  2  0  0  0  0
  4  5  1  0  0  0  0
  4 29  1  0  0  0  0
  5  6  2  0  0  0  0
  5 30  1  0  0  0  0
  6  7  1  0  0  0  0
  6 31  1  0  0  0  0
  7  8  2  0  0  0  0
  7 32  1  0  0  0  0
  8  9  1  0  0  0  0
  9 10  1  0  0  0  0
 10 11  1  0  0  0  0
 10 33  1  0  0  0  0
 10 34  1  0  0  0  0
 11 12  1  0  0  0  0
 11 35  1  0  0  0  0
 11 36  1  0  0  0  0
 12 25  1  0  0  0  0
 12 13  1  0  0  0  0
 13 14  1  0  0  0  0
 13 19  2  0  0  0  0
 14 15  1  0  0  0  0
 14 16  1  0  0  0  0
 14 37  1  0  0  0  0
 15 38  1  0  0  0  0
 15 39  1  0  0  0  0
 15 40  1  0  0  0  0
 16 17  1  0  0  0  0
 16 41  1  0  0  0  0
 17 18  2  0  0  0  0
 17 42  1  0  0  0  0
 19 20  1  0  0  0  0
 19 47  1  0  0  0  0
 20 25  2  0  0  0  0
 20 21  1  0  0  0  0
 21 22  2  0  0  0  0
 21 43  1  0  0  0  0
 22 23  1  0  0  0  0
 22 44  1  0  0  0  0
 23 24  2  0  0  0  0
 23 45  1  0  0  0  0
 24 25  1  0  0  0  0
 24 46  1  0  0  0  0
M  CHG  1  19   1
M  END
> <s_m_source_file>
AV-unprocessed.smi

> <i_m_source_file_index>
3011

> <i_lp_mmshare_version>
43012

> <i_f3d_flags>
0

> <s_epik_input>
W0NIM11PYzFbY0hdW2NIXVtjSF1bY0hdYzFPW0NIMl1bQ0gyXW4oYyhuMilbQ0BIXShbQ0gzXSlbTkhdW0NIXT1PKWMoYzIzKVtjSF1bY0hdW2NIXVtjSF0z

> <s_epik_cmdline>
J2VwaWtfcHl0aG9uJywgJy1waCcsICc3LjAnLCAnLXRuJywgJzgnLCAnLW1hJywgJzIwMCcsICctbWV0YWxfYmluZGluZycsICctaW1hZScsICc8aW5maWxlLm1hZT4nLCAnLW9tYWUnLCAnPG91dGZpbGUubWFlPic=

> <r_lp_tautomer_probability>
1

> <r_epik_Ionization_Penalty>
1.14644

> <r_epik_Ionization_Penalty_Charging>
1.14644

> <r_epik_Ionization_Penalty_Neutral>
5.5802e-08

> <r_epik_State_Penalty>
1.20743

> <r_epik_Charging_Adjusted_Penalty>
2.35387

> <i_epik_Tot_Q>
1

> <i_epik_Tot_abs_Q>
1

> <r_epik_Metal_State_Penalty>
1.28856

> <b_epik_Metal_Only>
0

> <s_lp_Force_Field>
OPLS_2005

> <r_lp_Energy>
19.9928

> <b_lp_Chiralities_Consistent>
1

> <s_lp_Variant>
AV-unprocessed.smi:3011-4

> <Gold.Version>
5.8.1

> <Gold.Id.Protein>
6NUR|6NUR_protein|mol2

> <Gold.PLP.Fitness>
47.4476

> <Gold.PLP.PLP>
-36.3792

> <Gold.PLP.part.hbond>
-4.1893

> <Gold.PLP.part.metal>
0.0000

> <Gold.PLP.part.buried>
-1.4002

> <Gold.PLP.part.nonpolar>
-29.8866

> <Gold.PLP.part.repulsive>
0.0478

> <Gold.PLP.ligand.clash>
0.0000

> <Gold.PLP.ligand.torsion>
0.8873

> <Gold.PLP.Chemscore.Hbond>
4.2550

> <Gold.PLP.Chemscore.CHOScore>
0.0000

> <Gold.PLP.Chemscore.Metal>
0.0000

> <Gold.Chemscore.Hbonds>
donor molecule, donor type, donor heavy atom, donor atom, acceptor molecule, acceptor atom, score
      L1  H    16    41       P1  7948  1.00
      L1  H    19    47       P1  7948  2.00
      P1  H  6931  6943       L1     2  0.59
      P1  H  6934  6947       L1     2  0.45

> <Gold.PLP.Chemscore.Internal.Correction>
0.0780

> <Gold.Rescore>
     Score         DG    S(hbond)    S(metal)    S(lipo)     H(rot)  DE(clash)    DE(int)     intcor
     15.53     -17.53       2.68        0.00      84.78       2.66       0.28       1.71       ----

> <Gold.Chemscore.Fitness>
15.5320

> <Gold.Chemscore.DG>
-17.5255

> <Gold.Chemscore.ZeroCoef>
-5.4800

> <Gold.Chemscore.Hbond>
2.6756

> <Gold.Chemscore.Metal>
0.0000

> <Gold.Chemscore.Lipo>
84.7838

> <Gold.Chemscore.Internal_Hbond>
0.0000

> <Gold.Chemscore.DEClash>
0.2785

> <Gold.Chemscore.DEInternal>
1.7150

> <Gold.Chemscore.Rot>
2.6604

> <Gold.Chemscore.Internal.Correction>
   9.000000E+99

> <Gold.Chemscore.Hbonds>
donor molecule, donor type, donor heavy atom, donor atom, acceptor molecule, acceptor atom, score
      L1  H    16    41       P1  7948  0.40
      L1  H    19    47       P1  7948  0.95
      P1  H  6931  6943       L1     2  0.46
      P1  H  6934  6947       L1     2  0.22

> <Gold.Chemscore.Hbond.Weighted>
-8.9364

> <Gold.Chemscore.Metal.Weighted>
-0.0000

> <Gold.Chemscore.Lipo.Weighted>
-9.9197

> <Gold.Chemscore.Internal_Hbond.Weighted>
0.0000

> <Gold.Chemscore.DEClash.Weighted>
0.2785

> <Gold.Chemscore.DEInternal.Weighted>
1.7150

> <Gold.Chemscore.Rot.Weighted>
6.8106

> <Gold.Chemscore.Internal.Correction.Weighted>
   9.000000E+99

> <Gold.Protein.RotatedTorsions>
[ 6907 6896 6895 6894 ] final  -26.91 input  -60.11 | X-H torsion
[ 7974 7965 7964 7962 ] final   33.59 input  175.53 | X-H torsion
[ 8008 7997 7996 7995 ] final  117.29 input   59.86 | X-H torsion
[ 10167 10162 10161 10158 ] final  147.63 input  -65.29 | X-H torsion
[ 10718 10713 10712 10709 ] final   37.61 input   66.30 | X-H torsion
[ 10763 10752 10751 10750 ] final  -51.30 input  -60.55 | X-H torsion
[ 11005 11000 10999 10996 ] final  -37.60 input  -57.11 | X-H torsion

> <Gold.Protein.ActiveResidues>
 VAL166  LYS551  ARG553  GLY616  TRP617  ASP618  TYR619  PRO620  LYS621  CYS622 
 ASP623  PHE694  ASN695  SER759  ASP760  ASP761  ALA762  ILE779  LEU786  VAL792 
 PHE793  MET794  SER795  GLU796  ALA797  LYS798  CYS799  TRP800  GLU811  SER814 

> <Gold.Protein.RotatedAtoms>
  151.1543  135.0243  159.8682 H   0  0  0  0  0  0  0  0  0  0  0  0  # atno 6907 bound_to 6896
  152.5452  134.1352  159.8466 H   0  0  0  0  0  0  0  0  0  0  0  0  # atno 6908 bound_to 6896
  151.1440  133.4906  159.2629 H   0  0  0  0  0  0  0  0  0  0  0  0  # atno 6909 bound_to 6896
  146.1410  139.6377  142.9163 H   0  0  0  0  0  0  0  0  0  0  0  0  # atno 7974 bound_to 7965
  156.2486  140.2899  156.0655 H   0  0  0  0  0  0  0  0  0  0  0  0  # atno 8008 bound_to 7997
  155.1728  140.0402  157.2884 H   0  0  0  0  0  0  0  0  0  0  0  0  # atno 8009 bound_to 7997
  154.6314  140.2500  155.7437 H   0  0  0  0  0  0  0  0  0  0  0  0  # atno 8010 bound_to 7997
  139.4887  144.5740  151.7000 H   0  0  0  0  0  0  0  0  0  0  0  0  # atno 10167 bound_to 10162
  157.3490  130.7588  149.6965 H   0  0  0  0  0  0  0  0  0  0  0  0  # atno 10718 bound_to 10713
  154.1243  135.6530  153.4909 H   0  0  0  0  0  0  0  0  0  0  0  0  # atno 10763 bound_to 10752
  153.0215  135.5277  154.7065 H   0  0  0  0  0  0  0  0  0  0  0  0  # atno 10764 bound_to 10752
  154.6282  135.2973  155.0218 H   0  0  0  0  0  0  0  0  0  0  0  0  # atno 10765 bound_to 10752
  140.9964  133.6978  156.1943 H   0  0  0  0  0  0  0  0  0  0  0  0  # atno 11005 bound_to 11000
  145.5046  141.0437  143.2521 LP  0  0  0  0  0  0  0  0  0  0  0  0  # atno 17320 bound_to 7965
  144.7793  139.6561  143.7161 LP  0  0  0  0  0  0  0  0  0  0  0  0  # atno 17321 bound_to 7965
  140.5333  144.0695  150.6061 LP  0  0  0  0  0  0  0  0  0  0  0  0  # atno 17342 bound_to 10162
  140.3693  143.2864  152.0296 LP  0  0  0  0  0  0  0  0  0  0  0  0  # atno 17343 bound_to 10162
  155.9718  130.4146  150.4140 LP  0  0  0  0  0  0  0  0  0  0  0  0  # atno 17370 bound_to 10713
  157.2200  131.0480  151.2552 LP  0  0  0  0  0  0  0  0  0  0  0  0  # atno 17371 bound_to 10713
  140.6958  134.4617  157.5587 LP  0  0  0  0  0  0  0  0  0  0  0  0  # atno 17394 bound_to 11000
  139.9017  134.8541  156.1869 LP  0  0  0  0  0  0  0  0  0  0  0  0  # atno 17395 bound_to 11000

$$$$
