AV-unprocessed.smi:1965|AV-procd|sdf|7935|dock5
  -GOLD-   2272010103D 1   1.00000     0.00000
 Structure written by MMmdl.
 37 39  0  0  0  0  0  0  0  0  2 V2000
  145.2853  129.6930  151.8317 O   0  0  0  0  0  0  0  0  0  0  0  0
  146.3527  129.9964  151.3021 C   0  0  0  0  0  0  0  0  0  0  0  0
  146.4965  131.1627  150.6382 N   0  0  0  0  0  0  0  0  0  0  0  0
  145.5775  132.2248  150.3959 C   0  0  0  0  0  0  0  0  0  0  0  0
  144.4171  132.1045  149.7374 N   0  0  0  0  0  0  0  0  0  0  0  0
  143.7401  133.3224  149.6345 C   0  0  0  0  0  0  0  0  0  0  0  0
  144.4072  134.3711  150.2162 C   0  0  0  0  0  0  0  0  0  0  0  0
  145.9209  133.8678  150.9192 S   0  0  0  0  0  0  0  0  0  0  0  0
  147.4367  129.2036  151.3457 N   0  0  0  0  0  0  0  0  0  0  0  0
  147.5307  127.9201  152.0370 C   0  0  1  0  0  0  0  0  0  0  0  0
  148.0939  126.7995  151.1412 C   0  0  0  0  0  0  0  0  0  0  0  0
  149.0602  126.0273  152.0450 C   0  0  0  0  0  0  0  0  0  0  0  0
  149.5887  127.0727  152.9285 N   0  3  2  0  0  0  0  0  0  0  0  0
  150.3798  126.6670  154.1081 C   0  0  0  0  0  0  0  0  0  0  0  0
  150.9694  127.9363  154.7603 C   0  0  0  0  0  0  0  0  0  0  0  0
  149.8871  129.0005  155.0523 C   0  0  0  0  0  0  0  0  0  0  0  0
  149.0121  129.2840  153.8122 C   0  0  0  0  0  0  0  0  0  0  0  0
  148.4588  127.9519  153.2740 C   0  0  1  0  0  0  0  0  0  0  0  0
  147.3894  131.2757  150.1803 H   0  0  0  0  0  0  0  0  0  0  0  0
  142.7870  133.3528  149.1272 H   0  0  0  0  0  0  0  0  0  0  0  0
  144.1024  135.4059  150.2714 H   0  0  0  0  0  0  0  0  0  0  0  0
  148.2701  129.5317  150.8779 H   0  0  0  0  0  0  0  0  0  0  0  0
  146.5341  127.6167  152.3640 H   0  0  0  0  0  0  0  0  0  0  0  0
  147.3136  126.1618  150.7247 H   0  0  0  0  0  0  0  0  0  0  0  0
  148.6497  127.2264  150.3046 H   0  0  0  0  0  0  0  0  0  0  0  0
  148.5231  125.2823  152.6345 H   0  0  0  0  0  0  0  0  0  0  0  0
  149.8507  125.5253  151.4863 H   0  0  0  0  0  0  0  0  0  0  0  0
  149.7507  126.1229  154.8139 H   0  0  0  0  0  0  0  0  0  0  0  0
  151.1812  125.9941  153.8015 H   0  0  0  0  0  0  0  0  0  0  0  0
  151.4949  127.6747  155.6792 H   0  0  0  0  0  0  0  0  0  0  0  0
  151.7173  128.3659  154.0921 H   0  0  0  0  0  0  0  0  0  0  0  0
  149.2521  128.6508  155.8675 H   0  0  0  0  0  0  0  0  0  0  0  0
  150.3525  129.9228  155.4012 H   0  0  0  0  0  0  0  0  0  0  0  0
  148.1974  129.9567  154.0817 H   0  0  0  0  0  0  0  0  0  0  0  0
  149.6026  129.7884  153.0460 H   0  0  0  0  0  0  0  0  0  0  0  0
  147.9048  127.4697  154.0826 H   0  0  0  0  0  0  0  0  0  0  0  0
  150.2034  127.6263  152.3491 H   0  0  0  0  0  0  0  0  0  0  0  0
  1  2  2  0  0  0  0
  2  3  1  0  0  0  0
  2  9  1  0  0  0  0
  3  4  1  0  0  0  0
  3 19  1  0  0  0  0
  4  8  1  0  0  0  0
  4  5  2  0  0  0  0
  5  6  1  0  0  0  0
  6  7  2  0  0  0  0
  6 20  1  0  0  0  0
  7  8  1  0  0  0  0
  7 21  1  0  0  0  0
  9 10  1  0  0  0  0
  9 22  1  0  0  0  0
 10 18  1  0  0  0  0
 10 11  1  0  0  0  0
 10 23  1  0  0  0  0
 11 12  1  0  0  0  0
 11 24  1  0  0  0  0
 11 25  1  0  0  0  0
 12 13  1  0  0  0  0
 12 26  1  0  0  0  0
 12 27  1  0  0  0  0
 13 18  1  0  0  0  0
 13 14  1  0  0  0  0
 13 37  1  0  0  0  0
 14 15  1  0  0  0  0
 14 28  1  0  0  0  0
 14 29  1  0  0  0  0
 15 16  1  0  0  0  0
 15 30  1  0  0  0  0
 15 31  1  0  0  0  0
 16 17  1  0  0  0  0
 16 32  1  0  0  0  0
 16 33  1  0  0  0  0
 17 18  1  0  0  0  0
 17 34  1  0  0  0  0
 17 35  1  0  0  0  0
 18 36  1  0  0  0  0
M  CHG  1  13   1
M  END
> <s_m_source_file>
AV-unprocessed.smi

> <i_m_source_file_index>
1965

> <i_lp_mmshare_version>
43012

> <i_f3d_flags>
0

> <s_epik_input>
czFbY0hdW2NIXW5jMVtOSF1DKD1PKVtOSF1bQ0BIXShbQ0gyXVtDSDJdMilbQ0BASF0oTjIzKVtDSDJdW0NIMl1bQ0gyXVtDSDJdMw==

> <s_epik_cmdline>
J2VwaWtfcHl0aG9uJywgJy1waCcsICc3LjAnLCAnLXRuJywgJzgnLCAnLW1hJywgJzIwMCcsICctbWV0YWxfYmluZGluZycsICctaW1hZScsICc8aW5maWxlLm1hZT4nLCAnLW9tYWUnLCAnPG91dGZpbGUubWFlPic=

> <r_lp_tautomer_probability>
1

> <r_epik_Ionization_Penalty>
0.00125962

> <r_epik_Ionization_Penalty_Charging>
0.00107044

> <r_epik_Ionization_Penalty_Neutral>
0.000189176

> <r_epik_State_Penalty>
-0

> <r_epik_Charging_Adjusted_Penalty>
0.00107044

> <i_epik_Tot_Q>
1

> <i_epik_Tot_abs_Q>
1

> <r_epik_Metal_State_Penalty>
0.0179285

> <b_epik_Metal_Only>
0

> <s_lp_Force_Field>
OPLS_2005

> <r_lp_Energy>
42.2865

> <b_lp_Chiralities_Consistent>
1

> <s_lp_Variant>
AV-unprocessed.smi:1965-4

> <Gold.Version>
5.8.1

> <Gold.Id.Protein>
6NUR|6NUR_protein|mol2

> <Gold.PLP.Fitness>
39.5006

> <Gold.PLP.PLP>
-29.8548

> <Gold.PLP.part.hbond>
-3.0344

> <Gold.PLP.part.metal>
0.0000

> <Gold.PLP.part.buried>
0.6032

> <Gold.PLP.part.nonpolar>
-26.7632

> <Gold.PLP.part.repulsive>
0.5380

> <Gold.PLP.ligand.clash>
0.0000

> <Gold.PLP.ligand.torsion>
0.6374

> <Gold.PLP.Chemscore.Hbond>
2.6400

> <Gold.PLP.Chemscore.CHOScore>
1.0000

> <Gold.PLP.Chemscore.Metal>
0.0000

> <Gold.Chemscore.Hbonds>
donor molecule, donor type, donor heavy atom, donor atom, acceptor molecule, acceptor atom, score
      L1  H     3    19       P1 10747  0.88
      L1  H     9    22       P1 10747  0.91
      L1  H    13    37       P1 10737  0.85
      L1  C     6    20       P1 10186  1.00

> <Gold.PLP.Chemscore.Internal.Correction>
0.0007

> <Gold.Rescore>
     Score         DG    S(hbond)    S(metal)    S(lipo)     H(rot)  DE(clash)    DE(int)     intcor
     17.53     -19.03       2.51        0.00      66.00       1.00       1.01       0.49       ----

> <Gold.Chemscore.Fitness>
17.5262

> <Gold.Chemscore.DG>
-19.0257

> <Gold.Chemscore.ZeroCoef>
-5.4800

> <Gold.Chemscore.Hbond>
2.5100

> <Gold.Chemscore.Metal>
0.0000

> <Gold.Chemscore.Lipo>
66.0027

> <Gold.Chemscore.Internal_Hbond>
0.0000

> <Gold.Chemscore.DEClash>
1.0110

> <Gold.Chemscore.DEInternal>
0.4885

> <Gold.Chemscore.Rot>
1.0000

> <Gold.Chemscore.Internal.Correction>
   9.000000E+99

> <Gold.Chemscore.Hbonds>
donor molecule, donor type, donor heavy atom, donor atom, acceptor molecule, acceptor atom, score
      L1  H     3    19       P1 10747  0.86
      L1  H     9    22       P1 10747  0.30
      L1  H    13    37       P1 10737  0.82
      P1  H 10785 10796       L1     5  0.01

> <Gold.Chemscore.Hbond.Weighted>
-8.3834

> <Gold.Chemscore.Metal.Weighted>
-0.0000

> <Gold.Chemscore.Lipo.Weighted>
-7.7223

> <Gold.Chemscore.Internal_Hbond.Weighted>
0.0000

> <Gold.Chemscore.DEClash.Weighted>
1.0110

> <Gold.Chemscore.DEInternal.Weighted>
0.4885

> <Gold.Chemscore.Rot.Weighted>
2.5600

> <Gold.Chemscore.Internal.Correction.Weighted>
   9.000000E+99

> <Gold.Protein.RotatedTorsions>
[ 6907 6896 6895 6894 ] final  -30.19 input  -60.11 | X-H torsion
[ 7974 7965 7964 7962 ] final   20.60 input  175.53 | X-H torsion
[ 8008 7997 7996 7995 ] final  -99.23 input   59.86 | X-H torsion
[ 10167 10162 10161 10158 ] final -111.56 input  -65.29 | X-H torsion
[ 10718 10713 10712 10709 ] final -144.69 input   66.30 | X-H torsion
[ 10763 10752 10751 10750 ] final -117.86 input  -60.55 | X-H torsion
[ 11005 11000 10999 10996 ] final  110.18 input  -57.11 | X-H torsion

> <Gold.Protein.ActiveResidues>
 VAL166  LYS551  ARG553  GLY616  TRP617  ASP618  TYR619  PRO620  LYS621  CYS622 
 ASP623  PHE694  ASN695  SER759  ASP760  ASP761  ALA762  ILE779  LEU786  VAL792 
 PHE793  MET794  SER795  GLU796  ALA797  LYS798  CYS799  TRP800  GLU811  SER814 

> <Gold.Protein.RotatedAtoms>
  151.1089  135.0015  159.8483 H   0  0  0  0  0  0  0  0  0  0  0  0  # atno 6907 bound_to 6896
  152.5442  134.1860  159.8665 H   0  0  0  0  0  0  0  0  0  0  0  0  # atno 6908 bound_to 6896
  151.1909  133.4623  159.2628 H   0  0  0  0  0  0  0  0  0  0  0  0  # atno 6909 bound_to 6896
  146.2105  139.8146  142.8692 H   0  0  0  0  0  0  0  0  0  0  0  0  # atno 7974 bound_to 7965
  154.8119  140.0449  157.1349 H   0  0  0  0  0  0  0  0  0  0  0  0  # atno 8008 bound_to 7997
  154.9358  140.3046  155.5125 H   0  0  0  0  0  0  0  0  0  0  0  0  # atno 8009 bound_to 7997
  156.2972  140.2314  156.4422 H   0  0  0  0  0  0  0  0  0  0  0  0  # atno 8010 bound_to 7997
  140.1322  143.4351  152.1619 H   0  0  0  0  0  0  0  0  0  0  0  0  # atno 10167 bound_to 10162
  156.3732  130.7799  151.1982 H   0  0  0  0  0  0  0  0  0  0  0  0  # atno 10718 bound_to 10713
  154.8569  135.4294  154.2047 H   0  0  0  0  0  0  0  0  0  0  0  0  # atno 10763 bound_to 10752
  153.3086  135.6974  153.7142 H   0  0  0  0  0  0  0  0  0  0  0  0  # atno 10764 bound_to 10752
  153.6244  135.3496  155.2995 H   0  0  0  0  0  0  0  0  0  0  0  0  # atno 10765 bound_to 10752
  139.8876  134.9477  156.6239 H   0  0  0  0  0  0  0  0  0  0  0  0  # atno 11005 bound_to 11000
  145.3159  141.0232  143.3528 LP  0  0  0  0  0  0  0  0  0  0  0  0  # atno 17320 bound_to 7965
  144.8901  139.4785  143.6682 LP  0  0  0  0  0  0  0  0  0  0  0  0  # atno 17321 bound_to 7965
  139.5514  144.7340  151.4424 LP  0  0  0  0  0  0  0  0  0  0  0  0  # atno 17342 bound_to 10162
  140.6810  143.8081  150.7121 LP  0  0  0  0  0  0  0  0  0  0  0  0  # atno 17343 bound_to 10162
  157.7486  131.0366  150.4416 LP  0  0  0  0  0  0  0  0  0  0  0  0  # atno 17370 bound_to 10713
  156.4647  130.4039  149.6554 LP  0  0  0  0  0  0  0  0  0  0  0  0  # atno 17371 bound_to 10713
  140.7718  133.8732  155.8498 LP  0  0  0  0  0  0  0  0  0  0  0  0  # atno 17394 bound_to 11000
  140.9835  134.1374  157.4473 LP  0  0  0  0  0  0  0  0  0  0  0  0  # atno 17395 bound_to 11000

$$$$
