AV-unprocessed.smi:2145|AV-procd|sdf|8736|dock1
  -GOLD-   2272011503D 1   1.00000     0.00000
 Structure written by MMmdl.
 45 47  0  0  0  0  0  0  0  0  2 V2000
  151.9966  145.3507  159.9840 C   0  0  0  0  0  0  0  0  0  0  0  0
  152.1575  143.8525  160.2359 C   0  0  0  0  0  0  0  0  0  0  0  0
  152.5931  143.4797  161.3248 O   0  0  0  0  0  0  0  0  0  0  0  0
  151.7757  142.9178  159.1392 C   0  0  0  0  0  0  0  0  0  0  0  0
  151.9673  141.5290  159.3122 C   0  0  0  0  0  0  0  0  0  0  0  0
  151.6156  140.6250  158.2922 C   0  0  0  0  0  0  0  0  0  0  0  0
  151.0679  141.0825  157.0779 C   0  0  0  0  0  0  0  0  0  0  0  0
  150.7549  140.1285  156.1338 O   0  0  0  0  0  0  0  0  0  0  0  0
  149.9088  140.4993  155.0535 C   0  0  0  0  0  0  0  0  0  0  0  0
  149.2620  139.2285  154.4818 C   0  0  2  0  0  0  0  0  0  0  0  0
  150.1147  138.7049  153.4829 O   0  0  0  0  0  0  0  0  0  0  0  0
  147.8763  139.5113  153.8676 C   0  0  0  0  0  0  0  0  0  0  0  0
  146.9216  140.0618  154.8436 N   0  0  0  0  0  0  0  0  0  0  0  0
  146.4183  139.5040  155.9814 C   0  0  0  0  0  0  0  0  0  0  0  0
  146.7336  138.1509  156.5246 C   0  0  0  0  0  0  0  0  0  0  0  0
  145.5695  140.4135  156.5374 N   0  3  0  0  0  0  0  0  0  0  0  0
  145.5275  141.5637  155.7481 C   0  0  0  0  0  0  0  0  0  0  0  0
  144.8129  142.7478  155.9029 C   0  0  0  0  0  0  0  0  0  0  0  0
  144.9942  143.7307  154.9080 C   0  0  0  0  0  0  0  0  0  0  0  0
  145.8574  143.5170  153.8138 C   0  0  0  0  0  0  0  0  0  0  0  0
  146.5770  142.3126  153.6681 C   0  0  0  0  0  0  0  0  0  0  0  0
  146.3937  141.3456  154.6567 C   0  0  0  0  0  0  0  0  0  0  0  0
  150.8728  142.4744  156.9021 C   0  0  0  0  0  0  0  0  0  0  0  0
  151.2230  143.3807  157.9223 C   0  0  0  0  0  0  0  0  0  0  0  0
  150.9538  145.5943  159.7799 H   0  0  0  0  0  0  0  0  0  0  0  0
  152.6042  145.6626  159.1343 H   0  0  0  0  0  0  0  0  0  0  0  0
  152.3148  145.9205  160.8573 H   0  0  0  0  0  0  0  0  0  0  0  0
  152.3864  141.1405  160.2294 H   0  0  0  0  0  0  0  0  0  0  0  0
  151.7701  139.5666  158.4438 H   0  0  0  0  0  0  0  0  0  0  0  0
  149.1296  141.1597  155.4377 H   0  0  0  0  0  0  0  0  0  0  0  0
  150.4545  141.0402  154.2780 H   0  0  0  0  0  0  0  0  0  0  0  0
  149.1531  138.4885  155.2757 H   0  0  0  0  0  0  0  0  0  0  0  0
  149.9284  139.1492  152.6694 H   0  0  0  0  0  0  0  0  0  0  0  0
  147.9692  140.2443  153.0655 H   0  0  0  0  0  0  0  0  0  0  0  0
  147.4536  138.6167  153.4097 H   0  0  0  0  0  0  0  0  0  0  0  0
  146.1478  137.9511  157.4222 H   0  0  0  0  0  0  0  0  0  0  0  0
  147.7915  138.0859  156.7790 H   0  0  0  0  0  0  0  0  0  0  0  0
  146.5048  137.3845  155.7840 H   0  0  0  0  0  0  0  0  0  0  0  0
  144.1492  142.9124  156.7390 H   0  0  0  0  0  0  0  0  0  0  0  0
  144.4592  144.6663  154.9844 H   0  0  0  0  0  0  0  0  0  0  0  0
  145.9688  144.2919  153.0693 H   0  0  0  0  0  0  0  0  0  0  0  0
  147.2295  142.1580  152.8218 H   0  0  0  0  0  0  0  0  0  0  0  0
  150.4534  142.8751  155.9919 H   0  0  0  0  0  0  0  0  0  0  0  0
  151.0570  144.4330  157.7469 H   0  0  0  0  0  0  0  0  0  0  0  0
  145.0559  140.2557  157.3948 H   0  0  0  0  0  0  0  0  0  0  0  0
  1  2  1  0  0  0  0
  1 25  1  0  0  0  0
  1 26  1  0  0  0  0
  1 27  1  0  0  0  0
  2  3  2  0  0  0  0
  2  4  1  0  0  0  0
  4 24  1  0  0  0  0
  4  5  2  0  0  0  0
  5  6  1  0  0  0  0
  5 28  1  0  0  0  0
  6  7  2  0  0  0  0
  6 29  1  0  0  0  0
  7  8  1  0  0  0  0
  7 23  1  0  0  0  0
  8  9  1  0  0  0  0
  9 10  1  0  0  0  0
  9 30  1  0  0  0  0
  9 31  1  0  0  0  0
 10 11  1  0  0  0  0
 10 12  1  0  0  0  0
 10 32  1  0  0  0  0
 11 33  1  0  0  0  0
 12 13  1  0  0  0  0
 12 34  1  0  0  0  0
 12 35  1  0  0  0  0
 13 22  1  0  0  0  0
 13 14  1  0  0  0  0
 14 15  1  0  0  0  0
 14 16  2  0  0  0  0
 15 36  1  0  0  0  0
 15 37  1  0  0  0  0
 15 38  1  0  0  0  0
 16 17  1  0  0  0  0
 16 45  1  0  0  0  0
 17 22  2  0  0  0  0
 17 18  1  0  0  0  0
 18 19  2  0  0  0  0
 18 39  1  0  0  0  0
 19 20  1  0  0  0  0
 19 40  1  0  0  0  0
 20 21  2  0  0  0  0
 20 41  1  0  0  0  0
 21 22  1  0  0  0  0
 21 42  1  0  0  0  0
 23 24  2  0  0  0  0
 23 43  1  0  0  0  0
 24 44  1  0  0  0  0
M  CHG  1  16   1
M  END
> <s_m_source_file>
AV-unprocessed.smi

> <i_m_source_file_index>
2145

> <i_lp_mmshare_version>
43012

> <i_f3d_flags>
0

> <s_epik_input>
W0NIM11DKD1PKWMxW2NIXVtjSF1jKFtjSF1bY0hdMSlPW0NIMl1bQ0BIXShbT0hdKVtDSDJdbihjKG4yKVtDSDNdKWMoYzIzKVtjSF1bY0hdW2NIXVtjSF0z

> <s_epik_cmdline>
J2VwaWtfcHl0aG9uJywgJy1waCcsICc3LjAnLCAnLXRuJywgJzgnLCAnLW1hJywgJzIwMCcsICctbWV0YWxfYmluZGluZycsICctaW1hZScsICc8aW5maWxlLm1hZT4nLCAnLW9tYWUnLCAnPG91dGZpbGUubWFlPic=

> <r_lp_tautomer_probability>
0.99995

> <r_epik_Ionization_Penalty>
1.05477

> <r_epik_Ionization_Penalty_Charging>
1.05477

> <r_epik_Ionization_Penalty_Neutral>
2.3993e-06

> <r_epik_State_Penalty>
1.10796

> <r_epik_Charging_Adjusted_Penalty>
2.16273

> <i_epik_Tot_Q>
1

> <i_epik_Tot_abs_Q>
1

> <r_epik_Metal_State_Penalty>
5.10164

> <b_epik_Metal_Only>
0

> <s_lp_Force_Field>
OPLS_2005

> <r_lp_Energy>
25.5273

> <b_lp_Chiralities_Consistent>
1

> <s_lp_Variant>
AV-unprocessed.smi:2145-3

> <Gold.Version>
5.8.1

> <Gold.Id.Protein>
6NUR|6NUR_protein|mol2

> <Gold.PLP.Fitness>
46.0106

> <Gold.PLP.PLP>
-44.1827

> <Gold.PLP.part.hbond>
-1.6755

> <Gold.PLP.part.metal>
0.0000

> <Gold.PLP.part.buried>
-6.6286

> <Gold.PLP.part.nonpolar>
-36.2487

> <Gold.PLP.part.repulsive>
0.1086

> <Gold.PLP.ligand.clash>
0.0000

> <Gold.PLP.ligand.torsion>
0.6747

> <Gold.PLP.Chemscore.Hbond>
1.0000

> <Gold.PLP.Chemscore.CHOScore>
0.0000

> <Gold.PLP.Chemscore.Metal>
0.0000

> <Gold.Chemscore.Hbonds>
donor molecule, donor type, donor heavy atom, donor atom, acceptor molecule, acceptor atom, score
      L1  H    11    33       P1  7957  1.00

> <Gold.PLP.Chemscore.Internal.Correction>
0.1773

> <Gold.Rescore>
     Score         DG    S(hbond)    S(metal)    S(lipo)     H(rot)  DE(clash)    DE(int)     intcor
     14.85     -15.53       0.97        0.00     108.52       2.30       0.17       0.50       ----

> <Gold.Chemscore.Fitness>
14.8528

> <Gold.Chemscore.DG>
-15.5270

> <Gold.Chemscore.ZeroCoef>
-5.4800

> <Gold.Chemscore.Hbond>
0.9684

> <Gold.Chemscore.Metal>
0.0000

> <Gold.Chemscore.Lipo>
108.5171

> <Gold.Chemscore.Internal_Hbond>
0.0000

> <Gold.Chemscore.DEClash>
0.1696

> <Gold.Chemscore.DEInternal>
0.5046

> <Gold.Chemscore.Rot>
2.2984

> <Gold.Chemscore.Internal.Correction>
   9.000000E+99

> <Gold.Chemscore.Hbonds>
donor molecule, donor type, donor heavy atom, donor atom, acceptor molecule, acceptor atom, score
      L1  H    11    33       P1  7957  0.85

> <Gold.Chemscore.Hbond.Weighted>
-3.2344

> <Gold.Chemscore.Metal.Weighted>
-0.0000

> <Gold.Chemscore.Lipo.Weighted>
-12.6965

> <Gold.Chemscore.Internal_Hbond.Weighted>
0.0000

> <Gold.Chemscore.DEClash.Weighted>
0.1696

> <Gold.Chemscore.DEInternal.Weighted>
0.5046

> <Gold.Chemscore.Rot.Weighted>
5.8839

> <Gold.Chemscore.Internal.Correction.Weighted>
   9.000000E+99

> <Gold.Protein.RotatedTorsions>
[ 6907 6896 6895 6894 ] final -126.19 input  -60.11 | X-H torsion
[ 7974 7965 7964 7962 ] final   25.99 input  175.53 | X-H torsion
[ 8008 7997 7996 7995 ] final   28.95 input   59.86 | X-H torsion
[ 10167 10162 10161 10158 ] final  137.54 input  -65.29 | X-H torsion
[ 10718 10713 10712 10709 ] final  -28.01 input   66.30 | X-H torsion
[ 10763 10752 10751 10750 ] final  151.94 input  -60.55 | X-H torsion
[ 11005 11000 10999 10996 ] final -163.54 input  -57.11 | X-H torsion

> <Gold.Protein.ActiveResidues>
 VAL166  LYS551  ARG553  GLY616  TRP617  ASP618  TYR619  PRO620  LYS621  CYS622 
 ASP623  PHE694  ASN695  SER759  ASP760  ASP761  ALA762  ILE779  LEU786  VAL792 
 PHE793  MET794  SER795  GLU796  ALA797  LYS798  CYS799  TRP800  GLU811  SER814 

> <Gold.Protein.RotatedAtoms>
  150.8944  133.7200  159.2895 H   0  0  0  0  0  0  0  0  0  0  0  0  # atno 6907 bound_to 6896
  151.4739  135.1046  159.9769 H   0  0  0  0  0  0  0  0  0  0  0  0  # atno 6908 bound_to 6896
  152.4840  133.8277  159.7142 H   0  0  0  0  0  0  0  0  0  0  0  0  # atno 6909 bound_to 6896
  146.1860  139.7389  142.8866 H   0  0  0  0  0  0  0  0  0  0  0  0  # atno 7974 bound_to 7965
  155.0667  140.3196  155.4643 H   0  0  0  0  0  0  0  0  0  0  0  0  # atno 8008 bound_to 7997
  156.2800  140.2119  156.5739 H   0  0  0  0  0  0  0  0  0  0  0  0  # atno 8009 bound_to 7997
  154.7088  140.0500  157.0517 H   0  0  0  0  0  0  0  0  0  0  0  0  # atno 8010 bound_to 7997
  139.5141  144.6404  151.5584 H   0  0  0  0  0  0  0  0  0  0  0  0  # atno 10167 bound_to 10162
  156.4308  130.4445  149.7118 H   0  0  0  0  0  0  0  0  0  0  0  0  # atno 10718 bound_to 10713
  154.1120  135.2838  155.3228 H   0  0  0  0  0  0  0  0  0  0  0  0  # atno 10763 bound_to 10752
  154.6483  135.5378  153.7875 H   0  0  0  0  0  0  0  0  0  0  0  0  # atno 10764 bound_to 10752
  153.0342  135.6503  154.1278 H   0  0  0  0  0  0  0  0  0  0  0  0  # atno 10765 bound_to 10752
  140.5970  134.4986  157.5200 H   0  0  0  0  0  0  0  0  0  0  0  0  # atno 11005 bound_to 11000
  145.3936  141.0376  143.3110 LP  0  0  0  0  0  0  0  0  0  0  0  0  # atno 17320 bound_to 7965
  144.8399  139.5490  143.6905 LP  0  0  0  0  0  0  0  0  0  0  0  0  # atno 17321 bound_to 7965
  140.6169  143.9332  150.6495 LP  0  0  0  0  0  0  0  0  0  0  0  0  # atno 17342 bound_to 10162
  140.2593  143.3536  152.1337 LP  0  0  0  0  0  0  0  0  0  0  0  0  # atno 17343 bound_to 10162
  156.4022  130.7680  151.2689 LP  0  0  0  0  0  0  0  0  0  0  0  0  # atno 17370 bound_to 10713
  157.7508  131.0236  150.3842 LP  0  0  0  0  0  0  0  0  0  0  0  0  # atno 17371 bound_to 10713
  139.9249  134.8076  156.1099 LP  0  0  0  0  0  0  0  0  0  0  0  0  # atno 17394 bound_to 11000
  141.0897  133.6719  156.2514 LP  0  0  0  0  0  0  0  0  0  0  0  0  # atno 17395 bound_to 11000

$$$$
