AV-unprocessed.smi:1133|AV-procd|sdf|4856|dock9
  -GOLD-   22720 3423D 1   1.00000     0.00000
 Structure written by MMmdl.
 41 42  0  0  0  0  0  0  0  0  1 V2000
  147.6009  142.4350  157.6078 C   0  0  0  0  0  0  0  0  0  0  0  0
  148.6975  141.7030  156.8307 C   0  0  0  0  0  0  0  0  0  0  0  0
  149.6789  141.3007  157.4558 O   0  0  0  0  0  0  0  0  0  0  0  0
  148.5531  141.5182  155.4963 N   0  0  0  0  0  0  0  0  0  0  0  0
  149.5125  140.7521  154.6927 C   0  0  0  0  0  0  0  0  0  0  0  0
  148.8595  139.4212  154.2777 C   0  0  0  0  0  0  0  0  0  0  0  0
  147.5305  139.6555  153.5275 C   0  0  0  0  0  0  0  0  0  0  0  0
  146.8517  138.3798  153.3217 N   0  0  0  0  0  0  0  0  0  0  0  0
  146.5293  137.8615  152.1284 C   0  0  0  0  0  0  0  0  0  0  0  0
  146.7833  138.3990  151.0502 O   0  0  0  0  0  0  0  0  0  0  0  0
  145.8883  136.6908  152.2503 N   0  0  0  0  0  0  0  0  0  0  0  0
  145.3975  135.8901  151.1350 C   0  0  0  0  0  0  0  0  0  0  0  0
  146.1861  134.5779  150.9889 C   0  0  0  0  0  0  0  0  0  0  0  0
  145.3172  133.4732  150.6391 N   0  0  0  0  0  0  0  0  0  0  0  0
  143.9470  133.5206  150.4196 C   0  0  0  0  0  0  0  0  0  0  0  0
  143.5535  132.2367  150.1165 C   0  0  0  0  0  0  0  0  0  0  0  0
  144.6578  131.3883  150.1459 N   0  0  0  0  0  0  0  0  0  0  0  0
  145.6656  132.1913  150.4622 C   0  0  0  0  0  0  0  0  0  0  0  0
  146.6148  140.6395  154.2928 C   0  0  0  0  0  0  0  0  0  0  0  0
  147.3795  141.9095  154.7060 C   0  0  0  0  0  0  0  0  0  0  0  0
  146.6434  141.9239  157.5013 H   0  0  0  0  0  0  0  0  0  0  0  0
  147.4973  143.4616  157.2557 H   0  0  0  0  0  0  0  0  0  0  0  0
  147.8417  142.4707  158.6709 H   0  0  0  0  0  0  0  0  0  0  0  0
  149.7864  141.3285  153.8076 H   0  0  0  0  0  0  0  0  0  0  0  0
  150.4471  140.5587  155.2209 H   0  0  0  0  0  0  0  0  0  0  0  0
  149.5465  138.8489  153.6532 H   0  0  0  0  0  0  0  0  0  0  0  0
  148.6801  138.8207  155.1711 H   0  0  0  0  0  0  0  0  0  0  0  0
  147.7725  140.0938  152.5572 H   0  0  0  0  0  0  0  0  0  0  0  0
  146.5994  137.8602  154.1496 H   0  0  0  0  0  0  0  0  0  0  0  0
  145.7244  136.3297  153.1787 H   0  0  0  0  0  0  0  0  0  0  0  0
  144.3329  135.6864  151.2644 H   0  0  0  0  0  0  0  0  0  0  0  0
  145.4919  136.4836  150.2253 H   0  0  0  0  0  0  0  0  0  0  0  0
  146.9520  134.6761  150.2183 H   0  0  0  0  0  0  0  0  0  0  0  0
  146.7008  134.3283  151.9179 H   0  0  0  0  0  0  0  0  0  0  0  0
  143.3815  134.4377  150.4951 H   0  0  0  0  0  0  0  0  0  0  0  0
  142.5684  131.8609  149.8827 H   0  0  0  0  0  0  0  0  0  0  0  0
  146.6811  131.8388  150.5699 H   0  0  0  0  0  0  0  0  0  0  0  0
  145.7545  140.9087  153.6790 H   0  0  0  0  0  0  0  0  0  0  0  0
  146.2171  140.1563  155.1867 H   0  0  0  0  0  0  0  0  0  0  0  0
  146.7102  142.5934  155.2258 H   0  0  0  0  0  0  0  0  0  0  0  0
  147.7103  142.4491  153.8174 H   0  0  0  0  0  0  0  0  0  0  0  0
  1  2  1  0  0  0  0
  1 21  1  0  0  0  0
  1 22  1  0  0  0  0
  1 23  1  0  0  0  0
  2  3  2  0  0  0  0
  2  4  1  0  0  0  0
  4 20  1  0  0  0  0
  4  5  1  0  0  0  0
  5  6  1  0  0  0  0
  5 24  1  0  0  0  0
  5 25  1  0  0  0  0
  6  7  1  0  0  0  0
  6 26  1  0  0  0  0
  6 27  1  0  0  0  0
  7  8  1  0  0  0  0
  7 19  1  0  0  0  0
  7 28  1  0  0  0  0
  8  9  1  0  0  0  0
  8 29  1  0  0  0  0
  9 10  2  0  0  0  0
  9 11  1  0  0  0  0
 11 12  1  0  0  0  0
 11 30  1  0  0  0  0
 12 13  1  0  0  0  0
 12 31  1  0  0  0  0
 12 32  1  0  0  0  0
 13 14  1  0  0  0  0
 13 33  1  0  0  0  0
 13 34  1  0  0  0  0
 14 18  1  0  0  0  0
 14 15  1  0  0  0  0
 15 16  2  0  0  0  0
 15 35  1  0  0  0  0
 16 17  1  0  0  0  0
 16 36  1  0  0  0  0
 17 18  2  0  0  0  0
 18 37  1  0  0  0  0
 19 20  1  0  0  0  0
 19 38  1  0  0  0  0
 19 39  1  0  0  0  0
 20 40  1  0  0  0  0
 20 41  1  0  0  0  0
M  END
> <s_m_source_file>
AV-unprocessed.smi

> <i_m_source_file_index>
1133

> <i_lp_mmshare_version>
43012

> <i_f3d_flags>
0

> <s_epik_input>
W0NIM11DKD1PKU4xW0NIMl1bQ0gyXVtDSF0oW0NIMl1bQ0gyXTEpW05IXUMoPU8pW05IXVtDSDJdW0NIMl1uMltjSF1bY0hdbltjSF0y

> <s_epik_cmdline>
J2VwaWtfcHl0aG9uJywgJy1waCcsICc3LjAnLCAnLXRuJywgJzgnLCAnLW1hJywgJzIwMCcsICctbWV0YWxfYmluZGluZycsICctaW1hZScsICc8aW5maWxlLm1hZT4nLCAnLW9tYWUnLCAnPG91dGZpbGUubWFlPic=

> <r_lp_tautomer_probability>
1

> <r_epik_Ionization_Penalty>
0.622276

> <r_epik_Ionization_Penalty_Charging>
0.622222

> <r_epik_Ionization_Penalty_Neutral>
5.3634e-05

> <r_epik_State_Penalty>
0.638348

> <r_epik_Charging_Adjusted_Penalty>
1.26057

> <i_epik_Tot_Q>
0

> <i_epik_Tot_abs_Q>
0

> <r_epik_Metal_State_Penalty>
0.307013

> <b_epik_Metal_Only>
0

> <s_lp_Force_Field>
OPLS_2005

> <r_lp_Energy>
21.3303

> <b_lp_Chiralities_Consistent>
1

> <s_lp_Variant>
AV-unprocessed.smi:1133-2

> <Gold.Version>
5.8.1

> <Gold.Id.Protein>
6NUR|6NUR_protein|mol2

> <Gold.PLP.Fitness>
43.2885

> <Gold.PLP.PLP>
-32.7398

> <Gold.PLP.part.hbond>
-2.7713

> <Gold.PLP.part.metal>
0.0000

> <Gold.PLP.part.buried>
-0.3722

> <Gold.PLP.part.nonpolar>
-31.0659

> <Gold.PLP.part.repulsive>
0.6584

> <Gold.PLP.ligand.clash>
0.0000

> <Gold.PLP.ligand.torsion>
0.3230

> <Gold.PLP.Chemscore.Hbond>
1.0036

> <Gold.PLP.Chemscore.CHOScore>
2.7189

> <Gold.PLP.Chemscore.Metal>
0.0000

> <Gold.Chemscore.Hbonds>
donor molecule, donor type, donor heavy atom, donor atom, acceptor molecule, acceptor atom, score
      P1  H  7954  7966       L1    10  1.00
      L1  C    15    35       P1 10186  0.72
      L1  C    16    36       P1 10952  1.00
      L1  C    18    37       P1 10747  1.00

> <Gold.PLP.Chemscore.Internal.Correction>
0.0273

> <Gold.Rescore>
     Score         DG    S(hbond)    S(metal)    S(lipo)     H(rot)  DE(clash)    DE(int)     intcor
      9.17     -11.11       0.99        0.00      63.88       2.01       1.58       0.36       ----

> <Gold.Chemscore.Fitness>
9.1743

> <Gold.Chemscore.DG>
-11.1080

> <Gold.Chemscore.ZeroCoef>
-5.4800

> <Gold.Chemscore.Hbond>
0.9895

> <Gold.Chemscore.Metal>
0.0000

> <Gold.Chemscore.Lipo>
63.8759

> <Gold.Chemscore.Internal_Hbond>
0.0000

> <Gold.Chemscore.DEClash>
1.5784

> <Gold.Chemscore.DEInternal>
0.3553

> <Gold.Chemscore.Rot>
2.0119

> <Gold.Chemscore.Internal.Correction>
   9.000000E+99

> <Gold.Chemscore.Hbonds>
donor molecule, donor type, donor heavy atom, donor atom, acceptor molecule, acceptor atom, score
      P1  H  7954  7966       L1    10  0.98

> <Gold.Chemscore.Hbond.Weighted>
-3.3048

> <Gold.Chemscore.Metal.Weighted>
-0.0000

> <Gold.Chemscore.Lipo.Weighted>
-7.4735

> <Gold.Chemscore.Internal_Hbond.Weighted>
0.0000

> <Gold.Chemscore.DEClash.Weighted>
1.5784

> <Gold.Chemscore.DEInternal.Weighted>
0.3553

> <Gold.Chemscore.Rot.Weighted>
5.1503

> <Gold.Chemscore.Internal.Correction.Weighted>
   9.000000E+99

> <Gold.Protein.RotatedTorsions>
[ 6907 6896 6895 6894 ] final -111.53 input  -60.11 | X-H torsion
[ 7974 7965 7964 7962 ] final   30.92 input  175.53 | X-H torsion
[ 8008 7997 7996 7995 ] final -149.48 input   59.86 | X-H torsion
[ 10167 10162 10161 10158 ] final  134.33 input  -65.29 | X-H torsion
[ 10718 10713 10712 10709 ] final  169.53 input   66.30 | X-H torsion
[ 10763 10752 10751 10750 ] final -138.41 input  -60.55 | X-H torsion
[ 11005 11000 10999 10996 ] final  -34.97 input  -57.11 | X-H torsion

> <Gold.Protein.ActiveResidues>
 VAL166  LYS551  ARG553  GLY616  TRP617  ASP618  TYR619  PRO620  LYS621  CYS622 
 ASP623  PHE694  ASN695  SER759  ASP760  ASP761  ALA762  ILE779  LEU786  VAL792 
 PHE793  MET794  SER795  GLU796  ALA797  LYS798  CYS799  TRP800  GLU811  SER814 

> <Gold.Protein.RotatedAtoms>
  150.7697  133.9222  159.3401 H   0  0  0  0  0  0  0  0  0  0  0  0  # atno 6907 bound_to 6896
  151.7111  135.0910  160.0277 H   0  0  0  0  0  0  0  0  0  0  0  0  # atno 6908 bound_to 6896
  152.3709  133.6379  159.6122 H   0  0  0  0  0  0  0  0  0  0  0  0  # atno 6909 bound_to 6896
  146.1582  139.6724  142.9052 H   0  0  0  0  0  0  0  0  0  0  0  0  # atno 7974 bound_to 7965
  155.6084  140.0669  157.2713 H   0  0  0  0  0  0  0  0  0  0  0  0  # atno 8008 bound_to 7997
  154.4260  140.1806  156.1294 H   0  0  0  0  0  0  0  0  0  0  0  0  # atno 8009 bound_to 7997
  156.0104  140.3327  155.6939 H   0  0  0  0  0  0  0  0  0  0  0  0  # atno 8010 bound_to 7997
  139.5261  144.6573  151.5123 H   0  0  0  0  0  0  0  0  0  0  0  0  # atno 10167 bound_to 10162
  157.0213  131.0232  151.2774 H   0  0  0  0  0  0  0  0  0  0  0  0  # atno 10718 bound_to 10713
  154.8637  135.3613  154.5380 H   0  0  0  0  0  0  0  0  0  0  0  0  # atno 10763 bound_to 10752
  153.6003  135.7013  153.5392 H   0  0  0  0  0  0  0  0  0  0  0  0  # atno 10764 bound_to 10752
  153.3297  135.4128  155.1446 H   0  0  0  0  0  0  0  0  0  0  0  0  # atno 10765 bound_to 10752
  140.9759  133.7083  156.1602 H   0  0  0  0  0  0  0  0  0  0  0  0  # atno 11005 bound_to 11000
  145.4655  141.0434  143.2727 LP  0  0  0  0  0  0  0  0  0  0  0  0  # atno 17320 bound_to 7965
  144.7991  139.6175  143.7079 LP  0  0  0  0  0  0  0  0  0  0  0  0  # atno 17321 bound_to 7965
  140.6404  143.8900  150.6686 LP  0  0  0  0  0  0  0  0  0  0  0  0  # atno 17342 bound_to 10162
  140.2233  143.3792  152.1625 LP  0  0  0  0  0  0  0  0  0  0  0  0  # atno 17343 bound_to 10162
  157.5248  130.8020  149.7849 LP  0  0  0  0  0  0  0  0  0  0  0  0  # atno 17370 bound_to 10713
  156.0101  130.3837  150.2293 LP  0  0  0  0  0  0  0  0  0  0  0  0  # atno 17371 bound_to 10713
  140.7259  134.4307  157.5570 LP  0  0  0  0  0  0  0  0  0  0  0  0  # atno 17394 bound_to 11000
  139.8930  134.8740  156.2242 LP  0  0  0  0  0  0  0  0  0  0  0  0  # atno 17395 bound_to 11000

$$$$
