AV-unprocessed.smi:2202|AV-procd|sdf|8934|dock2
  -GOLD-   2272012153D 1   1.00000     0.00000
 Structure written by MMmdl.
 43 45  0  0  0  0  0  0  0  0  2 V2000
  150.5674  136.1114  156.5781 O   0  0  0  0  0  0  0  0  0  0  0  0
  150.5380  136.3402  155.3676 C   0  0  0  0  0  0  0  0  0  0  0  0
  151.3270  137.5096  154.7613 C   0  0  0  0  0  0  0  0  0  0  0  0
  151.4635  138.6555  155.6694 N   0  0  0  0  0  0  0  0  0  0  0  0
  151.0345  139.9019  155.3891 C   0  0  0  0  0  0  0  0  0  0  0  0
  150.4054  140.2669  154.3965 O   0  0  0  0  0  0  0  0  0  0  0  0
  151.5180  140.8469  156.4788 C   0  0  1  0  0  0  0  0  0  0  0  0
  150.6942  142.0463  156.9628 C   0  0  0  0  0  0  0  0  0  0  0  0
  151.3614  142.6018  158.2256 C   0  0  0  0  0  0  0  0  0  0  0  0
  152.2884  141.9248  158.9470 C   0  0  0  0  0  0  0  0  0  0  0  0
  152.7542  140.5036  158.6133 C   0  0  0  0  0  0  0  0  0  0  0  0
  151.7459  139.8916  157.6334 C   0  0  2  0  0  0  0  0  0  0  0  0
  151.9984  138.5807  156.9043 C   0  0  0  0  0  0  0  0  0  0  0  0
  152.5441  137.6057  157.4202 O   0  0  0  0  0  0  0  0  0  0  0  0
  149.8255  135.6040  154.5016 N   0  0  0  0  0  0  0  0  0  0  0  0
  149.0101  134.4501  154.8622 C   0  0  0  0  0  0  0  0  0  0  0  0
  149.2662  133.2603  153.9216 C   0  0  0  0  0  0  0  0  0  0  0  0
  148.0449  132.9118  153.0940 C   0  0  0  0  0  0  0  0  0  0  0  0
  147.4688  131.6230  153.1074 C   0  0  0  0  0  0  0  0  0  0  0  0
  146.3359  131.3669  152.3067 C   0  0  0  0  0  0  0  0  0  0  0  0
  145.8049  132.4028  151.5101 C   0  0  0  0  0  0  0  0  0  0  0  0
  146.4215  133.6704  151.5338 C   0  0  0  0  0  0  0  0  0  0  0  0
  147.5050  133.8765  152.3141 N   0  3  0  0  0  0  0  0  0  0  0  0
  152.3171  137.1564  154.4668 H   0  0  0  0  0  0  0  0  0  0  0  0
  150.8342  137.8178  153.8374 H   0  0  0  0  0  0  0  0  0  0  0  0
  152.4801  141.2267  156.1262 H   0  0  0  0  0  0  0  0  0  0  0  0
  150.6691  142.8209  156.1959 H   0  0  0  0  0  0  0  0  0  0  0  0
  149.6637  141.7661  157.1837 H   0  0  0  0  0  0  0  0  0  0  0  0
  151.0623  143.5923  158.5355 H   0  0  0  0  0  0  0  0  0  0  0  0
  152.7353  142.3894  159.8136 H   0  0  0  0  0  0  0  0  0  0  0  0
  153.7594  140.5351  158.1918 H   0  0  0  0  0  0  0  0  0  0  0  0
  152.7974  139.9121  159.5283 H   0  0  0  0  0  0  0  0  0  0  0  0
  150.8076  139.7446  158.1738 H   0  0  0  0  0  0  0  0  0  0  0  0
  149.8511  135.8614  153.5254 H   0  0  0  0  0  0  0  0  0  0  0  0
  149.2034  134.1700  155.8995 H   0  0  0  0  0  0  0  0  0  0  0  0
  147.9616  134.7448  154.8108 H   0  0  0  0  0  0  0  0  0  0  0  0
  150.0997  133.4847  153.2543 H   0  0  0  0  0  0  0  0  0  0  0  0
  149.5601  132.3791  154.4938 H   0  0  0  0  0  0  0  0  0  0  0  0
  147.8885  130.8394  153.7216 H   0  0  0  0  0  0  0  0  0  0  0  0
  145.8798  130.3876  152.3030 H   0  0  0  0  0  0  0  0  0  0  0  0
  144.9381  132.2272  150.8898 H   0  0  0  0  0  0  0  0  0  0  0  0
  146.0839  134.5189  150.9568 H   0  0  0  0  0  0  0  0  0  0  0  0
  147.9356  134.8017  152.3161 H   0  0  0  0  0  0  0  0  0  0  0  0
  1  2  2  0  0  0  0
  2  3  1  0  0  0  0
  2 15  1  0  0  0  0
  3  4  1  0  0  0  0
  3 24  1  0  0  0  0
  3 25  1  0  0  0  0
  4 13  1  0  0  0  0
  4  5  1  0  0  0  0
  5  6  2  0  0  0  0
  5  7  1  0  0  0  0
  7 12  1  0  0  0  0
  7  8  1  0  0  0  0
  7 26  1  0  0  0  0
  8  9  1  0  0  0  0
  8 27  1  0  0  0  0
  8 28  1  0  0  0  0
  9 10  2  0  0  0  0
  9 29  1  0  0  0  0
 10 11  1  0  0  0  0
 10 30  1  0  0  0  0
 11 12  1  0  0  0  0
 11 31  1  0  0  0  0
 11 32  1  0  0  0  0
 12 13  1  0  0  0  0
 12 33  1  0  0  0  0
 13 14  2  0  0  0  0
 15 16  1  0  0  0  0
 15 34  1  0  0  0  0
 16 17  1  0  0  0  0
 16 35  1  0  0  0  0
 16 36  1  0  0  0  0
 17 18  1  0  0  0  0
 17 37  1  0  0  0  0
 17 38  1  0  0  0  0
 18 23  1  0  0  0  0
 18 19  2  0  0  0  0
 19 20  1  0  0  0  0
 19 39  1  0  0  0  0
 20 21  2  0  0  0  0
 20 40  1  0  0  0  0
 21 22  1  0  0  0  0
 21 41  1  0  0  0  0
 22 23  2  0  0  0  0
 22 42  1  0  0  0  0
 23 43  1  0  0  0  0
M  CHG  1  23   1
M  END
> <s_m_source_file>
AV-unprocessed.smi

> <i_m_source_file_index>
2202

> <i_lp_mmshare_version>
43012

> <i_f3d_flags>
0

> <s_epik_input>
W0NIMl0xW0NIXT1bQ0hdW0NIMl1bQ0BIXShbQ0BIXTEyKUMoPU8pTihDMj1PKVtDSDJdQyg9TylbTkhdW0NIMl1bQ0gyXWMzW2NIXVtjSF1bY0hdW2NIXW4z

> <s_epik_cmdline>
J2VwaWtfcHl0aG9uJywgJy1waCcsICc3LjAnLCAnLXRuJywgJzgnLCAnLW1hJywgJzIwMCcsICctbWV0YWxfYmluZGluZycsICctaW1hZScsICc8aW5maWxlLm1hZT4nLCAnLW9tYWUnLCAnPG91dGZpbGUubWFlPic=

> <r_lp_tautomer_probability>
1

> <r_epik_Ionization_Penalty>
1.90039

> <r_epik_Ionization_Penalty_Charging>
1.90039

> <r_epik_Ionization_Penalty_Neutral>
1.50224e-07

> <r_epik_State_Penalty>
2.02162

> <r_epik_Charging_Adjusted_Penalty>
3.922

> <i_epik_Tot_Q>
1

> <i_epik_Tot_abs_Q>
1

> <r_epik_Metal_State_Penalty>
2.04542

> <b_epik_Metal_Only>
0

> <s_lp_Force_Field>
OPLS_2005

> <r_lp_Energy>
26.7025

> <b_lp_Chiralities_Consistent>
1

> <s_lp_Variant>
AV-unprocessed.smi:2202-6

> <Gold.Version>
5.8.1

> <Gold.Id.Protein>
6NUR|6NUR_protein|mol2

> <Gold.PLP.Fitness>
50.7695

> <Gold.PLP.PLP>
-41.2872

> <Gold.PLP.part.hbond>
-3.0925

> <Gold.PLP.part.metal>
0.0000

> <Gold.PLP.part.buried>
-4.9171

> <Gold.PLP.part.nonpolar>
-33.8380

> <Gold.PLP.part.repulsive>
0.1811

> <Gold.PLP.ligand.clash>
0.0000

> <Gold.PLP.ligand.torsion>
0.8351

> <Gold.PLP.Chemscore.Hbond>
3.7000

> <Gold.PLP.Chemscore.CHOScore>
0.0000

> <Gold.PLP.Chemscore.Metal>
0.0000

> <Gold.Chemscore.Hbonds>
donor molecule, donor type, donor heavy atom, donor atom, acceptor molecule, acceptor atom, score
      L1  H    15    34       P1  7948  0.65
      L1  H    23    43       P1  7948  2.00
      P1  H  7989  7998       L1     6  1.00

> <Gold.PLP.Chemscore.Internal.Correction>
0.0525

> <Gold.Rescore>
     Score         DG    S(hbond)    S(metal)    S(lipo)     H(rot)  DE(clash)    DE(int)     intcor
     15.96     -19.64       2.88        0.00      81.65       1.96       0.00       3.67       ----

> <Gold.Chemscore.Fitness>
15.9640

> <Gold.Chemscore.DG>
-19.6406

> <Gold.Chemscore.ZeroCoef>
-5.4800

> <Gold.Chemscore.Hbond>
2.8836

> <Gold.Chemscore.Metal>
0.0000

> <Gold.Chemscore.Lipo>
81.6515

> <Gold.Chemscore.Internal_Hbond>
0.0000

> <Gold.Chemscore.DEClash>
0.0021

> <Gold.Chemscore.DEInternal>
3.6745

> <Gold.Chemscore.Rot>
1.9625

> <Gold.Chemscore.Internal.Correction>
   9.000000E+99

> <Gold.Chemscore.Hbonds>
donor molecule, donor type, donor heavy atom, donor atom, acceptor molecule, acceptor atom, score
      L1  H    15    34       P1  7948  0.05
      L1  H    23    43       P1  7948  0.65
      P1  H  7989  7998       L1     6  0.29

> <Gold.Chemscore.Hbond.Weighted>
-9.6313

> <Gold.Chemscore.Metal.Weighted>
-0.0000

> <Gold.Chemscore.Lipo.Weighted>
-9.5532

> <Gold.Chemscore.Internal_Hbond.Weighted>
0.0000

> <Gold.Chemscore.DEClash.Weighted>
0.0021

> <Gold.Chemscore.DEInternal.Weighted>
3.6745

> <Gold.Chemscore.Rot.Weighted>
5.0240

> <Gold.Chemscore.Internal.Correction.Weighted>
   9.000000E+99

> <Gold.Protein.RotatedTorsions>
[ 6907 6896 6895 6894 ] final   51.21 input  -60.11 | X-H torsion
[ 7974 7965 7964 7962 ] final  -40.51 input  175.53 | X-H torsion
[ 8008 7997 7996 7995 ] final   24.73 input   59.86 | X-H torsion
[ 10167 10162 10161 10158 ] final  -42.44 input  -65.29 | X-H torsion
[ 10718 10713 10712 10709 ] final   32.16 input   66.30 | X-H torsion
[ 10763 10752 10751 10750 ] final -103.49 input  -60.55 | X-H torsion
[ 11005 11000 10999 10996 ] final -167.43 input  -57.11 | X-H torsion

> <Gold.Protein.ActiveResidues>
 VAL166  LYS551  ARG553  GLY616  TRP617  ASP618  TYR619  PRO620  LYS621  CYS622 
 ASP623  PHE694  ASN695  SER759  ASP760  ASP761  ALA762  ILE779  LEU786  VAL792 
 PHE793  MET794  SER795  GLU796  ALA797  LYS798  CYS799  TRP800  GLU811  SER814 

> <Gold.Protein.RotatedAtoms>
  152.3102  134.7506  160.0337 H   0  0  0  0  0  0  0  0  0  0  0  0  # atno 6907 bound_to 6896
  151.7990  133.3362  159.3529 H   0  0  0  0  0  0  0  0  0  0  0  0  # atno 6908 bound_to 6896
  150.7316  134.5702  159.5931 H   0  0  0  0  0  0  0  0  0  0  0  0  # atno 6909 bound_to 6896
  146.0298  140.6746  142.9138 H   0  0  0  0  0  0  0  0  0  0  0  0  # atno 7974 bound_to 7965
  155.0008  140.3125  155.4868 H   0  0  0  0  0  0  0  0  0  0  0  0  # atno 8008 bound_to 7997
  156.2925  140.2232  156.5059 H   0  0  0  0  0  0  0  0  0  0  0  0  # atno 8009 bound_to 7997
  154.7620  140.0458  157.0969 H   0  0  0  0  0  0  0  0  0  0  0  0  # atno 8010 bound_to 7997
  140.6969  143.3038  151.3209 H   0  0  0  0  0  0  0  0  0  0  0  0  # atno 10167 bound_to 10162
  157.2817  130.7258  149.6560 H   0  0  0  0  0  0  0  0  0  0  0  0  # atno 10718 bound_to 10713
  154.7811  135.4821  153.9846 H   0  0  0  0  0  0  0  0  0  0  0  0  # atno 10763 bound_to 10752
  153.1495  135.6788  153.8911 H   0  0  0  0  0  0  0  0  0  0  0  0  # atno 10764 bound_to 10752
  153.8560  135.3161  155.3413 H   0  0  0  0  0  0  0  0  0  0  0  0  # atno 10765 bound_to 10752
  140.5534  134.5406  157.5127 H   0  0  0  0  0  0  0  0  0  0  0  0  # atno 11005 bound_to 11000
  144.7025  140.3715  143.7144 LP  0  0  0  0  0  0  0  0  0  0  0  0  # atno 17320 bound_to 7965
  145.7059  139.1672  143.2566 LP  0  0  0  0  0  0  0  0  0  0  0  0  # atno 17321 bound_to 7965
  139.6436  144.0494  152.2573 LP  0  0  0  0  0  0  0  0  0  0  0  0  # atno 17342 bound_to 10162
  140.0007  144.6295  150.7732 LP  0  0  0  0  0  0  0  0  0  0  0  0  # atno 17343 bound_to 10162
  155.9664  130.4336  150.5012 LP  0  0  0  0  0  0  0  0  0  0  0  0  # atno 17370 bound_to 10713
  157.2958  131.0635  151.2103 LP  0  0  0  0  0  0  0  0  0  0  0  0  # atno 17371 bound_to 10713
  139.9444  134.7729  156.0599 LP  0  0  0  0  0  0  0  0  0  0  0  0  # atno 17394 bound_to 11000
  141.1158  133.6628  156.3090 LP  0  0  0  0  0  0  0  0  0  0  0  0  # atno 17395 bound_to 11000

$$$$
