AV-unprocessed.smi:2360|AV-procd|sdf|9409|dock2
  -GOLD-   2272013 43D 1   1.00000     0.00000
 Structure written by MMmdl.
 34 35  0  0  0  0  0  0  0  0  1 V2000
  155.6400  136.2709  163.8775 C   0  0  0  0  0  0  0  0  0  0  0  0
  155.4836  137.3661  162.8372 C   0  0  0  0  0  0  0  0  0  0  0  0
  154.6938  137.0396  161.7310 N   0  0  0  0  0  0  0  0  0  0  0  0
  154.5083  137.9086  160.7919 C   0  0  0  0  0  0  0  0  0  0  0  0
  155.0842  139.1883  160.8468 N   0  0  0  0  0  0  0  0  0  0  0  0
  154.7970  140.0827  159.7126 C   0  0  0  0  0  0  0  0  0  0  0  0
  153.2817  140.2307  159.4505 C   0  0  2  0  0  0  0  0  0  0  0  0
  153.0188  139.8865  158.1043 O   0  0  0  0  0  0  0  0  0  0  0  0
  152.8118  141.6435  159.7621 C   0  0  0  0  0  0  0  0  0  0  0  0
  152.9747  142.1677  161.0625 C   0  0  0  0  0  0  0  0  0  0  0  0
  152.5517  143.4781  161.3583 C   0  0  0  0  0  0  0  0  0  0  0  0
  151.9654  144.2735  160.3551 C   0  0  0  0  0  0  0  0  0  0  0  0
  151.5596  145.5332  160.6414 F   0  0  0  0  0  0  0  0  0  0  0  0
  151.8042  143.7579  159.0542 C   0  0  0  0  0  0  0  0  0  0  0  0
  151.2435  144.5215  158.0864 F   0  0  0  0  0  0  0  0  0  0  0  0
  152.2274  142.4475  158.7582 C   0  0  0  0  0  0  0  0  0  0  0  0
  155.8594  139.5921  161.8948 C   0  0  0  0  0  0  0  0  0  0  0  0
  156.3473  140.7233  161.9402 O   0  0  0  0  0  0  0  0  0  0  0  0
  156.0651  138.5910  162.9539 C   0  0  0  0  0  0  0  0  0  0  0  0
  156.9353  139.0028  164.1349 C   0  0  0  0  0  0  0  0  0  0  0  0
  156.6907  136.0049  163.9961 H   0  0  0  0  0  0  0  0  0  0  0  0
  155.0988  135.3687  163.5896 H   0  0  0  0  0  0  0  0  0  0  0  0
  155.2517  136.6009  164.8413 H   0  0  0  0  0  0  0  0  0  0  0  0
  153.8974  137.7053  159.9107 H   0  0  0  0  0  0  0  0  0  0  0  0
  155.2167  141.0632  159.9465 H   0  0  0  0  0  0  0  0  0  0  0  0
  155.3162  139.7801  158.8006 H   0  0  0  0  0  0  0  0  0  0  0  0
  152.7202  139.5395  160.0806 H   0  0  0  0  0  0  0  0  0  0  0  0
  152.6439  139.0190  158.0851 H   0  0  0  0  0  0  0  0  0  0  0  0
  153.4273  141.5673  161.8384 H   0  0  0  0  0  0  0  0  0  0  0  0
  152.6786  143.8735  162.3553 H   0  0  0  0  0  0  0  0  0  0  0  0
  152.1041  142.0621  157.7566 H   0  0  0  0  0  0  0  0  0  0  0  0
  156.5023  139.8682  164.6374 H   0  0  0  0  0  0  0  0  0  0  0  0
  157.9328  139.2758  163.7892 H   0  0  0  0  0  0  0  0  0  0  0  0
  157.0509  138.2162  164.8788 H   0  0  0  0  0  0  0  0  0  0  0  0
  1  2  1  0  0  0  0
  1 21  1  0  0  0  0
  1 22  1  0  0  0  0
  1 23  1  0  0  0  0
  2 19  2  0  0  0  0
  2  3  1  0  0  0  0
  3  4  2  0  0  0  0
  4  5  1  0  0  0  0
  4 24  1  0  0  0  0
  5  6  1  0  0  0  0
  5 17  1  0  0  0  0
  6  7  1  0  0  0  0
  6 25  1  0  0  0  0
  6 26  1  0  0  0  0
  7  8  1  0  0  0  0
  7  9  1  0  0  0  0
  7 27  1  0  0  0  0
  8 28  1  0  0  0  0
  9 16  1  0  0  0  0
  9 10  2  0  0  0  0
 10 11  1  0  0  0  0
 10 29  1  0  0  0  0
 11 12  2  0  0  0  0
 11 30  1  0  0  0  0
 12 13  1  0  0  0  0
 12 14  1  0  0  0  0
 14 15  1  0  0  0  0
 14 16  2  0  0  0  0
 16 31  1  0  0  0  0
 17 18  2  0  0  0  0
 17 19  1  0  0  0  0
 19 20  1  0  0  0  0
 20 32  1  0  0  0  0
 20 33  1  0  0  0  0
 20 34  1  0  0  0  0
M  END
> <s_m_source_file>
AV-unprocessed.smi

> <i_m_source_file_index>
2360

> <i_lp_mmshare_version>
43012

> <i_f3d_flags>
0

> <s_epik_input>
W0NIM11jMW5bY0hdbihjKD1PKWMxW0NIM10pW0NIMl1bQ0BIXShbT0hdKWMyW2NIXVtjSF1jKEYpYyhGKVtjSF0y

> <s_epik_cmdline>
J2VwaWtfcHl0aG9uJywgJy1waCcsICc3LjAnLCAnLXRuJywgJzgnLCAnLW1hJywgJzIwMCcsICctbWV0YWxfYmluZGluZycsICctaW1hZScsICc8aW5maWxlLm1hZT4nLCAnLW9tYWUnLCAnPG91dGZpbGUubWFlPic=

> <r_lp_tautomer_probability>
1

> <r_epik_Ionization_Penalty>
5.07449e-05

> <r_epik_Ionization_Penalty_Charging>
7.56727e-08

> <r_epik_Ionization_Penalty_Neutral>
5.06692e-05

> <r_epik_State_Penalty>
-0

> <r_epik_Charging_Adjusted_Penalty>
7.56727e-08

> <i_epik_Tot_Q>
0

> <i_epik_Tot_abs_Q>
0

> <r_epik_Metal_State_Penalty>
-0

> <b_epik_Metal_Only>
0

> <s_lp_Force_Field>
OPLS_2005

> <r_lp_Energy>
18.6732

> <b_lp_Chiralities_Consistent>
1

> <s_lp_Variant>
AV-unprocessed.smi:2360-1

> <Gold.Version>
5.8.1

> <Gold.Id.Protein>
6NUR|6NUR_protein|mol2

> <Gold.PLP.Fitness>
52.6870

> <Gold.PLP.PLP>
-51.2096

> <Gold.PLP.part.hbond>
-2.0000

> <Gold.PLP.part.metal>
0.0000

> <Gold.PLP.part.buried>
-5.8555

> <Gold.PLP.part.nonpolar>
-43.1055

> <Gold.PLP.part.repulsive>
0.0000

> <Gold.PLP.ligand.clash>
0.0000

> <Gold.PLP.ligand.torsion>
0.7662

> <Gold.PLP.Chemscore.Hbond>
1.0000

> <Gold.PLP.Chemscore.CHOScore>
0.0000

> <Gold.PLP.Chemscore.Metal>
0.0000

> <Gold.Chemscore.Hbonds>
donor molecule, donor type, donor heavy atom, donor atom, acceptor molecule, acceptor atom, score
      P1  H  7997  8010       L1     8  1.00

> <Gold.PLP.Chemscore.Internal.Correction>
0.0098

> <Gold.Rescore>
     Score         DG    S(hbond)    S(metal)    S(lipo)     H(rot)  DE(clash)    DE(int)     intcor
     13.89     -16.33       0.93        0.00     112.28       2.11       1.62       0.83       ----

> <Gold.Chemscore.Fitness>
13.8857

> <Gold.Chemscore.DG>
-16.3302

> <Gold.Chemscore.ZeroCoef>
-5.4800

> <Gold.Chemscore.Hbond>
0.9324

> <Gold.Chemscore.Metal>
0.0000

> <Gold.Chemscore.Lipo>
112.2825

> <Gold.Chemscore.Internal_Hbond>
0.0000

> <Gold.Chemscore.DEClash>
1.6190

> <Gold.Chemscore.DEInternal>
0.8254

> <Gold.Chemscore.Rot>
2.1097

> <Gold.Chemscore.Internal.Correction>
   9.000000E+99

> <Gold.Chemscore.Hbonds>
donor molecule, donor type, donor heavy atom, donor atom, acceptor molecule, acceptor atom, score
      P1  H  7997  8010       L1     8  0.55

> <Gold.Chemscore.Hbond.Weighted>
-3.1141

> <Gold.Chemscore.Metal.Weighted>
-0.0000

> <Gold.Chemscore.Lipo.Weighted>
-13.1371

> <Gold.Chemscore.Internal_Hbond.Weighted>
0.0000

> <Gold.Chemscore.DEClash.Weighted>
1.6190

> <Gold.Chemscore.DEInternal.Weighted>
0.8254

> <Gold.Chemscore.Rot.Weighted>
5.4009

> <Gold.Chemscore.Internal.Correction.Weighted>
   9.000000E+99

> <Gold.Protein.RotatedTorsions>
[ 6907 6896 6895 6894 ] final  -54.45 input  -60.11 | X-H torsion
[ 7974 7965 7964 7962 ] final -109.68 input  175.53 | X-H torsion
[ 8008 7997 7996 7995 ] final   27.11 input   59.86 | X-H torsion
[ 10167 10162 10161 10158 ] final  151.05 input  -65.29 | X-H torsion
[ 10718 10713 10712 10709 ] final  -91.77 input   66.30 | X-H torsion
[ 10763 10752 10751 10750 ] final   81.79 input  -60.55 | X-H torsion
[ 11005 11000 10999 10996 ] final  -37.75 input  -57.11 | X-H torsion

> <Gold.Protein.ActiveResidues>
 VAL166  LYS551  ARG553  GLY616  TRP617  ASP618  TYR619  PRO620  LYS621  CYS622 
 ASP623  PHE694  ASN695  SER759  ASP760  ASP761  ALA762  ILE779  LEU786  VAL792 
 PHE793  MET794  SER795  GLU796  ALA797  LYS798  CYS799  TRP800  GLU811  SER814 

> <Gold.Protein.RotatedAtoms>
  150.8337  134.7601  159.6874 H   0  0  0  0  0  0  0  0  0  0  0  0  # atno 6907 bound_to 6896
  152.4437  134.5535  159.9883 H   0  0  0  0  0  0  0  0  0  0  0  0  # atno 6908 bound_to 6896
  151.5690  133.3355  159.3021 H   0  0  0  0  0  0  0  0  0  0  0  0  # atno 6909 bound_to 6896
  145.1776  140.8955  143.3499 H   0  0  0  0  0  0  0  0  0  0  0  0  # atno 7974 bound_to 7965
  155.0378  140.3166  155.4735 H   0  0  0  0  0  0  0  0  0  0  0  0  # atno 8008 bound_to 7997
  156.2861  140.2168  156.5444 H   0  0  0  0  0  0  0  0  0  0  0  0  # atno 8009 bound_to 7997
  154.7316  140.0481  157.0719 H   0  0  0  0  0  0  0  0  0  0  0  0  # atno 8010 bound_to 7997
  139.4844  144.5472  151.7463 H   0  0  0  0  0  0  0  0  0  0  0  0  # atno 10167 bound_to 10162
  155.9996  130.4961  150.5525 H   0  0  0  0  0  0  0  0  0  0  0  0  # atno 10718 bound_to 10713
  153.1147  135.4752  154.9094 H   0  0  0  0  0  0  0  0  0  0  0  0  # atno 10763 bound_to 10752
  154.7516  135.3107  154.8550 H   0  0  0  0  0  0  0  0  0  0  0  0  # atno 10764 bound_to 10752
  153.9129  135.6863  153.4804 H   0  0  0  0  0  0  0  0  0  0  0  0  # atno 10765 bound_to 10752
  140.9975  133.6972  156.1962 H   0  0  0  0  0  0  0  0  0  0  0  0  # atno 11005 bound_to 11000
  145.0169  139.3459  143.6092 LP  0  0  0  0  0  0  0  0  0  0  0  0  # atno 17320 bound_to 7965
  146.3458  139.9454  142.8735 LP  0  0  0  0  0  0  0  0  0  0  0  0  # atno 17321 bound_to 7965
  140.5021  144.1153  150.5973 LP  0  0  0  0  0  0  0  0  0  0  0  0  # atno 17342 bound_to 10162
  140.4050  143.2685  151.9902 LP  0  0  0  0  0  0  0  0  0  0  0  0  # atno 17343 bound_to 10162
  157.3446  131.0723  151.1761 LP  0  0  0  0  0  0  0  0  0  0  0  0  # atno 17370 bound_to 10713
  157.2598  130.6653  149.5969 LP  0  0  0  0  0  0  0  0  0  0  0  0  # atno 17371 bound_to 10713
  140.6942  134.4634  157.5588 LP  0  0  0  0  0  0  0  0  0  0  0  0  # atno 17394 bound_to 11000
  139.9022  134.8530  156.1849 LP  0  0  0  0  0  0  0  0  0  0  0  0  # atno 17395 bound_to 11000

$$$$
