AV-unprocessed.smi:2042|AV-procd|sdf|8295|dock2
  -GOLD-   2272010563D 1   1.00000     0.00000
 Structure written by MMmdl.
 30 31  0  0  0  0  0  0  0  0  1 V2000
  147.1975  133.1041  154.0550 O   0  0  0  0  0  0  0  0  0  0  0  0
  147.8733  132.8386  153.0638 C   0  0  0  0  0  0  0  0  0  0  0  0
  147.3723  132.5352  151.8499 N   0  0  0  0  0  0  0  0  0  0  0  0
  146.0164  132.5067  151.4239 C   0  0  0  0  0  0  0  0  0  0  0  0
  144.9626  133.2140  152.0524 C   0  0  0  0  0  0  0  0  0  0  0  0
  143.6637  133.1162  151.5169 C   0  0  0  0  0  0  0  0  0  0  0  0
  143.4658  132.3217  150.3712 C   0  0  0  0  0  0  0  0  0  0  0  0
  144.4621  131.6516  149.7552 N   0  0  0  0  0  0  0  0  0  0  0  0
  145.7047  131.7509  150.2737 C   0  0  0  0  0  0  0  0  0  0  0  0
  149.2163  132.8002  153.1319 N   0  0  0  0  0  0  0  0  0  0  0  0
  150.0760  133.0722  154.2850 C   0  0  1  0  0  0  0  0  0  0  0  0
  149.8011  134.4751  154.8583 C   0  0  0  0  0  0  0  0  0  0  0  0
  150.4460  134.5747  156.2463 C   0  0  0  0  0  0  0  0  0  0  0  0
  150.3962  132.8836  156.9521 S   0  0  0  0  0  0  0  0  0  0  0  0
  151.7674  132.4629  157.2778 O   0  0  0  0  0  0  0  0  0  0  0  0
  149.3198  132.7964  157.9505 O   0  0  0  0  0  0  0  0  0  0  0  0
  149.8536  132.0515  155.4129 C   0  0  0  0  0  0  0  0  0  0  0  0
  148.0473  132.2538  151.1541 H   0  0  0  0  0  0  0  0  0  0  0  0
  145.1209  133.8367  152.9186 H   0  0  0  0  0  0  0  0  0  0  0  0
  142.8382  133.6431  151.9721 H   0  0  0  0  0  0  0  0  0  0  0  0
  142.4822  132.2267  149.9351 H   0  0  0  0  0  0  0  0  0  0  0  0
  146.4773  131.2046  149.7521 H   0  0  0  0  0  0  0  0  0  0  0  0
  149.6959  132.5244  152.2870 H   0  0  0  0  0  0  0  0  0  0  0  0
  151.1257  133.0457  153.9864 H   0  0  0  0  0  0  0  0  0  0  0  0
  150.1599  135.2622  154.1942 H   0  0  0  0  0  0  0  0  0  0  0  0
  148.7244  134.6159  154.9645 H   0  0  0  0  0  0  0  0  0  0  0  0
  151.4912  134.8740  156.1660 H   0  0  0  0  0  0  0  0  0  0  0  0
  149.9327  135.2752  156.9052 H   0  0  0  0  0  0  0  0  0  0  0  0
  148.7959  131.8083  155.5227 H   0  0  0  0  0  0  0  0  0  0  0  0
  150.4105  131.1250  155.2718 H   0  0  0  0  0  0  0  0  0  0  0  0
  1  2  2  0  0  0  0
  2  3  1  0  0  0  0
  2 10  1  0  0  0  0
  3  4  1  0  0  0  0
  3 18  1  0  0  0  0
  4  9  1  0  0  0  0
  4  5  2  0  0  0  0
  5  6  1  0  0  0  0
  5 19  1  0  0  0  0
  6  7  2  0  0  0  0
  6 20  1  0  0  0  0
  7  8  1  0  0  0  0
  7 21  1  0  0  0  0
  8  9  2  0  0  0  0
  9 22  1  0  0  0  0
 10 11  1  0  0  0  0
 10 23  1  0  0  0  0
 11 17  1  0  0  0  0
 11 12  1  0  0  0  0
 11 24  1  0  0  0  0
 12 13  1  0  0  0  0
 12 25  1  0  0  0  0
 12 26  1  0  0  0  0
 13 14  1  0  0  0  0
 13 27  1  0  0  0  0
 13 28  1  0  0  0  0
 14 15  2  0  0  0  0
 14 16  2  0  0  0  0
 14 17  1  0  0  0  0
 17 29  1  0  0  0  0
 17 30  1  0  0  0  0
M  END
> <s_m_source_file>
AV-unprocessed.smi

> <i_m_source_file_index>
2042

> <i_lp_mmshare_version>
43012

> <i_f3d_flags>
0

> <s_epik_input>
Tz1TMSg9TylbQ0gyXVtDSDJdW0NASF0oW0NIMl0xKVtOSF1DKD1PKVtOSF1jMltjSF1bY0hdW2NIXW5bY0hdMg==

> <s_epik_cmdline>
J2VwaWtfcHl0aG9uJywgJy1waCcsICc3LjAnLCAnLXRuJywgJzgnLCAnLW1hJywgJzIwMCcsICctbWV0YWxfYmluZGluZycsICctaW1hZScsICc8aW5maWxlLm1hZT4nLCAnLW9tYWUnLCAnPG91dGZpbGUubWFlPic=

> <r_epik_Ionization_Penalty>
0.00421056

> <r_epik_Ionization_Penalty_Charging>
0

> <r_epik_Ionization_Penalty_Neutral>
0.00421056

> <r_epik_State_Penalty>
0.00300625

> <r_epik_Charging_Adjusted_Penalty>
0.00300625

> <i_epik_Tot_Q>
0

> <i_epik_Tot_abs_Q>
0

> <r_epik_Metal_State_Penalty>
-0

> <b_epik_Metal_Only>
0

> <s_lp_Force_Field>
OPLS_2005

> <r_lp_Energy>
18.6302

> <b_lp_Chiralities_Consistent>
1

> <s_lp_Variant>
AV-unprocessed.smi:2042-2

> <Gold.Version>
5.8.1

> <Gold.Id.Protein>
6NUR|6NUR_protein|mol2

> <Gold.PLP.Fitness>
41.5626

> <Gold.PLP.PLP>
-27.3600

> <Gold.PLP.part.hbond>
-3.0000

> <Gold.PLP.part.metal>
0.0000

> <Gold.PLP.part.buried>
-4.3419

> <Gold.PLP.part.nonpolar>
-21.6268

> <Gold.PLP.part.repulsive>
0.2421

> <Gold.PLP.ligand.clash>
0.0000

> <Gold.PLP.ligand.torsion>
0.1159

> <Gold.PLP.Chemscore.Hbond>
2.3166

> <Gold.PLP.Chemscore.CHOScore>
2.4947

> <Gold.PLP.Chemscore.Metal>
0.0000

> <Gold.Chemscore.Hbonds>
donor molecule, donor type, donor heavy atom, donor atom, acceptor molecule, acceptor atom, score
      L1  H     3    18       P1 10747  0.99
      P1  H  6896  6909       L1    15  0.39
      P1  H 10785 10796       L1     8  0.26
      L1  C     7    21       P1 10186  0.53
      L1  C     7    21       P1 10952  1.00
      L1  C     9    22       P1 10747  0.93

> <Gold.PLP.Chemscore.Internal.Correction>
0.0005

> <Gold.Rescore>
     Score         DG    S(hbond)    S(metal)    S(lipo)     H(rot)  DE(clash)    DE(int)     intcor
     17.82     -19.36       2.63        0.00      65.50       1.00       0.41       1.14       ----

> <Gold.Chemscore.Fitness>
17.8159

> <Gold.Chemscore.DG>
-19.3577

> <Gold.Chemscore.ZeroCoef>
-5.4800

> <Gold.Chemscore.Hbond>
2.6269

> <Gold.Chemscore.Metal>
0.0000

> <Gold.Chemscore.Lipo>
65.5024

> <Gold.Chemscore.Internal_Hbond>
0.0000

> <Gold.Chemscore.DEClash>
0.4057

> <Gold.Chemscore.DEInternal>
1.1361

> <Gold.Chemscore.Rot>
1.0000

> <Gold.Chemscore.Internal.Correction>
   9.000000E+99

> <Gold.Chemscore.Hbonds>
donor molecule, donor type, donor heavy atom, donor atom, acceptor molecule, acceptor atom, score
      L1  H     3    18       P1 10747  0.93
      P1  H  6896  6909       L1    15  0.02
      P1  H 10785 10796       L1     8  0.05

> <Gold.Chemscore.Hbond.Weighted>
-8.7739

> <Gold.Chemscore.Metal.Weighted>
-0.0000

> <Gold.Chemscore.Lipo.Weighted>
-7.6638

> <Gold.Chemscore.Internal_Hbond.Weighted>
0.0000

> <Gold.Chemscore.DEClash.Weighted>
0.4057

> <Gold.Chemscore.DEInternal.Weighted>
1.1361

> <Gold.Chemscore.Rot.Weighted>
2.5600

> <Gold.Chemscore.Internal.Correction.Weighted>
   9.000000E+99

> <Gold.Protein.RotatedTorsions>
[ 6907 6896 6895 6894 ] final  -54.80 input  -60.11 | X-H torsion
[ 7974 7965 7964 7962 ] final  119.23 input  175.53 | X-H torsion
[ 8008 7997 7996 7995 ] final  -24.74 input   59.86 | X-H torsion
[ 10167 10162 10161 10158 ] final -175.04 input  -65.29 | X-H torsion
[ 10718 10713 10712 10709 ] final  -98.00 input   66.30 | X-H torsion
[ 10763 10752 10751 10750 ] final   85.70 input  -60.55 | X-H torsion
[ 11005 11000 10999 10996 ] final -148.02 input  -57.11 | X-H torsion

> <Gold.Protein.ActiveResidues>
 VAL166  LYS551  ARG553  GLY616  TRP617  ASP618  TYR619  PRO620  LYS621  CYS622 
 ASP623  PHE694  ASN695  SER759  ASP760  ASP761  ALA762  ILE779  LEU786  VAL792 
 PHE793  MET794  SER795  GLU796  ALA797  LYS798  CYS799  TRP800  GLU811  SER814 

> <Gold.Protein.RotatedAtoms>
  150.8307  134.7558  159.6850 H   0  0  0  0  0  0  0  0  0  0  0  0  # atno 6907 bound_to 6896
  152.4412  134.5584  159.9897 H   0  0  0  0  0  0  0  0  0  0  0  0  # atno 6908 bound_to 6896
  151.5746  133.3348  159.3032 H   0  0  0  0  0  0  0  0  0  0  0  0  # atno 6909 bound_to 6896
  145.1456  139.3241  143.4593 H   0  0  0  0  0  0  0  0  0  0  0  0  # atno 7974 bound_to 7965
  154.4512  140.1945  156.0512 H   0  0  0  0  0  0  0  0  0  0  0  0  # atno 8008 bound_to 7997
  156.0653  140.3291  155.7482 H   0  0  0  0  0  0  0  0  0  0  0  0  # atno 8009 bound_to 7997
  155.5349  140.0581  157.2872 H   0  0  0  0  0  0  0  0  0  0  0  0  # atno 8010 bound_to 7997
  139.5602  144.1889  152.1226 H   0  0  0  0  0  0  0  0  0  0  0  0  # atno 10167 bound_to 10162
  156.0097  130.5219  150.6458 H   0  0  0  0  0  0  0  0  0  0  0  0  # atno 10718 bound_to 10713
  153.1500  135.4607  154.9622 H   0  0  0  0  0  0  0  0  0  0  0  0  # atno 10763 bound_to 10752
  154.7817  135.3190  154.7978 H   0  0  0  0  0  0  0  0  0  0  0  0  # atno 10764 bound_to 10752
  153.8485  135.6923  153.4849 H   0  0  0  0  0  0  0  0  0  0  0  0  # atno 10765 bound_to 10752
  140.7656  134.3248  157.5089 H   0  0  0  0  0  0  0  0  0  0  0  0  # atno 11005 bound_to 11000
  146.3500  140.1511  142.8592 LP  0  0  0  0  0  0  0  0  0  0  0  0  # atno 17320 bound_to 7965
  145.0485  140.9000  143.5010 LP  0  0  0  0  0  0  0  0  0  0  0  0  # atno 17321 bound_to 7965
  140.1401  144.5210  150.6749 LP  0  0  0  0  0  0  0  0  0  0  0  0  # atno 17342 bound_to 10162
  140.6880  143.2360  151.5207 LP  0  0  0  0  0  0  0  0  0  0  0  0  # atno 17343 bound_to 10162
  157.4229  131.0839  151.1113 LP  0  0  0  0  0  0  0  0  0  0  0  0  # atno 17370 bound_to 10713
  157.1710  130.6267  149.5640 LP  0  0  0  0  0  0  0  0  0  0  0  0  # atno 17371 bound_to 10713
  139.8763  134.9229  156.3312 LP  0  0  0  0  0  0  0  0  0  0  0  0  # atno 17394 bound_to 11000
  140.9622  133.7381  156.0417 LP  0  0  0  0  0  0  0  0  0  0  0  0  # atno 17395 bound_to 11000

$$$$
