AV-unprocessed.smi:2044|AV-procd|sdf|8304|dock8
  -GOLD-   2272010573D 1   1.00000     0.00000
 Structure written by MMmdl.
 39 40  0  0  0  0  0  0  0  0  3 V2000
  147.3064  137.1105  162.4360 C   0  0  0  0  0  0  0  0  0  0  0  0
  147.8572  136.6158  161.1422 C   0  0  0  0  0  0  0  0  0  0  0  0
  148.3066  135.3926  160.7319 C   0  0  0  0  0  0  0  0  0  0  0  0
  148.6798  135.6209  159.3789 C   0  0  0  0  0  0  0  0  0  0  0  0
  149.1965  134.7131  158.5363 N   0  5  0  0  0  0  0  0  0  0  0  0
  149.3296  135.0031  157.2221 C   0  0  0  0  0  0  0  0  0  0  0  0
  150.3874  135.1720  156.6113 O   0  0  0  0  0  0  0  0  0  0  0  0
  148.1626  135.1019  156.5722 N   0  0  0  0  0  0  0  0  0  0  0  0
  148.0143  135.3839  155.1489 C   0  0  0  0  0  0  0  0  0  0  0  0
  147.3811  134.1990  154.3726 C   0  0  2  0  0  0  0  0  0  0  0  0
  148.4039  133.0444  154.2302 C   0  0  0  0  0  0  0  0  0  0  0  0
  146.8406  134.6158  153.0350 N   0  3  0  0  0  0  0  0  0  0  0  0
  146.2272  133.4943  152.2693 C   0  0  0  0  0  0  0  0  0  0  0  0
  145.7141  133.9619  150.8974 C   0  0  0  0  0  0  0  0  0  0  0  0
  144.7774  135.0127  151.0705 O   0  0  0  0  0  0  0  0  0  0  0  0
  145.3803  136.1394  151.6860 C   0  0  0  0  0  0  0  0  0  0  0  0
  145.8888  135.7615  153.0874 C   0  0  0  0  0  0  0  0  0  0  0  0
  148.4914  136.8759  159.0076 N   0  0  0  0  0  0  0  0  0  0  0  0
  147.9574  137.5193  160.1304 O   0  0  0  0  0  0  0  0  0  0  0  0
  148.0116  136.9337  163.2481 H   0  0  0  0  0  0  0  0  0  0  0  0
  146.3750  136.5988  162.6787 H   0  0  0  0  0  0  0  0  0  0  0  0
  147.1026  138.1807  162.3936 H   0  0  0  0  0  0  0  0  0  0  0  0
  148.3560  134.4788  161.3048 H   0  0  0  0  0  0  0  0  0  0  0  0
  147.3183  134.9579  157.1067 H   0  0  0  0  0  0  0  0  0  0  0  0
  147.3915  136.2759  155.0915 H   0  0  0  0  0  0  0  0  0  0  0  0
  148.9856  135.6327  154.7174 H   0  0  0  0  0  0  0  0  0  0  0  0
  146.5418  133.8315  154.9657 H   0  0  0  0  0  0  0  0  0  0  0  0
  148.8655  132.7808  155.1813 H   0  0  0  0  0  0  0  0  0  0  0  0
  149.2071  133.3111  153.5428 H   0  0  0  0  0  0  0  0  0  0  0  0
  147.9444  132.1236  153.8748 H   0  0  0  0  0  0  0  0  0  0  0  0
  146.9476  132.6989  152.0894 H   0  0  0  0  0  0  0  0  0  0  0  0
  145.4073  133.0638  152.8463 H   0  0  0  0  0  0  0  0  0  0  0  0
  146.5390  134.2896  150.2624 H   0  0  0  0  0  0  0  0  0  0  0  0
  145.2247  133.1368  150.3797 H   0  0  0  0  0  0  0  0  0  0  0  0
  146.1939  136.5189  151.0656 H   0  0  0  0  0  0  0  0  0  0  0  0
  144.6409  136.9372  151.7594 H   0  0  0  0  0  0  0  0  0  0  0  0
  145.0489  135.5101  153.7371 H   0  0  0  0  0  0  0  0  0  0  0  0
  146.3657  136.6496  153.4979 H   0  0  0  0  0  0  0  0  0  0  0  0
  147.6335  134.9334  152.4958 H   0  0  0  0  0  0  0  0  0  0  0  0
  1  2  1  0  0  0  0
  1 20  1  0  0  0  0
  1 21  1  0  0  0  0
  1 22  1  0  0  0  0
  2 19  1  0  0  0  0
  2  3  2  0  0  0  0
  3  4  1  0  0  0  0
  3 23  1  0  0  0  0
  4  5  1  0  0  0  0
  4 18  2  0  0  0  0
  5  6  1  0  0  0  0
  6  7  2  0  0  0  0
  6  8  1  0  0  0  0
  8  9  1  0  0  0  0
  8 24  1  0  0  0  0
  9 10  1  0  0  0  0
  9 25  1  0  0  0  0
  9 26  1  0  0  0  0
 10 11  1  0  0  0  0
 10 12  1  0  0  0  0
 10 27  1  0  0  0  0
 11 28  1  0  0  0  0
 11 29  1  0  0  0  0
 11 30  1  0  0  0  0
 12 17  1  0  0  0  0
 12 13  1  0  0  0  0
 12 39  1  0  0  0  0
 13 14  1  0  0  0  0
 13 31  1  0  0  0  0
 13 32  1  0  0  0  0
 14 15  1  0  0  0  0
 14 33  1  0  0  0  0
 14 34  1  0  0  0  0
 15 16  1  0  0  0  0
 16 17  1  0  0  0  0
 16 35  1  0  0  0  0
 16 36  1  0  0  0  0
 17 37  1  0  0  0  0
 17 38  1  0  0  0  0
 18 19  1  0  0  0  0
M  CHG  1   5  -1
M  CHG  1  12   1
M  END
> <s_m_source_file>
AV-unprocessed.smi

> <i_m_source_file_index>
2044

> <i_lp_mmshare_version>
43012

> <i_f3d_flags>
0

> <s_epik_input>
W0NIM11jMVtjSF1jKG5vMSlbTkhdQyg9TylbTkhdW0NIMl1bQ0BIXShbQ0gzXSlOMltDSDJdW0NIMl1PW0NIMl1bQ0gyXTI=

> <s_epik_cmdline>
J2VwaWtfcHl0aG9uJywgJy1waCcsICc3LjAnLCAnLXRuJywgJzgnLCAnLW1hJywgJzIwMCcsICctbWV0YWxfYmluZGluZycsICctaW1hZScsICc8aW5maWxlLm1hZT4nLCAnLW9tYWUnLCAnPG91dGZpbGUubWFlPic=

> <r_epik_Ionization_Penalty>
6.73014

> <r_epik_Ionization_Penalty_Charging>
6.73004

> <r_epik_Ionization_Penalty_Neutral>
9.51297e-05

> <r_epik_State_Penalty>
6.93052

> <r_epik_Charging_Adjusted_Penalty>
13.6606

> <i_epik_Tot_Q>
0

> <i_epik_Tot_abs_Q>
2

> <r_epik_Metal_State_Penalty>
2.86736

> <b_epik_Metal_Only>
1

> <s_lp_Force_Field>
OPLS_2005

> <r_lp_Energy>
9.04271

> <b_lp_Chiralities_Consistent>
1

> <s_lp_Variant>
AV-unprocessed.smi:2044-7

> <Gold.Version>
5.8.1

> <Gold.Id.Protein>
6NUR|6NUR_protein|mol2

> <Gold.PLP.Fitness>
38.7980

> <Gold.PLP.PLP>
-25.3616

> <Gold.PLP.part.hbond>
-3.6163

> <Gold.PLP.part.metal>
0.0000

> <Gold.PLP.part.buried>
-3.6823

> <Gold.PLP.part.nonpolar>
-18.4293

> <Gold.PLP.part.repulsive>
0.1986

> <Gold.PLP.ligand.clash>
0.0000

> <Gold.PLP.ligand.torsion>
0.8219

> <Gold.PLP.Chemscore.Hbond>
5.0000

> <Gold.PLP.Chemscore.CHOScore>
0.0000

> <Gold.PLP.Chemscore.Metal>
0.0000

> <Gold.Chemscore.Hbonds>
donor molecule, donor type, donor heavy atom, donor atom, acceptor molecule, acceptor atom, score
      L1  H    12    39       P1  7948  2.00
      P1  H  6896  6909       L1     5  1.40
      P1  H  6934  6947       L1    19  0.67

> <Gold.PLP.Chemscore.Internal.Correction>
0.0803

> <Gold.Rescore>
     Score         DG    S(hbond)    S(metal)    S(lipo)     H(rot)  DE(clash)    DE(int)     intcor
     14.68     -16.63       2.77        0.00      51.03       1.59       0.00       1.96       ----

> <Gold.Chemscore.Fitness>
14.6751

> <Gold.Chemscore.DG>
-16.6342

> <Gold.Chemscore.ZeroCoef>
-5.4800

> <Gold.Chemscore.Hbond>
2.7730

> <Gold.Chemscore.Metal>
0.0000

> <Gold.Chemscore.Lipo>
51.0280

> <Gold.Chemscore.Internal_Hbond>
0.0000

> <Gold.Chemscore.DEClash>
0.0009

> <Gold.Chemscore.DEInternal>
1.9582

> <Gold.Chemscore.Rot>
1.5930

> <Gold.Chemscore.Internal.Correction>
   9.000000E+99

> <Gold.Chemscore.Hbonds>
donor molecule, donor type, donor heavy atom, donor atom, acceptor molecule, acceptor atom, score
      L1  H    12    39       P1  7948  0.94
      P1  H  6896  6909       L1     5  0.07
      P1  H  6934  6947       L1    19  0.24

> <Gold.Chemscore.Hbond.Weighted>
-9.2619

> <Gold.Chemscore.Metal.Weighted>
-0.0000

> <Gold.Chemscore.Lipo.Weighted>
-5.9703

> <Gold.Chemscore.Internal_Hbond.Weighted>
0.0000

> <Gold.Chemscore.DEClash.Weighted>
0.0009

> <Gold.Chemscore.DEInternal.Weighted>
1.9582

> <Gold.Chemscore.Rot.Weighted>
4.0781

> <Gold.Chemscore.Internal.Correction.Weighted>
   9.000000E+99

> <Gold.Protein.RotatedTorsions>
[ 6907 6896 6895 6894 ] final   41.98 input  -60.11 | X-H torsion
[ 7974 7965 7964 7962 ] final -167.69 input  175.53 | X-H torsion
[ 8008 7997 7996 7995 ] final -153.82 input   59.86 | X-H torsion
[ 10167 10162 10161 10158 ] final  120.90 input  -65.29 | X-H torsion
[ 10718 10713 10712 10709 ] final  -49.62 input   66.30 | X-H torsion
[ 10763 10752 10751 10750 ] final  179.68 input  -60.55 | X-H torsion
[ 11005 11000 10999 10996 ] final   90.68 input  -57.11 | X-H torsion

> <Gold.Protein.ActiveResidues>
 VAL166  LYS551  ARG553  GLY616  TRP617  ASP618  TYR619  PRO620  LYS621  CYS622 
 ASP623  PHE694  ASN695  SER759  ASP760  ASP761  ALA762  ILE779  LEU786  VAL792 
 PHE793  MET794  SER795  GLU796  ALA797  LYS798  CYS799  TRP800  GLU811  SER814 

> <Gold.Protein.RotatedAtoms>
  152.2021  134.8579  160.0506 H   0  0  0  0  0  0  0  0  0  0  0  0  # atno 6907 bound_to 6896
  151.9428  133.3638  159.3980 H   0  0  0  0  0  0  0  0  0  0  0  0  # atno 6908 bound_to 6896
  150.6957  134.4345  159.5308 H   0  0  0  0  0  0  0  0  0  0  0  0  # atno 6909 bound_to 6896
  144.7218  140.2480  143.6282 H   0  0  0  0  0  0  0  0  0  0  0  0  # atno 7974 bound_to 7965
  155.6768  140.0739  157.2499 H   0  0  0  0  0  0  0  0  0  0  0  0  # atno 8008 bound_to 7997
  154.4113  140.1689  156.1991 H   0  0  0  0  0  0  0  0  0  0  0  0  # atno 8009 bound_to 7997
  155.9569  140.3373  155.6459 H   0  0  0  0  0  0  0  0  0  0  0  0  # atno 8010 bound_to 7997
  139.5953  144.7039  151.3191 H   0  0  0  0  0  0  0  0  0  0  0  0  # atno 10167 bound_to 10162
  156.1876  130.4152  149.9416 H   0  0  0  0  0  0  0  0  0  0  0  0  # atno 10718 bound_to 10713
  154.5238  135.2795  155.1240 H   0  0  0  0  0  0  0  0  0  0  0  0  # atno 10763 bound_to 10752
  154.2787  135.6289  153.5342 H   0  0  0  0  0  0  0  0  0  0  0  0  # atno 10764 bound_to 10752
  152.9942  135.5646  154.5733 H   0  0  0  0  0  0  0  0  0  0  0  0  # atno 10765 bound_to 10752
  139.8852  134.8629  156.3320 H   0  0  0  0  0  0  0  0  0  0  0  0  # atno 11005 bound_to 11000
  145.8255  139.2062  143.1913 LP  0  0  0  0  0  0  0  0  0  0  0  0  # atno 17320 bound_to 7965
  146.0476  140.8102  142.9797 LP  0  0  0  0  0  0  0  0  0  0  0  0  # atno 17321 bound_to 7965
  140.7207  143.7144  150.7744 LP  0  0  0  0  0  0  0  0  0  0  0  0  # atno 17342 bound_to 10162
  140.0709  143.5062  152.2580 LP  0  0  0  0  0  0  0  0  0  0  0  0  # atno 17343 bound_to 10162
  156.7167  130.8991  151.3614 LP  0  0  0  0  0  0  0  0  0  0  0  0  # atno 17370 bound_to 10713
  157.6909  130.9232  150.0511 LP  0  0  0  0  0  0  0  0  0  0  0  0  # atno 17371 bound_to 10713
  140.9716  133.7323  156.0543 LP  0  0  0  0  0  0  0  0  0  0  0  0  # atno 17394 bound_to 11000
  140.7863  134.3668  157.5475 LP  0  0  0  0  0  0  0  0  0  0  0  0  # atno 17395 bound_to 11000

$$$$
