AV-unprocessed.smi:2954|AV-procd|sdf|11299|dock9
  -GOLD-   2272016193D 1   1.00000     0.00000
 Structure written by MMmdl.
 43 45  0  0  0  0  0  0  0  0  2 V2000
  151.1820  134.7724  156.0345 C   0  0  0  0  0  0  0  0  0  0  0  0
  149.8275  135.2727  155.5147 C   0  0  2  0  0  0  0  0  0  0  0  0
  149.5985  134.7648  154.1674 N   0  0  0  0  0  0  0  0  0  0  0  0
  149.6138  133.4661  153.8427 C   0  0  0  0  0  0  0  0  0  0  0  0
  149.8287  132.5732  154.6579 O   0  0  0  0  0  0  0  0  0  0  0  0
  149.7648  136.7715  155.5697 C   0  0  0  0  0  0  0  0  0  0  0  0
  149.4935  137.5965  154.5177 N   0  3  0  0  0  0  0  0  0  0  0  0
  149.5546  138.9274  154.9291 C   0  0  0  0  0  0  0  0  0  0  0  0
  149.3636  140.1090  154.2195 C   0  0  0  0  0  0  0  0  0  0  0  0
  149.5148  141.3115  154.9401 C   0  0  0  0  0  0  0  0  0  0  0  0
  149.8413  141.3088  156.3115 C   0  0  0  0  0  0  0  0  0  0  0  0
  150.0276  140.1042  157.0208 C   0  0  0  0  0  0  0  0  0  0  0  0
  149.8767  138.9182  156.3014 C   0  0  0  0  0  0  0  0  0  0  0  0
  149.9930  137.5674  156.6554 N   0  0  0  0  0  0  0  0  0  0  0  0
  150.3529  137.2132  158.0383 C   0  0  0  0  0  0  0  0  0  0  0  0
  149.1274  137.2035  158.9629 C   0  0  0  0  0  0  0  0  0  0  0  0
  148.7781  135.8561  159.2496 O   0  0  0  0  0  0  0  0  0  0  0  0
  147.9834  135.5972  160.3449 C   0  0  0  0  0  0  0  0  0  0  0  0
  147.4942  136.5999  161.2199 C   0  0  0  0  0  0  0  0  0  0  0  0
  146.6862  136.2541  162.3201 C   0  0  0  0  0  0  0  0  0  0  0  0
  146.3589  134.9073  162.5610 C   0  0  0  0  0  0  0  0  0  0  0  0
  146.8411  133.9050  161.6996 C   0  0  0  0  0  0  0  0  0  0  0  0
  147.6490  134.2481  160.5979 C   0  0  0  0  0  0  0  0  0  0  0  0
  148.2220  133.0003  159.5490 Cl  0  0  0  0  0  0  0  0  0  0  0  0
  151.3550  135.1035  157.0591 H   0  0  0  0  0  0  0  0  0  0  0  0
  152.0064  135.1413  155.4232 H   0  0  0  0  0  0  0  0  0  0  0  0
  151.2261  133.6828  156.0303 H   0  0  0  0  0  0  0  0  0  0  0  0
  149.0521  134.8619  156.1623 H   0  0  0  0  0  0  0  0  0  0  0  0
  149.4253  135.4403  153.4371 H   0  0  0  0  0  0  0  0  0  0  0  0
  149.4168  133.3081  152.7706 H   0  0  0  0  0  0  0  0  0  0  0  0
  149.1179  140.1136  153.1677 H   0  0  0  0  0  0  0  0  0  0  0  0
  149.3812  142.2547  154.4300 H   0  0  0  0  0  0  0  0  0  0  0  0
  149.9551  142.2497  156.8304 H   0  0  0  0  0  0  0  0  0  0  0  0
  150.2872  140.1182  158.0688 H   0  0  0  0  0  0  0  0  0  0  0  0
  150.8515  136.2443  158.0448 H   0  0  0  0  0  0  0  0  0  0  0  0
  151.0921  137.9313  158.3931 H   0  0  0  0  0  0  0  0  0  0  0  0
  149.3527  137.7425  159.8841 H   0  0  0  0  0  0  0  0  0  0  0  0
  148.2989  137.7120  158.4676 H   0  0  0  0  0  0  0  0  0  0  0  0
  147.7282  137.6428  161.0702 H   0  0  0  0  0  0  0  0  0  0  0  0
  146.3175  137.0244  162.9816 H   0  0  0  0  0  0  0  0  0  0  0  0
  145.7393  134.6433  163.4053 H   0  0  0  0  0  0  0  0  0  0  0  0
  146.5887  132.8710  161.8842 H   0  0  0  0  0  0  0  0  0  0  0  0
  149.2878  137.2674  153.5833 H   0  0  0  0  0  0  0  0  0  0  0  0
  1  2  1  0  0  0  0
  1 25  1  0  0  0  0
  1 26  1  0  0  0  0
  1 27  1  0  0  0  0
  2  3  1  0  0  0  0
  2  6  1  0  0  0  0
  2 28  1  0  0  0  0
  3  4  1  0  0  0  0
  3 29  1  0  0  0  0
  4  5  2  0  0  0  0
  4 30  1  0  0  0  0
  6 14  1  0  0  0  0
  6  7  2  0  0  0  0
  7  8  1  0  0  0  0
  7 43  1  0  0  0  0
  8 13  2  0  0  0  0
  8  9  1  0  0  0  0
  9 10  2  0  0  0  0
  9 31  1  0  0  0  0
 10 11  1  0  0  0  0
 10 32  1  0  0  0  0
 11 12  2  0  0  0  0
 11 33  1  0  0  0  0
 12 13  1  0  0  0  0
 12 34  1  0  0  0  0
 13 14  1  0  0  0  0
 14 15  1  0  0  0  0
 15 16  1  0  0  0  0
 15 35  1  0  0  0  0
 15 36  1  0  0  0  0
 16 17  1  0  0  0  0
 16 37  1  0  0  0  0
 16 38  1  0  0  0  0
 17 18  1  0  0  0  0
 18 23  1  0  0  0  0
 18 19  2  0  0  0  0
 19 20  1  0  0  0  0
 19 39  1  0  0  0  0
 20 21  2  0  0  0  0
 20 40  1  0  0  0  0
 21 22  1  0  0  0  0
 21 41  1  0  0  0  0
 22 23  2  0  0  0  0
 22 42  1  0  0  0  0
 23 24  1  0  0  0  0
M  CHG  1   7   1
M  END
> <s_m_source_file>
AV-unprocessed.smi

> <i_m_source_file_index>
2954

> <i_lp_mmshare_version>
43012

> <i_f3d_flags>
0

> <s_epik_input>
Tz1bQ0hdW05IXVtDQEBIXShbQ0gzXSljKG4xKW4oYyhjMTIpW2NIXVtjSF1bY0hdW2NIXTIpW0NIMl1bQ0gyXU9jM1tjSF1bY0hdW2NIXVtjSF1jM0Ns

> <s_epik_cmdline>
J2VwaWtfcHl0aG9uJywgJy1waCcsICc3LjAnLCAnLXRuJywgJzgnLCAnLW1hJywgJzIwMCcsICctbWV0YWxfYmluZGluZycsICctaW1hZScsICc8aW5maWxlLm1hZT4nLCAnLW9tYWUnLCAnPG91dGZpbGUubWFlPic=

> <r_lp_tautomer_probability>
1

> <r_epik_Ionization_Penalty>
1.18508

> <r_epik_Ionization_Penalty_Charging>
1.18508

> <r_epik_Ionization_Penalty_Neutral>
5.5802e-08

> <r_epik_State_Penalty>
1.24934

> <r_epik_Charging_Adjusted_Penalty>
2.43443

> <i_epik_Tot_Q>
1

> <i_epik_Tot_abs_Q>
1

> <r_epik_Metal_State_Penalty>
1.32564

> <b_epik_Metal_Only>
0

> <s_lp_Force_Field>
OPLS_2005

> <r_lp_Energy>
16.9753

> <b_lp_Chiralities_Consistent>
1

> <s_lp_Variant>
AV-unprocessed.smi:2954-3

> <Gold.Version>
5.8.1

> <Gold.Id.Protein>
6NUR|6NUR_protein|mol2

> <Gold.PLP.Fitness>
51.8411

> <Gold.PLP.PLP>
-41.3209

> <Gold.PLP.part.hbond>
-3.0000

> <Gold.PLP.part.metal>
0.0000

> <Gold.PLP.part.buried>
-2.8664

> <Gold.PLP.part.nonpolar>
-34.6629

> <Gold.PLP.part.repulsive>
0.0570

> <Gold.PLP.ligand.clash>
0.0000

> <Gold.PLP.ligand.torsion>
0.7741

> <Gold.PLP.Chemscore.Hbond>
4.0000

> <Gold.PLP.Chemscore.CHOScore>
0.0000

> <Gold.PLP.Chemscore.Metal>
0.0000

> <Gold.Chemscore.Hbonds>
donor molecule, donor type, donor heavy atom, donor atom, acceptor molecule, acceptor atom, score
      L1  H     3    29       P1  7948  0.85
      L1  H     7    43       P1  7948  2.00
      P1  H  6896  6908       L1    17  0.28

> <Gold.PLP.Chemscore.Internal.Correction>
0.0685

> <Gold.Rescore>
     Score         DG    S(hbond)    S(metal)    S(lipo)     H(rot)  DE(clash)    DE(int)     intcor
     17.72     -18.62       2.20        0.00     100.86       2.35       0.07       0.83       ----

> <Gold.Chemscore.Fitness>
17.7177

> <Gold.Chemscore.DG>
-18.6169

> <Gold.Chemscore.ZeroCoef>
-5.4800

> <Gold.Chemscore.Hbond>
2.1989

> <Gold.Chemscore.Metal>
0.0000

> <Gold.Chemscore.Lipo>
100.8568

> <Gold.Chemscore.Internal_Hbond>
0.0000

> <Gold.Chemscore.DEClash>
0.0707

> <Gold.Chemscore.DEInternal>
0.8285

> <Gold.Chemscore.Rot>
2.3467

> <Gold.Chemscore.Internal.Correction>
   9.000000E+99

> <Gold.Chemscore.Hbonds>
donor molecule, donor type, donor heavy atom, donor atom, acceptor molecule, acceptor atom, score
      L1  H     3    29       P1  7948  0.15
      L1  H     7    43       P1  7948  0.94
      P1  H  6896  6908       L1    17  0.11

> <Gold.Chemscore.Hbond.Weighted>
-7.3443

> <Gold.Chemscore.Metal.Weighted>
-0.0000

> <Gold.Chemscore.Lipo.Weighted>
-11.8002

> <Gold.Chemscore.Internal_Hbond.Weighted>
0.0000

> <Gold.Chemscore.DEClash.Weighted>
0.0707

> <Gold.Chemscore.DEInternal.Weighted>
0.8285

> <Gold.Chemscore.Rot.Weighted>
6.0077

> <Gold.Chemscore.Internal.Correction.Weighted>
   9.000000E+99

> <Gold.Protein.RotatedTorsions>
[ 6907 6896 6895 6894 ] final  164.10 input  -60.11 | X-H torsion
[ 7974 7965 7964 7962 ] final   83.14 input  175.53 | X-H torsion
[ 8008 7997 7996 7995 ] final   31.45 input   59.86 | X-H torsion
[ 10167 10162 10161 10158 ] final   19.06 input  -65.29 | X-H torsion
[ 10718 10713 10712 10709 ] final  149.21 input   66.30 | X-H torsion
[ 10763 10752 10751 10750 ] final  -71.80 input  -60.55 | X-H torsion
[ 11005 11000 10999 10996 ] final -101.79 input  -57.11 | X-H torsion

> <Gold.Protein.ActiveResidues>
 VAL166  LYS551  ARG553  GLY616  TRP617  ASP618  TYR619  PRO620  LYS621  CYS622 
 ASP623  PHE694  ASN695  SER759  ASP760  ASP761  ALA762  ILE779  LEU786  VAL792 
 PHE793  MET794  SER795  GLU796  ALA797  LYS798  CYS799  TRP800  GLU811  SER814 

> <Gold.Protein.RotatedAtoms>
  151.9150  133.3571  159.3876 H   0  0  0  0  0  0  0  0  0  0  0  0  # atno 6907 bound_to 6896
  150.7049  134.4693  159.5427 H   0  0  0  0  0  0  0  0  0  0  0  0  # atno 6908 bound_to 6896
  152.2306  134.8325  160.0525 H   0  0  0  0  0  0  0  0  0  0  0  0  # atno 6909 bound_to 6896
  145.6158  139.2376  143.2166 H   0  0  0  0  0  0  0  0  0  0  0  0  # atno 7974 bound_to 7965
  155.1066  140.3235  155.4533 H   0  0  0  0  0  0  0  0  0  0  0  0  # atno 8008 bound_to 7997
  156.2702  140.2051  156.6138 H   0  0  0  0  0  0  0  0  0  0  0  0  # atno 8009 bound_to 7997
  154.6788  140.0528  157.0231 H   0  0  0  0  0  0  0  0  0  0  0  0  # atno 8010 bound_to 7997
  140.5607  143.9342  150.6641 H   0  0  0  0  0  0  0  0  0  0  0  0  # atno 10167 bound_to 10162
  157.2990  131.0867  151.1404 H   0  0  0  0  0  0  0  0  0  0  0  0  # atno 10718 bound_to 10713
  154.4368  135.5950  153.6104 H   0  0  0  0  0  0  0  0  0  0  0  0  # atno 10763 bound_to 10752
  152.9802  135.5988  154.3771 H   0  0  0  0  0  0  0  0  0  0  0  0  # atno 10764 bound_to 10752
  154.3616  135.2841  155.2295 H   0  0  0  0  0  0  0  0  0  0  0  0  # atno 10765 bound_to 10752
  141.1216  133.8506  157.1276 H   0  0  0  0  0  0  0  0  0  0  0  0  # atno 11005 bound_to 11000
  146.1469  140.6980  142.9340 LP  0  0  0  0  0  0  0  0  0  0  0  0  # atno 17320 bound_to 7965
  144.7251  140.4499  143.6979 LP  0  0  0  0  0  0  0  0  0  0  0  0  # atno 17321 bound_to 7965
  140.2792  143.3401  152.1167 LP  0  0  0  0  0  0  0  0  0  0  0  0  # atno 17342 bound_to 10162
  139.5069  144.6822  151.5979 LP  0  0  0  0  0  0  0  0  0  0  0  0  # atno 17343 bound_to 10162
  157.2771  130.6732  149.6047 LP  0  0  0  0  0  0  0  0  0  0  0  0  # atno 17370 bound_to 10713
  155.9670  130.4461  150.5528 LP  0  0  0  0  0  0  0  0  0  0  0  0  # atno 17371 bound_to 10713
  140.0179  134.9959  157.0531 LP  0  0  0  0  0  0  0  0  0  0  0  0  # atno 17394 bound_to 11000
  140.4489  134.1603  155.7180 LP  0  0  0  0  0  0  0  0  0  0  0  0  # atno 17395 bound_to 11000

$$$$
