AV-unprocessed.smi:2198|AV-procd|sdf|8915|dock9
  -GOLD-   2272012133D 1   1.00000     0.00000
 Structure written by MMmdl.
 43 44  0  0  0  0  0  0  0  0  1 V2000
  151.3139  143.1520  157.1532 C   0  0  0  0  0  0  0  0  0  0  0  0
  150.7964  141.9842  156.3418 C   0  0  0  0  0  0  0  0  0  0  0  0
  149.6321  142.2630  155.6453 N   0  0  0  0  0  0  0  0  0  0  0  0
  149.0821  141.2548  154.8739 C   0  0  0  0  0  0  0  0  0  0  0  0
  147.8064  141.6415  154.1458 C   0  0  0  0  0  0  0  0  0  0  0  0
  149.6658  140.0320  154.7959 C   0  0  0  0  0  0  0  0  0  0  0  0
  149.0934  138.8955  153.9498 C   0  0  0  0  0  0  0  0  0  0  0  0
  147.7910  138.2731  154.4596 C   0  0  0  0  0  0  0  0  0  0  0  0
  147.2380  138.7180  155.4655 O   0  0  0  0  0  0  0  0  0  0  0  0
  147.3134  137.2384  153.7519 N   0  0  0  0  0  0  0  0  0  0  0  0
  146.0993  136.4860  154.0629 C   0  0  2  0  0  0  0  0  0  0  0  0
  146.4612  135.0834  154.5884 C   0  0  0  0  0  0  0  0  0  0  0  0
  147.0125  134.1707  153.4798 C   0  0  0  0  0  0  0  0  0  0  0  0
  146.0416  134.0858  152.2921 C   0  0  0  0  0  0  0  0  0  0  0  0
  145.7159  135.4820  151.7286 C   0  0  1  0  0  0  0  0  0  0  0  0
  144.7488  135.3955  150.5394 C   0  0  0  0  0  0  0  0  0  0  0  0
  145.1596  136.3958  152.8404 C   0  0  0  0  0  0  0  0  0  0  0  0
  150.9151  139.7960  155.5576 C   0  0  0  0  0  0  0  0  0  0  0  0
  151.4995  138.7141  155.5168 O   0  0  0  0  0  0  0  0  0  0  0  0
  151.4274  140.8496  156.3320 N   0  0  0  0  0  0  0  0  0  0  0  0
  149.1681  143.1597  155.6709 H   0  0  0  0  0  0  0  0  0  0  0  0
  152.1260  142.8401  157.8114 H   0  0  0  0  0  0  0  0  0  0  0  0
  150.5195  143.5721  157.7708 H   0  0  0  0  0  0  0  0  0  0  0  0
  151.6902  143.9329  156.4921 H   0  0  0  0  0  0  0  0  0  0  0  0
  146.9763  141.0157  154.4738 H   0  0  0  0  0  0  0  0  0  0  0  0
  147.9286  141.5177  153.0697 H   0  0  0  0  0  0  0  0  0  0  0  0
  147.5356  142.6812  154.3338 H   0  0  0  0  0  0  0  0  0  0  0  0
  149.8467  138.1101  153.8797 H   0  0  0  0  0  0  0  0  0  0  0  0
  148.9368  139.2214  152.9210 H   0  0  0  0  0  0  0  0  0  0  0  0
  147.8324  136.9442  152.9374 H   0  0  0  0  0  0  0  0  0  0  0  0
  145.5752  137.0112  154.8634 H   0  0  0  0  0  0  0  0  0  0  0  0
  147.1809  135.1593  155.4044 H   0  0  0  0  0  0  0  0  0  0  0  0
  145.5693  134.6225  155.0144 H   0  0  0  0  0  0  0  0  0  0  0  0
  147.9779  134.5455  153.1376 H   0  0  0  0  0  0  0  0  0  0  0  0
  147.1960  133.1734  153.8803 H   0  0  0  0  0  0  0  0  0  0  0  0
  146.4741  133.4587  151.5117 H   0  0  0  0  0  0  0  0  0  0  0  0
  145.1222  133.5919  152.6099 H   0  0  0  0  0  0  0  0  0  0  0  0
  146.6441  135.9210  151.3601 H   0  0  0  0  0  0  0  0  0  0  0  0
  143.7915  134.9660  150.8360 H   0  0  0  0  0  0  0  0  0  0  0  0
  145.1602  134.7744  149.7432 H   0  0  0  0  0  0  0  0  0  0  0  0
  144.5550  136.3830  150.1193 H   0  0  0  0  0  0  0  0  0  0  0  0
  144.1935  136.0098  153.1683 H   0  0  0  0  0  0  0  0  0  0  0  0
  144.9625  137.3922  152.4428 H   0  0  0  0  0  0  0  0  0  0  0  0
  1 22  1  0  0  0  0
  1 23  1  0  0  0  0
  1 24  1  0  0  0  0
  1  2  1  0  0  0  0
  2  3  1  0  0  0  0
  2 20  2  0  0  0  0
  3  4  1  0  0  0  0
  3 21  1  0  0  0  0
  4  6  2  0  0  0  0
  4  5  1  0  0  0  0
  5 25  1  0  0  0  0
  5 26  1  0  0  0  0
  5 27  1  0  0  0  0
  6 18  1  0  0  0  0
  6  7  1  0  0  0  0
  7  8  1  0  0  0  0
  7 28  1  0  0  0  0
  7 29  1  0  0  0  0
  8  9  2  0  0  0  0
  8 10  1  0  0  0  0
 10 11  1  0  0  0  0
 10 30  1  0  0  0  0
 11 17  1  0  0  0  0
 11 12  1  0  0  0  0
 11 31  1  0  0  0  0
 12 13  1  0  0  0  0
 12 32  1  0  0  0  0
 12 33  1  0  0  0  0
 13 14  1  0  0  0  0
 13 34  1  0  0  0  0
 13 35  1  0  0  0  0
 14 15  1  0  0  0  0
 14 36  1  0  0  0  0
 14 37  1  0  0  0  0
 15 16  1  0  0  0  0
 15 17  1  0  0  0  0
 15 38  1  0  0  0  0
 16 39  1  0  0  0  0
 16 40  1  0  0  0  0
 16 41  1  0  0  0  0
 17 42  1  0  0  0  0
 17 43  1  0  0  0  0
 18 19  2  0  0  0  0
 18 20  1  0  0  0  0
M  END
> <s_m_source_file>
AV-unprocessed.smi

> <i_m_source_file_index>
2198

> <i_lp_mmshare_version>
43012

> <i_f3d_flags>
0

> <s_epik_input>
W0NIM11jMW5jKFtDSDNdKWMoYyg9TylbbkhdMSlbQ0gyXUMoPU8pW05IXVtDQEBIXTJbQ0gyXVtDSDJdW0NIMl1bQ0BASF0oW0NIM10pW0NIMl0y

> <s_epik_cmdline>
J2VwaWtfcHl0aG9uJywgJy1waCcsICc3LjAnLCAnLXRuJywgJzgnLCAnLW1hJywgJzIwMCcsICctbWV0YWxfYmluZGluZycsICctaW1hZScsICc8aW5maWxlLm1hZT4nLCAnLW9tYWUnLCAnPG91dGZpbGUubWFlPic=

> <r_lp_tautomer_probability>
0.156392

> <r_epik_Ionization_Penalty>
0.0136514

> <r_epik_Ionization_Penalty_Charging>
0.0135207

> <r_epik_Ionization_Penalty_Neutral>
0.000130657

> <r_epik_State_Penalty>
1.15342

> <r_epik_Charging_Adjusted_Penalty>
1.16694

> <i_epik_Tot_Q>
0

> <i_epik_Tot_abs_Q>
0

> <r_epik_Metal_State_Penalty>
1.31404

> <b_epik_Metal_Only>
0

> <s_lp_Force_Field>
OPLS_2005

> <r_lp_Energy>
13.5111

> <b_lp_Chiralities_Consistent>
1

> <s_lp_Variant>
AV-unprocessed.smi:2198-5

> <Gold.Version>
5.8.1

> <Gold.Id.Protein>
6NUR|6NUR_protein|mol2

> <Gold.PLP.Fitness>
36.3630

> <Gold.PLP.PLP>
-30.7434

> <Gold.PLP.part.hbond>
-2.0000

> <Gold.PLP.part.metal>
0.0000

> <Gold.PLP.part.buried>
-2.8561

> <Gold.PLP.part.nonpolar>
-26.2687

> <Gold.PLP.part.repulsive>
0.2008

> <Gold.PLP.ligand.clash>
0.0000

> <Gold.PLP.ligand.torsion>
0.1947

> <Gold.PLP.Chemscore.Hbond>
2.0000

> <Gold.PLP.Chemscore.CHOScore>
0.0000

> <Gold.PLP.Chemscore.Metal>
0.0000

> <Gold.Chemscore.Hbonds>
donor molecule, donor type, donor heavy atom, donor atom, acceptor molecule, acceptor atom, score
      L1  H     3    21       P1  8028  1.00
      L1  H    10    30       P1  7948  1.00

> <Gold.PLP.Chemscore.Internal.Correction>
0.0089

> <Gold.Rescore>
     Score         DG    S(hbond)    S(metal)    S(lipo)     H(rot)  DE(clash)    DE(int)     intcor
     15.71     -16.07       2.00        0.00      65.83       1.48       0.17       0.19       ----

> <Gold.Chemscore.Fitness>
15.7108

> <Gold.Chemscore.DG>
-16.0705

> <Gold.Chemscore.ZeroCoef>
-5.4800

> <Gold.Chemscore.Hbond>
1.9992

> <Gold.Chemscore.Metal>
0.0000

> <Gold.Chemscore.Lipo>
65.8321

> <Gold.Chemscore.Internal_Hbond>
0.0000

> <Gold.Chemscore.DEClash>
0.1665

> <Gold.Chemscore.DEInternal>
0.1933

> <Gold.Chemscore.Rot>
1.4801

> <Gold.Chemscore.Internal.Correction>
   9.000000E+99

> <Gold.Chemscore.Hbonds>
donor molecule, donor type, donor heavy atom, donor atom, acceptor molecule, acceptor atom, score
      L1  H     3    21       P1  8028  0.98
      L1  H    10    30       P1  7948  1.00

> <Gold.Chemscore.Hbond.Weighted>
-6.6773

> <Gold.Chemscore.Metal.Weighted>
-0.0000

> <Gold.Chemscore.Lipo.Weighted>
-7.7024

> <Gold.Chemscore.Internal_Hbond.Weighted>
0.0000

> <Gold.Chemscore.DEClash.Weighted>
0.1665

> <Gold.Chemscore.DEInternal.Weighted>
0.1933

> <Gold.Chemscore.Rot.Weighted>
3.7891

> <Gold.Chemscore.Internal.Correction.Weighted>
   9.000000E+99

> <Gold.Protein.RotatedTorsions>
[ 6907 6896 6895 6894 ] final  139.44 input  -60.11 | X-H torsion
[ 7974 7965 7964 7962 ] final  -77.50 input  175.53 | X-H torsion
[ 8008 7997 7996 7995 ] final  -89.61 input   59.86 | X-H torsion
[ 10167 10162 10161 10158 ] final  -62.70 input  -65.29 | X-H torsion
[ 10718 10713 10712 10709 ] final   89.78 input   66.30 | X-H torsion
[ 10763 10752 10751 10750 ] final  -55.29 input  -60.55 | X-H torsion
[ 11005 11000 10999 10996 ] final  168.82 input  -57.11 | X-H torsion

> <Gold.Protein.ActiveResidues>
 VAL166  LYS551  ARG553  GLY616  TRP617  ASP618  TYR619  PRO620  LYS621  CYS622 
 ASP623  PHE694  ASN695  SER759  ASP760  ASP761  ALA762  ILE779  LEU786  VAL792 
 PHE793  MET794  SER795  GLU796  ALA797  LYS798  CYS799  TRP800  GLU811  SER814 

> <Gold.Protein.RotatedAtoms>
  152.2548  133.5246  159.5346 H   0  0  0  0  0  0  0  0  0  0  0  0  # atno 6907 bound_to 6896
  150.7105  134.0910  159.3941 H   0  0  0  0  0  0  0  0  0  0  0  0  # atno 6908 bound_to 6896
  151.8829  135.0446  160.0541 H   0  0  0  0  0  0  0  0  0  0  0  0  # atno 6909 bound_to 6896
  145.5988  140.9413  143.1252 H   0  0  0  0  0  0  0  0  0  0  0  0  # atno 7974 bound_to 7965
  154.6886  140.0540  157.0340 H   0  0  0  0  0  0  0  0  0  0  0  0  # atno 8008 bound_to 7997
  155.0848  140.3213  155.4572 H   0  0  0  0  0  0  0  0  0  0  0  0  # atno 8009 bound_to 7997
  156.2720  140.2058  156.5976 H   0  0  0  0  0  0  0  0  0  0  0  0  # atno 8010 bound_to 7997
  140.5921  143.2343  151.6116 H   0  0  0  0  0  0  0  0  0  0  0  0  # atno 10167 bound_to 10162
  157.6957  131.0346  150.3478 H   0  0  0  0  0  0  0  0  0  0  0  0  # atno 10718 bound_to 10713
  154.1885  135.6431  153.5053 H   0  0  0  0  0  0  0  0  0  0  0  0  # atno 10763 bound_to 10752
  153.0041  135.5423  154.6440 H   0  0  0  0  0  0  0  0  0  0  0  0  # atno 10764 bound_to 10752
  154.5823  135.2926  155.0693 H   0  0  0  0  0  0  0  0  0  0  0  0  # atno 10765 bound_to 10752
  140.2913  134.7671  157.3840 H   0  0  0  0  0  0  0  0  0  0  0  0  # atno 11005 bound_to 11000
  144.7319  139.7701  143.7344 LP  0  0  0  0  0  0  0  0  0  0  0  0  # atno 17320 bound_to 7965
  146.1592  139.4700  142.9999 LP  0  0  0  0  0  0  0  0  0  0  0  0  # atno 17321 bound_to 7965
  139.5234  144.3134  152.0973 LP  0  0  0  0  0  0  0  0  0  0  0  0  # atno 17342 bound_to 10162
  140.2300  144.4378  150.6304 LP  0  0  0  0  0  0  0  0  0  0  0  0  # atno 17343 bound_to 10162
  156.3930  130.3901  149.7015 LP  0  0  0  0  0  0  0  0  0  0  0  0  # atno 17370 bound_to 10713
  156.4359  130.7837  151.2858 LP  0  0  0  0  0  0  0  0  0  0  0  0  # atno 17371 bound_to 10713
  140.1193  134.5241  155.8197 LP  0  0  0  0  0  0  0  0  0  0  0  0  # atno 17394 bound_to 11000
  141.2146  133.6751  156.6836 LP  0  0  0  0  0  0  0  0  0  0  0  0  # atno 17395 bound_to 11000

$$$$
