AV-unprocessed.smi:283|AV-procd|sdf|2150|dock7
  -GOLD-   2262021493D 1   1.00000     0.00000
 Structure written by MMmdl.
 48 51  0  0  0  0  0  0  0  0  1 V2000
  151.8188  139.7840  155.6262 C   0  0  0  0  0  0  0  0  0  0  0  0
  150.8964  140.8437  156.2441 C   0  0  1  0  0  0  0  0  0  0  0  0
  149.5627  140.2794  156.4392 N   0  0  0  0  0  0  0  0  0  0  0  0
  148.6642  140.2193  155.4309 C   0  0  0  0  0  0  0  0  0  0  0  0
  148.5840  141.3292  154.6594 N   0  0  0  0  0  0  0  0  0  0  0  0
  147.7423  141.3660  153.6240 C   0  0  0  0  0  0  0  0  0  0  0  0
  146.9068  140.4195  153.1962 N   0  0  0  0  0  0  0  0  0  0  0  0
  146.9650  139.3003  153.9753 C   0  0  0  0  0  0  0  0  0  0  0  0
  147.8107  139.1219  155.1093 C   0  0  0  0  0  0  0  0  0  0  0  0
  147.5853  137.8638  155.6549 N   0  0  0  0  0  0  0  0  0  0  0  0
  146.6816  137.3305  154.8807 C   0  0  0  0  0  0  0  0  0  0  0  0
  146.2489  138.1243  153.8436 N   0  0  0  0  0  0  0  0  0  0  0  0
  145.2200  137.7705  152.8093 C   0  0  2  0  0  0  0  0  0  0  0  0
  144.5175  136.6439  153.2396 O   0  0  0  0  0  0  0  0  0  0  0  0
  144.4015  135.7000  152.1791 C   0  0  2  0  0  0  0  0  0  0  0  0
  144.2156  134.2719  152.7228 C   0  0  0  0  0  0  0  0  0  0  0  0
  143.0596  134.2029  153.5304 O   0  0  0  0  0  0  0  0  0  0  0  0
  145.6633  135.9292  151.3341 C   0  0  2  0  0  0  0  0  0  0  0  0
  146.7730  135.2097  151.8440 O   0  0  0  0  0  0  0  0  0  0  0  0
  145.8433  137.4391  151.4377 C   0  0  2  0  0  0  0  0  0  0  0  0
  147.1818  137.8662  151.2456 O   0  0  0  0  0  0  0  0  0  0  0  0
  151.5359  141.4353  157.5042 C   0  0  0  0  0  0  0  0  0  0  0  0
  151.7410  142.8315  157.6045 C   0  0  0  0  0  0  0  0  0  0  0  0
  152.3349  143.3901  158.7516 C   0  0  0  0  0  0  0  0  0  0  0  0
  152.7220  142.5591  159.8179 C   0  0  0  0  0  0  0  0  0  0  0  0
  152.5083  141.1709  159.7369 C   0  0  0  0  0  0  0  0  0  0  0  0
  151.9140  140.6061  158.5906 C   0  0  0  0  0  0  0  0  0  0  0  0
  151.6626  138.8957  158.5539 Cl  0  0  0  0  0  0  0  0  0  0  0  0
  144.5651  138.6422  152.7769 H   0  0  0  0  0  0  0  0  0  0  0  0
  143.5393  135.9830  151.5718 H   0  0  0  0  0  0  0  0  0  0  0  0
  145.5115  135.6150  150.3010 H   0  0  0  0  0  0  0  0  0  0  0  0
  145.2191  137.9170  150.6815 H   0  0  0  0  0  0  0  0  0  0  0  0
  152.7952  140.2053  155.3844 H   0  0  0  0  0  0  0  0  0  0  0  0
  151.3965  139.3851  154.7036 H   0  0  0  0  0  0  0  0  0  0  0  0
  151.9770  138.9486  156.3093 H   0  0  0  0  0  0  0  0  0  0  0  0
  150.7808  141.6319  155.5020 H   0  0  0  0  0  0  0  0  0  0  0  0
  149.2843  140.1816  157.4047 H   0  0  0  0  0  0  0  0  0  0  0  0
  147.7390  142.2838  153.0549 H   0  0  0  0  0  0  0  0  0  0  0  0
  146.2960  136.3361  155.0510 H   0  0  0  0  0  0  0  0  0  0  0  0
  144.0765  133.5711  151.8990 H   0  0  0  0  0  0  0  0  0  0  0  0
  145.0893  133.9431  153.2864 H   0  0  0  0  0  0  0  0  0  0  0  0
  143.0889  133.4025  154.0317 H   0  0  0  0  0  0  0  0  0  0  0  0
  147.5661  135.5978  151.5084 H   0  0  0  0  0  0  0  0  0  0  0  0
  147.7501  137.3123  151.7584 H   0  0  0  0  0  0  0  0  0  0  0  0
  151.4476  143.4856  156.7966 H   0  0  0  0  0  0  0  0  0  0  0  0
  152.4940  144.4566  158.8125 H   0  0  0  0  0  0  0  0  0  0  0  0
  153.1786  142.9859  160.6987 H   0  0  0  0  0  0  0  0  0  0  0  0
  152.8010  140.5365  160.5605 H   0  0  0  0  0  0  0  0  0  0  0  0
  1  2  1  0  0  0  0
  1 33  1  0  0  0  0
  1 34  1  0  0  0  0
  1 35  1  0  0  0  0
  2  3  1  0  0  0  0
  2 22  1  0  0  0  0
  2 36  1  0  0  0  0
  3  4  1  0  0  0  0
  3 37  1  0  0  0  0
  4  9  1  0  0  0  0
  4  5  2  0  0  0  0
  5  6  1  0  0  0  0
  6  7  2  0  0  0  0
  6 38  1  0  0  0  0
  7  8  1  0  0  0  0
  8 12  1  0  0  0  0
  8  9  2  0  0  0  0
  9 10  1  0  0  0  0
 10 11  2  0  0  0  0
 11 12  1  0  0  0  0
 11 39  1  0  0  0  0
 12 13  1  0  0  0  0
 13 29  1  0  0  0  0
 13 20  1  0  0  0  0
 13 14  1  0  0  0  0
 14 15  1  0  0  0  0
 15 30  1  0  0  0  0
 15 16  1  0  0  0  0
 15 18  1  0  0  0  0
 16 17  1  0  0  0  0
 16 40  1  0  0  0  0
 16 41  1  0  0  0  0
 17 42  1  0  0  0  0
 18 31  1  0  0  0  0
 18 19  1  0  0  0  0
 18 20  1  0  0  0  0
 19 43  1  0  0  0  0
 20 32  1  0  0  0  0
 20 21  1  0  0  0  0
 21 44  1  0  0  0  0
 22 27  1  0  0  0  0
 22 23  2  0  0  0  0
 23 24  1  0  0  0  0
 23 45  1  0  0  0  0
 24 25  2  0  0  0  0
 24 46  1  0  0  0  0
 25 26  1  0  0  0  0
 25 47  1  0  0  0  0
 26 27  2  0  0  0  0
 26 48  1  0  0  0  0
 27 28  1  0  0  0  0
M  END
> <s_m_source_file>
AV-unprocessed.smi

> <i_m_source_file_index>
283

> <i_lp_mmshare_version>
43012

> <i_f3d_flags>
0

> <s_epik_input>
Q2xjMVtjSF1bY0hdW2NIXVtjSF1jMVtDQEhdKFtDSDNdKVtOSF1jKG5bY0hdbjIpYyhjMjMpbltjSF1uM1tDQEBIXTRPW0NASF0oW0NIMl1bT0hdKVtDQEBIXShbT0hdKVtDQEhdNFtPSF0=

> <s_epik_cmdline>
J2VwaWtfcHl0aG9uJywgJy1waCcsICc3LjAnLCAnLXRuJywgJzgnLCAnLW1hJywgJzIwMCcsICctbWV0YWxfYmluZGluZycsICctaW1hZScsICc8aW5maWxlLm1hZT4nLCAnLW9tYWUnLCAnPG91dGZpbGUubWFlPic=

> <r_lp_tautomer_probability>
1

> <r_epik_Ionization_Penalty>
0.000266407

> <r_epik_Ionization_Penalty_Charging>
0

> <r_epik_Ionization_Penalty_Neutral>
0.000266407

> <r_epik_State_Penalty>
-0

> <r_epik_Charging_Adjusted_Penalty>
0

> <i_epik_Tot_Q>
0

> <i_epik_Tot_abs_Q>
0

> <r_epik_Metal_State_Penalty>
-0

> <b_epik_Metal_Only>
0

> <s_epik_Chemistry_Notes>
This compound contains an acetal/aminal-like group ( X-CH(R)-Y where X, Y are N, S, or O) that may be acid/base labile, releasing an aldehyde.

> <s_lp_Force_Field>
OPLS_2005

> <r_lp_Energy>
56.8802

> <b_lp_Chiralities_Consistent>
1

> <s_lp_Variant>
AV-unprocessed.smi:283-26

> <Gold.Version>
5.8.1

> <Gold.Id.Protein>
6NUR|6NUR_protein|mol2

> <Gold.PLP.Fitness>
50.6284

> <Gold.PLP.PLP>
-41.3588

> <Gold.PLP.part.hbond>
-3.5534

> <Gold.PLP.part.metal>
0.0000

> <Gold.PLP.part.buried>
-3.8856

> <Gold.PLP.part.nonpolar>
-35.1727

> <Gold.PLP.part.repulsive>
0.5308

> <Gold.PLP.ligand.clash>
0.0000

> <Gold.PLP.ligand.torsion>
1.1323

> <Gold.PLP.Chemscore.Hbond>
3.8120

> <Gold.PLP.Chemscore.CHOScore>
0.0000

> <Gold.PLP.Chemscore.Metal>
0.0000

> <Gold.Chemscore.Hbonds>
donor molecule, donor type, donor heavy atom, donor atom, acceptor molecule, acceptor atom, score
      L1  H    17    42       P1 10957  1.00
      L1  H    19    43       P1  7948  0.92
      L1  H    21    44       P1  7948  0.98
      P1  H  7954  7966       L1    21  0.75

> <Gold.PLP.Chemscore.Internal.Correction>
0.0982

> <Gold.Rescore>
     Score         DG    S(hbond)    S(metal)    S(lipo)     H(rot)  DE(clash)    DE(int)     intcor
     15.40     -16.97       3.20        0.00      96.39       4.10       0.38       1.18       ----

> <Gold.Chemscore.Fitness>
15.4028

> <Gold.Chemscore.DG>
-16.9669

> <Gold.Chemscore.ZeroCoef>
-5.4800

> <Gold.Chemscore.Hbond>
3.2028

> <Gold.Chemscore.Metal>
0.0000

> <Gold.Chemscore.Lipo>
96.3882

> <Gold.Chemscore.Internal_Hbond>
0.0000

> <Gold.Chemscore.DEClash>
0.3841

> <Gold.Chemscore.DEInternal>
1.1801

> <Gold.Chemscore.Rot>
4.0968

> <Gold.Chemscore.Internal.Correction>
   9.000000E+99

> <Gold.Chemscore.Hbonds>
donor molecule, donor type, donor heavy atom, donor atom, acceptor molecule, acceptor atom, score
      L1  H    17    42       P1 10957  1.00
      L1  H    19    43       P1  7948  0.79
      L1  H    21    44       P1  7948  0.92
      P1  H  7954  7966       L1    21  0.09

> <Gold.Chemscore.Hbond.Weighted>
-10.6974

> <Gold.Chemscore.Metal.Weighted>
-0.0000

> <Gold.Chemscore.Lipo.Weighted>
-11.2774

> <Gold.Chemscore.Internal_Hbond.Weighted>
0.0000

> <Gold.Chemscore.DEClash.Weighted>
0.3841

> <Gold.Chemscore.DEInternal.Weighted>
1.1801

> <Gold.Chemscore.Rot.Weighted>
10.4879

> <Gold.Chemscore.Internal.Correction.Weighted>
   9.000000E+99

> <Gold.Protein.RotatedTorsions>
[ 6907 6896 6895 6894 ] final   39.88 input  -60.11 | X-H torsion
[ 7974 7965 7964 7962 ] final   74.36 input  175.53 | X-H torsion
[ 8008 7997 7996 7995 ] final  170.61 input   59.86 | X-H torsion
[ 10167 10162 10161 10158 ] final  -78.01 input  -65.29 | X-H torsion
[ 10718 10713 10712 10709 ] final  -21.28 input   66.30 | X-H torsion
[ 10763 10752 10751 10750 ] final  107.75 input  -60.55 | X-H torsion
[ 11005 11000 10999 10996 ] final  -72.71 input  -57.11 | X-H torsion

> <Gold.Protein.ActiveResidues>
 VAL166  LYS551  ARG553  GLY616  TRP617  ASP618  TYR619  PRO620  LYS621  CYS622 
 ASP623  PHE694  ASN695  SER759  ASP760  ASP761  ALA762  ILE779  LEU786  VAL792 
 PHE793  MET794  SER795  GLU796  ALA797  LYS798  CYS799  TRP800  GLU811  SER814 

> <Gold.Protein.RotatedAtoms>
  152.1753  134.8800  160.0530 H   0  0  0  0  0  0  0  0  0  0  0  0  # atno 6907 bound_to 6896
  151.9745  133.3732  159.4092 H   0  0  0  0  0  0  0  0  0  0  0  0  # atno 6908 bound_to 6896
  150.6908  134.4028  159.5170 H   0  0  0  0  0  0  0  0  0  0  0  0  # atno 6909 bound_to 6896
  145.7293  139.2677  143.1550 H   0  0  0  0  0  0  0  0  0  0  0  0  # atno 7974 bound_to 7965
  156.1349  140.1533  156.9010 H   0  0  0  0  0  0  0  0  0  0  0  0  # atno 8008 bound_to 7997
  154.4939  140.0843  156.7693 H   0  0  0  0  0  0  0  0  0  0  0  0  # atno 8009 bound_to 7997
  155.4187  140.3422  155.4272 H   0  0  0  0  0  0  0  0  0  0  0  0  # atno 8010 bound_to 7997
  140.4720  143.2424  151.8191 H   0  0  0  0  0  0  0  0  0  0  0  0  # atno 10167 bound_to 10162
  156.5203  130.4631  149.6600 H   0  0  0  0  0  0  0  0  0  0  0  0  # atno 10718 bound_to 10713
  153.4111  135.3834  155.2051 H   0  0  0  0  0  0  0  0  0  0  0  0  # atno 10763 bound_to 10752
  154.8738  135.3794  154.4500 H   0  0  0  0  0  0  0  0  0  0  0  0  # atno 10764 bound_to 10752
  153.5008  135.7088  153.5895 H   0  0  0  0  0  0  0  0  0  0  0  0  # atno 10765 bound_to 10752
  141.1612  133.6855  156.7101 H   0  0  0  0  0  0  0  0  0  0  0  0  # atno 11005 bound_to 11000
  146.0553  140.8027  142.9761 LP  0  0  0  0  0  0  0  0  0  0  0  0  # atno 17320 bound_to 7965
  144.6897  140.3114  143.7247 LP  0  0  0  0  0  0  0  0  0  0  0  0  # atno 17321 bound_to 7965
  139.4820  144.4880  151.9221 LP  0  0  0  0  0  0  0  0  0  0  0  0  # atno 17342 bound_to 10162
  140.3966  144.2547  150.5896 LP  0  0  0  0  0  0  0  0  0  0  0  0  # atno 17343 bound_to 10162
  156.3155  130.7252  151.2154 LP  0  0  0  0  0  0  0  0  0  0  0  0  # atno 17370 bound_to 10713
  157.7438  131.0469  150.4920 LP  0  0  0  0  0  0  0  0  0  0  0  0  # atno 17371 bound_to 10713
  140.2893  134.8253  157.4003 LP  0  0  0  0  0  0  0  0  0  0  0  0  # atno 17394 bound_to 11000
  140.1361  134.5032  155.8067 LP  0  0  0  0  0  0  0  0  0  0  0  0  # atno 17395 bound_to 11000

$$$$
