AV-unprocessed.smi:2728|AV-procd|sdf|10525|dock10
  -GOLD-   2272014573D 1   1.00000     0.00000
 Structure written by MMmdl.
 34 35  0  0  0  0  0  0  0  0  1 V2000
  146.6232  138.0546  151.0106 O   0  0  0  0  0  0  0  0  0  0  0  0
  146.1569  138.1067  152.1492 C   0  0  0  0  0  0  0  0  0  0  0  0
  146.3403  139.1468  152.9757 N   0  0  0  0  0  0  0  0  0  0  0  0
  147.0973  140.3501  152.6508 C   0  0  0  0  0  0  0  0  0  0  0  0
  147.4797  141.1357  153.9165 C   0  0  0  0  0  0  0  0  0  0  0  0
  148.8204  140.7103  154.4823 C   0  0  0  0  0  0  0  0  0  0  0  0
  149.5818  141.4049  155.3264 C   0  0  0  0  0  0  0  0  0  0  0  0
  150.8428  140.6771  155.7038 C   0  0  0  0  0  0  0  0  0  0  0  0
  150.7561  139.3477  154.9215 C   0  0  0  0  0  0  0  0  0  0  0  0
  149.4253  139.3738  154.1361 C   0  0  0  0  0  0  0  0  0  0  0  0
  145.4082  137.1511  152.7284 N   0  0  0  0  0  0  0  0  0  0  0  0
  144.9794  135.9151  152.1748 C   0  0  0  0  0  0  0  0  0  0  0  0
  144.9842  135.8584  150.7624 C   0  0  0  0  0  0  0  0  0  0  0  0
  144.5799  134.6746  150.1147 C   0  0  0  0  0  0  0  0  0  0  0  0
  144.1804  133.5780  150.8989 C   0  0  0  0  0  0  0  0  0  0  0  0
  143.7843  132.4190  150.3213 F   0  0  0  0  0  0  0  0  0  0  0  0
  144.2032  133.7163  152.2990 C   0  0  0  0  0  0  0  0  0  0  0  0
  144.5908  134.8503  152.9209 N   0  0  0  0  0  0  0  0  0  0  0  0
  145.9227  139.1068  153.8938 H   0  0  0  0  0  0  0  0  0  0  0  0
  147.9850  140.0861  152.0735 H   0  0  0  0  0  0  0  0  0  0  0  0
  146.4789  140.9716  152.0024 H   0  0  0  0  0  0  0  0  0  0  0  0
  147.5164  142.2023  153.6902 H   0  0  0  0  0  0  0  0  0  0  0  0
  146.7221  141.0056  154.6902 H   0  0  0  0  0  0  0  0  0  0  0  0
  149.3457  142.3831  155.7189 H   0  0  0  0  0  0  0  0  0  0  0  0
  151.7172  141.2608  155.4152 H   0  0  0  0  0  0  0  0  0  0  0  0
  150.8732  140.5111  156.7809 H   0  0  0  0  0  0  0  0  0  0  0  0
  151.6015  139.2488  154.2398 H   0  0  0  0  0  0  0  0  0  0  0  0
  150.7878  138.4956  155.6013 H   0  0  0  0  0  0  0  0  0  0  0  0
  148.7595  138.5678  154.4456 H   0  0  0  0  0  0  0  0  0  0  0  0
  149.5948  139.2917  153.0623 H   0  0  0  0  0  0  0  0  0  0  0  0
  145.1010  137.3336  153.6721 H   0  0  0  0  0  0  0  0  0  0  0  0
  145.2956  136.7108  150.1761 H   0  0  0  0  0  0  0  0  0  0  0  0
  144.5774  134.6105  149.0367 H   0  0  0  0  0  0  0  0  0  0  0  0
  143.9038  132.8974  152.9362 H   0  0  0  0  0  0  0  0  0  0  0  0
  1  2  2  0  0  0  0
  2  3  1  0  0  0  0
  2 11  1  0  0  0  0
  3  4  1  0  0  0  0
  3 19  1  0  0  0  0
  4  5  1  0  0  0  0
  4 20  1  0  0  0  0
  4 21  1  0  0  0  0
  5  6  1  0  0  0  0
  5 22  1  0  0  0  0
  5 23  1  0  0  0  0
  6 10  1  0  0  0  0
  6  7  2  0  0  0  0
  7  8  1  0  0  0  0
  7 24  1  0  0  0  0
  8  9  1  0  0  0  0
  8 25  1  0  0  0  0
  8 26  1  0  0  0  0
  9 10  1  0  0  0  0
  9 27  1  0  0  0  0
  9 28  1  0  0  0  0
 10 29  1  0  0  0  0
 10 30  1  0  0  0  0
 11 12  1  0  0  0  0
 11 31  1  0  0  0  0
 12 18  1  0  0  0  0
 12 13  2  0  0  0  0
 13 14  1  0  0  0  0
 13 32  1  0  0  0  0
 14 15  2  0  0  0  0
 14 33  1  0  0  0  0
 15 16  1  0  0  0  0
 15 17  1  0  0  0  0
 17 18  2  0  0  0  0
 17 34  1  0  0  0  0
M  END
> <s_m_source_file>
AV-unprocessed.smi

> <i_m_source_file_index>
2728

> <i_lp_mmshare_version>
43012

> <i_f3d_flags>
0

> <s_epik_input>
bjFbY0hdYyhGKVtjSF1bY0hdYzFbTkhdQyg9TylbTkhdW0NIMl1bQ0gyXUMyPVtDSF1bQ0gyXVtDSDJdW0NIMl0y

> <s_epik_cmdline>
J2VwaWtfcHl0aG9uJywgJy1waCcsICc3LjAnLCAnLXRuJywgJzgnLCAnLW1hJywgJzIwMCcsICctbWV0YWxfYmluZGluZycsICctaW1hZScsICc8aW5maWxlLm1hZT4nLCAnLW9tYWUnLCAnPG91dGZpbGUubWFlPic=

> <r_lp_tautomer_probability>
1

> <r_epik_Ionization_Penalty>
3.75783e-05

> <r_epik_Ionization_Penalty_Charging>
0

> <r_epik_Ionization_Penalty_Neutral>
3.75783e-05

> <r_epik_State_Penalty>
-0

> <r_epik_Charging_Adjusted_Penalty>
0

> <i_epik_Tot_Q>
0

> <i_epik_Tot_abs_Q>
0

> <r_epik_Metal_State_Penalty>
-0

> <b_epik_Metal_Only>
0

> <s_lp_Force_Field>
OPLS_2005

> <r_lp_Energy>
20.4042

> <b_lp_Chiralities_Consistent>
1

> <s_lp_Variant>
AV-unprocessed.smi:2728-1

> <Gold.Version>
5.8.1

> <Gold.Id.Protein>
6NUR|6NUR_protein|mol2

> <Gold.PLP.Fitness>
39.7382

> <Gold.PLP.PLP>
-35.0904

> <Gold.PLP.part.hbond>
-1.9344

> <Gold.PLP.part.metal>
0.0000

> <Gold.PLP.part.buried>
2.2913

> <Gold.PLP.part.nonpolar>
-36.8721

> <Gold.PLP.part.repulsive>
1.6838

> <Gold.PLP.ligand.clash>
0.0000

> <Gold.PLP.ligand.torsion>
0.6781

> <Gold.PLP.Chemscore.Hbond>
1.0000

> <Gold.PLP.Chemscore.CHOScore>
1.0000

> <Gold.PLP.Chemscore.Metal>
0.0000

> <Gold.Chemscore.Hbonds>
donor molecule, donor type, donor heavy atom, donor atom, acceptor molecule, acceptor atom, score
      P1  H  7954  7966       L1     1  1.00
      L1  C    17    34       P1 10957  1.00

> <Gold.PLP.Chemscore.Internal.Correction>
0.0039

> <Gold.Rescore>
     Score         DG    S(hbond)    S(metal)    S(lipo)     H(rot)  DE(clash)    DE(int)     intcor
      9.72     -13.60       0.99        0.00      73.50       1.48       1.95       1.93       ----

> <Gold.Chemscore.Fitness>
9.7216

> <Gold.Chemscore.DG>
-13.6025

> <Gold.Chemscore.ZeroCoef>
-5.4800

> <Gold.Chemscore.Hbond>
0.9928

> <Gold.Chemscore.Metal>
0.0000

> <Gold.Chemscore.Lipo>
73.5015

> <Gold.Chemscore.Internal_Hbond>
0.0000

> <Gold.Chemscore.DEClash>
1.9498

> <Gold.Chemscore.DEInternal>
1.9311

> <Gold.Chemscore.Rot>
1.4818

> <Gold.Chemscore.Internal.Correction>
   9.000000E+99

> <Gold.Chemscore.Hbonds>
donor molecule, donor type, donor heavy atom, donor atom, acceptor molecule, acceptor atom, score
      P1  H  7954  7966       L1     1  0.99

> <Gold.Chemscore.Hbond.Weighted>
-3.3161

> <Gold.Chemscore.Metal.Weighted>
-0.0000

> <Gold.Chemscore.Lipo.Weighted>
-8.5997

> <Gold.Chemscore.Internal_Hbond.Weighted>
0.0000

> <Gold.Chemscore.DEClash.Weighted>
1.9498

> <Gold.Chemscore.DEInternal.Weighted>
1.9311

> <Gold.Chemscore.Rot.Weighted>
3.7933

> <Gold.Chemscore.Internal.Correction.Weighted>
   9.000000E+99

> <Gold.Protein.RotatedTorsions>
[ 6907 6896 6895 6894 ] final  -98.82 input  -60.11 | X-H torsion
[ 7974 7965 7964 7962 ] final   70.86 input  175.53 | X-H torsion
[ 8008 7997 7996 7995 ] final -104.66 input   59.86 | X-H torsion
[ 10167 10162 10161 10158 ] final  -55.34 input  -65.29 | X-H torsion
[ 10718 10713 10712 10709 ] final  166.12 input   66.30 | X-H torsion
[ 10763 10752 10751 10750 ] final   91.00 input  -60.55 | X-H torsion
[ 11005 11000 10999 10996 ] final   51.38 input  -57.11 | X-H torsion

> <Gold.Protein.ActiveResidues>
 VAL166  LYS551  ARG553  GLY616  TRP617  ASP618  TYR619  PRO620  LYS621  CYS622 
 ASP623  PHE694  ASN695  SER759  ASP760  ASP761  ALA762  ILE779  LEU786  VAL792 
 PHE793  MET794  SER795  GLU796  ALA797  LYS798  CYS799  TRP800  GLU811  SER814 

> <Gold.Protein.RotatedAtoms>
  150.7059  134.1135  159.4008 H   0  0  0  0  0  0  0  0  0  0  0  0  # atno 6907 bound_to 6896
  151.9122  135.0332  160.0524 H   0  0  0  0  0  0  0  0  0  0  0  0  # atno 6908 bound_to 6896
  152.2326  133.5035  159.5261 H   0  0  0  0  0  0  0  0  0  0  0  0  # atno 6909 bound_to 6896
  145.7730  139.2852  143.1310 H   0  0  0  0  0  0  0  0  0  0  0  0  # atno 7974 bound_to 7965
  154.8886  140.0416  157.1825 H   0  0  0  0  0  0  0  0  0  0  0  0  # atno 8008 bound_to 7997
  154.8565  140.2937  155.5545 H   0  0  0  0  0  0  0  0  0  0  0  0  # atno 8009 bound_to 7997
  156.2997  140.2455  156.3532 H   0  0  0  0  0  0  0  0  0  0  0  0  # atno 8010 bound_to 7997
  140.6380  143.2492  151.5066 H   0  0  0  0  0  0  0  0  0  0  0  0  # atno 10167 bound_to 10162
  157.0704  131.0364  151.2614 H   0  0  0  0  0  0  0  0  0  0  0  0  # atno 10718 bound_to 10713
  153.2035  135.4413  155.0295 H   0  0  0  0  0  0  0  0  0  0  0  0  # atno 10763 bound_to 10752
  154.8160  135.3315  154.7176 H   0  0  0  0  0  0  0  0  0  0  0  0  # atno 10764 bound_to 10752
  153.7619  135.6991  153.4979 H   0  0  0  0  0  0  0  0  0  0  0  0  # atno 10765 bound_to 10752
  140.0938  134.5174  155.8827 H   0  0  0  0  0  0  0  0  0  0  0  0  # atno 11005 bound_to 11000
  146.0151  140.8400  142.9951 LP  0  0  0  0  0  0  0  0  0  0  0  0  # atno 17320 bound_to 7965
  144.6809  140.2546  143.7327 LP  0  0  0  0  0  0  0  0  0  0  0  0  # atno 17321 bound_to 7965
  139.5590  144.2205  152.1659 LP  0  0  0  0  0  0  0  0  0  0  0  0  # atno 17342 bound_to 10162
  140.1467  144.5153  150.6712 LP  0  0  0  0  0  0  0  0  0  0  0  0  # atno 17343 bound_to 10162
  157.4883  130.7806  149.7482 LP  0  0  0  0  0  0  0  0  0  0  0  0  # atno 17370 bound_to 10713
  155.9952  130.3913  150.2828 LP  0  0  0  0  0  0  0  0  0  0  0  0  # atno 17371 bound_to 10713
  141.2086  133.6675  156.6380 LP  0  0  0  0  0  0  0  0  0  0  0  0  # atno 17394 bound_to 11000
  140.3315  134.7924  157.4330 LP  0  0  0  0  0  0  0  0  0  0  0  0  # atno 17395 bound_to 11000

$$$$
