AV-unprocessed.smi:3231|AV-procd|sdf|12333|dock6
  -GOLD-   2272018183D 1   1.00000     0.00000
 Structure written by MMmdl.
 41 42  0  0  0  0  0  0  0  0  2 V2000
  147.5359  138.3069  151.3691 O   0  0  0  0  0  0  0  0  0  0  0  0
  146.4876  138.7249  152.2204 C   0  0  2  0  0  0  0  0  0  0  0  0
  146.9600  140.0047  152.9301 C   0  0  0  0  0  0  0  0  0  0  0  0
  148.3977  139.9732  153.1760 N   0  0  0  0  0  0  0  0  0  0  0  0
  148.7585  140.2391  154.5656 C   0  0  0  0  0  0  0  0  0  0  0  0
  150.2141  139.8407  154.8569 C   0  0  0  0  0  0  0  0  0  0  0  0
  150.7889  140.6170  155.9417 N   0  0  0  0  0  0  0  0  0  0  0  0
  150.4353  141.8783  156.3723 C   0  0  0  0  0  0  0  0  0  0  0  0
  151.2464  142.1905  157.4254 C   0  0  0  0  0  0  0  0  0  0  0  0
  152.0759  141.0429  157.5650 C   0  0  0  0  0  0  0  0  0  0  0  0
  151.7980  140.1016  156.6775 N   0  0  0  0  0  0  0  0  0  0  0  0
  146.1749  137.5835  153.2133 C   0  0  0  0  0  0  0  0  0  0  0  0
  146.2172  136.2392  152.5834 N   0  3  0  0  0  0  0  0  0  0  0  0
  146.0080  135.1491  153.5659 C   0  0  0  0  0  0  0  0  0  0  0  0
  146.1135  133.7764  152.8802 C   0  0  0  0  0  0  0  0  0  0  0  0
  145.1718  133.6995  151.8177 O   0  0  0  0  0  0  0  0  0  0  0  0
  145.4129  134.6852  150.8215 C   0  0  0  0  0  0  0  0  0  0  0  0
  145.2835  136.0877  151.4393 C   0  0  0  0  0  0  0  0  0  0  0  0
  148.1246  137.7521  151.8570 H   0  0  0  0  0  0  0  0  0  0  0  0
  145.6233  138.9651  151.6015 H   0  0  0  0  0  0  0  0  0  0  0  0
  146.6945  140.8833  152.3406 H   0  0  0  0  0  0  0  0  0  0  0  0
  146.4360  140.1001  153.8824 H   0  0  0  0  0  0  0  0  0  0  0  0
  148.7757  139.0730  152.8966 H   0  0  0  0  0  0  0  0  0  0  0  0
  148.6235  141.2989  154.7838 H   0  0  0  0  0  0  0  0  0  0  0  0
  148.0929  139.6965  155.2381 H   0  0  0  0  0  0  0  0  0  0  0  0
  150.2836  138.7778  155.0942 H   0  0  0  0  0  0  0  0  0  0  0  0
  150.8247  140.0012  153.9677 H   0  0  0  0  0  0  0  0  0  0  0  0
  149.6428  142.4406  155.9008 H   0  0  0  0  0  0  0  0  0  0  0  0
  151.2472  143.0998  158.0075 H   0  0  0  0  0  0  0  0  0  0  0  0
  152.8649  140.8666  158.2811 H   0  0  0  0  0  0  0  0  0  0  0  0
  146.8948  137.6299  154.0320 H   0  0  0  0  0  0  0  0  0  0  0  0
  145.1936  137.7244  153.6690 H   0  0  0  0  0  0  0  0  0  0  0  0
  146.7523  135.2183  154.3603 H   0  0  0  0  0  0  0  0  0  0  0  0
  145.0280  135.2598  154.0327 H   0  0  0  0  0  0  0  0  0  0  0  0
  147.1227  133.6055  152.5018 H   0  0  0  0  0  0  0  0  0  0  0  0
  145.9032  132.9818  153.5961 H   0  0  0  0  0  0  0  0  0  0  0  0
  146.4012  134.5419  150.3814 H   0  0  0  0  0  0  0  0  0  0  0  0
  144.6863  134.5601  150.0187 H   0  0  0  0  0  0  0  0  0  0  0  0
  144.2592  136.2494  151.7787 H   0  0  0  0  0  0  0  0  0  0  0  0
  145.4873  136.8360  150.6747 H   0  0  0  0  0  0  0  0  0  0  0  0
  147.1531  136.1181  152.2239 H   0  0  0  0  0  0  0  0  0  0  0  0
  1  2  1  0  0  0  0
  1 19  1  0  0  0  0
  2  3  1  0  0  0  0
  2 12  1  0  0  0  0
  2 20  1  0  0  0  0
  3  4  1  0  0  0  0
  3 21  1  0  0  0  0
  3 22  1  0  0  0  0
  4  5  1  0  0  0  0
  4 23  1  0  0  0  0
  5  6  1  0  0  0  0
  5 24  1  0  0  0  0
  5 25  1  0  0  0  0
  6  7  1  0  0  0  0
  6 26  1  0  0  0  0
  6 27  1  0  0  0  0
  7 11  1  0  0  0  0
  7  8  1  0  0  0  0
  8  9  2  0  0  0  0
  8 28  1  0  0  0  0
  9 10  1  0  0  0  0
  9 29  1  0  0  0  0
 10 11  2  0  0  0  0
 10 30  1  0  0  0  0
 12 13  1  0  0  0  0
 12 31  1  0  0  0  0
 12 32  1  0  0  0  0
 13 18  1  0  0  0  0
 13 14  1  0  0  0  0
 13 41  1  0  0  0  0
 14 15  1  0  0  0  0
 14 33  1  0  0  0  0
 14 34  1  0  0  0  0
 15 16  1  0  0  0  0
 15 35  1  0  0  0  0
 15 36  1  0  0  0  0
 16 17  1  0  0  0  0
 17 18  1  0  0  0  0
 17 37  1  0  0  0  0
 17 38  1  0  0  0  0
 18 39  1  0  0  0  0
 18 40  1  0  0  0  0
M  CHG  1  13   1
M  END
> <s_m_source_file>
AV-unprocessed.smi

> <i_m_source_file_index>
3231

> <i_lp_mmshare_version>
43012

> <i_f3d_flags>
0

> <s_epik_input>
W0NIMl0xW0NIMl1PW0NIMl1bQ0gyXU4xW0NIMl1bQ0BIXShbT0hdKVtDSDJdW05IXVtDSDJdW0NIMl1uMltjSF1bY0hdW2NIXW4y

> <s_epik_cmdline>
J2VwaWtfcHl0aG9uJywgJy1waCcsICc3LjAnLCAnLXRuJywgJzgnLCAnLW1hJywgJzIwMCcsICctbWV0YWxfYmluZGluZycsICctaW1hZScsICc8aW5maWxlLm1hZT4nLCAnLW9tYWUnLCAnPG91dGZpbGUubWFlPic=

> <r_epik_Ionization_Penalty>
0.33973

> <r_epik_Ionization_Penalty_Charging>
0.202493

> <r_epik_Ionization_Penalty_Neutral>
0.137237

> <r_epik_State_Penalty>
0.943915

> <r_epik_Charging_Adjusted_Penalty>
1.14641

> <i_epik_Tot_Q>
1

> <i_epik_Tot_abs_Q>
1

> <r_epik_Metal_State_Penalty>
0.94313

> <b_epik_Metal_Only>
0

> <s_lp_Force_Field>
OPLS_2005

> <r_lp_Energy>
21.8008

> <b_lp_Chiralities_Consistent>
1

> <s_lp_Variant>
AV-unprocessed.smi:3231-3

> <Gold.Version>
5.8.1

> <Gold.Id.Protein>
6NUR|6NUR_protein|mol2

> <Gold.PLP.Fitness>
44.0345

> <Gold.PLP.PLP>
-32.7341

> <Gold.PLP.part.hbond>
-4.2245

> <Gold.PLP.part.metal>
0.0000

> <Gold.PLP.part.buried>
-3.1925

> <Gold.PLP.part.nonpolar>
-25.8365

> <Gold.PLP.part.repulsive>
0.1091

> <Gold.PLP.ligand.clash>
0.0000

> <Gold.PLP.ligand.torsion>
1.4350

> <Gold.PLP.Chemscore.Hbond>
3.6820

> <Gold.PLP.Chemscore.CHOScore>
1.0000

> <Gold.PLP.Chemscore.Metal>
0.0000

> <Gold.Chemscore.Hbonds>
donor molecule, donor type, donor heavy atom, donor atom, acceptor molecule, acceptor atom, score
      L1  H     1    19       P1  7948  0.86
      L1  H    13    41       P1  7948  2.00
      P1  H  7954  7966       L1     1  0.70
      L1  C     8    28       P1  8028  1.00

> <Gold.PLP.Chemscore.Internal.Correction>
0.1243

> <Gold.Rescore>
     Score         DG    S(hbond)    S(metal)    S(lipo)     H(rot)  DE(clash)    DE(int)     intcor
     12.28     -13.69       2.16        0.00      70.52       2.84       0.05       1.36       ----

> <Gold.Chemscore.Fitness>
12.2760

> <Gold.Chemscore.DG>
-13.6863

> <Gold.Chemscore.ZeroCoef>
-5.4800

> <Gold.Chemscore.Hbond>
2.1632

> <Gold.Chemscore.Metal>
0.0000

> <Gold.Chemscore.Lipo>
70.5186

> <Gold.Chemscore.Internal_Hbond>
0.0000

> <Gold.Chemscore.DEClash>
0.0465

> <Gold.Chemscore.DEInternal>
1.3637

> <Gold.Chemscore.Rot>
2.8397

> <Gold.Chemscore.Internal.Correction>
   9.000000E+99

> <Gold.Chemscore.Hbonds>
donor molecule, donor type, donor heavy atom, donor atom, acceptor molecule, acceptor atom, score
      L1  H     1    19       P1  7948  0.86
      L1  H    13    41       P1  7948  1.00
      P1  H  7954  7966       L1     1  0.07

> <Gold.Chemscore.Hbond.Weighted>
-7.2252

> <Gold.Chemscore.Metal.Weighted>
-0.0000

> <Gold.Chemscore.Lipo.Weighted>
-8.2507

> <Gold.Chemscore.Internal_Hbond.Weighted>
0.0000

> <Gold.Chemscore.DEClash.Weighted>
0.0465

> <Gold.Chemscore.DEInternal.Weighted>
1.3637

> <Gold.Chemscore.Rot.Weighted>
7.2696

> <Gold.Chemscore.Internal.Correction.Weighted>
   9.000000E+99

> <Gold.Protein.RotatedTorsions>
[ 6907 6896 6895 6894 ] final   58.92 input  -60.11 | X-H torsion
[ 7974 7965 7964 7962 ] final  -17.60 input  175.53 | X-H torsion
[ 8008 7997 7996 7995 ] final -144.43 input   59.86 | X-H torsion
[ 10167 10162 10161 10158 ] final   72.18 input  -65.29 | X-H torsion
[ 10718 10713 10712 10709 ] final  -66.08 input   66.30 | X-H torsion
[ 10763 10752 10751 10750 ] final -160.71 input  -60.55 | X-H torsion
[ 11005 11000 10999 10996 ] final  -31.52 input  -57.11 | X-H torsion

> <Gold.Protein.ActiveResidues>
 VAL166  LYS551  ARG553  GLY616  TRP617  ASP618  TYR619  PRO620  LYS621  CYS622 
 ASP623  PHE694  ASN695  SER759  ASP760  ASP761  ALA762  ILE779  LEU786  VAL792 
 PHE793  MET794  SER795  GLU796  ALA797  LYS798  CYS799  TRP800  GLU811  SER814 

> <Gold.Protein.RotatedAtoms>
  152.3868  134.6504  160.0122 H   0  0  0  0  0  0  0  0  0  0  0  0  # atno 6907 bound_to 6896
  151.6750  133.3307  159.3214 H   0  0  0  0  0  0  0  0  0  0  0  0  # atno 6908 bound_to 6896
  150.7792  134.6766  159.6465 H   0  0  0  0  0  0  0  0  0  0  0  0  # atno 6909 bound_to 6896
  146.1933  140.3802  142.8450 H   0  0  0  0  0  0  0  0  0  0  0  0  # atno 7974 bound_to 7965
  155.5268  140.0596  157.2896 H   0  0  0  0  0  0  0  0  0  0  0  0  # atno 8008 bound_to 7997
  154.4498  140.1943  156.0499 H   0  0  0  0  0  0  0  0  0  0  0  0  # atno 8009 bound_to 7997
  156.0680  140.3264  155.7545 H   0  0  0  0  0  0  0  0  0  0  0  0  # atno 8010 bound_to 7997
  140.0381  144.5412  150.7455 H   0  0  0  0  0  0  0  0  0  0  0  0  # atno 10167 bound_to 10162
  156.0632  130.4257  150.1657 H   0  0  0  0  0  0  0  0  0  0  0  0  # atno 10718 bound_to 10713
  154.7367  135.3059  154.8799 H   0  0  0  0  0  0  0  0  0  0  0  0  # atno 10763 bound_to 10752
  153.9626  135.6751  153.4749 H   0  0  0  0  0  0  0  0  0  0  0  0  # atno 10764 bound_to 10752
  153.0969  135.4931  154.8718 H   0  0  0  0  0  0  0  0  0  0  0  0  # atno 10765 bound_to 10752
  140.9475  133.7241  156.1169 H   0  0  0  0  0  0  0  0  0  0  0  0  # atno 11005 bound_to 11000
  144.8530  140.7029  143.6156 LP  0  0  0  0  0  0  0  0  0  0  0  0  # atno 17320 bound_to 7965
  145.3723  139.1655  143.4325 LP  0  0  0  0  0  0  0  0  0  0  0  0  # atno 17321 bound_to 7965
  140.7272  143.2649  151.4078 LP  0  0  0  0  0  0  0  0  0  0  0  0  # atno 17342 bound_to 10162
  139.6032  144.1252  152.2221 LP  0  0  0  0  0  0  0  0  0  0  0  0  # atno 17343 bound_to 10162
  156.9722  130.9838  151.3456 LP  0  0  0  0  0  0  0  0  0  0  0  0  # atno 17370 bound_to 10713
  157.5656  130.8275  149.8323 LP  0  0  0  0  0  0  0  0  0  0  0  0  # atno 17371 bound_to 10713
  140.7648  134.3898  157.5519 LP  0  0  0  0  0  0  0  0  0  0  0  0  # atno 17394 bound_to 11000
  139.8838  134.8985  156.2745 LP  0  0  0  0  0  0  0  0  0  0  0  0  # atno 17395 bound_to 11000

$$$$
