AV-unprocessed.smi:2813|AV-procd|sdf|10838|dock3
  -GOLD-   2272015283D 1   1.00000     0.00000
 Structure written by MMmdl.
 41 42  0  0  0  0  0  0  0  0  1 V2000
  154.0993  136.5212  160.8444 C   0  0  0  0  0  0  0  0  0  0  0  0
  153.4980  136.8829  159.4977 C   0  0  0  0  0  0  0  0  0  0  0  0
  152.1054  137.0009  159.4708 N   0  0  0  0  0  0  0  0  0  0  0  0
  151.5053  137.3056  158.3669 C   0  0  0  0  0  0  0  0  0  0  0  0
  152.2173  137.5303  157.1771 N   0  0  0  0  0  0  0  0  0  0  0  0
  151.4145  137.8723  155.9906 C   0  0  0  0  0  0  0  0  0  0  0  0
  151.8837  139.1884  155.3294 C   0  0  1  0  0  0  0  0  0  0  0  0
  150.9725  139.5023  154.2941 O   0  0  0  0  0  0  0  0  0  0  0  0
  151.8688  140.3664  156.3187 C   0  0  0  0  0  0  0  0  0  0  0  0
  152.6543  140.0229  157.4530 O   0  0  0  0  0  0  0  0  0  0  0  0
  152.7253  140.9198  158.4973 C   0  0  0  0  0  0  0  0  0  0  0  0
  153.2757  140.4488  159.7062 C   0  0  0  0  0  0  0  0  0  0  0  0
  153.3843  141.2950  160.8252 C   0  0  0  0  0  0  0  0  0  0  0  0
  152.9452  142.6291  160.7444 C   0  0  0  0  0  0  0  0  0  0  0  0
  152.3966  143.1234  159.5419 C   0  0  0  0  0  0  0  0  0  0  0  0
  151.9117  144.5628  159.4473 C   0  0  0  0  0  0  0  0  0  0  0  0
  152.5380  145.2057  158.4610 F   0  0  0  0  0  0  0  0  0  0  0  0
  150.6025  144.5690  159.2000 F   0  0  0  0  0  0  0  0  0  0  0  0
  152.1362  145.2242  160.5831 F   0  0  0  0  0  0  0  0  0  0  0  0
  152.2825  142.2650  158.4264 C   0  0  0  0  0  0  0  0  0  0  0  0
  153.5765  137.4264  157.1134 C   0  0  0  0  0  0  0  0  0  0  0  0
  154.1902  137.6112  156.0607 O   0  0  0  0  0  0  0  0  0  0  0  0
  154.2460  137.0804  158.3778 C   0  0  0  0  0  0  0  0  0  0  0  0
  155.7648  136.9636  158.3467 C   0  0  0  0  0  0  0  0  0  0  0  0
  154.7944  137.2942  161.1735 H   0  0  0  0  0  0  0  0  0  0  0  0
  154.6348  135.5735  160.7804 H   0  0  0  0  0  0  0  0  0  0  0  0
  153.3283  136.4189  161.6092 H   0  0  0  0  0  0  0  0  0  0  0  0
  150.4208  137.4026  158.2911 H   0  0  0  0  0  0  0  0  0  0  0  0
  151.3933  137.0609  155.2598 H   0  0  0  0  0  0  0  0  0  0  0  0
  150.3740  137.9716  156.3047 H   0  0  0  0  0  0  0  0  0  0  0  0
  152.8879  139.0723  154.9196 H   0  0  0  0  0  0  0  0  0  0  0  0
  150.1072  139.5775  154.6664 H   0  0  0  0  0  0  0  0  0  0  0  0
  152.2259  141.2800  155.8397 H   0  0  0  0  0  0  0  0  0  0  0  0
  150.8472  140.5449  156.6584 H   0  0  0  0  0  0  0  0  0  0  0  0
  153.6164  139.4260  159.7774 H   0  0  0  0  0  0  0  0  0  0  0  0
  153.8045  140.9193  161.7464 H   0  0  0  0  0  0  0  0  0  0  0  0
  153.0301  143.2680  161.6109 H   0  0  0  0  0  0  0  0  0  0  0  0
  151.8480  142.6612  157.5216 H   0  0  0  0  0  0  0  0  0  0  0  0
  156.0678  136.1901  157.6402 H   0  0  0  0  0  0  0  0  0  0  0  0
  156.1965  136.7116  159.3139 H   0  0  0  0  0  0  0  0  0  0  0  0
  156.2078  137.9073  158.0267 H   0  0  0  0  0  0  0  0  0  0  0  0
  1  2  1  0  0  0  0
  1 25  1  0  0  0  0
  1 26  1  0  0  0  0
  1 27  1  0  0  0  0
  2 23  2  0  0  0  0
  2  3  1  0  0  0  0
  3  4  2  0  0  0  0
  4  5  1  0  0  0  0
  4 28  1  0  0  0  0
  5  6  1  0  0  0  0
  5 21  1  0  0  0  0
  6  7  1  0  0  0  0
  6 29  1  0  0  0  0
  6 30  1  0  0  0  0
  7  8  1  0  0  0  0
  7  9  1  0  0  0  0
  7 31  1  0  0  0  0
  8 32  1  0  0  0  0
  9 10  1  0  0  0  0
  9 33  1  0  0  0  0
  9 34  1  0  0  0  0
 10 11  1  0  0  0  0
 11 20  1  0  0  0  0
 11 12  2  0  0  0  0
 12 13  1  0  0  0  0
 12 35  1  0  0  0  0
 13 14  2  0  0  0  0
 13 36  1  0  0  0  0
 14 15  1  0  0  0  0
 14 37  1  0  0  0  0
 15 16  1  0  0  0  0
 15 20  2  0  0  0  0
 16 17  1  0  0  0  0
 16 18  1  0  0  0  0
 16 19  1  0  0  0  0
 20 38  1  0  0  0  0
 21 22  2  0  0  0  0
 21 23  1  0  0  0  0
 23 24  1  0  0  0  0
 24 39  1  0  0  0  0
 24 40  1  0  0  0  0
 24 41  1  0  0  0  0
M  END
> <s_m_source_file>
AV-unprocessed.smi

> <i_m_source_file_index>
2813

> <i_lp_mmshare_version>
43012

> <i_f3d_flags>
0

> <s_epik_input>
W0NIM11jMW5bY0hdbihjKD1PKWMxW0NIM10pW0NIMl1bQ0BIXShbT0hdKVtDSDJdT2MyW2NIXVtjSF1bY0hdYyhDKEYpKEYpRilbY0hdMg==

> <s_epik_cmdline>
J2VwaWtfcHl0aG9uJywgJy1waCcsICc3LjAnLCAnLXRuJywgJzgnLCAnLW1hJywgJzIwMCcsICctbWV0YWxfYmluZGluZycsICctaW1hZScsICc8aW5maWxlLm1hZT4nLCAnLW9tYWUnLCAnPG91dGZpbGUubWFlPic=

> <r_lp_tautomer_probability>
1

> <r_epik_Ionization_Penalty>
3.72236e-05

> <r_epik_Ionization_Penalty_Charging>
8.38864e-08

> <r_epik_Ionization_Penalty_Neutral>
3.71397e-05

> <r_epik_State_Penalty>
-0

> <r_epik_Charging_Adjusted_Penalty>
8.38864e-08

> <i_epik_Tot_Q>
0

> <i_epik_Tot_abs_Q>
0

> <r_epik_Metal_State_Penalty>
-0

> <b_epik_Metal_Only>
0

> <s_lp_Force_Field>
OPLS_2005

> <r_lp_Energy>
24.625

> <b_lp_Chiralities_Consistent>
1

> <s_lp_Variant>
AV-unprocessed.smi:2813-2

> <Gold.Version>
5.8.1

> <Gold.Id.Protein>
6NUR|6NUR_protein|mol2

> <Gold.PLP.Fitness>
56.8941

> <Gold.PLP.PLP>
-48.2583

> <Gold.PLP.part.hbond>
-5.0000

> <Gold.PLP.part.metal>
0.0000

> <Gold.PLP.part.buried>
-5.6103

> <Gold.PLP.part.nonpolar>
-36.6476

> <Gold.PLP.part.repulsive>
0.0000

> <Gold.PLP.ligand.clash>
0.9730

> <Gold.PLP.ligand.torsion>
0.2196

> <Gold.PLP.Chemscore.Hbond>
3.0000

> <Gold.PLP.Chemscore.CHOScore>
0.0000

> <Gold.PLP.Chemscore.Metal>
0.0000

> <Gold.Chemscore.Hbonds>
donor molecule, donor type, donor heavy atom, donor atom, acceptor molecule, acceptor atom, score
      P1  H  6896  6907       L1     3  0.70
      P1  H  7989  7998       L1     8  1.00
      P1  H  7997  8010       L1    10  1.00
      P1  H 10752 10765       L1    22  0.03

> <Gold.PLP.Chemscore.Internal.Correction>
1.0481

> <Gold.Rescore>
     Score         DG    S(hbond)    S(metal)    S(lipo)     H(rot)  DE(clash)    DE(int)     intcor
     12.19     -17.02       1.99        0.00     101.55       2.73       0.51       4.32       ----

> <Gold.Chemscore.Fitness>
12.1909

> <Gold.Chemscore.DG>
-17.0200

> <Gold.Chemscore.ZeroCoef>
-5.4800

> <Gold.Chemscore.Hbond>
1.9902

> <Gold.Chemscore.Metal>
0.0000

> <Gold.Chemscore.Lipo>
101.5518

> <Gold.Chemscore.Internal_Hbond>
0.0000

> <Gold.Chemscore.DEClash>
0.5102

> <Gold.Chemscore.DEInternal>
4.3189

> <Gold.Chemscore.Rot>
2.7300

> <Gold.Chemscore.Internal.Correction>
   9.000000E+99

> <Gold.Chemscore.Hbonds>
donor molecule, donor type, donor heavy atom, donor atom, acceptor molecule, acceptor atom, score
      P1  H  6896  6907       L1     3  0.06
      P1  H  7989  7998       L1     8  0.53
      P1  H  7997  8010       L1    10  0.13

> <Gold.Chemscore.Hbond.Weighted>
-6.6472

> <Gold.Chemscore.Metal.Weighted>
-0.0000

> <Gold.Chemscore.Lipo.Weighted>
-11.8816

> <Gold.Chemscore.Internal_Hbond.Weighted>
0.0000

> <Gold.Chemscore.DEClash.Weighted>
0.5102

> <Gold.Chemscore.DEInternal.Weighted>
4.3189

> <Gold.Chemscore.Rot.Weighted>
6.9888

> <Gold.Chemscore.Internal.Correction.Weighted>
   9.000000E+99

> <Gold.Protein.RotatedTorsions>
[ 6907 6896 6895 6894 ] final   12.70 input  -60.11 | X-H torsion
[ 7974 7965 7964 7962 ] final    6.41 input  175.53 | X-H torsion
[ 8008 7997 7996 7995 ] final   49.35 input   59.86 | X-H torsion
[ 10167 10162 10161 10158 ] final -111.22 input  -65.29 | X-H torsion
[ 10718 10713 10712 10709 ] final   12.20 input   66.30 | X-H torsion
[ 10763 10752 10751 10750 ] final -109.04 input  -60.55 | X-H torsion
[ 11005 11000 10999 10996 ] final  -74.29 input  -57.11 | X-H torsion

> <Gold.Protein.ActiveResidues>
 VAL166  LYS551  ARG553  GLY616  TRP617  ASP618  TYR619  PRO620  LYS621  CYS622 
 ASP623  PHE694  ASN695  SER759  ASP760  ASP761  ALA762  ILE779  LEU786  VAL792 
 PHE793  MET794  SER795  GLU796  ALA797  LYS798  CYS799  TRP800  GLU811  SER814 

> <Gold.Protein.RotatedAtoms>
  151.7746  135.0777  160.0364 H   0  0  0  0  0  0  0  0  0  0  0  0  # atno 6907 bound_to 6896
  152.3265  133.5906  159.5788 H   0  0  0  0  0  0  0  0  0  0  0  0  # atno 6908 bound_to 6896
  150.7398  133.9848  159.3630 H   0  0  0  0  0  0  0  0  0  0  0  0  # atno 6909 bound_to 6896
  146.2435  140.0237  142.8395 H   0  0  0  0  0  0  0  0  0  0  0  0  # atno 7974 bound_to 7965
  155.4008  140.3438  155.4257 H   0  0  0  0  0  0  0  0  0  0  0  0  # atno 8008 bound_to 7997
  156.1504  140.1569  156.8811 H   0  0  0  0  0  0  0  0  0  0  0  0  # atno 8009 bound_to 7997
  154.5048  140.0805  156.7852 H   0  0  0  0  0  0  0  0  0  0  0  0  # atno 8010 bound_to 7997
  140.1360  143.4320  152.1595 H   0  0  0  0  0  0  0  0  0  0  0  0  # atno 10167 bound_to 10162
  157.0066  130.6100  149.5703 H   0  0  0  0  0  0  0  0  0  0  0  0  # atno 10718 bound_to 10713
  154.8170  135.4616  154.0671 H   0  0  0  0  0  0  0  0  0  0  0  0  # atno 10763 bound_to 10752
  153.2056  135.6875  153.8183 H   0  0  0  0  0  0  0  0  0  0  0  0  # atno 10764 bound_to 10752
  153.7653  135.3278  155.3320 H   0  0  0  0  0  0  0  0  0  0  0  0  # atno 10765 bound_to 10752
  141.1633  133.6906  156.7342 H   0  0  0  0  0  0  0  0  0  0  0  0  # atno 11005 bound_to 11000
  145.1217  140.9466  143.4596 LP  0  0  0  0  0  0  0  0  0  0  0  0  # atno 17320 bound_to 7965
  145.0474  139.3209  143.5946 LP  0  0  0  0  0  0  0  0  0  0  0  0  # atno 17321 bound_to 7965
  139.5496  144.7326  151.4477 LP  0  0  0  0  0  0  0  0  0  0  0  0  # atno 17342 bound_to 10162
  140.6789  143.8127  150.7095 LP  0  0  0  0  0  0  0  0  0  0  0  0  # atno 17343 bound_to 10162
  156.0151  130.5245  150.8110 LP  0  0  0  0  0  0  0  0  0  0  0  0  # atno 17370 bound_to 10713
  157.5351  131.0938  150.9903 LP  0  0  0  0  0  0  0  0  0  0  0  0  # atno 17371 bound_to 10713
  140.2722  134.8383  157.3858 LP  0  0  0  0  0  0  0  0  0  0  0  0  # atno 17394 bound_to 11000
  140.1510  134.4849  155.7961 LP  0  0  0  0  0  0  0  0  0  0  0  0  # atno 17395 bound_to 11000

$$$$
