AV-unprocessed.smi:1278|AV-procd|sdf|5353|dock7
  -GOLD-   22720 4493D 1   1.00000     0.00000
 Structure written by MMmdl.
 38 39  0  0  0  0  0  0  0  0  3 V2000
  148.0204  133.0671  152.5668 C   0  0  0  0  0  0  0  0  0  0  0  0
  146.5097  133.1708  152.8422 C   0  0  2  0  0  0  0  0  0  0  0  0
  145.6542  132.8831  151.5947 C   0  0  0  0  0  0  0  0  0  0  0  0
  145.7039  134.0547  150.6039 C   0  0  0  0  0  0  0  0  0  0  0  0
  145.3306  135.3766  151.2929 C   0  0  0  0  0  0  0  0  0  0  0  0
  146.2018  135.6346  152.4681 N   0  3  1  0  0  0  0  0  0  0  0  0
  145.9565  136.9716  153.0630 C   0  0  0  0  0  0  0  0  0  0  0  0
  146.1687  138.1108  152.0484 C   0  0  0  0  0  0  0  0  0  0  0  0
  147.3791  138.8666  152.3459 N   0  0  0  0  0  0  0  0  0  0  0  0
  147.7116  139.3688  153.5436 C   0  0  0  0  0  0  0  0  0  0  0  0
  146.9626  139.2012  154.5090 O   0  0  0  0  0  0  0  0  0  0  0  0
  148.8870  140.0361  153.5459 N   0  5  0  0  0  0  0  0  0  0  0  0
  149.3568  140.5645  154.6878 C   0  0  0  0  0  0  0  0  0  0  0  0
  150.6529  140.5498  155.0186 N   0  0  0  0  0  0  0  0  0  0  0  0
  150.9196  141.1578  156.2468 C   0  0  0  0  0  0  0  0  0  0  0  0
  149.8008  141.6548  156.8612 C   0  0  0  0  0  0  0  0  0  0  0  0
  148.3710  141.3721  155.9098 S   0  0  0  0  0  0  0  0  0  0  0  0
  146.1213  134.5294  153.4622 C   0  0  0  0  0  0  0  0  0  0  0  0
  148.3589  133.8229  151.8582 H   0  0  0  0  0  0  0  0  0  0  0  0
  148.2770  132.0898  152.1571 H   0  0  0  0  0  0  0  0  0  0  0  0
  148.5946  133.1974  153.4847 H   0  0  0  0  0  0  0  0  0  0  0  0
  146.2790  132.3987  153.5775 H   0  0  0  0  0  0  0  0  0  0  0  0
  145.9780  131.9613  151.1098 H   0  0  0  0  0  0  0  0  0  0  0  0
  144.6196  132.7207  151.8998 H   0  0  0  0  0  0  0  0  0  0  0  0
  146.7007  134.1345  150.1695 H   0  0  0  0  0  0  0  0  0  0  0  0
  145.0239  133.8655  149.7729 H   0  0  0  0  0  0  0  0  0  0  0  0
  145.4284  136.1906  150.5735 H   0  0  0  0  0  0  0  0  0  0  0  0
  144.2867  135.3573  151.6103 H   0  0  0  0  0  0  0  0  0  0  0  0
  144.9257  137.0272  153.4161 H   0  0  0  0  0  0  0  0  0  0  0  0
  146.5883  137.1001  153.9433 H   0  0  0  0  0  0  0  0  0  0  0  0
  146.2241  137.7372  151.0258 H   0  0  0  0  0  0  0  0  0  0  0  0
  145.3243  138.7996  152.0812 H   0  0  0  0  0  0  0  0  0  0  0  0
  148.0233  139.0219  151.5840 H   0  0  0  0  0  0  0  0  0  0  0  0
  151.9371  141.1925  156.6067 H   0  0  0  0  0  0  0  0  0  0  0  0
  149.7300  142.1678  157.8082 H   0  0  0  0  0  0  0  0  0  0  0  0
  145.1033  134.4773  153.8516 H   0  0  0  0  0  0  0  0  0  0  0  0
  146.7657  134.7311  154.3170 H   0  0  0  0  0  0  0  0  0  0  0  0
  147.1492  135.6495  152.1186 H   0  0  0  0  0  0  0  0  0  0  0  0
  1  2  1  0  0  0  0
  1 19  1  0  0  0  0
  1 20  1  0  0  0  0
  1 21  1  0  0  0  0
  2 18  1  0  0  0  0
  2  3  1  0  0  0  0
  2 22  1  0  0  0  0
  3  4  1  0  0  0  0
  3 23  1  0  0  0  0
  3 24  1  0  0  0  0
  4  5  1  0  0  0  0
  4 25  1  0  0  0  0
  4 26  1  0  0  0  0
  5  6  1  0  0  0  0
  5 27  1  0  0  0  0
  5 28  1  0  0  0  0
  6  7  1  0  0  0  0
  6 18  1  0  0  0  0
  6 38  1  0  0  0  0
  7  8  1  0  0  0  0
  7 29  1  0  0  0  0
  7 30  1  0  0  0  0
  8  9  1  0  0  0  0
  8 31  1  0  0  0  0
  8 32  1  0  0  0  0
  9 10  1  0  0  0  0
  9 33  1  0  0  0  0
 10 11  2  0  0  0  0
 10 12  1  0  0  0  0
 12 13  1  0  0  0  0
 13 17  1  0  0  0  0
 13 14  2  0  0  0  0
 14 15  1  0  0  0  0
 15 16  2  0  0  0  0
 15 34  1  0  0  0  0
 16 17  1  0  0  0  0
 16 35  1  0  0  0  0
 18 36  1  0  0  0  0
 18 37  1  0  0  0  0
M  CHG  1   6   1
M  CHG  1  12  -1
M  END
> <s_m_source_file>
AV-unprocessed.smi

> <i_m_source_file_index>
1278

> <i_lp_mmshare_version>
43012

> <i_f3d_flags>
0

> <s_epik_input>
W0NIM11bQ0BASF0xW0NIMl1bQ0gyXVtDSDJdTihbQ0gyXTEpW0NIMl1bQ0gyXVtOSF1DKD1PKVtOSF1jMm5bY0hdW2NIXXMy

> <s_epik_cmdline>
J2VwaWtfcHl0aG9uJywgJy1waCcsICc3LjAnLCAnLXRuJywgJzgnLCAnLW1hJywgJzIwMCcsICctbWV0YWxfYmluZGluZycsICctaW1hZScsICc8aW5maWxlLm1hZT4nLCAnLW9tYWUnLCAnPG91dGZpbGUubWFlPic=

> <r_lp_tautomer_probability>
0.999

> <r_epik_Ionization_Penalty>
6.22019

> <r_epik_Ionization_Penalty_Charging>
5.38911

> <r_epik_Ionization_Penalty_Neutral>
0.831074

> <r_epik_State_Penalty>
5.38904

> <r_epik_Charging_Adjusted_Penalty>
10.7782

> <i_epik_Tot_Q>
0

> <i_epik_Tot_abs_Q>
2

> <r_epik_Metal_State_Penalty>
1.41502

> <b_epik_Metal_Only>
1

> <s_lp_Force_Field>
OPLS_2005

> <r_lp_Energy>
8.40837

> <b_lp_Chiralities_Consistent>
1

> <s_lp_Variant>
AV-unprocessed.smi:1278-7

> <Gold.Version>
5.8.1

> <Gold.Id.Protein>
6NUR|6NUR_protein|mol2

> <Gold.PLP.Fitness>
37.8855

> <Gold.PLP.PLP>
-27.7835

> <Gold.PLP.part.hbond>
-3.9904

> <Gold.PLP.part.metal>
0.0000

> <Gold.PLP.part.buried>
-3.2570

> <Gold.PLP.part.nonpolar>
-25.2333

> <Gold.PLP.part.repulsive>
4.6519

> <Gold.PLP.ligand.clash>
0.0000

> <Gold.PLP.ligand.torsion>
0.7014

> <Gold.PLP.Chemscore.Hbond>
3.8160

> <Gold.PLP.Chemscore.CHOScore>
0.0000

> <Gold.PLP.Chemscore.Metal>
0.0000

> <Gold.Chemscore.Hbonds>
donor molecule, donor type, donor heavy atom, donor atom, acceptor molecule, acceptor atom, score
      L1  H     6    38       P1  7948  2.00
      L1  H     9    33       P1  7957  0.85
      P1  H  7989  7998       L1    14  0.99

> <Gold.PLP.Chemscore.Internal.Correction>
0.0568

> <Gold.Rescore>
     Score         DG    S(hbond)    S(metal)    S(lipo)     H(rot)  DE(clash)    DE(int)     intcor
     12.23     -17.28       2.69        0.00      58.46       1.57       1.59       3.47       ----

> <Gold.Chemscore.Fitness>
12.2268

> <Gold.Chemscore.DG>
-17.2818

> <Gold.Chemscore.ZeroCoef>
-5.4800

> <Gold.Chemscore.Hbond>
2.6871

> <Gold.Chemscore.Metal>
0.0000

> <Gold.Chemscore.Lipo>
58.4619

> <Gold.Chemscore.Internal_Hbond>
0.0000

> <Gold.Chemscore.DEClash>
1.5871

> <Gold.Chemscore.DEInternal>
3.4678

> <Gold.Chemscore.Rot>
1.5676

> <Gold.Chemscore.Internal.Correction>
   9.000000E+99

> <Gold.Chemscore.Hbonds>
donor molecule, donor type, donor heavy atom, donor atom, acceptor molecule, acceptor atom, score
      L1  H     6    38       P1  7948  1.00
      L1  H     9    33       P1  7957  0.71
      P1  H  7989  7998       L1    14  0.61

> <Gold.Chemscore.Hbond.Weighted>
-8.9748

> <Gold.Chemscore.Metal.Weighted>
-0.0000

> <Gold.Chemscore.Lipo.Weighted>
-6.8400

> <Gold.Chemscore.Internal_Hbond.Weighted>
0.0000

> <Gold.Chemscore.DEClash.Weighted>
1.5871

> <Gold.Chemscore.DEInternal.Weighted>
3.4678

> <Gold.Chemscore.Rot.Weighted>
4.0130

> <Gold.Chemscore.Internal.Correction.Weighted>
   9.000000E+99

> <Gold.Protein.RotatedTorsions>
[ 6907 6896 6895 6894 ] final   38.07 input  -60.11 | X-H torsion
[ 7974 7965 7964 7962 ] final   46.38 input  175.53 | X-H torsion
[ 8008 7997 7996 7995 ] final  150.44 input   59.86 | X-H torsion
[ 10167 10162 10161 10158 ] final  172.28 input  -65.29 | X-H torsion
[ 10718 10713 10712 10709 ] final  -54.40 input   66.30 | X-H torsion
[ 10763 10752 10751 10750 ] final -153.33 input  -60.55 | X-H torsion
[ 11005 11000 10999 10996 ] final    2.51 input  -57.11 | X-H torsion

> <Gold.Protein.ActiveResidues>
 VAL166  LYS551  ARG553  GLY616  TRP617  ASP618  TYR619  PRO620  LYS621  CYS622 
 ASP623  PHE694  ASN695  SER759  ASP760  ASP761  ALA762  ILE779  LEU786  VAL792 
 PHE793  MET794  SER795  GLU796  ALA797  LYS798  CYS799  TRP800  GLU811  SER814 

> <Gold.Protein.RotatedAtoms>
  152.1516  134.8984  160.0547 H   0  0  0  0  0  0  0  0  0  0  0  0  # atno 6907 bound_to 6896
  152.0013  133.3822  159.4191 H   0  0  0  0  0  0  0  0  0  0  0  0  # atno 6908 bound_to 6896
  150.6876  134.3752  159.5053 H   0  0  0  0  0  0  0  0  0  0  0  0  # atno 6909 bound_to 6896
  146.0395  139.4862  142.9787 H   0  0  0  0  0  0  0  0  0  0  0  0  # atno 7974 bound_to 7965
  156.2716  140.2075  156.6017 H   0  0  0  0  0  0  0  0  0  0  0  0  # atno 8008 bound_to 7997
  154.6901  140.0531  157.0378 H   0  0  0  0  0  0  0  0  0  0  0  0  # atno 8009 bound_to 7997
  155.0878  140.3193  155.4585 H   0  0  0  0  0  0  0  0  0  0  0  0  # atno 8010 bound_to 7997
  139.5072  144.3391  152.0035 H   0  0  0  0  0  0  0  0  0  0  0  0  # atno 10167 bound_to 10162
  156.1454  130.4153  150.0032 H   0  0  0  0  0  0  0  0  0  0  0  0  # atno 10718 bound_to 10713
  154.7935  135.3215  154.7722 H   0  0  0  0  0  0  0  0  0  0  0  0  # atno 10763 bound_to 10752
  153.8405  135.6871  153.4808 H   0  0  0  0  0  0  0  0  0  0  0  0  # atno 10764 bound_to 10752
  153.1615  135.4659  154.9720 H   0  0  0  0  0  0  0  0  0  0  0  0  # atno 10765 bound_to 10752
  140.6035  133.9814  155.8143 H   0  0  0  0  0  0  0  0  0  0  0  0  # atno 11005 bound_to 11000
  145.6908  141.0165  143.1556 LP  0  0  0  0  0  0  0  0  0  0  0  0  # atno 17320 bound_to 7965
  144.7067  139.8530  143.7427 LP  0  0  0  0  0  0  0  0  0  0  0  0  # atno 17321 bound_to 7965
  140.2830  144.3839  150.6113 LP  0  0  0  0  0  0  0  0  0  0  0  0  # atno 17342 bound_to 10162
  140.6004  143.2167  151.7083 LP  0  0  0  0  0  0  0  0  0  0  0  0  # atno 17343 bound_to 10162
  156.7906  130.9254  151.3646 LP  0  0  0  0  0  0  0  0  0  0  0  0  # atno 17370 bound_to 10713
  157.6612  130.8968  149.9834 LP  0  0  0  0  0  0  0  0  0  0  0  0  # atno 17371 bound_to 10713
  141.0856  133.9995  157.3318 LP  0  0  0  0  0  0  0  0  0  0  0  0  # atno 17394 bound_to 11000
  139.9222  135.0201  156.8106 LP  0  0  0  0  0  0  0  0  0  0  0  0  # atno 17395 bound_to 11000

$$$$
