AV-unprocessed.smi:1454|AV-procd|sdf|5914|dock7
  -GOLD-   22720 6 03D 1   1.00000     0.00000
 Structure written by MMmdl.
 45 46  0  0  0  0  0  0  0  0  2 V2000
  153.1199  138.6724  157.5931 O   0  0  0  0  0  0  0  0  0  0  0  0
  151.8907  138.6649  157.5353 C   0  0  0  0  0  0  0  0  0  0  0  0
  151.1242  137.3878  157.8943 C   0  0  0  0  0  0  0  0  0  0  0  0
  150.1515  137.5533  159.0818 C   0  0  0  0  0  0  0  0  0  0  0  0
  149.3812  136.3422  159.3466 N   0  0  0  0  0  0  0  0  0  0  0  0
  148.5154  136.1586  160.3538 C   0  0  0  0  0  0  0  0  0  0  0  0
  148.2548  137.0285  161.1846 O   0  0  0  0  0  0  0  0  0  0  0  0
  147.8454  134.7746  160.4180 C   0  0  0  0  0  0  0  0  0  0  0  0
  146.3045  134.8432  160.3840 C   0  0  0  0  0  0  0  0  0  0  0  0
  145.8127  134.6841  161.8331 C   0  0  0  0  0  0  0  0  0  0  0  0
  147.0611  134.5127  162.7043 C   0  0  0  0  0  0  0  0  0  0  0  0
  148.1566  134.0608  161.7410 C   0  0  0  0  0  0  0  0  0  0  0  0
  151.1586  139.7430  157.2099 N   0  0  0  0  0  0  0  0  0  0  0  0
  151.6755  141.0990  157.0301 C   0  0  0  0  0  0  0  0  0  0  0  0
  152.3495  141.6730  158.2940 C   0  0  0  0  0  0  0  0  0  0  0  0
  151.7575  142.9671  158.8361 C   0  0  0  0  0  0  0  0  0  0  0  0
  152.4405  143.6902  159.8398 C   0  0  0  0  0  0  0  0  0  0  0  0
  151.8896  144.8918  160.3316 C   0  0  0  0  0  0  0  0  0  0  0  0
  150.6654  145.3502  159.8057 C   0  0  0  0  0  0  0  0  0  0  0  0
  150.0478  144.6456  158.8333 N   0  3  0  0  0  0  0  0  0  0  0  0
  150.5476  143.4954  158.3314 C   0  0  0  0  0  0  0  0  0  0  0  0
  150.5489  137.1152  157.0090 H   0  0  0  0  0  0  0  0  0  0  0  0
  151.8108  136.5577  158.0684 H   0  0  0  0  0  0  0  0  0  0  0  0
  150.6676  137.8807  159.9864 H   0  0  0  0  0  0  0  0  0  0  0  0
  149.4362  138.3417  158.8466 H   0  0  0  0  0  0  0  0  0  0  0  0
  149.5240  135.5720  158.7088 H   0  0  0  0  0  0  0  0  0  0  0  0
  148.2084  134.1827  159.5758 H   0  0  0  0  0  0  0  0  0  0  0  0
  145.9296  135.7647  159.9360 H   0  0  0  0  0  0  0  0  0  0  0  0
  145.9152  134.0264  159.7748 H   0  0  0  0  0  0  0  0  0  0  0  0
  145.2188  135.5384  162.1569 H   0  0  0  0  0  0  0  0  0  0  0  0
  145.1769  133.8014  161.9104 H   0  0  0  0  0  0  0  0  0  0  0  0
  147.3419  135.4692  163.1441 H   0  0  0  0  0  0  0  0  0  0  0  0
  146.9064  133.8085  163.5222 H   0  0  0  0  0  0  0  0  0  0  0  0
  148.0962  132.9817  161.5942 H   0  0  0  0  0  0  0  0  0  0  0  0
  149.1541  134.2785  162.1260 H   0  0  0  0  0  0  0  0  0  0  0  0
  150.1551  139.6346  157.1764 H   0  0  0  0  0  0  0  0  0  0  0  0
  152.4168  141.0515  156.2322 H   0  0  0  0  0  0  0  0  0  0  0  0
  150.9011  141.7744  156.6640 H   0  0  0  0  0  0  0  0  0  0  0  0
  152.3283  140.9170  159.0804 H   0  0  0  0  0  0  0  0  0  0  0  0
  153.4032  141.8573  158.0822 H   0  0  0  0  0  0  0  0  0  0  0  0
  153.3799  143.3305  160.2325 H   0  0  0  0  0  0  0  0  0  0  0  0
  152.3971  145.4516  161.1031 H   0  0  0  0  0  0  0  0  0  0  0  0
  150.1693  146.2548  160.1257 H   0  0  0  0  0  0  0  0  0  0  0  0
  149.9587  143.0358  157.5517 H   0  0  0  0  0  0  0  0  0  0  0  0
  149.1658  144.9974  158.4602 H   0  0  0  0  0  0  0  0  0  0  0  0
  1  2  2  0  0  0  0
  2  3  1  0  0  0  0
  2 13  1  0  0  0  0
  3  4  1  0  0  0  0
  3 22  1  0  0  0  0
  3 23  1  0  0  0  0
  4  5  1  0  0  0  0
  4 24  1  0  0  0  0
  4 25  1  0  0  0  0
  5  6  1  0  0  0  0
  5 26  1  0  0  0  0
  6  7  2  0  0  0  0
  6  8  1  0  0  0  0
  8 12  1  0  0  0  0
  8  9  1  0  0  0  0
  8 27  1  0  0  0  0
  9 10  1  0  0  0  0
  9 28  1  0  0  0  0
  9 29  1  0  0  0  0
 10 11  1  0  0  0  0
 10 30  1  0  0  0  0
 10 31  1  0  0  0  0
 11 12  1  0  0  0  0
 11 32  1  0  0  0  0
 11 33  1  0  0  0  0
 12 34  1  0  0  0  0
 12 35  1  0  0  0  0
 13 14  1  0  0  0  0
 13 36  1  0  0  0  0
 14 15  1  0  0  0  0
 14 37  1  0  0  0  0
 14 38  1  0  0  0  0
 15 16  1  0  0  0  0
 15 39  1  0  0  0  0
 15 40  1  0  0  0  0
 16 21  1  0  0  0  0
 16 17  2  0  0  0  0
 17 18  1  0  0  0  0
 17 41  1  0  0  0  0
 18 19  2  0  0  0  0
 18 42  1  0  0  0  0
 19 20  1  0  0  0  0
 19 43  1  0  0  0  0
 20 21  2  0  0  0  0
 20 45  1  0  0  0  0
 21 44  1  0  0  0  0
M  CHG  1  20   1
M  END
> <s_m_source_file>
AV-unprocessed.smi

> <i_m_source_file_index>
1454

> <i_lp_mmshare_version>
43012

> <i_f3d_flags>
0

> <s_epik_input>
W2NIXTFuW2NIXVtjSF1bY0hdYzFbQ0gyXVtDSDJdW05IXUMoPU8pW0NIMl1bQ0gyXVtOSF1DKD1PKVtDSF0yW0NIMl1bQ0gyXVtDSDJdW0NIMl0y

> <s_epik_cmdline>
J2VwaWtfcHl0aG9uJywgJy1waCcsICc3LjAnLCAnLXRuJywgJzgnLCAnLW1hJywgJzIwMCcsICctbWV0YWxfYmluZGluZycsICctaW1hZScsICc8aW5maWxlLm1hZT4nLCAnLW9tYWUnLCAnPG91dGZpbGUubWFlPic=

> <r_epik_Ionization_Penalty>
2.25878

> <r_epik_Ionization_Penalty_Charging>
2.25878

> <r_epik_Ionization_Penalty_Neutral>
5.05393e-08

> <r_epik_State_Penalty>
2.40647

> <r_epik_Charging_Adjusted_Penalty>
4.66526

> <i_epik_Tot_Q>
1

> <i_epik_Tot_abs_Q>
1

> <r_epik_Metal_State_Penalty>
2.41947

> <b_epik_Metal_Only>
0

> <s_lp_Force_Field>
OPLS_2005

> <r_lp_Energy>
23.282

> <b_lp_Chiralities_Consistent>
1

> <s_lp_Variant>
AV-unprocessed.smi:1454-2

> <Gold.Version>
5.8.1

> <Gold.Id.Protein>
6NUR|6NUR_protein|mol2

> <Gold.PLP.Fitness>
49.2476

> <Gold.PLP.PLP>
-37.0487

> <Gold.PLP.part.hbond>
-3.5051

> <Gold.PLP.part.metal>
0.0000

> <Gold.PLP.part.buried>
-5.0780

> <Gold.PLP.part.nonpolar>
-27.6048

> <Gold.PLP.part.repulsive>
0.3965

> <Gold.PLP.ligand.clash>
0.0000

> <Gold.PLP.ligand.torsion>
0.4904

> <Gold.PLP.Chemscore.Hbond>
4.3458

> <Gold.PLP.Chemscore.CHOScore>
0.0000

> <Gold.PLP.Chemscore.Metal>
0.0000

> <Gold.Chemscore.Hbonds>
donor molecule, donor type, donor heavy atom, donor atom, acceptor molecule, acceptor atom, score
      L1  H    20    45       P1  8029  2.00
      P1  H  6931  6943       L1     7  1.00
      P1  H  6934  6947       L1     7  0.25
      P1  H  7997  8009       L1     1  0.93

> <Gold.PLP.Chemscore.Internal.Correction>
0.1423

> <Gold.Rescore>
     Score         DG    S(hbond)    S(metal)    S(lipo)     H(rot)  DE(clash)    DE(int)     intcor
     22.70     -23.39       3.42        0.00     104.50       2.23       0.13       0.56       ----

> <Gold.Chemscore.Fitness>
22.6979

> <Gold.Chemscore.DG>
-23.3934

> <Gold.Chemscore.ZeroCoef>
-5.4800

> <Gold.Chemscore.Hbond>
3.4155

> <Gold.Chemscore.Metal>
0.0000

> <Gold.Chemscore.Lipo>
104.5038

> <Gold.Chemscore.Internal_Hbond>
0.0000

> <Gold.Chemscore.DEClash>
0.1315

> <Gold.Chemscore.DEInternal>
0.5640

> <Gold.Chemscore.Rot>
2.2348

> <Gold.Chemscore.Internal.Correction>
   9.000000E+99

> <Gold.Chemscore.Hbonds>
donor molecule, donor type, donor heavy atom, donor atom, acceptor molecule, acceptor atom, score
      L1  H    20    45       P1  8029  0.76
      P1  H  6931  6943       L1     7  0.98
      P1  H  6934  6947       L1     7  0.25
      P1  H  7997  8009       L1     1  0.89

> <Gold.Chemscore.Hbond.Weighted>
-11.4076

> <Gold.Chemscore.Metal.Weighted>
-0.0000

> <Gold.Chemscore.Lipo.Weighted>
-12.2269

> <Gold.Chemscore.Internal_Hbond.Weighted>
0.0000

> <Gold.Chemscore.DEClash.Weighted>
0.1315

> <Gold.Chemscore.DEInternal.Weighted>
0.5640

> <Gold.Chemscore.Rot.Weighted>
5.7212

> <Gold.Chemscore.Internal.Correction.Weighted>
   9.000000E+99

> <Gold.Protein.RotatedTorsions>
[ 6907 6896 6895 6894 ] final -164.89 input  -60.11 | X-H torsion
[ 7974 7965 7964 7962 ] final  -85.00 input  175.53 | X-H torsion
[ 8008 7997 7996 7995 ] final  167.03 input   59.86 | X-H torsion
[ 10167 10162 10161 10158 ] final -152.74 input  -65.29 | X-H torsion
[ 10718 10713 10712 10709 ] final  -42.87 input   66.30 | X-H torsion
[ 10763 10752 10751 10750 ] final -108.91 input  -60.55 | X-H torsion
[ 11005 11000 10999 10996 ] final -169.53 input  -57.11 | X-H torsion

> <Gold.Protein.ActiveResidues>
 VAL166  LYS551  ARG553  GLY616  TRP617  ASP618  TYR619  PRO620  LYS621  CYS622 
 ASP623  PHE694  ASN695  SER759  ASP760  ASP761  ALA762  ILE779  LEU786  VAL792 
 PHE793  MET794  SER795  GLU796  ALA797  LYS798  CYS799  TRP800  GLU811  SER814 

> <Gold.Protein.RotatedAtoms>
  151.4190  133.3704  159.2753 H   0  0  0  0  0  0  0  0  0  0  0  0  # atno 6907 bound_to 6896
  150.9307  134.8723  159.7560 H   0  0  0  0  0  0  0  0  0  0  0  0  # atno 6908 bound_to 6896
  152.5026  134.4135  159.9509 H   0  0  0  0  0  0  0  0  0  0  0  0  # atno 6909 bound_to 6896
  145.4991  140.9548  143.1769 H   0  0  0  0  0  0  0  0  0  0  0  0  # atno 7974 bound_to 7965
  156.1668  140.1627  156.8517 H   0  0  0  0  0  0  0  0  0  0  0  0  # atno 8008 bound_to 7997
  154.5216  140.0777  156.8217 H   0  0  0  0  0  0  0  0  0  0  0  0  # atno 8009 bound_to 7997
  155.3594  140.3394  155.4243 H   0  0  0  0  0  0  0  0  0  0  0  0  # atno 8010 bound_to 7997
  139.7155  143.9039  152.2484 H   0  0  0  0  0  0  0  0  0  0  0  0  # atno 10167 bound_to 10162
  156.2550  130.4191  149.8607 H   0  0  0  0  0  0  0  0  0  0  0  0  # atno 10718 bound_to 10713
  154.8163  135.4620  154.0652 H   0  0  0  0  0  0  0  0  0  0  0  0  # atno 10763 bound_to 10752
  153.2042  135.6873  153.8200 H   0  0  0  0  0  0  0  0  0  0  0  0  # atno 10764 bound_to 10752
  153.7674  135.3275  155.3323 H   0  0  0  0  0  0  0  0  0  0  0  0  # atno 10765 bound_to 10752
  140.5297  134.5628  157.5071 H   0  0  0  0  0  0  0  0  0  0  0  0  # atno 11005 bound_to 11000
  144.7790  139.6567  143.7162 LP  0  0  0  0  0  0  0  0  0  0  0  0  # atno 17320 bound_to 7965
  146.2237  139.5682  142.9601 LP  0  0  0  0  0  0  0  0  0  0  0  0  # atno 17321 bound_to 7965
  139.8921  144.6960  150.8759 LP  0  0  0  0  0  0  0  0  0  0  0  0  # atno 17342 bound_to 10162
  140.7743  143.3578  151.1886 LP  0  0  0  0  0  0  0  0  0  0  0  0  # atno 17343 bound_to 10162
  156.6142  130.8599  151.3461 LP  0  0  0  0  0  0  0  0  0  0  0  0  # atno 17370 bound_to 10713
  157.7229  130.9582  150.1512 LP  0  0  0  0  0  0  0  0  0  0  0  0  # atno 17371 bound_to 10713
  139.9561  134.7533  156.0339 LP  0  0  0  0  0  0  0  0  0  0  0  0  # atno 17394 bound_to 11000
  141.1288  133.6592  156.3408 LP  0  0  0  0  0  0  0  0  0  0  0  0  # atno 17395 bound_to 11000

$$$$
