AV-unprocessed.smi:3031|AV-procd|sdf|11553|dock6
  -GOLD-   2272016513D 1   1.00000     0.00000
 Structure written by MMmdl.
 46 47  0  0  0  0  0  0  0  0  1 V2000
  151.9001  145.2961  160.3608 C   0  0  0  0  0  0  0  0  0  0  0  0
  151.7088  144.2152  159.3365 C   0  0  0  0  0  0  0  0  0  0  0  0
  150.9886  144.2927  158.1108 C   0  0  0  0  0  0  0  0  0  0  0  0
  151.0112  143.1599  157.4280 N   0  0  0  0  0  0  0  0  0  0  0  0
  151.7468  142.3223  158.1891 N   0  0  0  0  0  0  0  0  0  0  0  0
  151.9904  140.9628  157.7400 C   0  0  0  0  0  0  0  0  0  0  0  0
  151.2558  140.6338  156.4252 C   0  0  2  0  0  0  0  0  0  0  0  0
  149.7352  140.5683  156.6563 C   0  0  0  0  0  0  0  0  0  0  0  0
  151.7745  139.3835  155.8591 N   0  0  0  0  0  0  0  0  0  0  0  0
  150.8650  138.6736  154.9600 C   0  0  0  0  0  0  0  0  0  0  0  0
  150.9037  137.1559  155.2070 C   0  0  2  0  0  0  0  0  0  0  0  0
  151.6761  136.5426  154.1963 O   0  0  0  0  0  0  0  0  0  0  0  0
  149.5509  136.4105  155.3186 C   0  0  0  0  0  0  0  0  0  0  0  0
  149.6028  134.9662  155.5782 N   0  0  0  0  0  0  0  0  0  0  0  0
  150.6964  134.5897  156.4755 C   0  0  0  0  0  0  0  0  0  0  0  0
  150.7515  133.0708  156.7132 C   0  0  0  0  0  0  0  0  0  0  0  0
  150.8797  132.3966  155.4665 O   0  0  0  0  0  0  0  0  0  0  0  0
  149.8185  132.7017  154.5685 C   0  0  0  0  0  0  0  0  0  0  0  0
  149.7653  134.2212  154.3324 C   0  0  0  0  0  0  0  0  0  0  0  0
  152.1772  142.9318  159.3484 C   0  0  0  0  0  0  0  0  0  0  0  0
  152.5001  146.1176  159.9692 H   0  0  0  0  0  0  0  0  0  0  0  0
  152.4056  144.9260  161.2532 H   0  0  0  0  0  0  0  0  0  0  0  0
  150.9478  145.7174  160.6830 H   0  0  0  0  0  0  0  0  0  0  0  0
  150.4531  145.1355  157.6991 H   0  0  0  0  0  0  0  0  0  0  0  0
  153.0658  140.8191  157.6244 H   0  0  0  0  0  0  0  0  0  0  0  0
  151.6700  140.2846  158.5322 H   0  0  0  0  0  0  0  0  0  0  0  0
  151.4505  141.4469  155.7245 H   0  0  0  0  0  0  0  0  0  0  0  0
  149.3755  141.4819  157.1304 H   0  0  0  0  0  0  0  0  0  0  0  0
  149.4677  139.7335  157.3049 H   0  0  0  0  0  0  0  0  0  0  0  0
  149.1831  140.4607  155.7231 H   0  0  0  0  0  0  0  0  0  0  0  0
  152.6458  139.5725  155.3737 H   0  0  0  0  0  0  0  0  0  0  0  0
  149.8450  139.0424  155.0462 H   0  0  0  0  0  0  0  0  0  0  0  0
  151.1620  138.8644  153.9279 H   0  0  0  0  0  0  0  0  0  0  0  0
  151.4423  136.9906  156.1410 H   0  0  0  0  0  0  0  0  0  0  0  0
  151.2658  136.7185  153.3632 H   0  0  0  0  0  0  0  0  0  0  0  0
  149.0107  136.8940  156.1343 H   0  0  0  0  0  0  0  0  0  0  0  0
  148.9456  136.6036  154.4318 H   0  0  0  0  0  0  0  0  0  0  0  0
  151.6486  134.9197  156.0574 H   0  0  0  0  0  0  0  0  0  0  0  0
  150.6004  135.0802  157.4386 H   0  0  0  0  0  0  0  0  0  0  0  0
  151.6029  132.8170  157.3446 H   0  0  0  0  0  0  0  0  0  0  0  0
  149.8544  132.7279  157.2309 H   0  0  0  0  0  0  0  0  0  0  0  0
  149.9854  132.1769  153.6277 H   0  0  0  0  0  0  0  0  0  0  0  0
  148.8726  132.3404  154.9749 H   0  0  0  0  0  0  0  0  0  0  0  0
  148.9391  134.4456  153.6567 H   0  0  0  0  0  0  0  0  0  0  0  0
  150.6777  134.5404  153.8258 H   0  0  0  0  0  0  0  0  0  0  0  0
  152.7790  142.4082  160.0766 H   0  0  0  0  0  0  0  0  0  0  0  0
  1  2  1  0  0  0  0
  1 21  1  0  0  0  0
  1 22  1  0  0  0  0
  1 23  1  0  0  0  0
  2 20  2  0  0  0  0
  2  3  1  0  0  0  0
  3  4  2  0  0  0  0
  3 24  1  0  0  0  0
  4  5  1  0  0  0  0
  5  6  1  0  0  0  0
  5 20  1  0  0  0  0
  6  7  1  0  0  0  0
  6 25  1  0  0  0  0
  6 26  1  0  0  0  0
  7  8  1  0  0  0  0
  7  9  1  0  0  0  0
  7 27  1  0  0  0  0
  8 28  1  0  0  0  0
  8 29  1  0  0  0  0
  8 30  1  0  0  0  0
  9 10  1  0  0  0  0
  9 31  1  0  0  0  0
 10 11  1  0  0  0  0
 10 32  1  0  0  0  0
 10 33  1  0  0  0  0
 11 12  1  0  0  0  0
 11 13  1  0  0  0  0
 11 34  1  0  0  0  0
 12 35  1  0  0  0  0
 13 14  1  0  0  0  0
 13 36  1  0  0  0  0
 13 37  1  0  0  0  0
 14 19  1  0  0  0  0
 14 15  1  0  0  0  0
 15 16  1  0  0  0  0
 15 38  1  0  0  0  0
 15 39  1  0  0  0  0
 16 17  1  0  0  0  0
 16 40  1  0  0  0  0
 16 41  1  0  0  0  0
 17 18  1  0  0  0  0
 18 19  1  0  0  0  0
 18 42  1  0  0  0  0
 18 43  1  0  0  0  0
 19 44  1  0  0  0  0
 19 45  1  0  0  0  0
 20 46  1  0  0  0  0
M  END
> <s_m_source_file>
AV-unprocessed.smi

> <i_m_source_file_index>
3031

> <i_lp_mmshare_version>
43012

> <i_f3d_flags>
0

> <s_epik_input>
W0NIM11jMVtjSF1ubihbY0hdMSlbQ0gyXVtDQEhdKFtDSDNdKVtOSF1bQ0gyXVtDQEhdKFtPSF0pW0NIMl1OMltDSDJdW0NIMl1PW0NIMl1bQ0gyXTI=

> <s_epik_cmdline>
J2VwaWtfcHl0aG9uJywgJy1waCcsICc3LjAnLCAnLXRuJywgJzgnLCAnLW1hJywgJzIwMCcsICctbWV0YWxfYmluZGluZycsICctaW1hZScsICc8aW5maWxlLm1hZT4nLCAnLW9tYWUnLCAnPG91dGZpbGUubWFlPic=

> <r_lp_tautomer_probability>
1

> <r_epik_Ionization_Penalty>
2.8101

> <r_epik_Ionization_Penalty_Charging>
0

> <r_epik_Ionization_Penalty_Neutral>
2.8101

> <r_epik_State_Penalty>
2.12351

> <r_epik_Charging_Adjusted_Penalty>
2.12351

> <i_epik_Tot_Q>
0

> <i_epik_Tot_abs_Q>
0

> <r_epik_Metal_State_Penalty>
2.12345

> <b_epik_Metal_Only>
0

> <s_lp_Force_Field>
OPLS_2005

> <r_lp_Energy>
35.4854

> <b_lp_Chiralities_Consistent>
1

> <s_lp_Variant>
AV-unprocessed.smi:3031-13

> <Gold.Version>
5.8.1

> <Gold.Id.Protein>
6NUR|6NUR_protein|mol2

> <Gold.PLP.Fitness>
42.0606

> <Gold.PLP.PLP>
-37.4791

> <Gold.PLP.part.hbond>
-2.0000

> <Gold.PLP.part.metal>
0.0000

> <Gold.PLP.part.buried>
-6.1432

> <Gold.PLP.part.nonpolar>
-31.3376

> <Gold.PLP.part.repulsive>
0.2221

> <Gold.PLP.ligand.clash>
0.0000

> <Gold.PLP.ligand.torsion>
1.5557

> <Gold.PLP.Chemscore.Hbond>
1.8320

> <Gold.PLP.Chemscore.CHOScore>
0.6905

> <Gold.PLP.Chemscore.Metal>
0.0000

> <Gold.Chemscore.Hbonds>
donor molecule, donor type, donor heavy atom, donor atom, acceptor molecule, acceptor atom, score
      L1  H    12    35       P1  7949  0.82
      P1  H 10752 10763       L1    12  1.00
      L1  C     3    24       P1  8028  0.49
      L1  C     3    24       P1  8029  0.21

> <Gold.PLP.Chemscore.Internal.Correction>
0.1257

> <Gold.Rescore>
     Score         DG    S(hbond)    S(metal)    S(lipo)     H(rot)  DE(clash)    DE(int)     intcor
     13.41     -16.09       1.52        0.00     102.75       2.53       0.06       2.62       ----

> <Gold.Chemscore.Fitness>
13.4053

> <Gold.Chemscore.DG>
-16.0909

> <Gold.Chemscore.ZeroCoef>
-5.4800

> <Gold.Chemscore.Hbond>
1.5191

> <Gold.Chemscore.Metal>
0.0000

> <Gold.Chemscore.Lipo>
102.7537

> <Gold.Chemscore.Internal_Hbond>
0.0000

> <Gold.Chemscore.DEClash>
0.0639

> <Gold.Chemscore.DEInternal>
2.6217

> <Gold.Chemscore.Rot>
2.5333

> <Gold.Chemscore.Internal.Correction>
   9.000000E+99

> <Gold.Chemscore.Hbonds>
donor molecule, donor type, donor heavy atom, donor atom, acceptor molecule, acceptor atom, score
      L1  H    12    35       P1  7949  0.50
      P1  H 10752 10763       L1    12  0.92

> <Gold.Chemscore.Hbond.Weighted>
-5.0739

> <Gold.Chemscore.Metal.Weighted>
-0.0000

> <Gold.Chemscore.Lipo.Weighted>
-12.0222

> <Gold.Chemscore.Internal_Hbond.Weighted>
0.0000

> <Gold.Chemscore.DEClash.Weighted>
0.0639

> <Gold.Chemscore.DEInternal.Weighted>
2.6217

> <Gold.Chemscore.Rot.Weighted>
6.4852

> <Gold.Chemscore.Internal.Correction.Weighted>
   9.000000E+99

> <Gold.Protein.RotatedTorsions>
[ 6907 6896 6895 6894 ] final  134.30 input  -60.11 | X-H torsion
[ 7974 7965 7964 7962 ] final   60.57 input  175.53 | X-H torsion
[ 8008 7997 7996 7995 ] final  -69.95 input   59.86 | X-H torsion
[ 10167 10162 10161 10158 ] final -100.24 input  -65.29 | X-H torsion
[ 10718 10713 10712 10709 ] final   79.00 input   66.30 | X-H torsion
[ 10763 10752 10751 10750 ] final   40.33 input  -60.55 | X-H torsion
[ 11005 11000 10999 10996 ] final   48.33 input  -57.11 | X-H torsion

> <Gold.Protein.ActiveResidues>
 VAL166  LYS551  ARG553  GLY616  TRP617  ASP618  TYR619  PRO620  LYS621  CYS622 
 ASP623  PHE694  ASN695  SER759  ASP760  ASP761  ALA762  ILE779  LEU786  VAL792 
 PHE793  MET794  SER795  GLU796  ALA797  LYS798  CYS799  TRP800  GLU811  SER814 

> <Gold.Protein.RotatedAtoms>
  152.3127  133.5770  159.5691 H   0  0  0  0  0  0  0  0  0  0  0  0  # atno 6907 bound_to 6896
  150.7331  134.0128  159.3684 H   0  0  0  0  0  0  0  0  0  0  0  0  # atno 6908 bound_to 6896
  151.8019  135.0707  160.0452 H   0  0  0  0  0  0  0  0  0  0  0  0  # atno 6909 bound_to 6896
  145.8945  139.3535  143.0629 H   0  0  0  0  0  0  0  0  0  0  0  0  # atno 7974 bound_to 7965
  154.4976  140.0843  156.7730 H   0  0  0  0  0  0  0  0  0  0  0  0  # atno 8008 bound_to 7997
  155.4079  140.3440  155.4243 H   0  0  0  0  0  0  0  0  0  0  0  0  # atno 8009 bound_to 7997
  156.1414  140.1530  156.8902 H   0  0  0  0  0  0  0  0  0  0  0  0  # atno 8010 bound_to 7997
  140.2539  143.3453  152.0689 H   0  0  0  0  0  0  0  0  0  0  0  0  # atno 10167 bound_to 10162
  157.6763  130.9894  150.1868 H   0  0  0  0  0  0  0  0  0  0  0  0  # atno 10718 bound_to 10713
  152.9939  135.6194  154.2609 H   0  0  0  0  0  0  0  0  0  0  0  0  # atno 10763 bound_to 10752
  154.2345  135.2791  155.2879 H   0  0  0  0  0  0  0  0  0  0  0  0  # atno 10764 bound_to 10752
  154.5422  135.5757  153.6907 H   0  0  0  0  0  0  0  0  0  0  0  0  # atno 10765 bound_to 10752
  140.1200  134.4841  155.8605 H   0  0  0  0  0  0  0  0  0  0  0  0  # atno 11005 bound_to 11000
  145.8867  140.9329  143.0573 LP  0  0  0  0  0  0  0  0  0  0  0  0  # atno 17320 bound_to 7965
  144.6732  140.0852  143.7467 LP  0  0  0  0  0  0  0  0  0  0  0  0  # atno 17321 bound_to 7965
  139.5037  144.6761  151.6124 LP  0  0  0  0  0  0  0  0  0  0  0  0  # atno 17342 bound_to 10162
  140.6019  143.9595  150.6392 LP  0  0  0  0  0  0  0  0  0  0  0  0  # atno 17343 bound_to 10162
  156.2588  130.3708  149.8153 LP  0  0  0  0  0  0  0  0  0  0  0  0  # atno 17370 bound_to 10713
  156.5904  130.8504  151.3406 LP  0  0  0  0  0  0  0  0  0  0  0  0  # atno 17371 bound_to 10713
  141.2149  133.6757  156.6871 LP  0  0  0  0  0  0  0  0  0  0  0  0  # atno 17394 bound_to 11000
  140.2977  134.8189  157.4071 LP  0  0  0  0  0  0  0  0  0  0  0  0  # atno 17395 bound_to 11000

$$$$
