AV-unprocessed.smi:221|AV-procd|sdf|1701|dock7
  -GOLD-   2262020153D 1   1.00000     0.00000
 Structure written by MMmdl.
 50 53  0  0  0  0  0  0  0  0  1 V2000
  148.5358  133.1638  153.1844 N   0  0  0  0  0  0  0  0  0  0  0  0
  147.2579  132.9724  152.8384 C   0  0  0  0  0  0  0  0  0  0  0  0
  146.5579  132.1412  153.4126 O   0  0  0  0  0  0  0  0  0  0  0  0
  146.6655  133.8046  151.6834 C   0  0  1  0  0  0  0  0  0  0  0  0
  146.1237  132.9219  150.5415 C   0  0  0  0  0  0  0  0  0  0  0  0
  144.6291  132.8323  150.8266 C   0  0  2  0  0  0  0  0  0  0  0  0
  143.9174  132.5246  149.7425 F   0  0  0  0  0  0  0  0  0  0  0  0
  144.3204  134.2271  151.3577 C   0  0  0  0  0  0  0  0  0  0  0  0
  145.5120  134.6133  152.1028 N   0  0  0  0  0  0  0  0  0  0  0  0
  145.6985  135.9434  152.2461 C   0  0  0  0  0  0  0  0  0  0  0  0
  146.0288  136.7063  151.1715 N   0  0  0  0  0  0  0  0  0  0  0  0
  146.2049  138.0230  151.3198 C   0  0  0  0  0  0  0  0  0  0  0  0
  146.1007  138.7605  152.4284 N   0  0  0  0  0  0  0  0  0  0  0  0
  145.7653  137.9925  153.5053 C   0  0  0  0  0  0  0  0  0  0  0  0
  145.5460  136.5873  153.5005 C   0  0  0  0  0  0  0  0  0  0  0  0
  145.2251  136.1471  154.7779 N   0  0  0  0  0  0  0  0  0  0  0  0
  145.2566  137.2335  155.5014 C   0  0  0  0  0  0  0  0  0  0  0  0
  145.5778  138.3856  154.8188 N   0  0  0  0  0  0  0  0  0  0  0  0
  145.6829  139.7220  155.3791 C   0  0  0  0  0  0  0  0  0  0  0  0
  146.7958  140.5778  154.7223 C   0  0  1  0  0  0  0  0  0  0  0  0
  146.6276  142.0773  155.0805 C   0  0  0  0  0  0  0  0  0  0  0  0
  147.2022  142.9223  154.1065 O   0  0  0  0  0  0  0  0  0  0  0  0
  148.1996  140.0342  155.1107 C   0  0  1  0  0  0  0  0  0  0  0  0
  148.6650  138.8290  154.3090 C   0  0  0  0  0  0  0  0  0  0  0  0
  150.1679  138.8185  154.5655 C   0  0  0  0  0  0  0  0  0  0  0  0
  150.5379  140.1795  154.7475 O   0  0  0  0  0  0  0  0  0  0  0  0
  149.3720  140.9891  154.8558 C   0  0  0  0  0  0  0  0  0  0  0  0
  147.4775  134.4241  151.2992 H   0  0  0  0  0  0  0  0  0  0  0  0
  144.4291  132.0755  151.5866 H   0  0  0  0  0  0  0  0  0  0  0  0
  148.9385  132.6230  153.9358 H   0  0  0  0  0  0  0  0  0  0  0  0
  149.0943  133.8451  152.6901 H   0  0  0  0  0  0  0  0  0  0  0  0
  146.2866  133.4261  149.5879 H   0  0  0  0  0  0  0  0  0  0  0  0
  146.5939  131.9399  150.4729 H   0  0  0  0  0  0  0  0  0  0  0  0
  144.1398  134.9176  150.5313 H   0  0  0  0  0  0  0  0  0  0  0  0
  143.4371  134.2281  151.9973 H   0  0  0  0  0  0  0  0  0  0  0  0
  146.4672  138.5631  150.4221 H   0  0  0  0  0  0  0  0  0  0  0  0
  145.0491  137.2252  156.5617 H   0  0  0  0  0  0  0  0  0  0  0  0
  144.7181  140.2213  155.2828 H   0  0  0  0  0  0  0  0  0  0  0  0
  145.8629  139.6030  156.4472 H   0  0  0  0  0  0  0  0  0  0  0  0
  146.6793  140.4769  153.6418 H   0  0  0  0  0  0  0  0  0  0  0  0
  145.5780  142.3610  155.1382 H   0  0  0  0  0  0  0  0  0  0  0  0
  147.0634  142.2930  156.0565 H   0  0  0  0  0  0  0  0  0  0  0  0
  147.7319  143.5702  154.5458 H   0  0  0  0  0  0  0  0  0  0  0  0
  148.2000  139.7616  156.1673 H   0  0  0  0  0  0  0  0  0  0  0  0
  148.1918  137.8955  154.6150 H   0  0  0  0  0  0  0  0  0  0  0  0
  148.4690  138.9801  153.2464 H   0  0  0  0  0  0  0  0  0  0  0  0
  150.3949  138.2719  155.4816 H   0  0  0  0  0  0  0  0  0  0  0  0
  150.7259  138.3590  153.7493 H   0  0  0  0  0  0  0  0  0  0  0  0
  149.2392  141.5209  153.9128 H   0  0  0  0  0  0  0  0  0  0  0  0
  149.4907  141.7280  155.6485 H   0  0  0  0  0  0  0  0  0  0  0  0
  1  2  1  0  0  0  0
  1 30  1  0  0  0  0
  1 31  1  0  0  0  0
  2  3  2  0  0  0  0
  2  4  1  0  0  0  0
  4 28  1  0  0  0  0
  4  9  1  0  0  0  0
  4  5  1  0  0  0  0
  5  6  1  0  0  0  0
  5 32  1  0  0  0  0
  5 33  1  0  0  0  0
  6 29  1  0  0  0  0
  6  7  1  0  0  0  0
  6  8  1  0  0  0  0
  8  9  1  0  0  0  0
  8 34  1  0  0  0  0
  8 35  1  0  0  0  0
  9 10  1  0  0  0  0
 10 15  1  0  0  0  0
 10 11  2  0  0  0  0
 11 12  1  0  0  0  0
 12 13  2  0  0  0  0
 12 36  1  0  0  0  0
 13 14  1  0  0  0  0
 14 18  1  0  0  0  0
 14 15  2  0  0  0  0
 15 16  1  0  0  0  0
 16 17  2  0  0  0  0
 17 18  1  0  0  0  0
 17 37  1  0  0  0  0
 18 19  1  0  0  0  0
 19 20  1  0  0  0  0
 19 38  1  0  0  0  0
 19 39  1  0  0  0  0
 20 21  1  0  0  0  0
 20 23  1  0  0  0  0
 20 40  1  0  0  0  0
 21 22  1  0  0  0  0
 21 41  1  0  0  0  0
 21 42  1  0  0  0  0
 22 43  1  0  0  0  0
 23 27  1  0  0  0  0
 23 24  1  0  0  0  0
 23 44  1  0  0  0  0
 24 25  1  0  0  0  0
 24 45  1  0  0  0  0
 24 46  1  0  0  0  0
 25 26  1  0  0  0  0
 25 47  1  0  0  0  0
 25 48  1  0  0  0  0
 26 27  1  0  0  0  0
 27 49  1  0  0  0  0
 27 50  1  0  0  0  0
M  END
> <s_m_source_file>
AV-unprocessed.smi

> <i_m_source_file_index>
221

> <i_lp_mmshare_version>
43012

> <i_f3d_flags>
0

> <s_epik_input>
W05IMl1DKD1PKVtDQEBIXTFbQ0gyXVtDQEBIXShGKVtDSDJdTjFjKG5bY0hdbjIpYyhjMjMpbltjSF1uM1tDSDJdW0NASF0oW0NIMl1bT0hdKVtDQEBIXTRbQ0gyXVtDSDJdT1tDSDJdNA==

> <s_epik_cmdline>
J2VwaWtfcHl0aG9uJywgJy1waCcsICc3LjAnLCAnLXRuJywgJzgnLCAnLW1hJywgJzIwMCcsICctbWV0YWxfYmluZGluZycsICctaW1hZScsICc8aW5maWxlLm1hZT4nLCAnLW9tYWUnLCAnPG91dGZpbGUubWFlPic=

> <r_lp_tautomer_probability>
1

> <r_epik_Ionization_Penalty>
0.000818822

> <r_epik_Ionization_Penalty_Charging>
0

> <r_epik_Ionization_Penalty_Neutral>
0.000818822

> <r_epik_State_Penalty>
0.000440551

> <r_epik_Charging_Adjusted_Penalty>
0.000440551

> <i_epik_Tot_Q>
0

> <i_epik_Tot_abs_Q>
0

> <r_epik_Metal_State_Penalty>
-0

> <b_epik_Metal_Only>
0

> <s_lp_Force_Field>
OPLS_2005

> <r_lp_Energy>
50.9528

> <b_lp_Chiralities_Consistent>
1

> <s_lp_Variant>
AV-unprocessed.smi:221-16

> <Gold.Version>
5.8.1

> <Gold.Id.Protein>
6NUR|6NUR_protein|mol2

> <Gold.PLP.Fitness>
40.8829

> <Gold.PLP.PLP>
-36.1772

> <Gold.PLP.part.hbond>
-2.8207

> <Gold.PLP.part.metal>
0.0000

> <Gold.PLP.part.buried>
-4.7676

> <Gold.PLP.part.nonpolar>
-32.3225

> <Gold.PLP.part.repulsive>
2.0209

> <Gold.PLP.ligand.clash>
0.0000

> <Gold.PLP.ligand.torsion>
1.1724

> <Gold.PLP.Chemscore.Hbond>
2.0000

> <Gold.PLP.Chemscore.CHOScore>
0.2118

> <Gold.PLP.Chemscore.Metal>
0.0000

> <Gold.Chemscore.Hbonds>
donor molecule, donor type, donor heavy atom, donor atom, acceptor molecule, acceptor atom, score
      L1  H    22    43       P1  8028  1.00
      P1  H  7989  7998       L1    26  1.00
      L1  C    12    36       P1 10171  0.13

> <Gold.PLP.Chemscore.Internal.Correction>
0.4150

> <Gold.Rescore>
     Score         DG    S(hbond)    S(metal)    S(lipo)     H(rot)  DE(clash)    DE(int)     intcor
      2.79      -6.18       0.88        0.00      62.39       3.72       1.01       2.39       ----

> <Gold.Chemscore.Fitness>
2.7918

> <Gold.Chemscore.DG>
-6.1847

> <Gold.Chemscore.ZeroCoef>
-5.4800

> <Gold.Chemscore.Hbond>
0.8770

> <Gold.Chemscore.Metal>
0.0000

> <Gold.Chemscore.Lipo>
62.3864

> <Gold.Chemscore.Internal_Hbond>
0.0000

> <Gold.Chemscore.DEClash>
1.0072

> <Gold.Chemscore.DEInternal>
2.3857

> <Gold.Chemscore.Rot>
3.7202

> <Gold.Chemscore.Internal.Correction>
   9.000000E+99

> <Gold.Chemscore.Hbonds>
donor molecule, donor type, donor heavy atom, donor atom, acceptor molecule, acceptor atom, score
      L1  H    22    43       P1  8028  0.40
      P1  H  7989  7998       L1    26  0.65

> <Gold.Chemscore.Hbond.Weighted>
-2.9293

> <Gold.Chemscore.Metal.Weighted>
-0.0000

> <Gold.Chemscore.Lipo.Weighted>
-7.2992

> <Gold.Chemscore.Internal_Hbond.Weighted>
0.0000

> <Gold.Chemscore.DEClash.Weighted>
1.0072

> <Gold.Chemscore.DEInternal.Weighted>
2.3857

> <Gold.Chemscore.Rot.Weighted>
9.5237

> <Gold.Chemscore.Internal.Correction.Weighted>
   9.000000E+99

> <Gold.Protein.RotatedTorsions>
[ 6907 6896 6895 6894 ] final -138.61 input  -60.11 | X-H torsion
[ 7974 7965 7964 7962 ] final  -16.64 input  175.53 | X-H torsion
[ 8008 7997 7996 7995 ] final   68.37 input   59.86 | X-H torsion
[ 10167 10162 10161 10158 ] final   19.94 input  -65.29 | X-H torsion
[ 10718 10713 10712 10709 ] final   36.22 input   66.30 | X-H torsion
[ 10763 10752 10751 10750 ] final   66.97 input  -60.55 | X-H torsion
[ 11005 11000 10999 10996 ] final   97.37 input  -57.11 | X-H torsion

> <Gold.Protein.ActiveResidues>
 VAL166  LYS551  ARG553  GLY616  TRP617  ASP618  TYR619  PRO620  LYS621  CYS622 
 ASP623  PHE694  ASN695  SER759  ASP760  ASP761  ALA762  ILE779  LEU786  VAL792 
 PHE793  MET794  SER795  GLU796  ALA797  LYS798  CYS799  TRP800  GLU811  SER814 

> <Gold.Protein.RotatedAtoms>
  151.0372  133.5738  159.2654 H   0  0  0  0  0  0  0  0  0  0  0  0  # atno 6907 bound_to 6896
  151.2798  135.0709  159.9175 H   0  0  0  0  0  0  0  0  0  0  0  0  # atno 6908 bound_to 6896
  152.5357  134.0088  159.7983 H   0  0  0  0  0  0  0  0  0  0  0  0  # atno 6909 bound_to 6896
  146.1978  140.3666  142.8434 H   0  0  0  0  0  0  0  0  0  0  0  0  # atno 7974 bound_to 7965
  155.7072  140.3495  155.4958 H   0  0  0  0  0  0  0  0  0  0  0  0  # atno 8008 bound_to 7997
  155.9388  140.1098  157.1094 H   0  0  0  0  0  0  0  0  0  0  0  0  # atno 8009 bound_to 7997
  154.4099  140.1217  156.4886 H   0  0  0  0  0  0  0  0  0  0  0  0  # atno 8010 bound_to 7997
  140.5541  143.9456  150.6597 H   0  0  0  0  0  0  0  0  0  0  0  0  # atno 10167 bound_to 10162
  157.3323  130.7504  149.6855 H   0  0  0  0  0  0  0  0  0  0  0  0  # atno 10718 bound_to 10713
  153.0164  135.5301  154.6906 H   0  0  0  0  0  0  0  0  0  0  0  0  # atno 10763 bound_to 10752
  154.6042  135.2871  155.0505 H   0  0  0  0  0  0  0  0  0  0  0  0  # atno 10764 bound_to 10752
  154.1551  135.6556  153.5025 H   0  0  0  0  0  0  0  0  0  0  0  0  # atno 10765 bound_to 10752
  139.8776  134.8997  156.4298 H   0  0  0  0  0  0  0  0  0  0  0  0  # atno 11005 bound_to 11000
  144.8617  140.7149  143.6103 LP  0  0  0  0  0  0  0  0  0  0  0  0  # atno 17320 bound_to 7965
  145.3586  139.1687  143.4396 LP  0  0  0  0  0  0  0  0  0  0  0  0  # atno 17321 bound_to 7965
  140.2890  143.3337  152.1081 LP  0  0  0  0  0  0  0  0  0  0  0  0  # atno 17342 bound_to 10162
  139.5040  144.6767  151.6111 LP  0  0  0  0  0  0  0  0  0  0  0  0  # atno 17343 bound_to 10162
  155.9697  130.4192  150.4362 LP  0  0  0  0  0  0  0  0  0  0  0  0  # atno 17370 bound_to 10713
  157.2396  131.0522  151.2444 LP  0  0  0  0  0  0  0  0  0  0  0  0  # atno 17371 bound_to 10713
  140.9075  133.7735  155.9752 LP  0  0  0  0  0  0  0  0  0  0  0  0  # atno 17394 bound_to 11000
  140.8583  134.2871  157.5245 LP  0  0  0  0  0  0  0  0  0  0  0  0  # atno 17395 bound_to 11000

$$$$
