AV-unprocessed.smi:1512|AV-procd|sdf|6106|dock6
  -GOLD-   22720 6243D 1   1.00000     0.00000
 Structure written by MMmdl.
 44 46  0  0  0  0  0  0  0  0  3 V2000
  150.5249  141.3759  156.6106 C   0  0  0  0  0  0  0  0  0  0  0  0
  151.5878  141.4774  157.7178 C   0  0  2  0  0  0  0  0  0  0  0  0
  151.5675  140.2301  158.4817 N   0  0  0  0  0  0  0  0  0  0  0  0
  152.5891  139.3712  158.6221 C   0  0  0  0  0  0  0  0  0  0  0  0
  153.7031  139.5540  158.1299 O   0  0  0  0  0  0  0  0  0  0  0  0
  152.3006  138.1235  159.4693 C   0  0  0  0  0  0  0  0  0  0  0  0
  153.3854  137.7929  160.4096 N   0  0  0  0  0  0  0  0  0  0  0  0
  153.7593  138.7923  161.3273 C   0  0  0  0  0  0  0  0  0  0  0  0
  154.7358  138.6003  162.2255 C   0  0  0  0  0  0  0  0  0  0  0  0
  155.4171  137.3288  162.2320 C   0  0  0  0  0  0  0  0  0  0  0  0
  155.0785  136.3542  161.3567 C   0  0  0  0  0  0  0  0  0  0  0  0
  155.8105  135.1095  161.4086 N   0  3  0  0  0  0  0  0  0  0  0  0
  156.6190  134.9345  162.3149 O   0  0  0  0  0  0  0  0  0  0  0  0
  155.5872  134.2622  160.5490 O   0  5  0  0  0  0  0  0  0  0  0  0
  153.9912  136.5648  160.3783 C   0  0  0  0  0  0  0  0  0  0  0  0
  153.6319  135.6967  159.5804 O   0  0  0  0  0  0  0  0  0  0  0  0
  151.3573  142.6783  158.6697 C   0  0  1  0  0  0  0  0  0  0  0  0
  152.3887  142.7661  159.8237 C   0  0  0  0  0  0  0  0  0  0  0  0
  152.9302  144.2015  159.7106 C   0  0  2  0  0  0  0  0  0  0  0  0
  151.8315  145.2015  160.1132 C   0  0  0  0  0  0  0  0  0  0  0  0
  150.8601  145.1325  158.9202 C   0  0  0  0  0  0  0  0  0  0  0  0
  151.5119  144.0729  158.0106 C   0  0  1  0  0  0  0  0  0  0  0  0
  152.9931  144.3841  158.2006 C   0  0  0  0  0  0  0  0  0  0  0  0
  150.5517  142.2340  155.9404 H   0  0  0  0  0  0  0  0  0  0  0  0
  149.5200  141.3097  157.0293 H   0  0  0  0  0  0  0  0  0  0  0  0
  150.6862  140.4891  155.9964 H   0  0  0  0  0  0  0  0  0  0  0  0
  152.5577  141.6020  157.2340 H   0  0  0  0  0  0  0  0  0  0  0  0
  150.6947  139.9950  158.9315 H   0  0  0  0  0  0  0  0  0  0  0  0
  151.3640  138.2881  160.0036 H   0  0  0  0  0  0  0  0  0  0  0  0
  152.1060  137.2747  158.8108 H   0  0  0  0  0  0  0  0  0  0  0  0
  153.2084  139.7188  161.2521 H   0  0  0  0  0  0  0  0  0  0  0  0
  155.0101  139.3797  162.9211 H   0  0  0  0  0  0  0  0  0  0  0  0
  156.2161  137.1710  162.9420 H   0  0  0  0  0  0  0  0  0  0  0  0
  150.3539  142.5849  159.0885 H   0  0  0  0  0  0  0  0  0  0  0  0
  151.9399  142.5663  160.7974 H   0  0  0  0  0  0  0  0  0  0  0  0
  153.2061  142.0570  159.6872 H   0  0  0  0  0  0  0  0  0  0  0  0
  153.8750  144.3539  160.2331 H   0  0  0  0  0  0  0  0  0  0  0  0
  151.3540  144.9319  161.0559 H   0  0  0  0  0  0  0  0  0  0  0  0
  152.2391  146.2076  160.2186 H   0  0  0  0  0  0  0  0  0  0  0  0
  149.8475  144.8618  159.2205 H   0  0  0  0  0  0  0  0  0  0  0  0
  150.8092  146.0973  158.4139 H   0  0  0  0  0  0  0  0  0  0  0  0
  151.1639  144.1346  156.9803 H   0  0  0  0  0  0  0  0  0  0  0  0
  153.2648  145.3970  157.8982 H   0  0  0  0  0  0  0  0  0  0  0  0
  153.6571  143.6745  157.7047 H   0  0  0  0  0  0  0  0  0  0  0  0
  1  2  1  0  0  0  0
  1 24  1  0  0  0  0
  1 25  1  0  0  0  0
  1 26  1  0  0  0  0
  2  3  1  0  0  0  0
  2 17  1  0  0  0  0
  2 27  1  0  0  0  0
  3  4  1  0  0  0  0
  3 28  1  0  0  0  0
  4  5  2  0  0  0  0
  4  6  1  0  0  0  0
  6  7  1  0  0  0  0
  6 29  1  0  0  0  0
  6 30  1  0  0  0  0
  7 15  1  0  0  0  0
  7  8  1  0  0  0  0
  8  9  2  0  0  0  0
  8 31  1  0  0  0  0
  9 10  1  0  0  0  0
  9 32  1  0  0  0  0
 10 11  2  0  0  0  0
 10 33  1  0  0  0  0
 11 12  1  0  0  0  0
 11 15  1  0  0  0  0
 12 13  2  0  0  0  0
 12 14  1  0  0  0  0
 15 16  2  0  0  0  0
 17 22  1  0  0  0  0
 17 18  1  0  0  0  0
 17 34  1  0  0  0  0
 18 19  1  0  0  0  0
 18 35  1  0  0  0  0
 18 36  1  0  0  0  0
 19 23  1  0  0  0  0
 19 20  1  0  0  0  0
 19 37  1  0  0  0  0
 20 21  1  0  0  0  0
 20 38  1  0  0  0  0
 20 39  1  0  0  0  0
 21 22  1  0  0  0  0
 21 40  1  0  0  0  0
 21 41  1  0  0  0  0
 22 23  1  0  0  0  0
 22 42  1  0  0  0  0
 23 43  1  0  0  0  0
 23 44  1  0  0  0  0
M  CHG  1  12   1
M  CHG  1  14  -1
M  END
> <s_m_source_file>
AV-unprocessed.smi

> <i_m_source_file_index>
1512

> <i_lp_mmshare_version>
43012

> <i_f3d_flags>
0

> <s_epik_input>
W0NIMl0xW0NIMl1bQ0BIXShbQ0gyXTIpW0NAQEhdKFtDSDJdW0NAQEhdMTIpW0NASF0oW0NIM10pW05IXUMoPU8pW0NIMl1uM1tjSF1bY0hdW2NIXWMoW04rXSg9TylbTy1dKWMzPU8=

> <s_epik_cmdline>
J2VwaWtfcHl0aG9uJywgJy1waCcsICc3LjAnLCAnLXRuJywgJzgnLCAnLW1hJywgJzIwMCcsICctbWV0YWxfYmluZGluZycsICctaW1hZScsICc8aW5maWxlLm1hZT4nLCAnLW9tYWUnLCAnPG91dGZpbGUubWFlPic=

> <r_lp_tautomer_probability>
1

> <r_epik_Ionization_Penalty>
2.17697e-08

> <r_epik_Ionization_Penalty_Charging>
1.42735e-10

> <r_epik_Ionization_Penalty_Neutral>
2.16269e-08

> <r_epik_State_Penalty>
-0

> <r_epik_Charging_Adjusted_Penalty>
1.42735e-10

> <i_epik_Tot_Q>
0

> <i_epik_Tot_abs_Q>
2

> <r_epik_Metal_State_Penalty>
-0

> <b_epik_Metal_Only>
0

> <s_lp_Force_Field>
OPLS_2005

> <r_lp_Energy>
64.581

> <b_lp_Chiralities_Consistent>
1

> <s_lp_Variant>
AV-unprocessed.smi:1512-7

> <Gold.Version>
5.8.1

> <Gold.Id.Protein>
6NUR|6NUR_protein|mol2

> <Gold.PLP.Fitness>
46.1433

> <Gold.PLP.PLP>
-40.6716

> <Gold.PLP.part.hbond>
-1.8324

> <Gold.PLP.part.metal>
0.0000

> <Gold.PLP.part.buried>
-4.5513

> <Gold.PLP.part.nonpolar>
-34.1383

> <Gold.PLP.part.repulsive>
0.1245

> <Gold.PLP.ligand.clash>
0.0000

> <Gold.PLP.ligand.torsion>
0.2793

> <Gold.PLP.Chemscore.Hbond>
2.0000

> <Gold.PLP.Chemscore.CHOScore>
0.0000

> <Gold.PLP.Chemscore.Metal>
0.0000

> <Gold.Chemscore.Hbonds>
donor molecule, donor type, donor heavy atom, donor atom, acceptor molecule, acceptor atom, score
      P1  H  6896  6908       L1    16  1.00
      P1  H  7997  8008       L1     5  1.00

> <Gold.PLP.Chemscore.Internal.Correction>
0.0302

> <Gold.Rescore>
     Score         DG    S(hbond)    S(metal)    S(lipo)     H(rot)  DE(clash)    DE(int)     intcor
     19.81     -21.90       1.95        0.00     122.98       1.75       0.16       1.94       ----

> <Gold.Chemscore.Fitness>
19.8054

> <Gold.Chemscore.DG>
-21.8965

> <Gold.Chemscore.ZeroCoef>
-5.4800

> <Gold.Chemscore.Hbond>
1.9465

> <Gold.Chemscore.Metal>
0.0000

> <Gold.Chemscore.Lipo>
122.9797

> <Gold.Chemscore.Internal_Hbond>
0.0000

> <Gold.Chemscore.DEClash>
0.1551

> <Gold.Chemscore.DEInternal>
1.9360

> <Gold.Chemscore.Rot>
1.7474

> <Gold.Chemscore.Internal.Correction>
   9.000000E+99

> <Gold.Chemscore.Hbonds>
donor molecule, donor type, donor heavy atom, donor atom, acceptor molecule, acceptor atom, score
      P1  H  6896  6908       L1    16  0.88
      P1  H  7997  8008       L1     5  0.92

> <Gold.Chemscore.Hbond.Weighted>
-6.5012

> <Gold.Chemscore.Metal.Weighted>
-0.0000

> <Gold.Chemscore.Lipo.Weighted>
-14.3886

> <Gold.Chemscore.Internal_Hbond.Weighted>
0.0000

> <Gold.Chemscore.DEClash.Weighted>
0.1551

> <Gold.Chemscore.DEInternal.Weighted>
1.9360

> <Gold.Chemscore.Rot.Weighted>
4.4733

> <Gold.Chemscore.Internal.Correction.Weighted>
   9.000000E+99

> <Gold.Protein.RotatedTorsions>
[ 6907 6896 6895 6894 ] final  -76.59 input  -60.11 | X-H torsion
[ 7974 7965 7964 7962 ] final  140.94 input  175.53 | X-H torsion
[ 8008 7997 7996 7995 ] final -107.21 input   59.86 | X-H torsion
[ 10167 10162 10161 10158 ] final   32.47 input  -65.29 | X-H torsion
[ 10718 10713 10712 10709 ] final -132.95 input   66.30 | X-H torsion
[ 10763 10752 10751 10750 ] final    7.53 input  -60.55 | X-H torsion
[ 11005 11000 10999 10996 ] final  138.02 input  -57.11 | X-H torsion

> <Gold.Protein.ActiveResidues>
 VAL166  LYS551  ARG553  GLY616  TRP617  ASP618  TYR619  PRO620  LYS621  CYS622 
 ASP623  PHE694  ASN695  SER759  ASP760  ASP761  ALA762  ILE779  LEU786  VAL792 
 PHE793  MET794  SER795  GLU796  ALA797  LYS798  CYS799  TRP800  GLU811  SER814 

> <Gold.Protein.RotatedAtoms>
  150.7023  134.4549  159.5353 H   0  0  0  0  0  0  0  0  0  0  0  0  # atno 6907 bound_to 6896
  152.2235  134.8387  160.0492 H   0  0  0  0  0  0  0  0  0  0  0  0  # atno 6908 bound_to 6896
  151.9229  133.3555  159.3940 H   0  0  0  0  0  0  0  0  0  0  0  0  # atno 6909 bound_to 6896
  144.9141  139.5254  143.5695 H   0  0  0  0  0  0  0  0  0  0  0  0  # atno 7974 bound_to 7965
  154.9259  140.0406  157.2022 H   0  0  0  0  0  0  0  0  0  0  0  0  # atno 8008 bound_to 7997
  154.8208  140.2883  155.5766 H   0  0  0  0  0  0  0  0  0  0  0  0  # atno 8009 bound_to 7997
  156.2980  140.2519  156.3115 H   0  0  0  0  0  0  0  0  0  0  0  0  # atno 8010 bound_to 7997
  140.4495  144.1069  150.6189 H   0  0  0  0  0  0  0  0  0  0  0  0  # atno 10167 bound_to 10162
  156.2399  130.7089  151.0946 H   0  0  0  0  0  0  0  0  0  0  0  0  # atno 10718 bound_to 10713
  153.2353  135.6897  153.7844 H   0  0  0  0  0  0  0  0  0  0  0  0  # atno 10763 bound_to 10752
  153.6993  135.3300  155.3222 H   0  0  0  0  0  0  0  0  0  0  0  0  # atno 10764 bound_to 10752
  154.8332  135.4564  154.1254 H   0  0  0  0  0  0  0  0  0  0  0  0  # atno 10765 bound_to 10752
  140.0154  134.9420  157.0365 H   0  0  0  0  0  0  0  0  0  0  0  0  # atno 11005 bound_to 11000
  146.3173  139.7969  142.8973 LP  0  0  0  0  0  0  0  0  0  0  0  0  # atno 17320 bound_to 7965
  145.3405  141.0286  143.3395 LP  0  0  0  0  0  0  0  0  0  0  0  0  # atno 17321 bound_to 7965
  140.4224  143.2605  151.9699 LP  0  0  0  0  0  0  0  0  0  0  0  0  # atno 17342 bound_to 10162
  139.4795  144.5819  151.7918 LP  0  0  0  0  0  0  0  0  0  0  0  0  # atno 17343 bound_to 10162
  157.7170  131.0704  150.6286 LP  0  0  0  0  0  0  0  0  0  0  0  0  # atno 17370 bound_to 10713
  156.6358  130.4444  149.5770 LP  0  0  0  0  0  0  0  0  0  0  0  0  # atno 17371 bound_to 10713
  140.4480  134.1612  155.7179 LP  0  0  0  0  0  0  0  0  0  0  0  0  # atno 17394 bound_to 11000
  141.1739  133.8553  157.1483 LP  0  0  0  0  0  0  0  0  0  0  0  0  # atno 17395 bound_to 11000

$$$$
