AV-unprocessed.smi:88|AV-procd|sdf|824|dock5
  -GOLD-   2262017233D 1   1.00000     0.00000
 Structure written by MMmdl.
 56 60  0  0  0  0  0  0  0  0  1 V2000
  146.1742  131.3956  149.2606 C   0  0  0  0  0  0  0  0  0  0  0  0
  145.2774  132.1554  150.1344 N   0  0  0  0  0  0  0  0  0  0  0  0
  144.0516  132.5775  149.7837 C   0  0  0  0  0  0  0  0  0  0  0  0
  143.5004  132.4092  148.6975 O   0  0  0  0  0  0  0  0  0  0  0  0
  143.5140  133.2187  150.8200 N   0  0  0  0  0  0  0  0  0  0  0  0
  144.3750  133.2660  151.9786 C   0  0  0  0  0  0  0  0  0  0  0  0
  145.6425  132.5191  151.5101 C   0  0  0  0  0  0  0  0  0  0  0  0
  145.9219  131.2642  152.3749 C   0  0  0  0  0  0  0  0  0  0  0  0
  146.3716  131.6401  153.7982 C   0  0  0  0  0  0  0  0  0  0  0  0
  147.5188  132.5426  153.7572 N   0  0  0  0  0  0  0  0  0  0  0  0
  148.0744  132.7603  154.9674 C   0  0  0  0  0  0  0  0  0  0  0  0
  149.3135  133.3082  154.9908 N   0  0  0  0  0  0  0  0  0  0  0  0
  149.9146  133.5480  156.1603 C   0  0  0  0  0  0  0  0  0  0  0  0
  149.4609  133.3210  157.3955 N   0  0  0  0  0  0  0  0  0  0  0  0
  148.2135  132.7685  157.3723 C   0  0  0  0  0  0  0  0  0  0  0  0
  147.4522  132.4568  156.2111 C   0  0  0  0  0  0  0  0  0  0  0  0
  146.2297  131.9071  156.5782 N   0  0  0  0  0  0  0  0  0  0  0  0
  146.2669  131.8934  157.8828 C   0  0  0  0  0  0  0  0  0  0  0  0
  147.4232  132.3882  158.4429 N   0  0  0  0  0  0  0  0  0  0  0  0
  147.7302  132.4894  159.8614 C   0  0  0  0  0  0  0  0  0  0  0  0
  147.3267  133.8437  160.4945 C   0  0  0  0  0  0  0  0  0  0  0  0
  145.9169  133.9578  160.3994 O   0  0  0  0  0  0  0  0  0  0  0  0
  147.7274  133.9487  161.9826 C   0  0  0  0  0  0  0  0  0  0  0  0
  147.5112  135.3660  162.5428 C   0  0  0  0  0  0  0  0  0  0  0  0
  148.2012  136.3206  161.7453 O   0  0  0  0  0  0  0  0  0  0  0  0
  147.7238  136.3670  160.4062 C   0  0  0  0  0  0  0  0  0  0  0  0
  147.9634  135.0124  159.7162 C   0  0  0  0  0  0  0  0  0  0  0  0
  147.3190  133.7653  152.9847 C   0  0  0  0  0  0  0  0  0  0  0  0
  146.8912  133.4361  151.5432 C   0  0  0  0  0  0  0  0  0  0  0  0
  145.7553  131.2526  148.2639 H   0  0  0  0  0  0  0  0  0  0  0  0
  146.3691  130.4056  149.6715 H   0  0  0  0  0  0  0  0  0  0  0  0
  147.1268  131.9083  149.1351 H   0  0  0  0  0  0  0  0  0  0  0  0
  142.5929  133.6323  150.8104 H   0  0  0  0  0  0  0  0  0  0  0  0
  144.5653  134.3050  152.2492 H   0  0  0  0  0  0  0  0  0  0  0  0
  143.8793  132.7807  152.8199 H   0  0  0  0  0  0  0  0  0  0  0  0
  145.0399  130.6241  152.4191 H   0  0  0  0  0  0  0  0  0  0  0  0
  146.7118  130.6651  151.9213 H   0  0  0  0  0  0  0  0  0  0  0  0
  145.5503  132.1105  154.3392 H   0  0  0  0  0  0  0  0  0  0  0  0
  146.6367  130.7369  154.3496 H   0  0  0  0  0  0  0  0  0  0  0  0
  150.9005  133.9843  156.0968 H   0  0  0  0  0  0  0  0  0  0  0  0
  145.4483  131.5150  158.4778 H   0  0  0  0  0  0  0  0  0  0  0  0
  147.2234  131.6715  160.3751 H   0  0  0  0  0  0  0  0  0  0  0  0
  148.7987  132.3119  159.9925 H   0  0  0  0  0  0  0  0  0  0  0  0
  145.6358  134.6729  160.9499 H   0  0  0  0  0  0  0  0  0  0  0  0
  147.1748  133.2289  162.5878 H   0  0  0  0  0  0  0  0  0  0  0  0
  148.7821  133.6919  162.0885 H   0  0  0  0  0  0  0  0  0  0  0  0
  146.4496  135.6136  162.5884 H   0  0  0  0  0  0  0  0  0  0  0  0
  147.8912  135.4231  163.5629 H   0  0  0  0  0  0  0  0  0  0  0  0
  146.6666  136.6360  160.3920 H   0  0  0  0  0  0  0  0  0  0  0  0
  148.2555  137.1550  159.8726 H   0  0  0  0  0  0  0  0  0  0  0  0
  149.0397  134.8516  159.6418 H   0  0  0  0  0  0  0  0  0  0  0  0
  147.5882  135.0416  158.6924 H   0  0  0  0  0  0  0  0  0  0  0  0
  146.5658  134.3878  153.4681 H   0  0  0  0  0  0  0  0  0  0  0  0
  148.2438  134.3438  152.9693 H   0  0  0  0  0  0  0  0  0  0  0  0
  147.7303  132.9460  151.0495 H   0  0  0  0  0  0  0  0  0  0  0  0
  146.7062  134.3569  150.9886 H   0  0  0  0  0  0  0  0  0  0  0  0
  1  2  1  0  0  0  0
  1 30  1  0  0  0  0
  1 31  1  0  0  0  0
  1 32  1  0  0  0  0
  2  7  1  0  0  0  0
  2  3  1  0  0  0  0
  3  4  2  0  0  0  0
  3  5  1  0  0  0  0
  5  6  1  0  0  0  0
  5 33  1  0  0  0  0
  6  7  1  0  0  0  0
  6 34  1  0  0  0  0
  6 35  1  0  0  0  0
  7 29  1  0  0  0  0
  7  8  1  0  0  0  0
  8  9  1  0  0  0  0
  8 36  1  0  0  0  0
  8 37  1  0  0  0  0
  9 10  1  0  0  0  0
  9 38  1  0  0  0  0
  9 39  1  0  0  0  0
 10 11  1  0  0  0  0
 10 28  1  0  0  0  0
 11 16  1  0  0  0  0
 11 12  2  0  0  0  0
 12 13  1  0  0  0  0
 13 14  2  0  0  0  0
 13 40  1  0  0  0  0
 14 15  1  0  0  0  0
 15 19  1  0  0  0  0
 15 16  2  0  0  0  0
 16 17  1  0  0  0  0
 17 18  2  0  0  0  0
 18 19  1  0  0  0  0
 18 41  1  0  0  0  0
 19 20  1  0  0  0  0
 20 21  1  0  0  0  0
 20 42  1  0  0  0  0
 20 43  1  0  0  0  0
 21 27  1  0  0  0  0
 21 22  1  0  0  0  0
 21 23  1  0  0  0  0
 22 44  1  0  0  0  0
 23 24  1  0  0  0  0
 23 45  1  0  0  0  0
 23 46  1  0  0  0  0
 24 25  1  0  0  0  0
 24 47  1  0  0  0  0
 24 48  1  0  0  0  0
 25 26  1  0  0  0  0
 26 27  1  0  0  0  0
 26 49  1  0  0  0  0
 26 50  1  0  0  0  0
 27 51  1  0  0  0  0
 27 52  1  0  0  0  0
 28 29  1  0  0  0  0
 28 53  1  0  0  0  0
 28 54  1  0  0  0  0
 29 55  1  0  0  0  0
 29 56  1  0  0  0  0
M  END
> <s_m_source_file>
AV-unprocessed.smi

> <i_m_source_file_index>
88

> <i_lp_mmshare_version>
43012

> <i_f3d_flags>
0

> <s_epik_input>
W0NIMl0xW05IXUMoPU8pTihbQ0gzXSlDMTJbQ0gyXVtDSDJdTihbQ0gyXVtDSDJdMiljKG5bY0hdbjMpYyhjMzQpbltjSF1uNFtDSDJdQzUoW09IXSlbQ0gyXVtDSDJdT1tDSDJdW0NIMl01

> <s_epik_cmdline>
J2VwaWtfcHl0aG9uJywgJy1waCcsICc3LjAnLCAnLXRuJywgJzgnLCAnLW1hJywgJzIwMCcsICctbWV0YWxfYmluZGluZycsICctaW1hZScsICc8aW5maWxlLm1hZT4nLCAnLW9tYWUnLCAnPG91dGZpbGUubWFlPic=

> <r_lp_tautomer_probability>
1

> <r_epik_Ionization_Penalty>
0.00363326

> <r_epik_Ionization_Penalty_Charging>
0

> <r_epik_Ionization_Penalty_Neutral>
0.00363326

> <r_epik_State_Penalty>
0.00246926

> <r_epik_Charging_Adjusted_Penalty>
0.00246926

> <i_epik_Tot_Q>
0

> <i_epik_Tot_abs_Q>
0

> <r_epik_Metal_State_Penalty>
-0

> <b_epik_Metal_Only>
0

> <s_lp_Force_Field>
OPLS_2005

> <r_lp_Energy>
63.3868

> <b_lp_Chiralities_Consistent>
1

> <s_lp_Variant>
AV-unprocessed.smi:88-1

> <Gold.Version>
5.8.1

> <Gold.Id.Protein>
6NUR|6NUR_protein|mol2

> <Gold.PLP.Fitness>
46.0710

> <Gold.PLP.PLP>
-39.8294

> <Gold.PLP.part.hbond>
-2.9197

> <Gold.PLP.part.metal>
0.0000

> <Gold.PLP.part.buried>
-6.3278

> <Gold.PLP.part.nonpolar>
-31.3135

> <Gold.PLP.part.repulsive>
0.5384

> <Gold.PLP.ligand.clash>
0.0000

> <Gold.PLP.ligand.torsion>
0.5837

> <Gold.PLP.Chemscore.Hbond>
2.4069

> <Gold.PLP.Chemscore.CHOScore>
0.0000

> <Gold.PLP.Chemscore.Metal>
0.0000

> <Gold.Chemscore.Hbonds>
donor molecule, donor type, donor heavy atom, donor atom, acceptor molecule, acceptor atom, score
      L1  H     5    33       P1 10186  0.59
      P1  H  6896  6907       L1    14  0.24
      P1  H  6931  6943       L1    25  0.83
      P1  H 10785 10796       L1     4  0.30

> <Gold.PLP.Chemscore.Internal.Correction>
0.1885

> <Gold.Rescore>
     Score         DG    S(hbond)    S(metal)    S(lipo)     H(rot)  DE(clash)    DE(int)     intcor
     14.52     -17.86       2.53        0.00      81.46       2.18       1.35       2.00       ----

> <Gold.Chemscore.Fitness>
14.5156

> <Gold.Chemscore.DG>
-17.8590

> <Gold.Chemscore.ZeroCoef>
-5.4800

> <Gold.Chemscore.Hbond>
2.5266

> <Gold.Chemscore.Metal>
0.0000

> <Gold.Chemscore.Lipo>
81.4591

> <Gold.Chemscore.Internal_Hbond>
0.0000

> <Gold.Chemscore.DEClash>
1.3462

> <Gold.Chemscore.DEInternal>
1.9972

> <Gold.Chemscore.Rot>
2.1838

> <Gold.Chemscore.Internal.Correction>
   9.000000E+99

> <Gold.Chemscore.Hbonds>
donor molecule, donor type, donor heavy atom, donor atom, acceptor molecule, acceptor atom, score
      L1  H     5    33       P1 10186  0.51
      P1  H  6896  6907       L1    14  0.25
      P1  H  6931  6943       L1    25  0.24
      P1  H 10785 10796       L1     4  0.09

> <Gold.Chemscore.Hbond.Weighted>
-8.4388

> <Gold.Chemscore.Metal.Weighted>
-0.0000

> <Gold.Chemscore.Lipo.Weighted>
-9.5307

> <Gold.Chemscore.Internal_Hbond.Weighted>
0.0000

> <Gold.Chemscore.DEClash.Weighted>
1.3462

> <Gold.Chemscore.DEInternal.Weighted>
1.9972

> <Gold.Chemscore.Rot.Weighted>
5.5905

> <Gold.Chemscore.Internal.Correction.Weighted>
   9.000000E+99

> <Gold.Protein.RotatedTorsions>
[ 6907 6896 6895 6894 ] final -120.03 input  -60.11 | X-H torsion
[ 7974 7965 7964 7962 ] final   46.76 input  175.53 | X-H torsion
[ 8008 7997 7996 7995 ] final    9.11 input   59.86 | X-H torsion
[ 10167 10162 10161 10158 ] final   86.31 input  -65.29 | X-H torsion
[ 10718 10713 10712 10709 ] final  -67.51 input   66.30 | X-H torsion
[ 10763 10752 10751 10750 ] final  123.44 input  -60.55 | X-H torsion
[ 11005 11000 10999 10996 ] final -148.45 input  -57.11 | X-H torsion

> <Gold.Protein.ActiveResidues>
 VAL166  LYS551  ARG553  GLY616  TRP617  ASP618  TYR619  PRO620  LYS621  CYS622 
 ASP623  PHE694  ASN695  SER759  ASP760  ASP761  ALA762  ILE779  LEU786  VAL792 
 PHE793  MET794  SER795  GLU796  ALA797  LYS798  CYS799  TRP800  GLU811  SER814 

> <Gold.Protein.RotatedAtoms>
  150.8357  133.8017  159.3080 H   0  0  0  0  0  0  0  0  0  0  0  0  # atno 6907 bound_to 6896
  151.5734  135.1060  160.0010 H   0  0  0  0  0  0  0  0  0  0  0  0  # atno 6908 bound_to 6896
  152.4430  133.7441  159.6714 H   0  0  0  0  0  0  0  0  0  0  0  0  # atno 6909 bound_to 6896
  146.0360  139.4822  142.9808 H   0  0  0  0  0  0  0  0  0  0  0  0  # atno 7974 bound_to 7965
  154.7757  140.2810  155.6103 H   0  0  0  0  0  0  0  0  0  0  0  0  # atno 8008 bound_to 7997
  156.2941  140.2633  156.2498 H   0  0  0  0  0  0  0  0  0  0  0  0  # atno 8009 bound_to 7997
  154.9846  140.0374  157.2282 H   0  0  0  0  0  0  0  0  0  0  0  0  # atno 8010 bound_to 7997
  139.8889  144.6397  150.8761 H   0  0  0  0  0  0  0  0  0  0  0  0  # atno 10167 bound_to 10162
  156.0554  130.4279  150.1865 H   0  0  0  0  0  0  0  0  0  0  0  0  # atno 10718 bound_to 10713
  153.6455  135.3372  155.3084 H   0  0  0  0  0  0  0  0  0  0  0  0  # atno 10763 bound_to 10752
  154.8550  135.4328  154.1959 H   0  0  0  0  0  0  0  0  0  0  0  0  # atno 10764 bound_to 10752
  153.2889  135.7015  153.7387 H   0  0  0  0  0  0  0  0  0  0  0  0  # atno 10765 bound_to 10752
  140.7611  134.3297  157.5101 H   0  0  0  0  0  0  0  0  0  0  0  0  # atno 11005 bound_to 11000
  145.6962  141.0149  143.1529 LP  0  0  0  0  0  0  0  0  0  0  0  0  # atno 17320 bound_to 7965
  144.7052  139.8591  143.7432 LP  0  0  0  0  0  0  0  0  0  0  0  0  # atno 17321 bound_to 7965
  140.7730  143.3526  151.1984 LP  0  0  0  0  0  0  0  0  0  0  0  0  # atno 17342 bound_to 10162
  139.7128  143.9349  152.2954 LP  0  0  0  0  0  0  0  0  0  0  0  0  # atno 17343 bound_to 10162
  156.9942  130.9902  151.3407 LP  0  0  0  0  0  0  0  0  0  0  0  0  # atno 17370 bound_to 10713
  157.5519  130.8188  149.8155 LP  0  0  0  0  0  0  0  0  0  0  0  0  # atno 17371 bound_to 10713
  139.8770  134.9203  156.3247 LP  0  0  0  0  0  0  0  0  0  0  0  0  # atno 17394 bound_to 11000
  140.9662  133.7357  156.0470 LP  0  0  0  0  0  0  0  0  0  0  0  0  # atno 17395 bound_to 11000

$$$$
