AV-unprocessed.smi:1795|AV-procd|sdf|7248|dock6
  -GOLD-   22720 8503D 1   1.00000     0.00000
 Structure written by MMmdl.
 48 49  0  0  0  0  0  0  0  0  2 V2000
  146.9727  133.2803  150.5888 C   0  0  0  0  0  0  0  0  0  0  0  0
  146.4785  132.6909  151.9221 C   0  0  1  0  0  0  0  0  0  0  0  0
  147.4313  132.9597  153.1050 C   0  0  0  0  0  0  0  0  0  0  0  0
  147.3520  134.3689  153.5816 N   0  3  2  0  0  0  0  0  0  0  0  0
  148.2664  134.7146  154.7208 C   0  0  2  0  0  0  0  0  0  0  0  0
  148.1913  133.6295  155.8206 C   0  0  0  0  0  0  0  0  0  0  0  0
  147.9929  136.1163  155.3381 C   0  0  0  0  0  0  0  0  0  0  0  0
  148.9171  137.1437  154.8654 N   0  0  0  0  0  0  0  0  0  0  0  0
  150.2549  137.0502  154.9100 C   0  0  0  0  0  0  0  0  0  0  0  0
  150.8442  136.0800  155.3881 O   0  0  0  0  0  0  0  0  0  0  0  0
  151.0369  138.2458  154.3485 C   0  0  0  0  0  0  0  0  0  0  0  0
  150.7241  139.5122  155.0315 N   0  0  0  0  0  0  0  0  0  0  0  0
  149.5818  140.2129  154.5954 C   0  0  0  0  0  0  0  0  0  0  0  0
  149.2050  141.3742  155.1537 C   0  0  0  0  0  0  0  0  0  0  0  0
  150.0064  141.9058  156.2306 C   0  0  0  0  0  0  0  0  0  0  0  0
  151.0991  141.2420  156.6578 C   0  0  0  0  0  0  0  0  0  0  0  0
  151.5124  139.9704  156.0529 C   0  0  0  0  0  0  0  0  0  0  0  0
  152.5056  139.3538  156.4407 O   0  0  0  0  0  0  0  0  0  0  0  0
  145.9320  134.7123  153.8638 C   0  0  0  0  0  0  0  0  0  0  0  0
  145.0449  134.4705  152.6309 C   0  0  2  0  0  0  0  0  0  0  0  0
  143.5673  134.7592  152.9192 C   0  0  0  0  0  0  0  0  0  0  0  0
  145.1533  133.1083  152.2374 O   0  0  0  0  0  0  0  0  0  0  0  0
  147.9223  132.8315  150.2966 H   0  0  0  0  0  0  0  0  0  0  0  0
  147.1284  134.3573  150.6430 H   0  0  0  0  0  0  0  0  0  0  0  0
  146.2582  133.0841  149.7890 H   0  0  0  0  0  0  0  0  0  0  0  0
  146.4248  131.6105  151.7827 H   0  0  0  0  0  0  0  0  0  0  0  0
  147.1881  132.2923  153.9336 H   0  0  0  0  0  0  0  0  0  0  0  0
  148.4382  132.7099  152.7732 H   0  0  0  0  0  0  0  0  0  0  0  0
  149.2829  134.7295  154.3239 H   0  0  0  0  0  0  0  0  0  0  0  0
  148.8541  133.8521  156.6566 H   0  0  0  0  0  0  0  0  0  0  0  0
  148.4909  132.6454  155.4657 H   0  0  0  0  0  0  0  0  0  0  0  0
  147.1797  133.5442  156.2189 H   0  0  0  0  0  0  0  0  0  0  0  0
  146.9866  136.4680  155.1078 H   0  0  0  0  0  0  0  0  0  0  0  0
  148.0684  136.0687  156.4248 H   0  0  0  0  0  0  0  0  0  0  0  0
  148.5118  137.9766  154.4628 H   0  0  0  0  0  0  0  0  0  0  0  0
  152.1084  138.0440  154.4082 H   0  0  0  0  0  0  0  0  0  0  0  0
  150.8202  138.3215  153.2821 H   0  0  0  0  0  0  0  0  0  0  0  0
  149.0333  139.7447  153.7909 H   0  0  0  0  0  0  0  0  0  0  0  0
  148.3238  141.8953  154.8091 H   0  0  0  0  0  0  0  0  0  0  0  0
  149.7280  142.8396  156.6966 H   0  0  0  0  0  0  0  0  0  0  0  0
  151.6859  141.6548  157.4654 H   0  0  0  0  0  0  0  0  0  0  0  0
  145.5752  134.1155  154.7052 H   0  0  0  0  0  0  0  0  0  0  0  0
  145.8299  135.7558  154.1539 H   0  0  0  0  0  0  0  0  0  0  0  0
  145.3615  135.1217  151.8160 H   0  0  0  0  0  0  0  0  0  0  0  0
  143.4209  135.7965  153.2219 H   0  0  0  0  0  0  0  0  0  0  0  0
  143.1873  134.1207  153.7173 H   0  0  0  0  0  0  0  0  0  0  0  0
  142.9564  134.5836  152.0335 H   0  0  0  0  0  0  0  0  0  0  0  0
  147.6434  134.9408  152.8016 H   0  0  0  0  0  0  0  0  0  0  0  0
  1  2  1  0  0  0  0
  1 23  1  0  0  0  0
  1 24  1  0  0  0  0
  1 25  1  0  0  0  0
  2 22  1  0  0  0  0
  2  3  1  0  0  0  0
  2 26  1  0  0  0  0
  3  4  1  0  0  0  0
  3 27  1  0  0  0  0
  3 28  1  0  0  0  0
  4  5  1  0  0  0  0
  4 19  1  0  0  0  0
  4 48  1  0  0  0  0
  5  6  1  0  0  0  0
  5  7  1  0  0  0  0
  5 29  1  0  0  0  0
  6 30  1  0  0  0  0
  6 31  1  0  0  0  0
  6 32  1  0  0  0  0
  7  8  1  0  0  0  0
  7 33  1  0  0  0  0
  7 34  1  0  0  0  0
  8  9  1  0  0  0  0
  8 35  1  0  0  0  0
  9 10  2  0  0  0  0
  9 11  1  0  0  0  0
 11 12  1  0  0  0  0
 11 36  1  0  0  0  0
 11 37  1  0  0  0  0
 12 17  1  0  0  0  0
 12 13  1  0  0  0  0
 13 14  2  0  0  0  0
 13 38  1  0  0  0  0
 14 15  1  0  0  0  0
 14 39  1  0  0  0  0
 15 16  2  0  0  0  0
 15 40  1  0  0  0  0
 16 17  1  0  0  0  0
 16 41  1  0  0  0  0
 17 18  2  0  0  0  0
 19 20  1  0  0  0  0
 19 42  1  0  0  0  0
 19 43  1  0  0  0  0
 20 21  1  0  0  0  0
 20 22  1  0  0  0  0
 20 44  1  0  0  0  0
 21 45  1  0  0  0  0
 21 46  1  0  0  0  0
 21 47  1  0  0  0  0
M  CHG  1   4   1
M  END
> <s_m_source_file>
AV-unprocessed.smi

> <i_m_source_file_index>
1795

> <i_lp_mmshare_version>
43012

> <i_f3d_flags>
0

> <s_epik_input>
W0NIM11bQ0BASF0xW0NIMl1OKFtDSDJdW0NASF0oTzEpW0NIM10pW0NASF0oW0NIM10pW0NIMl1bTkhdQyg9TylbQ0gyXW4yW2NIXVtjSF1bY0hdW2NIXWMyPU8=

> <s_epik_cmdline>
J2VwaWtfcHl0aG9uJywgJy1waCcsICc3LjAnLCAnLXRuJywgJzgnLCAnLW1hJywgJzIwMCcsICctbWV0YWxfYmluZGluZycsICctaW1hZScsICc8aW5maWxlLm1hZT4nLCAnLW9tYWUnLCAnPG91dGZpbGUubWFlPic=

> <r_lp_tautomer_probability>
1

> <r_epik_Ionization_Penalty>
0.656654

> <r_epik_Ionization_Penalty_Charging>
0.656654

> <r_epik_Ionization_Penalty_Neutral>
8.90321e-08

> <r_epik_State_Penalty>
0.675641

> <r_epik_Charging_Adjusted_Penalty>
1.33229

> <i_epik_Tot_Q>
1

> <i_epik_Tot_abs_Q>
1

> <r_epik_Metal_State_Penalty>
0.675691

> <b_epik_Metal_Only>
0

> <s_lp_Force_Field>
OPLS_2005

> <r_lp_Energy>
31.4881

> <b_lp_Chiralities_Consistent>
1

> <s_lp_Variant>
AV-unprocessed.smi:1795-12

> <Gold.Version>
5.8.1

> <Gold.Id.Protein>
6NUR|6NUR_protein|mol2

> <Gold.PLP.Fitness>
47.3875

> <Gold.PLP.PLP>
-35.0284

> <Gold.PLP.part.hbond>
-4.0000

> <Gold.PLP.part.metal>
0.0000

> <Gold.PLP.part.buried>
0.1879

> <Gold.PLP.part.nonpolar>
-28.5629

> <Gold.PLP.part.repulsive>
0.2073

> <Gold.PLP.ligand.clash>
0.0000

> <Gold.PLP.ligand.torsion>
1.1740

> <Gold.PLP.Chemscore.Hbond>
3.9913

> <Gold.PLP.Chemscore.CHOScore>
0.8941

> <Gold.PLP.Chemscore.Metal>
0.0000

> <Gold.Chemscore.Hbonds>
donor molecule, donor type, donor heavy atom, donor atom, acceptor molecule, acceptor atom, score
      L1  H     4    48       P1  7948  1.95
      P1  H  7997  8009       L1    18  1.00
      P1  H 10752 10764       L1    10  0.37
      L1  C    13    38       P1  7957  0.50

> <Gold.PLP.Chemscore.Internal.Correction>
0.0512

> <Gold.Rescore>
     Score         DG    S(hbond)    S(metal)    S(lipo)     H(rot)  DE(clash)    DE(int)     intcor
     16.75     -18.73       2.87        0.00      72.56       1.89       0.07       1.91       ----

> <Gold.Chemscore.Fitness>
16.7506

> <Gold.Chemscore.DG>
-18.7271

> <Gold.Chemscore.ZeroCoef>
-5.4800

> <Gold.Chemscore.Hbond>
2.8707

> <Gold.Chemscore.Metal>
0.0000

> <Gold.Chemscore.Lipo>
72.5627

> <Gold.Chemscore.Internal_Hbond>
0.0000

> <Gold.Chemscore.DEClash>
0.0672

> <Gold.Chemscore.DEInternal>
1.9092

> <Gold.Chemscore.Rot>
1.8870

> <Gold.Chemscore.Internal.Correction>
   9.000000E+99

> <Gold.Chemscore.Hbonds>
donor molecule, donor type, donor heavy atom, donor atom, acceptor molecule, acceptor atom, score
      L1  H     4    48       P1  7948  0.88
      P1  H  7997  8009       L1    18  0.96
      P1  H 10752 10764       L1    10  0.37

> <Gold.Chemscore.Hbond.Weighted>
-9.5880

> <Gold.Chemscore.Metal.Weighted>
-0.0000

> <Gold.Chemscore.Lipo.Weighted>
-8.4898

> <Gold.Chemscore.Internal_Hbond.Weighted>
0.0000

> <Gold.Chemscore.DEClash.Weighted>
0.0672

> <Gold.Chemscore.DEInternal.Weighted>
1.9092

> <Gold.Chemscore.Rot.Weighted>
4.8308

> <Gold.Chemscore.Internal.Correction.Weighted>
   9.000000E+99

> <Gold.Protein.RotatedTorsions>
[ 6907 6896 6895 6894 ] final   16.89 input  -60.11 | X-H torsion
[ 7974 7965 7964 7962 ] final   40.67 input  175.53 | X-H torsion
[ 8008 7997 7996 7995 ] final -161.46 input   59.86 | X-H torsion
[ 10167 10162 10161 10158 ] final  150.40 input  -65.29 | X-H torsion
[ 10718 10713 10712 10709 ] final -155.31 input   66.30 | X-H torsion
[ 10763 10752 10751 10750 ] final  -50.86 input  -60.55 | X-H torsion
[ 11005 11000 10999 10996 ] final   25.09 input  -57.11 | X-H torsion

> <Gold.Protein.ActiveResidues>
 VAL166  LYS551  ARG553  GLY616  TRP617  ASP618  TYR619  PRO620  LYS621  CYS622 
 ASP623  PHE694  ASN695  SER759  ASP760  ASP761  ALA762  ILE779  LEU786  VAL792 
 PHE793  MET794  SER795  GLU796  ALA797  LYS798  CYS799  TRP800  GLU811  SER814 

> <Gold.Protein.RotatedAtoms>
  151.8410  135.0590  160.0447 H   0  0  0  0  0  0  0  0  0  0  0  0  # atno 6907 bound_to 6896
  152.2809  133.5465  159.5505 H   0  0  0  0  0  0  0  0  0  0  0  0  # atno 6908 bound_to 6896
  150.7189  134.0482  159.3831 H   0  0  0  0  0  0  0  0  0  0  0  0  # atno 6909 bound_to 6896
  146.0886  139.5505  142.9491 H   0  0  0  0  0  0  0  0  0  0  0  0  # atno 7974 bound_to 7965
  155.7925  140.0880  157.2001 H   0  0  0  0  0  0  0  0  0  0  0  0  # atno 8008 bound_to 7997
  154.3985  140.1487  156.3237 H   0  0  0  0  0  0  0  0  0  0  0  0  # atno 8009 bound_to 7997
  155.8545  140.3433  155.5717 H   0  0  0  0  0  0  0  0  0  0  0  0  # atno 8010 bound_to 7997
  139.4850  144.5525  151.7375 H   0  0  0  0  0  0  0  0  0  0  0  0  # atno 10167 bound_to 10162
  156.5111  130.8435  151.2647 H   0  0  0  0  0  0  0  0  0  0  0  0  # atno 10718 bound_to 10713
  154.1172  135.6540  153.4896 H   0  0  0  0  0  0  0  0  0  0  0  0  # atno 10763 bound_to 10752
  153.0237  135.5261  154.7133 H   0  0  0  0  0  0  0  0  0  0  0  0  # atno 10764 bound_to 10752
  154.6330  135.2978  155.0164 H   0  0  0  0  0  0  0  0  0  0  0  0  # atno 10765 bound_to 10752
  140.3516  134.2222  155.7679 H   0  0  0  0  0  0  0  0  0  0  0  0  # atno 11005 bound_to 11000
  145.6083  141.0344  143.1980 LP  0  0  0  0  0  0  0  0  0  0  0  0  # atno 17320 bound_to 7965
  144.7343  139.7631  143.7335 LP  0  0  0  0  0  0  0  0  0  0  0  0  # atno 17321 bound_to 7965
  140.5082  144.1066  150.5988 LP  0  0  0  0  0  0  0  0  0  0  0  0  # atno 17342 bound_to 10162
  140.3982  143.2717  151.9979 LP  0  0  0  0  0  0  0  0  0  0  0  0  # atno 17343 bound_to 10162
  157.7450  130.9949  150.2725 LP  0  0  0  0  0  0  0  0  0  0  0  0  # atno 17370 bound_to 10713
  156.3239  130.3790  149.7550 LP  0  0  0  0  0  0  0  0  0  0  0  0  # atno 17371 bound_to 10713
  141.2010  133.7973  157.0460 LP  0  0  0  0  0  0  0  0  0  0  0  0  # atno 17394 bound_to 11000
  140.0698  134.9708  157.1448 LP  0  0  0  0  0  0  0  0  0  0  0  0  # atno 17395 bound_to 11000

$$$$
