AV-unprocessed.smi:1919|AV-procd|sdf|7773|dock2
  -GOLD-   22720 9513D 1   1.00000     0.00000
 Structure written by MMmdl.
 36 38  0  0  0  0  0  0  0  0  1 V2000
  153.4115  139.2962  155.0079 O   0  0  0  0  0  0  0  0  0  0  0  0
  152.2847  138.7411  155.6506 C   0  0  0  0  0  0  0  0  0  0  0  0
  150.9859  139.2601  155.1113 C   0  0  0  0  0  0  0  0  0  0  0  0
  150.1821  138.4957  154.3708 N   0  0  0  0  0  0  0  0  0  0  0  0
  149.1145  139.3331  154.1152 C   0  0  0  0  0  0  0  0  0  0  0  0
  147.9268  139.1096  153.3823 C   0  0  0  0  0  0  0  0  0  0  0  0
  146.9584  140.1281  153.2644 C   0  0  0  0  0  0  0  0  0  0  0  0
  147.1627  141.3816  153.8765 C   0  0  0  0  0  0  0  0  0  0  0  0
  148.3400  141.6255  154.6093 C   0  0  0  0  0  0  0  0  0  0  0  0
  149.3055  140.6066  154.7212 C   0  0  0  0  0  0  0  0  0  0  0  0
  150.5450  140.5228  155.3484 N   0  0  0  0  0  0  0  0  0  0  0  0
  151.1882  141.5889  156.1073 C   0  0  0  0  0  0  0  0  0  0  0  0
  151.5447  141.1665  157.5476 C   0  0  2  0  0  0  0  0  0  0  0  0
  150.5496  140.3042  158.0631 O   0  0  0  0  0  0  0  0  0  0  0  0
  151.7760  142.3804  158.4335 C   0  0  0  0  0  0  0  0  0  0  0  0
  151.6211  143.6882  157.9224 C   0  0  0  0  0  0  0  0  0  0  0  0
  151.8500  144.8051  158.7495 C   0  0  0  0  0  0  0  0  0  0  0  0
  152.2377  144.6213  160.0906 C   0  0  0  0  0  0  0  0  0  0  0  0
  152.3988  143.3200  160.6038 C   0  0  0  0  0  0  0  0  0  0  0  0
  152.7763  143.1422  161.8917 F   0  0  0  0  0  0  0  0  0  0  0  0
  152.1694  142.2030  159.7773 C   0  0  0  0  0  0  0  0  0  0  0  0
  153.5691  138.8154  154.2101 H   0  0  0  0  0  0  0  0  0  0  0  0
  152.3181  137.6580  155.5267 H   0  0  0  0  0  0  0  0  0  0  0  0
  152.3406  138.9309  156.7224 H   0  0  0  0  0  0  0  0  0  0  0  0
  147.7598  138.1521  152.9117 H   0  0  0  0  0  0  0  0  0  0  0  0
  146.0535  139.9456  152.7035 H   0  0  0  0  0  0  0  0  0  0  0  0
  146.4152  142.1556  153.7833 H   0  0  0  0  0  0  0  0  0  0  0  0
  148.4982  142.5840  155.0805 H   0  0  0  0  0  0  0  0  0  0  0  0
  152.0944  141.8752  155.5719 H   0  0  0  0  0  0  0  0  0  0  0  0
  150.5531  142.4737  156.1213 H   0  0  0  0  0  0  0  0  0  0  0  0
  152.4676  140.5862  157.5301 H   0  0  0  0  0  0  0  0  0  0  0  0
  149.9633  140.0681  157.3607 H   0  0  0  0  0  0  0  0  0  0  0  0
  151.3294  143.8390  156.8932 H   0  0  0  0  0  0  0  0  0  0  0  0
  151.7302  145.8032  158.3544 H   0  0  0  0  0  0  0  0  0  0  0  0
  152.4135  145.4778  160.7246 H   0  0  0  0  0  0  0  0  0  0  0  0
  152.2998  141.2086  160.1786 H   0  0  0  0  0  0  0  0  0  0  0  0
  1  2  1  0  0  0  0
  1 22  1  0  0  0  0
  2  3  1  0  0  0  0
  2 23  1  0  0  0  0
  2 24  1  0  0  0  0
  3 11  1  0  0  0  0
  3  4  2  0  0  0  0
  4  5  1  0  0  0  0
  5 10  2  0  0  0  0
  5  6  1  0  0  0  0
  6  7  2  0  0  0  0
  6 25  1  0  0  0  0
  7  8  1  0  0  0  0
  7 26  1  0  0  0  0
  8  9  2  0  0  0  0
  8 27  1  0  0  0  0
  9 10  1  0  0  0  0
  9 28  1  0  0  0  0
 10 11  1  0  0  0  0
 11 12  1  0  0  0  0
 12 13  1  0  0  0  0
 12 29  1  0  0  0  0
 12 30  1  0  0  0  0
 13 14  1  0  0  0  0
 13 15  1  0  0  0  0
 13 31  1  0  0  0  0
 14 32  1  0  0  0  0
 15 21  1  0  0  0  0
 15 16  2  0  0  0  0
 16 17  1  0  0  0  0
 16 33  1  0  0  0  0
 17 18  2  0  0  0  0
 17 34  1  0  0  0  0
 18 19  1  0  0  0  0
 18 35  1  0  0  0  0
 19 20  1  0  0  0  0
 19 21  2  0  0  0  0
 21 36  1  0  0  0  0
M  END
> <s_m_source_file>
AV-unprocessed.smi

> <i_m_source_file_index>
1919

> <i_lp_mmshare_version>
43012

> <i_f3d_flags>
0

> <s_epik_input>
W2NIXTFbY0hdW2NIXVtjSF1jKGMxMiluKGMobjIpW0NIMl1bT0hdKVtDSDJdW0NASF0oW09IXSljM1tjSF1bY0hdW2NIXWMoRilbY0hdMw==

> <s_epik_cmdline>
J2VwaWtfcHl0aG9uJywgJy1waCcsICc3LjAnLCAnLXRuJywgJzgnLCAnLW1hJywgJzIwMCcsICctbWV0YWxfYmluZGluZycsICctaW1hZScsICc8aW5maWxlLm1hZT4nLCAnLW9tYWUnLCAnPG91dGZpbGUubWFlPic=

> <r_epik_Ionization_Penalty>
0.0634732

> <r_epik_Ionization_Penalty_Charging>
0

> <r_epik_Ionization_Penalty_Neutral>
0.0634732

> <r_epik_State_Penalty>
0.0551572

> <r_epik_Charging_Adjusted_Penalty>
0.0551572

> <i_epik_Tot_Q>
0

> <i_epik_Tot_abs_Q>
0

> <r_epik_Metal_State_Penalty>
5.78034e-05

> <b_epik_Metal_Only>
0

> <s_lp_Force_Field>
OPLS_2005

> <r_lp_Energy>
10.9146

> <b_lp_Chiralities_Consistent>
1

> <s_lp_Variant>
AV-unprocessed.smi:1919-1

> <Gold.Version>
5.8.1

> <Gold.Id.Protein>
6NUR|6NUR_protein|mol2

> <Gold.PLP.Fitness>
54.1098

> <Gold.PLP.PLP>
-51.7441

> <Gold.PLP.part.hbond>
-1.0000

> <Gold.PLP.part.metal>
0.0000

> <Gold.PLP.part.buried>
-3.4396

> <Gold.PLP.part.nonpolar>
-47.3139

> <Gold.PLP.part.repulsive>
0.2040

> <Gold.PLP.ligand.clash>
0.0000

> <Gold.PLP.ligand.torsion>
0.3636

> <Gold.PLP.Chemscore.Hbond>
1.0000

> <Gold.PLP.Chemscore.CHOScore>
0.0000

> <Gold.PLP.Chemscore.Metal>
0.0000

> <Gold.Chemscore.Hbonds>
donor molecule, donor type, donor heavy atom, donor atom, acceptor molecule, acceptor atom, score
      P1  H  7997  8010       L1     1  1.00

> <Gold.PLP.Chemscore.Internal.Correction>
0.0929

> <Gold.Rescore>
     Score         DG    S(hbond)    S(metal)    S(lipo)     H(rot)  DE(clash)    DE(int)     intcor
     16.53     -17.11       0.99        0.00     131.42       2.75       0.25       0.33       ----

> <Gold.Chemscore.Fitness>
16.5305

> <Gold.Chemscore.DG>
-17.1091

> <Gold.Chemscore.ZeroCoef>
-5.4800

> <Gold.Chemscore.Hbond>
0.9858

> <Gold.Chemscore.Metal>
0.0000

> <Gold.Chemscore.Lipo>
131.4240

> <Gold.Chemscore.Internal_Hbond>
0.0000

> <Gold.Chemscore.DEClash>
0.2455

> <Gold.Chemscore.DEInternal>
0.3330

> <Gold.Chemscore.Rot>
2.7500

> <Gold.Chemscore.Internal.Correction>
   9.000000E+99

> <Gold.Chemscore.Hbonds>
donor molecule, donor type, donor heavy atom, donor atom, acceptor molecule, acceptor atom, score
      P1  H  7997  8010       L1     1  0.98

> <Gold.Chemscore.Hbond.Weighted>
-3.2924

> <Gold.Chemscore.Metal.Weighted>
-0.0000

> <Gold.Chemscore.Lipo.Weighted>
-15.3766

> <Gold.Chemscore.Internal_Hbond.Weighted>
0.0000

> <Gold.Chemscore.DEClash.Weighted>
0.2455

> <Gold.Chemscore.DEInternal.Weighted>
0.3330

> <Gold.Chemscore.Rot.Weighted>
7.0399

> <Gold.Chemscore.Internal.Correction.Weighted>
   9.000000E+99

> <Gold.Protein.RotatedTorsions>
[ 6907 6896 6895 6894 ] final   69.99 input  -60.11 | X-H torsion
[ 7974 7965 7964 7962 ] final   26.16 input  175.53 | X-H torsion
[ 8008 7997 7996 7995 ] final  109.47 input   59.86 | X-H torsion
[ 10167 10162 10161 10158 ] final  -65.51 input  -65.29 | X-H torsion
[ 10718 10713 10712 10709 ] final  -27.36 input   66.30 | X-H torsion
[ 10763 10752 10751 10750 ] final   55.23 input  -60.55 | X-H torsion
[ 11005 11000 10999 10996 ] final    1.82 input  -57.11 | X-H torsion

> <Gold.Protein.ActiveResidues>
 VAL166  LYS551  ARG553  GLY616  TRP617  ASP618  TYR619  PRO620  LYS621  CYS622 
 ASP623  PHE694  ASN695  SER759  ASP760  ASP761  ALA762  ILE779  LEU786  VAL792 
 PHE793  MET794  SER795  GLU796  ALA797  LYS798  CYS799  TRP800  GLU811  SER814 

> <Gold.Protein.RotatedAtoms>
  152.4721  134.4935  159.9702 H   0  0  0  0  0  0  0  0  0  0  0  0  # atno 6907 bound_to 6896
  151.4959  133.3509  159.2869 H   0  0  0  0  0  0  0  0  0  0  0  0  # atno 6908 bound_to 6896
  150.8737  134.8143  159.7235 H   0  0  0  0  0  0  0  0  0  0  0  0  # atno 6909 bound_to 6896
  146.1852  139.7366  142.8872 H   0  0  0  0  0  0  0  0  0  0  0  0  # atno 7974 bound_to 7965
  156.1982  140.3057  155.9470 H   0  0  0  0  0  0  0  0  0  0  0  0  # atno 8008 bound_to 7997
  155.3017  140.0447  157.3047 H   0  0  0  0  0  0  0  0  0  0  0  0  # atno 8009 bound_to 7997
  154.5536  140.2299  155.8455 H   0  0  0  0  0  0  0  0  0  0  0  0  # atno 8010 bound_to 7997
  140.5724  143.2319  151.6510 H   0  0  0  0  0  0  0  0  0  0  0  0  # atno 10167 bound_to 10162
  156.4392  130.4461  149.7064 H   0  0  0  0  0  0  0  0  0  0  0  0  # atno 10718 bound_to 10713
  152.9814  135.5718  154.5033 H   0  0  0  0  0  0  0  0  0  0  0  0  # atno 10763 bound_to 10752
  154.4548  135.2779  155.1757 H   0  0  0  0  0  0  0  0  0  0  0  0  # atno 10764 bound_to 10752
  154.3369  135.6237  153.5631 H   0  0  0  0  0  0  0  0  0  0  0  0  # atno 10765 bound_to 10752
  140.6111  133.9747  155.8178 H   0  0  0  0  0  0  0  0  0  0  0  0  # atno 11005 bound_to 11000
  145.3960  141.0379  143.3097 LP  0  0  0  0  0  0  0  0  0  0  0  0  # atno 17320 bound_to 7965
  144.8384  139.5512  143.6911 LP  0  0  0  0  0  0  0  0  0  0  0  0  # atno 17321 bound_to 7965
  139.5125  144.3475  152.0683 LP  0  0  0  0  0  0  0  0  0  0  0  0  # atno 17342 bound_to 10162
  140.2614  144.4063  150.6184 LP  0  0  0  0  0  0  0  0  0  0  0  0  # atno 17343 bound_to 10162
  156.3936  130.7639  151.2642 LP  0  0  0  0  0  0  0  0  0  0  0  0  # atno 17370 bound_to 10713
  157.7506  131.0260  150.3945 LP  0  0  0  0  0  0  0  0  0  0  0  0  # atno 17371 bound_to 10713
  141.0807  134.0067  157.3390 LP  0  0  0  0  0  0  0  0  0  0  0  0  # atno 17394 bound_to 11000
  139.9192  135.0199  156.7998 LP  0  0  0  0  0  0  0  0  0  0  0  0  # atno 17395 bound_to 11000

$$$$
