AV-unprocessed.smi:2309|AV-procd|sdf|9254|dock3
  -GOLD-   2272012473D 1   1.00000     0.00000
 Structure written by MMmdl.
 34 35  0  0  0  0  0  0  0  0  1 V2000
  146.3198  142.0826  154.1973 C   0  0  0  0  0  0  0  0  0  0  0  0
  147.4213  141.9111  155.2283 C   0  0  0  0  0  0  0  0  0  0  0  0
  148.7241  141.8844  154.7222 N   0  0  0  0  0  0  0  0  0  0  0  0
  149.7256  141.7386  155.5267 C   0  0  0  0  0  0  0  0  0  0  0  0
  149.5455  141.6066  156.9136 N   0  0  0  0  0  0  0  0  0  0  0  0
  150.7687  141.4397  157.7172 C   0  0  0  0  0  0  0  0  0  0  0  0
  151.5035  142.7782  157.9548 C   0  0  1  0  0  0  0  0  0  0  0  0
  150.5442  143.8186  157.9731 O   0  0  0  0  0  0  0  0  0  0  0  0
  152.3083  142.7307  159.2525 C   0  0  0  0  0  0  0  0  0  0  0  0
  153.1802  141.6432  159.4937 C   0  0  0  0  0  0  0  0  0  0  0  0
  153.9394  141.5791  160.6774 C   0  0  0  0  0  0  0  0  0  0  0  0
  154.9942  140.2424  160.9539 Cl  0  0  0  0  0  0  0  0  0  0  0  0
  153.8391  142.6064  161.6327 C   0  0  0  0  0  0  0  0  0  0  0  0
  152.9839  143.6984  161.3989 C   0  0  0  0  0  0  0  0  0  0  0  0
  152.2221  143.7691  160.2152 C   0  0  0  0  0  0  0  0  0  0  0  0
  151.2062  145.1482  159.9791 Cl  0  0  0  0  0  0  0  0  0  0  0  0
  148.3086  141.6210  157.4897 C   0  0  0  0  0  0  0  0  0  0  0  0
  148.1602  141.4994  158.7069 O   0  0  0  0  0  0  0  0  0  0  0  0
  147.1784  141.7873  156.5616 C   0  0  0  0  0  0  0  0  0  0  0  0
  145.7817  141.8059  157.1701 C   0  0  0  0  0  0  0  0  0  0  0  0
  145.7466  142.9881  154.3976 H   0  0  0  0  0  0  0  0  0  0  0  0
  145.6422  141.2285  154.2169 H   0  0  0  0  0  0  0  0  0  0  0  0
  146.7280  142.1624  153.1890 H   0  0  0  0  0  0  0  0  0  0  0  0
  150.7605  141.7049  155.1820 H   0  0  0  0  0  0  0  0  0  0  0  0
  150.5761  140.9357  158.6667 H   0  0  0  0  0  0  0  0  0  0  0  0
  151.4327  140.7573  157.1829 H   0  0  0  0  0  0  0  0  0  0  0  0
  152.1708  142.9969  157.1223 H   0  0  0  0  0  0  0  0  0  0  0  0
  150.1505  143.8782  157.1160 H   0  0  0  0  0  0  0  0  0  0  0  0
  153.2748  140.8502  158.7664 H   0  0  0  0  0  0  0  0  0  0  0  0
  154.4204  142.5614  162.5420 H   0  0  0  0  0  0  0  0  0  0  0  0
  152.9156  144.4890  162.1317 H   0  0  0  0  0  0  0  0  0  0  0  0
  145.5858  140.8667  157.6886 H   0  0  0  0  0  0  0  0  0  0  0  0
  144.9930  141.9437  156.4324 H   0  0  0  0  0  0  0  0  0  0  0  0
  145.6974  142.6167  157.8944 H   0  0  0  0  0  0  0  0  0  0  0  0
  1  2  1  0  0  0  0
  1 21  1  0  0  0  0
  1 22  1  0  0  0  0
  1 23  1  0  0  0  0
  2 19  2  0  0  0  0
  2  3  1  0  0  0  0
  3  4  2  0  0  0  0
  4  5  1  0  0  0  0
  4 24  1  0  0  0  0
  5  6  1  0  0  0  0
  5 17  1  0  0  0  0
  6  7  1  0  0  0  0
  6 25  1  0  0  0  0
  6 26  1  0  0  0  0
  7  8  1  0  0  0  0
  7  9  1  0  0  0  0
  7 27  1  0  0  0  0
  8 28  1  0  0  0  0
  9 15  1  0  0  0  0
  9 10  2  0  0  0  0
 10 11  1  0  0  0  0
 10 29  1  0  0  0  0
 11 12  1  0  0  0  0
 11 13  2  0  0  0  0
 13 14  1  0  0  0  0
 13 30  1  0  0  0  0
 14 15  2  0  0  0  0
 14 31  1  0  0  0  0
 15 16  1  0  0  0  0
 17 18  2  0  0  0  0
 17 19  1  0  0  0  0
 19 20  1  0  0  0  0
 20 32  1  0  0  0  0
 20 33  1  0  0  0  0
 20 34  1  0  0  0  0
M  END
> <s_m_source_file>
AV-unprocessed.smi

> <i_m_source_file_index>
2309

> <i_lp_mmshare_version>
43012

> <i_f3d_flags>
0

> <s_epik_input>
W0NIM11jMW5bY0hdbihjKD1PKWMxW0NIM10pW0NIMl1bQ0BIXShbT0hdKWMyW2NIXWMoQ2wpW2NIXVtjSF1jMkNs

> <s_epik_cmdline>
J2VwaWtfcHl0aG9uJywgJy1waCcsICc3LjAnLCAnLXRuJywgJzgnLCAnLW1hJywgJzIwMCcsICctbWV0YWxfYmluZGluZycsICctaW1hZScsICc8aW5maWxlLm1hZT4nLCAnLW9tYWUnLCAnPG91dGZpbGUubWFlPic=

> <r_lp_tautomer_probability>
1

> <r_epik_Ionization_Penalty>
5.09224e-05

> <r_epik_Ionization_Penalty_Charging>
7.56727e-08

> <r_epik_Ionization_Penalty_Neutral>
5.08468e-05

> <r_epik_State_Penalty>
-0

> <r_epik_Charging_Adjusted_Penalty>
7.56727e-08

> <i_epik_Tot_Q>
0

> <i_epik_Tot_abs_Q>
0

> <r_epik_Metal_State_Penalty>
-0

> <b_epik_Metal_Only>
0

> <s_lp_Force_Field>
OPLS_2005

> <r_lp_Energy>
18.7705

> <b_lp_Chiralities_Consistent>
1

> <s_lp_Variant>
AV-unprocessed.smi:2309-2

> <Gold.Version>
5.8.1

> <Gold.Id.Protein>
6NUR|6NUR_protein|mol2

> <Gold.PLP.Fitness>
49.2977

> <Gold.PLP.PLP>
-48.0446

> <Gold.PLP.part.hbond>
-3.0940

> <Gold.PLP.part.metal>
0.0000

> <Gold.PLP.part.buried>
-6.7674

> <Gold.PLP.part.nonpolar>
-37.3483

> <Gold.PLP.part.repulsive>
0.2472

> <Gold.PLP.ligand.clash>
0.1631

> <Gold.PLP.ligand.torsion>
0.7987

> <Gold.PLP.Chemscore.Hbond>
1.0016

> <Gold.PLP.Chemscore.CHOScore>
0.0000

> <Gold.PLP.Chemscore.Metal>
0.0000

> <Gold.Chemscore.Hbonds>
donor molecule, donor type, donor heavy atom, donor atom, acceptor molecule, acceptor atom, score
      L1  H     8    28       P1  8028  0.86

> <Gold.PLP.Chemscore.Internal.Correction>
0.0088

> <Gold.Rescore>
     Score         DG    S(hbond)    S(metal)    S(lipo)     H(rot)  DE(clash)    DE(int)     intcor
     14.99     -17.62       1.11        0.00     114.25       1.93       0.20       2.43       ----

> <Gold.Chemscore.Fitness>
14.9861

> <Gold.Chemscore.DG>
-17.6161

> <Gold.Chemscore.ZeroCoef>
-5.4800

> <Gold.Chemscore.Hbond>
1.1079

> <Gold.Chemscore.Metal>
0.0000

> <Gold.Chemscore.Lipo>
114.2515

> <Gold.Chemscore.Internal_Hbond>
0.0000

> <Gold.Chemscore.DEClash>
0.2038

> <Gold.Chemscore.DEInternal>
2.4261

> <Gold.Chemscore.Rot>
1.9265

> <Gold.Chemscore.Internal.Correction>
   9.000000E+99

> <Gold.Chemscore.Hbonds>
donor molecule, donor type, donor heavy atom, donor atom, acceptor molecule, acceptor atom, score
      L1  H     8    28       P1  8028  0.78
      P1  H  6934  6946       L1    18  0.01

> <Gold.Chemscore.Hbond.Weighted>
-3.7004

> <Gold.Chemscore.Metal.Weighted>
-0.0000

> <Gold.Chemscore.Lipo.Weighted>
-13.3674

> <Gold.Chemscore.Internal_Hbond.Weighted>
0.0000

> <Gold.Chemscore.DEClash.Weighted>
0.2038

> <Gold.Chemscore.DEInternal.Weighted>
2.4261

> <Gold.Chemscore.Rot.Weighted>
4.9317

> <Gold.Chemscore.Internal.Correction.Weighted>
   9.000000E+99

> <Gold.Protein.RotatedTorsions>
[ 6907 6896 6895 6894 ] final  155.25 input  -60.11 | X-H torsion
[ 7974 7965 7964 7962 ] final -108.18 input  175.53 | X-H torsion
[ 8008 7997 7996 7995 ] final  139.01 input   59.86 | X-H torsion
[ 10167 10162 10161 10158 ] final  -45.97 input  -65.29 | X-H torsion
[ 10718 10713 10712 10709 ] final  108.86 input   66.30 | X-H torsion
[ 10763 10752 10751 10750 ] final  -37.29 input  -60.55 | X-H torsion
[ 11005 11000 10999 10996 ] final   15.04 input  -57.11 | X-H torsion

> <Gold.Protein.ActiveResidues>
 VAL166  LYS551  ARG553  GLY616  TRP617  ASP618  TYR619  PRO620  LYS621  CYS622 
 ASP623  PHE694  ASN695  SER759  ASP760  ASP761  ALA762  ILE779  LEU786  VAL792 
 PHE793  MET794  SER795  GLU796  ALA797  LYS798  CYS799  TRP800  GLU811  SER814 

> <Gold.Protein.RotatedAtoms>
  152.0468  133.4001  159.4359 H   0  0  0  0  0  0  0  0  0  0  0  0  # atno 6907 bound_to 6896
  150.6872  134.3353  159.4854 H   0  0  0  0  0  0  0  0  0  0  0  0  # atno 6908 bound_to 6896
  152.1158  134.9241  160.0615 H   0  0  0  0  0  0  0  0  0  0  0  0  # atno 6909 bound_to 6896
  145.1960  140.9036  143.3397 H   0  0  0  0  0  0  0  0  0  0  0  0  # atno 7974 bound_to 7965
  156.2993  140.2378  156.4168 H   0  0  0  0  0  0  0  0  0  0  0  0  # atno 8008 bound_to 7997
  154.8391  140.0429  157.1549 H   0  0  0  0  0  0  0  0  0  0  0  0  # atno 8009 bound_to 7997
  154.9122  140.2992  155.5264 H   0  0  0  0  0  0  0  0  0  0  0  0  # atno 8010 bound_to 7997
  140.6837  143.2853  151.3715 H   0  0  0  0  0  0  0  0  0  0  0  0  # atno 10167 bound_to 10162
  157.6568  131.0902  150.6367 H   0  0  0  0  0  0  0  0  0  0  0  0  # atno 10718 bound_to 10713
  153.8938  135.6809  153.4759 H   0  0  0  0  0  0  0  0  0  0  0  0  # atno 10763 bound_to 10752
  153.1166  135.4758  154.9124 H   0  0  0  0  0  0  0  0  0  0  0  0  # atno 10764 bound_to 10752
  154.7609  135.3210  154.8333 H   0  0  0  0  0  0  0  0  0  0  0  0  # atno 10765 bound_to 10752
  140.4627  134.1111  155.7719 H   0  0  0  0  0  0  0  0  0  0  0  0  # atno 11005 bound_to 11000
  144.9994  139.3613  143.6175 LP  0  0  0  0  0  0  0  0  0  0  0  0  # atno 17320 bound_to 7965
  146.3427  139.9211  142.8766 LP  0  0  0  0  0  0  0  0  0  0  0  0  # atno 17321 bound_to 7965
  139.6178  144.0968  152.2362 LP  0  0  0  0  0  0  0  0  0  0  0  0  # atno 17342 bound_to 10162
  140.0403  144.6013  150.7417 LP  0  0  0  0  0  0  0  0  0  0  0  0  # atno 17343 bound_to 10162
  156.6673  130.4529  149.5668 LP  0  0  0  0  0  0  0  0  0  0  0  0  # atno 17370 bound_to 10713
  156.2023  130.6627  151.1180 LP  0  0  0  0  0  0  0  0  0  0  0  0  # atno 17371 bound_to 10713
  141.1614  133.8786  157.1838 LP  0  0  0  0  0  0  0  0  0  0  0  0  # atno 17394 bound_to 11000
  139.9935  135.0056  157.0029 LP  0  0  0  0  0  0  0  0  0  0  0  0  # atno 17395 bound_to 11000

$$$$
