AV-unprocessed.smi:1954|AV-procd|sdf|7894|dock7
  -GOLD-   2272010 53D 1   1.00000     0.00000
 Structure written by MMmdl.
 44 46  0  0  0  0  0  0  0  0  1 V2000
  145.4309  134.5100  154.3147 O   0  0  0  0  0  0  0  0  0  0  0  0
  146.4111  134.8773  153.6660 C   0  0  0  0  0  0  0  0  0  0  0  0
  147.3867  135.6402  154.1747 N   0  0  0  0  0  0  0  0  0  0  0  0
  147.4295  136.1278  155.5500 C   0  0  0  0  0  0  0  0  0  0  0  0
  148.8944  136.3502  156.0465 C   0  0  1  0  0  0  0  0  0  0  0  0
  149.5640  137.4085  155.2291 N   0  0  0  0  0  0  0  0  0  0  0  0
  148.9578  138.7470  155.2810 C   0  0  0  0  0  0  0  0  0  0  0  0
  149.6634  139.7473  154.3492 C   0  0  0  0  0  0  0  0  0  0  0  0
  151.0456  139.8147  154.6718 O   0  0  0  0  0  0  0  0  0  0  0  0
  151.6848  138.5511  154.5551 C   0  0  0  0  0  0  0  0  0  0  0  0
  151.0040  137.5388  155.4909 C   0  0  0  0  0  0  0  0  0  0  0  0
  148.8276  136.6904  157.5641 C   0  0  0  0  0  0  0  0  0  0  0  0
  148.4404  135.4319  158.3489 C   0  0  0  0  0  0  0  0  0  0  0  0
  149.1269  134.0112  157.4657 S   0  0  0  0  0  0  0  0  0  0  0  0
  149.6303  134.9861  156.0208 C   0  0  0  0  0  0  0  0  0  0  0  0
  146.6529  134.5732  152.3786 N   0  0  0  0  0  0  0  0  0  0  0  0
  145.8525  133.8028  151.4935 C   0  0  0  0  0  0  0  0  0  0  0  0
  146.5723  133.0162  150.5657 C   0  0  0  0  0  0  0  0  0  0  0  0
  145.8701  132.2176  149.6424 C   0  0  0  0  0  0  0  0  0  0  0  0
  144.4641  132.2271  149.6692 C   0  0  0  0  0  0  0  0  0  0  0  0
  143.8251  133.0389  150.6245 C   0  0  0  0  0  0  0  0  0  0  0  0
  144.4962  133.8043  151.5110 N   0  0  0  0  0  0  0  0  0  0  0  0
  148.1605  135.8963  153.5789 H   0  0  0  0  0  0  0  0  0  0  0  0
  146.8440  137.0449  155.6127 H   0  0  0  0  0  0  0  0  0  0  0  0
  146.8935  135.4258  156.1882 H   0  0  0  0  0  0  0  0  0  0  0  0
  147.9166  138.7185  154.9696 H   0  0  0  0  0  0  0  0  0  0  0  0
  148.9800  139.1407  156.2965 H   0  0  0  0  0  0  0  0  0  0  0  0
  149.5401  139.4562  153.3049 H   0  0  0  0  0  0  0  0  0  0  0  0
  149.2248  140.7392  154.4577 H   0  0  0  0  0  0  0  0  0  0  0  0
  151.6462  138.2073  153.5202 H   0  0  0  0  0  0  0  0  0  0  0  0
  152.7370  138.6600  154.8173 H   0  0  0  0  0  0  0  0  0  0  0  0
  151.1688  137.8450  156.5246 H   0  0  0  0  0  0  0  0  0  0  0  0
  151.5150  136.5875  155.3602 H   0  0  0  0  0  0  0  0  0  0  0  0
  149.8041  136.9746  157.9492 H   0  0  0  0  0  0  0  0  0  0  0  0
  148.1571  137.5220  157.7822 H   0  0  0  0  0  0  0  0  0  0  0  0
  148.8119  135.4640  159.3733 H   0  0  0  0  0  0  0  0  0  0  0  0
  147.3568  135.3246  158.4017 H   0  0  0  0  0  0  0  0  0  0  0  0
  149.4431  134.4259  155.1041 H   0  0  0  0  0  0  0  0  0  0  0  0
  150.7088  135.1113  156.0994 H   0  0  0  0  0  0  0  0  0  0  0  0
  147.5086  134.9358  151.9855 H   0  0  0  0  0  0  0  0  0  0  0  0
  147.6527  133.0209  150.5585 H   0  0  0  0  0  0  0  0  0  0  0  0
  146.4020  131.6085  148.9263 H   0  0  0  0  0  0  0  0  0  0  0  0
  143.8905  131.6289  148.9769 H   0  0  0  0  0  0  0  0  0  0  0  0
  142.7472  133.0753  150.6790 H   0  0  0  0  0  0  0  0  0  0  0  0
  1  2  2  0  0  0  0
  2  3  1  0  0  0  0
  2 16  1  0  0  0  0
  3  4  1  0  0  0  0
  3 23  1  0  0  0  0
  4  5  1  0  0  0  0
  4 24  1  0  0  0  0
  4 25  1  0  0  0  0
  5 15  1  0  0  0  0
  5  6  1  0  0  0  0
  5 12  1  0  0  0  0
  6 11  1  0  0  0  0
  6  7  1  0  0  0  0
  7  8  1  0  0  0  0
  7 26  1  0  0  0  0
  7 27  1  0  0  0  0
  8  9  1  0  0  0  0
  8 28  1  0  0  0  0
  8 29  1  0  0  0  0
  9 10  1  0  0  0  0
 10 11  1  0  0  0  0
 10 30  1  0  0  0  0
 10 31  1  0  0  0  0
 11 32  1  0  0  0  0
 11 33  1  0  0  0  0
 12 13  1  0  0  0  0
 12 34  1  0  0  0  0
 12 35  1  0  0  0  0
 13 14  1  0  0  0  0
 13 36  1  0  0  0  0
 13 37  1  0  0  0  0
 14 15  1  0  0  0  0
 15 38  1  0  0  0  0
 15 39  1  0  0  0  0
 16 17  1  0  0  0  0
 16 40  1  0  0  0  0
 17 22  1  0  0  0  0
 17 18  2  0  0  0  0
 18 19  1  0  0  0  0
 18 41  1  0  0  0  0
 19 20  2  0  0  0  0
 19 42  1  0  0  0  0
 20 21  1  0  0  0  0
 20 43  1  0  0  0  0
 21 22  2  0  0  0  0
 21 44  1  0  0  0  0
M  END
> <s_m_source_file>
AV-unprocessed.smi

> <i_m_source_file_index>
1954

> <i_lp_mmshare_version>
43012

> <i_f3d_flags>
0

> <s_epik_input>
bjFbY0hdW2NIXVtjSF1bY0hdYzFbTkhdQyg9TylbTkhdW0NIMl1bQ0BdMihbQ0gyXVtDSDJdU1tDSDJdMilOM1tDSDJdW0NIMl1PW0NIMl1bQ0gyXTM=

> <s_epik_cmdline>
J2VwaWtfcHl0aG9uJywgJy1waCcsICc3LjAnLCAnLXRuJywgJzgnLCAnLW1hJywgJzIwMCcsICctbWV0YWxfYmluZGluZycsICctaW1hZScsICc8aW5maWxlLm1hZT4nLCAnLW9tYWUnLCAnPG91dGZpbGUubWFlPic=

> <r_epik_Ionization_Penalty>
0.0195535

> <r_epik_Ionization_Penalty_Charging>
0

> <r_epik_Ionization_Penalty_Neutral>
0.0195535

> <r_epik_State_Penalty>
0.0155843

> <r_epik_Charging_Adjusted_Penalty>
0.0155843

> <i_epik_Tot_Q>
0

> <i_epik_Tot_abs_Q>
0

> <r_epik_Metal_State_Penalty>
0.0155842

> <b_epik_Metal_Only>
0

> <s_lp_Force_Field>
OPLS_2005

> <r_lp_Energy>
55.5144

> <b_lp_Chiralities_Consistent>
1

> <s_lp_Variant>
AV-unprocessed.smi:1954-1

> <Gold.Version>
5.8.1

> <Gold.Id.Protein>
6NUR|6NUR_protein|mol2

> <Gold.PLP.Fitness>
42.4031

> <Gold.PLP.PLP>
-31.3713

> <Gold.PLP.part.hbond>
-3.0000

> <Gold.PLP.part.metal>
0.0000

> <Gold.PLP.part.buried>
-5.3169

> <Gold.PLP.part.nonpolar>
-24.3081

> <Gold.PLP.part.repulsive>
0.4137

> <Gold.PLP.ligand.clash>
0.0000

> <Gold.PLP.ligand.torsion>
0.5178

> <Gold.PLP.Chemscore.Hbond>
3.0000

> <Gold.PLP.Chemscore.CHOScore>
1.0000

> <Gold.PLP.Chemscore.Metal>
0.0000

> <Gold.Chemscore.Hbonds>
donor molecule, donor type, donor heavy atom, donor atom, acceptor molecule, acceptor atom, score
      L1  H     3    23       P1  7948  1.00
      L1  H    16    40       P1  7948  1.00
      P1  H  7989  7998       L1     9  1.00
      L1  C    21    44       P1 10186  1.00

> <Gold.PLP.Chemscore.Internal.Correction>
0.0674

> <Gold.Rescore>
     Score         DG    S(hbond)    S(metal)    S(lipo)     H(rot)  DE(clash)    DE(int)     intcor
     16.21     -18.93       2.44        0.00      78.09       1.49       1.46       1.26       ----

> <Gold.Chemscore.Fitness>
16.2086

> <Gold.Chemscore.DG>
-18.9328

> <Gold.Chemscore.ZeroCoef>
-5.4800

> <Gold.Chemscore.Hbond>
2.4375

> <Gold.Chemscore.Metal>
0.0000

> <Gold.Chemscore.Lipo>
78.0881

> <Gold.Chemscore.Internal_Hbond>
0.0000

> <Gold.Chemscore.DEClash>
1.4625

> <Gold.Chemscore.DEInternal>
1.2617

> <Gold.Chemscore.Rot>
1.4940

> <Gold.Chemscore.Internal.Correction>
   9.000000E+99

> <Gold.Chemscore.Hbonds>
donor molecule, donor type, donor heavy atom, donor atom, acceptor molecule, acceptor atom, score
      L1  H     3    23       P1  7948  0.97
      L1  H    16    40       P1  7948  0.84
      P1  H  7989  7998       L1     9  0.26

> <Gold.Chemscore.Hbond.Weighted>
-8.1411

> <Gold.Chemscore.Metal.Weighted>
-0.0000

> <Gold.Chemscore.Lipo.Weighted>
-9.1363

> <Gold.Chemscore.Internal_Hbond.Weighted>
0.0000

> <Gold.Chemscore.DEClash.Weighted>
1.4625

> <Gold.Chemscore.DEInternal.Weighted>
1.2617

> <Gold.Chemscore.Rot.Weighted>
3.8246

> <Gold.Chemscore.Internal.Correction.Weighted>
   9.000000E+99

> <Gold.Protein.RotatedTorsions>
[ 6907 6896 6895 6894 ] final  -16.68 input  -60.11 | X-H torsion
[ 7974 7965 7964 7962 ] final   -8.26 input  175.53 | X-H torsion
[ 8008 7997 7996 7995 ] final -129.63 input   59.86 | X-H torsion
[ 10167 10162 10161 10158 ] final  -66.68 input  -65.29 | X-H torsion
[ 10718 10713 10712 10709 ] final   76.55 input   66.30 | X-H torsion
[ 10763 10752 10751 10750 ] final  140.65 input  -60.55 | X-H torsion
[ 11005 11000 10999 10996 ] final  117.36 input  -57.11 | X-H torsion

> <Gold.Protein.ActiveResidues>
 VAL166  LYS551  ARG553  GLY616  TRP617  ASP618  TYR619  PRO620  LYS621  CYS622 
 ASP623  PHE694  ASN695  SER759  ASP760  ASP761  ALA762  ILE779  LEU786  VAL792 
 PHE793  MET794  SER795  GLU796  ALA797  LYS798  CYS799  TRP800  GLU811  SER814 

> <Gold.Protein.RotatedAtoms>
  151.3050  135.0779  159.9251 H   0  0  0  0  0  0  0  0  0  0  0  0  # atno 6907 bound_to 6896
  152.5290  133.9795  159.7810 H   0  0  0  0  0  0  0  0  0  0  0  0  # atno 6908 bound_to 6896
  151.0088  133.5934  159.2715 H   0  0  0  0  0  0  0  0  0  0  0  0  # atno 6909 bound_to 6896
  146.2285  140.2442  142.8344 H   0  0  0  0  0  0  0  0  0  0  0  0  # atno 7974 bound_to 7965
  155.2824  140.0444  157.3016 H   0  0  0  0  0  0  0  0  0  0  0  0  # atno 8008 bound_to 7997
  154.5589  140.2340  155.8335 H   0  0  0  0  0  0  0  0  0  0  0  0  # atno 8009 bound_to 7997
  156.2030  140.3020  155.9575 H   0  0  0  0  0  0  0  0  0  0  0  0  # atno 8010 bound_to 7997
  140.5639  143.2314  151.6673 H   0  0  0  0  0  0  0  0  0  0  0  0  # atno 10167 bound_to 10162
  157.6677  130.9779  150.1512 H   0  0  0  0  0  0  0  0  0  0  0  0  # atno 10718 bound_to 10713
  153.9262  135.2995  155.3447 H   0  0  0  0  0  0  0  0  0  0  0  0  # atno 10763 bound_to 10752
  154.7550  135.4962  153.9362 H   0  0  0  0  0  0  0  0  0  0  0  0  # atno 10764 bound_to 10752
  153.1116  135.6760  153.9595 H   0  0  0  0  0  0  0  0  0  0  0  0  # atno 10765 bound_to 10752
  139.9072  134.9609  156.7338 H   0  0  0  0  0  0  0  0  0  0  0  0  # atno 11005 bound_to 11000
  144.9461  140.8129  143.5600 LP  0  0  0  0  0  0  0  0  0  0  0  0  # atno 17320 bound_to 7965
  145.2398  139.2077  143.4998 LP  0  0  0  0  0  0  0  0  0  0  0  0  # atno 17321 bound_to 7965
  139.5083  144.3614  152.0558 LP  0  0  0  0  0  0  0  0  0  0  0  0  # atno 17342 bound_to 10162
  140.2744  144.3929  150.6140 LP  0  0  0  0  0  0  0  0  0  0  0  0  # atno 17343 bound_to 10162
  156.2311  130.3682  149.8444 LP  0  0  0  0  0  0  0  0  0  0  0  0  # atno 17370 bound_to 10713
  156.6270  130.8650  151.3487 LP  0  0  0  0  0  0  0  0  0  0  0  0  # atno 17371 bound_to 10713
  140.6904  133.9395  155.7963 LP  0  0  0  0  0  0  0  0  0  0  0  0  # atno 17394 bound_to 11000
  141.0446  134.0573  157.3860 LP  0  0  0  0  0  0  0  0  0  0  0  0  # atno 17395 bound_to 11000

$$$$
