AV-unprocessed.smi:3063|AV-procd|sdf|11685|dock5
  -GOLD-   2272017 93D 1   1.00000     0.00000
 Structure written by MMmdl.
 44 45  0  0  0  0  0  0  0  0  1 V2000
  151.2118  138.6954  154.3490 C   0  0  0  0  0  0  0  0  0  0  0  0
  151.5452  139.7086  155.4462 C   0  0  0  0  0  0  0  0  0  0  0  0
  152.5488  139.5121  156.1318 O   0  0  0  0  0  0  0  0  0  0  0  0
  150.7244  140.7691  155.6407 N   0  0  0  0  0  0  0  0  0  0  0  0
  150.9258  141.7054  156.7566 C   0  0  0  0  0  0  0  0  0  0  0  0
  150.1737  141.2395  158.0210 C   0  0  0  0  0  0  0  0  0  0  0  0
  148.6515  141.0937  157.8085 C   0  0  0  0  0  0  0  0  0  0  0  0
  148.3418  140.0507  156.8111 N   0  0  0  0  0  0  0  0  0  0  0  0
  148.2179  138.7248  157.0824 C   0  0  0  0  0  0  0  0  0  0  0  0
  147.6271  137.9349  156.3450 O   0  0  0  0  0  0  0  0  0  0  0  0
  148.7835  138.3344  158.2381 N   0  0  0  0  0  0  0  0  0  0  0  0
  148.7241  136.9922  158.8145 C   0  0  2  0  0  0  0  0  0  0  0  0
  149.3036  135.9883  157.8054 C   0  0  0  0  0  0  0  0  0  0  0  0
  147.2954  136.6337  159.2883 C   0  0  0  0  0  0  0  0  0  0  0  0
  147.2333  136.1734  160.6651 N   0  0  0  0  0  0  0  0  0  0  0  0
  146.9594  134.9039  161.1242 C   0  0  0  0  0  0  0  0  0  0  0  0
  147.0089  134.9419  162.4876 C   0  0  0  0  0  0  0  0  0  0  0  0
  147.3177  136.3009  162.7745 C   0  0  0  0  0  0  0  0  0  0  0  0
  147.4467  137.0368  161.6820 N   0  0  0  0  0  0  0  0  0  0  0  0
  148.2043  140.5752  155.4399 C   0  0  0  0  0  0  0  0  0  0  0  0
  149.5389  141.0630  154.8168 C   0  0  0  0  0  0  0  0  0  0  0  0
  150.1802  138.3531  154.4322 H   0  0  0  0  0  0  0  0  0  0  0  0
  151.8572  137.8197  154.4275 H   0  0  0  0  0  0  0  0  0  0  0  0
  151.3612  139.1342  153.3623 H   0  0  0  0  0  0  0  0  0  0  0  0
  151.9869  141.8240  156.9811 H   0  0  0  0  0  0  0  0  0  0  0  0
  150.5852  142.7043  156.4815 H   0  0  0  0  0  0  0  0  0  0  0  0
  150.5920  140.2963  158.3735 H   0  0  0  0  0  0  0  0  0  0  0  0
  150.3511  141.9604  158.8196 H   0  0  0  0  0  0  0  0  0  0  0  0
  148.1566  140.8948  158.7599 H   0  0  0  0  0  0  0  0  0  0  0  0
  148.2444  142.0526  157.4849 H   0  0  0  0  0  0  0  0  0  0  0  0
  149.2608  139.0373  158.7836 H   0  0  0  0  0  0  0  0  0  0  0  0
  149.3745  136.9752  159.6907 H   0  0  0  0  0  0  0  0  0  0  0  0
  149.2559  134.9708  158.1943 H   0  0  0  0  0  0  0  0  0  0  0  0
  150.3497  136.2093  157.5921 H   0  0  0  0  0  0  0  0  0  0  0  0
  148.7645  136.0093  156.8578 H   0  0  0  0  0  0  0  0  0  0  0  0
  146.6452  137.5040  159.1868 H   0  0  0  0  0  0  0  0  0  0  0  0
  146.8632  135.8619  158.6503 H   0  0  0  0  0  0  0  0  0  0  0  0
  146.7572  134.0913  160.4447 H   0  0  0  0  0  0  0  0  0  0  0  0
  146.8465  134.1244  163.1741 H   0  0  0  0  0  0  0  0  0  0  0  0
  147.4492  136.7714  163.7374 H   0  0  0  0  0  0  0  0  0  0  0  0
  147.7579  139.8380  154.7711 H   0  0  0  0  0  0  0  0  0  0  0  0
  147.4862  141.3963  155.4452 H   0  0  0  0  0  0  0  0  0  0  0  0
  149.4771  142.1413  154.6653 H   0  0  0  0  0  0  0  0  0  0  0  0
  149.6377  140.6704  153.8049 H   0  0  0  0  0  0  0  0  0  0  0  0
  1  2  1  0  0  0  0
  1 22  1  0  0  0  0
  1 23  1  0  0  0  0
  1 24  1  0  0  0  0
  2  3  2  0  0  0  0
  2  4  1  0  0  0  0
  4 21  1  0  0  0  0
  4  5  1  0  0  0  0
  5  6  1  0  0  0  0
  5 25  1  0  0  0  0
  5 26  1  0  0  0  0
  6  7  1  0  0  0  0
  6 27  1  0  0  0  0
  6 28  1  0  0  0  0
  7  8  1  0  0  0  0
  7 29  1  0  0  0  0
  7 30  1  0  0  0  0
  8  9  1  0  0  0  0
  8 20  1  0  0  0  0
  9 10  2  0  0  0  0
  9 11  1  0  0  0  0
 11 12  1  0  0  0  0
 11 31  1  0  0  0  0
 12 13  1  0  0  0  0
 12 14  1  0  0  0  0
 12 32  1  0  0  0  0
 13 33  1  0  0  0  0
 13 34  1  0  0  0  0
 13 35  1  0  0  0  0
 14 15  1  0  0  0  0
 14 36  1  0  0  0  0
 14 37  1  0  0  0  0
 15 19  1  0  0  0  0
 15 16  1  0  0  0  0
 16 17  2  0  0  0  0
 16 38  1  0  0  0  0
 17 18  1  0  0  0  0
 17 39  1  0  0  0  0
 18 19  2  0  0  0  0
 18 40  1  0  0  0  0
 20 21  1  0  0  0  0
 20 41  1  0  0  0  0
 20 42  1  0  0  0  0
 21 43  1  0  0  0  0
 21 44  1  0  0  0  0
M  END
> <s_m_source_file>
AV-unprocessed.smi

> <i_m_source_file_index>
3063

> <i_lp_mmshare_version>
43012

> <i_f3d_flags>
0

> <s_epik_input>
W0NIM11DKD1PKU4xW0NIMl1bQ0gyXVtDSDJdTihbQ0gyXVtDSDJdMSlDKD1PKVtOSF1bQ0BIXShbQ0gzXSlbQ0gyXW4yW2NIXVtjSF1bY0hdbjI=

> <s_epik_cmdline>
J2VwaWtfcHl0aG9uJywgJy1waCcsICc3LjAnLCAnLXRuJywgJzgnLCAnLW1hJywgJzIwMCcsICctbWV0YWxfYmluZGluZycsICctaW1hZScsICc8aW5maWxlLm1hZT4nLCAnLW9tYWUnLCAnPG91dGZpbGUubWFlPic=

> <r_lp_tautomer_probability>
1

> <r_epik_Ionization_Penalty>
6.19559e-05

> <r_epik_Ionization_Penalty_Charging>
0

> <r_epik_Ionization_Penalty_Neutral>
6.19559e-05

> <r_epik_State_Penalty>
-0

> <r_epik_Charging_Adjusted_Penalty>
0

> <i_epik_Tot_Q>
0

> <i_epik_Tot_abs_Q>
0

> <r_epik_Metal_State_Penalty>
-0

> <b_epik_Metal_Only>
0

> <s_lp_Force_Field>
OPLS_2005

> <r_lp_Energy>
38.8795

> <b_lp_Chiralities_Consistent>
1

> <s_lp_Variant>
AV-unprocessed.smi:3063-1

> <Gold.Version>
5.8.1

> <Gold.Id.Protein>
6NUR|6NUR_protein|mol2

> <Gold.PLP.Fitness>
45.5048

> <Gold.PLP.PLP>
-39.9179

> <Gold.PLP.part.hbond>
-3.0000

> <Gold.PLP.part.metal>
0.0000

> <Gold.PLP.part.buried>
-2.8223

> <Gold.PLP.part.nonpolar>
-32.2642

> <Gold.PLP.part.repulsive>
0.1732

> <Gold.PLP.ligand.clash>
0.0000

> <Gold.PLP.ligand.torsion>
1.0246

> <Gold.PLP.Chemscore.Hbond>
2.5273

> <Gold.PLP.Chemscore.CHOScore>
0.0000

> <Gold.PLP.Chemscore.Metal>
0.0000

> <Gold.Chemscore.Hbonds>
donor molecule, donor type, donor heavy atom, donor atom, acceptor molecule, acceptor atom, score
      P1  H  6931  6943       L1    19  1.00
      P1  H  6934  6947       L1    19  0.63
      P1  H  7997  8008       L1     3  1.00

> <Gold.PLP.Chemscore.Internal.Correction>
0.0543

> <Gold.Rescore>
     Score         DG    S(hbond)    S(metal)    S(lipo)     H(rot)  DE(clash)    DE(int)     intcor
     15.45     -16.93       2.02        0.00      71.65       1.44       0.10       1.37       ----

> <Gold.Chemscore.Fitness>
15.4500

> <Gold.Chemscore.DG>
-16.9276

> <Gold.Chemscore.ZeroCoef>
-5.4800

> <Gold.Chemscore.Hbond>
2.0188

> <Gold.Chemscore.Metal>
0.0000

> <Gold.Chemscore.Lipo>
71.6490

> <Gold.Chemscore.Internal_Hbond>
0.0000

> <Gold.Chemscore.DEClash>
0.1043

> <Gold.Chemscore.DEInternal>
1.3733

> <Gold.Chemscore.Rot>
1.4368

> <Gold.Chemscore.Internal.Correction>
   9.000000E+99

> <Gold.Chemscore.Hbonds>
donor molecule, donor type, donor heavy atom, donor atom, acceptor molecule, acceptor atom, score
      P1  H  6931  6943       L1    19  0.59
      P1  H  6934  6947       L1    19  0.44
      P1  H  7997  8008       L1     3  1.00

> <Gold.Chemscore.Hbond.Weighted>
-6.7428

> <Gold.Chemscore.Metal.Weighted>
-0.0000

> <Gold.Chemscore.Lipo.Weighted>
-8.3829

> <Gold.Chemscore.Internal_Hbond.Weighted>
0.0000

> <Gold.Chemscore.DEClash.Weighted>
0.1043

> <Gold.Chemscore.DEInternal.Weighted>
1.3733

> <Gold.Chemscore.Rot.Weighted>
3.6782

> <Gold.Chemscore.Internal.Correction.Weighted>
   9.000000E+99

> <Gold.Protein.RotatedTorsions>
[ 6907 6896 6895 6894 ] final   81.40 input  -60.11 | X-H torsion
[ 7974 7965 7964 7962 ] final -172.32 input  175.53 | X-H torsion
[ 8008 7997 7996 7995 ] final  -44.51 input   59.86 | X-H torsion
[ 10167 10162 10161 10158 ] final   45.93 input  -65.29 | X-H torsion
[ 10718 10713 10712 10709 ] final  -35.57 input   66.30 | X-H torsion
[ 10763 10752 10751 10750 ] final  172.75 input  -60.55 | X-H torsion
[ 11005 11000 10999 10996 ] final -168.88 input  -57.11 | X-H torsion

> <Gold.Protein.ActiveResidues>
 VAL166  LYS551  ARG553  GLY616  TRP617  ASP618  TYR619  PRO620  LYS621  CYS622 
 ASP623  PHE694  ASN695  SER759  ASP760  ASP761  ALA762  ILE779  LEU786  VAL792 
 PHE793  MET794  SER795  GLU796  ALA797  LYS798  CYS799  TRP800  GLU811  SER814 

> <Gold.Protein.RotatedAtoms>
  152.5267  134.3209  159.9147 H   0  0  0  0  0  0  0  0  0  0  0  0  # atno 6907 bound_to 6896
  151.3158  133.4054  159.2658 H   0  0  0  0  0  0  0  0  0  0  0  0  # atno 6908 bound_to 6896
  151.0000  134.9331  159.8006 H   0  0  0  0  0  0  0  0  0  0  0  0  # atno 6909 bound_to 6896
  144.7147  140.1790  143.6360 H   0  0  0  0  0  0  0  0  0  0  0  0  # atno 7974 bound_to 7965
  154.3997  140.1420  156.3696 H   0  0  0  0  0  0  0  0  0  0  0  0  # atno 8008 bound_to 7997
  155.8105  140.3473  155.5434 H   0  0  0  0  0  0  0  0  0  0  0  0  # atno 8009 bound_to 7997
  155.8391  140.0924  157.1736 H   0  0  0  0  0  0  0  0  0  0  0  0  # atno 8010 bound_to 7997
  140.3191  144.2727  150.6186 H   0  0  0  0  0  0  0  0  0  0  0  0  # atno 10167 bound_to 10162
  156.3371  130.4288  149.7820 H   0  0  0  0  0  0  0  0  0  0  0  0  # atno 10718 bound_to 10713
  154.4305  135.2759  155.1915 H   0  0  0  0  0  0  0  0  0  0  0  0  # atno 10763 bound_to 10752
  154.3823  135.6085  153.5801 H   0  0  0  0  0  0  0  0  0  0  0  0  # atno 10764 bound_to 10752
  152.9836  135.5883  154.4616 H   0  0  0  0  0  0  0  0  0  0  0  0  # atno 10765 bound_to 10752
  140.5371  134.5559  157.5090 H   0  0  0  0  0  0  0  0  0  0  0  0  # atno 11005 bound_to 11000
  145.8874  139.2356  143.1569 LP  0  0  0  0  0  0  0  0  0  0  0  0  # atno 17320 bound_to 7965
  145.9936  140.8581  143.0054 LP  0  0  0  0  0  0  0  0  0  0  0  0  # atno 17321 bound_to 7965
  140.5499  143.2208  151.7944 LP  0  0  0  0  0  0  0  0  0  0  0  0  # atno 17342 bound_to 10162
  139.4878  144.4490  151.9677 LP  0  0  0  0  0  0  0  0  0  0  0  0  # atno 17343 bound_to 10162
  156.5071  130.8155  151.3155 LP  0  0  0  0  0  0  0  0  0  0  0  0  # atno 17370 bound_to 10713
  157.7440  130.9926  150.2641 LP  0  0  0  0  0  0  0  0  0  0  0  0  # atno 17371 bound_to 10713
  139.9523  134.7594  156.0419 LP  0  0  0  0  0  0  0  0  0  0  0  0  # atno 17394 bound_to 11000
  141.1248  133.6602  156.3309 LP  0  0  0  0  0  0  0  0  0  0  0  0  # atno 17395 bound_to 11000

$$$$
