AV-unprocessed.smi:3290|AV-procd|sdf|12611|dock6
  -GOLD-   2272018543D 1   1.00000     0.00000
 Structure written by MMmdl.
 43 44  0  0  0  0  0  0  0  0  2 V2000
  151.4711  144.9516  159.0465 C   0  0  0  0  0  0  0  0  0  0  0  0
  151.6858  143.5140  159.5541 C   0  0  2  0  0  0  0  0  0  0  0  0
  153.0918  143.3959  160.1806 C   0  0  0  0  0  0  0  0  0  0  0  0
  153.3536  141.9967  160.7533 C   0  0  0  0  0  0  0  0  0  0  0  0
  153.1560  140.9236  159.6777 C   0  0  0  0  0  0  0  0  0  0  0  0
  151.7546  141.0233  159.0599 C   0  0  0  0  0  0  0  0  0  0  0  0
  151.4737  142.4214  158.4638 C   0  0  1  0  0  0  0  0  0  0  0  0
  150.0587  142.4331  157.8418 C   0  0  0  0  0  0  0  0  0  0  0  0
  150.0920  142.3142  156.3703 N   0  3  0  0  0  0  0  0  0  0  0  0
  149.0799  141.3913  155.8187 C   0  0  0  0  0  0  0  0  0  0  0  0
  149.5125  140.8253  154.4553 C   0  0  2  0  0  0  0  0  0  0  0  0
  148.3554  140.4891  153.7139 O   0  0  0  0  0  0  0  0  0  0  0  0
  150.4388  139.6318  154.6289 C   0  0  0  0  0  0  0  0  0  0  0  0
  151.6264  139.7513  155.3810 C   0  0  0  0  0  0  0  0  0  0  0  0
  152.4503  138.6168  155.5252 C   0  0  0  0  0  0  0  0  0  0  0  0
  152.1600  137.4159  154.9811 N   0  0  0  0  0  0  0  0  0  0  0  0
  151.0217  137.3057  154.2635 C   0  0  0  0  0  0  0  0  0  0  0  0
  150.1297  138.3772  154.0590 C   0  0  0  0  0  0  0  0  0  0  0  0
  152.0994  145.1671  158.1816 H   0  0  0  0  0  0  0  0  0  0  0  0
  151.7161  145.6793  159.8207 H   0  0  0  0  0  0  0  0  0  0  0  0
  150.4333  145.1330  158.7693 H   0  0  0  0  0  0  0  0  0  0  0  0
  150.9592  143.3416  160.3499 H   0  0  0  0  0  0  0  0  0  0  0  0
  153.8502  143.6281  159.4313 H   0  0  0  0  0  0  0  0  0  0  0  0
  153.2103  144.1339  160.9750 H   0  0  0  0  0  0  0  0  0  0  0  0
  154.3664  141.9410  161.1536 H   0  0  0  0  0  0  0  0  0  0  0  0
  152.6787  141.8092  161.5895 H   0  0  0  0  0  0  0  0  0  0  0  0
  153.9111  141.0387  158.8990 H   0  0  0  0  0  0  0  0  0  0  0  0
  153.3038  139.9331  160.1091 H   0  0  0  0  0  0  0  0  0  0  0  0
  151.6544  140.2597  158.2876 H   0  0  0  0  0  0  0  0  0  0  0  0
  151.0070  140.7900  159.8196 H   0  0  0  0  0  0  0  0  0  0  0  0
  152.2008  142.5803  157.6652 H   0  0  0  0  0  0  0  0  0  0  0  0
  149.4766  141.5900  158.2167 H   0  0  0  0  0  0  0  0  0  0  0  0
  149.5237  143.3374  158.1354 H   0  0  0  0  0  0  0  0  0  0  0  0
  149.9289  143.2289  155.9734 H   0  0  0  0  0  0  0  0  0  0  0  0
  148.9334  140.5747  156.5274 H   0  0  0  0  0  0  0  0  0  0  0  0
  148.1246  141.9110  155.7271 H   0  0  0  0  0  0  0  0  0  0  0  0
  150.0444  141.5966  153.8964 H   0  0  0  0  0  0  0  0  0  0  0  0
  148.6265  140.1205  152.8864 H   0  0  0  0  0  0  0  0  0  0  0  0
  151.9052  140.6881  155.8408 H   0  0  0  0  0  0  0  0  0  0  0  0
  153.3660  138.6760  156.0948 H   0  0  0  0  0  0  0  0  0  0  0  0
  150.8135  136.3338  153.8416 H   0  0  0  0  0  0  0  0  0  0  0  0
  149.2298  138.2336  153.4790 H   0  0  0  0  0  0  0  0  0  0  0  0
  151.0095  141.9999  156.0888 H   0  0  0  0  0  0  0  0  0  0  0  0
  1  2  1  0  0  0  0
  1 19  1  0  0  0  0
  1 20  1  0  0  0  0
  1 21  1  0  0  0  0
  2  7  1  0  0  0  0
  2  3  1  0  0  0  0
  2 22  1  0  0  0  0
  3  4  1  0  0  0  0
  3 23  1  0  0  0  0
  3 24  1  0  0  0  0
  4  5  1  0  0  0  0
  4 25  1  0  0  0  0
  4 26  1  0  0  0  0
  5  6  1  0  0  0  0
  5 27  1  0  0  0  0
  5 28  1  0  0  0  0
  6  7  1  0  0  0  0
  6 29  1  0  0  0  0
  6 30  1  0  0  0  0
  7  8  1  0  0  0  0
  7 31  1  0  0  0  0
  8  9  1  0  0  0  0
  8 32  1  0  0  0  0
  8 33  1  0  0  0  0
  9 10  1  0  0  0  0
  9 34  1  0  0  0  0
  9 43  1  0  0  0  0
 10 11  1  0  0  0  0
 10 35  1  0  0  0  0
 10 36  1  0  0  0  0
 11 12  1  0  0  0  0
 11 13  1  0  0  0  0
 11 37  1  0  0  0  0
 12 38  1  0  0  0  0
 13 18  1  0  0  0  0
 13 14  2  0  0  0  0
 14 15  1  0  0  0  0
 14 39  1  0  0  0  0
 15 16  2  0  0  0  0
 15 40  1  0  0  0  0
 16 17  1  0  0  0  0
 17 18  2  0  0  0  0
 17 41  1  0  0  0  0
 18 42  1  0  0  0  0
M  CHG  1   9   1
M  END
> <s_m_source_file>
AV-unprocessed.smi

> <i_m_source_file_index>
3290

> <i_lp_mmshare_version>
43012

> <i_f3d_flags>
0

> <s_epik_input>
W0NIM11bQ0BASF0xW0NIMl1bQ0gyXVtDSDJdW0NIMl1bQ0BIXTFbQ0gyXVtOSF1bQ0gyXVtDQEhdKFtPSF0pYzJbY0hdW2NIXW5bY0hdW2NIXTI=

> <s_epik_cmdline>
J2VwaWtfcHl0aG9uJywgJy1waCcsICc3LjAnLCAnLXRuJywgJzgnLCAnLW1hJywgJzIwMCcsICctbWV0YWxfYmluZGluZycsICctaW1hZScsICc8aW5maWxlLm1hZT4nLCAnLW9tYWUnLCAnPG91dGZpbGUubWFlPic=

> <r_lp_tautomer_probability>
1

> <r_epik_Ionization_Penalty>
0.00420552

> <r_epik_Ionization_Penalty_Charging>
0.00207255

> <r_epik_Ionization_Penalty_Neutral>
0.00213297

> <r_epik_State_Penalty>
-0

> <r_epik_Charging_Adjusted_Penalty>
0.00207255

> <i_epik_Tot_Q>
1

> <i_epik_Tot_abs_Q>
1

> <r_epik_Metal_State_Penalty>
-0

> <b_epik_Metal_Only>
0

> <s_lp_Force_Field>
OPLS_2005

> <r_lp_Energy>
17.3626

> <b_lp_Chiralities_Consistent>
1

> <s_lp_Variant>
AV-unprocessed.smi:3290-1

> <Gold.Version>
5.8.1

> <Gold.Id.Protein>
6NUR|6NUR_protein|mol2

> <Gold.PLP.Fitness>
54.4159

> <Gold.PLP.PLP>
-43.8513

> <Gold.PLP.part.hbond>
-3.0000

> <Gold.PLP.part.metal>
0.0000

> <Gold.PLP.part.buried>
-1.8549

> <Gold.PLP.part.nonpolar>
-38.7744

> <Gold.PLP.part.repulsive>
0.1486

> <Gold.PLP.ligand.clash>
0.0000

> <Gold.PLP.ligand.torsion>
1.3561

> <Gold.PLP.Chemscore.Hbond>
3.7840

> <Gold.PLP.Chemscore.CHOScore>
0.6194

> <Gold.PLP.Chemscore.Metal>
0.0000

> <Gold.Chemscore.Hbonds>
donor molecule, donor type, donor heavy atom, donor atom, acceptor molecule, acceptor atom, score
      L1  H     9    34       P1  8028  2.00
      L1  H    12    38       P1  7957  1.00
      P1  H 10752 10763       L1    16  0.74
      L1  C    17    41       P1  7948  0.09
      L1  C    17    41       P1  7949  0.61

> <Gold.PLP.Chemscore.Internal.Correction>
0.0667

> <Gold.Rescore>
     Score         DG    S(hbond)    S(metal)    S(lipo)     H(rot)  DE(clash)    DE(int)     intcor
     22.80     -24.41       2.75        0.00     128.20       2.05       0.14       1.47       ----

> <Gold.Chemscore.Fitness>
22.8034

> <Gold.Chemscore.DG>
-24.4133

> <Gold.Chemscore.ZeroCoef>
-5.4800

> <Gold.Chemscore.Hbond>
2.7489

> <Gold.Chemscore.Metal>
0.0000

> <Gold.Chemscore.Lipo>
128.2002

> <Gold.Chemscore.Internal_Hbond>
0.0000

> <Gold.Chemscore.DEClash>
0.1385

> <Gold.Chemscore.DEInternal>
1.4715

> <Gold.Chemscore.Rot>
2.0498

> <Gold.Chemscore.Internal.Correction>
   9.000000E+99

> <Gold.Chemscore.Hbonds>
donor molecule, donor type, donor heavy atom, donor atom, acceptor molecule, acceptor atom, score
      L1  H     9    34       P1  8028  0.97
      L1  H    12    38       P1  7957  0.96
      P1  H 10752 10763       L1    16  0.21

> <Gold.Chemscore.Hbond.Weighted>
-9.1814

> <Gold.Chemscore.Metal.Weighted>
-0.0000

> <Gold.Chemscore.Lipo.Weighted>
-14.9994

> <Gold.Chemscore.Internal_Hbond.Weighted>
0.0000

> <Gold.Chemscore.DEClash.Weighted>
0.1385

> <Gold.Chemscore.DEInternal.Weighted>
1.4715

> <Gold.Chemscore.Rot.Weighted>
5.2475

> <Gold.Chemscore.Internal.Correction.Weighted>
   9.000000E+99

> <Gold.Protein.RotatedTorsions>
[ 6907 6896 6895 6894 ] final   27.19 input  -60.11 | X-H torsion
[ 7974 7965 7964 7962 ] final   52.57 input  175.53 | X-H torsion
[ 8008 7997 7996 7995 ] final   27.33 input   59.86 | X-H torsion
[ 10167 10162 10161 10158 ] final  -53.77 input  -65.29 | X-H torsion
[ 10718 10713 10712 10709 ] final -122.13 input   66.30 | X-H torsion
[ 10763 10752 10751 10750 ] final   66.87 input  -60.55 | X-H torsion
[ 11005 11000 10999 10996 ] final  -93.01 input  -57.11 | X-H torsion

> <Gold.Protein.ActiveResidues>
 VAL166  LYS551  ARG553  GLY616  TRP617  ASP618  TYR619  PRO620  LYS621  CYS622 
 ASP623  PHE694  ASN695  SER759  ASP760  ASP761  ALA762  ILE779  LEU786  VAL792 
 PHE793  MET794  SER795  GLU796  ALA797  LYS798  CYS799  TRP800  GLU811  SER814 

> <Gold.Protein.RotatedAtoms>
  151.9987  134.9940  160.0564 H   0  0  0  0  0  0  0  0  0  0  0  0  # atno 6907 bound_to 6896
  152.1540  133.4535  159.4836 H   0  0  0  0  0  0  0  0  0  0  0  0  # atno 6908 bound_to 6896
  150.6879  134.2072  159.4388 H   0  0  0  0  0  0  0  0  0  0  0  0  # atno 6909 bound_to 6896
  145.9799  139.4232  143.0138 H   0  0  0  0  0  0  0  0  0  0  0  0  # atno 7974 bound_to 7965
  155.0412  140.3169  155.4724 H   0  0  0  0  0  0  0  0  0  0  0  0  # atno 8008 bound_to 7997
  156.2854  140.2162  156.5479 H   0  0  0  0  0  0  0  0  0  0  0  0  # atno 8009 bound_to 7997
  154.7288  140.0483  157.0695 H   0  0  0  0  0  0  0  0  0  0  0  0  # atno 8010 bound_to 7997
  140.6467  143.2540  151.4839 H   0  0  0  0  0  0  0  0  0  0  0  0  # atno 10167 bound_to 10162
  156.1393  130.6454  150.9746 H   0  0  0  0  0  0  0  0  0  0  0  0  # atno 10718 bound_to 10713
  153.0160  135.5304  154.6891 H   0  0  0  0  0  0  0  0  0  0  0  0  # atno 10763 bound_to 10752
  154.6031  135.2870  155.0516 H   0  0  0  0  0  0  0  0  0  0  0  0  # atno 10764 bound_to 10752
  154.1566  135.6554  153.5028 H   0  0  0  0  0  0  0  0  0  0  0  0  # atno 10765 bound_to 10752
  141.1508  133.7859  157.0100 H   0  0  0  0  0  0  0  0  0  0  0  0  # atno 11005 bound_to 11000
  145.7784  140.9867  143.1112 LP  0  0  0  0  0  0  0  0  0  0  0  0  # atno 17320 bound_to 7965
  144.6859  139.9534  143.7478 LP  0  0  0  0  0  0  0  0  0  0  0  0  # atno 17321 bound_to 7965
  139.5678  144.2000  152.1791 LP  0  0  0  0  0  0  0  0  0  0  0  0  # atno 17342 bound_to 10162
  140.1287  144.5308  150.6816 LP  0  0  0  0  0  0  0  0  0  0  0  0  # atno 17343 bound_to 10162
  157.6561  131.0889  150.7943 LP  0  0  0  0  0  0  0  0  0  0  0  0  # atno 17370 bound_to 10713
  156.8020  130.4924  149.5368 LP  0  0  0  0  0  0  0  0  0  0  0  0  # atno 17371 bound_to 10713
  140.0884  134.9607  157.1737 LP  0  0  0  0  0  0  0  0  0  0  0  0  # atno 17394 bound_to 11000
  140.3480  134.2630  155.7202 LP  0  0  0  0  0  0  0  0  0  0  0  0  # atno 17395 bound_to 11000

$$$$
