AV-unprocessed.smi:3335|AV-procd|sdf|12839|dock9
  -GOLD-   2272019223D 1   1.00000     0.00000
 Structure written by MMmdl.
 47 48  0  0  0  0  0  0  0  0  2 V2000
  145.0112  141.3956  154.9405 C   0  0  0  0  0  0  0  0  0  0  0  0
  146.2490  140.5493  154.8671 C   0  0  0  0  0  0  0  0  0  0  0  0
  146.4709  139.3920  154.0686 C   0  0  0  0  0  0  0  0  0  0  0  0
  147.6741  138.8714  154.2435 N   0  0  0  0  0  0  0  0  0  0  0  0
  148.2675  139.6797  155.1507 N   0  0  0  0  0  0  0  0  0  0  0  0
  149.6210  139.3973  155.6134 C   0  0  2  0  0  0  0  0  0  0  0  0
  150.2450  138.2887  154.7422 C   0  0  0  0  0  0  0  0  0  0  0  0
  149.6536  139.0793  157.1362 C   0  0  1  0  0  0  0  0  0  0  0  0
  149.1910  137.6460  157.4488 C   0  0  0  0  0  0  0  0  0  0  0  0
  151.0215  139.2479  157.6914 N   0  3  0  0  0  0  0  0  0  0  0  0
  151.4751  140.6391  157.9340 C   0  0  2  0  0  0  0  0  0  0  0  0
  151.6782  141.3531  156.5892 C   0  0  0  0  0  0  0  0  0  0  0  0
  152.7792  140.6771  158.7548 C   0  0  0  0  0  0  0  0  0  0  0  0
  153.7509  140.0345  158.3535 O   0  0  0  0  0  0  0  0  0  0  0  0
  152.8278  141.4170  159.8836 N   0  0  0  0  0  0  0  0  0  0  0  0
  153.9773  141.5606  160.7778 C   0  0  0  0  0  0  0  0  0  0  0  0
  153.4560  142.2978  162.0110 C   0  0  0  0  0  0  0  0  0  0  0  0
  152.2562  143.0797  161.4962 C   0  0  0  0  0  0  0  0  0  0  0  0
  151.6989  142.2081  160.3710 C   0  0  0  0  0  0  0  0  0  0  0  0
  147.4269  140.7013  155.5422 C   0  0  0  0  0  0  0  0  0  0  0  0
  144.1722  140.9334  154.4195 H   0  0  0  0  0  0  0  0  0  0  0  0
  145.1683  142.3758  154.4904 H   0  0  0  0  0  0  0  0  0  0  0  0
  144.6967  141.5608  155.9711 H   0  0  0  0  0  0  0  0  0  0  0  0
  145.7947  138.9142  153.3747 H   0  0  0  0  0  0  0  0  0  0  0  0
  150.2072  140.3022  155.4451 H   0  0  0  0  0  0  0  0  0  0  0  0
  151.3166  138.1944  154.9161 H   0  0  0  0  0  0  0  0  0  0  0  0
  150.1163  138.5068  153.6813 H   0  0  0  0  0  0  0  0  0  0  0  0
  149.7877  137.3182  154.9384 H   0  0  0  0  0  0  0  0  0  0  0  0
  148.9674  139.7512  157.6539 H   0  0  0  0  0  0  0  0  0  0  0  0
  148.1422  137.4950  157.1942 H   0  0  0  0  0  0  0  0  0  0  0  0
  149.2892  137.4283  158.5130 H   0  0  0  0  0  0  0  0  0  0  0  0
  149.7802  136.9082  156.9033 H   0  0  0  0  0  0  0  0  0  0  0  0
  151.0564  138.7713  158.5814 H   0  0  0  0  0  0  0  0  0  0  0  0
  150.6827  141.1596  158.4633 H   0  0  0  0  0  0  0  0  0  0  0  0
  151.9928  142.3878  156.7302 H   0  0  0  0  0  0  0  0  0  0  0  0
  150.7513  141.3714  156.0149 H   0  0  0  0  0  0  0  0  0  0  0  0
  152.4353  140.8562  155.9807 H   0  0  0  0  0  0  0  0  0  0  0  0
  154.4139  140.6000  161.0536 H   0  0  0  0  0  0  0  0  0  0  0  0
  154.7444  142.1550  160.2791 H   0  0  0  0  0  0  0  0  0  0  0  0
  153.1264  141.5744  162.7581 H   0  0  0  0  0  0  0  0  0  0  0  0
  154.2101  142.9352  162.4734 H   0  0  0  0  0  0  0  0  0  0  0  0
  151.5209  143.2884  162.2738 H   0  0  0  0  0  0  0  0  0  0  0  0
  152.5912  144.0343  161.0880 H   0  0  0  0  0  0  0  0  0  0  0  0
  151.2518  142.8173  159.5837 H   0  0  0  0  0  0  0  0  0  0  0  0
  150.9320  141.5330  160.7536 H   0  0  0  0  0  0  0  0  0  0  0  0
  147.7301  141.4429  156.2667 H   0  0  0  0  0  0  0  0  0  0  0  0
  151.6707  138.7961  157.0640 H   0  0  0  0  0  0  0  0  0  0  0  0
  1  2  1  0  0  0  0
  1 21  1  0  0  0  0
  1 22  1  0  0  0  0
  1 23  1  0  0  0  0
  2 20  2  0  0  0  0
  2  3  1  0  0  0  0
  3  4  2  0  0  0  0
  3 24  1  0  0  0  0
  4  5  1  0  0  0  0
  5  6  1  0  0  0  0
  5 20  1  0  0  0  0
  6  7  1  0  0  0  0
  6  8  1  0  0  0  0
  6 25  1  0  0  0  0
  7 26  1  0  0  0  0
  7 27  1  0  0  0  0
  7 28  1  0  0  0  0
  8  9  1  0  0  0  0
  8 10  1  0  0  0  0
  8 29  1  0  0  0  0
  9 30  1  0  0  0  0
  9 31  1  0  0  0  0
  9 32  1  0  0  0  0
 10 11  1  0  0  0  0
 10 33  1  0  0  0  0
 10 47  1  0  0  0  0
 11 12  1  0  0  0  0
 11 13  1  0  0  0  0
 11 34  1  0  0  0  0
 12 35  1  0  0  0  0
 12 36  1  0  0  0  0
 12 37  1  0  0  0  0
 13 14  2  0  0  0  0
 13 15  1  0  0  0  0
 15 19  1  0  0  0  0
 15 16  1  0  0  0  0
 16 17  1  0  0  0  0
 16 38  1  0  0  0  0
 16 39  1  0  0  0  0
 17 18  1  0  0  0  0
 17 40  1  0  0  0  0
 17 41  1  0  0  0  0
 18 19  1  0  0  0  0
 18 42  1  0  0  0  0
 18 43  1  0  0  0  0
 19 44  1  0  0  0  0
 19 45  1  0  0  0  0
 20 46  1  0  0  0  0
M  CHG  1  10   1
M  END
> <s_m_source_file>
AV-unprocessed.smi

> <i_m_source_file_index>
3335

> <i_lp_mmshare_version>
43012

> <i_f3d_flags>
0

> <s_epik_input>
W0NIM11jMVtjSF1ubihbY0hdMSlbQ0BIXShbQ0gzXSlbQ0BIXShbQ0gzXSlbTkhdW0NASF0oW0NIM10pQyg9TylOMltDSDJdW0NIMl1bQ0gyXVtDSDJdMg==

> <s_epik_cmdline>
J2VwaWtfcHl0aG9uJywgJy1waCcsICc3LjAnLCAnLXRuJywgJzgnLCAnLW1hJywgJzIwMCcsICctbWV0YWxfYmluZGluZycsICctaW1hZScsICc8aW5maWxlLm1hZT4nLCAnLW9tYWUnLCAnPG91dGZpbGUubWFlPic=

> <r_lp_tautomer_probability>
1

> <r_epik_Ionization_Penalty>
0.14175

> <r_epik_Ionization_Penalty_Charging>
0.141731

> <r_epik_Ionization_Penalty_Neutral>
1.91261e-05

> <r_epik_State_Penalty>
0.131043

> <r_epik_Charging_Adjusted_Penalty>
0.272773

> <i_epik_Tot_Q>
1

> <i_epik_Tot_abs_Q>
1

> <r_epik_Metal_State_Penalty>
0.131408

> <b_epik_Metal_Only>
0

> <s_lp_Force_Field>
OPLS_2005

> <r_lp_Energy>
35.8146

> <b_lp_Chiralities_Consistent>
1

> <s_lp_Variant>
AV-unprocessed.smi:3335-3

> <Gold.Version>
5.8.1

> <Gold.Id.Protein>
6NUR|6NUR_protein|mol2

> <Gold.PLP.Fitness>
44.8271

> <Gold.PLP.PLP>
-37.1089

> <Gold.PLP.part.hbond>
-1.0000

> <Gold.PLP.part.metal>
0.0000

> <Gold.PLP.part.buried>
-5.6962

> <Gold.PLP.part.nonpolar>
-31.9578

> <Gold.PLP.part.repulsive>
0.8432

> <Gold.PLP.ligand.clash>
0.0000

> <Gold.PLP.ligand.torsion>
0.6810

> <Gold.PLP.Chemscore.Hbond>
1.0000

> <Gold.PLP.Chemscore.CHOScore>
1.9913

> <Gold.PLP.Chemscore.Metal>
0.0000

> <Gold.Chemscore.Hbonds>
donor molecule, donor type, donor heavy atom, donor atom, acceptor molecule, acceptor atom, score
      P1  H  7997  8008       L1    14  0.94
      L1  C     3    24       P1 10175  0.28

> <Gold.PLP.Chemscore.Internal.Correction>
0.1061

> <Gold.Rescore>
     Score         DG    S(hbond)    S(metal)    S(lipo)     H(rot)  DE(clash)    DE(int)     intcor
     12.99     -16.38       0.98        0.00     101.89       1.68       1.67       1.73       ----

> <Gold.Chemscore.Fitness>
12.9877

> <Gold.Chemscore.DG>
-16.3836

> <Gold.Chemscore.ZeroCoef>
-5.4800

> <Gold.Chemscore.Hbond>
0.9814

> <Gold.Chemscore.Metal>
0.0000

> <Gold.Chemscore.Lipo>
101.8871

> <Gold.Chemscore.Internal_Hbond>
0.0000

> <Gold.Chemscore.DEClash>
1.6702

> <Gold.Chemscore.DEInternal>
1.7257

> <Gold.Chemscore.Rot>
1.6778

> <Gold.Chemscore.Internal.Correction>
   9.000000E+99

> <Gold.Chemscore.Hbonds>
donor molecule, donor type, donor heavy atom, donor atom, acceptor molecule, acceptor atom, score
      P1  H  7997  8008       L1    14  0.89

> <Gold.Chemscore.Hbond.Weighted>
-3.2780

> <Gold.Chemscore.Metal.Weighted>
-0.0000

> <Gold.Chemscore.Lipo.Weighted>
-11.9208

> <Gold.Chemscore.Internal_Hbond.Weighted>
0.0000

> <Gold.Chemscore.DEClash.Weighted>
1.6702

> <Gold.Chemscore.DEInternal.Weighted>
1.7257

> <Gold.Chemscore.Rot.Weighted>
4.2952

> <Gold.Chemscore.Internal.Correction.Weighted>
   9.000000E+99

> <Gold.Protein.RotatedTorsions>
[ 6907 6896 6895 6894 ] final   56.65 input  -60.11 | X-H torsion
[ 7974 7965 7964 7962 ] final  135.53 input  175.53 | X-H torsion
[ 8008 7997 7996 7995 ] final  -83.41 input   59.86 | X-H torsion
[ 10167 10162 10161 10158 ] final  134.63 input  -65.29 | X-H torsion
[ 10718 10713 10712 10709 ] final -166.24 input   66.30 | X-H torsion
[ 10763 10752 10751 10750 ] final  109.58 input  -60.55 | X-H torsion
[ 11005 11000 10999 10996 ] final   -3.18 input  -57.11 | X-H torsion

> <Gold.Protein.ActiveResidues>
 VAL166  LYS551  ARG553  GLY616  TRP617  ASP618  TYR619  PRO620  LYS621  CYS622 
 ASP623  PHE694  ASN695  SER759  ASP760  ASP761  ALA762  ILE779  LEU786  VAL792 
 PHE793  MET794  SER795  GLU796  ALA797  LYS798  CYS799  TRP800  GLU811  SER814 

> <Gold.Protein.RotatedAtoms>
  152.3656  134.6808  160.0192 H   0  0  0  0  0  0  0  0  0  0  0  0  # atno 6907 bound_to 6896
  151.7117  133.3307  159.3300 H   0  0  0  0  0  0  0  0  0  0  0  0  # atno 6908 bound_to 6896
  150.7636  134.6460  159.6307 H   0  0  0  0  0  0  0  0  0  0  0  0  # atno 6909 bound_to 6896
  144.9654  139.4664  143.5459 H   0  0  0  0  0  0  0  0  0  0  0  0  # atno 7974 bound_to 7965
  154.6188  140.0619  156.9589 H   0  0  0  0  0  0  0  0  0  0  0  0  # atno 8008 bound_to 7997
  155.1851  140.3302  155.4350 H   0  0  0  0  0  0  0  0  0  0  0  0  # atno 8009 bound_to 7997
  156.2420  140.1891  156.6945 H   0  0  0  0  0  0  0  0  0  0  0  0  # atno 8010 bound_to 7997
  139.5248  144.6558  151.5167 H   0  0  0  0  0  0  0  0  0  0  0  0  # atno 10167 bound_to 10162
  156.6651  130.9061  151.3035 H   0  0  0  0  0  0  0  0  0  0  0  0  # atno 10718 bound_to 10713
  153.4367  135.3775  155.2203 H   0  0  0  0  0  0  0  0  0  0  0  0  # atno 10763 bound_to 10752
  154.8752  135.3853  154.4202 H   0  0  0  0  0  0  0  0  0  0  0  0  # atno 10764 bound_to 10752
  153.4742  135.7087  153.6039 H   0  0  0  0  0  0  0  0  0  0  0  0  # atno 10765 bound_to 10752
  140.6665  133.9274  155.8468 H   0  0  0  0  0  0  0  0  0  0  0  0  # atno 11005 bound_to 11000
  146.3366  139.8831  142.8821 LP  0  0  0  0  0  0  0  0  0  0  0  0  # atno 17320 bound_to 7965
  145.2638  141.0086  143.3811 LP  0  0  0  0  0  0  0  0  0  0  0  0  # atno 17321 bound_to 7965
  140.6382  143.8941  150.6667 LP  0  0  0  0  0  0  0  0  0  0  0  0  # atno 17342 bound_to 10162
  140.2267  143.3767  152.1599 LP  0  0  0  0  0  0  0  0  0  0  0  0  # atno 17343 bound_to 10162
  157.7096  130.9425  150.1046 LP  0  0  0  0  0  0  0  0  0  0  0  0  # atno 17370 bound_to 10713
  156.1981  130.3658  149.8823 LP  0  0  0  0  0  0  0  0  0  0  0  0  # atno 17371 bound_to 10713
  141.0425  134.0600  157.3884 LP  0  0  0  0  0  0  0  0  0  0  0  0  # atno 17394 bound_to 11000
  139.8996  135.0159  156.7201 LP  0  0  0  0  0  0  0  0  0  0  0  0  # atno 17395 bound_to 11000

$$$$
