AV-unprocessed.smi:1401|AV-procd|sdf|5689|dock3
  -GOLD-   22720 5313D 1   1.00000     0.00000
 Structure written by MMmdl.
 48 50  0  0  0  0  0  0  0  0  1 V2000
  149.3133  142.0715  158.1369 C   0  0  0  0  0  0  0  0  0  0  0  0
  150.0709  140.7724  158.0910 C   0  0  0  0  0  0  0  0  0  0  0  0
  149.4010  139.7226  157.7469 N   0  0  0  0  0  0  0  0  0  0  0  0
  149.9916  138.4739  157.6965 N   0  0  0  0  0  0  0  0  0  0  0  0
  149.0453  137.3861  157.3930 C   0  0  0  0  0  0  0  0  0  0  0  0
  148.9502  136.3191  158.4981 C   0  0  0  0  0  0  0  0  0  0  0  0
  149.8112  136.2786  159.3761 O   0  0  0  0  0  0  0  0  0  0  0  0
  147.9372  135.4398  158.4257 N   0  0  0  0  0  0  0  0  0  0  0  0
  147.7643  134.2437  159.2405 C   0  0  1  0  0  0  0  0  0  0  0  0
  148.6644  133.1088  158.7225 C   0  0  0  0  0  0  0  0  0  0  0  0
  148.0661  134.5934  160.7175 C   0  0  2  0  0  0  0  0  0  0  0  0
  147.7691  133.4612  161.7253 C   0  0  0  0  0  0  0  0  0  0  0  0
  146.9220  134.1693  162.8002 C   0  0  2  0  0  0  0  0  0  0  0  0
  145.5131  134.4378  162.2386 C   0  0  0  0  0  0  0  0  0  0  0  0
  145.7606  135.5769  161.2329 C   0  0  0  0  0  0  0  0  0  0  0  0
  147.2854  135.7869  161.3267 C   0  0  1  0  0  0  0  0  0  0  0  0
  147.5248  135.5692  162.8166 C   0  0  0  0  0  0  0  0  0  0  0  0
  151.3039  138.2254  157.9757 C   0  0  0  0  0  0  0  0  0  0  0  0
  151.7870  137.0932  157.9371 O   0  0  0  0  0  0  0  0  0  0  0  0
  152.0612  139.4226  158.3489 C   0  0  0  0  0  0  0  0  0  0  0  0
  153.4391  139.2068  158.6525 C   0  0  0  0  0  0  0  0  0  0  0  0
  154.5618  139.0429  158.8820 N   0  0  0  0  0  0  0  0  0  0  0  0
  151.4879  140.6504  158.4150 C   0  0  0  0  0  0  0  0  0  0  0  0
  152.2251  141.9214  158.8137 C   0  0  0  0  0  0  0  0  0  0  0  0
  149.7388  142.7931  157.4393 H   0  0  0  0  0  0  0  0  0  0  0  0
  149.3491  142.5038  159.1371 H   0  0  0  0  0  0  0  0  0  0  0  0
  148.2623  141.9390  157.8752 H   0  0  0  0  0  0  0  0  0  0  0  0
  148.0507  137.8092  157.2402 H   0  0  0  0  0  0  0  0  0  0  0  0
  149.2941  136.8919  156.4526 H   0  0  0  0  0  0  0  0  0  0  0  0
  147.2717  135.5665  157.6771 H   0  0  0  0  0  0  0  0  0  0  0  0
  146.7256  133.9192  159.1603 H   0  0  0  0  0  0  0  0  0  0  0  0
  148.5399  132.2042  159.3180 H   0  0  0  0  0  0  0  0  0  0  0  0
  149.7177  133.3886  158.7599 H   0  0  0  0  0  0  0  0  0  0  0  0
  148.4255  132.8530  157.6900 H   0  0  0  0  0  0  0  0  0  0  0  0
  149.1269  134.8414  160.7884 H   0  0  0  0  0  0  0  0  0  0  0  0
  147.2357  132.6204  161.2801 H   0  0  0  0  0  0  0  0  0  0  0  0
  148.6971  133.0752  162.1488 H   0  0  0  0  0  0  0  0  0  0  0  0
  146.9183  133.6561  163.7622 H   0  0  0  0  0  0  0  0  0  0  0  0
  145.0794  133.5543  161.7685 H   0  0  0  0  0  0  0  0  0  0  0  0
  144.8342  134.7645  163.0273 H   0  0  0  0  0  0  0  0  0  0  0  0
  145.4187  135.3349  160.2272 H   0  0  0  0  0  0  0  0  0  0  0  0
  145.2334  136.4793  161.5451 H   0  0  0  0  0  0  0  0  0  0  0  0
  147.6152  136.7587  160.9585 H   0  0  0  0  0  0  0  0  0  0  0  0
  146.9781  136.2696  163.4506 H   0  0  0  0  0  0  0  0  0  0  0  0
  148.5802  135.5838  163.0947 H   0  0  0  0  0  0  0  0  0  0  0  0
  153.2797  141.7406  159.0198 H   0  0  0  0  0  0  0  0  0  0  0  0
  151.7841  142.3509  159.7142 H   0  0  0  0  0  0  0  0  0  0  0  0
  152.1705  142.6628  158.0158 H   0  0  0  0  0  0  0  0  0  0  0  0
  1  2  1  0  0  0  0
  1 25  1  0  0  0  0
  1 26  1  0  0  0  0
  1 27  1  0  0  0  0
  2 23  1  0  0  0  0
  2  3  2  0  0  0  0
  3  4  1  0  0  0  0
  4  5  1  0  0  0  0
  4 18  1  0  0  0  0
  5  6  1  0  0  0  0
  5 28  1  0  0  0  0
  5 29  1  0  0  0  0
  6  7  2  0  0  0  0
  6  8  1  0  0  0  0
  8  9  1  0  0  0  0
  8 30  1  0  0  0  0
  9 10  1  0  0  0  0
  9 11  1  0  0  0  0
  9 31  1  0  0  0  0
 10 32  1  0  0  0  0
 10 33  1  0  0  0  0
 10 34  1  0  0  0  0
 11 16  1  0  0  0  0
 11 12  1  0  0  0  0
 11 35  1  0  0  0  0
 12 13  1  0  0  0  0
 12 36  1  0  0  0  0
 12 37  1  0  0  0  0
 13 17  1  0  0  0  0
 13 14  1  0  0  0  0
 13 38  1  0  0  0  0
 14 15  1  0  0  0  0
 14 39  1  0  0  0  0
 14 40  1  0  0  0  0
 15 16  1  0  0  0  0
 15 41  1  0  0  0  0
 15 42  1  0  0  0  0
 16 17  1  0  0  0  0
 16 43  1  0  0  0  0
 17 44  1  0  0  0  0
 17 45  1  0  0  0  0
 18 19  2  0  0  0  0
 18 20  1  0  0  0  0
 20 21  1  0  0  0  0
 20 23  2  0  0  0  0
 21 22  3  0  0  0  0
 23 24  1  0  0  0  0
 24 46  1  0  0  0  0
 24 47  1  0  0  0  0
 24 48  1  0  0  0  0
M  END
> <s_m_source_file>
AV-unprocessed.smi

> <i_m_source_file_index>
1401

> <i_lp_mmshare_version>
43012

> <i_f3d_flags>
0

> <s_epik_input>
TiNDYyhjMVtDSDNdKWMoPU8pbihuYzFbQ0gzXSlbQ0gyXUMoPU8pW05IXVtDQEhdKFtDSDNdKVtDQEhdKFtDSDJdW0NASF0yMylbQ0BIXShbQ0gyXTMpW0NIMl1bQ0gyXTI=

> <s_epik_cmdline>
J2VwaWtfcHl0aG9uJywgJy1waCcsICc3LjAnLCAnLXRuJywgJzgnLCAnLW1hJywgJzIwMCcsICctbWV0YWxfYmluZGluZycsICctaW1hZScsICc8aW5maWxlLm1hZT4nLCAnLW9tYWUnLCAnPG91dGZpbGUubWFlPic=

> <r_lp_tautomer_probability>
1

> <r_epik_Ionization_Penalty>
2.16501e-08

> <r_epik_Ionization_Penalty_Charging>
2.29436e-11

> <r_epik_Ionization_Penalty_Neutral>
2.16271e-08

> <r_epik_State_Penalty>
-0

> <r_epik_Charging_Adjusted_Penalty>
2.29436e-11

> <i_epik_Tot_Q>
0

> <i_epik_Tot_abs_Q>
0

> <r_epik_Metal_State_Penalty>
-0

> <b_epik_Metal_Only>
0

> <s_lp_Force_Field>
OPLS_2005

> <r_lp_Energy>
65.4856

> <b_lp_Chiralities_Consistent>
1

> <s_lp_Variant>
AV-unprocessed.smi:1401-2

> <Gold.Version>
5.8.1

> <Gold.Id.Protein>
6NUR|6NUR_protein|mol2

> <Gold.PLP.Fitness>
39.5690

> <Gold.PLP.PLP>
-34.3721

> <Gold.PLP.part.hbond>
-2.0000

> <Gold.PLP.part.metal>
0.0000

> <Gold.PLP.part.buried>
-4.1506

> <Gold.PLP.part.nonpolar>
-28.2590

> <Gold.PLP.part.repulsive>
0.0410

> <Gold.PLP.ligand.clash>
0.0000

> <Gold.PLP.ligand.torsion>
0.4212

> <Gold.PLP.Chemscore.Hbond>
2.0000

> <Gold.PLP.Chemscore.CHOScore>
0.0000

> <Gold.PLP.Chemscore.Metal>
0.0000

> <Gold.Chemscore.Hbonds>
donor molecule, donor type, donor heavy atom, donor atom, acceptor molecule, acceptor atom, score
      P1  H  6896  6908       L1     7  1.00
      P1  H  7997  8009       L1    22  0.90

> <Gold.PLP.Chemscore.Internal.Correction>
0.0393

> <Gold.Rescore>
     Score         DG    S(hbond)    S(metal)    S(lipo)     H(rot)  DE(clash)    DE(int)     intcor
     11.98     -17.45       1.87        0.00      84.50       1.63       0.12       5.35       ----

> <Gold.Chemscore.Fitness>
11.9802

> <Gold.Chemscore.DG>
-17.4523

> <Gold.Chemscore.ZeroCoef>
-5.4800

> <Gold.Chemscore.Hbond>
1.8723

> <Gold.Chemscore.Metal>
0.0000

> <Gold.Chemscore.Lipo>
84.5023

> <Gold.Chemscore.Internal_Hbond>
0.0000

> <Gold.Chemscore.DEClash>
0.1221

> <Gold.Chemscore.DEInternal>
5.3499

> <Gold.Chemscore.Rot>
1.6281

> <Gold.Chemscore.Internal.Correction>
   9.000000E+99

> <Gold.Chemscore.Hbonds>
donor molecule, donor type, donor heavy atom, donor atom, acceptor molecule, acceptor atom, score
      P1  H  6896  6908       L1     7  0.95
      P1  H  7997  8009       L1    22  0.18

> <Gold.Chemscore.Hbond.Weighted>
-6.2533

> <Gold.Chemscore.Metal.Weighted>
-0.0000

> <Gold.Chemscore.Lipo.Weighted>
-9.8868

> <Gold.Chemscore.Internal_Hbond.Weighted>
0.0000

> <Gold.Chemscore.DEClash.Weighted>
0.1221

> <Gold.Chemscore.DEInternal.Weighted>
5.3499

> <Gold.Chemscore.Rot.Weighted>
4.1678

> <Gold.Chemscore.Internal.Correction.Weighted>
   9.000000E+99

> <Gold.Protein.RotatedTorsions>
[ 6907 6896 6895 6894 ] final  178.50 input  -60.11 | X-H torsion
[ 7974 7965 7964 7962 ] final  -24.19 input  175.53 | X-H torsion
[ 8008 7997 7996 7995 ] final  109.48 input   59.86 | X-H torsion
[ 10167 10162 10161 10158 ] final  -67.42 input  -65.29 | X-H torsion
[ 10718 10713 10712 10709 ] final   -5.73 input   66.30 | X-H torsion
[ 10763 10752 10751 10750 ] final  167.81 input  -60.55 | X-H torsion
[ 11005 11000 10999 10996 ] final  121.01 input  -57.11 | X-H torsion

> <Gold.Protein.ActiveResidues>
 VAL166  LYS551  ARG553  GLY616  TRP617  ASP618  TYR619  PRO620  LYS621  CYS622 
 ASP623  PHE694  ASN695  SER759  ASP760  ASP761  ALA762  ILE779  LEU786  VAL792 
 PHE793  MET794  SER795  GLU796  ALA797  LYS798  CYS799  TRP800  GLU811  SER814 

> <Gold.Protein.RotatedAtoms>
  151.6869  133.3311  159.3232 H   0  0  0  0  0  0  0  0  0  0  0  0  # atno 6907 bound_to 6896
  150.7797  134.6732  159.6412 H   0  0  0  0  0  0  0  0  0  0  0  0  # atno 6908 bound_to 6896
  152.3850  134.6534  160.0181 H   0  0  0  0  0  0  0  0  0  0  0  0  # atno 6909 bound_to 6896
  146.1570  140.4718  142.8587 H   0  0  0  0  0  0  0  0  0  0  0  0  # atno 7974 bound_to 7965
  156.1982  140.3057  155.9471 H   0  0  0  0  0  0  0  0  0  0  0  0  # atno 8008 bound_to 7997
  155.3016  140.0447  157.3047 H   0  0  0  0  0  0  0  0  0  0  0  0  # atno 8009 bound_to 7997
  154.5537  140.2299  155.8454 H   0  0  0  0  0  0  0  0  0  0  0  0  # atno 8010 bound_to 7997
  140.5584  143.2312  151.6776 H   0  0  0  0  0  0  0  0  0  0  0  0  # atno 10167 bound_to 10162
  156.7422  130.5213  149.5821 H   0  0  0  0  0  0  0  0  0  0  0  0  # atno 10718 bound_to 10713
  154.3594  135.2753  155.2328 H   0  0  0  0  0  0  0  0  0  0  0  0  # atno 10763 bound_to 10752
  154.4523  135.5928  153.6203 H   0  0  0  0  0  0  0  0  0  0  0  0  # atno 10764 bound_to 10752
  152.9844  135.6045  154.3813 H   0  0  0  0  0  0  0  0  0  0  0  0  # atno 10765 bound_to 10752
  139.9208  134.9637  156.7894 H   0  0  0  0  0  0  0  0  0  0  0  0  # atno 11005 bound_to 11000
  144.7976  140.6152  143.6499 LP  0  0  0  0  0  0  0  0  0  0  0  0  # atno 17320 bound_to 7965
  145.4684  139.1506  143.3828 LP  0  0  0  0  0  0  0  0  0  0  0  0  # atno 17321 bound_to 7965
  139.5058  144.3702  152.0477 LP  0  0  0  0  0  0  0  0  0  0  0  0  # atno 17342 bound_to 10162
  140.2826  144.3842  150.6114 LP  0  0  0  0  0  0  0  0  0  0  0  0  # atno 17343 bound_to 10162
  156.1457  130.6275  151.0527 LP  0  0  0  0  0  0  0  0  0  0  0  0  # atno 17370 bound_to 10713
  157.6813  131.0837  150.7361 LP  0  0  0  0  0  0  0  0  0  0  0  0  # atno 17371 bound_to 10713
  140.6479  133.9758  155.7740 LP  0  0  0  0  0  0  0  0  0  0  0  0  # atno 17394 bound_to 11000
  141.0727  134.0181  157.3502 LP  0  0  0  0  0  0  0  0  0  0  0  0  # atno 17395 bound_to 11000

$$$$
