AV-unprocessed.smi:475|AV-procd|sdf|2668|dock3
  -GOLD-   2262023 83D 1   1.00000     0.00000
 Structure written by MMmdl.
 40 42  0  0  0  0  0  0  0  0  2 V2000
  153.0318  138.6701  154.4385 C   0  0  0  0  0  0  0  0  0  0  0  0
  152.6933  139.4637  155.5618 O   0  0  0  0  0  0  0  0  0  0  0  0
  151.6747  138.8775  156.3555 C   0  0  0  0  0  0  0  0  0  0  0  0
  151.4904  139.6832  157.6494 C   0  0  0  0  0  0  0  0  0  0  0  0
  151.1679  141.0936  157.3863 N   0  0  0  0  0  0  0  0  0  0  0  0
  150.3948  141.6508  156.4133 C   0  0  0  0  0  0  0  0  0  0  0  0
  149.5343  140.7823  155.1427 S   0  0  0  0  0  0  0  0  0  0  0  0
  148.1948  141.8931  154.6160 C   0  0  0  0  0  0  0  0  0  0  0  0
  146.8016  141.3488  154.9486 C   0  0  0  0  0  0  0  0  0  0  0  0
  146.0367  141.9714  155.6864 O   0  0  0  0  0  0  0  0  0  0  0  0
  146.4317  140.0661  154.3588 C   0  0  0  0  0  0  0  0  0  0  0  0
  145.5568  139.0872  154.7473 C   0  0  0  0  0  0  0  0  0  0  0  0
  145.6075  138.0460  153.7722 C   0  0  0  0  0  0  0  0  0  0  0  0
  146.5106  138.4114  152.8118 C   0  0  0  0  0  0  0  0  0  0  0  0
  147.0079  139.6436  153.1782 N   0  0  0  0  0  0  0  0  0  0  0  0
  150.4052  142.9999  156.5980 N   0  3  0  0  0  0  0  0  0  0  0  0
  151.1928  143.3119  157.7074 C   0  0  0  0  0  0  0  0  0  0  0  0
  151.5033  144.5383  158.2869 C   0  0  0  0  0  0  0  0  0  0  0  0
  152.3375  144.5080  159.4237 C   0  0  0  0  0  0  0  0  0  0  0  0
  152.8270  143.2919  159.9432 C   0  0  0  0  0  0  0  0  0  0  0  0
  152.5067  142.0547  159.3466 C   0  0  0  0  0  0  0  0  0  0  0  0
  151.6839  142.0925  158.2209 C   0  0  0  0  0  0  0  0  0  0  0  0
  147.6976  140.1670  152.6573 H   0  0  0  0  0  0  0  0  0  0  0  0
  153.8147  139.1647  153.8637 H   0  0  0  0  0  0  0  0  0  0  0  0
  152.1719  138.5271  153.7829 H   0  0  0  0  0  0  0  0  0  0  0  0
  153.4058  137.6923  154.7446 H   0  0  0  0  0  0  0  0  0  0  0  0
  150.7360  138.8539  155.8000 H   0  0  0  0  0  0  0  0  0  0  0  0
  151.9373  137.8459  156.5957 H   0  0  0  0  0  0  0  0  0  0  0  0
  150.7135  139.2461  158.2766 H   0  0  0  0  0  0  0  0  0  0  0  0
  152.4079  139.6574  158.2381 H   0  0  0  0  0  0  0  0  0  0  0  0
  148.3259  142.8624  155.0974 H   0  0  0  0  0  0  0  0  0  0  0  0
  148.2653  142.0485  153.5393 H   0  0  0  0  0  0  0  0  0  0  0  0
  144.9435  139.1111  155.6360 H   0  0  0  0  0  0  0  0  0  0  0  0
  145.0415  137.1262  153.7747 H   0  0  0  0  0  0  0  0  0  0  0  0
  146.8432  137.9164  151.9112 H   0  0  0  0  0  0  0  0  0  0  0  0
  151.1275  145.4710  157.8927 H   0  0  0  0  0  0  0  0  0  0  0  0
  152.6054  145.4357  159.9085 H   0  0  0  0  0  0  0  0  0  0  0  0
  153.4608  143.3074  160.8182 H   0  0  0  0  0  0  0  0  0  0  0  0
  152.8831  141.1294  159.7566 H   0  0  0  0  0  0  0  0  0  0  0  0
  149.9088  143.6562  156.0095 H   0  0  0  0  0  0  0  0  0  0  0  0
  1  2  1  0  0  0  0
  1 24  1  0  0  0  0
  1 25  1  0  0  0  0
  1 26  1  0  0  0  0
  2  3  1  0  0  0  0
  3  4  1  0  0  0  0
  3 27  1  0  0  0  0
  3 28  1  0  0  0  0
  4  5  1  0  0  0  0
  4 29  1  0  0  0  0
  4 30  1  0  0  0  0
  5 22  1  0  0  0  0
  5  6  1  0  0  0  0
  6  7  1  0  0  0  0
  6 16  2  0  0  0  0
  7  8  1  0  0  0  0
  8  9  1  0  0  0  0
  8 31  1  0  0  0  0
  8 32  1  0  0  0  0
  9 10  2  0  0  0  0
  9 11  1  0  0  0  0
 11 15  1  0  0  0  0
 11 12  2  0  0  0  0
 12 13  1  0  0  0  0
 12 33  1  0  0  0  0
 13 14  2  0  0  0  0
 13 34  1  0  0  0  0
 14 15  1  0  0  0  0
 14 35  1  0  0  0  0
 15 23  1  0  0  0  0
 16 17  1  0  0  0  0
 16 40  1  0  0  0  0
 17 22  2  0  0  0  0
 17 18  1  0  0  0  0
 18 19  2  0  0  0  0
 18 36  1  0  0  0  0
 19 20  1  0  0  0  0
 19 37  1  0  0  0  0
 20 21  2  0  0  0  0
 20 38  1  0  0  0  0
 21 22  1  0  0  0  0
 21 39  1  0  0  0  0
M  CHG  1  16   1
M  END
> <s_m_source_file>
AV-unprocessed.smi

> <i_m_source_file_index>
475

> <i_lp_mmshare_version>
43012

> <i_f3d_flags>
0

> <s_epik_input>
W2NIXTFbY0hdW2NIXVtjSF1jKGMxMiluKFtDSDJdW0NIMl1PW0NIM10pYyhuMilTW0NIMl1DKD1PKWMzW2NIXVtjSF1bY0hdW25IXTM=

> <s_epik_cmdline>
J2VwaWtfcHl0aG9uJywgJy1waCcsICc3LjAnLCAnLXRuJywgJzgnLCAnLW1hJywgJzIwMCcsICctbWV0YWxfYmluZGluZycsICctaW1hZScsICc8aW5maWxlLm1hZT4nLCAnLW9tYWUnLCAnPG91dGZpbGUubWFlPic=

> <r_lp_tautomer_probability>
0.9999

> <r_epik_Ionization_Penalty>
2.12955

> <r_epik_Ionization_Penalty_Charging>
2.12955

> <r_epik_Ionization_Penalty_Neutral>
1.90655e-06

> <r_epik_State_Penalty>
2.26782

> <r_epik_Charging_Adjusted_Penalty>
4.39737

> <i_epik_Tot_Q>
1

> <i_epik_Tot_abs_Q>
1

> <r_epik_Metal_State_Penalty>
2.28582

> <b_epik_Metal_Only>
0

> <s_lp_Force_Field>
OPLS_2005

> <r_lp_Energy>
16.0961

> <b_lp_Chiralities_Consistent>
1

> <s_lp_Variant>
AV-unprocessed.smi:475-2

> <Gold.Version>
5.8.1

> <Gold.Id.Protein>
6NUR|6NUR_protein|mol2

> <Gold.PLP.Fitness>
58.0833

> <Gold.PLP.PLP>
-46.4833

> <Gold.PLP.part.hbond>
-3.0000

> <Gold.PLP.part.metal>
0.0000

> <Gold.PLP.part.buried>
-2.4953

> <Gold.PLP.part.nonpolar>
-41.3122

> <Gold.PLP.part.repulsive>
0.2495

> <Gold.PLP.ligand.clash>
0.0000

> <Gold.PLP.ligand.torsion>
1.3214

> <Gold.PLP.Chemscore.Hbond>
3.8800

> <Gold.PLP.Chemscore.CHOScore>
0.8106

> <Gold.PLP.Chemscore.Metal>
0.0000

> <Gold.Chemscore.Hbonds>
donor molecule, donor type, donor heavy atom, donor atom, acceptor molecule, acceptor atom, score
      L1  H    15    23       P1  7957  0.03
      L1  H    16    40       P1  8028  1.92
      P1  H  7997  8009       L1     2  1.00
      L1  C    14    35       P1  7948  0.56

> <Gold.PLP.Chemscore.Internal.Correction>
0.1712

> <Gold.Rescore>
     Score         DG    S(hbond)    S(metal)    S(lipo)     H(rot)  DE(clash)    DE(int)     intcor
     20.80     -23.21       2.74        0.00     119.22       2.10       0.14       2.27       ----

> <Gold.Chemscore.Fitness>
20.8040

> <Gold.Chemscore.DG>
-23.2067

> <Gold.Chemscore.ZeroCoef>
-5.4800

> <Gold.Chemscore.Hbond>
2.7444

> <Gold.Chemscore.Metal>
0.0000

> <Gold.Chemscore.Lipo>
119.2159

> <Gold.Chemscore.Internal_Hbond>
0.0000

> <Gold.Chemscore.DEClash>
0.1375

> <Gold.Chemscore.DEInternal>
2.2652

> <Gold.Chemscore.Rot>
2.1046

> <Gold.Chemscore.Internal.Correction>
   9.000000E+99

> <Gold.Chemscore.Hbonds>
donor molecule, donor type, donor heavy atom, donor atom, acceptor molecule, acceptor atom, score
      L1  H    15    23       P1  7957  0.08
      L1  H    16    40       P1  8028  0.89
      P1  H  7997  8009       L1     2  0.40

> <Gold.Chemscore.Hbond.Weighted>
-9.1663

> <Gold.Chemscore.Metal.Weighted>
-0.0000

> <Gold.Chemscore.Lipo.Weighted>
-13.9483

> <Gold.Chemscore.Internal_Hbond.Weighted>
0.0000

> <Gold.Chemscore.DEClash.Weighted>
0.1375

> <Gold.Chemscore.DEInternal.Weighted>
2.2652

> <Gold.Chemscore.Rot.Weighted>
5.3878

> <Gold.Chemscore.Internal.Correction.Weighted>
   9.000000E+99

> <Gold.Protein.RotatedTorsions>
[ 6907 6896 6895 6894 ] final   33.45 input  -60.11 | X-H torsion
[ 7974 7965 7964 7962 ] final    9.36 input  175.53 | X-H torsion
[ 8008 7997 7996 7995 ] final -150.82 input   59.86 | X-H torsion
[ 10167 10162 10161 10158 ] final  -53.80 input  -65.29 | X-H torsion
[ 10718 10713 10712 10709 ] final  -59.26 input   66.30 | X-H torsion
[ 10763 10752 10751 10750 ] final  -96.66 input  -60.55 | X-H torsion
[ 11005 11000 10999 10996 ] final   10.61 input  -57.11 | X-H torsion

> <Gold.Protein.ActiveResidues>
 VAL166  LYS551  ARG553  GLY616  TRP617  ASP618  TYR619  PRO620  LYS621  CYS622 
 ASP623  PHE694  ASN695  SER759  ASP760  ASP761  ALA762  ILE779  LEU786  VAL792 
 PHE793  MET794  SER795  GLU796  ALA797  LYS798  CYS799  TRP800  GLU811  SER814 

> <Gold.Protein.RotatedAtoms>
  152.0887  134.9422  160.0572 H   0  0  0  0  0  0  0  0  0  0  0  0  # atno 6907 bound_to 6896
  152.0682  133.4089  159.4455 H   0  0  0  0  0  0  0  0  0  0  0  0  # atno 6908 bound_to 6896
  150.6836  134.3042  159.4763 H   0  0  0  0  0  0  0  0  0  0  0  0  # atno 6909 bound_to 6896
  146.2404  139.9795  142.8437 H   0  0  0  0  0  0  0  0  0  0  0  0  # atno 7974 bound_to 7965
  155.6297  140.0690  157.2653 H   0  0  0  0  0  0  0  0  0  0  0  0  # atno 8008 bound_to 7997
  154.4209  140.1770  156.1507 H   0  0  0  0  0  0  0  0  0  0  0  0  # atno 8009 bound_to 7997
  155.9943  140.3342  155.6787 H   0  0  0  0  0  0  0  0  0  0  0  0  # atno 8010 bound_to 7997
  140.6465  143.2539  151.4844 H   0  0  0  0  0  0  0  0  0  0  0  0  # atno 10167 bound_to 10162
  156.1075  130.4179  150.0691 H   0  0  0  0  0  0  0  0  0  0  0  0  # atno 10718 bound_to 10713
  154.7259  135.5075  153.8886 H   0  0  0  0  0  0  0  0  0  0  0  0  # atno 10763 bound_to 10752
  153.0905  135.6658  153.9872 H   0  0  0  0  0  0  0  0  0  0  0  0  # atno 10764 bound_to 10752
  153.9685  135.3041  155.3408 H   0  0  0  0  0  0  0  0  0  0  0  0  # atno 10765 bound_to 10752
  140.5126  134.0637  155.7822 H   0  0  0  0  0  0  0  0  0  0  0  0  # atno 11005 bound_to 11000
  145.1605  140.9670  143.4380 LP  0  0  0  0  0  0  0  0  0  0  0  0  # atno 17320 bound_to 7965
  145.0121  139.3501  143.6115 LP  0  0  0  0  0  0  0  0  0  0  0  0  # atno 17321 bound_to 7965
  139.5676  144.2004  152.1789 LP  0  0  0  0  0  0  0  0  0  0  0  0  # atno 17342 bound_to 10162
  140.1291  144.5305  150.6814 LP  0  0  0  0  0  0  0  0  0  0  0  0  # atno 17343 bound_to 10162
  156.8663  130.9509  151.3613 LP  0  0  0  0  0  0  0  0  0  0  0  0  # atno 17370 bound_to 10713
  157.6253  130.8686  149.9178 LP  0  0  0  0  0  0  0  0  0  0  0  0  # atno 17371 bound_to 10713
  141.1377  133.9192  157.2396 LP  0  0  0  0  0  0  0  0  0  0  0  0  # atno 17394 bound_to 11000
  139.9650  135.0144  156.9363 LP  0  0  0  0  0  0  0  0  0  0  0  0  # atno 17395 bound_to 11000

$$$$
