AV-unprocessed.smi:1071|AV-procd|sdf|4681|dock8
  -GOLD-   22720 3203D 1   1.00000     0.00000
 Structure written by MMmdl.
 46 47  0  0  0  0  0  0  0  0  1 V2000
  145.7991  137.3658  150.4645 C   0  0  0  0  0  0  0  0  0  0  0  0
  146.7876  138.1576  151.0992 O   0  0  0  0  0  0  0  0  0  0  0  0
  146.4373  138.5009  152.4297 C   0  0  0  0  0  0  0  0  0  0  0  0
  147.5358  139.3862  153.0257 C   0  0  0  0  0  0  0  0  0  0  0  0
  147.8096  138.9482  154.3532 O   0  0  0  0  0  0  0  0  0  0  0  0
  148.7431  139.6406  155.0967 C   0  0  0  0  0  0  0  0  0  0  0  0
  149.1075  140.9365  154.6810 C   0  0  0  0  0  0  0  0  0  0  0  0
  150.0602  141.6510  155.4320 C   0  0  0  0  0  0  0  0  0  0  0  0
  150.6275  141.0396  156.5754 C   0  0  0  0  0  0  0  0  0  0  0  0
  151.5818  141.6596  157.4266 N   0  0  0  0  0  0  0  0  0  0  0  0
  152.1899  141.1584  158.5199 C   0  0  0  0  0  0  0  0  0  0  0  0
  152.0887  139.9873  158.8835 O   0  0  0  0  0  0  0  0  0  0  0  0
  153.0264  142.0508  159.1050 N   0  0  0  0  0  0  0  0  0  0  0  0
  152.6064  143.4432  159.3298 C   0  0  0  0  0  0  0  0  0  0  0  0
  152.0218  143.5633  160.7532 C   0  0  0  0  0  0  0  0  0  0  0  0
  153.0254  143.1710  161.7455 N   0  0  0  0  0  0  0  0  0  0  0  0
  152.4554  143.2576  163.0819 C   0  0  0  0  0  0  0  0  0  0  0  0
  153.5011  141.8070  161.4994 C   0  0  0  0  0  0  0  0  0  0  0  0
  154.0882  141.7115  160.0748 C   0  0  1  0  0  0  0  0  0  0  0  0
  154.8087  140.3704  159.8242 C   0  0  0  0  0  0  0  0  0  0  0  0
  150.1830  139.7452  156.9159 C   0  0  0  0  0  0  0  0  0  0  0  0
  149.2705  139.0549  156.2003 N   0  0  0  0  0  0  0  0  0  0  0  0
  146.1171  137.1278  149.4496 H   0  0  0  0  0  0  0  0  0  0  0  0
  144.8480  137.8965  150.4036 H   0  0  0  0  0  0  0  0  0  0  0  0
  145.6432  136.4267  150.9972 H   0  0  0  0  0  0  0  0  0  0  0  0
  145.4742  139.0127  152.4625 H   0  0  0  0  0  0  0  0  0  0  0  0
  146.3444  137.5892  153.0218 H   0  0  0  0  0  0  0  0  0  0  0  0
  148.4390  139.2916  152.4208 H   0  0  0  0  0  0  0  0  0  0  0  0
  147.2268  140.4330  153.0063 H   0  0  0  0  0  0  0  0  0  0  0  0
  148.6602  141.3776  153.8022 H   0  0  0  0  0  0  0  0  0  0  0  0
  150.3217  142.6509  155.1235 H   0  0  0  0  0  0  0  0  0  0  0  0
  151.7481  142.6391  157.2468 H   0  0  0  0  0  0  0  0  0  0  0  0
  153.4605  144.1120  159.2112 H   0  0  0  0  0  0  0  0  0  0  0  0
  151.8649  143.7872  158.6078 H   0  0  0  0  0  0  0  0  0  0  0  0
  151.7108  144.5919  160.9389 H   0  0  0  0  0  0  0  0  0  0  0  0
  151.1335  142.9362  160.8489 H   0  0  0  0  0  0  0  0  0  0  0  0
  153.2002  142.9925  163.8331 H   0  0  0  0  0  0  0  0  0  0  0  0
  151.6020  142.5871  163.1941 H   0  0  0  0  0  0  0  0  0  0  0  0
  152.1211  144.2745  163.2901 H   0  0  0  0  0  0  0  0  0  0  0  0
  154.2675  141.5577  162.2346 H   0  0  0  0  0  0  0  0  0  0  0  0
  152.6873  141.0909  161.6258 H   0  0  0  0  0  0  0  0  0  0  0  0
  154.8644  142.4733  159.9769 H   0  0  0  0  0  0  0  0  0  0  0  0
  155.7028  140.2986  160.4438 H   0  0  0  0  0  0  0  0  0  0  0  0
  155.1254  140.2785  158.7849 H   0  0  0  0  0  0  0  0  0  0  0  0
  154.1882  139.5092  160.0704 H   0  0  0  0  0  0  0  0  0  0  0  0
  150.5755  139.2430  157.7882 H   0  0  0  0  0  0  0  0  0  0  0  0
  1  2  1  0  0  0  0
  1 23  1  0  0  0  0
  1 24  1  0  0  0  0
  1 25  1  0  0  0  0
  2  3  1  0  0  0  0
  3  4  1  0  0  0  0
  3 26  1  0  0  0  0
  3 27  1  0  0  0  0
  4  5  1  0  0  0  0
  4 28  1  0  0  0  0
  4 29  1  0  0  0  0
  5  6  1  0  0  0  0
  6 22  1  0  0  0  0
  6  7  2  0  0  0  0
  7  8  1  0  0  0  0
  7 30  1  0  0  0  0
  8  9  2  0  0  0  0
  8 31  1  0  0  0  0
  9 10  1  0  0  0  0
  9 21  1  0  0  0  0
 10 11  1  0  0  0  0
 10 32  1  0  0  0  0
 11 12  2  0  0  0  0
 11 13  1  0  0  0  0
 13 19  1  0  0  0  0
 13 14  1  0  0  0  0
 14 15  1  0  0  0  0
 14 33  1  0  0  0  0
 14 34  1  0  0  0  0
 15 16  1  0  0  0  0
 15 35  1  0  0  0  0
 15 36  1  0  0  0  0
 16 17  1  0  0  0  0
 16 18  1  0  0  0  0
 17 37  1  0  0  0  0
 17 38  1  0  0  0  0
 17 39  1  0  0  0  0
 18 19  1  0  0  0  0
 18 40  1  0  0  0  0
 18 41  1  0  0  0  0
 19 20  1  0  0  0  0
 19 42  1  0  0  0  0
 20 43  1  0  0  0  0
 20 44  1  0  0  0  0
 20 45  1  0  0  0  0
 21 22  2  0  0  0  0
 21 46  1  0  0  0  0
M  END
> <s_m_source_file>
AV-unprocessed.smi

> <i_m_source_file_index>
1071

> <i_lp_mmshare_version>
43012

> <i_f3d_flags>
0

> <s_epik_input>
W0NIM11PW0NIMl1bQ0gyXU9jMVtjSF1bY0hdYyhbY0hdbjEpW05IXUMoPU8pTjJbQ0gyXVtDSDJdTihbQ0gzXSlbQ0gyXVtDQEhdMltDSDNd

> <s_epik_cmdline>
J2VwaWtfcHl0aG9uJywgJy1waCcsICc3LjAnLCAnLXRuJywgJzgnLCAnLW1hJywgJzIwMCcsICctbWV0YWxfYmluZGluZycsICctaW1hZScsICc8aW5maWxlLm1hZT4nLCAnLW9tYWUnLCAnPG91dGZpbGUubWFlPic=

> <r_lp_tautomer_probability>
1

> <r_epik_Ionization_Penalty>
0.623446

> <r_epik_Ionization_Penalty_Charging>
0

> <r_epik_Ionization_Penalty_Neutral>
0.623446

> <r_epik_State_Penalty>
0.639577

> <r_epik_Charging_Adjusted_Penalty>
0.639577

> <i_epik_Tot_Q>
0

> <i_epik_Tot_abs_Q>
0

> <r_epik_Metal_State_Penalty>
0.639567

> <b_epik_Metal_Only>
0

> <s_lp_Force_Field>
OPLS_2005

> <r_lp_Energy>
47.7745

> <b_lp_Chiralities_Consistent>
1

> <s_lp_Variant>
AV-unprocessed.smi:1071-5

> <Gold.Version>
5.8.1

> <Gold.Id.Protein>
6NUR|6NUR_protein|mol2

> <Gold.PLP.Fitness>
37.5856

> <Gold.PLP.PLP>
-36.2187

> <Gold.PLP.part.hbond>
-1.0000

> <Gold.PLP.part.metal>
0.0000

> <Gold.PLP.part.buried>
7.3605

> <Gold.PLP.part.nonpolar>
-43.8429

> <Gold.PLP.part.repulsive>
1.7538

> <Gold.PLP.ligand.clash>
0.0055

> <Gold.PLP.ligand.torsion>
0.9383

> <Gold.PLP.Chemscore.Hbond>
0.9000

> <Gold.PLP.Chemscore.CHOScore>
0.0000

> <Gold.PLP.Chemscore.Metal>
0.0000

> <Gold.Chemscore.Hbonds>
donor molecule, donor type, donor heavy atom, donor atom, acceptor molecule, acceptor atom, score
      P1  H  7954  7966       L1     2  0.90

> <Gold.PLP.Chemscore.Internal.Correction>
0.5489

> <Gold.Rescore>
     Score         DG    S(hbond)    S(metal)    S(lipo)     H(rot)  DE(clash)    DE(int)     intcor
      8.46     -15.21       0.07        0.00     115.61       1.57       3.13       3.62       ----

> <Gold.Chemscore.Fitness>
8.4585

> <Gold.Chemscore.DG>
-15.2113

> <Gold.Chemscore.ZeroCoef>
-5.4800

> <Gold.Chemscore.Hbond>
0.0702

> <Gold.Chemscore.Metal>
0.0000

> <Gold.Chemscore.Lipo>
115.6146

> <Gold.Chemscore.Internal_Hbond>
0.0000

> <Gold.Chemscore.DEClash>
3.1282

> <Gold.Chemscore.DEInternal>
3.6246

> <Gold.Chemscore.Rot>
1.5743

> <Gold.Chemscore.Internal.Correction>
   9.000000E+99

> <Gold.Chemscore.Hbonds>
donor molecule, donor type, donor heavy atom, donor atom, acceptor molecule, acceptor atom, score
      P1  H  7954  7966       L1     2  0.18

> <Gold.Chemscore.Hbond.Weighted>
-0.2345

> <Gold.Chemscore.Metal.Weighted>
-0.0000

> <Gold.Chemscore.Lipo.Weighted>
-13.5269

> <Gold.Chemscore.Internal_Hbond.Weighted>
0.0000

> <Gold.Chemscore.DEClash.Weighted>
3.1282

> <Gold.Chemscore.DEInternal.Weighted>
3.6246

> <Gold.Chemscore.Rot.Weighted>
4.0301

> <Gold.Chemscore.Internal.Correction.Weighted>
   9.000000E+99

> <Gold.Protein.RotatedTorsions>
[ 6907 6896 6895 6894 ] final  163.73 input  -60.11 | X-H torsion
[ 7974 7965 7964 7962 ] final   -1.87 input  175.53 | X-H torsion
[ 8008 7997 7996 7995 ] final  -40.89 input   59.86 | X-H torsion
[ 10167 10162 10161 10158 ] final -130.39 input  -65.29 | X-H torsion
[ 10718 10713 10712 10709 ] final  -54.55 input   66.30 | X-H torsion
[ 10763 10752 10751 10750 ] final  159.18 input  -60.55 | X-H torsion
[ 11005 11000 10999 10996 ] final  120.03 input  -57.11 | X-H torsion

> <Gold.Protein.ActiveResidues>
 VAL166  LYS551  ARG553  GLY616  TRP617  ASP618  TYR619  PRO620  LYS621  CYS622 
 ASP623  PHE694  ASN695  SER759  ASP760  ASP761  ALA762  ILE779  LEU786  VAL792 
 PHE793  MET794  SER795  GLU796  ALA797  LYS798  CYS799  TRP800  GLU811  SER814 

> <Gold.Protein.RotatedAtoms>
  151.9208  133.3585  159.3895 H   0  0  0  0  0  0  0  0  0  0  0  0  # atno 6907 bound_to 6896
  150.7037  134.4637  159.5402 H   0  0  0  0  0  0  0  0  0  0  0  0  # atno 6908 bound_to 6896
  152.2260  134.8367  160.0530 H   0  0  0  0  0  0  0  0  0  0  0  0  # atno 6909 bound_to 6896
  146.2412  140.1486  142.8334 H   0  0  0  0  0  0  0  0  0  0  0  0  # atno 7974 bound_to 7965
  154.4008  140.1514  156.3100 H   0  0  0  0  0  0  0  0  0  0  0  0  # atno 8008 bound_to 7997
  155.8624  140.3453  155.5743 H   0  0  0  0  0  0  0  0  0  0  0  0  # atno 8009 bound_to 7997
  155.7866  140.0851  157.2022 H   0  0  0  0  0  0  0  0  0  0  0  0  # atno 8010 bound_to 7997
  139.9298  143.6285  152.2532 H   0  0  0  0  0  0  0  0  0  0  0  0  # atno 10167 bound_to 10162
  156.1442  130.4153  150.0052 H   0  0  0  0  0  0  0  0  0  0  0  0  # atno 10718 bound_to 10713
  154.2278  135.2779  155.2901 H   0  0  0  0  0  0  0  0  0  0  0  0  # atno 10763 bound_to 10752
  154.5649  135.5636  153.7044 H   0  0  0  0  0  0  0  0  0  0  0  0  # atno 10764 bound_to 10752
  153.0027  135.6307  154.2419 H   0  0  0  0  0  0  0  0  0  0  0  0  # atno 10765 bound_to 10752
  139.9169  134.9632  156.7745 H   0  0  0  0  0  0  0  0  0  0  0  0  # atno 11005 bound_to 11000
  145.0187  140.8775  143.5180 LP  0  0  0  0  0  0  0  0  0  0  0  0  # atno 17320 bound_to 7965
  145.1531  139.2503  143.5430 LP  0  0  0  0  0  0  0  0  0  0  0  0  # atno 17321 bound_to 7965
  139.6791  144.7656  151.1641 LP  0  0  0  0  0  0  0  0  0  0  0  0  # atno 17342 bound_to 10162
  140.7640  143.5751  150.8954 LP  0  0  0  0  0  0  0  0  0  0  0  0  # atno 17343 bound_to 10162
  156.7929  130.9262  151.3646 LP  0  0  0  0  0  0  0  0  0  0  0  0  # atno 17370 bound_to 10713
  157.6602  130.8959  149.9813 LP  0  0  0  0  0  0  0  0  0  0  0  0  # atno 17371 bound_to 10713
  140.6594  133.9659  155.7796 LP  0  0  0  0  0  0  0  0  0  0  0  0  # atno 17394 bound_to 11000
  141.0654  134.0284  157.3601 LP  0  0  0  0  0  0  0  0  0  0  0  0  # atno 17395 bound_to 11000

$$$$
