AV-unprocessed.smi:1452|AV-procd|sdf|5904|dock3
  -GOLD-   22720 5593D 1   1.00000     0.00000
 Structure written by MMmdl.
 40 42  0  0  0  0  0  0  0  0  2 V2000
  146.8877  128.4495  153.2945 O   0  0  0  0  0  0  0  0  0  0  0  0
  147.3658  128.9566  152.2814 C   0  0  0  0  0  0  0  0  0  0  0  0
  148.0374  128.2131  151.3770 N   0  0  0  0  0  0  0  0  0  0  0  0
  148.3406  126.8200  151.3489 C   0  0  0  0  0  0  0  0  0  0  0  0
  149.0757  126.4019  150.2168 C   0  0  0  0  0  0  0  0  0  0  0  0
  149.4474  125.0495  150.0886 C   0  0  0  0  0  0  0  0  0  0  0  0
  149.0779  124.1465  151.1010 C   0  0  0  0  0  0  0  0  0  0  0  0
  148.3518  124.6428  152.1983 C   0  0  0  0  0  0  0  0  0  0  0  0
  147.9940  125.9387  152.3224 N   0  0  0  0  0  0  0  0  0  0  0  0
  147.2558  130.2662  152.0026 N   0  0  0  0  0  0  0  0  0  0  0  0
  146.5330  131.2542  152.7992 C   0  0  1  0  0  0  0  0  0  0  0  0
  147.4569  132.3406  153.3843 C   0  0  0  0  0  0  0  0  0  0  0  0
  146.6889  133.6519  153.1899 C   0  0  0  0  0  0  0  0  0  0  0  0
  145.9470  133.4166  151.9458 N   0  3  2  0  0  0  0  0  0  0  0  0
  144.8935  134.3767  151.5599 C   0  0  0  0  0  0  0  0  0  0  0  0
  144.3977  134.0145  150.1434 C   0  0  0  0  0  0  0  0  0  0  0  0
  143.9808  132.5305  150.0309 C   0  0  0  0  0  0  0  0  0  0  0  0
  145.0756  131.5850  150.5703 C   0  0  0  0  0  0  0  0  0  0  0  0
  145.4622  132.0266  151.9937 C   0  0  1  0  0  0  0  0  0  0  0  0
  148.4630  128.7453  150.6318 H   0  0  0  0  0  0  0  0  0  0  0  0
  149.3550  127.1086  149.4485 H   0  0  0  0  0  0  0  0  0  0  0  0
  150.0072  124.7125  149.2288 H   0  0  0  0  0  0  0  0  0  0  0  0
  149.3453  123.1020  151.0391 H   0  0  0  0  0  0  0  0  0  0  0  0
  148.0508  123.9831  152.9988 H   0  0  0  0  0  0  0  0  0  0  0  0
  147.6834  130.5947  151.1479 H   0  0  0  0  0  0  0  0  0  0  0  0
  146.0387  130.7508  153.6324 H   0  0  0  0  0  0  0  0  0  0  0  0
  147.7105  132.1582  154.4290 H   0  0  0  0  0  0  0  0  0  0  0  0
  148.3918  132.3861  152.8233 H   0  0  0  0  0  0  0  0  0  0  0  0
  145.9895  133.8132  154.0118 H   0  0  0  0  0  0  0  0  0  0  0  0
  147.3457  134.5191  153.1165 H   0  0  0  0  0  0  0  0  0  0  0  0
  144.0742  134.3467  152.2797 H   0  0  0  0  0  0  0  0  0  0  0  0
  145.2967  135.3900  151.5694 H   0  0  0  0  0  0  0  0  0  0  0  0
  143.5645  134.6594  149.8624 H   0  0  0  0  0  0  0  0  0  0  0  0
  145.1938  134.2139  149.4249 H   0  0  0  0  0  0  0  0  0  0  0  0
  143.0606  132.3737  150.5950 H   0  0  0  0  0  0  0  0  0  0  0  0
  143.7505  132.2834  148.9942 H   0  0  0  0  0  0  0  0  0  0  0  0
  144.7078  130.5585  150.5746 H   0  0  0  0  0  0  0  0  0  0  0  0
  145.9465  131.6094  149.9136 H   0  0  0  0  0  0  0  0  0  0  0  0
  144.5561  132.0169  152.6035 H   0  0  0  0  0  0  0  0  0  0  0  0
  146.6404  133.4438  151.2122 H   0  0  0  0  0  0  0  0  0  0  0  0
  1  2  2  0  0  0  0
  2  3  1  0  0  0  0
  2 10  1  0  0  0  0
  3  4  1  0  0  0  0
  3 20  1  0  0  0  0
  4  9  1  0  0  0  0
  4  5  2  0  0  0  0
  5  6  1  0  0  0  0
  5 21  1  0  0  0  0
  6  7  2  0  0  0  0
  6 22  1  0  0  0  0
  7  8  1  0  0  0  0
  7 23  1  0  0  0  0
  8  9  2  0  0  0  0
  8 24  1  0  0  0  0
 10 11  1  0  0  0  0
 10 25  1  0  0  0  0
 11 19  1  0  0  0  0
 11 12  1  0  0  0  0
 11 26  1  0  0  0  0
 12 13  1  0  0  0  0
 12 27  1  0  0  0  0
 12 28  1  0  0  0  0
 13 14  1  0  0  0  0
 13 29  1  0  0  0  0
 13 30  1  0  0  0  0
 14 19  1  0  0  0  0
 14 15  1  0  0  0  0
 14 40  1  0  0  0  0
 15 16  1  0  0  0  0
 15 31  1  0  0  0  0
 15 32  1  0  0  0  0
 16 17  1  0  0  0  0
 16 33  1  0  0  0  0
 16 34  1  0  0  0  0
 17 18  1  0  0  0  0
 17 35  1  0  0  0  0
 17 36  1  0  0  0  0
 18 19  1  0  0  0  0
 18 37  1  0  0  0  0
 18 38  1  0  0  0  0
 19 39  1  0  0  0  0
M  CHG  1  14   1
M  END
> <s_m_source_file>
AV-unprocessed.smi

> <i_m_source_file_index>
1452

> <i_lp_mmshare_version>
43012

> <i_f3d_flags>
0

> <s_epik_input>
W0NIMl0xW0NIMl1bQ0gyXVtDSDJdW0NASF0oTjEyKVtDQEBIXShbQ0gyXVtDSDJdMilbTkhdQyg9TylbTkhdYzNbY0hdW2NIXVtjSF1bY0hdbjM=

> <s_epik_cmdline>
J2VwaWtfcHl0aG9uJywgJy1waCcsICc3LjAnLCAnLXRuJywgJzgnLCAnLW1hJywgJzIwMCcsICctbWV0YWxfYmluZGluZycsICctaW1hZScsICc8aW5maWxlLm1hZT4nLCAnLW9tYWUnLCAnPG91dGZpbGUubWFlPic=

> <r_epik_Ionization_Penalty>
0.00100813

> <r_epik_Ionization_Penalty_Charging>
0.000974069

> <r_epik_Ionization_Penalty_Neutral>
3.40643e-05

> <r_epik_State_Penalty>
0.000633842

> <r_epik_Charging_Adjusted_Penalty>
0.00160791

> <i_epik_Tot_Q>
1

> <i_epik_Tot_abs_Q>
1

> <r_epik_Metal_State_Penalty>
-0

> <b_epik_Metal_Only>
0

> <s_lp_Force_Field>
OPLS_2005

> <r_lp_Energy>
45.5748

> <b_lp_Chiralities_Consistent>
1

> <s_lp_Variant>
AV-unprocessed.smi:1452-2

> <Gold.Version>
5.8.1

> <Gold.Id.Protein>
6NUR|6NUR_protein|mol2

> <Gold.PLP.Fitness>
39.1016

> <Gold.PLP.PLP>
-35.6509

> <Gold.PLP.part.hbond>
-2.3314

> <Gold.PLP.part.metal>
0.0000

> <Gold.PLP.part.buried>
-4.6922

> <Gold.PLP.part.nonpolar>
-28.0403

> <Gold.PLP.part.repulsive>
0.2738

> <Gold.PLP.ligand.clash>
0.0000

> <Gold.PLP.ligand.torsion>
0.0158

> <Gold.PLP.Chemscore.Hbond>
1.1606

> <Gold.PLP.Chemscore.CHOScore>
0.0000

> <Gold.PLP.Chemscore.Metal>
0.0000

> <Gold.Chemscore.Hbonds>
donor molecule, donor type, donor heavy atom, donor atom, acceptor molecule, acceptor atom, score
      L1  H     3    20       P1 10747  0.14
      L1  H    10    25       P1 10747  0.99

> <Gold.PLP.Chemscore.Internal.Correction>
0.0005

> <Gold.Rescore>
     Score         DG    S(hbond)    S(metal)    S(lipo)     H(rot)  DE(clash)    DE(int)     intcor
     13.68     -15.00       0.99        0.00      74.89       1.00       0.06       1.26       ----

> <Gold.Chemscore.Fitness>
13.6803

> <Gold.Chemscore.DG>
-14.9984

> <Gold.Chemscore.ZeroCoef>
-5.4800

> <Gold.Chemscore.Hbond>
0.9928

> <Gold.Chemscore.Metal>
0.0000

> <Gold.Chemscore.Lipo>
74.8932

> <Gold.Chemscore.Internal_Hbond>
0.0000

> <Gold.Chemscore.DEClash>
0.0588

> <Gold.Chemscore.DEInternal>
1.2593

> <Gold.Chemscore.Rot>
1.0000

> <Gold.Chemscore.Internal.Correction>
   9.000000E+99

> <Gold.Chemscore.Hbonds>
donor molecule, donor type, donor heavy atom, donor atom, acceptor molecule, acceptor atom, score
      L1  H    10    25       P1 10747  0.91

> <Gold.Chemscore.Hbond.Weighted>
-3.3159

> <Gold.Chemscore.Metal.Weighted>
-0.0000

> <Gold.Chemscore.Lipo.Weighted>
-8.7625

> <Gold.Chemscore.Internal_Hbond.Weighted>
0.0000

> <Gold.Chemscore.DEClash.Weighted>
0.0588

> <Gold.Chemscore.DEInternal.Weighted>
1.2593

> <Gold.Chemscore.Rot.Weighted>
2.5600

> <Gold.Chemscore.Internal.Correction.Weighted>
   9.000000E+99

> <Gold.Protein.RotatedTorsions>
[ 6907 6896 6895 6894 ] final  115.69 input  -60.11 | X-H torsion
[ 7974 7965 7964 7962 ] final  179.44 input  175.53 | X-H torsion
[ 8008 7997 7996 7995 ] final   87.13 input   59.86 | X-H torsion
[ 10167 10162 10161 10158 ] final   98.20 input  -65.29 | X-H torsion
[ 10718 10713 10712 10709 ] final  -96.39 input   66.30 | X-H torsion
[ 10763 10752 10751 10750 ] final   -8.30 input  -60.55 | X-H torsion
[ 11005 11000 10999 10996 ] final -118.85 input  -57.11 | X-H torsion

> <Gold.Protein.ActiveResidues>
 VAL166  LYS551  ARG553  GLY616  TRP617  ASP618  TYR619  PRO620  LYS621  CYS622 
 ASP623  PHE694  ASN695  SER759  ASP760  ASP761  ALA762  ILE779  LEU786  VAL792 
 PHE793  MET794  SER795  GLU796  ALA797  LYS798  CYS799  TRP800  GLU811  SER814 

> <Gold.Protein.RotatedAtoms>
  152.4725  133.8063  159.6979 H   0  0  0  0  0  0  0  0  0  0  0  0  # atno 6907 bound_to 6896
  150.8723  133.7478  159.2964 H   0  0  0  0  0  0  0  0  0  0  0  0  # atno 6908 bound_to 6896
  151.5009  135.1065  159.9881 H   0  0  0  0  0  0  0  0  0  0  0  0  # atno 6909 bound_to 6896
  144.7146  140.0549  143.6434 H   0  0  0  0  0  0  0  0  0  0  0  0  # atno 7974 bound_to 7965
  155.9715  140.3385  155.6580 H   0  0  0  0  0  0  0  0  0  0  0  0  # atno 8008 bound_to 7997
  155.6668  140.0722  157.2552 H   0  0  0  0  0  0  0  0  0  0  0  0  # atno 8009 bound_to 7997
  154.4168  140.1699  156.1823 H   0  0  0  0  0  0  0  0  0  0  0  0  # atno 8010 bound_to 7997
  139.7731  144.6915  151.0128 H   0  0  0  0  0  0  0  0  0  0  0  0  # atno 10167 bound_to 10162
  156.0061  130.5149  150.6219 H   0  0  0  0  0  0  0  0  0  0  0  0  # atno 10718 bound_to 10713
  153.4385  135.7013  153.6184 H   0  0  0  0  0  0  0  0  0  0  0  0  # atno 10763 bound_to 10752
  153.4569  135.3745  155.2316 H   0  0  0  0  0  0  0  0  0  0  0  0  # atno 10764 bound_to 10752
  154.8727  135.4010  154.3780 H   0  0  0  0  0  0  0  0  0  0  0  0  # atno 10765 bound_to 10752
  141.0257  134.0057  157.3218 H   0  0  0  0  0  0  0  0  0  0  0  0  # atno 11005 bound_to 11000
  145.9913  139.3017  143.0983 LP  0  0  0  0  0  0  0  0  0  0  0  0  # atno 17320 bound_to 7965
  145.8899  140.9310  143.0557 LP  0  0  0  0  0  0  0  0  0  0  0  0  # atno 17321 bound_to 7965
  140.7815  143.4566  151.0336 LP  0  0  0  0  0  0  0  0  0  0  0  0  # atno 17342 bound_to 10162
  139.8250  143.7769  152.3178 LP  0  0  0  0  0  0  0  0  0  0  0  0  # atno 17343 bound_to 10162
  157.4033  131.0813  151.1288 LP  0  0  0  0  0  0  0  0  0  0  0  0  # atno 17370 bound_to 10713
  157.1943  130.6366  149.5715 LP  0  0  0  0  0  0  0  0  0  0  0  0  # atno 17371 bound_to 10713
  139.9174  135.0198  156.7935 LP  0  0  0  0  0  0  0  0  0  0  0  0  # atno 17394 bound_to 11000
  140.6495  133.9744  155.7748 LP  0  0  0  0  0  0  0  0  0  0  0  0  # atno 17395 bound_to 11000

$$$$
