AV-unprocessed.smi:1988|AV-procd|sdf|8059|dock2
  -GOLD-   2272010263D 1   1.00000     0.00000
 Structure written by MMmdl.
 37 38  0  0  0  0  0  0  0  0  1 V2000
  152.1574  141.5181  159.2294 C   0  0  0  0  0  0  0  0  0  0  0  0
  152.2760  140.6084  158.0403 C   0  0  0  0  0  0  0  0  0  0  0  0
  153.0181  139.5173  158.1254 N   0  0  0  0  0  0  0  0  0  0  0  0
  152.9244  138.8922  156.8784 O   0  0  0  0  0  0  0  0  0  0  0  0
  152.1195  139.6401  156.0819 C   0  0  0  0  0  0  0  0  0  0  0  0
  151.8953  139.1319  154.6979 C   0  0  0  0  0  0  0  0  0  0  0  0
  151.6735  140.7441  156.7563 C   0  0  0  0  0  0  0  0  0  0  0  0
  150.7635  141.8440  156.2712 C   0  0  0  0  0  0  0  0  0  0  0  0
  149.4450  141.2513  155.7725 C   0  0  0  0  0  0  0  0  0  0  0  0
  149.2491  140.0388  155.8461 O   0  0  0  0  0  0  0  0  0  0  0  0
  148.5548  142.1161  155.2607 N   0  0  0  0  0  0  0  0  0  0  0  0
  147.2351  141.7715  154.7420 C   0  0  0  0  0  0  0  0  0  0  0  0
  146.1813  142.8468  155.0715 C   0  0  1  0  0  0  0  0  0  0  0  0
  145.5605  143.5197  153.8284 C   0  0  0  0  0  0  0  0  0  0  0  0
  144.3416  144.3373  154.2673 C   0  0  0  0  0  0  0  0  0  0  0  0
  143.6087  143.4189  155.6709 S   0  0  0  0  0  0  0  0  0  0  0  0
  143.4937  144.3225  156.8257 O   0  0  0  0  0  0  0  0  0  0  0  0
  142.4529  142.6407  155.2000 O   0  0  0  0  0  0  0  0  0  0  0  0
  145.0279  142.2857  155.9183 C   0  0  0  0  0  0  0  0  0  0  0  0
  152.1819  142.5648  158.9266 H   0  0  0  0  0  0  0  0  0  0  0  0
  152.9711  141.3628  159.9389 H   0  0  0  0  0  0  0  0  0  0  0  0
  151.2190  141.3469  159.7568 H   0  0  0  0  0  0  0  0  0  0  0  0
  151.5725  139.9332  154.0332 H   0  0  0  0  0  0  0  0  0  0  0  0
  151.1280  138.3578  154.6921 H   0  0  0  0  0  0  0  0  0  0  0  0
  152.8108  138.7045  154.2882 H   0  0  0  0  0  0  0  0  0  0  0  0
  150.5500  142.5656  157.0606 H   0  0  0  0  0  0  0  0  0  0  0  0
  151.2279  142.4114  155.4637 H   0  0  0  0  0  0  0  0  0  0  0  0
  148.8064  143.0939  155.2445 H   0  0  0  0  0  0  0  0  0  0  0  0
  147.2727  141.5878  153.6669 H   0  0  0  0  0  0  0  0  0  0  0  0
  146.9431  140.8259  155.1995 H   0  0  0  0  0  0  0  0  0  0  0  0
  146.6613  143.6308  155.6593 H   0  0  0  0  0  0  0  0  0  0  0  0
  146.2798  144.1454  153.2996 H   0  0  0  0  0  0  0  0  0  0  0  0
  145.2351  142.7483  153.1292 H   0  0  0  0  0  0  0  0  0  0  0  0
  144.6441  145.3205  154.6286 H   0  0  0  0  0  0  0  0  0  0  0  0
  143.6056  144.4671  153.4735 H   0  0  0  0  0  0  0  0  0  0  0  0
  144.7270  141.2984  155.5666 H   0  0  0  0  0  0  0  0  0  0  0  0
  145.2728  142.2151  156.9781 H   0  0  0  0  0  0  0  0  0  0  0  0
  1  2  1  0  0  0  0
  1 20  1  0  0  0  0
  1 21  1  0  0  0  0
  1 22  1  0  0  0  0
  2  7  1  0  0  0  0
  2  3  2  0  0  0  0
  3  4  1  0  0  0  0
  4  5  1  0  0  0  0
  5  6  1  0  0  0  0
  5  7  2  0  0  0  0
  6 23  1  0  0  0  0
  6 24  1  0  0  0  0
  6 25  1  0  0  0  0
  7  8  1  0  0  0  0
  8  9  1  0  0  0  0
  8 26  1  0  0  0  0
  8 27  1  0  0  0  0
  9 10  2  0  0  0  0
  9 11  1  0  0  0  0
 11 12  1  0  0  0  0
 11 28  1  0  0  0  0
 12 13  1  0  0  0  0
 12 29  1  0  0  0  0
 12 30  1  0  0  0  0
 13 19  1  0  0  0  0
 13 14  1  0  0  0  0
 13 31  1  0  0  0  0
 14 15  1  0  0  0  0
 14 32  1  0  0  0  0
 14 33  1  0  0  0  0
 15 16  1  0  0  0  0
 15 34  1  0  0  0  0
 15 35  1  0  0  0  0
 16 17  2  0  0  0  0
 16 18  2  0  0  0  0
 16 19  1  0  0  0  0
 19 36  1  0  0  0  0
 19 37  1  0  0  0  0
M  END
> <s_m_source_file>
AV-unprocessed.smi

> <i_m_source_file_index>
1988

> <i_lp_mmshare_version>
43012

> <i_f3d_flags>
0

> <s_epik_input>
W0NIM11jMW5vYyhbQ0gzXSljMVtDSDJdQyg9TylbTkhdW0NIMl1bQ0BASF0oW0NIMl0yKVtDSDJdW0NIMl1TMig9Tyk9Tw==

> <s_epik_cmdline>
J2VwaWtfcHl0aG9uJywgJy1waCcsICc3LjAnLCAnLXRuJywgJzgnLCAnLW1hJywgJzIwMCcsICctbWV0YWxfYmluZGluZycsICctaW1hZScsICc8aW5maWxlLm1hZT4nLCAnLW9tYWUnLCAnPG91dGZpbGUubWFlPic=

> <r_lp_tautomer_probability>
1

> <r_epik_Ionization_Penalty>
2.7503e-08

> <r_epik_Ionization_Penalty_Charging>
0

> <r_epik_Ionization_Penalty_Neutral>
2.7503e-08

> <r_epik_State_Penalty>
-0

> <r_epik_Charging_Adjusted_Penalty>
0

> <i_epik_Tot_Q>
0

> <i_epik_Tot_abs_Q>
0

> <r_epik_Metal_State_Penalty>
-0

> <b_epik_Metal_Only>
0

> <s_lp_Force_Field>
OPLS_2005

> <r_lp_Energy>
-1.59396

> <b_lp_Chiralities_Consistent>
1

> <s_lp_Variant>
AV-unprocessed.smi:1988-2

> <Gold.Version>
5.8.1

> <Gold.Id.Protein>
6NUR|6NUR_protein|mol2

> <Gold.PLP.Fitness>
34.0552

> <Gold.PLP.PLP>
-32.9046

> <Gold.PLP.part.hbond>
-3.0000

> <Gold.PLP.part.metal>
0.0000

> <Gold.PLP.part.buried>
-4.5567

> <Gold.PLP.part.nonpolar>
-25.6842

> <Gold.PLP.part.repulsive>
0.3702

> <Gold.PLP.ligand.clash>
0.0000

> <Gold.PLP.ligand.torsion>
0.9311

> <Gold.PLP.Chemscore.Hbond>
1.0000

> <Gold.PLP.Chemscore.CHOScore>
0.0000

> <Gold.PLP.Chemscore.Metal>
0.0000

> <Gold.Chemscore.Hbonds>
donor molecule, donor type, donor heavy atom, donor atom, acceptor molecule, acceptor atom, score
      L1  H    11    28       P1  8028  1.00

> <Gold.PLP.Chemscore.Internal.Correction>
0.0128

> <Gold.Rescore>
     Score         DG    S(hbond)    S(metal)    S(lipo)     H(rot)  DE(clash)    DE(int)     intcor
     10.54     -12.71       0.98        0.00      71.05       1.70       0.11       2.06       ----

> <Gold.Chemscore.Fitness>
10.5392

> <Gold.Chemscore.DG>
-12.7095

> <Gold.Chemscore.ZeroCoef>
-5.4800

> <Gold.Chemscore.Hbond>
0.9754

> <Gold.Chemscore.Metal>
0.0000

> <Gold.Chemscore.Lipo>
71.0503

> <Gold.Chemscore.Internal_Hbond>
0.0000

> <Gold.Chemscore.DEClash>
0.1091

> <Gold.Chemscore.DEInternal>
2.0612

> <Gold.Chemscore.Rot>
1.6958

> <Gold.Chemscore.Internal.Correction>
   9.000000E+99

> <Gold.Chemscore.Hbonds>
donor molecule, donor type, donor heavy atom, donor atom, acceptor molecule, acceptor atom, score
      L1  H    11    28       P1  8028  1.00

> <Gold.Chemscore.Hbond.Weighted>
-3.2579

> <Gold.Chemscore.Metal.Weighted>
-0.0000

> <Gold.Chemscore.Lipo.Weighted>
-8.3129

> <Gold.Chemscore.Internal_Hbond.Weighted>
0.0000

> <Gold.Chemscore.DEClash.Weighted>
0.1091

> <Gold.Chemscore.DEInternal.Weighted>
2.0612

> <Gold.Chemscore.Rot.Weighted>
4.3413

> <Gold.Chemscore.Internal.Correction.Weighted>
   9.000000E+99

> <Gold.Protein.RotatedTorsions>
[ 6907 6896 6895 6894 ] final   68.12 input  -60.11 | X-H torsion
[ 7974 7965 7964 7962 ] final  -66.32 input  175.53 | X-H torsion
[ 8008 7997 7996 7995 ] final  173.86 input   59.86 | X-H torsion
[ 10167 10162 10161 10158 ] final -149.83 input  -65.29 | X-H torsion
[ 10718 10713 10712 10709 ] final  -58.74 input   66.30 | X-H torsion
[ 10763 10752 10751 10750 ] final   60.43 input  -60.55 | X-H torsion
[ 11005 11000 10999 10996 ] final  121.33 input  -57.11 | X-H torsion

> <Gold.Protein.ActiveResidues>
 VAL166  LYS551  ARG553  GLY616  TRP617  ASP618  TYR619  PRO620  LYS621  CYS622 
 ASP623  PHE694  ASN695  SER759  ASP760  ASP761  ALA762  ILE779  LEU786  VAL792 
 PHE793  MET794  SER795  GLU796  ALA797  LYS798  CYS799  TRP800  GLU811  SER814 

> <Gold.Protein.RotatedAtoms>
  152.4599  134.5208  159.9781 H   0  0  0  0  0  0  0  0  0  0  0  0  # atno 6907 bound_to 6896
  151.5260  133.3452  159.2917 H   0  0  0  0  0  0  0  0  0  0  0  0  # atno 6908 bound_to 6896
  150.8557  134.7925  159.7106 H   0  0  0  0  0  0  0  0  0  0  0  0  # atno 6909 bound_to 6896
  145.7433  140.8943  143.0518 H   0  0  0  0  0  0  0  0  0  0  0  0  # atno 7974 bound_to 7965
  156.1032  140.1449  156.9439 H   0  0  0  0  0  0  0  0  0  0  0  0  # atno 8008 bound_to 7997
  154.4716  140.0908  156.7205 H   0  0  0  0  0  0  0  0  0  0  0  0  # atno 8009 bound_to 7997
  155.4723  140.3442  155.4330 H   0  0  0  0  0  0  0  0  0  0  0  0  # atno 8010 bound_to 7997
  139.7408  143.8665  152.2561 H   0  0  0  0  0  0  0  0  0  0  0  0  # atno 10167 bound_to 10162
  156.1112  130.4175  150.0619 H   0  0  0  0  0  0  0  0  0  0  0  0  # atno 10718 bound_to 10713
  152.9921  135.5536  154.5873 H   0  0  0  0  0  0  0  0  0  0  0  0  # atno 10763 bound_to 10752
  154.5242  135.2809  155.1238 H   0  0  0  0  0  0  0  0  0  0  0  0  # atno 10764 bound_to 10752
  154.2580  135.6386  153.5317 H   0  0  0  0  0  0  0  0  0  0  0  0  # atno 10765 bound_to 10752
  139.9221  134.9638  156.7942 H   0  0  0  0  0  0  0  0  0  0  0  0  # atno 11005 bound_to 11000
  144.6866  139.9490  143.7477 LP  0  0  0  0  0  0  0  0  0  0  0  0  # atno 17320 bound_to 7965
  146.0427  139.3437  143.0687 LP  0  0  0  0  0  0  0  0  0  0  0  0  # atno 17321 bound_to 7965
  139.8615  144.7114  150.9094 LP  0  0  0  0  0  0  0  0  0  0  0  0  # atno 17342 bound_to 10162
  140.7785  143.3813  151.1471 LP  0  0  0  0  0  0  0  0  0  0  0  0  # atno 17343 bound_to 10162
  156.8582  130.9482  151.3620 LP  0  0  0  0  0  0  0  0  0  0  0  0  # atno 17370 bound_to 10713
  157.6294  130.8717  149.9246 LP  0  0  0  0  0  0  0  0  0  0  0  0  # atno 17371 bound_to 10713
  140.6442  133.9790  155.7723 LP  0  0  0  0  0  0  0  0  0  0  0  0  # atno 17394 bound_to 11000
  141.0751  134.0147  157.3470 LP  0  0  0  0  0  0  0  0  0  0  0  0  # atno 17395 bound_to 11000

$$$$
