AV-unprocessed.smi:670|AV-procd|sdf|3265|dock8
  -GOLD-   22720 0213D 1   1.00000     0.00000
 Structure written by MMmdl.
 44 45  0  0  0  0  0  0  0  0  2 V2000
  150.1771  142.1231  156.1922 C   0  0  0  0  0  0  0  0  0  0  0  0
  150.7084  142.4017  157.6079 C   0  0  2  0  0  0  0  0  0  0  0  0
  151.2606  143.8380  157.7080 C   0  0  0  0  0  0  0  0  0  0  0  0
  151.8024  144.1440  159.1123 C   0  0  0  0  0  0  0  0  0  0  0  0
  152.8738  143.1247  159.5234 C   0  0  0  0  0  0  0  0  0  0  0  0
  152.3316  141.6906  159.4370 C   0  0  0  0  0  0  0  0  0  0  0  0
  151.7817  141.3726  158.0299 C   0  0  1  0  0  0  0  0  0  0  0  0
  151.1729  140.0876  158.0418 O   0  0  0  0  0  0  0  0  0  0  0  0
  151.2569  139.3828  156.8115 C   0  0  0  0  0  0  0  0  0  0  0  0
  151.0672  137.8870  157.0840 C   0  0  0  0  0  0  0  0  0  0  0  0
  149.7140  137.6224  157.5518 N   0  0  0  0  0  0  0  0  0  0  0  0
  149.4017  137.2117  158.7887 C   0  0  0  0  0  0  0  0  0  0  0  0
  150.2469  137.0171  159.6640 O   0  0  0  0  0  0  0  0  0  0  0  0
  147.9052  136.9806  159.0531 C   0  0  0  0  0  0  0  0  0  0  0  0
  147.6118  136.3150  160.3310 N   0  0  0  0  0  0  0  0  0  0  0  0
  147.8574  137.1526  161.5018 N   0  5  0  0  0  0  0  0  0  0  0  0
  147.6178  136.6466  162.7405 C   0  0  0  0  0  0  0  0  0  0  0  0
  147.7919  137.2947  163.7703 O   0  0  0  0  0  0  0  0  0  0  0  0
  147.1394  135.2775  162.8396 C   0  0  0  0  0  0  0  0  0  0  0  0
  146.9405  134.5204  161.7427 C   0  0  0  0  0  0  0  0  0  0  0  0
  147.1859  135.0208  160.3955 C   0  0  0  0  0  0  0  0  0  0  0  0
  147.0205  134.3301  159.3897 O   0  0  0  0  0  0  0  0  0  0  0  0
  150.9736  142.1872  155.4502 H   0  0  0  0  0  0  0  0  0  0  0  0
  149.4055  142.8417  155.9151 H   0  0  0  0  0  0  0  0  0  0  0  0
  149.7356  141.1287  156.1216 H   0  0  0  0  0  0  0  0  0  0  0  0
  149.8684  142.3177  158.2992 H   0  0  0  0  0  0  0  0  0  0  0  0
  152.0565  143.9784  156.9751 H   0  0  0  0  0  0  0  0  0  0  0  0
  150.4799  144.5564  157.4556 H   0  0  0  0  0  0  0  0  0  0  0  0
  152.2180  145.1517  159.1394 H   0  0  0  0  0  0  0  0  0  0  0  0
  150.9835  144.1269  159.8325 H   0  0  0  0  0  0  0  0  0  0  0  0
  153.7458  143.2265  158.8758 H   0  0  0  0  0  0  0  0  0  0  0  0
  153.2149  143.3330  160.5378 H   0  0  0  0  0  0  0  0  0  0  0  0
  153.1227  140.9919  159.7081 H   0  0  0  0  0  0  0  0  0  0  0  0
  151.5397  141.5589  160.1754 H   0  0  0  0  0  0  0  0  0  0  0  0
  152.5944  141.4009  157.3010 H   0  0  0  0  0  0  0  0  0  0  0  0
  150.4753  139.7349  156.1369 H   0  0  0  0  0  0  0  0  0  0  0  0
  152.2143  139.5544  156.3190 H   0  0  0  0  0  0  0  0  0  0  0  0
  151.2668  137.3099  156.1801 H   0  0  0  0  0  0  0  0  0  0  0  0
  151.7794  137.5580  157.8421 H   0  0  0  0  0  0  0  0  0  0  0  0
  148.9648  137.7476  156.8865 H   0  0  0  0  0  0  0  0  0  0  0  0
  147.3856  137.9397  159.0178 H   0  0  0  0  0  0  0  0  0  0  0  0
  147.5028  136.4005  158.2207 H   0  0  0  0  0  0  0  0  0  0  0  0
  146.9415  134.8577  163.8149 H   0  0  0  0  0  0  0  0  0  0  0  0
  146.5862  133.5075  161.8635 H   0  0  0  0  0  0  0  0  0  0  0  0
  1  2  1  0  0  0  0
  1 23  1  0  0  0  0
  1 24  1  0  0  0  0
  1 25  1  0  0  0  0
  2  7  1  0  0  0  0
  2  3  1  0  0  0  0
  2 26  1  0  0  0  0
  3  4  1  0  0  0  0
  3 27  1  0  0  0  0
  3 28  1  0  0  0  0
  4  5  1  0  0  0  0
  4 29  1  0  0  0  0
  4 30  1  0  0  0  0
  5  6  1  0  0  0  0
  5 31  1  0  0  0  0
  5 32  1  0  0  0  0
  6  7  1  0  0  0  0
  6 33  1  0  0  0  0
  6 34  1  0  0  0  0
  7  8  1  0  0  0  0
  7 35  1  0  0  0  0
  8  9  1  0  0  0  0
  9 10  1  0  0  0  0
  9 36  1  0  0  0  0
  9 37  1  0  0  0  0
 10 11  1  0  0  0  0
 10 38  1  0  0  0  0
 10 39  1  0  0  0  0
 11 12  1  0  0  0  0
 11 40  1  0  0  0  0
 12 13  2  0  0  0  0
 12 14  1  0  0  0  0
 14 41  1  0  0  0  0
 14 42  1  0  0  0  0
 14 15  1  0  0  0  0
 15 16  1  0  0  0  0
 15 21  1  0  0  0  0
 16 17  1  0  0  0  0
 17 18  2  0  0  0  0
 17 19  1  0  0  0  0
 19 43  1  0  0  0  0
 19 20  2  0  0  0  0
 20 44  1  0  0  0  0
 20 21  1  0  0  0  0
 21 22  2  0  0  0  0
M  CHG  1  16  -1
M  END
> <s_m_source_file>
AV-unprocessed.smi

> <i_m_source_file_index>
670

> <i_lp_mmshare_version>
43012

> <i_f3d_flags>
0

> <s_epik_input>
W0NIM11bQ0BASF0xW0NIMl1bQ0gyXVtDSDJdW0NIMl1bQ0BIXTFPW0NIMl1bQ0gyXVtOSF1DKD1PKVtDSDJdbjJbbkhdYyg9TylbY0hdW2NIXWMyPU8=

> <s_epik_cmdline>
J2VwaWtfcHl0aG9uJywgJy1waCcsICc3LjAnLCAnLXRuJywgJzgnLCAnLW1hJywgJzIwMCcsICctbWV0YWxfYmluZGluZycsICctaW1hZScsICc8aW5maWxlLm1hZT4nLCAnLW9tYWUnLCAnPG91dGZpbGUubWFlPic=

> <r_lp_tautomer_probability>
1

> <r_epik_Ionization_Penalty>
0.0975638

> <r_epik_Ionization_Penalty_Charging>
0.0975637

> <r_epik_Ionization_Penalty_Neutral>
2.78599e-08

> <r_epik_State_Penalty>
0.0343507

> <r_epik_Charging_Adjusted_Penalty>
0.131914

> <i_epik_Tot_Q>
-1

> <i_epik_Tot_abs_Q>
1

> <r_epik_Metal_State_Penalty>
0.0343507

> <b_epik_Metal_Only>
0

> <s_lp_Force_Field>
OPLS_2005

> <r_lp_Energy>
26.6339

> <b_lp_Chiralities_Consistent>
1

> <s_lp_Variant>
AV-unprocessed.smi:670-1

> <Gold.Version>
5.8.1

> <Gold.Id.Protein>
6NUR|6NUR_protein|mol2

> <Gold.PLP.Fitness>
56.1317

> <Gold.PLP.PLP>
-44.5685

> <Gold.PLP.part.hbond>
-4.4478

> <Gold.PLP.part.metal>
0.0000

> <Gold.PLP.part.buried>
-3.9384

> <Gold.PLP.part.nonpolar>
-37.3300

> <Gold.PLP.part.repulsive>
0.1031

> <Gold.PLP.ligand.clash>
0.0000

> <Gold.PLP.ligand.torsion>
0.7428

> <Gold.PLP.Chemscore.Hbond>
4.3322

> <Gold.PLP.Chemscore.CHOScore>
0.0000

> <Gold.PLP.Chemscore.Metal>
0.0000

> <Gold.Chemscore.Hbonds>
donor molecule, donor type, donor heavy atom, donor atom, acceptor molecule, acceptor atom, score
      P1  H  6896  6908       L1    13  0.75
      P1  H  6931  6943       L1    16  1.80
      P1  H  6934  6947       L1    16  1.30

> <Gold.PLP.Chemscore.Internal.Correction>
0.0521

> <Gold.Rescore>
     Score         DG    S(hbond)    S(metal)    S(lipo)     H(rot)  DE(clash)    DE(int)     intcor
     14.99     -16.84       1.93        0.00      95.67       2.45       0.22       1.63       ----

> <Gold.Chemscore.Fitness>
14.9877

> <Gold.Chemscore.DG>
-16.8414

> <Gold.Chemscore.ZeroCoef>
-5.4800

> <Gold.Chemscore.Hbond>
1.9274

> <Gold.Chemscore.Metal>
0.0000

> <Gold.Chemscore.Lipo>
95.6701

> <Gold.Chemscore.Internal_Hbond>
0.0000

> <Gold.Chemscore.DEClash>
0.2213

> <Gold.Chemscore.DEInternal>
1.6324

> <Gold.Chemscore.Rot>
2.4490

> <Gold.Chemscore.Internal.Correction>
   9.000000E+99

> <Gold.Chemscore.Hbonds>
donor molecule, donor type, donor heavy atom, donor atom, acceptor molecule, acceptor atom, score
      P1  H  6896  6908       L1    13  0.72
      P1  H  6931  6943       L1    16  0.17
      P1  H  6934  6947       L1    16  0.32

> <Gold.Chemscore.Hbond.Weighted>
-6.4374

> <Gold.Chemscore.Metal.Weighted>
-0.0000

> <Gold.Chemscore.Lipo.Weighted>
-11.1934

> <Gold.Chemscore.Internal_Hbond.Weighted>
0.0000

> <Gold.Chemscore.DEClash.Weighted>
0.2213

> <Gold.Chemscore.DEInternal.Weighted>
1.6324

> <Gold.Chemscore.Rot.Weighted>
6.2694

> <Gold.Chemscore.Internal.Correction.Weighted>
   9.000000E+99

> <Gold.Protein.RotatedTorsions>
[ 6907 6896 6895 6894 ] final -148.23 input  -60.11 | X-H torsion
[ 7974 7965 7964 7962 ] final -147.61 input  175.53 | X-H torsion
[ 8008 7997 7996 7995 ] final   35.96 input   59.86 | X-H torsion
[ 10167 10162 10161 10158 ] final  -18.93 input  -65.29 | X-H torsion
[ 10718 10713 10712 10709 ] final -141.26 input   66.30 | X-H torsion
[ 10763 10752 10751 10750 ] final  -87.01 input  -60.55 | X-H torsion
[ 11005 11000 10999 10996 ] final   28.91 input  -57.11 | X-H torsion

> <Gold.Protein.ActiveResidues>
 VAL166  LYS551  ARG553  GLY616  TRP617  ASP618  TYR619  PRO620  LYS621  CYS622 
 ASP623  PHE694  ASN695  SER759  ASP760  ASP761  ALA762  ILE779  LEU786  VAL792 
 PHE793  MET794  SER795  GLU796  ALA797  LYS798  CYS799  TRP800  GLU811  SER814 

> <Gold.Protein.RotatedAtoms>
  151.1668  133.4809  159.2593 H   0  0  0  0  0  0  0  0  0  0  0  0  # atno 6907 bound_to 6896
  151.1397  135.0173  159.8630 H   0  0  0  0  0  0  0  0  0  0  0  0  # atno 6908 bound_to 6896
  152.5462  134.1563  159.8592 H   0  0  0  0  0  0  0  0  0  0  0  0  # atno 6909 bound_to 6896
  144.8082  140.5305  143.5660 H   0  0  0  0  0  0  0  0  0  0  0  0  # atno 7974 bound_to 7965
  155.1796  140.3299  155.4377 H   0  0  0  0  0  0  0  0  0  0  0  0  # atno 8008 bound_to 7997
  156.2481  140.1929  156.6845 H   0  0  0  0  0  0  0  0  0  0  0  0  # atno 8009 bound_to 7997
  154.6280  140.0586  156.9684 H   0  0  0  0  0  0  0  0  0  0  0  0  # atno 8010 bound_to 7997
  140.7263  143.4868  151.0044 H   0  0  0  0  0  0  0  0  0  0  0  0  # atno 10167 bound_to 10162
  156.3319  130.7591  151.1710 H   0  0  0  0  0  0  0  0  0  0  0  0  # atno 10718 bound_to 10713
  154.6288  135.5429  153.7657 H   0  0  0  0  0  0  0  0  0  0  0  0  # atno 10763 bound_to 10752
  153.0274  135.6431  154.1332 H   0  0  0  0  0  0  0  0  0  0  0  0  # atno 10764 bound_to 10752
  154.1263  135.2917  155.3176 H   0  0  0  0  0  0  0  0  0  0  0  0  # atno 10765 bound_to 10752
  140.3105  134.2654  155.7735 H   0  0  0  0  0  0  0  0  0  0  0  0  # atno 11005 bound_to 11000
  145.5386  139.1475  143.3459 LP  0  0  0  0  0  0  0  0  0  0  0  0  # atno 17320 bound_to 7965
  146.2377  140.5526  142.8947 LP  0  0  0  0  0  0  0  0  0  0  0  0  # atno 17321 bound_to 7965
  139.8570  143.7363  152.3175 LP  0  0  0  0  0  0  0  0  0  0  0  0  # atno 17342 bound_to 10162
  139.7566  144.7519  151.0427 LP  0  0  0  0  0  0  0  0  0  0  0  0  # atno 17343 bound_to 10162
  157.7432  131.0479  150.4967 LP  0  0  0  0  0  0  0  0  0  0  0  0  # atno 17370 bound_to 10713
  156.5134  130.4144  149.6289 LP  0  0  0  0  0  0  0  0  0  0  0  0  # atno 17371 bound_to 10713
  141.2109  133.7705  156.9901 LP  0  0  0  0  0  0  0  0  0  0  0  0  # atno 17394 bound_to 11000
  140.1028  134.9524  157.1949 LP  0  0  0  0  0  0  0  0  0  0  0  0  # atno 17395 bound_to 11000

$$$$
