AV-unprocessed.smi:1835|AV-procd|sdf|7473|dock2
  -GOLD-   22720 9163D 1   1.00000     0.00000
 Structure written by MMmdl.
 41 42  0  0  0  0  0  0  0  0  1 V2000
  147.3930  141.0417  153.4163 C   0  0  0  0  0  0  0  0  0  0  0  0
  147.5731  141.9585  154.6537 C   0  0  2  0  0  0  0  0  0  0  0  0
  148.6796  141.3603  155.5660 C   0  0  0  0  0  0  0  0  0  0  0  0
  149.6947  142.3444  155.9249 N   0  0  0  0  0  0  0  0  0  0  0  0
  150.7181  142.1152  156.7593 C   0  0  0  0  0  0  0  0  0  0  0  0
  150.8990  141.0331  157.3201 O   0  0  0  0  0  0  0  0  0  0  0  0
  151.6626  143.3023  156.9980 C   0  0  0  0  0  0  0  0  0  0  0  0
  151.7944  143.6772  158.4157 N   0  0  0  0  0  0  0  0  0  0  0  0
  151.3915  144.9795  158.7729 C   0  0  0  0  0  0  0  0  0  0  0  0
  151.4711  145.4260  160.0362 C   0  0  0  0  0  0  0  0  0  0  0  0
  151.9888  144.5319  161.0446 C   0  0  0  0  0  0  0  0  0  0  0  0
  152.3717  143.2823  160.7149 C   0  0  0  0  0  0  0  0  0  0  0  0
  152.2818  142.7882  159.3357 C   0  0  0  0  0  0  0  0  0  0  0  0
  152.6248  141.6468  159.0268 O   0  0  0  0  0  0  0  0  0  0  0  0
  146.2963  142.2145  155.3611 N   0  0  0  0  0  0  0  0  0  0  0  0
  145.4107  143.1108  154.6080 C   0  0  0  0  0  0  0  0  0  0  0  0
  144.0921  143.4077  155.3426 C   0  0  0  0  0  0  0  0  0  0  0  0
  144.3719  143.9624  156.6200 O   0  0  0  0  0  0  0  0  0  0  0  0
  145.1611  143.0905  157.4169 C   0  0  0  0  0  0  0  0  0  0  0  0
  146.4880  142.7874  156.6988 C   0  0  0  0  0  0  0  0  0  0  0  0
  148.3369  140.8109  152.9240 H   0  0  0  0  0  0  0  0  0  0  0  0
  146.7786  141.5035  152.6447 H   0  0  0  0  0  0  0  0  0  0  0  0
  146.9298  140.0941  153.6937 H   0  0  0  0  0  0  0  0  0  0  0  0
  147.9503  142.9153  154.2890 H   0  0  0  0  0  0  0  0  0  0  0  0
  148.2653  140.9986  156.5061 H   0  0  0  0  0  0  0  0  0  0  0  0
  149.1551  140.5098  155.0743 H   0  0  0  0  0  0  0  0  0  0  0  0
  149.6140  143.2594  155.5059 H   0  0  0  0  0  0  0  0  0  0  0  0
  152.6426  143.0687  156.5775 H   0  0  0  0  0  0  0  0  0  0  0  0
  151.2987  144.1498  156.4153 H   0  0  0  0  0  0  0  0  0  0  0  0
  151.0103  145.5822  157.9614 H   0  0  0  0  0  0  0  0  0  0  0  0
  151.1531  146.4262  160.2919 H   0  0  0  0  0  0  0  0  0  0  0  0
  152.0687  144.8663  162.0683 H   0  0  0  0  0  0  0  0  0  0  0  0
  152.7555  142.6272  161.4831 H   0  0  0  0  0  0  0  0  0  0  0  0
  145.9258  144.0498  154.3991 H   0  0  0  0  0  0  0  0  0  0  0  0
  145.1476  142.6742  153.6465 H   0  0  0  0  0  0  0  0  0  0  0  0
  143.4926  144.1166  154.7715 H   0  0  0  0  0  0  0  0  0  0  0  0
  143.4971  142.4995  155.4518 H   0  0  0  0  0  0  0  0  0  0  0  0
  145.3524  143.5648  158.3794 H   0  0  0  0  0  0  0  0  0  0  0  0
  144.6105  142.1700  157.6173 H   0  0  0  0  0  0  0  0  0  0  0  0
  147.0381  142.0987  157.3368 H   0  0  0  0  0  0  0  0  0  0  0  0
  147.0800  143.7012  156.6297 H   0  0  0  0  0  0  0  0  0  0  0  0
  1  2  1  0  0  0  0
  1 21  1  0  0  0  0
  1 22  1  0  0  0  0
  1 23  1  0  0  0  0
  2  3  1  0  0  0  0
  2 15  1  0  0  0  0
  2 24  1  0  0  0  0
  3  4  1  0  0  0  0
  3 25  1  0  0  0  0
  3 26  1  0  0  0  0
  4  5  1  0  0  0  0
  4 27  1  0  0  0  0
  5  6  2  0  0  0  0
  5  7  1  0  0  0  0
  7  8  1  0  0  0  0
  7 28  1  0  0  0  0
  7 29  1  0  0  0  0
  8 13  1  0  0  0  0
  8  9  1  0  0  0  0
  9 10  2  0  0  0  0
  9 30  1  0  0  0  0
 10 11  1  0  0  0  0
 10 31  1  0  0  0  0
 11 12  2  0  0  0  0
 11 32  1  0  0  0  0
 12 13  1  0  0  0  0
 12 33  1  0  0  0  0
 13 14  2  0  0  0  0
 15 20  1  0  0  0  0
 15 16  1  0  0  0  0
 16 17  1  0  0  0  0
 16 34  1  0  0  0  0
 16 35  1  0  0  0  0
 17 18  1  0  0  0  0
 17 36  1  0  0  0  0
 17 37  1  0  0  0  0
 18 19  1  0  0  0  0
 19 20  1  0  0  0  0
 19 38  1  0  0  0  0
 19 39  1  0  0  0  0
 20 40  1  0  0  0  0
 20 41  1  0  0  0  0
M  END
> <s_m_source_file>
AV-unprocessed.smi

> <i_m_source_file_index>
1835

> <i_lp_mmshare_version>
43012

> <i_f3d_flags>
0

> <s_epik_input>
W0NIMl0xW0NIMl1PW0NIMl1bQ0gyXU4xW0NASF0oW0NIM10pW0NIMl1bTkhdQyg9TylbQ0gyXW4yW2NIXVtjSF1bY0hdW2NIXWMyPU8=

> <s_epik_cmdline>
J2VwaWtfcHl0aG9uJywgJy1waCcsICc3LjAnLCAnLXRuJywgJzgnLCAnLW1hJywgJzIwMCcsICctbWV0YWxfYmluZGluZycsICctaW1hZScsICc8aW5maWxlLm1hZT4nLCAnLW9tYWUnLCAnPG91dGZpbGUubWFlPic=

> <r_lp_tautomer_probability>
1

> <r_epik_Ionization_Penalty>
0.237383

> <r_epik_Ionization_Penalty_Charging>
3.58805e-07

> <r_epik_Ionization_Penalty_Neutral>
0.237382

> <r_epik_State_Penalty>
0.228245

> <r_epik_Charging_Adjusted_Penalty>
0.228245

> <i_epik_Tot_Q>
0

> <i_epik_Tot_abs_Q>
0

> <r_epik_Metal_State_Penalty>
0.22822

> <b_epik_Metal_Only>
0

> <s_lp_Force_Field>
OPLS_2005

> <r_lp_Energy>
38.378

> <b_lp_Chiralities_Consistent>
1

> <s_lp_Variant>
AV-unprocessed.smi:1835-1

> <Gold.Version>
5.8.1

> <Gold.Id.Protein>
6NUR|6NUR_protein|mol2

> <Gold.PLP.Fitness>
43.0820

> <Gold.PLP.PLP>
-41.8942

> <Gold.PLP.part.hbond>
-0.9515

> <Gold.PLP.part.metal>
0.0000

> <Gold.PLP.part.buried>
-6.9894

> <Gold.PLP.part.nonpolar>
-35.0356

> <Gold.PLP.part.repulsive>
0.3518

> <Gold.PLP.ligand.clash>
0.0000

> <Gold.PLP.ligand.torsion>
0.9235

> <Gold.PLP.Chemscore.Hbond>
0.9920

> <Gold.PLP.Chemscore.CHOScore>
0.0000

> <Gold.PLP.Chemscore.Metal>
0.0000

> <Gold.Chemscore.Hbonds>
donor molecule, donor type, donor heavy atom, donor atom, acceptor molecule, acceptor atom, score
      L1  H     4    27       P1  8028  0.88

> <Gold.PLP.Chemscore.Internal.Correction>
0.0587

> <Gold.Rescore>
     Score         DG    S(hbond)    S(metal)    S(lipo)     H(rot)  DE(clash)    DE(int)     intcor
     11.07     -13.53       0.98        0.00      81.98       1.89       0.08       2.37       ----

> <Gold.Chemscore.Fitness>
11.0708

> <Gold.Chemscore.DG>
-13.5278

> <Gold.Chemscore.ZeroCoef>
-5.4800

> <Gold.Chemscore.Hbond>
0.9849

> <Gold.Chemscore.Metal>
0.0000

> <Gold.Chemscore.Lipo>
81.9846

> <Gold.Chemscore.Internal_Hbond>
0.0000

> <Gold.Chemscore.DEClash>
0.0849

> <Gold.Chemscore.DEInternal>
2.3721

> <Gold.Chemscore.Rot>
1.8882

> <Gold.Chemscore.Internal.Correction>
   9.000000E+99

> <Gold.Chemscore.Hbonds>
donor molecule, donor type, donor heavy atom, donor atom, acceptor molecule, acceptor atom, score
      L1  H     4    27       P1  8028  0.86

> <Gold.Chemscore.Hbond.Weighted>
-3.2894

> <Gold.Chemscore.Metal.Weighted>
-0.0000

> <Gold.Chemscore.Lipo.Weighted>
-9.5922

> <Gold.Chemscore.Internal_Hbond.Weighted>
0.0000

> <Gold.Chemscore.DEClash.Weighted>
0.0849

> <Gold.Chemscore.DEInternal.Weighted>
2.3721

> <Gold.Chemscore.Rot.Weighted>
4.8338

> <Gold.Chemscore.Internal.Correction.Weighted>
   9.000000E+99

> <Gold.Protein.RotatedTorsions>
[ 6907 6896 6895 6894 ] final -129.29 input  -60.11 | X-H torsion
[ 7974 7965 7964 7962 ] final   -0.63 input  175.53 | X-H torsion
[ 8008 7997 7996 7995 ] final   65.99 input   59.86 | X-H torsion
[ 10167 10162 10161 10158 ] final  159.77 input  -65.29 | X-H torsion
[ 10718 10713 10712 10709 ] final   78.69 input   66.30 | X-H torsion
[ 10763 10752 10751 10750 ] final  -24.55 input  -60.55 | X-H torsion
[ 11005 11000 10999 10996 ] final  -45.90 input  -57.11 | X-H torsion

> <Gold.Protein.ActiveResidues>
 VAL166  LYS551  ARG553  GLY616  TRP617  ASP618  TYR619  PRO620  LYS621  CYS622 
 ASP623  PHE694  ASN695  SER759  ASP760  ASP761  ALA762  ILE779  LEU786  VAL792 
 PHE793  MET794  SER795  GLU796  ALA797  LYS798  CYS799  TRP800  GLU811  SER814 

> <Gold.Protein.RotatedAtoms>
  150.9271  133.6811  159.2818 H   0  0  0  0  0  0  0  0  0  0  0  0  # atno 6907 bound_to 6896
  151.4245  135.1001  159.9633 H   0  0  0  0  0  0  0  0  0  0  0  0  # atno 6908 bound_to 6896
  152.5008  133.8715  159.7356 H   0  0  0  0  0  0  0  0  0  0  0  0  # atno 6909 bound_to 6896
  146.2425  140.1299  142.8338 H   0  0  0  0  0  0  0  0  0  0  0  0  # atno 7974 bound_to 7965
  155.6704  140.3497  155.4816 H   0  0  0  0  0  0  0  0  0  0  0  0  # atno 8008 bound_to 7997
  155.9693  140.1152  157.0850 H   0  0  0  0  0  0  0  0  0  0  0  0  # atno 8009 bound_to 7997
  154.4162  140.1160  156.5270 H   0  0  0  0  0  0  0  0  0  0  0  0  # atno 8010 bound_to 7997
  139.4835  144.4698  151.8592 H   0  0  0  0  0  0  0  0  0  0  0  0  # atno 10167 bound_to 10162
  157.6753  130.9880  150.1823 H   0  0  0  0  0  0  0  0  0  0  0  0  # atno 10718 bound_to 10713
  153.6856  135.6964  153.5105 H   0  0  0  0  0  0  0  0  0  0  0  0  # atno 10763 bound_to 10752
  153.2452  135.4293  155.0739 H   0  0  0  0  0  0  0  0  0  0  0  0  # atno 10764 bound_to 10752
  154.8387  135.3517  154.6398 H   0  0  0  0  0  0  0  0  0  0  0  0  # atno 10765 bound_to 10752
  141.0545  133.6731  156.3078 H   0  0  0  0  0  0  0  0  0  0  0  0  # atno 11005 bound_to 11000
  145.0335  140.8889  143.5095 LP  0  0  0  0  0  0  0  0  0  0  0  0  # atno 17320 bound_to 7965
  145.1368  139.2597  143.5511 LP  0  0  0  0  0  0  0  0  0  0  0  0  # atno 17321 bound_to 7965
  140.4166  144.2299  150.5887 LP  0  0  0  0  0  0  0  0  0  0  0  0  # atno 17342 bound_to 10162
  140.4915  143.2346  151.8812 LP  0  0  0  0  0  0  0  0  0  0  0  0  # atno 17343 bound_to 10162
  156.2553  130.3705  149.8188 LP  0  0  0  0  0  0  0  0  0  0  0  0  # atno 17370 bound_to 10713
  156.5949  130.8522  151.3417 LP  0  0  0  0  0  0  0  0  0  0  0  0  # atno 17371 bound_to 10713
  140.5991  134.5573  157.5514 LP  0  0  0  0  0  0  0  0  0  0  0  0  # atno 17394 bound_to 11000
  139.9378  134.7843  156.0757 LP  0  0  0  0  0  0  0  0  0  0  0  0  # atno 17395 bound_to 11000

$$$$
