AV-unprocessed.smi:1562|AV-procd|sdf|6288|dock2
  -GOLD-   22720 6483D 1   1.00000     0.00000
 Structure written by MMmdl.
 41 42  0  0  0  0  0  0  0  0  2 V2000
  148.6694  146.1821  161.8173 N   0  0  0  0  0  0  0  0  0  0  0  0
  148.6026  145.1351  160.9911 C   0  0  0  0  0  0  0  0  0  0  0  0
  147.7202  144.2840  161.0861 O   0  0  0  0  0  0  0  0  0  0  0  0
  149.6802  145.0313  159.9038 C   0  0  0  0  0  0  0  0  0  0  0  0
  149.5081  143.7381  159.0711 C   0  0  0  0  0  0  0  0  0  0  0  0
  150.6705  143.5574  158.0781 C   0  0  0  0  0  0  0  0  0  0  0  0
  151.9359  143.5521  158.8312 N   0  0  0  0  0  0  0  0  0  0  0  0
  152.6768  142.4584  159.1423 C   0  0  0  0  0  0  0  0  0  0  0  0
  153.8565  142.5177  159.4922 O   0  0  0  0  0  0  0  0  0  0  0  0
  152.0359  141.2867  159.0022 N   0  0  0  0  0  0  0  0  0  0  0  0
  152.6259  139.9838  159.2766 C   0  0  0  0  0  0  0  0  0  0  0  0
  151.6289  138.8597  158.9637 C   0  0  0  0  0  0  0  0  0  0  0  0
  151.5244  138.5851  157.4759 C   0  0  0  0  0  0  0  0  0  0  0  0
  151.9453  139.5222  156.5073 C   0  0  0  0  0  0  0  0  0  0  0  0
  151.8151  139.2048  155.1391 C   0  0  0  0  0  0  0  0  0  0  0  0
  151.2657  137.9597  154.7687 C   0  0  0  0  0  0  0  0  0  0  0  0
  150.8605  137.0620  155.7773 C   0  0  0  0  0  0  0  0  0  0  0  0
  151.0030  137.4021  157.0774 N   0  3  0  0  0  0  0  0  0  0  0  0
  152.1813  144.8563  159.4576 C   0  0  0  0  0  0  0  0  0  0  0  0
  151.0968  145.1070  160.5213 C   0  0  0  0  0  0  0  0  0  0  0  0
  147.9804  146.2865  162.5480 H   0  0  0  0  0  0  0  0  0  0  0  0
  149.4069  146.8631  161.7111 H   0  0  0  0  0  0  0  0  0  0  0  0
  149.5691  145.8788  159.2245 H   0  0  0  0  0  0  0  0  0  0  0  0
  149.4613  142.8662  159.7260 H   0  0  0  0  0  0  0  0  0  0  0  0
  148.5629  143.7670  158.5279 H   0  0  0  0  0  0  0  0  0  0  0  0
  150.5083  142.6620  157.4783 H   0  0  0  0  0  0  0  0  0  0  0  0
  150.6808  144.3827  157.3647 H   0  0  0  0  0  0  0  0  0  0  0  0
  151.0732  141.3051  158.6983 H   0  0  0  0  0  0  0  0  0  0  0  0
  153.5308  139.8564  158.6799 H   0  0  0  0  0  0  0  0  0  0  0  0
  152.9221  139.9433  160.3259 H   0  0  0  0  0  0  0  0  0  0  0  0
  151.9265  137.9435  159.4758 H   0  0  0  0  0  0  0  0  0  0  0  0
  150.6397  139.1178  159.3446 H   0  0  0  0  0  0  0  0  0  0  0  0
  152.3616  140.4733  156.8067 H   0  0  0  0  0  0  0  0  0  0  0  0
  152.1317  139.9084  154.3830 H   0  0  0  0  0  0  0  0  0  0  0  0
  151.1566  137.6978  153.7263 H   0  0  0  0  0  0  0  0  0  0  0  0
  150.4292  136.0901  155.5857 H   0  0  0  0  0  0  0  0  0  0  0  0
  153.1723  144.9258  159.9083 H   0  0  0  0  0  0  0  0  0  0  0  0
  152.1492  145.6369  158.6964 H   0  0  0  0  0  0  0  0  0  0  0  0
  151.2529  146.0840  160.9803 H   0  0  0  0  0  0  0  0  0  0  0  0
  151.2038  144.3709  161.3202 H   0  0  0  0  0  0  0  0  0  0  0  0
  150.7008  136.7376  157.7904 H   0  0  0  0  0  0  0  0  0  0  0  0
  1  2  1  0  0  0  0
  1 21  1  0  0  0  0
  1 22  1  0  0  0  0
  2  3  2  0  0  0  0
  2  4  1  0  0  0  0
  4 20  1  0  0  0  0
  4  5  1  0  0  0  0
  4 23  1  0  0  0  0
  5  6  1  0  0  0  0
  5 24  1  0  0  0  0
  5 25  1  0  0  0  0
  6  7  1  0  0  0  0
  6 26  1  0  0  0  0
  6 27  1  0  0  0  0
  7  8  1  0  0  0  0
  7 19  1  0  0  0  0
  8  9  2  0  0  0  0
  8 10  1  0  0  0  0
 10 11  1  0  0  0  0
 10 28  1  0  0  0  0
 11 12  1  0  0  0  0
 11 29  1  0  0  0  0
 11 30  1  0  0  0  0
 12 13  1  0  0  0  0
 12 31  1  0  0  0  0
 12 32  1  0  0  0  0
 13 18  1  0  0  0  0
 13 14  2  0  0  0  0
 14 15  1  0  0  0  0
 14 33  1  0  0  0  0
 15 16  2  0  0  0  0
 15 34  1  0  0  0  0
 16 17  1  0  0  0  0
 16 35  1  0  0  0  0
 17 18  2  0  0  0  0
 17 36  1  0  0  0  0
 18 41  1  0  0  0  0
 19 20  1  0  0  0  0
 19 37  1  0  0  0  0
 19 38  1  0  0  0  0
 20 39  1  0  0  0  0
 20 40  1  0  0  0  0
M  CHG  1  18   1
M  END
> <s_m_source_file>
AV-unprocessed.smi

> <i_m_source_file_index>
1562

> <i_lp_mmshare_version>
43012

> <i_f3d_flags>
0

> <s_epik_input>
W05IMl1DKD1PKVtDSF0xW0NIMl1bQ0gyXU4oW0NIMl1bQ0gyXTEpQyg9TylbTkhdW0NIMl1bQ0gyXWMyW2NIXVtjSF1bY0hdW2NIXW4y

> <s_epik_cmdline>
J2VwaWtfcHl0aG9uJywgJy1waCcsICc3LjAnLCAnLXRuJywgJzgnLCAnLW1hJywgJzIwMCcsICctbWV0YWxfYmluZGluZycsICctaW1hZScsICc8aW5maWxlLm1hZT4nLCAnLW9tYWUnLCAnPG91dGZpbGUubWFlPic=

> <r_epik_Ionization_Penalty>
1.55599

> <r_epik_Ionization_Penalty_Charging>
1.55593

> <r_epik_Ionization_Penalty_Neutral>
5.20779e-05

> <r_epik_State_Penalty>
1.65054

> <r_epik_Charging_Adjusted_Penalty>
3.20648

> <i_epik_Tot_Q>
1

> <i_epik_Tot_abs_Q>
1

> <r_epik_Metal_State_Penalty>
1.69236

> <b_epik_Metal_Only>
0

> <s_lp_Force_Field>
OPLS_2005

> <r_lp_Energy>
33.1399

> <b_lp_Chiralities_Consistent>
1

> <s_lp_Variant>
AV-unprocessed.smi:1562-2

> <Gold.Version>
5.8.1

> <Gold.Id.Protein>
6NUR|6NUR_protein|mol2

> <Gold.PLP.Fitness>
41.1562

> <Gold.PLP.PLP>
-39.2776

> <Gold.PLP.part.hbond>
-3.3102

> <Gold.PLP.part.metal>
0.0000

> <Gold.PLP.part.buried>
-2.5443

> <Gold.PLP.part.nonpolar>
-33.7308

> <Gold.PLP.part.repulsive>
1.1013

> <Gold.PLP.ligand.clash>
0.0000

> <Gold.PLP.ligand.torsion>
0.6263

> <Gold.PLP.Chemscore.Hbond>
1.0000

> <Gold.PLP.Chemscore.CHOScore>
0.0000

> <Gold.PLP.Chemscore.Metal>
0.0000

> <Gold.Chemscore.Hbonds>
donor molecule, donor type, donor heavy atom, donor atom, acceptor molecule, acceptor atom, score
      P1  H  6933  6944       L1     3  0.83

> <Gold.PLP.Chemscore.Internal.Correction>
0.1311

> <Gold.Rescore>
     Score         DG    S(hbond)    S(metal)    S(lipo)     H(rot)  DE(clash)    DE(int)     intcor
     10.72     -13.25       0.96        0.00      83.59       2.03       2.13       0.40       ----

> <Gold.Chemscore.Fitness>
10.7192

> <Gold.Chemscore.DG>
-13.2519

> <Gold.Chemscore.ZeroCoef>
-5.4800

> <Gold.Chemscore.Hbond>
0.9576

> <Gold.Chemscore.Metal>
0.0000

> <Gold.Chemscore.Lipo>
83.5935

> <Gold.Chemscore.Internal_Hbond>
0.0000

> <Gold.Chemscore.DEClash>
2.1285

> <Gold.Chemscore.DEInternal>
0.4042

> <Gold.Chemscore.Rot>
2.0339

> <Gold.Chemscore.Internal.Correction>
   9.000000E+99

> <Gold.Chemscore.Hbonds>
donor molecule, donor type, donor heavy atom, donor atom, acceptor molecule, acceptor atom, score
      P1  H  6933  6944       L1     3  0.66

> <Gold.Chemscore.Hbond.Weighted>
-3.1983

> <Gold.Chemscore.Metal.Weighted>
-0.0000

> <Gold.Chemscore.Lipo.Weighted>
-9.7804

> <Gold.Chemscore.Internal_Hbond.Weighted>
0.0000

> <Gold.Chemscore.DEClash.Weighted>
2.1285

> <Gold.Chemscore.DEInternal.Weighted>
0.4042

> <Gold.Chemscore.Rot.Weighted>
5.2069

> <Gold.Chemscore.Internal.Correction.Weighted>
   9.000000E+99

> <Gold.Protein.RotatedTorsions>
[ 6907 6896 6895 6894 ] final  -51.42 input  -60.11 | X-H torsion
[ 7974 7965 7964 7962 ] final  -44.31 input  175.53 | X-H torsion
[ 8008 7997 7996 7995 ] final  178.90 input   59.86 | X-H torsion
[ 10167 10162 10161 10158 ] final -127.45 input  -65.29 | X-H torsion
[ 10718 10713 10712 10709 ] final -140.87 input   66.30 | X-H torsion
[ 10763 10752 10751 10750 ] final  151.22 input  -60.55 | X-H torsion
[ 11005 11000 10999 10996 ] final  -73.76 input  -57.11 | X-H torsion

> <Gold.Protein.ActiveResidues>
 VAL166  LYS551  ARG553  GLY616  TRP617  ASP618  TYR619  PRO620  LYS621  CYS622 
 ASP623  PHE694  ASN695  SER759  ASP760  ASP761  ALA762  ILE779  LEU786  VAL792 
 PHE793  MET794  SER795  GLU796  ALA797  LYS798  CYS799  TRP800  GLU811  SER814 

> <Gold.Protein.RotatedAtoms>
  150.8613  134.7965  159.7084 H   0  0  0  0  0  0  0  0  0  0  0  0  # atno 6907 bound_to 6896
  152.4649  134.5096  159.9759 H   0  0  0  0  0  0  0  0  0  0  0  0  # atno 6908 bound_to 6896
  151.5199  133.3430  159.2935 H   0  0  0  0  0  0  0  0  0  0  0  0  # atno 6909 bound_to 6896
  145.9933  140.7156  142.9306 H   0  0  0  0  0  0  0  0  0  0  0  0  # atno 7974 bound_to 7965
  156.0494  140.1322  157.0067 H   0  0  0  0  0  0  0  0  0  0  0  0  # atno 8008 bound_to 7997
  154.4428  140.1014  156.6424 H   0  0  0  0  0  0  0  0  0  0  0  0  # atno 8009 bound_to 7997
  155.5546  140.3463  155.4479 H   0  0  0  0  0  0  0  0  0  0  0  0  # atno 8010 bound_to 7997
  139.9607  143.5953  152.2446 H   0  0  0  0  0  0  0  0  0  0  0  0  # atno 10167 bound_to 10162
  156.3274  130.7567  151.1678 H   0  0  0  0  0  0  0  0  0  0  0  0  # atno 10718 bound_to 10713
  154.1003  135.2846  155.3253 H   0  0  0  0  0  0  0  0  0  0  0  0  # atno 10763 bound_to 10752
  154.6560  135.5352  153.7962 H   0  0  0  0  0  0  0  0  0  0  0  0  # atno 10764 bound_to 10752
  153.0381  135.6522  154.1167 H   0  0  0  0  0  0  0  0  0  0  0  0  # atno 10765 bound_to 10752
  141.1627  133.6889  156.7261 H   0  0  0  0  0  0  0  0  0  0  0  0  # atno 11005 bound_to 11000
  144.6896  140.3108  143.7248 LP  0  0  0  0  0  0  0  0  0  0  0  0  # atno 17320 bound_to 7965
  145.7597  139.1820  143.2274 LP  0  0  0  0  0  0  0  0  0  0  0  0  # atno 17321 bound_to 7965
  139.6556  144.7662  151.2062 LP  0  0  0  0  0  0  0  0  0  0  0  0  # atno 17342 bound_to 10162
  140.7554  143.6091  150.8623 LP  0  0  0  0  0  0  0  0  0  0  0  0  # atno 17343 bound_to 10162
  157.7424  131.0491  150.5028 LP  0  0  0  0  0  0  0  0  0  0  0  0  # atno 17370 bound_to 10713
  156.5189  130.4157  149.6261 LP  0  0  0  0  0  0  0  0  0  0  0  0  # atno 17371 bound_to 10713
  140.2780  134.8340  157.3907 LP  0  0  0  0  0  0  0  0  0  0  0  0  # atno 17394 bound_to 11000
  140.1460  134.4911  155.7996 LP  0  0  0  0  0  0  0  0  0  0  0  0  # atno 17395 bound_to 11000

$$$$
