AV-unprocessed.smi:2193|AV-procd|sdf|8898|dock7
  -GOLD-   2272012103D 1   1.00000     0.00000
 Structure written by MMmdl.
 40 42  0  0  0  0  0  0  0  0  1 V2000
  150.1075  140.5409  153.9659 O   0  0  0  0  0  0  0  0  0  0  0  0
  150.2864  139.7756  155.1376 C   0  0  0  0  0  0  0  0  0  0  0  0
  150.8576  140.5700  156.2729 C   0  0  0  0  0  0  0  0  0  0  0  0
  150.7228  141.8954  156.3341 N   0  0  0  0  0  0  0  0  0  0  0  0
  151.3591  142.2131  157.5174 C   0  0  0  0  0  0  0  0  0  0  0  0
  151.5539  143.4626  158.1486 C   0  0  0  0  0  0  0  0  0  0  0  0
  152.2412  143.5421  159.3775 C   0  0  0  0  0  0  0  0  0  0  0  0
  152.7405  142.3759  159.9927 C   0  0  0  0  0  0  0  0  0  0  0  0
  152.5568  141.1210  159.3806 C   0  0  0  0  0  0  0  0  0  0  0  0
  151.8736  141.0474  158.1515 C   0  0  0  0  0  0  0  0  0  0  0  0
  151.5358  139.9980  157.3017 N   0  0  0  0  0  0  0  0  0  0  0  0
  151.8474  138.5905  157.5224 C   0  0  0  0  0  0  0  0  0  0  0  0
  151.1717  138.0211  158.7869 C   0  0  2  0  0  0  0  0  0  0  0  0
  151.6908  136.7392  159.0766 O   0  0  0  0  0  0  0  0  0  0  0  0
  149.6481  137.9065  158.6350 C   0  0  0  0  0  0  0  0  0  0  0  0
  149.0634  137.8162  159.9279 O   0  0  0  0  0  0  0  0  0  0  0  0
  148.7918  136.5645  160.4366 C   0  0  0  0  0  0  0  0  0  0  0  0
  148.3989  136.4959  161.7895 C   0  0  0  0  0  0  0  0  0  0  0  0
  148.1014  135.2585  162.3924 C   0  0  0  0  0  0  0  0  0  0  0  0
  148.1956  134.0710  161.6436 C   0  0  0  0  0  0  0  0  0  0  0  0
  147.9102  132.8800  162.2212 F   0  0  0  0  0  0  0  0  0  0  0  0
  148.5874  134.1241  160.2930 C   0  0  0  0  0  0  0  0  0  0  0  0
  148.8841  135.3623  159.6899 C   0  0  0  0  0  0  0  0  0  0  0  0
  149.7214  139.9893  153.3031 H   0  0  0  0  0  0  0  0  0  0  0  0
  149.3180  139.3706  155.4340 H   0  0  0  0  0  0  0  0  0  0  0  0
  150.9265  138.9193  154.9257 H   0  0  0  0  0  0  0  0  0  0  0  0
  151.1727  144.3614  157.6867 H   0  0  0  0  0  0  0  0  0  0  0  0
  152.3845  144.5023  159.8509 H   0  0  0  0  0  0  0  0  0  0  0  0
  153.2648  142.4450  160.9346 H   0  0  0  0  0  0  0  0  0  0  0  0
  152.9374  140.2261  159.8502 H   0  0  0  0  0  0  0  0  0  0  0  0
  151.5157  138.0376  156.6429 H   0  0  0  0  0  0  0  0  0  0  0  0
  152.9260  138.4492  157.5767 H   0  0  0  0  0  0  0  0  0  0  0  0
  151.3909  138.6592  159.6432 H   0  0  0  0  0  0  0  0  0  0  0  0
  152.1577  136.4259  158.3168 H   0  0  0  0  0  0  0  0  0  0  0  0
  149.2593  138.7699  158.0920 H   0  0  0  0  0  0  0  0  0  0  0  0
  149.4031  137.0089  158.0647 H   0  0  0  0  0  0  0  0  0  0  0  0
  148.3242  137.4025  162.3720 H   0  0  0  0  0  0  0  0  0  0  0  0
  147.8015  135.2213  163.4293 H   0  0  0  0  0  0  0  0  0  0  0  0
  148.6609  133.2135  159.7170 H   0  0  0  0  0  0  0  0  0  0  0  0
  149.1811  135.3620  158.6523 H   0  0  0  0  0  0  0  0  0  0  0  0
  1  2  1  0  0  0  0
  1 24  1  0  0  0  0
  2  3  1  0  0  0  0
  2 25  1  0  0  0  0
  2 26  1  0  0  0  0
  3 11  1  0  0  0  0
  3  4  2  0  0  0  0
  4  5  1  0  0  0  0
  5 10  2  0  0  0  0
  5  6  1  0  0  0  0
  6  7  2  0  0  0  0
  6 27  1  0  0  0  0
  7  8  1  0  0  0  0
  7 28  1  0  0  0  0
  8  9  2  0  0  0  0
  8 29  1  0  0  0  0
  9 10  1  0  0  0  0
  9 30  1  0  0  0  0
 10 11  1  0  0  0  0
 11 12  1  0  0  0  0
 12 13  1  0  0  0  0
 12 31  1  0  0  0  0
 12 32  1  0  0  0  0
 13 14  1  0  0  0  0
 13 15  1  0  0  0  0
 13 33  1  0  0  0  0
 14 34  1  0  0  0  0
 15 16  1  0  0  0  0
 15 35  1  0  0  0  0
 15 36  1  0  0  0  0
 16 17  1  0  0  0  0
 17 23  1  0  0  0  0
 17 18  2  0  0  0  0
 18 19  1  0  0  0  0
 18 37  1  0  0  0  0
 19 20  2  0  0  0  0
 19 38  1  0  0  0  0
 20 21  1  0  0  0  0
 20 22  1  0  0  0  0
 22 23  2  0  0  0  0
 22 39  1  0  0  0  0
 23 40  1  0  0  0  0
M  END
> <s_m_source_file>
AV-unprocessed.smi

> <i_m_source_file_index>
2193

> <i_lp_mmshare_version>
43012

> <i_f3d_flags>
0

> <s_epik_input>
W2NIXTFbY0hdW2NIXVtjSF1jKGMxMiluKGMobjIpW0NIMl1bT0hdKVtDSDJdW0NASF0oW09IXSlbQ0gyXU9jM1tjSF1bY0hdYyhGKVtjSF1bY0hdMw==

> <s_epik_cmdline>
J2VwaWtfcHl0aG9uJywgJy1waCcsICc3LjAnLCAnLXRuJywgJzgnLCAnLW1hJywgJzIwMCcsICctbWV0YWxfYmluZGluZycsICctaW1hZScsICc8aW5maWxlLm1hZT4nLCAnLW9tYWUnLCAnPG91dGZpbGUubWFlPic=

> <r_lp_tautomer_probability>
1

> <r_epik_Ionization_Penalty>
0.0549747

> <r_epik_Ionization_Penalty_Charging>
0

> <r_epik_Ionization_Penalty_Neutral>
0.0549747

> <r_epik_State_Penalty>
0.0472568

> <r_epik_Charging_Adjusted_Penalty>
0.0472568

> <i_epik_Tot_Q>
0

> <i_epik_Tot_abs_Q>
0

> <r_epik_Metal_State_Penalty>
4.91905e-05

> <b_epik_Metal_Only>
0

> <s_lp_Force_Field>
OPLS_2005

> <r_lp_Energy>
14.0704

> <b_lp_Chiralities_Consistent>
1

> <s_lp_Variant>
AV-unprocessed.smi:2193-1

> <Gold.Version>
5.8.1

> <Gold.Id.Protein>
6NUR|6NUR_protein|mol2

> <Gold.PLP.Fitness>
51.9521

> <Gold.PLP.PLP>
-46.2975

> <Gold.PLP.part.hbond>
-4.9224

> <Gold.PLP.part.metal>
0.0000

> <Gold.PLP.part.buried>
-3.5827

> <Gold.PLP.part.nonpolar>
-37.5118

> <Gold.PLP.part.repulsive>
0.0845

> <Gold.PLP.ligand.clash>
0.0000

> <Gold.PLP.ligand.torsion>
0.8726

> <Gold.PLP.Chemscore.Hbond>
2.4458

> <Gold.PLP.Chemscore.CHOScore>
0.0000

> <Gold.PLP.Chemscore.Metal>
0.0000

> <Gold.Chemscore.Hbonds>
donor molecule, donor type, donor heavy atom, donor atom, acceptor molecule, acceptor atom, score
      L1  H     1    24       P1  7957  0.50
      P1  H  6896  6907       L1    14  0.77
      P1  H  6931  6943       L1    16  0.02
      P1  H  7989  7998       L1     1  0.72

> <Gold.PLP.Chemscore.Internal.Correction>
0.0623

> <Gold.Rescore>
     Score         DG    S(hbond)    S(metal)    S(lipo)     H(rot)  DE(clash)    DE(int)     intcor
     13.05     -14.02       1.36        0.00     104.77       3.22       0.17       0.80       ----

> <Gold.Chemscore.Fitness>
13.0532

> <Gold.Chemscore.DG>
-14.0235

> <Gold.Chemscore.ZeroCoef>
-5.4800

> <Gold.Chemscore.Hbond>
1.3555

> <Gold.Chemscore.Metal>
0.0000

> <Gold.Chemscore.Lipo>
104.7738

> <Gold.Chemscore.Internal_Hbond>
0.0000

> <Gold.Chemscore.DEClash>
0.1701

> <Gold.Chemscore.DEInternal>
0.8003

> <Gold.Chemscore.Rot>
3.2196

> <Gold.Chemscore.Internal.Correction>
   9.000000E+99

> <Gold.Chemscore.Hbonds>
donor molecule, donor type, donor heavy atom, donor atom, acceptor molecule, acceptor atom, score
      L1  H     1    24       P1  7957  0.50
      P1  H  6896  6907       L1    14  0.19
      P1  H  7989  7998       L1     1  0.21

> <Gold.Chemscore.Hbond.Weighted>
-4.5272

> <Gold.Chemscore.Metal.Weighted>
-0.0000

> <Gold.Chemscore.Lipo.Weighted>
-12.2585

> <Gold.Chemscore.Internal_Hbond.Weighted>
0.0000

> <Gold.Chemscore.DEClash.Weighted>
0.1701

> <Gold.Chemscore.DEInternal.Weighted>
0.8003

> <Gold.Chemscore.Rot.Weighted>
8.2422

> <Gold.Chemscore.Internal.Correction.Weighted>
   9.000000E+99

> <Gold.Protein.RotatedTorsions>
[ 6907 6896 6895 6894 ] final  -25.77 input  -60.11 | X-H torsion
[ 7974 7965 7964 7962 ] final  -97.44 input  175.53 | X-H torsion
[ 8008 7997 7996 7995 ] final   89.66 input   59.86 | X-H torsion
[ 10167 10162 10161 10158 ] final  -60.24 input  -65.29 | X-H torsion
[ 10718 10713 10712 10709 ] final  143.54 input   66.30 | X-H torsion
[ 10763 10752 10751 10750 ] final  -52.06 input  -60.55 | X-H torsion
[ 11005 11000 10999 10996 ] final   60.79 input  -57.11 | X-H torsion

> <Gold.Protein.ActiveResidues>
 VAL166  LYS551  ARG553  GLY616  TRP617  ASP618  TYR619  PRO620  LYS621  CYS622 
 ASP623  PHE694  ASN695  SER759  ASP760  ASP761  ALA762  ILE779  LEU786  VAL792 
 PHE793  MET794  SER795  GLU796  ALA797  LYS798  CYS799  TRP800  GLU811  SER814 

> <Gold.Protein.RotatedAtoms>
  151.1704  135.0315  159.8748 H   0  0  0  0  0  0  0  0  0  0  0  0  # atno 6907 bound_to 6896
  152.5449  134.1177  159.8396 H   0  0  0  0  0  0  0  0  0  0  0  0  # atno 6908 bound_to 6896
  151.1282  133.5009  159.2632 H   0  0  0  0  0  0  0  0  0  0  0  0  # atno 6909 bound_to 6896
  145.3337  140.9446  143.2647 H   0  0  0  0  0  0  0  0  0  0  0  0  # atno 7974 bound_to 7965
  156.0026  140.3358  155.6861 H   0  0  0  0  0  0  0  0  0  0  0  0  # atno 8008 bound_to 7997
  155.6269  140.0681  157.2679 H   0  0  0  0  0  0  0  0  0  0  0  0  # atno 8009 bound_to 7997
  154.4254  140.1766  156.1419 H   0  0  0  0  0  0  0  0  0  0  0  0  # atno 8010 bound_to 7997
  140.6084  143.2380  151.5768 H   0  0  0  0  0  0  0  0  0  0  0  0  # atno 10167 bound_to 10162
  157.3677  131.0974  151.0857 H   0  0  0  0  0  0  0  0  0  0  0  0  # atno 10718 bound_to 10713
  154.1367  135.6511  153.4933 H   0  0  0  0  0  0  0  0  0  0  0  0  # atno 10763 bound_to 10752
  153.0178  135.5305  154.6946 H   0  0  0  0  0  0  0  0  0  0  0  0  # atno 10764 bound_to 10752
  154.6196  135.2963  155.0311 H   0  0  0  0  0  0  0  0  0  0  0  0  # atno 10765 bound_to 10752
  140.0207  134.6157  155.9644 H   0  0  0  0  0  0  0  0  0  0  0  0  # atno 11005 bound_to 11000
  144.8844  139.4859  143.6707 LP  0  0  0  0  0  0  0  0  0  0  0  0  # atno 17320 bound_to 7965
  146.3035  139.7504  142.9073 LP  0  0  0  0  0  0  0  0  0  0  0  0  # atno 17321 bound_to 7965
  139.5342  144.2829  152.1215 LP  0  0  0  0  0  0  0  0  0  0  0  0  # atno 17342 bound_to 10162
  140.2023  144.4646  150.6425 LP  0  0  0  0  0  0  0  0  0  0  0  0  # atno 17343 bound_to 10162
  157.1973  130.6378  149.5725 LP  0  0  0  0  0  0  0  0  0  0  0  0  # atno 17370 bound_to 10713
  155.9749  130.4702  150.6423 LP  0  0  0  0  0  0  0  0  0  0  0  0  # atno 17371 bound_to 10713
  141.1772  133.6541  156.4874 LP  0  0  0  0  0  0  0  0  0  0  0  0  # atno 17394 bound_to 11000
  140.4392  134.7031  157.4983 LP  0  0  0  0  0  0  0  0  0  0  0  0  # atno 17395 bound_to 11000

$$$$
