AV-unprocessed.smi:2979|AV-procd|sdf|11370|dock8
  -GOLD-   2272016293D 1   1.00000     0.00000
 Structure written by MMmdl.
 35 36  0  0  0  0  0  0  0  0  1 V2000
  147.2797  142.1458  154.1249 C   0  0  0  0  0  0  0  0  0  0  0  0
  148.1931  141.1027  153.8356 O   0  0  0  0  0  0  0  0  0  0  0  0
  148.9621  140.7243  154.9659 C   0  0  0  0  0  0  0  0  0  0  0  0
  149.9149  141.8648  155.3516 C   0  0  0  0  0  0  0  0  0  0  0  0
  150.8967  141.4636  156.3515 N   0  0  0  0  0  0  0  0  0  0  0  0
  151.6504  140.3340  156.3981 C   0  0  0  0  0  0  0  0  0  0  0  0
  151.6025  139.2737  155.3381 C   0  0  0  0  0  0  0  0  0  0  0  0
  151.1062  137.9232  155.8774 C   0  0  0  0  0  0  0  0  0  0  0  0
  150.7479  136.9414  154.7548 C   0  0  0  0  0  0  0  0  0  0  0  0
  151.8175  136.8493  153.8390 O   0  0  0  0  0  0  0  0  0  0  0  0
  152.4600  140.2213  157.4519 N   0  0  0  0  0  0  0  0  0  0  0  0
  152.2221  141.3901  158.1470 C   0  0  0  0  0  0  0  0  0  0  0  0
  152.7797  141.8689  159.3541 C   0  0  0  0  0  0  0  0  0  0  0  0
  152.3791  143.1141  159.8809 C   0  0  0  0  0  0  0  0  0  0  0  0
  151.4177  143.8966  159.2094 C   0  0  0  0  0  0  0  0  0  0  0  0
  150.8489  143.4371  158.0060 C   0  0  0  0  0  0  0  0  0  0  0  0
  151.2508  142.1922  157.4843 C   0  0  0  0  0  0  0  0  0  0  0  0
  146.7209  142.4028  153.2251 H   0  0  0  0  0  0  0  0  0  0  0  0
  147.7991  143.0417  154.4674 H   0  0  0  0  0  0  0  0  0  0  0  0
  146.5641  141.8410  154.8897 H   0  0  0  0  0  0  0  0  0  0  0  0
  148.3036  140.4944  155.8048 H   0  0  0  0  0  0  0  0  0  0  0  0
  149.5283  139.8189  154.7483 H   0  0  0  0  0  0  0  0  0  0  0  0
  150.4461  142.2068  154.4632 H   0  0  0  0  0  0  0  0  0  0  0  0
  149.3604  142.7296  155.7148 H   0  0  0  0  0  0  0  0  0  0  0  0
  150.9386  139.6156  154.5430 H   0  0  0  0  0  0  0  0  0  0  0  0
  152.5804  139.1523  154.8756 H   0  0  0  0  0  0  0  0  0  0  0  0
  151.8702  137.4790  156.5160 H   0  0  0  0  0  0  0  0  0  0  0  0
  150.2345  138.0848  156.5131 H   0  0  0  0  0  0  0  0  0  0  0  0
  150.5410  135.9509  155.1608 H   0  0  0  0  0  0  0  0  0  0  0  0
  149.8547  137.2721  154.2242 H   0  0  0  0  0  0  0  0  0  0  0  0
  151.4621  136.8028  152.9646 H   0  0  0  0  0  0  0  0  0  0  0  0
  153.5183  141.2773  159.8746 H   0  0  0  0  0  0  0  0  0  0  0  0
  152.8124  143.4710  160.8037 H   0  0  0  0  0  0  0  0  0  0  0  0
  151.1178  144.8504  159.6182 H   0  0  0  0  0  0  0  0  0  0  0  0
  150.1148  144.0372  157.4895 H   0  0  0  0  0  0  0  0  0  0  0  0
  1  2  1  0  0  0  0
  1 18  1  0  0  0  0
  1 19  1  0  0  0  0
  1 20  1  0  0  0  0
  2  3  1  0  0  0  0
  3  4  1  0  0  0  0
  3 21  1  0  0  0  0
  3 22  1  0  0  0  0
  4  5  1  0  0  0  0
  4 23  1  0  0  0  0
  4 24  1  0  0  0  0
  5 17  1  0  0  0  0
  5  6  1  0  0  0  0
  6  7  1  0  0  0  0
  6 11  2  0  0  0  0
  7  8  1  0  0  0  0
  7 25  1  0  0  0  0
  7 26  1  0  0  0  0
  8  9  1  0  0  0  0
  8 27  1  0  0  0  0
  8 28  1  0  0  0  0
  9 10  1  0  0  0  0
  9 29  1  0  0  0  0
  9 30  1  0  0  0  0
 10 31  1  0  0  0  0
 11 12  1  0  0  0  0
 12 17  2  0  0  0  0
 12 13  1  0  0  0  0
 13 14  2  0  0  0  0
 13 32  1  0  0  0  0
 14 15  1  0  0  0  0
 14 33  1  0  0  0  0
 15 16  2  0  0  0  0
 15 34  1  0  0  0  0
 16 17  1  0  0  0  0
 16 35  1  0  0  0  0
M  END
> <s_m_source_file>
AV-unprocessed.smi

> <i_m_source_file_index>
2979

> <i_lp_mmshare_version>
43012

> <i_f3d_flags>
0

> <s_epik_input>
W2NIXTFbY0hdW2NIXVtjSF1jKGMxMiluKFtDSDJdW0NIMl1PW0NIM10pYyhuMilbQ0gyXVtDSDJdW0NIMl1bT0hd

> <s_epik_cmdline>
J2VwaWtfcHl0aG9uJywgJy1waCcsICc3LjAnLCAnLXRuJywgJzgnLCAnLW1hJywgJzIwMCcsICctbWV0YWxfYmluZGluZycsICctaW1hZScsICc8aW5maWxlLm1hZT4nLCAnLW9tYWUnLCAnPG91dGZpbGUubWFlPic=

> <r_epik_Ionization_Penalty>
0.183246

> <r_epik_Ionization_Penalty_Charging>
0

> <r_epik_Ionization_Penalty_Neutral>
0.183246

> <r_epik_State_Penalty>
0.172781

> <r_epik_Charging_Adjusted_Penalty>
0.172781

> <i_epik_Tot_Q>
0

> <i_epik_Tot_abs_Q>
0

> <r_epik_Metal_State_Penalty>
0.000200578

> <b_epik_Metal_Only>
0

> <s_lp_Force_Field>
OPLS_2005

> <r_lp_Energy>
6.05289

> <b_lp_Chiralities_Consistent>
1

> <s_lp_Variant>
AV-unprocessed.smi:2979-1

> <Gold.Version>
5.8.1

> <Gold.Id.Protein>
6NUR|6NUR_protein|mol2

> <Gold.PLP.Fitness>
46.4061

> <Gold.PLP.PLP>
-37.9422

> <Gold.PLP.part.hbond>
-3.0000

> <Gold.PLP.part.metal>
0.0000

> <Gold.PLP.part.buried>
-3.9529

> <Gold.PLP.part.nonpolar>
-31.4189

> <Gold.PLP.part.repulsive>
0.1536

> <Gold.PLP.ligand.clash>
0.0000

> <Gold.PLP.ligand.torsion>
0.2934

> <Gold.PLP.Chemscore.Hbond>
3.0000

> <Gold.PLP.Chemscore.CHOScore>
0.0000

> <Gold.PLP.Chemscore.Metal>
0.0000

> <Gold.Chemscore.Hbonds>
donor molecule, donor type, donor heavy atom, donor atom, acceptor molecule, acceptor atom, score
      L1  H    10    31       P1  7949  1.00
      P1  H  7997  8009       L1    11  0.89
      P1  H 10752 10763       L1    10  1.00

> <Gold.PLP.Chemscore.Internal.Correction>
0.0507

> <Gold.Rescore>
     Score         DG    S(hbond)    S(metal)    S(lipo)     H(rot)  DE(clash)    DE(int)     intcor
     18.76     -18.92       2.50        0.00      97.17       2.45       0.09       0.07       ----

> <Gold.Chemscore.Fitness>
18.7589

> <Gold.Chemscore.DG>
-18.9200

> <Gold.Chemscore.ZeroCoef>
-5.4800

> <Gold.Chemscore.Hbond>
2.4960

> <Gold.Chemscore.Metal>
0.0000

> <Gold.Chemscore.Lipo>
97.1699

> <Gold.Chemscore.Internal_Hbond>
0.0000

> <Gold.Chemscore.DEClash>
0.0943

> <Gold.Chemscore.DEInternal>
0.0668

> <Gold.Chemscore.Rot>
2.4474

> <Gold.Chemscore.Internal.Correction>
   9.000000E+99

> <Gold.Chemscore.Hbonds>
donor molecule, donor type, donor heavy atom, donor atom, acceptor molecule, acceptor atom, score
      L1  H    10    31       P1  7949  0.87
      P1  H  7997  8009       L1    11  0.42
      P1  H 10752 10763       L1    10  0.59

> <Gold.Chemscore.Hbond.Weighted>
-8.3365

> <Gold.Chemscore.Metal.Weighted>
-0.0000

> <Gold.Chemscore.Lipo.Weighted>
-11.3689

> <Gold.Chemscore.Internal_Hbond.Weighted>
0.0000

> <Gold.Chemscore.DEClash.Weighted>
0.0943

> <Gold.Chemscore.DEInternal.Weighted>
0.0668

> <Gold.Chemscore.Rot.Weighted>
6.2654

> <Gold.Chemscore.Internal.Correction.Weighted>
   9.000000E+99

> <Gold.Protein.RotatedTorsions>
[ 6907 6896 6895 6894 ] final   21.40 input  -60.11 | X-H torsion
[ 7974 7965 7964 7962 ] final  153.56 input  175.53 | X-H torsion
[ 8008 7997 7996 7995 ] final  176.48 input   59.86 | X-H torsion
[ 10167 10162 10161 10158 ] final  141.25 input  -65.29 | X-H torsion
[ 10718 10713 10712 10709 ] final   -3.73 input   66.30 | X-H torsion
[ 10763 10752 10751 10750 ] final   17.64 input  -60.55 | X-H torsion
[ 11005 11000 10999 10996 ] final -147.44 input  -57.11 | X-H torsion

> <Gold.Protein.ActiveResidues>
 VAL166  LYS551  ARG553  GLY616  TRP617  ASP618  TYR619  PRO620  LYS621  CYS622 
 ASP623  PHE694  ASN695  SER759  ASP760  ASP761  ALA762  ILE779  LEU786  VAL792 
 PHE793  MET794  SER795  GLU796  ALA797  LYS798  CYS799  TRP800  GLU811  SER814 

> <Gold.Protein.RotatedAtoms>
  151.9112  135.0338  160.0514 H   0  0  0  0  0  0  0  0  0  0  0  0  # atno 6907 bound_to 6896
  152.2278  133.5029  159.5207 H   0  0  0  0  0  0  0  0  0  0  0  0  # atno 6908 bound_to 6896
  150.7017  134.1174  159.4065 H   0  0  0  0  0  0  0  0  0  0  0  0  # atno 6909 bound_to 6896
  144.8147  139.6816  143.6126 H   0  0  0  0  0  0  0  0  0  0  0  0  # atno 7974 bound_to 7965
  156.0760  140.1382  156.9771 H   0  0  0  0  0  0  0  0  0  0  0  0  # atno 8008 bound_to 7997
  154.4558  140.0962  156.6803 H   0  0  0  0  0  0  0  0  0  0  0  0  # atno 8009 bound_to 7997
  155.5152  140.3455  155.4398 H   0  0  0  0  0  0  0  0  0  0  0  0  # atno 8010 bound_to 7997
  139.5025  144.6183  151.6112 H   0  0  0  0  0  0  0  0  0  0  0  0  # atno 10167 bound_to 10162
  156.7717  130.5302  149.5766 H   0  0  0  0  0  0  0  0  0  0  0  0  # atno 10718 bound_to 10713
  153.1320  135.6742  153.9162 H   0  0  0  0  0  0  0  0  0  0  0  0  # atno 10763 bound_to 10752
  153.8646  135.3077  155.3440 H   0  0  0  0  0  0  0  0  0  0  0  0  # atno 10764 bound_to 10752
  154.7716  135.4936  153.9741 H   0  0  0  0  0  0  0  0  0  0  0  0  # atno 10765 bound_to 10752
  140.7716  134.3182  157.5073 H   0  0  0  0  0  0  0  0  0  0  0  0  # atno 11005 bound_to 11000
  146.2449  139.6077  142.9466 LP  0  0  0  0  0  0  0  0  0  0  0  0  # atno 17320 bound_to 7965
  145.5243  141.0430  143.2418 LP  0  0  0  0  0  0  0  0  0  0  0  0  # atno 17321 bound_to 7965
  140.5877  143.9834  150.6306 LP  0  0  0  0  0  0  0  0  0  0  0  0  # atno 17342 bound_to 10162
  140.3004  143.3264  152.0977 LP  0  0  0  0  0  0  0  0  0  0  0  0  # atno 17343 bound_to 10162
  156.1274  130.6153  151.0283 LP  0  0  0  0  0  0  0  0  0  0  0  0  # atno 17370 bound_to 10713
  157.6688  131.0866  150.7664 LP  0  0  0  0  0  0  0  0  0  0  0  0  # atno 17371 bound_to 10713
  139.8755  134.9264  156.3399 LP  0  0  0  0  0  0  0  0  0  0  0  0  # atno 17394 bound_to 11000
  140.9568  133.7414  156.0347 LP  0  0  0  0  0  0  0  0  0  0  0  0  # atno 17395 bound_to 11000

$$$$
