AV-unprocessed.smi:287|AV-procd|sdf|2183|dock9
  -GOLD-   2262021563D 1   1.00000     0.00000
 Structure written by MMmdl.
 55 58  0  0  0  0  0  0  0  0  1 V2000
  151.1780  144.7848  159.8229 C   0  0  0  0  0  0  0  0  0  0  0  0
  151.5742  143.3543  159.6901 C   0  0  0  0  0  0  0  0  0  0  0  0
  151.3996  142.4126  158.7186 C   0  0  0  0  0  0  0  0  0  0  0  0
  152.0034  141.2050  159.1811 C   0  0  0  0  0  0  0  0  0  0  0  0
  152.0564  139.8811  158.4304 C   0  0  1  0  0  0  0  0  0  0  0  0
  151.6780  140.1048  156.9573 C   0  0  0  0  0  0  0  0  0  0  0  0
  153.3543  139.3188  158.4047 O   0  0  0  0  0  0  0  0  0  0  0  0
  151.1405  138.8048  159.0578 C   0  0  0  0  0  0  0  0  0  0  0  0
  151.0978  137.5736  158.2792 N   0  0  0  0  0  0  0  0  0  0  0  0
  149.9449  136.8909  158.1220 C   0  0  0  0  0  0  0  0  0  0  0  0
  149.5326  136.1870  159.2034 N   0  0  0  0  0  0  0  0  0  0  0  0
  148.4020  135.4773  159.1529 C   0  0  0  0  0  0  0  0  0  0  0  0
  147.5500  135.3369  158.1360 N   0  0  0  0  0  0  0  0  0  0  0  0
  147.9602  136.0417  157.0421 C   0  0  0  0  0  0  0  0  0  0  0  0
  149.1366  136.8387  156.9475 C   0  0  0  0  0  0  0  0  0  0  0  0
  149.2117  137.3913  155.6729 N   0  0  0  0  0  0  0  0  0  0  0  0
  148.1479  136.9457  155.0615 C   0  0  0  0  0  0  0  0  0  0  0  0
  147.3404  136.1223  155.8149 N   0  0  0  0  0  0  0  0  0  0  0  0
  146.0606  135.4441  155.4338 C   0  0  1  0  0  0  0  0  0  0  0  0
  145.5769  136.0738  154.2846 O   0  0  0  0  0  0  0  0  0  0  0  0
  145.4367  135.1431  153.2110 C   0  0  1  0  0  0  0  0  0  0  0  0
  145.6903  135.8216  151.8532 C   0  0  0  0  0  0  0  0  0  0  0  0
  145.1447  137.1234  151.8540 O   0  0  0  0  0  0  0  0  0  0  0  0
  146.3853  133.9891  153.5647 C   0  0  1  0  0  0  0  0  0  0  0  0
  147.7055  134.2476  153.1165 O   0  0  0  0  0  0  0  0  0  0  0  0
  146.2782  133.9603  155.0827 C   0  0  1  0  0  0  0  0  0  0  0  0
  147.3855  133.3320  155.7070 O   0  0  0  0  0  0  0  0  0  0  0  0
  152.5247  141.5239  160.4120 C   0  0  0  0  0  0  0  0  0  0  0  0
  153.2994  140.7650  161.4383 C   0  0  0  0  0  0  0  0  0  0  0  0
  152.2629  142.8224  160.7306 O   0  0  0  0  0  0  0  0  0  0  0  0
  145.3976  135.6037  156.2848 H   0  0  0  0  0  0  0  0  0  0  0  0
  144.4183  134.7513  153.2457 H   0  0  0  0  0  0  0  0  0  0  0  0
  146.0576  133.0480  153.1218 H   0  0  0  0  0  0  0  0  0  0  0  0
  145.3690  133.4279  155.3645 H   0  0  0  0  0  0  0  0  0  0  0  0
  150.4946  145.0748  159.0245 H   0  0  0  0  0  0  0  0  0  0  0  0
  152.0525  145.4336  159.7726 H   0  0  0  0  0  0  0  0  0  0  0  0
  150.6782  144.9619  160.7754 H   0  0  0  0  0  0  0  0  0  0  0  0
  150.8875  142.5692  157.7807 H   0  0  0  0  0  0  0  0  0  0  0  0
  150.6685  140.5071  156.8653 H   0  0  0  0  0  0  0  0  0  0  0  0
  151.7120  139.1742  156.3894 H   0  0  0  0  0  0  0  0  0  0  0  0
  152.3570  140.8106  156.4768 H   0  0  0  0  0  0  0  0  0  0  0  0
  153.3469  138.5258  158.9189 H   0  0  0  0  0  0  0  0  0  0  0  0
  151.5316  138.5503  160.0439 H   0  0  0  0  0  0  0  0  0  0  0  0
  150.1325  139.1940  159.2074 H   0  0  0  0  0  0  0  0  0  0  0  0
  151.9917  137.2322  157.9556 H   0  0  0  0  0  0  0  0  0  0  0  0
  148.1442  134.9452  160.0567 H   0  0  0  0  0  0  0  0  0  0  0  0
  147.9256  137.2072  154.0373 H   0  0  0  0  0  0  0  0  0  0  0  0
  146.7545  135.8580  151.6183 H   0  0  0  0  0  0  0  0  0  0  0  0
  145.1989  135.2633  151.0556 H   0  0  0  0  0  0  0  0  0  0  0  0
  144.6901  137.2587  151.0368 H   0  0  0  0  0  0  0  0  0  0  0  0
  147.7058  135.0750  152.6589 H   0  0  0  0  0  0  0  0  0  0  0  0
  147.0708  132.8456  156.4541 H   0  0  0  0  0  0  0  0  0  0  0  0
  154.1442  140.2493  160.9816 H   0  0  0  0  0  0  0  0  0  0  0  0
  152.6694  140.0201  161.9245 H   0  0  0  0  0  0  0  0  0  0  0  0
  153.6907  141.4296  162.2088 H   0  0  0  0  0  0  0  0  0  0  0  0
  1  2  1  0  0  0  0
  1 35  1  0  0  0  0
  1 36  1  0  0  0  0
  1 37  1  0  0  0  0
  2 30  1  0  0  0  0
  2  3  2  0  0  0  0
  3  4  1  0  0  0  0
  3 38  1  0  0  0  0
  4  5  1  0  0  0  0
  4 28  2  0  0  0  0
  5  6  1  0  0  0  0
  5  7  1  0  0  0  0
  5  8  1  0  0  0  0
  6 39  1  0  0  0  0
  6 40  1  0  0  0  0
  6 41  1  0  0  0  0
  7 42  1  0  0  0  0
  8  9  1  0  0  0  0
  8 43  1  0  0  0  0
  8 44  1  0  0  0  0
  9 10  1  0  0  0  0
  9 45  1  0  0  0  0
 10 15  1  0  0  0  0
 10 11  2  0  0  0  0
 11 12  1  0  0  0  0
 12 13  2  0  0  0  0
 12 46  1  0  0  0  0
 13 14  1  0  0  0  0
 14 18  1  0  0  0  0
 14 15  2  0  0  0  0
 15 16  1  0  0  0  0
 16 17  2  0  0  0  0
 17 18  1  0  0  0  0
 17 47  1  0  0  0  0
 18 19  1  0  0  0  0
 19 31  1  0  0  0  0
 19 26  1  0  0  0  0
 19 20  1  0  0  0  0
 20 21  1  0  0  0  0
 21 32  1  0  0  0  0
 21 22  1  0  0  0  0
 21 24  1  0  0  0  0
 22 23  1  0  0  0  0
 22 48  1  0  0  0  0
 22 49  1  0  0  0  0
 23 50  1  0  0  0  0
 24 33  1  0  0  0  0
 24 25  1  0  0  0  0
 24 26  1  0  0  0  0
 25 51  1  0  0  0  0
 26 34  1  0  0  0  0
 26 27  1  0  0  0  0
 27 52  1  0  0  0  0
 28 29  1  0  0  0  0
 28 30  1  0  0  0  0
 29 53  1  0  0  0  0
 29 54  1  0  0  0  0
 29 55  1  0  0  0  0
M  END
> <s_m_source_file>
AV-unprocessed.smi

> <i_m_source_file_index>
287

> <i_lp_mmshare_version>
43012

> <i_f3d_flags>
0

> <s_epik_input>
W0NIM11jMVtjSF1jKGMobzEpW0NIM10pW0NAQF0oW0NIM10pKFtPSF0pW0NIMl1bTkhdYyhuW2NIXW4yKWMoYzIzKW5bY0hdbjNbQ0BASF00T1tDQEhdKFtDSDJdW09IXSlbQ0BASF0oW09IXSlbQ0BIXTRbT0hd

> <s_epik_cmdline>
J2VwaWtfcHl0aG9uJywgJy1waCcsICc3LjAnLCAnLXRuJywgJzgnLCAnLW1hJywgJzIwMCcsICctbWV0YWxfYmluZGluZycsICctaW1hZScsICc8aW5maWxlLm1hZT4nLCAnLW9tYWUnLCAnPG91dGZpbGUubWFlPic=

> <r_lp_tautomer_probability>
1

> <r_epik_Ionization_Penalty>
0.000992612

> <r_epik_Ionization_Penalty_Charging>
0

> <r_epik_Ionization_Penalty_Neutral>
0.000992612

> <r_epik_State_Penalty>
-0

> <r_epik_Charging_Adjusted_Penalty>
0

> <i_epik_Tot_Q>
0

> <i_epik_Tot_abs_Q>
0

> <r_epik_Metal_State_Penalty>
-0

> <b_epik_Metal_Only>
0

> <s_epik_Chemistry_Notes>
This compound contains an acetal/aminal-like group ( X-CH(R)-Y where X, Y are N, S, or O) that may be acid/base labile, releasing an aldehyde.

> <s_lp_Force_Field>
OPLS_2005

> <r_lp_Energy>
47.3874

> <b_lp_Chiralities_Consistent>
1

> <s_lp_Variant>
AV-unprocessed.smi:287-7

> <Gold.Version>
5.8.1

> <Gold.Id.Protein>
6NUR|6NUR_protein|mol2

> <Gold.PLP.Fitness>
47.2313

> <Gold.PLP.PLP>
-36.1782

> <Gold.PLP.part.hbond>
-3.9669

> <Gold.PLP.part.metal>
0.0000

> <Gold.PLP.part.buried>
-6.1995

> <Gold.PLP.part.nonpolar>
-26.5518

> <Gold.PLP.part.repulsive>
0.1919

> <Gold.PLP.ligand.clash>
0.0000

> <Gold.PLP.ligand.torsion>
2.0182

> <Gold.PLP.Chemscore.Hbond>
3.7833

> <Gold.PLP.Chemscore.CHOScore>
1.0000

> <Gold.PLP.Chemscore.Metal>
0.0000

> <Gold.Chemscore.Hbonds>
donor molecule, donor type, donor heavy atom, donor atom, acceptor molecule, acceptor atom, score
      L1  H    23    50       P1 10171  0.93
      L1  H    25    51       P1  7948  0.75
      P1  H  6896  6909       L1    11  1.00
      P1  H  7997  8008       L1     7  1.00
      L1  C    17    47       P1  7948  0.81

> <Gold.PLP.Chemscore.Internal.Correction>
0.7398

> <Gold.Rescore>
     Score         DG    S(hbond)    S(metal)    S(lipo)     H(rot)  DE(clash)    DE(int)     intcor
      8.86     -11.58       2.93        0.00      83.69       5.27       0.01       2.71       ----

> <Gold.Chemscore.Fitness>
8.8574

> <Gold.Chemscore.DG>
-11.5796

> <Gold.Chemscore.ZeroCoef>
-5.4800

> <Gold.Chemscore.Hbond>
2.9316

> <Gold.Chemscore.Metal>
0.0000

> <Gold.Chemscore.Lipo>
83.6912

> <Gold.Chemscore.Internal_Hbond>
0.0000

> <Gold.Chemscore.DEClash>
0.0089

> <Gold.Chemscore.DEInternal>
2.7134

> <Gold.Chemscore.Rot>
5.2672

> <Gold.Chemscore.Internal.Correction>
   9.000000E+99

> <Gold.Chemscore.Hbonds>
donor molecule, donor type, donor heavy atom, donor atom, acceptor molecule, acceptor atom, score
      L1  H    23    50       P1 10171  0.87
      L1  H    25    51       P1  7948  0.73
      P1  H  6896  6909       L1    11  0.35
      P1  H  7997  8008       L1     7  0.90

> <Gold.Chemscore.Hbond.Weighted>
-9.7917

> <Gold.Chemscore.Metal.Weighted>
-0.0000

> <Gold.Chemscore.Lipo.Weighted>
-9.7919

> <Gold.Chemscore.Internal_Hbond.Weighted>
0.0000

> <Gold.Chemscore.DEClash.Weighted>
0.0089

> <Gold.Chemscore.DEInternal.Weighted>
2.7134

> <Gold.Chemscore.Rot.Weighted>
13.4839

> <Gold.Chemscore.Internal.Correction.Weighted>
   9.000000E+99

> <Gold.Protein.RotatedTorsions>
[ 6907 6896 6895 6894 ] final   74.37 input  -60.11 | X-H torsion
[ 7974 7965 7964 7962 ] final -159.59 input  175.53 | X-H torsion
[ 8008 7997 7996 7995 ] final  -84.82 input   59.86 | X-H torsion
[ 10167 10162 10161 10158 ] final   79.03 input  -65.29 | X-H torsion
[ 10718 10713 10712 10709 ] final  176.84 input   66.30 | X-H torsion
[ 10763 10752 10751 10750 ] final  113.77 input  -60.55 | X-H torsion
[ 11005 11000 10999 10996 ] final  -94.61 input  -57.11 | X-H torsion

> <Gold.Protein.ActiveResidues>
 VAL166  LYS551  ARG553  GLY616  TRP617  ASP618  TYR619  PRO620  LYS621  CYS622 
 ASP623  PHE694  ASN695  SER759  ASP760  ASP761  ALA762  ILE779  LEU786  VAL792 
 PHE793  MET794  SER795  GLU796  ALA797  LYS798  CYS799  TRP800  GLU811  SER814 

> <Gold.Protein.RotatedAtoms>
  152.4972  134.4282  159.9503 H   0  0  0  0  0  0  0  0  0  0  0  0  # atno 6907 bound_to 6896
  151.4259  133.3678  159.2770 H   0  0  0  0  0  0  0  0  0  0  0  0  # atno 6908 bound_to 6896
  150.9189  134.8630  159.7535 H   0  0  0  0  0  0  0  0  0  0  0  0  # atno 6909 bound_to 6896
  144.7459  140.3664  143.6085 H   0  0  0  0  0  0  0  0  0  0  0  0  # atno 7974 bound_to 7965
  154.6339  140.0600  156.9766 H   0  0  0  0  0  0  0  0  0  0  0  0  # atno 8008 bound_to 7997
  155.1622  140.3283  155.4391 H   0  0  0  0  0  0  0  0  0  0  0  0  # atno 8009 bound_to 7997
  156.2497  140.1929  156.6728 H   0  0  0  0  0  0  0  0  0  0  0  0  # atno 8010 bound_to 7997
  139.9646  144.5937  150.8041 H   0  0  0  0  0  0  0  0  0  0  0  0  # atno 10167 bound_to 10162
  156.9141  130.9919  151.3016 H   0  0  0  0  0  0  0  0  0  0  0  0  # atno 10718 bound_to 10713
  153.4973  135.3645  155.2522 H   0  0  0  0  0  0  0  0  0  0  0  0  # atno 10763 bound_to 10752
  154.8749  135.3991  154.3519 H   0  0  0  0  0  0  0  0  0  0  0  0  # atno 10764 bound_to 10752
  153.4149  135.7079  153.6400 H   0  0  0  0  0  0  0  0  0  0  0  0  # atno 10765 bound_to 10752
  141.1465  133.7968  157.0322 H   0  0  0  0  0  0  0  0  0  0  0  0  # atno 11005 bound_to 11000
  145.7124  139.1688  143.2531 LP  0  0  0  0  0  0  0  0  0  0  0  0  # atno 17320 bound_to 7965
  146.1337  140.7151  142.9400 LP  0  0  0  0  0  0  0  0  0  0  0  0  # atno 17321 bound_to 7965
  140.7542  143.3023  151.3050 LP  0  0  0  0  0  0  0  0  0  0  0  0  # atno 17342 bound_to 10162
  139.6528  144.0332  152.2638 LP  0  0  0  0  0  0  0  0  0  0  0  0  # atno 17343 bound_to 10162
  157.5949  130.8470  149.8714 LP  0  0  0  0  0  0  0  0  0  0  0  0  # atno 17370 bound_to 10713
  156.0522  130.3715  150.1175 LP  0  0  0  0  0  0  0  0  0  0  0  0  # atno 17371 bound_to 10713
  140.0746  134.9683  157.1525 LP  0  0  0  0  0  0  0  0  0  0  0  0  # atno 17394 bound_to 11000
  140.3661  134.2441  155.7182 LP  0  0  0  0  0  0  0  0  0  0  0  0  # atno 17395 bound_to 11000

$$$$
