AV-unprocessed.smi:2657|AV-procd|sdf|10307|dock6
  -GOLD-   2272014323D 1   1.00000     0.00000
 Structure written by MMmdl.
 46 48  0  0  0  0  0  0  0  0  1 V2000
  151.7568  134.5463  156.6164 O   0  0  0  0  0  0  0  0  0  0  0  0
  151.0195  135.2908  155.9711 C   0  0  0  0  0  0  0  0  0  0  0  0
  151.0852  136.6280  156.0363 N   0  0  0  0  0  0  0  0  0  0  0  0
  152.0482  137.3763  156.8356 C   0  0  0  0  0  0  0  0  0  0  0  0
  152.6269  138.5742  156.0545 C   0  0  0  0  0  0  0  0  0  0  0  0
  151.9933  139.8429  156.4320 N   0  0  0  0  0  0  0  0  0  0  0  0
  151.0544  140.4599  155.7002 C   0  0  0  0  0  0  0  0  0  0  0  0
  150.5794  140.0617  154.6370 O   0  0  0  0  0  0  0  0  0  0  0  0
  150.6257  141.7678  156.3509 C   0  0  0  0  0  0  0  0  0  0  0  0
  151.4790  141.8182  157.6218 C   0  0  0  0  0  0  0  0  0  0  0  0
  152.2986  140.5380  157.5367 C   0  0  0  0  0  0  0  0  0  0  0  0
  153.1274  140.2218  158.3896 O   0  0  0  0  0  0  0  0  0  0  0  0
  150.0645  134.8964  155.1113 N   0  0  0  0  0  0  0  0  0  0  0  0
  149.6987  133.5830  154.7047 C   0  0  0  0  0  0  0  0  0  0  0  0
  150.2713  132.3877  155.2003 C   0  0  0  0  0  0  0  0  0  0  0  0
  149.8083  131.1532  154.7064 C   0  0  0  0  0  0  0  0  0  0  0  0
  148.7812  131.1346  153.7336 C   0  0  0  0  0  0  0  0  0  0  0  0
  148.3027  129.9067  153.2262 N   0  0  0  0  0  0  0  0  0  0  0  0
  146.8576  129.6858  153.2120 C   0  0  0  0  0  0  0  0  0  0  0  0
  146.5118  128.4474  152.3680 C   0  0  0  0  0  0  0  0  0  0  0  0
  147.2353  127.3208  152.8512 O   0  0  0  0  0  0  0  0  0  0  0  0
  148.6423  127.5137  152.7514 C   0  0  0  0  0  0  0  0  0  0  0  0
  149.0660  128.7204  153.6065 C   0  0  0  0  0  0  0  0  0  0  0  0
  148.2362  132.2815  153.2604 N   0  0  0  0  0  0  0  0  0  0  0  0
  148.6823  133.4626  153.7362 C   0  0  0  0  0  0  0  0  0  0  0  0
  150.4420  137.1663  155.4745 H   0  0  0  0  0  0  0  0  0  0  0  0
  151.4998  137.7547  157.6985 H   0  0  0  0  0  0  0  0  0  0  0  0
  152.8289  136.7303  157.2413 H   0  0  0  0  0  0  0  0  0  0  0  0
  153.7128  138.6200  156.1569 H   0  0  0  0  0  0  0  0  0  0  0  0
  152.4516  138.4156  154.9891 H   0  0  0  0  0  0  0  0  0  0  0  0
  150.8348  142.6083  155.6882 H   0  0  0  0  0  0  0  0  0  0  0  0
  149.5589  141.7524  156.5760 H   0  0  0  0  0  0  0  0  0  0  0  0
  152.1332  142.6902  157.6388 H   0  0  0  0  0  0  0  0  0  0  0  0
  150.8657  141.8197  158.5235 H   0  0  0  0  0  0  0  0  0  0  0  0
  149.5569  135.6394  154.6534 H   0  0  0  0  0  0  0  0  0  0  0  0
  151.0500  132.3793  155.9452 H   0  0  0  0  0  0  0  0  0  0  0  0
  150.2556  130.2402  155.0696 H   0  0  0  0  0  0  0  0  0  0  0  0
  146.5026  129.5513  154.2348 H   0  0  0  0  0  0  0  0  0  0  0  0
  146.3458  130.5566  152.8002 H   0  0  0  0  0  0  0  0  0  0  0  0
  145.4439  128.2375  152.4301 H   0  0  0  0  0  0  0  0  0  0  0  0
  146.7421  128.6177  151.3150 H   0  0  0  0  0  0  0  0  0  0  0  0
  149.1491  126.6129  153.0976 H   0  0  0  0  0  0  0  0  0  0  0  0
  148.9268  127.6578  151.7079 H   0  0  0  0  0  0  0  0  0  0  0  0
  150.1380  128.8742  153.4930 H   0  0  0  0  0  0  0  0  0  0  0  0
  148.8859  128.5106  154.6616 H   0  0  0  0  0  0  0  0  0  0  0  0
  148.2103  134.3428  153.3248 H   0  0  0  0  0  0  0  0  0  0  0  0
  1  2  2  0  0  0  0
  2  3  1  0  0  0  0
  2 13  1  0  0  0  0
  3  4  1  0  0  0  0
  3 26  1  0  0  0  0
  4  5  1  0  0  0  0
  4 27  1  0  0  0  0
  4 28  1  0  0  0  0
  5  6  1  0  0  0  0
  5 29  1  0  0  0  0
  5 30  1  0  0  0  0
  6 11  1  0  0  0  0
  6  7  1  0  0  0  0
  7  8  2  0  0  0  0
  7  9  1  0  0  0  0
  9 10  1  0  0  0  0
  9 31  1  0  0  0  0
  9 32  1  0  0  0  0
 10 11  1  0  0  0  0
 10 33  1  0  0  0  0
 10 34  1  0  0  0  0
 11 12  2  0  0  0  0
 13 14  1  0  0  0  0
 13 35  1  0  0  0  0
 14 25  1  0  0  0  0
 14 15  2  0  0  0  0
 15 16  1  0  0  0  0
 15 36  1  0  0  0  0
 16 17  2  0  0  0  0
 16 37  1  0  0  0  0
 17 18  1  0  0  0  0
 17 24  1  0  0  0  0
 18 23  1  0  0  0  0
 18 19  1  0  0  0  0
 19 20  1  0  0  0  0
 19 38  1  0  0  0  0
 19 39  1  0  0  0  0
 20 21  1  0  0  0  0
 20 40  1  0  0  0  0
 20 41  1  0  0  0  0
 21 22  1  0  0  0  0
 22 23  1  0  0  0  0
 22 42  1  0  0  0  0
 22 43  1  0  0  0  0
 23 44  1  0  0  0  0
 23 45  1  0  0  0  0
 24 25  2  0  0  0  0
 25 46  1  0  0  0  0
M  END
> <s_m_source_file>
AV-unprocessed.smi

> <i_m_source_file_index>
2657

> <i_lp_mmshare_version>
43012

> <i_f3d_flags>
0

> <s_epik_input>
Tz1DMVtDSDJdW0NIMl1DKD1PKU4xW0NIMl1bQ0gyXVtOSF1DKD1PKVtOSF1jMltjSF1bY0hdYyhuW2NIXTIpTjNbQ0gyXVtDSDJdT1tDSDJdW0NIMl0z

> <s_epik_cmdline>
J2VwaWtfcHl0aG9uJywgJy1waCcsICc3LjAnLCAnLXRuJywgJzgnLCAnLW1hJywgJzIwMCcsICctbWV0YWxfYmluZGluZycsICctaW1hZScsICc8aW5maWxlLm1hZT4nLCAnLW9tYWUnLCAnPG91dGZpbGUubWFlPic=

> <r_lp_tautomer_probability>
1

> <r_epik_Ionization_Penalty>
0.00195667

> <r_epik_Ionization_Penalty_Charging>
0

> <r_epik_Ionization_Penalty_Neutral>
0.00195667

> <r_epik_State_Penalty>
0.0013118

> <r_epik_Charging_Adjusted_Penalty>
0.0013118

> <i_epik_Tot_Q>
0

> <i_epik_Tot_abs_Q>
0

> <r_epik_Metal_State_Penalty>
-0

> <b_epik_Metal_Only>
0

> <s_lp_Force_Field>
OPLS_2005

> <r_lp_Energy>
27.686

> <b_lp_Chiralities_Consistent>
1

> <s_lp_Variant>
AV-unprocessed.smi:2657-1

> <Gold.Version>
5.8.1

> <Gold.Id.Protein>
6NUR|6NUR_protein|mol2

> <Gold.PLP.Fitness>
47.3805

> <Gold.PLP.PLP>
-40.0392

> <Gold.PLP.part.hbond>
-2.8749

> <Gold.PLP.part.metal>
0.0000

> <Gold.PLP.part.buried>
-3.9707

> <Gold.PLP.part.nonpolar>
-32.6965

> <Gold.PLP.part.repulsive>
0.9204

> <Gold.PLP.ligand.clash>
0.0000

> <Gold.PLP.ligand.torsion>
0.8294

> <Gold.PLP.Chemscore.Hbond>
1.8829

> <Gold.PLP.Chemscore.CHOScore>
1.0000

> <Gold.PLP.Chemscore.Metal>
0.0000

> <Gold.Chemscore.Hbonds>
donor molecule, donor type, donor heavy atom, donor atom, acceptor molecule, acceptor atom, score
      P1  H  7989  7998       L1     8  1.00
      P1  H  7997  8008       L1    12  0.70
      P1  H 10752 10765       L1     1  0.08
      L1  C    25    46       P1  7948  1.00

> <Gold.PLP.Chemscore.Internal.Correction>
0.3515

> <Gold.Rescore>
     Score         DG    S(hbond)    S(metal)    S(lipo)     H(rot)  DE(clash)    DE(int)     intcor
     10.16     -12.27       0.98        0.00      73.32       1.97       0.11       2.00       ----

> <Gold.Chemscore.Fitness>
10.1581

> <Gold.Chemscore.DG>
-12.2663

> <Gold.Chemscore.ZeroCoef>
-5.4800

> <Gold.Chemscore.Hbond>
0.9766

> <Gold.Chemscore.Metal>
0.0000

> <Gold.Chemscore.Lipo>
73.3219

> <Gold.Chemscore.Internal_Hbond>
0.0000

> <Gold.Chemscore.DEClash>
0.1132

> <Gold.Chemscore.DEInternal>
1.9950

> <Gold.Chemscore.Rot>
1.9742

> <Gold.Chemscore.Internal.Correction>
   9.000000E+99

> <Gold.Chemscore.Hbonds>
donor molecule, donor type, donor heavy atom, donor atom, acceptor molecule, acceptor atom, score
      P1  H  7989  7998       L1     8  0.30
      P1  H  7997  8008       L1    12  0.08

> <Gold.Chemscore.Hbond.Weighted>
-3.2617

> <Gold.Chemscore.Metal.Weighted>
-0.0000

> <Gold.Chemscore.Lipo.Weighted>
-8.5787

> <Gold.Chemscore.Internal_Hbond.Weighted>
0.0000

> <Gold.Chemscore.DEClash.Weighted>
0.1132

> <Gold.Chemscore.DEInternal.Weighted>
1.9950

> <Gold.Chemscore.Rot.Weighted>
5.0540

> <Gold.Chemscore.Internal.Correction.Weighted>
   9.000000E+99

> <Gold.Protein.RotatedTorsions>
[ 6907 6896 6895 6894 ] final  155.19 input  -60.11 | X-H torsion
[ 7974 7965 7964 7962 ] final  -99.94 input  175.53 | X-H torsion
[ 8008 7997 7996 7995 ] final  -91.99 input   59.86 | X-H torsion
[ 10167 10162 10161 10158 ] final  -98.97 input  -65.29 | X-H torsion
[ 10718 10713 10712 10709 ] final -145.67 input   66.30 | X-H torsion
[ 10763 10752 10751 10750 ] final -129.59 input  -60.55 | X-H torsion
[ 11005 11000 10999 10996 ] final -132.32 input  -57.11 | X-H torsion

> <Gold.Protein.ActiveResidues>
 VAL166  LYS551  ARG553  GLY616  TRP617  ASP618  TYR619  PRO620  LYS621  CYS622 
 ASP623  PHE694  ASN695  SER759  ASP760  ASP761  ALA762  ILE779  LEU786  VAL792 
 PHE793  MET794  SER795  GLU796  ALA797  LYS798  CYS799  TRP800  GLU811  SER814 

> <Gold.Protein.RotatedAtoms>
  152.0477  133.4005  159.4363 H   0  0  0  0  0  0  0  0  0  0  0  0  # atno 6907 bound_to 6896
  150.6872  134.3343  159.4849 H   0  0  0  0  0  0  0  0  0  0  0  0  # atno 6908 bound_to 6896
  152.1149  134.9247  160.0616 H   0  0  0  0  0  0  0  0  0  0  0  0  # atno 6909 bound_to 6896
  145.3010  140.9377  143.2824 H   0  0  0  0  0  0  0  0  0  0  0  0  # atno 7974 bound_to 7965
  154.7176  140.0513  157.0609 H   0  0  0  0  0  0  0  0  0  0  0  0  # atno 8008 bound_to 7997
  155.0471  140.3175  155.4685 H   0  0  0  0  0  0  0  0  0  0  0  0  # atno 8009 bound_to 7997
  156.2807  140.2122  156.5596 H   0  0  0  0  0  0  0  0  0  0  0  0  # atno 8010 bound_to 7997
  140.2674  143.3366  152.0567 H   0  0  0  0  0  0  0  0  0  0  0  0  # atno 10167 bound_to 10162
  156.3853  130.7858  151.2054 H   0  0  0  0  0  0  0  0  0  0  0  0  # atno 10718 bound_to 10713
  154.8757  135.3890  154.3944 H   0  0  0  0  0  0  0  0  0  0  0  0  # atno 10763 bound_to 10752
  153.4676  135.7029  153.6018 H   0  0  0  0  0  0  0  0  0  0  0  0  # atno 10764 bound_to 10752
  153.4489  135.3838  155.2240 H   0  0  0  0  0  0  0  0  0  0  0  0  # atno 10765 bound_to 10752
  140.9181  134.1480  157.4336 H   0  0  0  0  0  0  0  0  0  0  0  0  # atno 11005 bound_to 11000
  144.9094  139.4548  143.6594 LP  0  0  0  0  0  0  0  0  0  0  0  0  # atno 17320 bound_to 7965
  146.3152  139.7893  142.8989 LP  0  0  0  0  0  0  0  0  0  0  0  0  # atno 17321 bound_to 7965
  139.4999  144.6679  151.6313 LP  0  0  0  0  0  0  0  0  0  0  0  0  # atno 17342 bound_to 10162
  140.5917  143.9768  150.6329 LP  0  0  0  0  0  0  0  0  0  0  0  0  # atno 17343 bound_to 10162
  157.7495  131.0332  150.4260 LP  0  0  0  0  0  0  0  0  0  0  0  0  # atno 17370 bound_to 10713
  156.4512  130.4012  149.6635 LP  0  0  0  0  0  0  0  0  0  0  0  0  # atno 17371 bound_to 10713
  139.8770  134.9961  156.5777 LP  0  0  0  0  0  0  0  0  0  0  0  0  # atno 17394 bound_to 11000
  140.8024  133.8495  155.8738 LP  0  0  0  0  0  0  0  0  0  0  0  0  # atno 17395 bound_to 11000

$$$$
