AV-unprocessed.smi:1180|AV-procd|sdf|4962|dock9
  -GOLD-   22720 3553D 1   1.00000     0.00000
 Structure written by MMmdl.
 38 39  0  0  0  0  0  0  0  0  1 V2000
  146.3157  143.2498  153.8775 C   0  0  0  0  0  0  0  0  0  0  0  0
  147.1596  141.9947  153.9258 C   0  0  0  0  0  0  0  0  0  0  0  0
  146.5289  140.8789  153.4004 N   0  0  0  0  0  0  0  0  0  0  0  0
  147.2224  139.6815  153.4031 C   0  0  0  0  0  0  0  0  0  0  0  0
  146.4592  138.5091  152.8119 C   0  0  0  0  0  0  0  0  0  0  0  0
  148.4836  139.6015  153.8985 C   0  0  0  0  0  0  0  0  0  0  0  0
  149.2891  138.3027  153.9129 C   0  0  0  0  0  0  0  0  0  0  0  0
  148.9367  137.2985  155.0142 C   0  0  0  0  0  0  0  0  0  0  0  0
  148.8655  137.6535  156.1913 O   0  0  0  0  0  0  0  0  0  0  0  0
  148.7143  136.0389  154.6112 N   0  0  0  0  0  0  0  0  0  0  0  0
  148.3490  134.9299  155.4859 C   0  0  0  0  0  0  0  0  0  0  0  0
  149.5156  134.4993  156.3960 C   0  0  2  0  0  0  0  0  0  0  0  0
  150.7535  134.0336  155.6383 C   0  0  0  0  0  0  0  0  0  0  0  0
  151.2908  132.8626  156.4685 C   0  0  0  0  0  0  0  0  0  0  0  0
  150.5012  132.8390  157.6494 O   0  0  0  0  0  0  0  0  0  0  0  0
  149.2101  133.3097  157.3047 C   0  0  0  0  0  0  0  0  0  0  0  0
  149.1102  140.8318  154.4371 C   0  0  0  0  0  0  0  0  0  0  0  0
  150.2566  140.8272  154.8838 O   0  0  0  0  0  0  0  0  0  0  0  0
  148.3597  142.0188  154.4209 N   0  0  0  0  0  0  0  0  0  0  0  0
  145.5942  140.8950  153.0187 H   0  0  0  0  0  0  0  0  0  0  0  0
  146.7712  144.0485  154.4643 H   0  0  0  0  0  0  0  0  0  0  0  0
  145.3199  143.0587  154.2789 H   0  0  0  0  0  0  0  0  0  0  0  0
  146.2151  143.5968  152.8487 H   0  0  0  0  0  0  0  0  0  0  0  0
  146.2958  137.7410  153.5681 H   0  0  0  0  0  0  0  0  0  0  0  0
  147.0173  138.0676  151.9859 H   0  0  0  0  0  0  0  0  0  0  0  0
  145.4844  138.8158  152.4304 H   0  0  0  0  0  0  0  0  0  0  0  0
  150.3460  138.5477  154.0175 H   0  0  0  0  0  0  0  0  0  0  0  0
  149.2148  137.8041  152.9455 H   0  0  0  0  0  0  0  0  0  0  0  0
  148.7954  135.8347  153.6256 H   0  0  0  0  0  0  0  0  0  0  0  0
  147.4996  135.2472  156.0916 H   0  0  0  0  0  0  0  0  0  0  0  0
  148.0024  134.0844  154.8894 H   0  0  0  0  0  0  0  0  0  0  0  0
  149.8098  135.3372  157.0304 H   0  0  0  0  0  0  0  0  0  0  0  0
  150.5113  133.6963  154.6296 H   0  0  0  0  0  0  0  0  0  0  0  0
  151.4840  134.8389  155.5516 H   0  0  0  0  0  0  0  0  0  0  0  0
  151.1606  131.9221  155.9313 H   0  0  0  0  0  0  0  0  0  0  0  0
  152.3483  132.9715  156.7098 H   0  0  0  0  0  0  0  0  0  0  0  0
  148.6363  133.5902  158.1884 H   0  0  0  0  0  0  0  0  0  0  0  0
  148.6652  132.5297  156.7703 H   0  0  0  0  0  0  0  0  0  0  0  0
  1 21  1  0  0  0  0
  1 22  1  0  0  0  0
  1 23  1  0  0  0  0
  1  2  1  0  0  0  0
  2  3  1  0  0  0  0
  2 19  2  0  0  0  0
  3  4  1  0  0  0  0
  3 20  1  0  0  0  0
  4  6  2  0  0  0  0
  4  5  1  0  0  0  0
  5 24  1  0  0  0  0
  5 25  1  0  0  0  0
  5 26  1  0  0  0  0
  6 17  1  0  0  0  0
  6  7  1  0  0  0  0
  7  8  1  0  0  0  0
  7 27  1  0  0  0  0
  7 28  1  0  0  0  0
  8  9  2  0  0  0  0
  8 10  1  0  0  0  0
 10 11  1  0  0  0  0
 10 29  1  0  0  0  0
 11 12  1  0  0  0  0
 11 30  1  0  0  0  0
 11 31  1  0  0  0  0
 12 16  1  0  0  0  0
 12 13  1  0  0  0  0
 12 32  1  0  0  0  0
 13 14  1  0  0  0  0
 13 33  1  0  0  0  0
 13 34  1  0  0  0  0
 14 15  1  0  0  0  0
 14 35  1  0  0  0  0
 14 36  1  0  0  0  0
 15 16  1  0  0  0  0
 16 37  1  0  0  0  0
 16 38  1  0  0  0  0
 17 18  2  0  0  0  0
 17 19  1  0  0  0  0
M  END
> <s_m_source_file>
AV-unprocessed.smi

> <i_m_source_file_index>
1180

> <i_lp_mmshare_version>
43012

> <i_f3d_flags>
0

> <s_epik_input>
W0NIM11jMW5jKFtDSDNdKWMoYyg9TylbbkhdMSlbQ0gyXUMoPU8pW05IXVtDSDJdW0NAQEhdMltDSDJdW0NIMl1PW0NIMl0y

> <s_epik_cmdline>
J2VwaWtfcHl0aG9uJywgJy1waCcsICc3LjAnLCAnLXRuJywgJzgnLCAnLW1hJywgJzIwMCcsICctbWV0YWxfYmluZGluZycsICctaW1hZScsICc8aW5maWxlLm1hZT4nLCAnLW9tYWUnLCAnPG91dGZpbGUubWFlPic=

> <r_lp_tautomer_probability>
0.156392

> <r_epik_Ionization_Penalty>
0.014237

> <r_epik_Ionization_Penalty_Charging>
0.0141173

> <r_epik_Ionization_Penalty_Neutral>
0.000119724

> <r_epik_State_Penalty>
1.52876

> <r_epik_Charging_Adjusted_Penalty>
1.54288

> <i_epik_Tot_Q>
0

> <i_epik_Tot_abs_Q>
0

> <r_epik_Metal_State_Penalty>
1.70686

> <b_epik_Metal_Only>
0

> <s_lp_Force_Field>
OPLS_2005

> <r_lp_Energy>
24.076

> <b_lp_Chiralities_Consistent>
1

> <s_lp_Variant>
AV-unprocessed.smi:1180-3

> <Gold.Version>
5.8.1

> <Gold.Id.Protein>
6NUR|6NUR_protein|mol2

> <Gold.PLP.Fitness>
37.0714

> <Gold.PLP.PLP>
-26.4971

> <Gold.PLP.part.hbond>
-4.4376

> <Gold.PLP.part.metal>
0.0000

> <Gold.PLP.part.buried>
-0.5328

> <Gold.PLP.part.nonpolar>
-21.4399

> <Gold.PLP.part.repulsive>
0.8959

> <Gold.PLP.ligand.clash>
0.0000

> <Gold.PLP.ligand.torsion>
0.3817

> <Gold.PLP.Chemscore.Hbond>
3.7771

> <Gold.PLP.Chemscore.CHOScore>
0.0000

> <Gold.PLP.Chemscore.Metal>
0.0000

> <Gold.Chemscore.Hbonds>
donor molecule, donor type, donor heavy atom, donor atom, acceptor molecule, acceptor atom, score
      L1  H     3    20       P1 10175  1.00
      L1  H    10    29       P1  7948  1.00
      P1  H  6896  6909       L1    15  1.00
      P1  H  7989  7998       L1    18  0.80

> <Gold.PLP.Chemscore.Internal.Correction>
0.0062

> <Gold.Rescore>
     Score         DG    S(hbond)    S(metal)    S(lipo)     H(rot)  DE(clash)    DE(int)     intcor
     16.62     -18.65       3.56        0.00      50.58       1.81       1.70       0.32       ----

> <Gold.Chemscore.Fitness>
16.6183

> <Gold.Chemscore.DG>
-18.6478

> <Gold.Chemscore.ZeroCoef>
-5.4800

> <Gold.Chemscore.Hbond>
3.5551

> <Gold.Chemscore.Metal>
0.0000

> <Gold.Chemscore.Lipo>
50.5841

> <Gold.Chemscore.Internal_Hbond>
0.0000

> <Gold.Chemscore.DEClash>
1.7049

> <Gold.Chemscore.DEInternal>
0.3247

> <Gold.Chemscore.Rot>
1.8065

> <Gold.Chemscore.Internal.Correction>
   9.000000E+99

> <Gold.Chemscore.Hbonds>
donor molecule, donor type, donor heavy atom, donor atom, acceptor molecule, acceptor atom, score
      L1  H     3    20       P1 10175  0.42
      L1  H    10    29       P1  7948  0.97
      P1  H  6896  6909       L1    15  0.87
      P1  H  7989  7998       L1    18  0.67

> <Gold.Chemscore.Hbond.Weighted>
-11.8741

> <Gold.Chemscore.Metal.Weighted>
-0.0000

> <Gold.Chemscore.Lipo.Weighted>
-5.9183

> <Gold.Chemscore.Internal_Hbond.Weighted>
0.0000

> <Gold.Chemscore.DEClash.Weighted>
1.7049

> <Gold.Chemscore.DEInternal.Weighted>
0.3247

> <Gold.Chemscore.Rot.Weighted>
4.6246

> <Gold.Chemscore.Internal.Correction.Weighted>
   9.000000E+99

> <Gold.Protein.RotatedTorsions>
[ 6907 6896 6895 6894 ] final  -25.78 input  -60.11 | X-H torsion
[ 7974 7965 7964 7962 ] final   29.53 input  175.53 | X-H torsion
[ 8008 7997 7996 7995 ] final -142.22 input   59.86 | X-H torsion
[ 10167 10162 10161 10158 ] final  152.80 input  -65.29 | X-H torsion
[ 10718 10713 10712 10709 ] final -114.31 input   66.30 | X-H torsion
[ 10763 10752 10751 10750 ] final   -7.38 input  -60.55 | X-H torsion
[ 11005 11000 10999 10996 ] final -154.07 input  -57.11 | X-H torsion

> <Gold.Protein.ActiveResidues>
 VAL166  LYS551  ARG553  GLY616  TRP617  ASP618  TYR619  PRO620  LYS621  CYS622 
 ASP623  PHE694  ASN695  SER759  ASP760  ASP761  ALA762  ILE779  LEU786  VAL792 
 PHE793  MET794  SER795  GLU796  ALA797  LYS798  CYS799  TRP800  GLU811  SER814 

> <Gold.Protein.RotatedAtoms>
  151.1703  135.0315  159.8748 H   0  0  0  0  0  0  0  0  0  0  0  0  # atno 6907 bound_to 6896
  152.5449  134.1178  159.8396 H   0  0  0  0  0  0  0  0  0  0  0  0  # atno 6908 bound_to 6896
  151.1283  133.5008  159.2632 H   0  0  0  0  0  0  0  0  0  0  0  0  # atno 6909 bound_to 6896
  146.1666  139.6910  142.8997 H   0  0  0  0  0  0  0  0  0  0  0  0  # atno 7974 bound_to 7965
  155.4906  140.0567  157.2954 H   0  0  0  0  0  0  0  0  0  0  0  0  # atno 8008 bound_to 7997
  154.4624  140.2003  156.0159 H   0  0  0  0  0  0  0  0  0  0  0  0  # atno 8009 bound_to 7997
  156.0915  140.3232  155.7826 H   0  0  0  0  0  0  0  0  0  0  0  0  # atno 8010 bound_to 7997
  139.4830  144.5328  151.7695 H   0  0  0  0  0  0  0  0  0  0  0  0  # atno 10167 bound_to 10162
  156.0822  130.6020  150.8758 H   0  0  0  0  0  0  0  0  0  0  0  0  # atno 10718 bound_to 10713
  153.4256  135.7011  153.6265 H   0  0  0  0  0  0  0  0  0  0  0  0  # atno 10763 bound_to 10752
  153.4701  135.3716  155.2386 H   0  0  0  0  0  0  0  0  0  0  0  0  # atno 10764 bound_to 10752
  154.8724  135.4041  154.3631 H   0  0  0  0  0  0  0  0  0  0  0  0  # atno 10765 bound_to 10752
  140.7013  134.3934  157.5209 H   0  0  0  0  0  0  0  0  0  0  0  0  # atno 11005 bound_to 11000
  145.4451  141.0425  143.2836 LP  0  0  0  0  0  0  0  0  0  0  0  0  # atno 17320 bound_to 7965
  144.8101  139.5977  143.7033 LP  0  0  0  0  0  0  0  0  0  0  0  0  # atno 17321 bound_to 7965
  140.4856  144.1386  150.5940 LP  0  0  0  0  0  0  0  0  0  0  0  0  # atno 17342 bound_to 10162
  140.4229  143.2603  151.9693 LP  0  0  0  0  0  0  0  0  0  0  0  0  # atno 17343 bound_to 10162
  157.5943  131.0943  150.9067 LP  0  0  0  0  0  0  0  0  0  0  0  0  # atno 17370 bound_to 10713
  156.9237  130.5324  149.5279 LP  0  0  0  0  0  0  0  0  0  0  0  0  # atno 17371 bound_to 10713
  139.8896  134.8826  156.2413 LP  0  0  0  0  0  0  0  0  0  0  0  0  # atno 17394 bound_to 11000
  141.0161  133.7068  156.1191 LP  0  0  0  0  0  0  0  0  0  0  0  0  # atno 17395 bound_to 11000

$$$$
