AV-unprocessed.smi:2149|AV-procd|sdf|8754|dock5
  -GOLD-   2272011533D 1   1.00000     0.00000
 Structure written by MMmdl.
 43 44  0  0  0  0  0  0  0  0  2 V2000
  144.2306  140.6113  156.6928 C   0  0  0  0  0  0  0  0  0  0  0  0
  145.9794  140.1300  156.9976 S   0  0  0  0  0  0  0  0  0  0  0  0
  146.2162  140.1600  158.4488 O   0  0  0  0  0  0  0  0  0  0  0  0
  146.2547  138.9004  156.2379 O   0  0  0  0  0  0  0  0  0  0  0  0
  146.9065  141.4172  156.2822 N   0  0  0  0  0  0  0  0  0  0  0  0
  146.9837  141.5504  154.8126 C   0  0  0  0  0  0  0  0  0  0  0  0
  148.3257  141.0332  154.2613 C   0  0  0  0  0  0  0  0  0  0  0  0
  149.5162  141.6816  154.9798 C   0  0  0  0  0  0  0  0  0  0  0  0
  149.3953  141.4343  156.4928 C   0  0  1  0  0  0  0  0  0  0  0  0
  150.5616  142.0536  157.2721 C   0  0  0  0  0  0  0  0  0  0  0  0
  151.2596  141.3592  158.0110 O   0  0  0  0  0  0  0  0  0  0  0  0
  150.7874  143.3588  157.0596 N   0  0  0  0  0  0  0  0  0  0  0  0
  151.9314  144.1111  157.5659 C   0  0  0  0  0  0  0  0  0  0  0  0
  151.6794  144.7209  158.9623 C   0  0  0  0  0  0  0  0  0  0  0  0
  152.2373  143.8865  160.1044 C   0  0  0  0  0  0  0  0  0  0  0  0
  152.9147  142.6678  159.8800 C   0  0  0  0  0  0  0  0  0  0  0  0
  153.4433  141.9585  160.9782 C   0  0  0  0  0  0  0  0  0  0  0  0
  153.2758  142.4776  162.2784 C   0  0  0  0  0  0  0  0  0  0  0  0
  152.5818  143.6933  162.4470 C   0  0  0  0  0  0  0  0  0  0  0  0
  152.0938  144.3458  161.3685 N   0  3  0  0  0  0  0  0  0  0  0  0
  148.0526  141.9905  157.0127 C   0  0  0  0  0  0  0  0  0  0  0  0
  143.5740  139.8660  157.1411 H   0  0  0  0  0  0  0  0  0  0  0  0
  144.0365  140.6533  155.6228 H   0  0  0  0  0  0  0  0  0  0  0  0
  144.0276  141.5790  157.1486 H   0  0  0  0  0  0  0  0  0  0  0  0
  146.1523  141.0282  154.3398 H   0  0  0  0  0  0  0  0  0  0  0  0
  146.8689  142.6048  154.5586 H   0  0  0  0  0  0  0  0  0  0  0  0
  148.3808  139.9503  154.3670 H   0  0  0  0  0  0  0  0  0  0  0  0
  148.3854  141.2361  153.1917 H   0  0  0  0  0  0  0  0  0  0  0  0
  150.4503  141.2677  154.5973 H   0  0  0  0  0  0  0  0  0  0  0  0
  149.5344  142.7514  154.7658 H   0  0  0  0  0  0  0  0  0  0  0  0
  149.4181  140.3573  156.6583 H   0  0  0  0  0  0  0  0  0  0  0  0
  150.1526  143.8532  156.4494 H   0  0  0  0  0  0  0  0  0  0  0  0
  152.7662  143.4127  157.6257 H   0  0  0  0  0  0  0  0  0  0  0  0
  152.2275  144.8844  156.8554 H   0  0  0  0  0  0  0  0  0  0  0  0
  152.1031  145.7249  159.0099 H   0  0  0  0  0  0  0  0  0  0  0  0
  150.6064  144.8429  159.1155 H   0  0  0  0  0  0  0  0  0  0  0  0
  153.0433  142.2875  158.8768 H   0  0  0  0  0  0  0  0  0  0  0  0
  153.9746  141.0305  160.8241 H   0  0  0  0  0  0  0  0  0  0  0  0
  153.6749  141.9506  163.1329 H   0  0  0  0  0  0  0  0  0  0  0  0
  152.4078  144.1622  163.4044 H   0  0  0  0  0  0  0  0  0  0  0  0
  148.0229  143.0748  156.8941 H   0  0  0  0  0  0  0  0  0  0  0  0
  147.9455  141.7984  158.0793 H   0  0  0  0  0  0  0  0  0  0  0  0
  151.6016  145.2274  161.5143 H   0  0  0  0  0  0  0  0  0  0  0  0
  1  2  1  0  0  0  0
  1 22  1  0  0  0  0
  1 23  1  0  0  0  0
  1 24  1  0  0  0  0
  2  3  2  0  0  0  0
  2  4  2  0  0  0  0
  2  5  1  0  0  0  0
  5 21  1  0  0  0  0
  5  6  1  0  0  0  0
  6  7  1  0  0  0  0
  6 25  1  0  0  0  0
  6 26  1  0  0  0  0
  7  8  1  0  0  0  0
  7 27  1  0  0  0  0
  7 28  1  0  0  0  0
  8  9  1  0  0  0  0
  8 29  1  0  0  0  0
  8 30  1  0  0  0  0
  9 10  1  0  0  0  0
  9 21  1  0  0  0  0
  9 31  1  0  0  0  0
 10 11  2  0  0  0  0
 10 12  1  0  0  0  0
 12 13  1  0  0  0  0
 12 32  1  0  0  0  0
 13 14  1  0  0  0  0
 13 33  1  0  0  0  0
 13 34  1  0  0  0  0
 14 15  1  0  0  0  0
 14 35  1  0  0  0  0
 14 36  1  0  0  0  0
 15 20  1  0  0  0  0
 15 16  2  0  0  0  0
 16 17  1  0  0  0  0
 16 37  1  0  0  0  0
 17 18  2  0  0  0  0
 17 38  1  0  0  0  0
 18 19  1  0  0  0  0
 18 39  1  0  0  0  0
 19 20  2  0  0  0  0
 19 40  1  0  0  0  0
 20 43  1  0  0  0  0
 21 41  1  0  0  0  0
 21 42  1  0  0  0  0
M  CHG  1  20   1
M  END
> <s_m_source_file>
AV-unprocessed.smi

> <i_m_source_file_index>
2149

> <i_lp_mmshare_version>
43012

> <i_f3d_flags>
0

> <s_epik_input>
W0NIM11TKD1PKSg9TylOMVtDSDJdW0NIMl1bQ0gyXVtDQEhdKFtDSDJdMSlDKD1PKVtOSF1bQ0gyXVtDSDJdYzJbY0hdW2NIXVtjSF1bY0hdbjI=

> <s_epik_cmdline>
J2VwaWtfcHl0aG9uJywgJy1waCcsICc3LjAnLCAnLXRuJywgJzgnLCAnLW1hJywgJzIwMCcsICctbWV0YWxfYmluZGluZycsICctaW1hZScsICc8aW5maWxlLm1hZT4nLCAnLW9tYWUnLCAnPG91dGZpbGUubWFlPic=

> <r_epik_Ionization_Penalty>
1.83523

> <r_epik_Ionization_Penalty_Charging>
1.83523

> <r_epik_Ionization_Penalty_Neutral>
2.62835e-08

> <r_epik_State_Penalty>
1.95153

> <r_epik_Charging_Adjusted_Penalty>
3.78676

> <i_epik_Tot_Q>
1

> <i_epik_Tot_abs_Q>
1

> <r_epik_Metal_State_Penalty>
1.97791

> <b_epik_Metal_Only>
0

> <s_lp_Force_Field>
OPLS_2005

> <r_lp_Energy>
6.48015

> <b_lp_Chiralities_Consistent>
1

> <s_lp_Variant>
AV-unprocessed.smi:2149-3

> <Gold.Version>
5.8.1

> <Gold.Id.Protein>
6NUR|6NUR_protein|mol2

> <Gold.PLP.Fitness>
47.9625

> <Gold.PLP.PLP>
-46.0747

> <Gold.PLP.part.hbond>
-2.5921

> <Gold.PLP.part.metal>
0.0000

> <Gold.PLP.part.buried>
-3.8925

> <Gold.PLP.part.nonpolar>
-39.7208

> <Gold.PLP.part.repulsive>
0.0792

> <Gold.PLP.ligand.clash>
0.0000

> <Gold.PLP.ligand.torsion>
1.6133

> <Gold.PLP.Chemscore.Hbond>
1.0000

> <Gold.PLP.Chemscore.CHOScore>
0.0000

> <Gold.PLP.Chemscore.Metal>
0.0000

> <Gold.Chemscore.Hbonds>
donor molecule, donor type, donor heavy atom, donor atom, acceptor molecule, acceptor atom, score
      L1  H    12    32       P1  8028  1.00

> <Gold.PLP.Chemscore.Internal.Correction>
2.1145

> <Gold.Rescore>
     Score         DG    S(hbond)    S(metal)    S(lipo)     H(rot)  DE(clash)    DE(int)     intcor
     16.38     -18.17       1.00        0.00     116.06       1.65       0.09       1.69       ----

> <Gold.Chemscore.Fitness>
16.3844

> <Gold.Chemscore.DG>
-18.1653

> <Gold.Chemscore.ZeroCoef>
-5.4800

> <Gold.Chemscore.Hbond>
1.0000

> <Gold.Chemscore.Metal>
0.0000

> <Gold.Chemscore.Lipo>
116.0589

> <Gold.Chemscore.Internal_Hbond>
0.0000

> <Gold.Chemscore.DEClash>
0.0934

> <Gold.Chemscore.DEInternal>
1.6874

> <Gold.Chemscore.Rot>
1.6538

> <Gold.Chemscore.Internal.Correction>
   9.000000E+99

> <Gold.Chemscore.Hbonds>
donor molecule, donor type, donor heavy atom, donor atom, acceptor molecule, acceptor atom, score
      L1  H    12    32       P1  8028  1.00
      P1  H  6934  6946       L1     3  0.01

> <Gold.Chemscore.Hbond.Weighted>
-3.3401

> <Gold.Chemscore.Metal.Weighted>
-0.0000

> <Gold.Chemscore.Lipo.Weighted>
-13.5789

> <Gold.Chemscore.Internal_Hbond.Weighted>
0.0000

> <Gold.Chemscore.DEClash.Weighted>
0.0934

> <Gold.Chemscore.DEInternal.Weighted>
1.6874

> <Gold.Chemscore.Rot.Weighted>
4.2337

> <Gold.Chemscore.Internal.Correction.Weighted>
   9.000000E+99

> <Gold.Protein.RotatedTorsions>
[ 6907 6896 6895 6894 ] final  122.21 input  -60.11 | X-H torsion
[ 7974 7965 7964 7962 ] final -105.81 input  175.53 | X-H torsion
[ 8008 7997 7996 7995 ] final -141.48 input   59.86 | X-H torsion
[ 10167 10162 10161 10158 ] final -155.80 input  -65.29 | X-H torsion
[ 10718 10713 10712 10709 ] final   74.19 input   66.30 | X-H torsion
[ 10763 10752 10751 10750 ] final -173.67 input  -60.55 | X-H torsion
[ 11005 11000 10999 10996 ] final  134.01 input  -57.11 | X-H torsion

> <Gold.Protein.ActiveResidues>
 VAL166  LYS551  ARG553  GLY616  TRP617  ASP618  TYR619  PRO620  LYS621  CYS622 
 ASP623  PHE694  ASN695  SER759  ASP760  ASP761  ALA762  ILE779  LEU786  VAL792 
 PHE793  MET794  SER795  GLU796  ALA797  LYS798  CYS799  TRP800  GLU811  SER814 

> <Gold.Protein.RotatedAtoms>
  152.4261  133.7197  159.6525 H   0  0  0  0  0  0  0  0  0  0  0  0  # atno 6907 bound_to 6896
  150.8137  133.8364  159.3176 H   0  0  0  0  0  0  0  0  0  0  0  0  # atno 6908 bound_to 6896
  151.6067  135.1045  160.0124 H   0  0  0  0  0  0  0  0  0  0  0  0  # atno 6909 bound_to 6896
  145.2257  140.9151  143.3233 H   0  0  0  0  0  0  0  0  0  0  0  0  # atno 7974 bound_to 7965
  155.4784  140.0558  157.2970 H   0  0  0  0  0  0  0  0  0  0  0  0  # atno 8008 bound_to 7997
  154.4670  140.2023  156.0045 H   0  0  0  0  0  0  0  0  0  0  0  0  # atno 8009 bound_to 7997
  156.0991  140.3222  155.7922 H   0  0  0  0  0  0  0  0  0  0  0  0  # atno 8010 bound_to 7997
  139.6902  143.9434  152.2381 H   0  0  0  0  0  0  0  0  0  0  0  0  # atno 10167 bound_to 10162
  157.6581  130.9665  150.1176 H   0  0  0  0  0  0  0  0  0  0  0  0  # atno 10718 bound_to 10713
  154.6051  135.2858  155.0493 H   0  0  0  0  0  0  0  0  0  0  0  0  # atno 10763 bound_to 10752
  154.1743  135.6467  153.5021 H   0  0  0  0  0  0  0  0  0  0  0  0  # atno 10764 bound_to 10752
  153.0172  135.5408  154.6784 H   0  0  0  0  0  0  0  0  0  0  0  0  # atno 10765 bound_to 10752
  139.9888  134.9522  156.9806 H   0  0  0  0  0  0  0  0  0  0  0  0  # atno 11005 bound_to 11000
  144.9723  139.3867  143.6303 LP  0  0  0  0  0  0  0  0  0  0  0  0  # atno 17320 bound_to 7965
  146.3365  139.8826  142.8822 LP  0  0  0  0  0  0  0  0  0  0  0  0  # atno 17321 bound_to 7965
  139.9248  144.6778  150.8424 LP  0  0  0  0  0  0  0  0  0  0  0  0  # atno 17342 bound_to 10162
  140.7680  143.3350  151.2329 LP  0  0  0  0  0  0  0  0  0  0  0  0  # atno 17343 bound_to 10162
  156.2056  130.3663  149.8734 LP  0  0  0  0  0  0  0  0  0  0  0  0  # atno 17370 bound_to 10713
  156.6626  130.8788  151.3550 LP  0  0  0  0  0  0  0  0  0  0  0  0  # atno 17371 bound_to 10713
  140.4949  134.1155  155.7239 LP  0  0  0  0  0  0  0  0  0  0  0  0  # atno 17394 bound_to 11000
  141.1548  133.8903  157.2006 LP  0  0  0  0  0  0  0  0  0  0  0  0  # atno 17395 bound_to 11000

$$$$
