AV-unprocessed.smi:652|AV-procd|sdf|3195|dock8
  -GOLD-   22720 0123D 1   1.00000     0.00000
 Structure written by MMmdl.
 48 49  0  0  0  0  0  0  0  0  2 V2000
  152.3467  143.7950  161.2117 C   0  0  0  0  0  0  0  0  0  0  0  0
  152.6390  144.1766  159.7518 C   0  0  0  0  0  0  0  0  0  0  0  0
  151.9597  145.4972  159.3663 C   0  0  0  0  0  0  0  0  0  0  0  0
  152.1958  143.1194  158.8465 N   0  0  0  0  0  0  0  0  0  0  0  0
  150.9260  142.7144  158.6866 C   0  0  0  0  0  0  0  0  0  0  0  0
  149.9779  143.2070  159.2988 O   0  0  0  0  0  0  0  0  0  0  0  0
  150.7008  141.5755  157.6866 C   0  0  0  0  0  0  0  0  0  0  0  0
  150.7955  142.0364  156.2172 C   0  0  0  0  0  0  0  0  0  0  0  0
  150.4268  140.9664  155.2563 N   0  3  2  0  0  0  0  0  0  0  0  0
  148.9658  140.7170  155.2308 C   0  0  0  0  0  0  0  0  0  0  0  0
  148.6211  139.6326  154.1977 C   0  0  0  0  0  0  0  0  0  0  0  0
  149.3489  138.4482  154.4952 O   0  0  0  0  0  0  0  0  0  0  0  0
  150.7571  138.6462  154.4168 C   0  0  2  0  0  0  0  0  0  0  0  0
  151.4464  137.2973  154.6651 C   0  0  0  0  0  0  0  0  0  0  0  0
  150.6417  136.1883  154.1758 N   0  0  0  0  0  0  0  0  0  0  0  0
  150.5395  135.0044  154.9167 C   0  0  0  0  0  0  0  0  0  0  0  0
  150.1518  133.7707  154.3448 C   0  0  0  0  0  0  0  0  0  0  0  0
  150.0916  132.6515  155.1933 C   0  0  0  0  0  0  0  0  0  0  0  0
  150.4217  132.8478  156.5465 C   0  0  0  0  0  0  0  0  0  0  0  0
  150.7848  134.0530  157.0393 N   0  0  0  0  0  0  0  0  0  0  0  0
  150.8419  135.1177  156.2310 N   0  0  0  0  0  0  0  0  0  0  0  0
  151.1642  139.6960  155.4696 C   0  0  0  0  0  0  0  0  0  0  0  0
  152.6810  144.5772  161.8936 H   0  0  0  0  0  0  0  0  0  0  0  0
  152.8609  142.8754  161.4931 H   0  0  0  0  0  0  0  0  0  0  0  0
  151.2795  143.6445  161.3772 H   0  0  0  0  0  0  0  0  0  0  0  0
  153.7160  144.3128  159.6374 H   0  0  0  0  0  0  0  0  0  0  0  0
  152.3024  146.3135  160.0029 H   0  0  0  0  0  0  0  0  0  0  0  0
  150.8757  145.4310  159.4657 H   0  0  0  0  0  0  0  0  0  0  0  0
  152.1847  145.7692  158.3344 H   0  0  0  0  0  0  0  0  0  0  0  0
  152.9130  142.6569  158.3070 H   0  0  0  0  0  0  0  0  0  0  0  0
  151.4424  140.7966  157.8722 H   0  0  0  0  0  0  0  0  0  0  0  0
  149.7239  141.1382  157.8930 H   0  0  0  0  0  0  0  0  0  0  0  0
  150.1718  142.9154  156.0450 H   0  0  0  0  0  0  0  0  0  0  0  0
  151.8239  142.3410  156.0142 H   0  0  0  0  0  0  0  0  0  0  0  0
  148.6303  140.4070  156.2218 H   0  0  0  0  0  0  0  0  0  0  0  0
  148.4349  141.6377  154.9856 H   0  0  0  0  0  0  0  0  0  0  0  0
  147.5547  139.4091  154.2291 H   0  0  0  0  0  0  0  0  0  0  0  0
  148.8466  139.9707  153.1849 H   0  0  0  0  0  0  0  0  0  0  0  0
  151.0250  139.0076  153.4218 H   0  0  0  0  0  0  0  0  0  0  0  0
  152.4057  137.2797  154.1466 H   0  0  0  0  0  0  0  0  0  0  0  0
  151.6493  137.1687  155.7293 H   0  0  0  0  0  0  0  0  0  0  0  0
  149.9485  136.3720  153.4645 H   0  0  0  0  0  0  0  0  0  0  0  0
  149.9052  133.6694  153.2987 H   0  0  0  0  0  0  0  0  0  0  0  0
  149.8033  131.6795  154.8218 H   0  0  0  0  0  0  0  0  0  0  0  0
  150.3943  132.0258  157.2462 H   0  0  0  0  0  0  0  0  0  0  0  0
  152.2380  139.8683  155.4034 H   0  0  0  0  0  0  0  0  0  0  0  0
  150.9614  139.3205  156.4742 H   0  0  0  0  0  0  0  0  0  0  0  0
  150.6736  141.3013  154.3357 H   0  0  0  0  0  0  0  0  0  0  0  0
  1  2  1  0  0  0  0
  1 23  1  0  0  0  0
  1 24  1  0  0  0  0
  1 25  1  0  0  0  0
  2  3  1  0  0  0  0
  2  4  1  0  0  0  0
  2 26  1  0  0  0  0
  3 27  1  0  0  0  0
  3 28  1  0  0  0  0
  3 29  1  0  0  0  0
  4  5  1  0  0  0  0
  4 30  1  0  0  0  0
  5  6  2  0  0  0  0
  5  7  1  0  0  0  0
  7  8  1  0  0  0  0
  7 31  1  0  0  0  0
  7 32  1  0  0  0  0
  8  9  1  0  0  0  0
  8 33  1  0  0  0  0
  8 34  1  0  0  0  0
  9 22  1  0  0  0  0
  9 10  1  0  0  0  0
  9 48  1  0  0  0  0
 10 11  1  0  0  0  0
 10 35  1  0  0  0  0
 10 36  1  0  0  0  0
 11 12  1  0  0  0  0
 11 37  1  0  0  0  0
 11 38  1  0  0  0  0
 12 13  1  0  0  0  0
 13 14  1  0  0  0  0
 13 22  1  0  0  0  0
 13 39  1  0  0  0  0
 14 15  1  0  0  0  0
 14 40  1  0  0  0  0
 14 41  1  0  0  0  0
 15 16  1  0  0  0  0
 15 42  1  0  0  0  0
 16 21  1  0  0  0  0
 16 17  2  0  0  0  0
 17 18  1  0  0  0  0
 17 43  1  0  0  0  0
 18 19  2  0  0  0  0
 18 44  1  0  0  0  0
 19 20  1  0  0  0  0
 19 45  1  0  0  0  0
 20 21  2  0  0  0  0
 22 46  1  0  0  0  0
 22 47  1  0  0  0  0
M  CHG  1   9   1
M  END
> <s_m_source_file>
AV-unprocessed.smi

> <i_m_source_file_index>
652

> <i_lp_mmshare_version>
43012

> <i_f3d_flags>
0

> <s_epik_input>
W0NIM11bQ0hdKFtDSDNdKVtOSF1DKD1PKVtDSDJdW0NIMl1OMVtDSDJdW0NIMl1PW0NASF0oW0NIMl0xKVtDSDJdW05IXWMyW2NIXVtjSF1bY0hdbm4y

> <s_epik_cmdline>
J2VwaWtfcHl0aG9uJywgJy1waCcsICc3LjAnLCAnLXRuJywgJzgnLCAnLW1hJywgJzIwMCcsICctbWV0YWxfYmluZGluZycsICctaW1hZScsICc8aW5maWxlLm1hZT4nLCAnLW9tYWUnLCAnPG91dGZpbGUubWFlPic=

> <r_lp_tautomer_probability>
0.999978

> <r_epik_Ionization_Penalty>
0.433079

> <r_epik_Ionization_Penalty_Charging>
0.413784

> <r_epik_Ionization_Penalty_Neutral>
0.0192945

> <r_epik_State_Penalty>
0.425138

> <r_epik_Charging_Adjusted_Penalty>
0.838922

> <i_epik_Tot_Q>
1

> <i_epik_Tot_abs_Q>
1

> <r_epik_Metal_State_Penalty>
0.422073

> <b_epik_Metal_Only>
0

> <s_lp_Force_Field>
OPLS_2005

> <r_lp_Energy>
22.402

> <b_lp_Chiralities_Consistent>
1

> <s_lp_Variant>
AV-unprocessed.smi:652-4

> <Gold.Version>
5.8.1

> <Gold.Id.Protein>
6NUR|6NUR_protein|mol2

> <Gold.PLP.Fitness>
46.1361

> <Gold.PLP.PLP>
-42.4155

> <Gold.PLP.part.hbond>
-3.7886

> <Gold.PLP.part.metal>
0.0000

> <Gold.PLP.part.buried>
-5.7531

> <Gold.PLP.part.nonpolar>
-34.3399

> <Gold.PLP.part.repulsive>
1.3114

> <Gold.PLP.ligand.clash>
0.0000

> <Gold.PLP.ligand.torsion>
0.8418

> <Gold.PLP.Chemscore.Hbond>
1.7454

> <Gold.PLP.Chemscore.CHOScore>
0.0000

> <Gold.PLP.Chemscore.Metal>
0.0000

> <Gold.Chemscore.Hbonds>
donor molecule, donor type, donor heavy atom, donor atom, acceptor molecule, acceptor atom, score
      L1  H    15    42       P1  7948  0.75
      P1  H  6896  6907       L1    20  0.33

> <Gold.PLP.Chemscore.Internal.Correction>
0.1680

> <Gold.Rescore>
     Score         DG    S(hbond)    S(metal)    S(lipo)     H(rot)  DE(clash)    DE(int)     intcor
     13.84     -15.60       1.55        0.00      91.55       2.26       0.01       1.75       ----

> <Gold.Chemscore.Fitness>
13.8450

> <Gold.Chemscore.DG>
-15.5995

> <Gold.Chemscore.ZeroCoef>
-5.4800

> <Gold.Chemscore.Hbond>
1.5547

> <Gold.Chemscore.Metal>
0.0000

> <Gold.Chemscore.Lipo>
91.5451

> <Gold.Chemscore.Internal_Hbond>
0.0000

> <Gold.Chemscore.DEClash>
0.0089

> <Gold.Chemscore.DEInternal>
1.7456

> <Gold.Chemscore.Rot>
2.2594

> <Gold.Chemscore.Internal.Correction>
   9.000000E+99

> <Gold.Chemscore.Hbonds>
donor molecule, donor type, donor heavy atom, donor atom, acceptor molecule, acceptor atom, score
      L1  H    15    42       P1  7948  0.09
      P1  H  6896  6907       L1    20  0.15

> <Gold.Chemscore.Hbond.Weighted>
-5.1928

> <Gold.Chemscore.Metal.Weighted>
-0.0000

> <Gold.Chemscore.Lipo.Weighted>
-10.7108

> <Gold.Chemscore.Internal_Hbond.Weighted>
0.0000

> <Gold.Chemscore.DEClash.Weighted>
0.0089

> <Gold.Chemscore.DEInternal.Weighted>
1.7456

> <Gold.Chemscore.Rot.Weighted>
5.7841

> <Gold.Chemscore.Internal.Correction.Weighted>
   9.000000E+99

> <Gold.Protein.RotatedTorsions>
[ 6907 6896 6895 6894 ] final -126.44 input  -60.11 | X-H torsion
[ 7974 7965 7964 7962 ] final  -22.92 input  175.53 | X-H torsion
[ 8008 7997 7996 7995 ] final  121.86 input   59.86 | X-H torsion
[ 10167 10162 10161 10158 ] final  -72.57 input  -65.29 | X-H torsion
[ 10718 10713 10712 10709 ] final   26.77 input   66.30 | X-H torsion
[ 10763 10752 10751 10750 ] final   -5.84 input  -60.55 | X-H torsion
[ 11005 11000 10999 10996 ] final -105.66 input  -57.11 | X-H torsion

> <Gold.Protein.ActiveResidues>
 VAL166  LYS551  ARG553  GLY616  TRP617  ASP618  TYR619  PRO620  LYS621  CYS622 
 ASP623  PHE694  ASN695  SER759  ASP760  ASP761  ALA762  ILE779  LEU786  VAL792 
 PHE793  MET794  SER795  GLU796  ALA797  LYS798  CYS799  TRP800  GLU811  SER814 

> <Gold.Protein.RotatedAtoms>
  150.8969  133.7169  159.2889 H   0  0  0  0  0  0  0  0  0  0  0  0  # atno 6907 bound_to 6896
  151.4701  135.1044  159.9758 H   0  0  0  0  0  0  0  0  0  0  0  0  # atno 6908 bound_to 6896
  152.4854  133.8311  159.7159 H   0  0  0  0  0  0  0  0  0  0  0  0  # atno 6909 bound_to 6896
  146.1647  140.4544  142.8557 H   0  0  0  0  0  0  0  0  0  0  0  0  # atno 7974 bound_to 7965
  156.2704  140.2799  156.1375 H   0  0  0  0  0  0  0  0  0  0  0  0  # atno 8008 bound_to 7997
  155.0989  140.0389  157.2708 H   0  0  0  0  0  0  0  0  0  0  0  0  # atno 8009 bound_to 7997
  154.6831  140.2613  155.6894 H   0  0  0  0  0  0  0  0  0  0  0  0  # atno 8010 bound_to 7997
  140.5181  143.2335  151.7477 H   0  0  0  0  0  0  0  0  0  0  0  0  # atno 10167 bound_to 10162
  157.2113  130.6935  149.6230 H   0  0  0  0  0  0  0  0  0  0  0  0  # atno 10718 bound_to 10713
  153.4041  135.7006  153.6405 H   0  0  0  0  0  0  0  0  0  0  0  0  # atno 10763 bound_to 10752
  153.4926  135.3669  155.2500 H   0  0  0  0  0  0  0  0  0  0  0  0  # atno 10764 bound_to 10752
  154.8712  135.4092  154.3381 H   0  0  0  0  0  0  0  0  0  0  0  0  # atno 10765 bound_to 10752
  141.1043  133.8826  157.1761 H   0  0  0  0  0  0  0  0  0  0  0  0  # atno 11005 bound_to 11000
  144.8076  140.6328  143.6436 LP  0  0  0  0  0  0  0  0  0  0  0  0  # atno 17320 bound_to 7965
  145.4497  139.1525  143.3925 LP  0  0  0  0  0  0  0  0  0  0  0  0  # atno 17321 bound_to 7965
  139.4915  144.4294  151.9889 LP  0  0  0  0  0  0  0  0  0  0  0  0  # atno 17342 bound_to 10162
  140.3389  144.3227  150.5971 LP  0  0  0  0  0  0  0  0  0  0  0  0  # atno 17343 bound_to 10162
  155.9690  130.4550  150.5871 LP  0  0  0  0  0  0  0  0  0  0  0  0  # atno 17370 bound_to 10713
  157.3669  131.0759  151.1590 LP  0  0  0  0  0  0  0  0  0  0  0  0  # atno 17371 bound_to 10713
  139.9906  135.0066  156.9966 LP  0  0  0  0  0  0  0  0  0  0  0  0  # atno 17394 bound_to 11000
  140.4943  134.1161  155.7238 LP  0  0  0  0  0  0  0  0  0  0  0  0  # atno 17395 bound_to 11000

$$$$
