AV-unprocessed.smi:2998|AV-procd|sdf|11416|dock1
  -GOLD-   2272016343D 1   1.00000     0.00000
 Structure written by MMmdl.
 41 43  0  0  0  0  0  0  0  0  1 V2000
  151.8066  135.8793  156.1351 O   0  0  0  0  0  0  0  0  0  0  0  0
  151.1486  136.4711  155.2782 C   0  0  0  0  0  0  0  0  0  0  0  0
  151.6223  137.8182  154.7122 C   0  0  0  0  0  0  0  0  0  0  0  0
  151.5040  138.9315  155.6720 N   0  0  0  0  0  0  0  0  0  0  0  0
  152.1366  138.7611  156.9192 C   0  0  0  0  0  0  0  0  0  0  0  0
  152.1029  139.6790  157.8320 N   0  0  0  0  0  0  0  0  0  0  0  0
  151.4188  140.8761  157.5908 C   0  0  0  0  0  0  0  0  0  0  0  0
  151.3901  141.9124  158.7060 C   0  0  0  0  0  0  0  0  0  0  0  0
  150.9887  143.3412  158.3018 C   0  0  0  0  0  0  0  0  0  0  0  0
  152.0557  143.8475  159.2789 C   0  0  0  0  0  0  0  0  0  0  0  0
  152.7538  142.4928  159.1146 C   0  0  0  0  0  0  0  0  0  0  0  0
  150.7836  141.0809  156.4125 C   0  0  0  0  0  0  0  0  0  0  0  0
  150.8099  140.0656  155.3598 C   0  0  0  0  0  0  0  0  0  0  0  0
  150.2506  140.2209  154.2740 O   0  0  0  0  0  0  0  0  0  0  0  0
  150.0029  135.9924  154.7715 N   0  0  0  0  0  0  0  0  0  0  0  0
  149.3678  134.7387  155.1683 C   0  0  0  0  0  0  0  0  0  0  0  0
  150.2369  133.5397  154.7488 C   0  0  0  0  0  0  0  0  0  0  0  0
  149.5233  132.9047  153.5555 C   0  0  0  0  0  0  0  0  0  0  0  0
  148.0444  133.1526  153.8342 C   0  0  0  0  0  0  0  0  0  0  0  0
  148.0045  134.5440  154.4703 C   0  0  0  0  0  0  0  0  0  0  0  0
  152.6494  137.6956  154.3636 H   0  0  0  0  0  0  0  0  0  0  0  0
  151.0470  138.0506  153.8139 H   0  0  0  0  0  0  0  0  0  0  0  0
  152.6490  137.8080  157.0605 H   0  0  0  0  0  0  0  0  0  0  0  0
  150.8235  141.5602  159.5699 H   0  0  0  0  0  0  0  0  0  0  0  0
  151.2271  143.5884  157.2655 H   0  0  0  0  0  0  0  0  0  0  0  0
  149.9657  143.6182  158.5582 H   0  0  0  0  0  0  0  0  0  0  0  0
  152.6301  144.7042  158.9256 H   0  0  0  0  0  0  0  0  0  0  0  0
  151.6679  144.0053  160.2867 H   0  0  0  0  0  0  0  0  0  0  0  0
  153.1707  142.0783  160.0329 H   0  0  0  0  0  0  0  0  0  0  0  0
  153.4854  142.4971  158.3044 H   0  0  0  0  0  0  0  0  0  0  0  0
  150.2506  142.0042  156.2381 H   0  0  0  0  0  0  0  0  0  0  0  0
  149.5290  136.5403  154.0679 H   0  0  0  0  0  0  0  0  0  0  0  0
  149.2446  134.7236  156.2528 H   0  0  0  0  0  0  0  0  0  0  0  0
  151.2683  133.8095  154.5168 H   0  0  0  0  0  0  0  0  0  0  0  0
  150.2722  132.8192  155.5669 H   0  0  0  0  0  0  0  0  0  0  0  0
  149.8148  133.4155  152.6369 H   0  0  0  0  0  0  0  0  0  0  0  0
  149.7585  131.8464  153.4389 H   0  0  0  0  0  0  0  0  0  0  0  0
  147.4298  133.0835  152.9360 H   0  0  0  0  0  0  0  0  0  0  0  0
  147.6776  132.4121  154.5462 H   0  0  0  0  0  0  0  0  0  0  0  0
  147.1708  134.6472  155.1654 H   0  0  0  0  0  0  0  0  0  0  0  0
  147.8611  135.2896  153.6864 H   0  0  0  0  0  0  0  0  0  0  0  0
  1  2  2  0  0  0  0
  2  3  1  0  0  0  0
  2 15  1  0  0  0  0
  3  4  1  0  0  0  0
  3 21  1  0  0  0  0
  3 22  1  0  0  0  0
  4 13  1  0  0  0  0
  4  5  1  0  0  0  0
  5  6  2  0  0  0  0
  5 23  1  0  0  0  0
  6  7  1  0  0  0  0
  7  8  1  0  0  0  0
  7 12  2  0  0  0  0
  8 11  1  0  0  0  0
  8  9  1  0  0  0  0
  8 24  1  0  0  0  0
  9 10  1  0  0  0  0
  9 25  1  0  0  0  0
  9 26  1  0  0  0  0
 10 11  1  0  0  0  0
 10 27  1  0  0  0  0
 10 28  1  0  0  0  0
 11 29  1  0  0  0  0
 11 30  1  0  0  0  0
 12 13  1  0  0  0  0
 12 31  1  0  0  0  0
 13 14  2  0  0  0  0
 15 16  1  0  0  0  0
 15 32  1  0  0  0  0
 16 20  1  0  0  0  0
 16 17  1  0  0  0  0
 16 33  1  0  0  0  0
 17 18  1  0  0  0  0
 17 34  1  0  0  0  0
 17 35  1  0  0  0  0
 18 19  1  0  0  0  0
 18 36  1  0  0  0  0
 18 37  1  0  0  0  0
 19 20  1  0  0  0  0
 19 38  1  0  0  0  0
 19 39  1  0  0  0  0
 20 40  1  0  0  0  0
 20 41  1  0  0  0  0
M  END
> <s_m_source_file>
AV-unprocessed.smi

> <i_m_source_file_index>
2998

> <i_lp_mmshare_version>
43012

> <i_f3d_flags>
0

> <s_epik_input>
W0NIMl0xW0NIMl1bQ0gyXVtDSDJdW0NIXTFbTkhdQyg9TylbQ0gyXW4yW2NIXW5jKFtjSF1jMj1PKVtDSF0zW0NIMl1bQ0gyXVtDSDJdMw==

> <s_epik_cmdline>
J2VwaWtfcHl0aG9uJywgJy1waCcsICc3LjAnLCAnLXRuJywgJzgnLCAnLW1hJywgJzIwMCcsICctbWV0YWxfYmluZGluZycsICctaW1hZScsICc8aW5maWxlLm1hZT4nLCAnLW9tYWUnLCAnPG91dGZpbGUubWFlPic=

> <r_lp_tautomer_probability>
1

> <r_epik_Ionization_Penalty>
7.51496e-06

> <r_epik_Ionization_Penalty_Charging>
8.69507e-09

> <r_epik_Ionization_Penalty_Neutral>
7.50627e-06

> <r_epik_State_Penalty>
-0

> <r_epik_Charging_Adjusted_Penalty>
8.69507e-09

> <i_epik_Tot_Q>
0

> <i_epik_Tot_abs_Q>
0

> <r_epik_Metal_State_Penalty>
-0

> <b_epik_Metal_Only>
0

> <s_lp_Force_Field>
OPLS_2005

> <r_lp_Energy>
32.6408

> <b_lp_Chiralities_Consistent>
1

> <s_lp_Variant>
AV-unprocessed.smi:2998-1

> <Gold.Version>
5.8.1

> <Gold.Id.Protein>
6NUR|6NUR_protein|mol2

> <Gold.PLP.Fitness>
45.3328

> <Gold.PLP.PLP>
-38.6762

> <Gold.PLP.part.hbond>
-2.8538

> <Gold.PLP.part.metal>
0.0000

> <Gold.PLP.part.buried>
-2.6496

> <Gold.PLP.part.nonpolar>
-33.2864

> <Gold.PLP.part.repulsive>
0.1867

> <Gold.PLP.ligand.clash>
0.0000

> <Gold.PLP.ligand.torsion>
0.4088

> <Gold.PLP.Chemscore.Hbond>
2.3656

> <Gold.PLP.Chemscore.CHOScore>
0.0000

> <Gold.PLP.Chemscore.Metal>
0.0000

> <Gold.Chemscore.Hbonds>
donor molecule, donor type, donor heavy atom, donor atom, acceptor molecule, acceptor atom, score
      L1  H    15    32       P1  7948  0.27
      P1  H  7989  7998       L1    14  0.80
      P1  H 10752 10763       L1     1  1.00

> <Gold.PLP.Chemscore.Internal.Correction>
0.3775

> <Gold.Rescore>
     Score         DG    S(hbond)    S(metal)    S(lipo)     H(rot)  DE(clash)    DE(int)     intcor
     16.07     -16.75       1.65        0.00      84.90       1.63       0.12       0.56       ----

> <Gold.Chemscore.Fitness>
16.0679

> <Gold.Chemscore.DG>
-16.7461

> <Gold.Chemscore.ZeroCoef>
-5.4800

> <Gold.Chemscore.Hbond>
1.6474

> <Gold.Chemscore.Metal>
0.0000

> <Gold.Chemscore.Lipo>
84.9042

> <Gold.Chemscore.Internal_Hbond>
0.0000

> <Gold.Chemscore.DEClash>
0.1180

> <Gold.Chemscore.DEInternal>
0.5602

> <Gold.Chemscore.Rot>
1.6290

> <Gold.Chemscore.Internal.Correction>
   9.000000E+99

> <Gold.Chemscore.Hbonds>
donor molecule, donor type, donor heavy atom, donor atom, acceptor molecule, acceptor atom, score
      L1  H    15    32       P1  7948  0.23
      P1  H  7989  7998       L1    14  0.11
      P1  H 10752 10763       L1     1  0.26

> <Gold.Chemscore.Hbond.Weighted>
-5.5024

> <Gold.Chemscore.Metal.Weighted>
-0.0000

> <Gold.Chemscore.Lipo.Weighted>
-9.9338

> <Gold.Chemscore.Internal_Hbond.Weighted>
0.0000

> <Gold.Chemscore.DEClash.Weighted>
0.1180

> <Gold.Chemscore.DEInternal.Weighted>
0.5602

> <Gold.Chemscore.Rot.Weighted>
4.1702

> <Gold.Chemscore.Internal.Correction.Weighted>
   9.000000E+99

> <Gold.Protein.RotatedTorsions>
[ 6907 6896 6895 6894 ] final  137.38 input  -60.11 | X-H torsion
[ 7974 7965 7964 7962 ] final   28.41 input  175.53 | X-H torsion
[ 8008 7997 7996 7995 ] final  174.47 input   59.86 | X-H torsion
[ 10167 10162 10161 10158 ] final  -35.59 input  -65.29 | X-H torsion
[ 10718 10713 10712 10709 ] final   79.50 input   66.30 | X-H torsion
[ 10763 10752 10751 10750 ] final  100.13 input  -60.55 | X-H torsion
[ 11005 11000 10999 10996 ] final -178.63 input  -57.11 | X-H torsion

> <Gold.Protein.ActiveResidues>
 VAL166  LYS551  ARG553  GLY616  TRP617  ASP618  TYR619  PRO620  LYS621  CYS622 
 ASP623  PHE694  ASN695  SER759  ASP760  ASP761  ALA762  ILE779  LEU786  VAL792 
 PHE793  MET794  SER795  GLU796  ALA797  LYS798  CYS799  TRP800  GLU811  SER814 

> <Gold.Protein.RotatedAtoms>
  152.2787  133.5450  159.5483 H   0  0  0  0  0  0  0  0  0  0  0  0  # atno 6907 bound_to 6896
  150.7187  134.0595  159.3835 H   0  0  0  0  0  0  0  0  0  0  0  0  # atno 6908 bound_to 6896
  151.8507  135.0559  160.0509 H   0  0  0  0  0  0  0  0  0  0  0  0  # atno 6909 bound_to 6896
  146.1730  139.7060  142.8954 H   0  0  0  0  0  0  0  0  0  0  0  0  # atno 7974 bound_to 7965
  156.0971  140.1433  156.9517 H   0  0  0  0  0  0  0  0  0  0  0  0  # atno 8008 bound_to 7997
  154.4678  140.0920  156.7112 H   0  0  0  0  0  0  0  0  0  0  0  0  # atno 8009 bound_to 7997
  155.4823  140.3445  155.4344 H   0  0  0  0  0  0  0  0  0  0  0  0  # atno 8010 bound_to 7997
  140.7161  143.3466  151.2243 H   0  0  0  0  0  0  0  0  0  0  0  0  # atno 10167 bound_to 10162
  157.6778  130.9917  150.1942 H   0  0  0  0  0  0  0  0  0  0  0  0  # atno 10718 bound_to 10713
  153.3100  135.4089  155.1327 H   0  0  0  0  0  0  0  0  0  0  0  0  # atno 10763 bound_to 10752
  154.8573  135.3562  154.5736 H   0  0  0  0  0  0  0  0  0  0  0  0  # atno 10764 bound_to 10752
  153.6165  135.7066  153.5385 H   0  0  0  0  0  0  0  0  0  0  0  0  # atno 10765 bound_to 10752
  140.4276  134.6548  157.4695 H   0  0  0  0  0  0  0  0  0  0  0  0  # atno 11005 bound_to 11000
  145.4288  141.0413  143.2922 LP  0  0  0  0  0  0  0  0  0  0  0  0  # atno 17320 bound_to 7965
  144.8192  139.5821  143.6994 LP  0  0  0  0  0  0  0  0  0  0  0  0  # atno 17321 bound_to 7965
  139.6987  143.9569  152.2895 LP  0  0  0  0  0  0  0  0  0  0  0  0  # atno 17342 bound_to 10162
  139.9255  144.6774  150.8417 LP  0  0  0  0  0  0  0  0  0  0  0  0  # atno 17343 bound_to 10162
  156.2646  130.3715  149.8094 LP  0  0  0  0  0  0  0  0  0  0  0  0  # atno 17370 bound_to 10713
  156.5829  130.8473  151.3388 LP  0  0  0  0  0  0  0  0  0  0  0  0  # atno 17371 bound_to 10713
  140.0157  134.6623  155.9314 LP  0  0  0  0  0  0  0  0  0  0  0  0  # atno 17394 bound_to 11000
  141.1759  133.6540  156.4826 LP  0  0  0  0  0  0  0  0  0  0  0  0  # atno 17395 bound_to 11000

$$$$
