AV-unprocessed.smi:656|AV-procd|sdf|3219|dock5
  -GOLD-   22720 0153D 1   1.00000     0.00000
 Structure written by MMmdl.
 41 42  0  0  0  0  0  0  0  0  2 V2000
  146.5362  129.3913  151.5880 C   0  0  0  0  0  0  0  0  0  0  0  0
  145.8690  130.6306  152.1945 C   0  0  0  0  0  0  0  0  0  0  0  0
  146.1656  131.9068  151.3878 C   0  0  0  0  0  0  0  0  0  0  0  0
  145.4106  133.0859  151.8835 N   0  3  2  0  0  0  0  0  0  0  0  0
  145.5162  134.2444  150.9587 C   0  0  0  0  0  0  0  0  0  0  0  0
  144.6259  135.4147  151.4161 C   0  0  0  0  0  0  0  0  0  0  0  0
  144.9350  135.8450  152.8602 C   0  0  2  0  0  0  0  0  0  0  0  0
  146.2314  136.5198  152.9267 N   0  0  0  0  0  0  0  0  0  0  0  0
  146.4624  137.6991  153.5226 C   0  0  0  0  0  0  0  0  0  0  0  0
  145.5904  138.3489  154.0994 O   0  0  0  0  0  0  0  0  0  0  0  0
  147.7515  138.0609  153.4023 N   0  0  0  0  0  0  0  0  0  0  0  0
  148.3864  139.2192  153.9227 C   0  0  0  0  0  0  0  0  0  0  0  0
  147.5508  140.3447  154.0858 C   0  0  0  0  0  0  0  0  0  0  0  0
  148.1168  141.5275  154.5914 C   0  0  0  0  0  0  0  0  0  0  0  0
  149.4875  141.5038  154.9005 C   0  0  0  0  0  0  0  0  0  0  0  0
  150.2502  140.4023  154.7286 N   0  0  0  0  0  0  0  0  0  0  0  0
  149.7046  139.2802  154.2469 N   0  0  0  0  0  0  0  0  0  0  0  0
  144.8754  134.6136  153.7855 C   0  0  0  0  0  0  0  0  0  0  0  0
  145.7652  133.4659  153.2771 C   0  0  0  0  0  0  0  0  0  0  0  0
  146.3130  128.5022  152.1783 H   0  0  0  0  0  0  0  0  0  0  0  0
  147.6202  129.5043  151.5539 H   0  0  0  0  0  0  0  0  0  0  0  0
  146.1856  129.2113  150.5713 H   0  0  0  0  0  0  0  0  0  0  0  0
  144.7913  130.4690  152.2416 H   0  0  0  0  0  0  0  0  0  0  0  0
  146.2114  130.7372  153.2233 H   0  0  0  0  0  0  0  0  0  0  0  0
  147.2349  132.1243  151.3841 H   0  0  0  0  0  0  0  0  0  0  0  0
  145.8874  131.7175  150.3499 H   0  0  0  0  0  0  0  0  0  0  0  0
  146.5578  134.5625  150.8905 H   0  0  0  0  0  0  0  0  0  0  0  0
  145.2139  133.9423  149.9552 H   0  0  0  0  0  0  0  0  0  0  0  0
  144.7387  136.2603  150.7364 H   0  0  0  0  0  0  0  0  0  0  0  0
  143.5799  135.1119  151.3501 H   0  0  0  0  0  0  0  0  0  0  0  0
  144.1707  136.5591  153.1725 H   0  0  0  0  0  0  0  0  0  0  0  0
  147.0073  136.0619  152.4715 H   0  0  0  0  0  0  0  0  0  0  0  0
  148.3503  137.4337  152.8862 H   0  0  0  0  0  0  0  0  0  0  0  0
  146.5017  140.3066  153.8308 H   0  0  0  0  0  0  0  0  0  0  0  0
  147.5235  142.4181  154.7362 H   0  0  0  0  0  0  0  0  0  0  0  0
  149.9813  142.3810  155.2914 H   0  0  0  0  0  0  0  0  0  0  0  0
  145.1570  134.8810  154.8046 H   0  0  0  0  0  0  0  0  0  0  0  0
  143.8442  134.2631  153.8445 H   0  0  0  0  0  0  0  0  0  0  0  0
  145.6455  132.6139  153.9451 H   0  0  0  0  0  0  0  0  0  0  0  0
  146.8166  133.7539  153.3231 H   0  0  0  0  0  0  0  0  0  0  0  0
  144.4363  132.8194  151.8891 H   0  0  0  0  0  0  0  0  0  0  0  0
  1  2  1  0  0  0  0
  1 20  1  0  0  0  0
  1 21  1  0  0  0  0
  1 22  1  0  0  0  0
  2  3  1  0  0  0  0
  2 23  1  0  0  0  0
  2 24  1  0  0  0  0
  3  4  1  0  0  0  0
  3 25  1  0  0  0  0
  3 26  1  0  0  0  0
  4 19  1  0  0  0  0
  4  5  1  0  0  0  0
  4 41  1  0  0  0  0
  5  6  1  0  0  0  0
  5 27  1  0  0  0  0
  5 28  1  0  0  0  0
  6  7  1  0  0  0  0
  6 29  1  0  0  0  0
  6 30  1  0  0  0  0
  7  8  1  0  0  0  0
  7 18  1  0  0  0  0
  7 31  1  0  0  0  0
  8  9  1  0  0  0  0
  8 32  1  0  0  0  0
  9 10  2  0  0  0  0
  9 11  1  0  0  0  0
 11 12  1  0  0  0  0
 11 33  1  0  0  0  0
 12 17  1  0  0  0  0
 12 13  2  0  0  0  0
 13 14  1  0  0  0  0
 13 34  1  0  0  0  0
 14 15  2  0  0  0  0
 14 35  1  0  0  0  0
 15 16  1  0  0  0  0
 15 36  1  0  0  0  0
 16 17  2  0  0  0  0
 18 19  1  0  0  0  0
 18 37  1  0  0  0  0
 18 38  1  0  0  0  0
 19 39  1  0  0  0  0
 19 40  1  0  0  0  0
M  CHG  1   4   1
M  END
> <s_m_source_file>
AV-unprocessed.smi

> <i_m_source_file_index>
656

> <i_lp_mmshare_version>
43012

> <i_f3d_flags>
0

> <s_epik_input>
W0NIM11bQ0gyXVtDSDJdTjFbQ0gyXVtDSDJdW0NIXShbQ0gyXVtDSDJdMSlbTkhdQyg9TylbTkhdYzJbY0hdW2NIXVtjSF1ubjI=

> <s_epik_cmdline>
J2VwaWtfcHl0aG9uJywgJy1waCcsICc3LjAnLCAnLXRuJywgJzgnLCAnLW1hJywgJzIwMCcsICctbWV0YWxfYmluZGluZycsICctaW1hZScsICc8aW5maWxlLm1hZT4nLCAnLW9tYWUnLCAnPG91dGZpbGUubWFlPic=

> <r_lp_tautomer_probability>
1

> <r_epik_Ionization_Penalty>
0.00614766

> <r_epik_Ionization_Penalty_Charging>
0.00269617

> <r_epik_Ionization_Penalty_Neutral>
0.00345149

> <r_epik_State_Penalty>
-0

> <r_epik_Charging_Adjusted_Penalty>
0.00269617

> <i_epik_Tot_Q>
1

> <i_epik_Tot_abs_Q>
1

> <r_epik_Metal_State_Penalty>
-0

> <b_epik_Metal_Only>
0

> <s_lp_Force_Field>
OPLS_2005

> <r_lp_Energy>
22.9398

> <b_lp_Chiralities_Consistent>
1

> <s_lp_Variant>
AV-unprocessed.smi:656-2

> <Gold.Version>
5.8.1

> <Gold.Id.Protein>
6NUR|6NUR_protein|mol2

> <Gold.PLP.Fitness>
40.3019

> <Gold.PLP.PLP>
-29.3391

> <Gold.PLP.part.hbond>
-3.0000

> <Gold.PLP.part.metal>
0.0000

> <Gold.PLP.part.buried>
-2.0092

> <Gold.PLP.part.nonpolar>
-24.0290

> <Gold.PLP.part.repulsive>
1.1847

> <Gold.PLP.ligand.clash>
0.0000

> <Gold.PLP.ligand.torsion>
0.3244

> <Gold.PLP.Chemscore.Hbond>
2.8880

> <Gold.PLP.Chemscore.CHOScore>
0.9737

> <Gold.PLP.Chemscore.Metal>
0.0000

> <Gold.Chemscore.Hbonds>
donor molecule, donor type, donor heavy atom, donor atom, acceptor molecule, acceptor atom, score
      L1  H     8    32       P1  7948  0.92
      L1  H    11    33       P1  7948  1.00
      P1  H  7989  7998       L1    16  1.00
      L1  C    15    36       P1  8028  0.75

> <Gold.PLP.Chemscore.Internal.Correction>
0.0265

> <Gold.Rescore>
     Score         DG    S(hbond)    S(metal)    S(lipo)     H(rot)  DE(clash)    DE(int)     intcor
     15.33     -17.18       2.31        0.00      65.73       1.45       0.05       1.80       ----

> <Gold.Chemscore.Fitness>
15.3273

> <Gold.Chemscore.DG>
-17.1752

> <Gold.Chemscore.ZeroCoef>
-5.4800

> <Gold.Chemscore.Hbond>
2.3119

> <Gold.Chemscore.Metal>
0.0000

> <Gold.Chemscore.Lipo>
65.7255

> <Gold.Chemscore.Internal_Hbond>
0.0000

> <Gold.Chemscore.DEClash>
0.0503

> <Gold.Chemscore.DEInternal>
1.7976

> <Gold.Chemscore.Rot>
1.4518

> <Gold.Chemscore.Internal.Correction>
   9.000000E+99

> <Gold.Chemscore.Hbonds>
donor molecule, donor type, donor heavy atom, donor atom, acceptor molecule, acceptor atom, score
      L1  H     8    32       P1  7948  0.84
      L1  H    11    33       P1  7948  1.00
      P1  H  7989  7998       L1    16  0.29

> <Gold.Chemscore.Hbond.Weighted>
-7.7218

> <Gold.Chemscore.Metal.Weighted>
-0.0000

> <Gold.Chemscore.Lipo.Weighted>
-7.6899

> <Gold.Chemscore.Internal_Hbond.Weighted>
0.0000

> <Gold.Chemscore.DEClash.Weighted>
0.0503

> <Gold.Chemscore.DEInternal.Weighted>
1.7976

> <Gold.Chemscore.Rot.Weighted>
3.7165

> <Gold.Chemscore.Internal.Correction.Weighted>
   9.000000E+99

> <Gold.Protein.RotatedTorsions>
[ 6907 6896 6895 6894 ] final   -0.57 input  -60.11 | X-H torsion
[ 7974 7965 7964 7962 ] final  138.70 input  175.53 | X-H torsion
[ 8008 7997 7996 7995 ] final  144.80 input   59.86 | X-H torsion
[ 10167 10162 10161 10158 ] final  -58.27 input  -65.29 | X-H torsion
[ 10718 10713 10712 10709 ] final  146.17 input   66.30 | X-H torsion
[ 10763 10752 10751 10750 ] final -165.12 input  -60.55 | X-H torsion
[ 11005 11000 10999 10996 ] final  151.08 input  -57.11 | X-H torsion

> <Gold.Protein.ActiveResidues>
 VAL166  LYS551  ARG553  GLY616  TRP617  ASP618  TYR619  PRO620  LYS621  CYS622 
 ASP623  PHE694  ASN695  SER759  ASP760  ASP761  ALA762  ILE779  LEU786  VAL792 
 PHE793  MET794  SER795  GLU796  ALA797  LYS798  CYS799  TRP800  GLU811  SER814 

> <Gold.Protein.RotatedAtoms>
  151.5602  135.1065  159.9970 H   0  0  0  0  0  0  0  0  0  0  0  0  # atno 6907 bound_to 6896
  152.4450  133.7516  159.6707 H   0  0  0  0  0  0  0  0  0  0  0  0  # atno 6908 bound_to 6896
  150.8364  133.7939  159.3102 H   0  0  0  0  0  0  0  0  0  0  0  0  # atno 6909 bound_to 6896
  144.9347  139.5003  143.5600 H   0  0  0  0  0  0  0  0  0  0  0  0  # atno 7974 bound_to 7965
  156.2899  140.2226  156.5112 H   0  0  0  0  0  0  0  0  0  0  0  0  # atno 8008 bound_to 7997
  154.7607  140.0473  157.0993 H   0  0  0  0  0  0  0  0  0  0  0  0  # atno 8009 bound_to 7997
  154.9994  140.3100  155.4876 H   0  0  0  0  0  0  0  0  0  0  0  0  # atno 8010 bound_to 7997
  140.6207  143.2418  151.5487 H   0  0  0  0  0  0  0  0  0  0  0  0  # atno 10167 bound_to 10162
  157.3364  131.0929  151.1119 H   0  0  0  0  0  0  0  0  0  0  0  0  # atno 10718 bound_to 10713
  154.6962  135.2979  154.9407 H   0  0  0  0  0  0  0  0  0  0  0  0  # atno 10763 bound_to 10752
  154.0354  135.6664  153.4789 H   0  0  0  0  0  0  0  0  0  0  0  0  # atno 10764 bound_to 10752
  153.0648  135.5095  154.8081 H   0  0  0  0  0  0  0  0  0  0  0  0  # atno 10765 bound_to 10752
  140.1187  134.8877  157.2041 H   0  0  0  0  0  0  0  0  0  0  0  0  # atno 11005 bound_to 11000
  146.3262  139.8324  142.8906 LP  0  0  0  0  0  0  0  0  0  0  0  0  # atno 17320 bound_to 7965
  145.3085  141.0213  143.3568 LP  0  0  0  0  0  0  0  0  0  0  0  0  # atno 17321 bound_to 7965
  139.5436  144.2580  152.1400 LP  0  0  0  0  0  0  0  0  0  0  0  0  # atno 17342 bound_to 10162
  140.1800  144.4854  150.6533 LP  0  0  0  0  0  0  0  0  0  0  0  0  # atno 17343 bound_to 10162
  157.2348  130.6542  149.5864 LP  0  0  0  0  0  0  0  0  0  0  0  0  # atno 17370 bound_to 10713
  155.9702  130.4587  150.6010 LP  0  0  0  0  0  0  0  0  0  0  0  0  # atno 17371 bound_to 10713
  140.2993  134.3150  155.7294 LP  0  0  0  0  0  0  0  0  0  0  0  0  # atno 17394 bound_to 11000
  141.2147  133.7582  156.9618 LP  0  0  0  0  0  0  0  0  0  0  0  0  # atno 17395 bound_to 11000

$$$$
