AV-unprocessed.smi:2991|AV-procd|sdf|11399|dock5
  -GOLD-   2272016323D 1   1.00000     0.00000
 Structure written by MMmdl.
 38 39  0  0  0  0  0  0  0  0  2 V2000
  150.4389  141.5902  155.5473 C   0  0  0  0  0  0  0  0  0  0  0  0
  149.1725  141.1193  154.8582 C   0  0  0  0  0  0  0  0  0  0  0  0
  148.1667  142.0102  154.7141 N   0  3  0  0  0  0  0  0  0  0  0  0
  146.9924  141.7044  154.1244 C   0  0  0  0  0  0  0  0  0  0  0  0
  146.7764  140.4074  153.6199 C   0  0  0  0  0  0  0  0  0  0  0  0
  147.8048  139.4370  153.7284 C   0  0  0  0  0  0  0  0  0  0  0  0
  147.6606  138.1006  153.2616 N   0  0  0  0  0  0  0  0  0  0  0  0
  146.5323  137.3886  153.1022 C   0  0  0  0  0  0  0  0  0  0  0  0
  145.3962  137.7948  153.3465 O   0  0  0  0  0  0  0  0  0  0  0  0
  146.7952  136.1660  152.6193 N   0  0  0  0  0  0  0  0  0  0  0  0
  145.8007  135.1461  152.2865 C   0  0  2  0  0  0  0  0  0  0  0  0
  146.4390  133.7331  152.3001 C   0  0  0  0  0  0  0  0  0  0  0  0
  145.7369  132.6633  151.4379 C   0  0  0  0  0  0  0  0  0  0  0  0
  144.2283  132.4822  151.7018 C   0  0  0  0  0  0  0  0  0  0  0  0
  143.3447  133.7476  151.5859 C   0  0  0  0  0  0  0  0  0  0  0  0
  143.9044  134.8006  150.7393 N   0  0  0  0  0  0  0  0  0  0  0  0
  145.0174  135.5045  151.0088 C   0  0  0  0  0  0  0  0  0  0  0  0
  145.4148  136.3919  150.2546 O   0  0  0  0  0  0  0  0  0  0  0  0
  149.0144  139.8000  154.3713 C   0  0  0  0  0  0  0  0  0  0  0  0
  150.2941  138.6475  154.5550 Cl  0  0  0  0  0  0  0  0  0  0  0  0
  150.6310  140.9924  156.4390 H   0  0  0  0  0  0  0  0  0  0  0  0
  150.3633  142.6354  155.8499 H   0  0  0  0  0  0  0  0  0  0  0  0
  151.2932  141.4931  154.8770 H   0  0  0  0  0  0  0  0  0  0  0  0
  146.2629  142.5000  154.0794 H   0  0  0  0  0  0  0  0  0  0  0  0
  145.8222  140.1779  153.1708 H   0  0  0  0  0  0  0  0  0  0  0  0
  148.5095  137.6640  152.9321 H   0  0  0  0  0  0  0  0  0  0  0  0
  147.7585  135.9211  152.4402 H   0  0  0  0  0  0  0  0  0  0  0  0
  145.0614  135.1766  153.0880 H   0  0  0  0  0  0  0  0  0  0  0  0
  147.4727  133.8005  151.9577 H   0  0  0  0  0  0  0  0  0  0  0  0
  146.4948  133.3818  153.3313 H   0  0  0  0  0  0  0  0  0  0  0  0
  145.8926  132.8896  150.3821 H   0  0  0  0  0  0  0  0  0  0  0  0
  146.2357  131.7067  151.5963 H   0  0  0  0  0  0  0  0  0  0  0  0
  143.8588  131.7406  150.9928 H   0  0  0  0  0  0  0  0  0  0  0  0
  144.0814  132.0391  152.6874 H   0  0  0  0  0  0  0  0  0  0  0  0
  142.3668  133.4726  151.1897 H   0  0  0  0  0  0  0  0  0  0  0  0
  143.1461  134.1564  152.5772 H   0  0  0  0  0  0  0  0  0  0  0  0
  143.3984  135.0243  149.8944 H   0  0  0  0  0  0  0  0  0  0  0  0
  148.2995  142.9563  155.0721 H   0  0  0  0  0  0  0  0  0  0  0  0
  1  2  1  0  0  0  0
  1 21  1  0  0  0  0
  1 22  1  0  0  0  0
  1 23  1  0  0  0  0
  2 19  1  0  0  0  0
  2  3  2  0  0  0  0
  3  4  1  0  0  0  0
  3 38  1  0  0  0  0
  4  5  2  0  0  0  0
  4 24  1  0  0  0  0
  5  6  1  0  0  0  0
  5 25  1  0  0  0  0
  6  7  1  0  0  0  0
  6 19  2  0  0  0  0
  7  8  1  0  0  0  0
  7 26  1  0  0  0  0
  8  9  2  0  0  0  0
  8 10  1  0  0  0  0
 10 11  1  0  0  0  0
 10 27  1  0  0  0  0
 11 17  1  0  0  0  0
 11 12  1  0  0  0  0
 11 28  1  0  0  0  0
 12 13  1  0  0  0  0
 12 29  1  0  0  0  0
 12 30  1  0  0  0  0
 13 14  1  0  0  0  0
 13 31  1  0  0  0  0
 13 32  1  0  0  0  0
 14 15  1  0  0  0  0
 14 33  1  0  0  0  0
 14 34  1  0  0  0  0
 15 16  1  0  0  0  0
 15 35  1  0  0  0  0
 15 36  1  0  0  0  0
 16 17  1  0  0  0  0
 16 37  1  0  0  0  0
 17 18  2  0  0  0  0
 19 20  1  0  0  0  0
M  CHG  1   3   1
M  END
> <s_m_source_file>
AV-unprocessed.smi

> <i_m_source_file_index>
2991

> <i_lp_mmshare_version>
43012

> <i_f3d_flags>
0

> <s_epik_input>
W0NIM11jMW5bY0hdW2NIXWMoYzFDbClbTkhdQyg9TylbTkhdW0NAQEhdMltDSDJdW0NIMl1bQ0gyXVtDSDJdW05IXUMyPU8=

> <s_epik_cmdline>
J2VwaWtfcHl0aG9uJywgJy1waCcsICc3LjAnLCAnLXRuJywgJzgnLCAnLW1hJywgJzIwMCcsICctbWV0YWxfYmluZGluZycsICctaW1hZScsICc8aW5maWxlLm1hZT4nLCAnLW9tYWUnLCAnPG91dGZpbGUubWFlPic=

> <r_epik_Ionization_Penalty>
2.55031

> <r_epik_Ionization_Penalty_Charging>
2.55029

> <r_epik_Ionization_Penalty_Neutral>
1.86001e-05

> <r_epik_State_Penalty>
2.71882

> <r_epik_Charging_Adjusted_Penalty>
5.26911

> <i_epik_Tot_Q>
1

> <i_epik_Tot_abs_Q>
1

> <r_epik_Metal_State_Penalty>
2.7268

> <b_epik_Metal_Only>
0

> <s_lp_Force_Field>
OPLS_2005

> <r_lp_Energy>
25.1386

> <b_lp_Chiralities_Consistent>
1

> <s_lp_Variant>
AV-unprocessed.smi:2991-3

> <Gold.Version>
5.8.1

> <Gold.Id.Protein>
6NUR|6NUR_protein|mol2

> <Gold.PLP.Fitness>
40.0650

> <Gold.PLP.PLP>
-30.7717

> <Gold.PLP.part.hbond>
-2.7827

> <Gold.PLP.part.metal>
0.0000

> <Gold.PLP.part.buried>
-4.0933

> <Gold.PLP.part.nonpolar>
-27.5016

> <Gold.PLP.part.repulsive>
3.3209

> <Gold.PLP.ligand.clash>
0.0000

> <Gold.PLP.ligand.torsion>
0.3734

> <Gold.PLP.Chemscore.Hbond>
3.3292

> <Gold.PLP.Chemscore.CHOScore>
0.0000

> <Gold.PLP.Chemscore.Metal>
0.0000

> <Gold.Chemscore.Hbonds>
donor molecule, donor type, donor heavy atom, donor atom, acceptor molecule, acceptor atom, score
      L1  H     3    38       P1  8028  2.00
      L1  H     7    26       P1  7948  0.75
      L1  H    10    27       P1  7948  0.55

> <Gold.PLP.Chemscore.Internal.Correction>
0.0525

> <Gold.Rescore>
     Score         DG    S(hbond)    S(metal)    S(lipo)     H(rot)  DE(clash)    DE(int)     intcor
     17.20     -20.39       2.78        0.00      69.81       1.00       1.62       1.57       ----

> <Gold.Chemscore.Fitness>
17.1956

> <Gold.Chemscore.DG>
-20.3884

> <Gold.Chemscore.ZeroCoef>
-5.4800

> <Gold.Chemscore.Hbond>
2.7845

> <Gold.Chemscore.Metal>
0.0000

> <Gold.Chemscore.Lipo>
69.8137

> <Gold.Chemscore.Internal_Hbond>
0.0000

> <Gold.Chemscore.DEClash>
1.6199

> <Gold.Chemscore.DEInternal>
1.5729

> <Gold.Chemscore.Rot>
1.0000

> <Gold.Chemscore.Internal.Correction>
   9.000000E+99

> <Gold.Chemscore.Hbonds>
donor molecule, donor type, donor heavy atom, donor atom, acceptor molecule, acceptor atom, score
      L1  H     3    38       P1  8028  0.99
      L1  H     7    26       P1  7948  0.76
      L1  H    10    27       P1  7948  0.51
      L1  H    16    37       P1 10186  0.01

> <Gold.Chemscore.Hbond.Weighted>
-9.3002

> <Gold.Chemscore.Metal.Weighted>
-0.0000

> <Gold.Chemscore.Lipo.Weighted>
-8.1682

> <Gold.Chemscore.Internal_Hbond.Weighted>
0.0000

> <Gold.Chemscore.DEClash.Weighted>
1.6199

> <Gold.Chemscore.DEInternal.Weighted>
1.5729

> <Gold.Chemscore.Rot.Weighted>
2.5600

> <Gold.Chemscore.Internal.Correction.Weighted>
   9.000000E+99

> <Gold.Protein.RotatedTorsions>
[ 6907 6896 6895 6894 ] final  -39.43 input  -60.11 | X-H torsion
[ 7974 7965 7964 7962 ] final  -41.45 input  175.53 | X-H torsion
[ 8008 7997 7996 7995 ] final  -80.75 input   59.86 | X-H torsion
[ 10167 10162 10161 10158 ] final   40.22 input  -65.29 | X-H torsion
[ 10718 10713 10712 10709 ] final   61.49 input   66.30 | X-H torsion
[ 10763 10752 10751 10750 ] final -173.61 input  -60.55 | X-H torsion
[ 11005 11000 10999 10996 ] final   53.18 input  -57.11 | X-H torsion

> <Gold.Protein.ActiveResidues>
 VAL166  LYS551  ARG553  GLY616  TRP617  ASP618  TYR619  PRO620  LYS621  CYS622 
 ASP623  PHE694  ASN695  SER759  ASP760  ASP761  ALA762  ILE779  LEU786  VAL792 
 PHE793  MET794  SER795  GLU796  ALA797  LYS798  CYS799  TRP800  GLU811  SER814 

> <Gold.Protein.RotatedAtoms>
  150.9904  134.9240  159.7896 H   0  0  0  0  0  0  0  0  0  0  0  0  # atno 6907 bound_to 6896
  152.5249  134.3289  159.9185 H   0  0  0  0  0  0  0  0  0  0  0  0  # atno 6908 bound_to 6896
  151.3295  133.3965  159.2696 H   0  0  0  0  0  0  0  0  0  0  0  0  # atno 6909 bound_to 6896
  146.0210  140.6850  142.9178 H   0  0  0  0  0  0  0  0  0  0  0  0  # atno 7974 bound_to 7965
  154.5914  140.0658  156.9244 H   0  0  0  0  0  0  0  0  0  0  0  0  # atno 8008 bound_to 7997
  155.2289  140.3336  155.4287 H   0  0  0  0  0  0  0  0  0  0  0  0  # atno 8009 bound_to 7997
  156.2258  140.1818  156.7350 H   0  0  0  0  0  0  0  0  0  0  0  0  # atno 8010 bound_to 7997
  140.3763  144.2039  150.6131 H   0  0  0  0  0  0  0  0  0  0  0  0  # atno 10167 bound_to 10162
  157.5832  130.8998  149.9468 H   0  0  0  0  0  0  0  0  0  0  0  0  # atno 10718 bound_to 10713
  154.6058  135.2859  155.0486 H   0  0  0  0  0  0  0  0  0  0  0  0  # atno 10763 bound_to 10752
  154.1734  135.6469  153.5019 H   0  0  0  0  0  0  0  0  0  0  0  0  # atno 10764 bound_to 10752
  153.0175  135.5406  154.6794 H   0  0  0  0  0  0  0  0  0  0  0  0  # atno 10765 bound_to 10752
  140.0788  134.5367  155.8968 H   0  0  0  0  0  0  0  0  0  0  0  0  # atno 11005 bound_to 11000
  144.6990  140.3566  143.7172 LP  0  0  0  0  0  0  0  0  0  0  0  0  # atno 17320 bound_to 7965
  145.7193  139.1705  143.2494 LP  0  0  0  0  0  0  0  0  0  0  0  0  # atno 17321 bound_to 7965
  140.4983  143.2326  151.8717 LP  0  0  0  0  0  0  0  0  0  0  0  0  # atno 17342 bound_to 10162
  139.4799  144.5089  151.8960 LP  0  0  0  0  0  0  0  0  0  0  0  0  # atno 17343 bound_to 10162
  156.0879  130.3666  150.0452 LP  0  0  0  0  0  0  0  0  0  0  0  0  # atno 17370 bound_to 10713
  156.8588  130.9484  151.3620 LP  0  0  0  0  0  0  0  0  0  0  0  0  # atno 17371 bound_to 10713
  141.2039  133.6635  156.6091 LP  0  0  0  0  0  0  0  0  0  0  0  0  # atno 17394 bound_to 11000
  140.3517  134.7762  157.4472 LP  0  0  0  0  0  0  0  0  0  0  0  0  # atno 17395 bound_to 11000

$$$$
