AV-unprocessed.smi:362|AV-procd|sdf|2422|dock4
  -GOLD-   2262022363D 1   1.00000     0.00000
 Structure written by MMmdl.
 35 37  0  0  0  0  0  0  0  0  2 V2000
  147.0700  133.8010  153.8396 O   0  0  0  0  0  0  0  0  0  0  0  0
  147.8694  133.1611  153.1551 C   0  0  0  0  0  0  0  0  0  0  0  0
  149.3766  133.4210  153.2760 C   0  0  0  0  0  0  0  0  0  0  0  0
  149.9126  133.0289  154.5891 N   0  0  0  0  0  0  0  0  0  0  0  0
  149.9000  131.6627  154.9209 C   0  0  0  0  0  0  0  0  0  0  0  0
  150.3647  131.2146  156.1027 C   0  0  0  0  0  0  0  0  0  0  0  0
  150.8928  132.1878  157.0508 C   0  0  0  0  0  0  0  0  0  0  0  0
  151.3279  131.7957  158.1318 O   0  0  0  0  0  0  0  0  0  0  0  0
  150.8781  133.5031  156.6849 N   0  5  0  0  0  0  0  0  0  0  0  0
  150.3990  133.9448  155.4807 C   0  0  0  0  0  0  0  0  0  0  0  0
  150.3920  135.1372  155.1714 O   0  0  0  0  0  0  0  0  0  0  0  0
  147.5046  132.1993  152.2917 N   0  0  0  0  0  0  0  0  0  0  0  0
  146.1411  131.7848  151.9695 C   0  0  0  0  0  0  0  0  0  0  0  0
  146.0545  130.3875  151.3735 C   0  0  0  0  0  0  0  0  0  0  0  0
  145.1272  129.3442  151.9492 C   0  0  0  0  0  0  0  0  0  0  0  0
  146.6248  129.1941  152.1006 C   0  0  0  0  0  0  0  0  0  0  0  0
  145.3745  132.7873  151.1193 C   0  0  0  0  0  0  0  0  0  0  0  0
  144.0376  132.4375  150.5115 C   0  0  0  0  0  0  0  0  0  0  0  0
  145.2500  132.6122  149.6244 C   0  0  0  0  0  0  0  0  0  0  0  0
  149.8802  132.8746  152.4777 H   0  0  0  0  0  0  0  0  0  0  0  0
  149.5926  134.4739  153.0833 H   0  0  0  0  0  0  0  0  0  0  0  0
  149.4864  131.0096  154.1666 H   0  0  0  0  0  0  0  0  0  0  0  0
  150.3442  130.1620  156.3444 H   0  0  0  0  0  0  0  0  0  0  0  0
  148.2426  131.7337  151.7839 H   0  0  0  0  0  0  0  0  0  0  0  0
  145.6368  131.7437  152.9359 H   0  0  0  0  0  0  0  0  0  0  0  0
  146.1594  130.3680  150.2903 H   0  0  0  0  0  0  0  0  0  0  0  0
  144.5590  129.6013  152.8407 H   0  0  0  0  0  0  0  0  0  0  0  0
  144.6225  128.6817  151.2491 H   0  0  0  0  0  0  0  0  0  0  0  0
  147.1211  128.4345  151.5003 H   0  0  0  0  0  0  0  0  0  0  0  0
  147.0504  129.3593  153.0883 H   0  0  0  0  0  0  0  0  0  0  0  0
  145.4831  133.8171  151.4545 H   0  0  0  0  0  0  0  0  0  0  0  0
  143.6633  131.4259  150.6564 H   0  0  0  0  0  0  0  0  0  0  0  0
  143.2788  133.2169  150.4882 H   0  0  0  0  0  0  0  0  0  0  0  0
  145.2999  133.5082  149.0091 H   0  0  0  0  0  0  0  0  0  0  0  0
  145.6752  131.7158  149.1779 H   0  0  0  0  0  0  0  0  0  0  0  0
  1  2  2  0  0  0  0
  2  3  1  0  0  0  0
  2 12  1  0  0  0  0
  3  4  1  0  0  0  0
  3 20  1  0  0  0  0
  3 21  1  0  0  0  0
  4 10  1  0  0  0  0
  4  5  1  0  0  0  0
  5  6  2  0  0  0  0
  5 22  1  0  0  0  0
  6  7  1  0  0  0  0
  6 23  1  0  0  0  0
  7  8  2  0  0  0  0
  7  9  1  0  0  0  0
  9 10  1  0  0  0  0
 10 11  2  0  0  0  0
 12 13  1  0  0  0  0
 12 24  1  0  0  0  0
 13 14  1  0  0  0  0
 13 17  1  0  0  0  0
 13 25  1  0  0  0  0
 14 16  1  0  0  0  0
 14 15  1  0  0  0  0
 14 26  1  0  0  0  0
 15 16  1  0  0  0  0
 15 27  1  0  0  0  0
 15 28  1  0  0  0  0
 16 29  1  0  0  0  0
 16 30  1  0  0  0  0
 17 19  1  0  0  0  0
 17 18  1  0  0  0  0
 17 31  1  0  0  0  0
 18 19  1  0  0  0  0
 18 32  1  0  0  0  0
 18 33  1  0  0  0  0
 19 34  1  0  0  0  0
 19 35  1  0  0  0  0
M  CHG  1   9  -1
M  END
> <s_m_source_file>
AV-unprocessed.smi

> <i_m_source_file_index>
362

> <i_lp_mmshare_version>
43012

> <i_f3d_flags>
0

> <s_epik_input>
W0NIMl0xW0NIMl1bQ0hdMVtDSF0oW0NIXTJbQ0gyXVtDSDJdMilbTkhdQyg9TylbQ0gyXW4zW2NIXVtjSF1jKD1PKVtuSF1jMz1P

> <s_epik_cmdline>
J2VwaWtfcHl0aG9uJywgJy1waCcsICc3LjAnLCAnLXRuJywgJzgnLCAnLW1hJywgJzIwMCcsICctbWV0YWxfYmluZGluZycsICctaW1hZScsICc8aW5maWxlLm1hZT4nLCAnLW9tYWUnLCAnPG91dGZpbGUubWFlPic=

> <r_lp_tautomer_probability>
0.999537

> <r_epik_Ionization_Penalty>
3.10326

> <r_epik_Ionization_Penalty_Charging>
2.95532e-08

> <r_epik_Ionization_Penalty_Neutral>
3.10326

> <r_epik_State_Penalty>
3.10233

> <r_epik_Charging_Adjusted_Penalty>
3.10233

> <i_epik_Tot_Q>
-1

> <i_epik_Tot_abs_Q>
1

> <r_epik_Metal_State_Penalty>
0.461987

> <b_epik_Metal_Only>
1

> <s_lp_Force_Field>
OPLS_2005

> <r_lp_Energy>
32.875

> <b_lp_Chiralities_Consistent>
1

> <s_lp_Variant>
AV-unprocessed.smi:362-2

> <Gold.Version>
5.8.1

> <Gold.Id.Protein>
6NUR|6NUR_protein|mol2

> <Gold.PLP.Fitness>
43.8308

> <Gold.PLP.PLP>
-38.7358

> <Gold.PLP.part.hbond>
-2.0000

> <Gold.PLP.part.metal>
0.0000

> <Gold.PLP.part.buried>
-4.6456

> <Gold.PLP.part.nonpolar>
-31.6889

> <Gold.PLP.part.repulsive>
0.1955

> <Gold.PLP.ligand.clash>
0.0000

> <Gold.PLP.ligand.torsion>
1.5425

> <Gold.PLP.Chemscore.Hbond>
2.0000

> <Gold.PLP.Chemscore.CHOScore>
0.0000

> <Gold.PLP.Chemscore.Metal>
0.0000

> <Gold.Chemscore.Hbonds>
donor molecule, donor type, donor heavy atom, donor atom, acceptor molecule, acceptor atom, score
      L1  H    12    24       P1 10747  1.00
      P1  H  6896  6907       L1     8  1.00

> <Gold.PLP.Chemscore.Internal.Correction>
2.1799

> <Gold.Rescore>
     Score         DG    S(hbond)    S(metal)    S(lipo)     H(rot)  DE(clash)    DE(int)     intcor
     15.15     -16.55       1.95        0.00      84.78       2.09       0.08       1.32       ----

> <Gold.Chemscore.Fitness>
15.1530

> <Gold.Chemscore.DG>
-16.5541

> <Gold.Chemscore.ZeroCoef>
-5.4800

> <Gold.Chemscore.Hbond>
1.9500

> <Gold.Chemscore.Metal>
0.0000

> <Gold.Chemscore.Lipo>
84.7775

> <Gold.Chemscore.Internal_Hbond>
0.0000

> <Gold.Chemscore.DEClash>
0.0790

> <Gold.Chemscore.DEInternal>
1.3221

> <Gold.Chemscore.Rot>
2.0929

> <Gold.Chemscore.Internal.Correction>
   9.000000E+99

> <Gold.Chemscore.Hbonds>
donor molecule, donor type, donor heavy atom, donor atom, acceptor molecule, acceptor atom, score
      L1  H    12    24       P1 10747  0.98
      P1  H  6896  6907       L1     8  0.55

> <Gold.Chemscore.Hbond.Weighted>
-6.5130

> <Gold.Chemscore.Metal.Weighted>
-0.0000

> <Gold.Chemscore.Lipo.Weighted>
-9.9190

> <Gold.Chemscore.Internal_Hbond.Weighted>
0.0000

> <Gold.Chemscore.DEClash.Weighted>
0.0790

> <Gold.Chemscore.DEInternal.Weighted>
1.3221

> <Gold.Chemscore.Rot.Weighted>
5.3579

> <Gold.Chemscore.Internal.Correction.Weighted>
   9.000000E+99

> <Gold.Protein.RotatedTorsions>
[ 6907 6896 6895 6894 ] final -166.09 input  -60.11 | X-H torsion
[ 7974 7965 7964 7962 ] final  105.12 input  175.53 | X-H torsion
[ 8008 7997 7996 7995 ] final -138.77 input   59.86 | X-H torsion
[ 10167 10162 10161 10158 ] final -104.56 input  -65.29 | X-H torsion
[ 10718 10713 10712 10709 ] final  -19.02 input   66.30 | X-H torsion
[ 10763 10752 10751 10750 ] final   18.84 input  -60.55 | X-H torsion
[ 11005 11000 10999 10996 ] final   74.94 input  -57.11 | X-H torsion

> <Gold.Protein.ActiveResidues>
 VAL166  LYS551  ARG553  GLY616  TRP617  ASP618  TYR619  PRO620  LYS621  CYS622 
 ASP623  PHE694  ASN695  SER759  ASP760  ASP761  ALA762  ILE779  LEU786  VAL792 
 PHE793  MET794  SER795  GLU796  ALA797  LYS798  CYS799  TRP800  GLU811  SER814 

> <Gold.Protein.RotatedAtoms>
  151.4381  133.3651  159.2777 H   0  0  0  0  0  0  0  0  0  0  0  0  # atno 6907 bound_to 6896
  150.9177  134.8596  159.7478 H   0  0  0  0  0  0  0  0  0  0  0  0  # atno 6908 bound_to 6896
  152.4965  134.4316  159.9566 H   0  0  0  0  0  0  0  0  0  0  0  0  # atno 6909 bound_to 6896
  145.3238  139.2505  143.3697 H   0  0  0  0  0  0  0  0  0  0  0  0  # atno 7974 bound_to 7965
  155.4338  140.0527  157.3016 H   0  0  0  0  0  0  0  0  0  0  0  0  # atno 8008 bound_to 7997
  154.4848  140.2096  155.9638 H   0  0  0  0  0  0  0  0  0  0  0  0  # atno 8009 bound_to 7997
  156.1258  140.3180  155.8281 H   0  0  0  0  0  0  0  0  0  0  0  0  # atno 8010 bound_to 7997
  140.2079  143.3768  152.1075 H   0  0  0  0  0  0  0  0  0  0  0  0  # atno 10167 bound_to 10162
  156.5515  130.4703  149.6450 H   0  0  0  0  0  0  0  0  0  0  0  0  # atno 10718 bound_to 10713
  153.1213  135.6720  153.9330 H   0  0  0  0  0  0  0  0  0  0  0  0  # atno 10763 bound_to 10752
  153.8844  135.3054  155.3447 H   0  0  0  0  0  0  0  0  0  0  0  0  # atno 10764 bound_to 10752
  154.7624  135.4981  153.9570 H   0  0  0  0  0  0  0  0  0  0  0  0  # atno 10765 bound_to 10752
  139.9367  134.7476  156.1210 H   0  0  0  0  0  0  0  0  0  0  0  0  # atno 11005 bound_to 11000
  146.3072  140.3801  142.8683 LP  0  0  0  0  0  0  0  0  0  0  0  0  # atno 17320 bound_to 7965
  144.8918  140.7533  143.5922 LP  0  0  0  0  0  0  0  0  0  0  0  0  # atno 17321 bound_to 7965
  139.5191  144.7015  151.5479 LP  0  0  0  0  0  0  0  0  0  0  0  0  # atno 17342 bound_to 10162
  140.6344  143.9013  150.6634 LP  0  0  0  0  0  0  0  0  0  0  0  0  # atno 17343 bound_to 10162
  156.2880  130.7108  151.1950 LP  0  0  0  0  0  0  0  0  0  0  0  0  # atno 17370 bound_to 10713
  157.7386  131.0538  150.5281 LP  0  0  0  0  0  0  0  0  0  0  0  0  # atno 17371 bound_to 10713
  141.0983  133.6687  156.2697 LP  0  0  0  0  0  0  0  0  0  0  0  0  # atno 17394 bound_to 11000
  140.6058  134.5509  157.5525 LP  0  0  0  0  0  0  0  0  0  0  0  0  # atno 17395 bound_to 11000

$$$$
