AV-unprocessed.smi:1897|AV-procd|sdf|7685|dock1
  -GOLD-   22720 9423D 1   1.00000     0.00000
 Structure written by MMmdl.
 39 41  0  0  0  0  0  0  0  0  2 V2000
  149.9014  141.6832  156.5745 C   0  0  0  0  0  0  0  0  0  0  0  0
  149.6680  140.5102  155.6847 C   0  0  0  0  0  0  0  0  0  0  0  0
  150.5761  140.0762  154.8025 N   0  0  0  0  0  0  0  0  0  0  0  0
  150.1338  138.9681  154.0954 N   0  0  0  0  0  0  0  0  0  0  0  0
  148.8926  138.6062  154.4521 C   0  0  0  0  0  0  0  0  0  0  0  0
  148.1959  137.4878  153.9090 N   0  0  0  0  0  0  0  0  0  0  0  0
  146.9628  137.0050  154.1688 C   0  0  0  0  0  0  0  0  0  0  0  0
  146.2260  137.5422  154.9939 O   0  0  0  0  0  0  0  0  0  0  0  0
  146.5984  135.9155  153.4730 N   0  0  0  0  0  0  0  0  0  0  0  0
  145.3445  135.1898  153.6415 C   0  0  1  0  0  0  0  0  0  0  0  0
  144.1270  135.9773  153.1749 C   0  0  0  0  0  0  0  0  0  0  0  0
  143.0661  134.8896  152.9799 C   0  0  0  0  0  0  0  0  0  0  0  0
  143.7915  133.6302  152.6813 N   0  3  1  0  0  0  0  0  0  0  0  0
  143.3779  132.9827  151.4074 C   0  0  0  0  0  0  0  0  0  0  0  0
  144.4097  131.9356  150.9627 C   0  0  0  0  0  0  0  0  0  0  0  0
  145.7831  132.5781  150.6902 C   0  0  0  0  0  0  0  0  0  0  0  0
  145.9758  133.9030  151.4527 C   0  0  0  0  0  0  0  0  0  0  0  0
  145.2530  133.8883  152.8228 C   0  0  1  0  0  0  0  0  0  0  0  0
  148.1730  139.5838  155.7205 S   0  0  0  0  0  0  0  0  0  0  0  0
  150.8404  142.1771  156.3223 H   0  0  0  0  0  0  0  0  0  0  0  0
  149.9452  141.3588  157.6142 H   0  0  0  0  0  0  0  0  0  0  0  0
  149.0892  142.4019  156.4649 H   0  0  0  0  0  0  0  0  0  0  0  0
  148.6724  137.0341  153.1430 H   0  0  0  0  0  0  0  0  0  0  0  0
  147.2598  135.5384  152.8087 H   0  0  0  0  0  0  0  0  0  0  0  0
  145.2030  134.9540  154.6986 H   0  0  0  0  0  0  0  0  0  0  0  0
  143.8190  136.7446  153.8859 H   0  0  0  0  0  0  0  0  0  0  0  0
  144.3348  136.4660  152.2216 H   0  0  0  0  0  0  0  0  0  0  0  0
  142.5074  134.7427  153.9046 H   0  0  0  0  0  0  0  0  0  0  0  0
  142.3469  135.1661  152.2078 H   0  0  0  0  0  0  0  0  0  0  0  0
  142.3979  132.5245  151.5432 H   0  0  0  0  0  0  0  0  0  0  0  0
  143.2694  133.7326  150.6221 H   0  0  0  0  0  0  0  0  0  0  0  0
  144.5084  131.1813  151.7448 H   0  0  0  0  0  0  0  0  0  0  0  0
  144.0619  131.4086  150.0735 H   0  0  0  0  0  0  0  0  0  0  0  0
  146.5664  131.8709  150.9650 H   0  0  0  0  0  0  0  0  0  0  0  0
  145.9050  132.7645  149.6228 H   0  0  0  0  0  0  0  0  0  0  0  0
  147.0434  134.0911  151.5697 H   0  0  0  0  0  0  0  0  0  0  0  0
  145.5888  134.7260  150.8502 H   0  0  0  0  0  0  0  0  0  0  0  0
  145.6831  133.0754  153.4097 H   0  0  0  0  0  0  0  0  0  0  0  0
  143.5553  132.9860  153.4226 H   0  0  0  0  0  0  0  0  0  0  0  0
  1  2  1  0  0  0  0
  1 20  1  0  0  0  0
  1 21  1  0  0  0  0
  1 22  1  0  0  0  0
  2 19  1  0  0  0  0
  2  3  2  0  0  0  0
  3  4  1  0  0  0  0
  4  5  2  0  0  0  0
  5  6  1  0  0  0  0
  5 19  1  0  0  0  0
  6  7  1  0  0  0  0
  6 23  1  0  0  0  0
  7  8  2  0  0  0  0
  7  9  1  0  0  0  0
  9 10  1  0  0  0  0
  9 24  1  0  0  0  0
 10 18  1  0  0  0  0
 10 11  1  0  0  0  0
 10 25  1  0  0  0  0
 11 12  1  0  0  0  0
 11 26  1  0  0  0  0
 11 27  1  0  0  0  0
 12 13  1  0  0  0  0
 12 28  1  0  0  0  0
 12 29  1  0  0  0  0
 13 18  1  0  0  0  0
 13 14  1  0  0  0  0
 13 39  1  0  0  0  0
 14 15  1  0  0  0  0
 14 30  1  0  0  0  0
 14 31  1  0  0  0  0
 15 16  1  0  0  0  0
 15 32  1  0  0  0  0
 15 33  1  0  0  0  0
 16 17  1  0  0  0  0
 16 34  1  0  0  0  0
 16 35  1  0  0  0  0
 17 18  1  0  0  0  0
 17 36  1  0  0  0  0
 17 37  1  0  0  0  0
 18 38  1  0  0  0  0
M  CHG  1  13   1
M  END
> <s_m_source_file>
AV-unprocessed.smi

> <i_m_source_file_index>
1897

> <i_lp_mmshare_version>
43012

> <i_f3d_flags>
0

> <s_epik_input>
W0NIM11jMW5uYyhzMSlbTkhdQyg9TylbTkhdW0NASF0oW0NIMl1bQ0gyXTIpW0NAQEhdKE4yMylbQ0gyXVtDSDJdW0NIMl1bQ0gyXTM=

> <s_epik_cmdline>
J2VwaWtfcHl0aG9uJywgJy1waCcsICc3LjAnLCAnLXRuJywgJzgnLCAnLW1hJywgJzIwMCcsICctbWV0YWxfYmluZGluZycsICctaW1hZScsICc8aW5maWxlLm1hZT4nLCAnLW9tYWUnLCAnPG91dGZpbGUubWFlPic=

> <r_lp_tautomer_probability>
1

> <r_epik_Ionization_Penalty>
0.00228891

> <r_epik_Ionization_Penalty_Charging>
0.00107044

> <r_epik_Ionization_Penalty_Neutral>
0.00121847

> <r_epik_State_Penalty>
-0

> <r_epik_Charging_Adjusted_Penalty>
0.00107044

> <i_epik_Tot_Q>
1

> <i_epik_Tot_abs_Q>
1

> <r_epik_Metal_State_Penalty>
0.304057

> <b_epik_Metal_Only>
0

> <s_lp_Force_Field>
OPLS_2005

> <r_lp_Energy>
41.6574

> <b_lp_Chiralities_Consistent>
1

> <s_lp_Variant>
AV-unprocessed.smi:1897-2

> <Gold.Version>
5.8.1

> <Gold.Id.Protein>
6NUR|6NUR_protein|mol2

> <Gold.PLP.Fitness>
39.0740

> <Gold.PLP.PLP>
-25.0598

> <Gold.PLP.part.hbond>
-3.9308

> <Gold.PLP.part.metal>
0.0000

> <Gold.PLP.part.buried>
-5.7736

> <Gold.PLP.part.nonpolar>
-16.8931

> <Gold.PLP.part.repulsive>
0.3355

> <Gold.PLP.ligand.clash>
0.0000

> <Gold.PLP.ligand.torsion>
0.0583

> <Gold.PLP.Chemscore.Hbond>
4.7088

> <Gold.PLP.Chemscore.CHOScore>
0.0000

> <Gold.PLP.Chemscore.Metal>
0.0000

> <Gold.Chemscore.Hbonds>
donor molecule, donor type, donor heavy atom, donor atom, acceptor molecule, acceptor atom, score
      L1  H     6    23       P1  7948  0.99
      L1  H     9    24       P1  7948  0.71
      L1  H    13    39       P1 10957  2.00
      P1  H  7989  7998       L1     3  0.95

> <Gold.PLP.Chemscore.Internal.Correction>
0.0042

> <Gold.Rescore>
     Score         DG    S(hbond)    S(metal)    S(lipo)     H(rot)  DE(clash)    DE(int)     intcor
     18.35     -19.66       3.06        0.00      55.64       1.00       0.02       1.29       ----

> <Gold.Chemscore.Fitness>
18.3530

> <Gold.Chemscore.DG>
-19.6575

> <Gold.Chemscore.ZeroCoef>
-5.4800

> <Gold.Chemscore.Hbond>
3.0623

> <Gold.Chemscore.Metal>
0.0000

> <Gold.Chemscore.Lipo>
55.6357

> <Gold.Chemscore.Internal_Hbond>
0.0000

> <Gold.Chemscore.DEClash>
0.0181

> <Gold.Chemscore.DEInternal>
1.2864

> <Gold.Chemscore.Rot>
1.0000

> <Gold.Chemscore.Internal.Correction>
   9.000000E+99

> <Gold.Chemscore.Hbonds>
donor molecule, donor type, donor heavy atom, donor atom, acceptor molecule, acceptor atom, score
      L1  H     6    23       P1  7948  0.92
      L1  H     9    24       P1  7948  0.67
      L1  H    13    39       P1 10957  0.77
      P1  H  7989  7998       L1     3  0.22

> <Gold.Chemscore.Hbond.Weighted>
-10.2281

> <Gold.Chemscore.Metal.Weighted>
-0.0000

> <Gold.Chemscore.Lipo.Weighted>
-6.5094

> <Gold.Chemscore.Internal_Hbond.Weighted>
0.0000

> <Gold.Chemscore.DEClash.Weighted>
0.0181

> <Gold.Chemscore.DEInternal.Weighted>
1.2864

> <Gold.Chemscore.Rot.Weighted>
2.5600

> <Gold.Chemscore.Internal.Correction.Weighted>
   9.000000E+99

> <Gold.Protein.RotatedTorsions>
[ 6907 6896 6895 6894 ] final  -38.73 input  -60.11 | X-H torsion
[ 7974 7965 7964 7962 ] final  -14.12 input  175.53 | X-H torsion
[ 8008 7997 7996 7995 ] final  -67.76 input   59.86 | X-H torsion
[ 10167 10162 10161 10158 ] final  -97.49 input  -65.29 | X-H torsion
[ 10718 10713 10712 10709 ] final  -96.74 input   66.30 | X-H torsion
[ 10763 10752 10751 10750 ] final   -1.88 input  -60.55 | X-H torsion
[ 11005 11000 10999 10996 ] final   54.03 input  -57.11 | X-H torsion

> <Gold.Protein.ActiveResidues>
 VAL166  LYS551  ARG553  GLY616  TRP617  ASP618  TYR619  PRO620  LYS621  CYS622 
 ASP623  PHE694  ASN695  SER759  ASP760  ASP761  ALA762  ILE779  LEU786  VAL792 
 PHE793  MET794  SER795  GLU796  ALA797  LYS798  CYS799  TRP800  GLU811  SER814 

> <Gold.Protein.RotatedAtoms>
  150.9989  134.9306  159.7941 H   0  0  0  0  0  0  0  0  0  0  0  0  # atno 6907 bound_to 6896
  152.5272  134.3181  159.9148 H   0  0  0  0  0  0  0  0  0  0  0  0  # atno 6908 bound_to 6896
  151.3187  133.4008  159.2687 H   0  0  0  0  0  0  0  0  0  0  0  0  # atno 6909 bound_to 6896
  146.2087  140.3302  142.8398 H   0  0  0  0  0  0  0  0  0  0  0  0  # atno 7974 bound_to 7965
  154.4821  140.0886  156.7403 H   0  0  0  0  0  0  0  0  0  0  0  0  # atno 8008 bound_to 7997
  155.4442  140.3455  155.4275 H   0  0  0  0  0  0  0  0  0  0  0  0  # atno 8009 bound_to 7997
  156.1208  140.1473  156.9196 H   0  0  0  0  0  0  0  0  0  0  0  0  # atno 8010 bound_to 7997
  140.2828  143.3271  152.0424 H   0  0  0  0  0  0  0  0  0  0  0  0  # atno 10167 bound_to 10162
  156.0068  130.5164  150.6271 H   0  0  0  0  0  0  0  0  0  0  0  0  # atno 10718 bound_to 10713
  153.3507  135.6985  153.6791 H   0  0  0  0  0  0  0  0  0  0  0  0  # atno 10763 bound_to 10752
  153.5519  135.3552  155.2764 H   0  0  0  0  0  0  0  0  0  0  0  0  # atno 10764 bound_to 10752
  154.8652  135.4228  154.2741 H   0  0  0  0  0  0  0  0  0  0  0  0  # atno 10765 bound_to 10752
  140.0719  134.5458  155.9037 H   0  0  0  0  0  0  0  0  0  0  0  0  # atno 11005 bound_to 11000
  144.8857  140.7459  143.5958 LP  0  0  0  0  0  0  0  0  0  0  0  0  # atno 17320 bound_to 7965
  145.3224  139.1784  143.4581 LP  0  0  0  0  0  0  0  0  0  0  0  0  # atno 17321 bound_to 7965
  139.4958  144.6580  151.6530 LP  0  0  0  0  0  0  0  0  0  0  0  0  # atno 17342 bound_to 10162
  140.5797  143.9967  150.6261 LP  0  0  0  0  0  0  0  0  0  0  0  0  # atno 17343 bound_to 10162
  157.4076  131.0819  151.1251 LP  0  0  0  0  0  0  0  0  0  0  0  0  # atno 17370 bound_to 10713
  157.1892  130.6344  149.5698 LP  0  0  0  0  0  0  0  0  0  0  0  0  # atno 17371 bound_to 10713
  141.2015  133.6619  156.5954 LP  0  0  0  0  0  0  0  0  0  0  0  0  # atno 17394 bound_to 11000
  140.3614  134.7684  157.4536 LP  0  0  0  0  0  0  0  0  0  0  0  0  # atno 17395 bound_to 11000

$$$$
