AV-unprocessed.smi:716|AV-procd|sdf|3489|dock5
  -GOLD-   22720 0483D 1   1.00000     0.00000
 Structure written by MMmdl.
 48 50  0  0  0  0  0  0  0  0  1 V2000
  152.5875  142.8862  159.7035 C   0  0  0  0  0  0  0  0  0  0  0  0
  152.5458  141.5084  159.0392 C   0  0  0  0  0  0  0  0  0  0  0  0
  151.4088  141.4424  158.1945 O   0  0  0  0  0  0  0  0  0  0  0  0
  151.3282  140.2266  157.4613 C   0  0  1  0  0  0  0  0  0  0  0  0
  151.1858  139.0092  158.3849 C   0  0  0  0  0  0  0  0  0  0  0  0
  149.6751  139.2418  158.3118 C   0  0  2  0  0  0  0  0  0  0  0  0
  148.9212  137.9959  158.2508 N   0  0  0  0  0  0  0  0  0  0  0  0
  149.1695  136.9224  159.0143 C   0  0  0  0  0  0  0  0  0  0  0  0
  150.1267  136.8485  159.7852 O   0  0  0  0  0  0  0  0  0  0  0  0
  148.1771  135.7602  158.8903 C   0  0  0  0  0  0  0  0  0  0  0  0
  147.8538  135.1868  160.2032 N   0  0  0  0  0  0  0  0  0  0  0  0
  147.9011  133.8016  160.2301 N   0  0  0  0  0  0  0  0  0  0  0  0
  147.5888  133.1433  161.2972 C   0  0  0  0  0  0  0  0  0  0  0  0
  147.6485  131.6458  161.2291 C   0  0  0  0  0  0  0  0  0  0  0  0
  147.2003  133.8659  162.4932 C   0  0  0  0  0  0  0  0  0  0  0  0
  147.1593  135.2153  162.4668 C   0  0  0  0  0  0  0  0  0  0  0  0
  147.4931  135.9720  161.2616 C   0  0  0  0  0  0  0  0  0  0  0  0
  147.4469  137.2003  161.2031 O   0  0  0  0  0  0  0  0  0  0  0  0
  149.8984  139.9309  156.9405 C   0  0  0  0  0  0  0  0  0  0  0  0
  149.8248  139.1004  155.6515 C   0  0  0  0  0  0  0  0  0  0  0  0
  149.7862  140.0908  154.4849 C   0  0  0  0  0  0  0  0  0  0  0  0
  149.2655  141.4042  155.0774 C   0  0  0  0  0  0  0  0  0  0  0  0
  149.0150  141.1178  156.5602 C   0  0  0  0  0  0  0  0  0  0  0  0
  153.4531  142.9761  160.3601 H   0  0  0  0  0  0  0  0  0  0  0  0
  151.6932  143.0587  160.3030 H   0  0  0  0  0  0  0  0  0  0  0  0
  152.6497  143.6789  158.9575 H   0  0  0  0  0  0  0  0  0  0  0  0
  153.4537  141.3484  158.4559 H   0  0  0  0  0  0  0  0  0  0  0  0
  152.5032  140.7303  159.8025 H   0  0  0  0  0  0  0  0  0  0  0  0
  152.0995  140.1304  156.6948 H   0  0  0  0  0  0  0  0  0  0  0  0
  151.5108  138.0807  157.9115 H   0  0  0  0  0  0  0  0  0  0  0  0
  151.6134  139.1229  159.3812 H   0  0  0  0  0  0  0  0  0  0  0  0
  149.3322  139.9373  159.0817 H   0  0  0  0  0  0  0  0  0  0  0  0
  148.1228  137.9704  157.6330 H   0  0  0  0  0  0  0  0  0  0  0  0
  147.2578  136.1058  158.4129 H   0  0  0  0  0  0  0  0  0  0  0  0
  148.5936  135.0144  158.2117 H   0  0  0  0  0  0  0  0  0  0  0  0
  147.2537  131.1930  162.1388 H   0  0  0  0  0  0  0  0  0  0  0  0
  148.6766  131.3049  161.1039 H   0  0  0  0  0  0  0  0  0  0  0  0
  147.0625  131.2706  160.3892 H   0  0  0  0  0  0  0  0  0  0  0  0
  146.9485  133.3225  163.3921 H   0  0  0  0  0  0  0  0  0  0  0  0
  146.8697  135.7521  163.3580 H   0  0  0  0  0  0  0  0  0  0  0  0
  150.6559  138.4016  155.5509 H   0  0  0  0  0  0  0  0  0  0  0  0
  148.9107  138.5062  155.6276 H   0  0  0  0  0  0  0  0  0  0  0  0
  150.7882  140.2384  154.0802 H   0  0  0  0  0  0  0  0  0  0  0  0
  149.1540  139.7270  153.6741 H   0  0  0  0  0  0  0  0  0  0  0  0
  150.0207  142.1835  154.9681 H   0  0  0  0  0  0  0  0  0  0  0  0
  148.3599  141.7503  154.5783 H   0  0  0  0  0  0  0  0  0  0  0  0
  147.9659  140.8555  156.7011 H   0  0  0  0  0  0  0  0  0  0  0  0
  149.1946  142.0014  157.1723 H   0  0  0  0  0  0  0  0  0  0  0  0
  1  2  1  0  0  0  0
  1 24  1  0  0  0  0
  1 25  1  0  0  0  0
  1 26  1  0  0  0  0
  2  3  1  0  0  0  0
  2 27  1  0  0  0  0
  2 28  1  0  0  0  0
  3  4  1  0  0  0  0
  4 19  1  0  0  0  0
  4  5  1  0  0  0  0
  4 29  1  0  0  0  0
  5  6  1  0  0  0  0
  5 30  1  0  0  0  0
  5 31  1  0  0  0  0
  6  7  1  0  0  0  0
  6 19  1  0  0  0  0
  6 32  1  0  0  0  0
  7  8  1  0  0  0  0
  7 33  1  0  0  0  0
  8  9  2  0  0  0  0
  8 10  1  0  0  0  0
 10 11  1  0  0  0  0
 10 34  1  0  0  0  0
 10 35  1  0  0  0  0
 11 17  1  0  0  0  0
 11 12  1  0  0  0  0
 12 13  2  0  0  0  0
 13 14  1  0  0  0  0
 13 15  1  0  0  0  0
 14 36  1  0  0  0  0
 14 37  1  0  0  0  0
 14 38  1  0  0  0  0
 15 16  2  0  0  0  0
 15 39  1  0  0  0  0
 16 17  1  0  0  0  0
 16 40  1  0  0  0  0
 17 18  2  0  0  0  0
 19 23  1  0  0  0  0
 19 20  1  0  0  0  0
 20 21  1  0  0  0  0
 20 41  1  0  0  0  0
 20 42  1  0  0  0  0
 21 22  1  0  0  0  0
 21 43  1  0  0  0  0
 21 44  1  0  0  0  0
 22 23  1  0  0  0  0
 22 45  1  0  0  0  0
 22 46  1  0  0  0  0
 23 47  1  0  0  0  0
 23 48  1  0  0  0  0
M  END
> <s_m_source_file>
AV-unprocessed.smi

> <i_m_source_file_index>
716

> <i_lp_mmshare_version>
43012

> <i_f3d_flags>
0

> <s_epik_input>
W0NIMl0xW0NIMl1bQ0gyXVtDSDJdQzEyW0NASF0oT1tDSDJdW0NIM10pW0NIMl1bQ0BIXTJbTkhdQyg9TylbQ0gyXW4zbmMoW0NIM10pW2NIXVtjSF1jMz1P

> <s_epik_cmdline>
J2VwaWtfcHl0aG9uJywgJy1waCcsICc3LjAnLCAnLXRuJywgJzgnLCAnLW1hJywgJzIwMCcsICctbWV0YWxfYmluZGluZycsICctaW1hZScsICc8aW5maWxlLm1hZT4nLCAnLW9tYWUnLCAnPG91dGZpbGUubWFlPic=

> <r_lp_tautomer_probability>
1

> <r_epik_Ionization_Penalty>
4.75561e-08

> <r_epik_Ionization_Penalty_Charging>
2.86617e-08

> <r_epik_Ionization_Penalty_Neutral>
1.88944e-08

> <r_epik_State_Penalty>
-0

> <r_epik_Charging_Adjusted_Penalty>
2.86617e-08

> <i_epik_Tot_Q>
0

> <i_epik_Tot_abs_Q>
0

> <r_epik_Metal_State_Penalty>
-0

> <b_epik_Metal_Only>
0

> <s_lp_Force_Field>
OPLS_2005

> <r_lp_Energy>
50.6956

> <b_lp_Chiralities_Consistent>
1

> <s_lp_Variant>
AV-unprocessed.smi:716-4

> <Gold.Version>
5.8.1

> <Gold.Id.Protein>
6NUR|6NUR_protein|mol2

> <Gold.PLP.Fitness>
49.2367

> <Gold.PLP.PLP>
-41.8988

> <Gold.PLP.part.hbond>
-3.2143

> <Gold.PLP.part.metal>
0.0000

> <Gold.PLP.part.buried>
-4.4656

> <Gold.PLP.part.nonpolar>
-34.7370

> <Gold.PLP.part.repulsive>
0.1311

> <Gold.PLP.ligand.clash>
0.0000

> <Gold.PLP.ligand.torsion>
0.7475

> <Gold.PLP.Chemscore.Hbond>
2.8080

> <Gold.PLP.Chemscore.CHOScore>
0.0000

> <Gold.PLP.Chemscore.Metal>
0.0000

> <Gold.Chemscore.Hbonds>
donor molecule, donor type, donor heavy atom, donor atom, acceptor molecule, acceptor atom, score
      P1  H  6896  6907       L1     9  0.98
      P1  H  6931  6943       L1    18  0.88
      P1  H  6934  6947       L1    18  0.98

> <Gold.PLP.Chemscore.Internal.Correction>
0.4089

> <Gold.Rescore>
     Score         DG    S(hbond)    S(metal)    S(lipo)     H(rot)  DE(clash)    DE(int)     intcor
     17.79     -21.26       2.75        0.00      94.26       1.73       0.00       3.46       ----

> <Gold.Chemscore.Fitness>
17.7914

> <Gold.Chemscore.DG>
-21.2558

> <Gold.Chemscore.ZeroCoef>
-5.4800

> <Gold.Chemscore.Hbond>
2.7512

> <Gold.Chemscore.Metal>
0.0000

> <Gold.Chemscore.Lipo>
94.2564

> <Gold.Chemscore.Internal_Hbond>
0.0000

> <Gold.Chemscore.DEClash>
0.0018

> <Gold.Chemscore.DEInternal>
3.4627

> <Gold.Chemscore.Rot>
1.7348

> <Gold.Chemscore.Internal.Correction>
   9.000000E+99

> <Gold.Chemscore.Hbonds>
donor molecule, donor type, donor heavy atom, donor atom, acceptor molecule, acceptor atom, score
      P1  H  6896  6907       L1     9  0.89
      P1  H  6931  6943       L1    18  0.78
      P1  H  6934  6947       L1    18  0.93

> <Gold.Chemscore.Hbond.Weighted>
-9.1890

> <Gold.Chemscore.Metal.Weighted>
-0.0000

> <Gold.Chemscore.Lipo.Weighted>
-11.0280

> <Gold.Chemscore.Internal_Hbond.Weighted>
0.0000

> <Gold.Chemscore.DEClash.Weighted>
0.0018

> <Gold.Chemscore.DEInternal.Weighted>
3.4627

> <Gold.Chemscore.Rot.Weighted>
4.4411

> <Gold.Chemscore.Internal.Correction.Weighted>
   9.000000E+99

> <Gold.Protein.RotatedTorsions>
[ 6907 6896 6895 6894 ] final  -21.16 input  -60.11 | X-H torsion
[ 7974 7965 7964 7962 ] final  -60.37 input  175.53 | X-H torsion
[ 8008 7997 7996 7995 ] final   64.43 input   59.86 | X-H torsion
[ 10167 10162 10161 10158 ] final   36.55 input  -65.29 | X-H torsion
[ 10718 10713 10712 10709 ] final   86.60 input   66.30 | X-H torsion
[ 10763 10752 10751 10750 ] final   71.83 input  -60.55 | X-H torsion
[ 11005 11000 10999 10996 ] final  101.20 input  -57.11 | X-H torsion

> <Gold.Protein.ActiveResidues>
 VAL166  LYS551  ARG553  GLY616  TRP617  ASP618  TYR619  PRO620  LYS621  CYS622 
 ASP623  PHE694  ASN695  SER759  ASP760  ASP761  ALA762  ILE779  LEU786  VAL792 
 PHE793  MET794  SER795  GLU796  ALA797  LYS798  CYS799  TRP800  GLU811  SER814 

> <Gold.Protein.RotatedAtoms>
  151.2374  135.0576  159.9011 H   0  0  0  0  0  0  0  0  0  0  0  0  # atno 6907 bound_to 6896
  152.5397  134.0471  159.8104 H   0  0  0  0  0  0  0  0  0  0  0  0  # atno 6908 bound_to 6896
  151.0660  133.5456  159.2662 H   0  0  0  0  0  0  0  0  0  0  0  0  # atno 6909 bound_to 6896
  145.8163  140.8568  143.0156 H   0  0  0  0  0  0  0  0  0  0  0  0  # atno 7974 bound_to 7965
  155.6459  140.3497  155.4731 H   0  0  0  0  0  0  0  0  0  0  0  0  # atno 8008 bound_to 7997
  155.9888  140.1189  157.0681 H   0  0  0  0  0  0  0  0  0  0  0  0  # atno 8009 bound_to 7997
  154.4213  140.1123  156.5523 H   0  0  0  0  0  0  0  0  0  0  0  0  # atno 8010 bound_to 7997
  140.4117  144.1583  150.6140 H   0  0  0  0  0  0  0  0  0  0  0  0  # atno 10167 bound_to 10162
  157.6930  131.0222  150.2997 H   0  0  0  0  0  0  0  0  0  0  0  0  # atno 10718 bound_to 10713
  153.0422  135.5122  154.7653 H   0  0  0  0  0  0  0  0  0  0  0  0  # atno 10763 bound_to 10752
  154.6581  135.2934  154.9904 H   0  0  0  0  0  0  0  0  0  0  0  0  # atno 10764 bound_to 10752
  154.0765  135.6670  153.4884 H   0  0  0  0  0  0  0  0  0  0  0  0  # atno 10765 bound_to 10752
  139.8772  134.9173  156.4871 H   0  0  0  0  0  0  0  0  0  0  0  0  # atno 11005 bound_to 11000
  144.6752  140.0468  143.7479 LP  0  0  0  0  0  0  0  0  0  0  0  0  # atno 17320 bound_to 7965
  145.9723  139.2879  143.1091 LP  0  0  0  0  0  0  0  0  0  0  0  0  # atno 17321 bound_to 7965
  140.4631  143.2441  151.9193 LP  0  0  0  0  0  0  0  0  0  0  0  0  # atno 17342 bound_to 10162
  139.4782  144.5447  151.8475 LP  0  0  0  0  0  0  0  0  0  0  0  0  # atno 17343 bound_to 10162
  156.3515  130.3832  149.7325 LP  0  0  0  0  0  0  0  0  0  0  0  0  # atno 17370 bound_to 10713
  156.4801  130.8037  151.3051 LP  0  0  0  0  0  0  0  0  0  0  0  0  # atno 17371 bound_to 10713
  140.8685  133.8006  155.9340 LP  0  0  0  0  0  0  0  0  0  0  0  0  # atno 17394 bound_to 11000
  140.8976  134.2418  157.5059 LP  0  0  0  0  0  0  0  0  0  0  0  0  # atno 17395 bound_to 11000

$$$$
