AV-unprocessed.smi:561|AV-procd|sdf|2939|dock1
  -GOLD-   2262023433D 1   1.00000     0.00000
 Structure written by MMmdl.
 36 37  0  0  0  0  0  0  0  0  1 V2000
  152.0540  137.4765  160.0192 C   0  0  0  0  0  0  0  0  0  0  0  0
  151.9193  138.2139  158.6788 C   0  0  1  0  0  0  0  0  0  0  0  0
  150.6218  137.8242  157.9454 C   0  0  0  0  0  0  0  0  0  0  0  0
  150.8677  137.4210  156.5728 N   0  0  0  0  0  0  0  0  0  0  0  0
  150.8548  138.2327  155.4464 C   0  0  0  0  0  0  0  0  0  0  0  0
  151.1277  137.4172  154.3715 C   0  0  0  0  0  0  0  0  0  0  0  0
  151.3128  136.1081  154.8105 N   0  0  0  0  0  0  0  0  0  0  0  0
  151.1454  136.1888  156.1240 C   0  0  0  0  0  0  0  0  0  0  0  0
  151.9483  139.6577  158.8991 N   0  0  0  0  0  0  0  0  0  0  0  0
  152.1428  140.5963  157.9552 C   0  0  0  0  0  0  0  0  0  0  0  0
  152.3899  140.3270  156.7795 O   0  0  0  0  0  0  0  0  0  0  0  0
  152.0290  142.0060  158.4150 C   0  0  0  0  0  0  0  0  0  0  0  0
  152.2806  142.3056  159.6510 N   0  0  0  0  0  0  0  0  0  0  0  0
  152.1694  143.5927  160.1341 N   0  0  0  0  0  0  0  0  0  0  0  0
  152.2144  143.6746  161.5937 C   0  0  0  0  0  0  0  0  0  0  0  0
  152.0470  144.6977  159.3539 C   0  0  0  0  0  0  0  0  0  0  0  0
  151.9204  145.8416  159.7904 O   0  0  0  0  0  0  0  0  0  0  0  0
  152.1030  144.4717  157.8400 C   0  0  0  0  0  0  0  0  0  0  0  0
  151.5855  143.0764  157.4390 C   0  0  0  0  0  0  0  0  0  0  0  0
  152.0541  136.3960  159.8730 H   0  0  0  0  0  0  0  0  0  0  0  0
  151.2312  137.7214  160.6917 H   0  0  0  0  0  0  0  0  0  0  0  0
  152.9854  137.7390  160.5220 H   0  0  0  0  0  0  0  0  0  0  0  0
  152.7623  137.9272  158.0470 H   0  0  0  0  0  0  0  0  0  0  0  0
  150.1344  136.9938  158.4580 H   0  0  0  0  0  0  0  0  0  0  0  0
  149.9124  138.6532  157.9474 H   0  0  0  0  0  0  0  0  0  0  0  0
  150.6548  139.2927  155.5015 H   0  0  0  0  0  0  0  0  0  0  0  0
  151.2036  137.6700  153.3242 H   0  0  0  0  0  0  0  0  0  0  0  0
  151.2191  135.3293  156.7747 H   0  0  0  0  0  0  0  0  0  0  0  0
  151.7594  139.9759  159.8388 H   0  0  0  0  0  0  0  0  0  0  0  0
  152.2073  144.6950  161.9792 H   0  0  0  0  0  0  0  0  0  0  0  0
  153.1183  143.1935  161.9694 H   0  0  0  0  0  0  0  0  0  0  0  0
  151.3562  143.1554  162.0220 H   0  0  0  0  0  0  0  0  0  0  0  0
  151.5392  145.2485  157.3225 H   0  0  0  0  0  0  0  0  0  0  0  0
  153.1432  144.5801  157.5309 H   0  0  0  0  0  0  0  0  0  0  0  0
  151.9420  142.8512  156.4331 H   0  0  0  0  0  0  0  0  0  0  0  0
  150.4963  143.0850  157.3850 H   0  0  0  0  0  0  0  0  0  0  0  0
  1  2  1  0  0  0  0
  1 20  1  0  0  0  0
  1 21  1  0  0  0  0
  1 22  1  0  0  0  0
  2  3  1  0  0  0  0
  2  9  1  0  0  0  0
  2 23  1  0  0  0  0
  3  4  1  0  0  0  0
  3 24  1  0  0  0  0
  3 25  1  0  0  0  0
  4  8  1  0  0  0  0
  4  5  1  0  0  0  0
  5  6  2  0  0  0  0
  5 26  1  0  0  0  0
  6  7  1  0  0  0  0
  6 27  1  0  0  0  0
  7  8  2  0  0  0  0
  8 28  1  0  0  0  0
  9 10  1  0  0  0  0
  9 29  1  0  0  0  0
 10 11  2  0  0  0  0
 10 12  1  0  0  0  0
 12 19  1  0  0  0  0
 12 13  2  0  0  0  0
 13 14  1  0  0  0  0
 14 15  1  0  0  0  0
 14 16  1  0  0  0  0
 15 30  1  0  0  0  0
 15 31  1  0  0  0  0
 15 32  1  0  0  0  0
 16 17  2  0  0  0  0
 16 18  1  0  0  0  0
 18 19  1  0  0  0  0
 18 33  1  0  0  0  0
 18 34  1  0  0  0  0
 19 35  1  0  0  0  0
 19 36  1  0  0  0  0
M  END
> <s_m_source_file>
AV-unprocessed.smi

> <i_m_source_file_index>
561

> <i_lp_mmshare_version>
43012

> <i_f3d_flags>
0

> <s_epik_input>
W2NIXTFuW2NIXVtjSF1uMVtDSDJdW0NAQEhdKFtDSDNdKVtOSF1DKD1PKUMyPU5OKFtDSDNdKUMoPU8pW0NIMl1bQ0gyXTI=

> <s_epik_cmdline>
J2VwaWtfcHl0aG9uJywgJy1waCcsICc3LjAnLCAnLXRuJywgJzgnLCAnLW1hJywgJzIwMCcsICctbWV0YWxfYmluZGluZycsICctaW1hZScsICc8aW5maWxlLm1hZT4nLCAnLW9tYWUnLCAnPG91dGZpbGUubWFlPic=

> <r_lp_tautomer_probability>
1

> <r_epik_Ionization_Penalty>
0.46798

> <r_epik_Ionization_Penalty_Charging>
0.467902

> <r_epik_Ionization_Penalty_Neutral>
7.78263e-05

> <r_epik_State_Penalty>
0.47192

> <r_epik_Charging_Adjusted_Penalty>
0.939822

> <i_epik_Tot_Q>
0

> <i_epik_Tot_abs_Q>
0

> <r_epik_Metal_State_Penalty>
0.280825

> <b_epik_Metal_Only>
0

> <s_epik_Chemistry_Notes>
This compound has an imine and may undergo hydrolysis.

> <s_lp_Force_Field>
OPLS_2005

> <r_lp_Energy>
18.7987

> <b_lp_Chiralities_Consistent>
1

> <s_lp_Variant>
AV-unprocessed.smi:561-4

> <Gold.Version>
5.8.1

> <Gold.Id.Protein>
6NUR|6NUR_protein|mol2

> <Gold.PLP.Fitness>
42.5293

> <Gold.PLP.PLP>
-36.3420

> <Gold.PLP.part.hbond>
-2.9043

> <Gold.PLP.part.metal>
0.0000

> <Gold.PLP.part.buried>
-5.7140

> <Gold.PLP.part.nonpolar>
-27.4309

> <Gold.PLP.part.repulsive>
0.4188

> <Gold.PLP.ligand.clash>
0.0000

> <Gold.PLP.ligand.torsion>
1.5530

> <Gold.PLP.Chemscore.Hbond>
2.0000

> <Gold.PLP.Chemscore.CHOScore>
1.0735

> <Gold.PLP.Chemscore.Metal>
0.0000

> <Gold.Chemscore.Hbonds>
donor molecule, donor type, donor heavy atom, donor atom, acceptor molecule, acceptor atom, score
      P1  H  7997  8008       L1    11  1.00
      P1  H 10752 10763       L1     7  1.00
      L1  C     6    27       P1  7949  0.88

> <Gold.PLP.Chemscore.Internal.Correction>
0.0727

> <Gold.Rescore>
     Score         DG    S(hbond)    S(metal)    S(lipo)     H(rot)  DE(clash)    DE(int)     intcor
     12.56     -15.62       1.75        0.00      74.09       1.71       0.32       2.73       ----

> <Gold.Chemscore.Fitness>
12.5640

> <Gold.Chemscore.DG>
-15.6151

> <Gold.Chemscore.ZeroCoef>
-5.4800

> <Gold.Chemscore.Hbond>
1.7485

> <Gold.Chemscore.Metal>
0.0000

> <Gold.Chemscore.Lipo>
74.0945

> <Gold.Chemscore.Internal_Hbond>
0.0000

> <Gold.Chemscore.DEClash>
0.3234

> <Gold.Chemscore.DEInternal>
2.7277

> <Gold.Chemscore.Rot>
1.7086

> <Gold.Chemscore.Internal.Correction>
   9.000000E+99

> <Gold.Chemscore.Hbonds>
donor molecule, donor type, donor heavy atom, donor atom, acceptor molecule, acceptor atom, score
      P1  H  7997  8008       L1    11  0.78
      P1  H 10752 10763       L1     7  0.56

> <Gold.Chemscore.Hbond.Weighted>
-5.8400

> <Gold.Chemscore.Metal.Weighted>
-0.0000

> <Gold.Chemscore.Lipo.Weighted>
-8.6691

> <Gold.Chemscore.Internal_Hbond.Weighted>
0.0000

> <Gold.Chemscore.DEClash.Weighted>
0.3234

> <Gold.Chemscore.DEInternal.Weighted>
2.7277

> <Gold.Chemscore.Rot.Weighted>
4.3739

> <Gold.Chemscore.Internal.Correction.Weighted>
   9.000000E+99

> <Gold.Protein.RotatedTorsions>
[ 6907 6896 6895 6894 ] final  139.41 input  -60.11 | X-H torsion
[ 7974 7965 7964 7962 ] final   -8.13 input  175.53 | X-H torsion
[ 8008 7997 7996 7995 ] final  -47.08 input   59.86 | X-H torsion
[ 10167 10162 10161 10158 ] final  -34.54 input  -65.29 | X-H torsion
[ 10718 10713 10712 10709 ] final -102.91 input   66.30 | X-H torsion
[ 10763 10752 10751 10750 ] final   45.03 input  -60.55 | X-H torsion
[ 11005 11000 10999 10996 ] final  149.01 input  -57.11 | X-H torsion

> <Gold.Protein.ActiveResidues>
 VAL166  LYS551  ARG553  GLY616  TRP617  ASP618  TYR619  PRO620  LYS621  CYS622 
 ASP623  PHE694  ASN695  SER759  ASP760  ASP761  ALA762  ILE779  LEU786  VAL792 
 PHE793  MET794  SER795  GLU796  ALA797  LYS798  CYS799  TRP800  GLU811  SER814 

> <Gold.Protein.RotatedAtoms>
  152.2553  133.5250  159.5349 H   0  0  0  0  0  0  0  0  0  0  0  0  # atno 6907 bound_to 6896
  150.7107  134.0904  159.3939 H   0  0  0  0  0  0  0  0  0  0  0  0  # atno 6908 bound_to 6896
  151.8823  135.0448  160.0541 H   0  0  0  0  0  0  0  0  0  0  0  0  # atno 6909 bound_to 6896
  146.2289  140.2422  142.8344 H   0  0  0  0  0  0  0  0  0  0  0  0  # atno 7974 bound_to 7965
  154.4013  140.1355  156.4117 H   0  0  0  0  0  0  0  0  0  0  0  0  # atno 8008 bound_to 7997
  155.7727  140.3483  155.5235 H   0  0  0  0  0  0  0  0  0  0  0  0  # atno 8009 bound_to 7997
  155.8751  140.0978  157.1514 H   0  0  0  0  0  0  0  0  0  0  0  0  # atno 8010 bound_to 7997
  140.7183  143.3541  151.2096 H   0  0  0  0  0  0  0  0  0  0  0  0  # atno 10167 bound_to 10162
  156.0246  130.5442  150.7176 H   0  0  0  0  0  0  0  0  0  0  0  0  # atno 10718 bound_to 10713
  152.9831  135.6052  154.3370 H   0  0  0  0  0  0  0  0  0  0  0  0  # atno 10763 bound_to 10752
  154.3069  135.2772  155.2586 H   0  0  0  0  0  0  0  0  0  0  0  0  # atno 10764 bound_to 10752
  154.4813  135.5916  153.6447 H   0  0  0  0  0  0  0  0  0  0  0  0  # atno 10765 bound_to 10752
  140.1008  134.8984  157.1793 H   0  0  0  0  0  0  0  0  0  0  0  0  # atno 11005 bound_to 11000
  144.9476  140.8144  143.5592 LP  0  0  0  0  0  0  0  0  0  0  0  0  # atno 17320 bound_to 7965
  145.2379  139.2085  143.5008 LP  0  0  0  0  0  0  0  0  0  0  0  0  # atno 17321 bound_to 7965
  139.7078  143.9426  152.2934 LP  0  0  0  0  0  0  0  0  0  0  0  0  # atno 17342 bound_to 10162
  139.9141  144.6839  150.8531 LP  0  0  0  0  0  0  0  0  0  0  0  0  # atno 17343 bound_to 10162
  157.4799  131.0901  151.0547 LP  0  0  0  0  0  0  0  0  0  0  0  0  # atno 17370 bound_to 10713
  157.0984  130.5971  149.5454 LP  0  0  0  0  0  0  0  0  0  0  0  0  # atno 17371 bound_to 10713
  140.3222  134.2903  155.7244 LP  0  0  0  0  0  0  0  0  0  0  0  0  # atno 17394 bound_to 11000
  141.2105  133.7717  156.9927 LP  0  0  0  0  0  0  0  0  0  0  0  0  # atno 17395 bound_to 11000

$$$$
