AV-unprocessed.smi:2784|AV-procd|sdf|10738|dock5
  -GOLD-   2272015173D 1   1.00000     0.00000
 Structure written by MMmdl.
 31 32  0  0  0  0  0  0  0  0  1 V2000
  153.5145  141.0086  159.9530 C   0  0  0  0  0  0  0  0  0  0  0  0
  152.2384  141.3546  159.4378 O   0  0  0  0  0  0  0  0  0  0  0  0
  152.2853  142.3480  158.4228 C   0  0  2  0  0  0  0  0  0  0  0  0
  153.0665  143.5621  158.9333 C   0  0  0  0  0  0  0  0  0  0  0  0
  152.4878  144.7388  158.1561 C   0  0  0  0  0  0  0  0  0  0  0  0
  150.9948  144.4240  158.0729 C   0  0  0  0  0  0  0  0  0  0  0  0
  150.8876  142.8863  158.0391 C   0  0  1  0  0  0  0  0  0  0  0  0
  150.5039  142.4155  156.7101 N   0  0  0  0  0  0  0  0  0  0  0  0
  150.6971  141.1756  156.2369 C   0  0  0  0  0  0  0  0  0  0  0  0
  151.2338  140.2972  156.9194 O   0  0  0  0  0  0  0  0  0  0  0  0
  150.2454  141.0864  154.9295 N   0  0  0  0  0  0  0  0  0  0  0  0
  148.9718  140.9755  154.7110 C   0  0  0  0  0  0  0  0  0  0  0  0
  148.3257  140.8946  153.4878 N   0  0  0  0  0  0  0  0  0  0  0  0
  146.9836  140.7767  153.7228 C   0  0  0  0  0  0  0  0  0  0  0  0
  146.7915  140.7812  155.0387 C   0  0  0  0  0  0  0  0  0  0  0  0
  147.9910  140.9007  155.6735 O   0  0  0  0  0  0  0  0  0  0  0  0
  153.3993  140.2630  160.7395 H   0  0  0  0  0  0  0  0  0  0  0  0
  154.0138  141.8766  160.3848 H   0  0  0  0  0  0  0  0  0  0  0  0
  154.1584  140.5830  159.1829 H   0  0  0  0  0  0  0  0  0  0  0  0
  152.8069  141.9631  157.5437 H   0  0  0  0  0  0  0  0  0  0  0  0
  152.8770  143.7069  159.9980 H   0  0  0  0  0  0  0  0  0  0  0  0
  154.1432  143.4550  158.7995 H   0  0  0  0  0  0  0  0  0  0  0  0
  152.6890  145.6985  158.6327 H   0  0  0  0  0  0  0  0  0  0  0  0
  152.9168  144.7653  157.1536 H   0  0  0  0  0  0  0  0  0  0  0  0
  150.4997  144.7967  158.9705 H   0  0  0  0  0  0  0  0  0  0  0  0
  150.5208  144.9138  157.2212 H   0  0  0  0  0  0  0  0  0  0  0  0
  150.1495  142.5641  158.7763 H   0  0  0  0  0  0  0  0  0  0  0  0
  150.0679  143.0900  156.0983 H   0  0  0  0  0  0  0  0  0  0  0  0
  148.7316  140.9141  152.5635 H   0  0  0  0  0  0  0  0  0  0  0  0
  146.2893  140.7000  152.8990 H   0  0  0  0  0  0  0  0  0  0  0  0
  145.9050  140.7109  155.6514 H   0  0  0  0  0  0  0  0  0  0  0  0
  1  2  1  0  0  0  0
  1 17  1  0  0  0  0
  1 18  1  0  0  0  0
  1 19  1  0  0  0  0
  2  3  1  0  0  0  0
  3  7  1  0  0  0  0
  3  4  1  0  0  0  0
  3 20  1  0  0  0  0
  4  5  1  0  0  0  0
  4 21  1  0  0  0  0
  4 22  1  0  0  0  0
  5  6  1  0  0  0  0
  5 23  1  0  0  0  0
  5 24  1  0  0  0  0
  6  7  1  0  0  0  0
  6 25  1  0  0  0  0
  6 26  1  0  0  0  0
  7  8  1  0  0  0  0
  7 27  1  0  0  0  0
  8 28  1  0  0  0  0
  8  9  1  0  0  0  0
  9 11  1  0  0  0  0
  9 10  2  0  0  0  0
 11 12  2  0  0  0  0
 12 16  1  0  0  0  0
 12 13  1  0  0  0  0
 13 29  1  0  0  0  0
 13 14  1  0  0  0  0
 14 30  1  0  0  0  0
 14 15  2  0  0  0  0
 15 31  1  0  0  0  0
 15 16  1  0  0  0  0
M  END
> <s_m_source_file>
AV-unprocessed.smi

> <i_m_source_file_index>
2784

> <i_lp_mmshare_version>
43012

> <i_f3d_flags>
0

> <s_epik_input>
W0NIM11PW0NAQEhdMVtDSDJdW0NIMl1bQ0gyXVtDQEhdMVtOSF1DKD1PKVtOSF1jMm5bY0hdW2NIXW8y

> <s_epik_cmdline>
J2VwaWtfcHl0aG9uJywgJy1waCcsICc3LjAnLCAnLXRuJywgJzgnLCAnLW1hJywgJzIwMCcsICctbWV0YWxfYmluZGluZycsICctaW1hZScsICc8aW5maWxlLm1hZT4nLCAnLW9tYWUnLCAnPG91dGZpbGUubWFlPic=

> <r_lp_tautomer_probability>
0.107061

> <r_epik_Ionization_Penalty>
1.29244

> <r_epik_Ionization_Penalty_Charging>
1.29208

> <r_epik_Ionization_Penalty_Neutral>
0.000359742

> <r_epik_State_Penalty>
2.59896

> <r_epik_Charging_Adjusted_Penalty>
3.89105

> <i_epik_Tot_Q>
0

> <i_epik_Tot_abs_Q>
0

> <r_epik_Metal_State_Penalty>
3.62496

> <b_epik_Metal_Only>
0

> <s_lp_Force_Field>
OPLS_2005

> <r_lp_Energy>
42.0746

> <b_lp_Chiralities_Consistent>
1

> <s_lp_Variant>
AV-unprocessed.smi:2784-13

> <Gold.Version>
5.8.1

> <Gold.Id.Protein>
6NUR|6NUR_protein|mol2

> <Gold.PLP.Fitness>
40.7649

> <Gold.PLP.PLP>
-33.1935

> <Gold.PLP.part.hbond>
-3.0000

> <Gold.PLP.part.metal>
0.0000

> <Gold.PLP.part.buried>
-4.7882

> <Gold.PLP.part.nonpolar>
-26.2860

> <Gold.PLP.part.repulsive>
0.4208

> <Gold.PLP.ligand.clash>
0.0000

> <Gold.PLP.ligand.torsion>
1.0217

> <Gold.PLP.Chemscore.Hbond>
2.5497

> <Gold.PLP.Chemscore.CHOScore>
0.6535

> <Gold.PLP.Chemscore.Metal>
0.0000

> <Gold.Chemscore.Hbonds>
donor molecule, donor type, donor heavy atom, donor atom, acceptor molecule, acceptor atom, score
      L1  H     8    28       P1  8028  0.93
      L1  H    13    29       P1  7957  1.00
      P1  H  7989  7998       L1    11  0.66
      L1  C    14    30       P1 10175  0.72

> <Gold.PLP.Chemscore.Internal.Correction>
0.0053

> <Gold.Rescore>
     Score         DG    S(hbond)    S(metal)    S(lipo)     H(rot)  DE(clash)    DE(int)     intcor
     15.18     -18.66       2.02        0.00      84.09       1.32       0.14       3.34       ----

> <Gold.Chemscore.Fitness>
15.1843

> <Gold.Chemscore.DG>
-18.6642

> <Gold.Chemscore.ZeroCoef>
-5.4800

> <Gold.Chemscore.Hbond>
2.0162

> <Gold.Chemscore.Metal>
0.0000

> <Gold.Chemscore.Lipo>
84.0864

> <Gold.Chemscore.Internal_Hbond>
0.0000

> <Gold.Chemscore.DEClash>
0.1402

> <Gold.Chemscore.DEInternal>
3.3397

> <Gold.Chemscore.Rot>
1.3235

> <Gold.Chemscore.Internal.Correction>
   9.000000E+99

> <Gold.Chemscore.Hbonds>
donor molecule, donor type, donor heavy atom, donor atom, acceptor molecule, acceptor atom, score
      L1  H     8    28       P1  8028  0.87
      L1  H    13    29       P1  7957  0.95
      P1  H  7989  7998       L1    11  0.60

> <Gold.Chemscore.Hbond.Weighted>
-6.7343

> <Gold.Chemscore.Metal.Weighted>
-0.0000

> <Gold.Chemscore.Lipo.Weighted>
-9.8381

> <Gold.Chemscore.Internal_Hbond.Weighted>
0.0000

> <Gold.Chemscore.DEClash.Weighted>
0.1402

> <Gold.Chemscore.DEInternal.Weighted>
3.3397

> <Gold.Chemscore.Rot.Weighted>
3.3882

> <Gold.Chemscore.Internal.Correction.Weighted>
   9.000000E+99

> <Gold.Protein.RotatedTorsions>
[ 6907 6896 6895 6894 ] final    4.03 input  -60.11 | X-H torsion
[ 7974 7965 7964 7962 ] final  -92.20 input  175.53 | X-H torsion
[ 8008 7997 7996 7995 ] final  -19.67 input   59.86 | X-H torsion
[ 10167 10162 10161 10158 ] final   48.47 input  -65.29 | X-H torsion
[ 10718 10713 10712 10709 ] final -176.53 input   66.30 | X-H torsion
[ 10763 10752 10751 10750 ] final   86.10 input  -60.55 | X-H torsion
[ 11005 11000 10999 10996 ] final -179.30 input  -57.11 | X-H torsion

> <Gold.Protein.ActiveResidues>
 VAL166  LYS551  ARG553  GLY616  TRP617  ASP618  TYR619  PRO620  LYS621  CYS622 
 ASP623  PHE694  ASN695  SER759  ASP760  ASP761  ALA762  ILE779  LEU786  VAL792 
 PHE793  MET794  SER795  GLU796  ALA797  LYS798  CYS799  TRP800  GLU811  SER814 

> <Gold.Protein.RotatedAtoms>
  151.6347  135.1019  160.0128 H   0  0  0  0  0  0  0  0  0  0  0  0  # atno 6907 bound_to 6896
  152.4087  133.6925  159.6387 H   0  0  0  0  0  0  0  0  0  0  0  0  # atno 6908 bound_to 6896
  150.7979  133.8580  159.3265 H   0  0  0  0  0  0  0  0  0  0  0  0  # atno 6909 bound_to 6896
  145.4030  140.9539  143.2277 H   0  0  0  0  0  0  0  0  0  0  0  0  # atno 7974 bound_to 7965
  154.4821  140.2082  155.9739 H   0  0  0  0  0  0  0  0  0  0  0  0  # atno 8008 bound_to 7997
  156.1181  140.3218  155.8138 H   0  0  0  0  0  0  0  0  0  0  0  0  # atno 8009 bound_to 7997
  155.4517  140.0517  157.2991 H   0  0  0  0  0  0  0  0  0  0  0  0  # atno 8010 bound_to 7997
  140.2929  144.3025  150.6236 H   0  0  0  0  0  0  0  0  0  0  0  0  # atno 10167 bound_to 10162
  156.8160  130.9603  151.3114 H   0  0  0  0  0  0  0  0  0  0  0  0  # atno 10718 bound_to 10713
  153.1538  135.4593  154.9675 H   0  0  0  0  0  0  0  0  0  0  0  0  # atno 10763 bound_to 10752
  154.7845  135.3199  154.7918 H   0  0  0  0  0  0  0  0  0  0  0  0  # atno 10764 bound_to 10752
  153.8419  135.6929  153.4856 H   0  0  0  0  0  0  0  0  0  0  0  0  # atno 10765 bound_to 10752
  140.4202  134.6613  157.4660 H   0  0  0  0  0  0  0  0  0  0  0  0  # atno 11005 bound_to 11000
  144.8361  139.5548  143.6921 LP  0  0  0  0  0  0  0  0  0  0  0  0  # atno 17320 bound_to 7965
  146.2743  139.6712  142.9274 LP  0  0  0  0  0  0  0  0  0  0  0  0  # atno 17321 bound_to 7965
  140.5717  143.2180  151.7588 LP  0  0  0  0  0  0  0  0  0  0  0  0  # atno 17342 bound_to 10162
  139.4933  144.4207  151.9980 LP  0  0  0  0  0  0  0  0  0  0  0  0  # atno 17343 bound_to 10162
  157.6481  130.8861  149.9579 LP  0  0  0  0  0  0  0  0  0  0  0  0  # atno 17370 bound_to 10713
  156.1017  130.3655  150.0207 LP  0  0  0  0  0  0  0  0  0  0  0  0  # atno 17371 bound_to 10713
  140.0205  134.6554  155.9246 LP  0  0  0  0  0  0  0  0  0  0  0  0  # atno 17394 bound_to 11000
  141.1787  133.6543  156.4931 LP  0  0  0  0  0  0  0  0  0  0  0  0  # atno 17395 bound_to 11000

$$$$
