AV-unprocessed.smi:138|AV-procd|sdf|1179|dock3
  -GOLD-   2262018333D 1   1.00000     0.00000
 Structure written by MMmdl.
 52 55  0  0  0  0  0  0  0  0  1 V2000
  147.6493  139.0132  153.2577 C   0  0  0  0  0  0  0  0  0  0  0  0
  148.6945  138.6394  154.2600 C   0  0  0  0  0  0  0  0  0  0  0  0
  149.8851  139.2444  154.5346 C   0  0  0  0  0  0  0  0  0  0  0  0
  150.5309  138.5228  155.5767 C   0  0  0  0  0  0  0  0  0  0  0  0
  151.8330  138.8106  156.2298 C   0  0  0  0  0  0  0  0  0  0  0  0
  152.8091  139.2528  155.6214 O   0  0  0  0  0  0  0  0  0  0  0  0
  151.9054  138.5165  157.7400 C   0  0  0  0  0  0  0  0  0  0  0  0
  152.2985  139.6780  158.5286 N   0  0  0  0  0  0  0  0  0  0  0  0
  153.3744  139.5277  159.4389 C   0  0  0  0  0  0  0  0  0  0  0  0
  153.9697  138.4578  159.5789 O   0  0  0  0  0  0  0  0  0  0  0  0
  153.7187  140.7391  160.1755 C   0  0  0  0  0  0  0  0  0  0  0  0
  154.7177  140.7089  161.0738 F   0  0  0  0  0  0  0  0  0  0  0  0
  153.0512  141.8950  159.9699 C   0  0  0  0  0  0  0  0  0  0  0  0
  152.0118  142.0160  159.0620 N   0  0  0  0  0  0  0  0  0  0  0  0
  151.2921  143.3272  158.8360 C   0  0  2  0  0  0  0  0  0  0  0  0
  152.2529  144.3741  158.2451 C   0  0  0  0  0  0  0  0  0  0  0  0
  152.0161  145.5783  159.1335 C   0  0  0  0  0  0  0  0  0  0  0  0
  151.6475  144.9233  160.4562 C   0  0  0  0  0  0  0  0  0  0  0  0
  150.8280  143.8321  160.0560 O   0  0  0  0  0  0  0  0  0  0  0  0
  151.6074  140.8935  158.3075 C   0  0  0  0  0  0  0  0  0  0  0  0
  150.6958  140.9844  157.4814 O   0  0  0  0  0  0  0  0  0  0  0  0
  149.7155  137.4655  155.9096 C   0  0  0  0  0  0  0  0  0  0  0  0
  149.9026  136.3737  156.9271 C   0  0  0  0  0  0  0  0  0  0  0  0
  148.5730  137.5456  155.1098 N   0  0  0  0  0  0  0  0  0  0  0  0
  147.4330  136.6342  155.1445 C   0  0  0  0  0  0  0  0  0  0  0  0
  147.7758  135.2632  154.6583 C   0  0  0  0  0  0  0  0  0  0  0  0
  148.7565  134.3671  154.9837 C   0  0  0  0  0  0  0  0  0  0  0  0
  148.5465  133.2253  154.1625 C   0  0  0  0  0  0  0  0  0  0  0  0
  147.4516  133.5089  153.3972 C   0  0  0  0  0  0  0  0  0  0  0  0
  146.9687  134.7470  153.6883 O   0  0  0  0  0  0  0  0  0  0  0  0
  147.9885  139.8409  152.6346 H   0  0  0  0  0  0  0  0  0  0  0  0
  146.7295  139.3262  153.7518 H   0  0  0  0  0  0  0  0  0  0  0  0
  147.4175  138.1768  152.5985 H   0  0  0  0  0  0  0  0  0  0  0  0
  150.2518  140.1293  154.0355 H   0  0  0  0  0  0  0  0  0  0  0  0
  150.9442  138.1618  158.1151 H   0  0  0  0  0  0  0  0  0  0  0  0
  152.6123  137.7125  157.9491 H   0  0  0  0  0  0  0  0  0  0  0  0
  153.3586  142.7518  160.5489 H   0  0  0  0  0  0  0  0  0  0  0  0
  150.4369  143.0948  158.1989 H   0  0  0  0  0  0  0  0  0  0  0  0
  153.2853  144.0324  158.3369 H   0  0  0  0  0  0  0  0  0  0  0  0
  152.0322  144.5603  157.1937 H   0  0  0  0  0  0  0  0  0  0  0  0
  152.8850  146.2328  159.2084 H   0  0  0  0  0  0  0  0  0  0  0  0
  151.1755  146.1632  158.7580 H   0  0  0  0  0  0  0  0  0  0  0  0
  152.5382  144.5571  160.9681 H   0  0  0  0  0  0  0  0  0  0  0  0
  151.1164  145.5979  161.1280 H   0  0  0  0  0  0  0  0  0  0  0  0
  150.8901  135.9227  156.8300 H   0  0  0  0  0  0  0  0  0  0  0  0
  149.1835  135.5639  156.8270 H   0  0  0  0  0  0  0  0  0  0  0  0
  149.8144  136.7733  157.9374 H   0  0  0  0  0  0  0  0  0  0  0  0
  147.0429  136.5916  156.1613 H   0  0  0  0  0  0  0  0  0  0  0  0
  146.6197  137.0425  154.5456 H   0  0  0  0  0  0  0  0  0  0  0  0
  149.5310  134.5162  155.7212 H   0  0  0  0  0  0  0  0  0  0  0  0
  149.1231  132.3124  154.1350 H   0  0  0  0  0  0  0  0  0  0  0  0
  146.9092  132.9697  152.6347 H   0  0  0  0  0  0  0  0  0  0  0  0
  1  2  1  0  0  0  0
  1 31  1  0  0  0  0
  1 32  1  0  0  0  0
  1 33  1  0  0  0  0
  2 24  1  0  0  0  0
  2  3  2  0  0  0  0
  3  4  1  0  0  0  0
  3 34  1  0  0  0  0
  4  5  1  0  0  0  0
  4 22  2  0  0  0  0
  5  6  2  0  0  0  0
  5  7  1  0  0  0  0
  7  8  1  0  0  0  0
  7 35  1  0  0  0  0
  7 36  1  0  0  0  0
  8 20  1  0  0  0  0
  8  9  1  0  0  0  0
  9 10  2  0  0  0  0
  9 11  1  0  0  0  0
 11 12  1  0  0  0  0
 11 13  2  0  0  0  0
 13 14  1  0  0  0  0
 13 37  1  0  0  0  0
 14 15  1  0  0  0  0
 14 20  1  0  0  0  0
 15 19  1  0  0  0  0
 15 16  1  0  0  0  0
 15 38  1  0  0  0  0
 16 17  1  0  0  0  0
 16 39  1  0  0  0  0
 16 40  1  0  0  0  0
 17 18  1  0  0  0  0
 17 41  1  0  0  0  0
 17 42  1  0  0  0  0
 18 19  1  0  0  0  0
 18 43  1  0  0  0  0
 18 44  1  0  0  0  0
 20 21  2  0  0  0  0
 22 23  1  0  0  0  0
 22 24  1  0  0  0  0
 23 45  1  0  0  0  0
 23 46  1  0  0  0  0
 23 47  1  0  0  0  0
 24 25  1  0  0  0  0
 25 26  1  0  0  0  0
 25 48  1  0  0  0  0
 25 49  1  0  0  0  0
 26 30  1  0  0  0  0
 26 27  2  0  0  0  0
 27 28  1  0  0  0  0
 27 50  1  0  0  0  0
 28 29  2  0  0  0  0
 28 51  1  0  0  0  0
 29 30  1  0  0  0  0
 29 52  1  0  0  0  0
M  END
> <s_m_source_file>
AV-unprocessed.smi

> <i_m_source_file_index>
138

> <i_lp_mmshare_version>
43012

> <i_f3d_flags>
0

> <s_epik_input>
bzFbY0hdW2NIXVtjSF1jMVtDSDJdbjJjKFtDSDNdKWMoW2NIXWMyW0NIM10pQyg9TylbQ0gyXW4zYyg9TyljKEYpW2NIXW4oYzM9TylbQ0BASF00W0NIMl1bQ0gyXVtDSDJdTzQ=

> <s_epik_cmdline>
J2VwaWtfcHl0aG9uJywgJy1waCcsICc3LjAnLCAnLXRuJywgJzgnLCAnLW1hJywgJzIwMCcsICctbWV0YWxfYmluZGluZycsICctaW1hZScsICc8aW5maWxlLm1hZT4nLCAnLW9tYWUnLCAnPG91dGZpbGUubWFlPic=

> <r_lp_tautomer_probability>
1

> <r_epik_Ionization_Penalty>
5.03107e-09

> <r_epik_Ionization_Penalty_Charging>
5.01743e-09

> <r_epik_Ionization_Penalty_Neutral>
1.36377e-11

> <r_epik_State_Penalty>
-0

> <r_epik_Charging_Adjusted_Penalty>
5.01743e-09

> <i_epik_Tot_Q>
0

> <i_epik_Tot_abs_Q>
0

> <r_epik_Metal_State_Penalty>
-0

> <b_epik_Metal_Only>
0

> <s_epik_Chemistry_Notes>
This compound contains an acetal/aminal-like group ( X-CH(R)-Y where X, Y are N, S, or O) that may be acid/base labile, releasing an aldehyde.

> <s_lp_Force_Field>
OPLS_2005

> <r_lp_Energy>
38.6842

> <b_lp_Chiralities_Consistent>
1

> <s_lp_Variant>
AV-unprocessed.smi:138-1

> <Gold.Version>
5.8.1

> <Gold.Id.Protein>
6NUR|6NUR_protein|mol2

> <Gold.PLP.Fitness>
53.2083

> <Gold.PLP.PLP>
-51.7795

> <Gold.PLP.part.hbond>
-1.4400

> <Gold.PLP.part.metal>
0.0000

> <Gold.PLP.part.buried>
-3.6289

> <Gold.PLP.part.nonpolar>
-47.4477

> <Gold.PLP.part.repulsive>
1.4311

> <Gold.PLP.ligand.clash>
0.0000

> <Gold.PLP.ligand.torsion>
0.8110

> <Gold.PLP.Chemscore.Hbond>
1.0000

> <Gold.PLP.Chemscore.CHOScore>
0.0000

> <Gold.PLP.Chemscore.Metal>
0.0000

> <Gold.Chemscore.Hbonds>
donor molecule, donor type, donor heavy atom, donor atom, acceptor molecule, acceptor atom, score
      P1  H  7997  8009       L1     6  1.00

> <Gold.PLP.Chemscore.Internal.Correction>
0.0507

> <Gold.Rescore>
     Score         DG    S(hbond)    S(metal)    S(lipo)     H(rot)  DE(clash)    DE(int)     intcor
     12.84     -16.42       1.00        0.00     108.59       2.00       0.08       3.50       ----

> <Gold.Chemscore.Fitness>
12.8362

> <Gold.Chemscore.DG>
-16.4159

> <Gold.Chemscore.ZeroCoef>
-5.4800

> <Gold.Chemscore.Hbond>
1.0000

> <Gold.Chemscore.Metal>
0.0000

> <Gold.Chemscore.Lipo>
108.5908

> <Gold.Chemscore.Internal_Hbond>
0.0000

> <Gold.Chemscore.DEClash>
0.0770

> <Gold.Chemscore.DEInternal>
3.5027

> <Gold.Chemscore.Rot>
1.9958

> <Gold.Chemscore.Internal.Correction>
   9.000000E+99

> <Gold.Chemscore.Hbonds>
donor molecule, donor type, donor heavy atom, donor atom, acceptor molecule, acceptor atom, score
      P1  H  7997  8009       L1     6  1.00

> <Gold.Chemscore.Hbond.Weighted>
-3.3400

> <Gold.Chemscore.Metal.Weighted>
-0.0000

> <Gold.Chemscore.Lipo.Weighted>
-12.7051

> <Gold.Chemscore.Internal_Hbond.Weighted>
0.0000

> <Gold.Chemscore.DEClash.Weighted>
0.0770

> <Gold.Chemscore.DEInternal.Weighted>
3.5027

> <Gold.Chemscore.Rot.Weighted>
5.1092

> <Gold.Chemscore.Internal.Correction.Weighted>
   9.000000E+99

> <Gold.Protein.RotatedTorsions>
[ 6907 6896 6895 6894 ] final -124.24 input  -60.11 | X-H torsion
[ 7974 7965 7964 7962 ] final   42.14 input  175.53 | X-H torsion
[ 8008 7997 7996 7995 ] final -162.14 input   59.86 | X-H torsion
[ 10167 10162 10161 10158 ] final -127.76 input  -65.29 | X-H torsion
[ 10718 10713 10712 10709 ] final -104.29 input   66.30 | X-H torsion
[ 10763 10752 10751 10750 ] final  165.15 input  -60.55 | X-H torsion
[ 11005 11000 10999 10996 ] final -178.95 input  -57.11 | X-H torsion

> <Gold.Protein.ActiveResidues>
 VAL166  LYS551  ARG553  GLY616  TRP617  ASP618  TYR619  PRO620  LYS621  CYS622 
 ASP623  PHE694  ASN695  SER759  ASP760  ASP761  ALA762  ILE779  LEU786  VAL792 
 PHE793  MET794  SER795  GLU796  ALA797  LYS798  CYS799  TRP800  GLU811  SER814 

> <Gold.Protein.RotatedAtoms>
  150.8748  133.7454  159.2949 H   0  0  0  0  0  0  0  0  0  0  0  0  # atno 6907 bound_to 6896
  151.5054  135.1062  159.9849 H   0  0  0  0  0  0  0  0  0  0  0  0  # atno 6908 bound_to 6896
  152.4720  133.8006  159.7006 H   0  0  0  0  0  0  0  0  0  0  0  0  # atno 6909 bound_to 6896
  146.0765  139.5335  142.9564 H   0  0  0  0  0  0  0  0  0  0  0  0  # atno 7974 bound_to 7965
  155.8025  140.0894  157.1949 H   0  0  0  0  0  0  0  0  0  0  0  0  # atno 8008 bound_to 7997
  154.3981  140.1470  156.3350 H   0  0  0  0  0  0  0  0  0  0  0  0  # atno 8009 bound_to 7997
  155.8448  140.3437  155.5658 H   0  0  0  0  0  0  0  0  0  0  0  0  # atno 8010 bound_to 7997
  139.9574  143.5988  152.2456 H   0  0  0  0  0  0  0  0  0  0  0  0  # atno 10167 bound_to 10162
  156.0298  130.5508  150.7375 H   0  0  0  0  0  0  0  0  0  0  0  0  # atno 10718 bound_to 10713
  154.3197  135.2756  155.2525 H   0  0  0  0  0  0  0  0  0  0  0  0  # atno 10763 bound_to 10752
  154.4884  135.5840  153.6444 H   0  0  0  0  0  0  0  0  0  0  0  0  # atno 10764 bound_to 10752
  152.9878  135.6128  154.3381 H   0  0  0  0  0  0  0  0  0  0  0  0  # atno 10765 bound_to 10752
  140.4241  134.6579  157.4679 H   0  0  0  0  0  0  0  0  0  0  0  0  # atno 11005 bound_to 11000
  145.6296  141.0307  143.1870 LP  0  0  0  0  0  0  0  0  0  0  0  0  # atno 17320 bound_to 7965
  144.7265  139.7859  143.7363 LP  0  0  0  0  0  0  0  0  0  0  0  0  # atno 17321 bound_to 7965
  139.6581  144.7662  151.2017 LP  0  0  0  0  0  0  0  0  0  0  0  0  # atno 17342 bound_to 10162
  140.7564  143.6054  150.8658 LP  0  0  0  0  0  0  0  0  0  0  0  0  # atno 17343 bound_to 10162
  157.4952  131.0914  151.0380 LP  0  0  0  0  0  0  0  0  0  0  0  0  # atno 17370 bound_to 10713
  157.0775  130.5889  149.5414 LP  0  0  0  0  0  0  0  0  0  0  0  0  # atno 17371 bound_to 10713
  140.0179  134.6591  155.9282 LP  0  0  0  0  0  0  0  0  0  0  0  0  # atno 17394 bound_to 11000
  141.1772  133.6541  156.4876 LP  0  0  0  0  0  0  0  0  0  0  0  0  # atno 17395 bound_to 11000

$$$$
