AV-unprocessed.smi:496|AV-procd|sdf|2717|dock3
  -GOLD-   2262023163D 1   1.00000     0.00000
 Structure written by MMmdl.
 42 44  0  0  0  0  0  0  0  0  1 V2000
  156.7295  140.4810  159.6380 C   0  0  0  0  0  0  0  0  0  0  0  0
  155.4340  140.0359  159.2753 O   0  0  0  0  0  0  0  0  0  0  0  0
  154.4273  140.5382  160.1369 C   0  0  0  0  0  0  0  0  0  0  0  0
  153.0645  140.0212  159.6598 C   0  0  0  0  0  0  0  0  0  0  0  0
  152.1928  141.1067  159.2340 N   0  0  0  0  0  0  0  0  0  0  0  0
  151.2678  141.1147  158.2375 C   0  0  0  0  0  0  0  0  0  0  0  0
  150.9836  139.9129  157.3737 C   0  0  1  0  0  0  0  0  0  0  0  0
  150.6141  138.6730  158.2010 C   0  0  0  0  0  0  0  0  0  0  0  0
  149.8927  140.2719  156.4708 N   0  0  0  0  0  0  0  0  0  0  0  0
  149.9207  140.1938  155.1314 C   0  0  0  0  0  0  0  0  0  0  0  0
  150.8873  139.7781  154.4924 O   0  0  0  0  0  0  0  0  0  0  0  0
  148.7003  140.6500  154.4397 C   0  0  0  0  0  0  0  0  0  0  0  0
  148.2435  141.9074  154.1422 C   0  0  0  0  0  0  0  0  0  0  0  0
  147.0046  141.7409  153.4638 C   0  0  0  0  0  0  0  0  0  0  0  0
  146.7913  140.3940  153.3971 C   0  0  0  0  0  0  0  0  0  0  0  0
  147.8132  139.7165  153.9875 O   0  0  0  0  0  0  0  0  0  0  0  0
  150.6201  142.2706  158.0658 N   0  0  0  0  0  0  0  0  0  0  0  0
  151.1620  143.0777  159.0452 C   0  0  0  0  0  0  0  0  0  0  0  0
  150.8857  144.4218  159.3831 C   0  0  0  0  0  0  0  0  0  0  0  0
  151.5745  145.0473  160.4428 C   0  0  0  0  0  0  0  0  0  0  0  0
  152.5469  144.3390  161.1778 C   0  0  0  0  0  0  0  0  0  0  0  0
  152.8376  142.9992  160.8565 C   0  0  0  0  0  0  0  0  0  0  0  0
  152.1479  142.3792  159.7967 C   0  0  0  0  0  0  0  0  0  0  0  0
  157.4659  140.0627  158.9521 H   0  0  0  0  0  0  0  0  0  0  0  0
  156.9890  140.1601  160.6478 H   0  0  0  0  0  0  0  0  0  0  0  0
  156.8014  141.5683  159.5863 H   0  0  0  0  0  0  0  0  0  0  0  0
  154.6211  140.2161  161.1610 H   0  0  0  0  0  0  0  0  0  0  0  0
  154.4372  141.6294  160.1265 H   0  0  0  0  0  0  0  0  0  0  0  0
  153.2046  139.3363  158.8232 H   0  0  0  0  0  0  0  0  0  0  0  0
  152.5686  139.4396  160.4365 H   0  0  0  0  0  0  0  0  0  0  0  0
  151.8680  139.6627  156.7909 H   0  0  0  0  0  0  0  0  0  0  0  0
  151.4208  138.4034  158.8826 H   0  0  0  0  0  0  0  0  0  0  0  0
  150.4258  137.8141  157.5562 H   0  0  0  0  0  0  0  0  0  0  0  0
  149.7174  138.8427  158.7981 H   0  0  0  0  0  0  0  0  0  0  0  0
  149.0540  140.6306  156.9037 H   0  0  0  0  0  0  0  0  0  0  0  0
  148.7397  142.8367  154.3815 H   0  0  0  0  0  0  0  0  0  0  0  0
  146.3523  142.5086  153.0743 H   0  0  0  0  0  0  0  0  0  0  0  0
  146.0058  139.7776  152.9855 H   0  0  0  0  0  0  0  0  0  0  0  0
  150.1412  144.9722  158.8269 H   0  0  0  0  0  0  0  0  0  0  0  0
  151.3551  146.0748  160.6935 H   0  0  0  0  0  0  0  0  0  0  0  0
  153.0697  144.8250  161.9888 H   0  0  0  0  0  0  0  0  0  0  0  0
  153.5813  142.4559  161.4202 H   0  0  0  0  0  0  0  0  0  0  0  0
  1  2  1  0  0  0  0
  1 24  1  0  0  0  0
  1 25  1  0  0  0  0
  1 26  1  0  0  0  0
  2  3  1  0  0  0  0
  3  4  1  0  0  0  0
  3 27  1  0  0  0  0
  3 28  1  0  0  0  0
  4  5  1  0  0  0  0
  4 29  1  0  0  0  0
  4 30  1  0  0  0  0
  5 23  1  0  0  0  0
  5  6  1  0  0  0  0
  6  7  1  0  0  0  0
  6 17  2  0  0  0  0
  7  8  1  0  0  0  0
  7  9  1  0  0  0  0
  7 31  1  0  0  0  0
  8 32  1  0  0  0  0
  8 33  1  0  0  0  0
  8 34  1  0  0  0  0
  9 10  1  0  0  0  0
  9 35  1  0  0  0  0
 10 11  2  0  0  0  0
 10 12  1  0  0  0  0
 12 16  1  0  0  0  0
 12 13  2  0  0  0  0
 13 14  1  0  0  0  0
 13 36  1  0  0  0  0
 14 15  2  0  0  0  0
 14 37  1  0  0  0  0
 15 16  1  0  0  0  0
 15 38  1  0  0  0  0
 17 18  1  0  0  0  0
 18 23  2  0  0  0  0
 18 19  1  0  0  0  0
 19 20  2  0  0  0  0
 19 39  1  0  0  0  0
 20 21  1  0  0  0  0
 20 40  1  0  0  0  0
 21 22  2  0  0  0  0
 21 41  1  0  0  0  0
 22 23  1  0  0  0  0
 22 42  1  0  0  0  0
M  END
> <s_m_source_file>
AV-unprocessed.smi

> <i_m_source_file_index>
496

> <i_lp_mmshare_version>
43012

> <i_f3d_flags>
0

> <s_epik_input>
W2NIXTFbY0hdW2NIXVtjSF1jKGMxMiluKFtDSDJdW0NIMl1PW0NIM10pYyhuMilbQ0BIXShbQ0gzXSlbTkhdQyg9TyljM1tjSF1bY0hdW2NIXW8z

> <s_epik_cmdline>
J2VwaWtfcHl0aG9uJywgJy1waCcsICc3LjAnLCAnLXRuJywgJzgnLCAnLW1hJywgJzIwMCcsICctbWV0YWxfYmluZGluZycsICctaW1hZScsICc8aW5maWxlLm1hZT4nLCAnLW9tYWUnLCAnPG91dGZpbGUubWFlPic=

> <r_epik_Ionization_Penalty>
0.116528

> <r_epik_Ionization_Penalty_Charging>
0

> <r_epik_Ionization_Penalty_Neutral>
0.116528

> <r_epik_State_Penalty>
0.106132

> <r_epik_Charging_Adjusted_Penalty>
0.106132

> <i_epik_Tot_Q>
0

> <i_epik_Tot_abs_Q>
0

> <r_epik_Metal_State_Penalty>
0.0963468

> <b_epik_Metal_Only>
0

> <s_lp_Force_Field>
OPLS_2005

> <r_lp_Energy>
8.49443

> <b_lp_Chiralities_Consistent>
1

> <s_lp_Variant>
AV-unprocessed.smi:496-2

> <Gold.Version>
5.8.1

> <Gold.Id.Protein>
6NUR|6NUR_protein|mol2

> <Gold.PLP.Fitness>
48.6822

> <Gold.PLP.PLP>
-44.6145

> <Gold.PLP.part.hbond>
-2.0000

> <Gold.PLP.part.metal>
0.0000

> <Gold.PLP.part.buried>
-6.5646

> <Gold.PLP.part.nonpolar>
-36.2160

> <Gold.PLP.part.repulsive>
0.3760

> <Gold.PLP.ligand.clash>
0.0000

> <Gold.PLP.ligand.torsion>
2.2462

> <Gold.PLP.Chemscore.Hbond>
2.0000

> <Gold.PLP.Chemscore.CHOScore>
0.8250

> <Gold.PLP.Chemscore.Metal>
0.0000

> <Gold.Chemscore.Hbonds>
donor molecule, donor type, donor heavy atom, donor atom, acceptor molecule, acceptor atom, score
      P1  H  7989  7998       L1    11  1.00
      P1  H  7997  8008       L1     2  1.00
      L1  C    15    38       P1 10175  0.94

> <Gold.PLP.Chemscore.Internal.Correction>
0.0853

> <Gold.Rescore>
     Score         DG    S(hbond)    S(metal)    S(lipo)     H(rot)  DE(clash)    DE(int)     intcor
     17.55     -20.83       1.76        0.00     121.44       1.85       0.03       3.25       ----

> <Gold.Chemscore.Fitness>
17.5518

> <Gold.Chemscore.DG>
-20.8349

> <Gold.Chemscore.ZeroCoef>
-5.4800

> <Gold.Chemscore.Hbond>
1.7598

> <Gold.Chemscore.Metal>
0.0000

> <Gold.Chemscore.Lipo>
121.4359

> <Gold.Chemscore.Internal_Hbond>
0.0000

> <Gold.Chemscore.DEClash>
0.0282

> <Gold.Chemscore.DEInternal>
3.2548

> <Gold.Chemscore.Rot>
1.8480

> <Gold.Chemscore.Internal.Correction>
   9.000000E+99

> <Gold.Chemscore.Hbonds>
donor molecule, donor type, donor heavy atom, donor atom, acceptor molecule, acceptor atom, score
      P1  H  7989  7998       L1    11  0.94
      P1  H  7997  8008       L1     2  0.43

> <Gold.Chemscore.Hbond.Weighted>
-5.8777

> <Gold.Chemscore.Metal.Weighted>
-0.0000

> <Gold.Chemscore.Lipo.Weighted>
-14.2080

> <Gold.Chemscore.Internal_Hbond.Weighted>
0.0000

> <Gold.Chemscore.DEClash.Weighted>
0.0282

> <Gold.Chemscore.DEInternal.Weighted>
3.2548

> <Gold.Chemscore.Rot.Weighted>
4.7308

> <Gold.Chemscore.Internal.Correction.Weighted>
   9.000000E+99

> <Gold.Protein.RotatedTorsions>
[ 6907 6896 6895 6894 ] final   41.69 input  -60.11 | X-H torsion
[ 7974 7965 7964 7962 ] final  116.43 input  175.53 | X-H torsion
[ 8008 7997 7996 7995 ] final -140.33 input   59.86 | X-H torsion
[ 10167 10162 10161 10158 ] final   -0.94 input  -65.29 | X-H torsion
[ 10718 10713 10712 10709 ] final  177.19 input   66.30 | X-H torsion
[ 10763 10752 10751 10750 ] final  -55.37 input  -60.55 | X-H torsion
[ 11005 11000 10999 10996 ] final  -46.20 input  -57.11 | X-H torsion

> <Gold.Protein.ActiveResidues>
 VAL166  LYS551  ARG553  GLY616  TRP617  ASP618  TYR619  PRO620  LYS621  CYS622 
 ASP623  PHE694  ASN695  SER759  ASP760  ASP761  ALA762  ILE779  LEU786  VAL792 
 PHE793  MET794  SER795  GLU796  ALA797  LYS798  CYS799  TRP800  GLU811  SER814 

> <Gold.Protein.RotatedAtoms>
  152.1984  134.8610  160.0510 H   0  0  0  0  0  0  0  0  0  0  0  0  # atno 6907 bound_to 6896
  151.9472  133.3650  159.3995 H   0  0  0  0  0  0  0  0  0  0  0  0  # atno 6908 bound_to 6896
  150.6949  134.4302  159.5289 H   0  0  0  0  0  0  0  0  0  0  0  0  # atno 6909 bound_to 6896
  145.1798  139.3056  143.4424 H   0  0  0  0  0  0  0  0  0  0  0  0  # atno 7974 bound_to 7965
  155.4596  140.0544  157.2992 H   0  0  0  0  0  0  0  0  0  0  0  0  # atno 8008 bound_to 7997
  154.4743  140.2054  155.9872 H   0  0  0  0  0  0  0  0  0  0  0  0  # atno 8009 bound_to 7997
  156.1106  140.3204  155.8072 H   0  0  0  0  0  0  0  0  0  0  0  0  # atno 8010 bound_to 7997
  140.6789  143.6835  150.8086 H   0  0  0  0  0  0  0  0  0  0  0  0  # atno 10167 bound_to 10162
  156.9091  130.9904  151.3023 H   0  0  0  0  0  0  0  0  0  0  0  0  # atno 10718 bound_to 10713
  154.1897  135.6429  153.5056 H   0  0  0  0  0  0  0  0  0  0  0  0  # atno 10763 bound_to 10752
  153.0038  135.5425  154.6428 H   0  0  0  0  0  0  0  0  0  0  0  0  # atno 10764 bound_to 10752
  154.5814  135.2925  155.0702 H   0  0  0  0  0  0  0  0  0  0  0  0  # atno 10765 bound_to 10752
  141.0564  133.6724  156.3122 H   0  0  0  0  0  0  0  0  0  0  0  0  # atno 11005 bound_to 11000
  146.3455  140.1973  142.8589 LP  0  0  0  0  0  0  0  0  0  0  0  0  # atno 17320 bound_to 7965
  145.0148  140.8744  143.5202 LP  0  0  0  0  0  0  0  0  0  0  0  0  # atno 17321 bound_to 7965
  140.0532  143.5229  152.2664 LP  0  0  0  0  0  0  0  0  0  0  0  0  # atno 17342 bound_to 10162
  139.6098  144.7606  151.2977 LP  0  0  0  0  0  0  0  0  0  0  0  0  # atno 17343 bound_to 10162
  157.5979  130.8491  149.8757 LP  0  0  0  0  0  0  0  0  0  0  0  0  # atno 17370 bound_to 10713
  156.0545  130.3711  150.1124 LP  0  0  0  0  0  0  0  0  0  0  0  0  # atno 17371 bound_to 10713
  140.5955  134.5607  157.5508 LP  0  0  0  0  0  0  0  0  0  0  0  0  # atno 17394 bound_to 11000
  139.9394  134.7815  156.0718 LP  0  0  0  0  0  0  0  0  0  0  0  0  # atno 17395 bound_to 11000

$$$$
