AV-unprocessed.smi:1|AV-procd|sdf|23|dock2
  -GOLD-   2262015133D 1   1.00000     0.00000
 Structure written by MMmdl.
 56 61  0  0  0  0  0  0  0  0  2 V2000
  152.5030  139.5638  159.1006 O   0  0  0  0  0  0  0  0  0  0  0  0
  152.2026  140.3549  158.2040 C   0  0  0  0  0  0  0  0  0  0  0  0
  152.3008  140.1717  156.8631 N   0  5  0  0  0  0  0  0  0  0  0  0
  151.5107  139.2780  156.2501 C   0  0  0  0  0  0  0  0  0  0  0  0
  151.1817  139.4311  154.9419 N   0  0  0  0  0  0  0  0  0  0  0  0
  150.3820  138.5443  154.3376 C   0  0  0  0  0  0  0  0  0  0  0  0
  149.8008  137.4533  154.8462 N   0  0  0  0  0  0  0  0  0  0  0  0
  150.1205  137.2931  156.1640 C   0  0  0  0  0  0  0  0  0  0  0  0
  150.9597  138.1558  156.9263 C   0  0  0  0  0  0  0  0  0  0  0  0
  151.0734  137.7041  158.2334 N   0  0  0  0  0  0  0  0  0  0  0  0
  150.3146  136.6108  158.2071 C   0  0  0  0  0  0  0  0  0  0  0  0
  149.7149  136.3012  157.0408 N   0  0  0  0  0  0  0  0  0  0  0  0
  148.8174  135.1476  156.7566 C   0  0  2  0  0  0  0  0  0  0  0  0
  149.5548  134.1445  156.1391 O   0  0  0  0  0  0  0  0  0  0  0  0
  148.7160  133.4009  155.2575 C   0  0  2  0  0  0  0  0  0  0  0  0
  149.4508  133.2466  153.9205 C   0  0  0  0  0  0  0  0  0  0  0  0
  148.5142  132.9126  152.9093 O   0  0  0  0  0  0  0  0  0  0  0  0
  147.6830  131.8662  153.0755 C   0  0  0  0  0  0  0  0  0  0  0  0
  147.9172  130.9222  153.8329 O   0  0  0  0  0  0  0  0  0  0  0  0
  146.4473  131.9713  152.2467 C   0  0  0  0  0  0  0  0  0  0  0  0
  145.6601  130.8171  152.0252 C   0  0  0  0  0  0  0  0  0  0  0  0
  144.4876  130.8864  151.2476 C   0  0  0  0  0  0  0  0  0  0  0  0
  144.0884  132.1109  150.6811 C   0  0  0  0  0  0  0  0  0  0  0  0
  144.8633  133.2660  150.8928 C   0  0  0  0  0  0  0  0  0  0  0  0
  146.0356  133.1987  151.6706 C   0  0  0  0  0  0  0  0  0  0  0  0
  147.3982  134.1846  155.1425 C   0  0  1  0  0  0  0  0  0  0  0  0
  146.3882  133.5481  155.9079 O   0  0  0  0  0  0  0  0  0  0  0  0
  145.5619  134.7106  156.7785 S   0  0  0  0  0  0  0  0  0  0  0  0
  144.2736  134.9584  156.1136 O   0  0  0  0  0  0  0  0  0  0  0  0
  145.6652  134.3742  158.2067 O   0  0  0  0  0  0  0  0  0  0  0  0
  146.5656  136.0100  156.4718 O   0  0  0  0  0  0  0  0  0  0  0  0
  147.7096  135.5392  155.7834 C   0  0  1  0  0  0  0  0  0  0  0  0
  151.7158  141.7282  158.5811 C   0  0  0  0  0  0  0  0  0  0  0  0
  152.5497  142.5843  159.3356 C   0  0  0  0  0  0  0  0  0  0  0  0
  152.1012  143.8621  159.7229 C   0  0  0  0  0  0  0  0  0  0  0  0
  150.8092  144.2935  159.3686 C   0  0  0  0  0  0  0  0  0  0  0  0
  149.9646  143.4446  158.6291 C   0  0  0  0  0  0  0  0  0  0  0  0
  150.4128  142.1670  158.2404 C   0  0  0  0  0  0  0  0  0  0  0  0
  150.1755  138.7391  153.2958 H   0  0  0  0  0  0  0  0  0  0  0  0
  150.1814  136.0029  159.0900 H   0  0  0  0  0  0  0  0  0  0  0  0
  148.4532  134.8040  157.7260 H   0  0  0  0  0  0  0  0  0  0  0  0
  148.5402  132.4174  155.6956 H   0  0  0  0  0  0  0  0  0  0  0  0
  149.9773  134.1673  153.6644 H   0  0  0  0  0  0  0  0  0  0  0  0
  150.1946  132.4525  153.9977 H   0  0  0  0  0  0  0  0  0  0  0  0
  145.9461  129.8658  152.4505 H   0  0  0  0  0  0  0  0  0  0  0  0
  143.8937  129.9988  151.0864 H   0  0  0  0  0  0  0  0  0  0  0  0
  143.1889  132.1641  150.0855 H   0  0  0  0  0  0  0  0  0  0  0  0
  144.5580  134.2066  150.4584 H   0  0  0  0  0  0  0  0  0  0  0  0
  146.6069  134.1046  151.8125 H   0  0  0  0  0  0  0  0  0  0  0  0
  147.0471  134.2901  154.1153 H   0  0  0  0  0  0  0  0  0  0  0  0
  148.0730  136.2518  155.0425 H   0  0  0  0  0  0  0  0  0  0  0  0
  153.5432  142.2668  159.6183 H   0  0  0  0  0  0  0  0  0  0  0  0
  152.7491  144.5105  160.2940 H   0  0  0  0  0  0  0  0  0  0  0  0
  150.4651  145.2726  159.6671 H   0  0  0  0  0  0  0  0  0  0  0  0
  148.9703  143.7708  158.3618 H   0  0  0  0  0  0  0  0  0  0  0  0
  149.7447  141.5262  157.6829 H   0  0  0  0  0  0  0  0  0  0  0  0
  1  2  2  0  0  0  0
  2  3  1  0  0  0  0
  2 33  1  0  0  0  0
  3  4  1  0  0  0  0
  4  9  1  0  0  0  0
  4  5  2  0  0  0  0
  5  6  1  0  0  0  0
  6  7  2  0  0  0  0
  6 39  1  0  0  0  0
  7  8  1  0  0  0  0
  8 12  1  0  0  0  0
  8  9  2  0  0  0  0
  9 10  1  0  0  0  0
 10 11  2  0  0  0  0
 11 12  1  0  0  0  0
 11 40  1  0  0  0  0
 12 13  1  0  0  0  0
 13 32  1  0  0  0  0
 13 14  1  0  0  0  0
 13 41  1  0  0  0  0
 14 15  1  0  0  0  0
 15 16  1  0  0  0  0
 15 26  1  0  0  0  0
 15 42  1  0  0  0  0
 16 17  1  0  0  0  0
 16 43  1  0  0  0  0
 16 44  1  0  0  0  0
 17 18  1  0  0  0  0
 18 19  2  0  0  0  0
 18 20  1  0  0  0  0
 20 25  1  0  0  0  0
 20 21  2  0  0  0  0
 21 22  1  0  0  0  0
 21 45  1  0  0  0  0
 22 23  2  0  0  0  0
 22 46  1  0  0  0  0
 23 24  1  0  0  0  0
 23 47  1  0  0  0  0
 24 25  2  0  0  0  0
 24 48  1  0  0  0  0
 25 49  1  0  0  0  0
 26 32  1  0  0  0  0
 26 27  1  0  0  0  0
 26 50  1  0  0  0  0
 27 28  1  0  0  0  0
 28 29  2  0  0  0  0
 28 30  2  0  0  0  0
 28 31  1  0  0  0  0
 31 32  1  0  0  0  0
 32 51  1  0  0  0  0
 33 38  1  0  0  0  0
 33 34  2  0  0  0  0
 34 35  1  0  0  0  0
 34 52  1  0  0  0  0
 35 36  2  0  0  0  0
 35 53  1  0  0  0  0
 36 37  1  0  0  0  0
 36 54  1  0  0  0  0
 37 38  2  0  0  0  0
 37 55  1  0  0  0  0
 38 56  1  0  0  0  0
M  CHG  1   3  -1
M  END
> <s_m_source_file>
AV-unprocessed.smi

> <i_m_source_file_index>
1

> <i_lp_mmshare_version>
43012

> <i_f3d_flags>
0

> <s_epik_input>
W2NIXTFbY0hdW2NIXVtjSF1bY0hdYzFDKD1PKVtOSF1jKG5bY0hdbjIpYyhjMjMpbltjSF1uM1tDQEBIXShbQ0BIXShbQ0BIXTQ1KU9TKE81KSg9Tyk9TylPW0NASF00W0NIMl1PQyg9TyljNltjSF1bY0hdW2NIXVtjSF1bY0hdNg==

> <s_epik_cmdline>
J2VwaWtfcHl0aG9uJywgJy1waCcsICc3LjAnLCAnLXRuJywgJzgnLCAnLW1hJywgJzIwMCcsICctbWV0YWxfYmluZGluZycsICctaW1hZScsICc8aW5maWxlLm1hZT4nLCAnLW9tYWUnLCAnPG91dGZpbGUubWFlPic=

> <r_lp_tautomer_probability>
1

> <r_epik_Ionization_Penalty>
4.39121

> <r_epik_Ionization_Penalty_Charging>
3.39398

> <r_epik_Ionization_Penalty_Neutral>
0.997232

> <r_epik_State_Penalty>
3.39839

> <r_epik_Charging_Adjusted_Penalty>
6.79237

> <i_epik_Tot_Q>
-1

> <i_epik_Tot_abs_Q>
1

> <r_epik_Metal_State_Penalty>
0.497663

> <b_epik_Metal_Only>
1

> <s_epik_Chemistry_Notes>
This compound has an ester and may undergo hydrolysis at high or low pH. This compound contains an acetal/aminal-like group ( X-CH(R)-Y where X, Y are N, S, or O) that may be acid/base labile, releasing an aldehyde.

> <s_lp_Force_Field>
OPLS_2005

> <r_lp_Energy>
40.5787

> <b_lp_Chiralities_Consistent>
1

> <s_lp_Variant>
AV-unprocessed.smi:1-23

> <Gold.Version>
5.8.1

> <Gold.Id.Protein>
6NUR|6NUR_protein|mol2

> <Gold.PLP.Fitness>
56.8543

> <Gold.PLP.PLP>
-50.9677

> <Gold.PLP.part.hbond>
-2.0000

> <Gold.PLP.part.metal>
0.0000

> <Gold.PLP.part.buried>
-8.0710

> <Gold.PLP.part.nonpolar>
-41.4611

> <Gold.PLP.part.repulsive>
0.7051

> <Gold.PLP.ligand.clash>
0.0000

> <Gold.PLP.ligand.torsion>
3.2070

> <Gold.PLP.Chemscore.Hbond>
2.9000

> <Gold.PLP.Chemscore.CHOScore>
1.0000

> <Gold.PLP.Chemscore.Metal>
0.0000

> <Gold.Chemscore.Hbonds>
donor molecule, donor type, donor heavy atom, donor atom, acceptor molecule, acceptor atom, score
      P1  H  7989  7998       L1     5  0.86
      P1  H  7997  8009       L1     3  1.79
      L1  C     6    39       P1  7957  0.95

> <Gold.PLP.Chemscore.Internal.Correction>
0.6006

> <Gold.Rescore>
     Score         DG    S(hbond)    S(metal)    S(lipo)     H(rot)  DE(clash)    DE(int)     intcor
     12.35     -18.10       0.90        0.00     128.45       2.11       0.07       5.68       ----

> <Gold.Chemscore.Fitness>
12.3505

> <Gold.Chemscore.DG>
-18.0979

> <Gold.Chemscore.ZeroCoef>
-5.4800

> <Gold.Chemscore.Hbond>
0.8983

> <Gold.Chemscore.Metal>
0.0000

> <Gold.Chemscore.Lipo>
128.4468

> <Gold.Chemscore.Internal_Hbond>
0.0000

> <Gold.Chemscore.DEClash>
0.0698

> <Gold.Chemscore.DEInternal>
5.6776

> <Gold.Chemscore.Rot>
2.1136

> <Gold.Chemscore.Internal.Correction>
   9.000000E+99

> <Gold.Chemscore.Hbonds>
donor molecule, donor type, donor heavy atom, donor atom, acceptor molecule, acceptor atom, score
      P1  H  7989  7998       L1     5  0.46
      P1  H  7997  8009       L1     3  0.37

> <Gold.Chemscore.Hbond.Weighted>
-3.0004

> <Gold.Chemscore.Metal.Weighted>
-0.0000

> <Gold.Chemscore.Lipo.Weighted>
-15.0283

> <Gold.Chemscore.Internal_Hbond.Weighted>
0.0000

> <Gold.Chemscore.DEClash.Weighted>
0.0698

> <Gold.Chemscore.DEInternal.Weighted>
5.6776

> <Gold.Chemscore.Rot.Weighted>
5.4107

> <Gold.Chemscore.Internal.Correction.Weighted>
   9.000000E+99

> <Gold.Protein.RotatedTorsions>
[ 6907 6896 6895 6894 ] final  -54.09 input  -60.11 | X-H torsion
[ 7974 7965 7964 7962 ] final   98.67 input  175.53 | X-H torsion
[ 8008 7997 7996 7995 ] final -171.30 input   59.86 | X-H torsion
[ 10167 10162 10161 10158 ] final -119.05 input  -65.29 | X-H torsion
[ 10718 10713 10712 10709 ] final  -95.60 input   66.30 | X-H torsion
[ 10763 10752 10751 10750 ] final  171.07 input  -60.55 | X-H torsion
[ 11005 11000 10999 10996 ] final -134.78 input  -57.11 | X-H torsion

> <Gold.Protein.ActiveResidues>
 VAL166  LYS551  ARG553  GLY616  TRP617  ASP618  TYR619  PRO620  LYS621  CYS622 
 ASP623  PHE694  ASN695  SER759  ASP760  ASP761  ALA762  ILE779  LEU786  VAL792 
 PHE793  MET794  SER795  GLU796  ALA797  LYS798  CYS799  TRP800  GLU811  SER814 

> <Gold.Protein.RotatedAtoms>
  150.8369  134.7645  159.6899 H   0  0  0  0  0  0  0  0  0  0  0  0  # atno 6907 bound_to 6896
  152.4464  134.5483  159.9869 H   0  0  0  0  0  0  0  0  0  0  0  0  # atno 6908 bound_to 6896
  151.5631  133.3362  159.3011 H   0  0  0  0  0  0  0  0  0  0  0  0  # atno 6909 bound_to 6896
  145.4091  139.2336  143.3258 H   0  0  0  0  0  0  0  0  0  0  0  0  # atno 7974 bound_to 7965
  155.9298  140.1089  157.1141 H   0  0  0  0  0  0  0  0  0  0  0  0  # atno 8008 bound_to 7997
  154.4069  140.1240  156.4853 H   0  0  0  0  0  0  0  0  0  0  0  0  # atno 8009 bound_to 7997
  155.7094  140.3471  155.4969 H   0  0  0  0  0  0  0  0  0  0  0  0  # atno 8010 bound_to 7997
  140.0509  143.5061  152.2082 H   0  0  0  0  0  0  0  0  0  0  0  0  # atno 10167 bound_to 10162
  156.0046  130.5116  150.6101 H   0  0  0  0  0  0  0  0  0  0  0  0  # atno 10718 bound_to 10713
  154.4066  135.2755  155.2063 H   0  0  0  0  0  0  0  0  0  0  0  0  # atno 10763 bound_to 10752
  154.4067  135.6032  153.5932 H   0  0  0  0  0  0  0  0  0  0  0  0  # atno 10764 bound_to 10752
  152.9831  135.5939  154.4341 H   0  0  0  0  0  0  0  0  0  0  0  0  # atno 10765 bound_to 10752
  140.8959  134.1752  157.4495 H   0  0  0  0  0  0  0  0  0  0  0  0  # atno 11005 bound_to 11000
  146.2714  140.4800  142.8813 LP  0  0  0  0  0  0  0  0  0  0  0  0  # atno 17320 bound_to 7965
  144.8321  140.6724  143.6284 LP  0  0  0  0  0  0  0  0  0  0  0  0  # atno 17321 bound_to 7965
  139.5954  144.7565  151.3299 LP  0  0  0  0  0  0  0  0  0  0  0  0  # atno 17342 bound_to 10162
  140.7217  143.7117  150.7764 LP  0  0  0  0  0  0  0  0  0  0  0  0  # atno 17343 bound_to 10162
  157.3935  131.0799  151.1373 LP  0  0  0  0  0  0  0  0  0  0  0  0  # atno 17370 bound_to 10713
  157.2057  130.6415  149.5755 LP  0  0  0  0  0  0  0  0  0  0  0  0  # atno 17371 bound_to 10713
  139.8735  134.9878  156.5383 LP  0  0  0  0  0  0  0  0  0  0  0  0  # atno 17394 bound_to 11000
  140.8290  133.8294  155.8966 LP  0  0  0  0  0  0  0  0  0  0  0  0  # atno 17395 bound_to 11000

$$$$
