AV-unprocessed.smi:3158|AV-procd|sdf|12046|dock1
  -GOLD-   2272017473D 1   1.00000     0.00000
 Structure written by MMmdl.
 39 39  0  0  0  0  0  0  0  0  1 V2000
  147.0552  139.5600  153.0936 C   0  0  0  0  0  0  0  0  0  0  0  0
  147.0505  141.0856  152.9166 C   0  0  0  0  0  0  0  0  0  0  0  0
  147.5430  141.8607  154.1588 C   0  0  1  0  0  0  0  0  0  0  0  0
  146.5782  141.7340  155.3515 C   0  0  0  0  0  0  0  0  0  0  0  0
  148.9158  141.5172  154.5386 N   0  0  0  0  0  0  0  0  0  0  0  0
  149.3478  140.3701  155.0905 C   0  0  0  0  0  0  0  0  0  0  0  0
  148.6115  139.4202  155.3576 O   0  0  0  0  0  0  0  0  0  0  0  0
  150.8472  140.2949  155.4219 C   0  0  2  0  0  0  0  0  0  0  0  0
  151.5388  139.2413  154.5426 C   0  0  0  0  0  0  0  0  0  0  0  0
  151.1106  140.0084  156.8428 N   0  0  0  0  0  0  0  0  0  0  0  0
  150.7588  141.0940  157.7536 C   0  0  0  0  0  0  0  0  0  0  0  0
  151.3204  142.4262  157.2310 C   0  0  0  0  0  0  0  0  0  0  0  0
  151.5644  143.3748  158.3036 N   0  0  0  0  0  0  0  0  0  0  0  0
  151.1735  144.6949  158.3824 C   0  0  0  0  0  0  0  0  0  0  0  0
  151.6190  145.1801  159.5786 C   0  0  0  0  0  0  0  0  0  0  0  0
  152.2817  144.0676  160.1684 C   0  0  0  0  0  0  0  0  0  0  0  0
  152.2474  142.9887  159.4030 N   0  0  0  0  0  0  0  0  0  0  0  0
  146.7559  139.0639  152.1702 H   0  0  0  0  0  0  0  0  0  0  0  0
  146.3626  139.2440  153.8742 H   0  0  0  0  0  0  0  0  0  0  0  0
  148.0488  139.1976  153.3585 H   0  0  0  0  0  0  0  0  0  0  0  0
  147.6900  141.3362  152.0695 H   0  0  0  0  0  0  0  0  0  0  0  0
  146.0487  141.4126  152.6365 H   0  0  0  0  0  0  0  0  0  0  0  0
  147.5751  142.9169  153.8891 H   0  0  0  0  0  0  0  0  0  0  0  0
  145.5902  142.1165  155.0942 H   0  0  0  0  0  0  0  0  0  0  0  0
  146.9372  142.3031  156.2097 H   0  0  0  0  0  0  0  0  0  0  0  0
  146.4545  140.6978  155.6669 H   0  0  0  0  0  0  0  0  0  0  0  0
  149.6103  142.2305  154.3696 H   0  0  0  0  0  0  0  0  0  0  0  0
  151.2987  141.2608  155.1874 H   0  0  0  0  0  0  0  0  0  0  0  0
  151.3719  139.4384  153.4828 H   0  0  0  0  0  0  0  0  0  0  0  0
  151.1738  138.2356  154.7559 H   0  0  0  0  0  0  0  0  0  0  0  0
  152.6166  139.2421  154.7078 H   0  0  0  0  0  0  0  0  0  0  0  0
  150.6590  139.1541  157.1391 H   0  0  0  0  0  0  0  0  0  0  0  0
  149.6726  141.1571  157.8292 H   0  0  0  0  0  0  0  0  0  0  0  0
  151.1419  140.9143  158.7586 H   0  0  0  0  0  0  0  0  0  0  0  0
  152.2413  142.2667  156.6672 H   0  0  0  0  0  0  0  0  0  0  0  0
  150.6082  142.8790  156.5404 H   0  0  0  0  0  0  0  0  0  0  0  0
  150.6139  145.1718  157.5913 H   0  0  0  0  0  0  0  0  0  0  0  0
  151.4907  146.1774  159.9724 H   0  0  0  0  0  0  0  0  0  0  0  0
  152.7829  144.0122  161.1236 H   0  0  0  0  0  0  0  0  0  0  0  0
  1  2  1  0  0  0  0
  1 18  1  0  0  0  0
  1 19  1  0  0  0  0
  1 20  1  0  0  0  0
  2  3  1  0  0  0  0
  2 21  1  0  0  0  0
  2 22  1  0  0  0  0
  3  4  1  0  0  0  0
  3  5  1  0  0  0  0
  3 23  1  0  0  0  0
  4 24  1  0  0  0  0
  4 25  1  0  0  0  0
  4 26  1  0  0  0  0
  5  6  1  0  0  0  0
  5 27  1  0  0  0  0
  6  7  2  0  0  0  0
  6  8  1  0  0  0  0
  8  9  1  0  0  0  0
  8 10  1  0  0  0  0
  8 28  1  0  0  0  0
  9 29  1  0  0  0  0
  9 30  1  0  0  0  0
  9 31  1  0  0  0  0
 10 11  1  0  0  0  0
 10 32  1  0  0  0  0
 11 12  1  0  0  0  0
 11 33  1  0  0  0  0
 11 34  1  0  0  0  0
 12 13  1  0  0  0  0
 12 35  1  0  0  0  0
 12 36  1  0  0  0  0
 13 17  1  0  0  0  0
 13 14  1  0  0  0  0
 14 15  2  0  0  0  0
 14 37  1  0  0  0  0
 15 16  1  0  0  0  0
 15 38  1  0  0  0  0
 16 17  2  0  0  0  0
 16 39  1  0  0  0  0
M  END
> <s_m_source_file>
AV-unprocessed.smi

> <i_m_source_file_index>
3158

> <i_lp_mmshare_version>
43012

> <i_f3d_flags>
0

> <s_epik_input>
W0NIM11bQ0gyXVtDQEhdKFtDSDNdKVtOSF1DKD1PKVtDQEhdKFtDSDNdKVtOSF1bQ0gyXVtDSDJdbjFbY0hdW2NIXVtjSF1uMQ==

> <s_epik_cmdline>
J2VwaWtfcHl0aG9uJywgJy1waCcsICc3LjAnLCAnLXRuJywgJzgnLCAnLW1hJywgJzIwMCcsICctbWV0YWxfYmluZGluZycsICctaW1hZScsICc8aW5maWxlLm1hZT4nLCAnLW9tYWUnLCAnPG91dGZpbGUubWFlPic=

> <r_lp_tautomer_probability>
1

> <r_epik_Ionization_Penalty>
0.724013

> <r_epik_Ionization_Penalty_Charging>
0

> <r_epik_Ionization_Penalty_Neutral>
0.724013

> <r_epik_State_Penalty>
0.74758

> <r_epik_Charging_Adjusted_Penalty>
0.74758

> <i_epik_Tot_Q>
0

> <i_epik_Tot_abs_Q>
0

> <r_epik_Metal_State_Penalty>
0.746846

> <b_epik_Metal_Only>
0

> <s_lp_Force_Field>
OPLS_2005

> <r_lp_Energy>
6.38515

> <b_lp_Chiralities_Consistent>
1

> <s_lp_Variant>
AV-unprocessed.smi:3158-6

> <Gold.Version>
5.8.1

> <Gold.Id.Protein>
6NUR|6NUR_protein|mol2

> <Gold.PLP.Fitness>
39.5374

> <Gold.PLP.PLP>
-37.1711

> <Gold.PLP.part.hbond>
0.0000

> <Gold.PLP.part.metal>
0.0000

> <Gold.PLP.part.buried>
-5.2614

> <Gold.PLP.part.nonpolar>
-31.1037

> <Gold.PLP.part.repulsive>
0.2295

> <Gold.PLP.ligand.clash>
0.0000

> <Gold.PLP.ligand.torsion>
0.5044

> <Gold.PLP.Chemscore.Hbond>
0.0000

> <Gold.PLP.Chemscore.CHOScore>
1.0000

> <Gold.PLP.Chemscore.Metal>
0.0000

> <Gold.Chemscore.Hbonds>
donor molecule, donor type, donor heavy atom, donor atom, acceptor molecule, acceptor atom, score
      L1  C    14    37       P1  8028  0.68
      L1  C    14    37       P1  8029  0.07

> <Gold.PLP.Chemscore.Internal.Correction>
0.3752

> <Gold.Rescore>
     Score         DG    S(hbond)    S(metal)    S(lipo)     H(rot)  DE(clash)    DE(int)     intcor
      8.88     -10.74       0.00        0.00      91.43       2.12       0.13       1.73       ----

> <Gold.Chemscore.Fitness>
8.8806

> <Gold.Chemscore.DG>
-10.7415

> <Gold.Chemscore.ZeroCoef>
-5.4800

> <Gold.Chemscore.Hbond>
0.0000

> <Gold.Chemscore.Metal>
0.0000

> <Gold.Chemscore.Lipo>
91.4306

> <Gold.Chemscore.Internal_Hbond>
0.0000

> <Gold.Chemscore.DEClash>
0.1267

> <Gold.Chemscore.DEInternal>
1.7342

> <Gold.Chemscore.Rot>
2.1234

> <Gold.Chemscore.Internal.Correction>
   9.000000E+99

> <Gold.Chemscore.Hbond.Weighted>
-0.0000

> <Gold.Chemscore.Metal.Weighted>
-0.0000

> <Gold.Chemscore.Lipo.Weighted>
-10.6974

> <Gold.Chemscore.Internal_Hbond.Weighted>
0.0000

> <Gold.Chemscore.DEClash.Weighted>
0.1267

> <Gold.Chemscore.DEInternal.Weighted>
1.7342

> <Gold.Chemscore.Rot.Weighted>
5.4359

> <Gold.Chemscore.Internal.Correction.Weighted>
   9.000000E+99

> <Gold.Protein.RotatedTorsions>
[ 6907 6896 6895 6894 ] final   -8.74 input  -60.11 | X-H torsion
[ 7974 7965 7964 7962 ] final  -36.06 input  175.53 | X-H torsion
[ 8008 7997 7996 7995 ] final -132.54 input   59.86 | X-H torsion
[ 10167 10162 10161 10158 ] final   16.37 input  -65.29 | X-H torsion
[ 10718 10713 10712 10709 ] final   59.92 input   66.30 | X-H torsion
[ 10763 10752 10751 10750 ] final -162.27 input  -60.55 | X-H torsion
[ 11005 11000 10999 10996 ] final  -74.09 input  -57.11 | X-H torsion

> <Gold.Protein.ActiveResidues>
 VAL166  LYS551  ARG553  GLY616  TRP617  ASP618  TYR619  PRO620  LYS621  CYS622 
 ASP623  PHE694  ASN695  SER759  ASP760  ASP761  ALA762  ILE779  LEU786  VAL792 
 PHE793  MET794  SER795  GLU796  ALA797  LYS798  CYS799  TRP800  GLU811  SER814 

> <Gold.Protein.RotatedAtoms>
  151.4288  135.1007  159.9635 H   0  0  0  0  0  0  0  0  0  0  0  0  # atno 6907 bound_to 6896
  152.4963  133.8637  159.7273 H   0  0  0  0  0  0  0  0  0  0  0  0  # atno 6908 bound_to 6896
  150.9170  133.6869  159.2869 H   0  0  0  0  0  0  0  0  0  0  0  0  # atno 6909 bound_to 6896
  146.0693  140.6234  142.8960 H   0  0  0  0  0  0  0  0  0  0  0  0  # atno 7974 bound_to 7965
  155.3305  140.0467  157.3042 H   0  0  0  0  0  0  0  0  0  0  0  0  # atno 8008 bound_to 7997
  154.5331  140.2263  155.8736 H   0  0  0  0  0  0  0  0  0  0  0  0  # atno 8009 bound_to 7997
  156.1808  140.3074  155.9151 H   0  0  0  0  0  0  0  0  0  0  0  0  # atno 8010 bound_to 7997
  140.5802  143.8996  150.6783 H   0  0  0  0  0  0  0  0  0  0  0  0  # atno 10167 bound_to 10162
  157.5713  130.8909  149.9272 H   0  0  0  0  0  0  0  0  0  0  0  0  # atno 10718 bound_to 10713
  154.7229  135.3029  154.9018 H   0  0  0  0  0  0  0  0  0  0  0  0  # atno 10763 bound_to 10752
  153.9884  135.6721  153.4757 H   0  0  0  0  0  0  0  0  0  0  0  0  # atno 10764 bound_to 10752
  153.0849  135.4989  154.8496 H   0  0  0  0  0  0  0  0  0  0  0  0  # atno 10765 bound_to 10752
  141.1631  133.6900  156.7311 H   0  0  0  0  0  0  0  0  0  0  0  0  # atno 11005 bound_to 11000
  144.7222  140.4410  143.7000 LP  0  0  0  0  0  0  0  0  0  0  0  0  # atno 17320 bound_to 7965
  145.6420  139.1551  143.2910 LP  0  0  0  0  0  0  0  0  0  0  0  0  # atno 17321 bound_to 7965
  140.2493  143.3605  152.1419 LP  0  0  0  0  0  0  0  0  0  0  0  0  # atno 17342 bound_to 10162
  139.5165  144.6979  151.5579 LP  0  0  0  0  0  0  0  0  0  0  0  0  # atno 17343 bound_to 10162
  156.0758  130.3679  150.0680 LP  0  0  0  0  0  0  0  0  0  0  0  0  # atno 17370 bound_to 10713
  156.8832  130.9564  151.3597 LP  0  0  0  0  0  0  0  0  0  0  0  0  # atno 17371 bound_to 10713
  140.2744  134.8366  157.3876 LP  0  0  0  0  0  0  0  0  0  0  0  0  # atno 17394 bound_to 11000
  140.1491  134.4872  155.7974 LP  0  0  0  0  0  0  0  0  0  0  0  0  # atno 17395 bound_to 11000

$$$$
