AV-unprocessed.smi:2454|AV-procd|sdf|9697|dock5
  -GOLD-   2272013333D 1   1.00000     0.00000
 Structure written by MMmdl.
 42 43  0  0  0  0  0  0  0  0  1 V2000
  155.2010  141.7455  170.7915 C   0  0  0  0  0  0  0  0  0  0  0  0
  155.4016  141.2796  169.4687 O   0  0  0  0  0  0  0  0  0  0  0  0
  154.9649  142.2108  168.4932 C   0  0  0  0  0  0  0  0  0  0  0  0
  155.8754  142.2095  167.2828 C   0  0  0  0  0  0  0  0  0  0  0  0
  155.3982  141.8405  166.0074 C   0  0  0  0  0  0  0  0  0  0  0  0
  156.3172  141.8771  164.9342 C   0  0  0  0  0  0  0  0  0  0  0  0
  155.7850  141.4938  163.6679 N   0  0  0  0  0  0  0  0  0  0  0  0
  154.5956  141.7519  163.0828 C   0  0  0  0  0  0  0  0  0  0  0  0
  153.7421  142.4288  163.6540 O   0  0  0  0  0  0  0  0  0  0  0  0
  154.4093  141.2302  161.8591 N   0  0  0  0  0  0  0  0  0  0  0  0
  153.2130  141.3844  161.0381 C   0  0  2  0  0  0  0  0  0  0  0  0
  153.2388  140.4018  159.8508 C   0  0  0  0  0  0  0  0  0  0  0  0
  152.0269  140.6096  158.9304 C   0  0  0  0  0  0  0  0  0  0  0  0
  151.9380  142.0644  158.4433 C   0  0  0  0  0  0  0  0  0  0  0  0
  151.8976  143.0580  159.6237 C   0  0  2  0  0  0  0  0  0  0  0  0
  151.7887  144.5205  159.1455 C   0  0  0  0  0  0  0  0  0  0  0  0
  151.8741  145.3646  160.1742 F   0  0  0  0  0  0  0  0  0  0  0  0
  152.7679  144.7922  158.2829 F   0  0  0  0  0  0  0  0  0  0  0  0
  150.6245  144.7133  158.5252 F   0  0  0  0  0  0  0  0  0  0  0  0
  153.1190  142.8393  160.5418 C   0  0  0  0  0  0  0  0  0  0  0  0
  157.6003  142.2588  165.1621 N   0  0  0  0  0  0  0  0  0  0  0  0
  157.9474  142.5899  166.4081 C   0  0  0  0  0  0  0  0  0  0  0  0
  157.1564  142.5860  167.4812 N   0  0  0  0  0  0  0  0  0  0  0  0
  155.5520  140.9962  171.5008 H   0  0  0  0  0  0  0  0  0  0  0  0
  154.1437  141.9277  170.9899 H   0  0  0  0  0  0  0  0  0  0  0  0
  155.7554  142.6671  170.9732 H   0  0  0  0  0  0  0  0  0  0  0  0
  153.9470  141.9735  168.1787 H   0  0  0  0  0  0  0  0  0  0  0  0
  154.9419  143.2146  168.9207 H   0  0  0  0  0  0  0  0  0  0  0  0
  154.3691  141.5450  165.8618 H   0  0  0  0  0  0  0  0  0  0  0  0
  156.4094  140.9313  163.1085 H   0  0  0  0  0  0  0  0  0  0  0  0
  155.1640  140.6855  161.4651 H   0  0  0  0  0  0  0  0  0  0  0  0
  152.3332  141.1773  161.6504 H   0  0  0  0  0  0  0  0  0  0  0  0
  154.1564  140.5385  159.2768 H   0  0  0  0  0  0  0  0  0  0  0  0
  153.2504  139.3727  160.2115 H   0  0  0  0  0  0  0  0  0  0  0  0
  152.0905  139.9353  158.0759 H   0  0  0  0  0  0  0  0  0  0  0  0
  151.1130  140.3463  159.4644 H   0  0  0  0  0  0  0  0  0  0  0  0
  152.7931  142.2844  157.8031 H   0  0  0  0  0  0  0  0  0  0  0  0
  151.0499  142.1829  157.8221 H   0  0  0  0  0  0  0  0  0  0  0  0
  151.0026  142.8402  160.2083 H   0  0  0  0  0  0  0  0  0  0  0  0
  153.0625  143.5115  161.3988 H   0  0  0  0  0  0  0  0  0  0  0  0
  154.0315  143.1030  160.0047 H   0  0  0  0  0  0  0  0  0  0  0  0
  158.9732  142.8903  166.5622 H   0  0  0  0  0  0  0  0  0  0  0  0
  1  2  1  0  0  0  0
  1 24  1  0  0  0  0
  1 25  1  0  0  0  0
  1 26  1  0  0  0  0
  2  3  1  0  0  0  0
  3  4  1  0  0  0  0
  3 27  1  0  0  0  0
  3 28  1  0  0  0  0
  4 23  1  0  0  0  0
  4  5  2  0  0  0  0
  5  6  1  0  0  0  0
  5 29  1  0  0  0  0
  6  7  1  0  0  0  0
  6 21  2  0  0  0  0
  7  8  1  0  0  0  0
  7 30  1  0  0  0  0
  8  9  2  0  0  0  0
  8 10  1  0  0  0  0
 10 11  1  0  0  0  0
 10 31  1  0  0  0  0
 11 20  1  0  0  0  0
 11 12  1  0  0  0  0
 11 32  1  0  0  0  0
 12 13  1  0  0  0  0
 12 33  1  0  0  0  0
 12 34  1  0  0  0  0
 13 14  1  0  0  0  0
 13 35  1  0  0  0  0
 13 36  1  0  0  0  0
 14 15  1  0  0  0  0
 14 37  1  0  0  0  0
 14 38  1  0  0  0  0
 15 16  1  0  0  0  0
 15 20  1  0  0  0  0
 15 39  1  0  0  0  0
 16 17  1  0  0  0  0
 16 18  1  0  0  0  0
 16 19  1  0  0  0  0
 20 40  1  0  0  0  0
 20 41  1  0  0  0  0
 21 22  1  0  0  0  0
 22 23  2  0  0  0  0
 22 42  1  0  0  0  0
M  END
> <s_m_source_file>
AV-unprocessed.smi

> <i_m_source_file_index>
2454

> <i_lp_mmshare_version>
43012

> <i_f3d_flags>
0

> <s_epik_input>
W0NIM11PW0NIMl1jMVtjSF1jKG5bY0hdbjEpW05IXUMoPU8pW05IXVtDQEBIXTJbQ0gyXVtDSDJdW0NIMl1bQ0BASF0oQyhGKShGKUYpW0NIMl0y

> <s_epik_cmdline>
J2VwaWtfcHl0aG9uJywgJy1waCcsICc3LjAnLCAnLXRuJywgJzgnLCAnLW1hJywgJzIwMCcsICctbWV0YWxfYmluZGluZycsICctaW1hZScsICc8aW5maWxlLm1hZT4nLCAnLW9tYWUnLCAnPG91dGZpbGUubWFlPic=

> <r_lp_tautomer_probability>
1

> <r_epik_Ionization_Penalty>
3.01554e-05

> <r_epik_Ionization_Penalty_Charging>
0

> <r_epik_Ionization_Penalty_Neutral>
3.01554e-05

> <r_epik_State_Penalty>
-0

> <r_epik_Charging_Adjusted_Penalty>
0

> <i_epik_Tot_Q>
0

> <i_epik_Tot_abs_Q>
0

> <r_epik_Metal_State_Penalty>
-0

> <b_epik_Metal_Only>
0

> <s_lp_Force_Field>
OPLS_2005

> <r_lp_Energy>
14.2483

> <b_lp_Chiralities_Consistent>
1

> <s_lp_Variant>
AV-unprocessed.smi:2454-3

> <Gold.Version>
5.8.1

> <Gold.Id.Protein>
6NUR|6NUR_protein|mol2

> <Gold.PLP.Fitness>
42.7051

> <Gold.PLP.PLP>
-44.1993

> <Gold.PLP.part.hbond>
-2.1128

> <Gold.PLP.part.metal>
0.0000

> <Gold.PLP.part.buried>
-1.9425

> <Gold.PLP.part.nonpolar>
-41.1927

> <Gold.PLP.part.repulsive>
0.2179

> <Gold.PLP.ligand.clash>
0.0000

> <Gold.PLP.ligand.torsion>
0.7779

> <Gold.PLP.Chemscore.Hbond>
0.0000

> <Gold.PLP.Chemscore.CHOScore>
0.0000

> <Gold.PLP.Chemscore.Metal>
0.0000

> <Gold.PLP.Chemscore.Internal.Correction>
0.0616

> <Gold.Rescore>
     Score         DG    S(hbond)    S(metal)    S(lipo)     H(rot)  DE(clash)    DE(int)     intcor
      7.66     -12.80       0.00        0.00      97.63       1.60       2.99       2.14       ----

> <Gold.Chemscore.Fitness>
7.6630

> <Gold.Chemscore.DG>
-12.7981

> <Gold.Chemscore.ZeroCoef>
-5.4800

> <Gold.Chemscore.Hbond>
0.0000

> <Gold.Chemscore.Metal>
0.0000

> <Gold.Chemscore.Lipo>
97.6334

> <Gold.Chemscore.Internal_Hbond>
0.0000

> <Gold.Chemscore.DEClash>
2.9903

> <Gold.Chemscore.DEInternal>
2.1448

> <Gold.Chemscore.Rot>
1.6035

> <Gold.Chemscore.Internal.Correction>
   9.000000E+99

> <Gold.Chemscore.Hbond.Weighted>
-0.0000

> <Gold.Chemscore.Metal.Weighted>
-0.0000

> <Gold.Chemscore.Lipo.Weighted>
-11.4231

> <Gold.Chemscore.Internal_Hbond.Weighted>
0.0000

> <Gold.Chemscore.DEClash.Weighted>
2.9903

> <Gold.Chemscore.DEInternal.Weighted>
2.1448

> <Gold.Chemscore.Rot.Weighted>
4.1050

> <Gold.Chemscore.Internal.Correction.Weighted>
   9.000000E+99

> <Gold.Protein.RotatedTorsions>
[ 6907 6896 6895 6894 ] final  130.36 input  -60.11 | X-H torsion
[ 7974 7965 7964 7962 ] final  -45.92 input  175.53 | X-H torsion
[ 8008 7997 7996 7995 ] final   25.26 input   59.86 | X-H torsion
[ 10167 10162 10161 10158 ] final -176.73 input  -65.29 | X-H torsion
[ 10718 10713 10712 10709 ] final   80.58 input   66.30 | X-H torsion
[ 10763 10752 10751 10750 ] final  137.04 input  -60.55 | X-H torsion
[ 11005 11000 10999 10996 ] final  108.13 input  -57.11 | X-H torsion

> <Gold.Protein.ActiveResidues>
 VAL166  LYS551  ARG553  GLY616  TRP617  ASP618  TYR619  PRO620  LYS621  CYS622 
 ASP623  PHE694  ASN695  SER759  ASP760  ASP761  ALA762  ILE779  LEU786  VAL792 
 PHE793  MET794  SER795  GLU796  ALA797  LYS798  CYS799  TRP800  GLU811  SER814 

> <Gold.Protein.RotatedAtoms>
  152.3533  133.6207  159.5960 H   0  0  0  0  0  0  0  0  0  0  0  0  # atno 6907 bound_to 6896
  150.7552  133.9539  159.3503 H   0  0  0  0  0  0  0  0  0  0  0  0  # atno 6908 bound_to 6896
  151.7388  135.0860  160.0363 H   0  0  0  0  0  0  0  0  0  0  0  0  # atno 6909 bound_to 6896
  145.9772  140.7322  142.9381 H   0  0  0  0  0  0  0  0  0  0  0  0  # atno 7974 bound_to 7965
  155.0090  140.3134  155.4837 H   0  0  0  0  0  0  0  0  0  0  0  0  # atno 8008 bound_to 7997
  156.2912  140.2218  156.5145 H   0  0  0  0  0  0  0  0  0  0  0  0  # atno 8009 bound_to 7997
  154.7551  140.0463  157.0914 H   0  0  0  0  0  0  0  0  0  0  0  0  # atno 8010 bound_to 7997
  139.5515  144.2098  152.1085 H   0  0  0  0  0  0  0  0  0  0  0  0  # atno 10167 bound_to 10162
  157.6810  130.9966  150.2101 H   0  0  0  0  0  0  0  0  0  0  0  0  # atno 10718 bound_to 10713
  153.8665  135.3061  155.3440 H   0  0  0  0  0  0  0  0  0  0  0  0  # atno 10763 bound_to 10752
  154.7825  135.4828  153.9878 H   0  0  0  0  0  0  0  0  0  0  0  0  # atno 10764 bound_to 10752
  153.1431  135.6828  153.9092 H   0  0  0  0  0  0  0  0  0  0  0  0  # atno 10765 bound_to 10752
  139.8839  134.9421  156.5926 H   0  0  0  0  0  0  0  0  0  0  0  0  # atno 11005 bound_to 11000
  144.6852  140.2847  143.7287 LP  0  0  0  0  0  0  0  0  0  0  0  0  # atno 17320 bound_to 7965
  145.7822  139.1895  143.2151 LP  0  0  0  0  0  0  0  0  0  0  0  0  # atno 17321 bound_to 7965
  140.1594  144.5040  150.6641 LP  0  0  0  0  0  0  0  0  0  0  0  0  # atno 17342 bound_to 10162
  140.6778  143.2313  151.5462 LP  0  0  0  0  0  0  0  0  0  0  0  0  # atno 17343 bound_to 10162
  156.2773  130.3729  149.7970 LP  0  0  0  0  0  0  0  0  0  0  0  0  # atno 17370 bound_to 10713
  156.5669  130.8408  151.3345 LP  0  0  0  0  0  0  0  0  0  0  0  0  # atno 17371 bound_to 10713
  140.7944  133.8556  155.8673 LP  0  0  0  0  0  0  0  0  0  0  0  0  # atno 17394 bound_to 11000
  140.9648  134.1608  157.4624 LP  0  0  0  0  0  0  0  0  0  0  0  0  # atno 17395 bound_to 11000

$$$$
