AV-unprocessed.smi:104|AV-procd|sdf|1000|dock8
  -GOLD-   2262017583D 1   1.00000     0.00000
 Structure written by MMmdl.
 47 49  0  0  0  0  0  0  0  0  1 V2000
  152.8322  142.5016  160.4273 C   0  0  0  0  0  0  0  0  0  0  0  0
  152.3592  142.9817  159.0612 C   0  0  0  0  0  0  0  0  0  0  0  0
  152.6278  144.1103  158.6497 O   0  0  0  0  0  0  0  0  0  0  0  0
  151.6518  142.0501  158.4050 O   0  0  0  0  0  0  0  0  0  0  0  0
  151.2047  142.3045  157.0828 C   0  0  0  0  0  0  0  0  0  0  0  0
  151.3639  141.0370  156.2209 C   0  0  1  0  0  0  0  0  0  0  0  0
  152.3132  140.1921  156.8552 O   0  0  0  0  0  0  0  0  0  0  0  0
  151.6657  139.3695  157.7771 C   0  0  2  0  0  0  0  0  0  0  0  0
  152.3094  138.0177  157.7138 N   0  0  0  0  0  0  0  0  0  0  0  0
  152.3121  137.1052  156.6839 C   0  0  0  0  0  0  0  0  0  0  0  0
  151.4329  137.4354  155.0271 Br  0  0  0  0  0  0  0  0  0  0  0  0
  152.9648  135.9929  156.8750 N   0  0  0  0  0  0  0  0  0  0  0  0
  153.4709  136.1526  158.1591 C   0  0  0  0  0  0  0  0  0  0  0  0
  154.2769  135.3516  159.0065 C   0  0  0  0  0  0  0  0  0  0  0  0
  154.7359  134.1438  158.6511 N   0  0  0  0  0  0  0  0  0  0  0  0
  154.6024  135.8285  160.2306 N   0  0  0  0  0  0  0  0  0  0  0  0
  154.1605  137.0324  160.6081 C   0  0  0  0  0  0  0  0  0  0  0  0
  153.4001  137.8946  159.9281 N   0  0  0  0  0  0  0  0  0  0  0  0
  153.0697  137.4114  158.6942 C   0  0  0  0  0  0  0  0  0  0  0  0
  150.1649  139.3339  157.4118 C   0  0  2  0  0  0  0  0  0  0  0  0
  149.6886  138.0076  157.2015 O   0  0  0  0  0  0  0  0  0  0  0  0
  149.3298  137.2395  158.2413 C   0  0  0  0  0  0  0  0  0  0  0  0
  148.9686  135.8234  157.8139 C   0  0  0  0  0  0  0  0  0  0  0  0
  149.2789  137.5901  159.4200 O   0  0  0  0  0  0  0  0  0  0  0  0
  150.1182  140.1452  156.1248 C   0  0  1  0  0  0  0  0  0  0  0  0
  148.9009  140.8762  156.0426 O   0  0  0  0  0  0  0  0  0  0  0  0
  148.5369  141.4546  154.8858 C   0  0  0  0  0  0  0  0  0  0  0  0
  147.1750  142.1288  154.9789 C   0  0  0  0  0  0  0  0  0  0  0  0
  149.1956  141.4753  153.8463 O   0  0  0  0  0  0  0  0  0  0  0  0
  152.6948  141.4247  160.5306 H   0  0  0  0  0  0  0  0  0  0  0  0
  152.2704  143.0000  161.2171 H   0  0  0  0  0  0  0  0  0  0  0  0
  153.8904  142.7269  160.5598 H   0  0  0  0  0  0  0  0  0  0  0  0
  150.1529  142.5890  157.1303 H   0  0  0  0  0  0  0  0  0  0  0  0
  151.7459  143.1402  156.6365 H   0  0  0  0  0  0  0  0  0  0  0  0
  151.7329  141.3090  155.2314 H   0  0  0  0  0  0  0  0  0  0  0  0
  151.8443  139.7296  158.7897 H   0  0  0  0  0  0  0  0  0  0  0  0
  154.5094  133.7673  157.7419 H   0  0  0  0  0  0  0  0  0  0  0  0
  155.3064  133.6124  159.2926 H   0  0  0  0  0  0  0  0  0  0  0  0
  154.4593  137.3510  161.5958 H   0  0  0  0  0  0  0  0  0  0  0  0
  149.6247  139.8397  158.2140 H   0  0  0  0  0  0  0  0  0  0  0  0
  149.7712  135.3913  157.2161 H   0  0  0  0  0  0  0  0  0  0  0  0
  148.0569  135.8304  157.2165 H   0  0  0  0  0  0  0  0  0  0  0  0
  148.8067  135.1888  158.6854 H   0  0  0  0  0  0  0  0  0  0  0  0
  150.2304  139.4638  155.2795 H   0  0  0  0  0  0  0  0  0  0  0  0
  146.3960  141.3848  155.1457 H   0  0  0  0  0  0  0  0  0  0  0  0
  146.9496  142.6656  154.0571 H   0  0  0  0  0  0  0  0  0  0  0  0
  147.1594  142.8402  155.8046 H   0  0  0  0  0  0  0  0  0  0  0  0
  1  2  1  0  0  0  0
  1 30  1  0  0  0  0
  1 31  1  0  0  0  0
  1 32  1  0  0  0  0
  2  3  2  0  0  0  0
  2  4  1  0  0  0  0
  4  5  1  0  0  0  0
  5  6  1  0  0  0  0
  5 33  1  0  0  0  0
  5 34  1  0  0  0  0
  6 25  1  0  0  0  0
  6  7  1  0  0  0  0
  6 35  1  0  0  0  0
  7  8  1  0  0  0  0
  8  9  1  0  0  0  0
  8 20  1  0  0  0  0
  8 36  1  0  0  0  0
  9 19  1  0  0  0  0
  9 10  1  0  0  0  0
 10 11  1  0  0  0  0
 10 12  2  0  0  0  0
 12 13  1  0  0  0  0
 13 19  2  0  0  0  0
 13 14  1  0  0  0  0
 14 15  1  0  0  0  0
 14 16  2  0  0  0  0
 15 37  1  0  0  0  0
 15 38  1  0  0  0  0
 16 17  1  0  0  0  0
 17 18  2  0  0  0  0
 17 39  1  0  0  0  0
 18 19  1  0  0  0  0
 20 21  1  0  0  0  0
 20 25  1  0  0  0  0
 20 40  1  0  0  0  0
 21 22  1  0  0  0  0
 22 23  1  0  0  0  0
 22 24  2  0  0  0  0
 23 41  1  0  0  0  0
 23 42  1  0  0  0  0
 23 43  1  0  0  0  0
 25 26  1  0  0  0  0
 25 44  1  0  0  0  0
 26 27  1  0  0  0  0
 27 28  1  0  0  0  0
 27 29  2  0  0  0  0
 28 45  1  0  0  0  0
 28 46  1  0  0  0  0
 28 47  1  0  0  0  0
M  END
> <s_m_source_file>
AV-unprocessed.smi

> <i_m_source_file_index>
104

> <i_lp_mmshare_version>
43012

> <i_f3d_flags>
0

> <s_epik_input>
W0NIM11DKD1PKU9bQ0gyXVtDQEBIXTFPW0NASF0oW0NAQEhdKE9DKD1PKVtDSDNdKVtDQEhdMU9DKD1PKVtDSDNdKW4oYyhCciluMiljKGMyMyluW2NIXW5jM1tOSDJd

> <s_epik_cmdline>
J2VwaWtfcHl0aG9uJywgJy1waCcsICc3LjAnLCAnLXRuJywgJzgnLCAnLW1hJywgJzIwMCcsICctbWV0YWxfYmluZGluZycsICctaW1hZScsICc8aW5maWxlLm1hZT4nLCAnLW9tYWUnLCAnPG91dGZpbGUubWFlPic=

> <r_lp_tautomer_probability>
1

> <r_epik_Ionization_Penalty>
7.36622e-05

> <r_epik_Ionization_Penalty_Charging>
0

> <r_epik_Ionization_Penalty_Neutral>
7.36622e-05

> <r_epik_State_Penalty>
-0

> <r_epik_Charging_Adjusted_Penalty>
0

> <i_epik_Tot_Q>
0

> <i_epik_Tot_abs_Q>
0

> <r_epik_Metal_State_Penalty>
-0

> <b_epik_Metal_Only>
0

> <s_epik_Chemistry_Notes>
This compound has an ester and may undergo hydrolysis at high or low pH. This compound contains an acetal/aminal-like group ( X-CH(R)-Y where X, Y are N, S, or O) that may be acid/base labile, releasing an aldehyde.

> <s_lp_Force_Field>
OPLS_2005

> <r_lp_Energy>
18.9649

> <b_lp_Chiralities_Consistent>
1

> <s_lp_Variant>
AV-unprocessed.smi:104-8

> <Gold.Version>
5.8.1

> <Gold.Id.Protein>
6NUR|6NUR_protein|mol2

> <Gold.PLP.Fitness>
42.3222

> <Gold.PLP.PLP>
-36.3411

> <Gold.PLP.part.hbond>
-5.0000

> <Gold.PLP.part.metal>
0.0000

> <Gold.PLP.part.buried>
-6.2987

> <Gold.PLP.part.nonpolar>
-25.6827

> <Gold.PLP.part.repulsive>
1.1824

> <Gold.PLP.ligand.clash>
0.0000

> <Gold.PLP.ligand.torsion>
1.2472

> <Gold.PLP.Chemscore.Hbond>
2.7760

> <Gold.PLP.Chemscore.CHOScore>
0.0000

> <Gold.PLP.Chemscore.Metal>
0.0000

> <Gold.Chemscore.Hbonds>
donor molecule, donor type, donor heavy atom, donor atom, acceptor molecule, acceptor atom, score
      P1  H  7997  8008       L1     7  0.91
      P1  H  8011  8017       L1    29  0.74
      P1  H 10752 10763       L1    12  1.00

> <Gold.PLP.Chemscore.Internal.Correction>
0.1475

> <Gold.Rescore>
     Score         DG    S(hbond)    S(metal)    S(lipo)     H(rot)  DE(clash)    DE(int)     intcor
      4.84      -9.07       2.55        0.00      52.04       4.31       0.13       4.10       ----

> <Gold.Chemscore.Fitness>
4.8363

> <Gold.Chemscore.DG>
-9.0699

> <Gold.Chemscore.ZeroCoef>
-5.4800

> <Gold.Chemscore.Hbond>
2.5530

> <Gold.Chemscore.Metal>
0.0000

> <Gold.Chemscore.Lipo>
52.0396

> <Gold.Chemscore.Internal_Hbond>
0.0000

> <Gold.Chemscore.DEClash>
0.1340

> <Gold.Chemscore.DEInternal>
4.0996

> <Gold.Chemscore.Rot>
4.3070

> <Gold.Chemscore.Internal.Correction>
   9.000000E+99

> <Gold.Chemscore.Hbonds>
donor molecule, donor type, donor heavy atom, donor atom, acceptor molecule, acceptor atom, score
      P1  H  7997  8008       L1     7  0.82
      P1  H  8011  8017       L1    29  0.74
      P1  H 10752 10763       L1    12  0.86

> <Gold.Chemscore.Hbond.Weighted>
-8.5271

> <Gold.Chemscore.Metal.Weighted>
-0.0000

> <Gold.Chemscore.Lipo.Weighted>
-6.0886

> <Gold.Chemscore.Internal_Hbond.Weighted>
0.0000

> <Gold.Chemscore.DEClash.Weighted>
0.1340

> <Gold.Chemscore.DEInternal.Weighted>
4.0996

> <Gold.Chemscore.Rot.Weighted>
11.0259

> <Gold.Chemscore.Internal.Correction.Weighted>
   9.000000E+99

> <Gold.Protein.RotatedTorsions>
[ 6907 6896 6895 6894 ] final  -19.89 input  -60.11 | X-H torsion
[ 7974 7965 7964 7962 ] final  138.32 input  175.53 | X-H torsion
[ 8008 7997 7996 7995 ] final  -59.76 input   59.86 | X-H torsion
[ 10167 10162 10161 10158 ] final  135.51 input  -65.29 | X-H torsion
[ 10718 10713 10712 10709 ] final   71.29 input   66.30 | X-H torsion
[ 10763 10752 10751 10750 ] final  135.30 input  -60.55 | X-H torsion
[ 11005 11000 10999 10996 ] final  131.89 input  -57.11 | X-H torsion

> <Gold.Protein.ActiveResidues>
 VAL166  LYS551  ARG553  GLY616  TRP617  ASP618  TYR619  PRO620  LYS621  CYS622 
 ASP623  PHE694  ASN695  SER759  ASP760  ASP761  ALA762  ILE779  LEU786  VAL792 
 PHE793  MET794  SER795  GLU796  ALA797  LYS798  CYS799  TRP800  GLU811  SER814 

> <Gold.Protein.RotatedAtoms>
  151.2563  135.0639  159.9080 H   0  0  0  0  0  0  0  0  0  0  0  0  # atno 6907 bound_to 6896
  152.5373  134.0279  159.8021 H   0  0  0  0  0  0  0  0  0  0  0  0  # atno 6908 bound_to 6896
  151.0495  133.5587  159.2675 H   0  0  0  0  0  0  0  0  0  0  0  0  # atno 6909 bound_to 6896
  144.9384  139.4961  143.5584 H   0  0  0  0  0  0  0  0  0  0  0  0  # atno 7974 bound_to 7965
  154.4367  140.1054  156.6166 H   0  0  0  0  0  0  0  0  0  0  0  0  # atno 8008 bound_to 7997
  155.5752  140.3490  155.4507 H   0  0  0  0  0  0  0  0  0  0  0  0  # atno 8009 bound_to 7997
  156.0360  140.1271  157.0197 H   0  0  0  0  0  0  0  0  0  0  0  0  # atno 8010 bound_to 7997
  139.5214  144.6513  151.5294 H   0  0  0  0  0  0  0  0  0  0  0  0  # atno 10167 bound_to 10162
  157.6444  130.9521  150.0769 H   0  0  0  0  0  0  0  0  0  0  0  0  # atno 10718 bound_to 10713
  153.8377  135.3095  155.3424 H   0  0  0  0  0  0  0  0  0  0  0  0  # atno 10763 bound_to 10752
  154.7946  135.4763  154.0134 H   0  0  0  0  0  0  0  0  0  0  0  0  # atno 10764 bound_to 10752
  153.1595  135.6858  153.8855 H   0  0  0  0  0  0  0  0  0  0  0  0  # atno 10765 bound_to 10752
  139.9757  134.9564  156.9503 H   0  0  0  0  0  0  0  0  0  0  0  0  # atno 11005 bound_to 11000
  146.3276  139.8384  142.8895 LP  0  0  0  0  0  0  0  0  0  0  0  0  # atno 17320 bound_to 7965
  145.3031  141.0199  143.3597 LP  0  0  0  0  0  0  0  0  0  0  0  0  # atno 17321 bound_to 7965
  140.6319  143.9059  150.6613 LP  0  0  0  0  0  0  0  0  0  0  0  0  # atno 17342 bound_to 10162
  140.2366  143.3695  152.1521 LP  0  0  0  0  0  0  0  0  0  0  0  0  # atno 17343 bound_to 10162
  156.1757  130.3648  149.9104 LP  0  0  0  0  0  0  0  0  0  0  0  0  # atno 17370 bound_to 10713
  156.7068  130.8955  151.3605 LP  0  0  0  0  0  0  0  0  0  0  0  0  # atno 17371 bound_to 10713
  140.5200  134.0917  155.7290 LP  0  0  0  0  0  0  0  0  0  0  0  0  # atno 17394 bound_to 11000
  141.1434  133.9098  157.2273 LP  0  0  0  0  0  0  0  0  0  0  0  0  # atno 17395 bound_to 11000

$$$$
