AV-unprocessed.smi:1819|AV-procd|sdf|7382|dock3
  -GOLD-   22720 9 53D 1   1.00000     0.00000
 Structure written by MMmdl.
 29 29  0  0  0  0  0  0  0  0  1 V2000
  150.0140  140.2443  154.5992 O   0  0  0  0  0  0  0  0  0  0  0  0
  149.4279  141.3186  154.7403 C   0  0  0  0  0  0  0  0  0  0  0  0
  148.0733  141.5699  154.0622 C   0  0  0  0  0  0  0  0  0  0  0  0
  147.2944  140.3389  153.8637 N   0  0  0  0  0  0  0  0  0  0  0  0
  147.1585  139.7921  152.5954 C   0  0  0  0  0  0  0  0  0  0  0  0
  146.4653  138.6565  152.3433 C   0  0  0  0  0  0  0  0  0  0  0  0
  145.8099  137.9347  153.4286 C   0  0  0  0  0  0  0  0  0  0  0  0
  145.1583  136.9005  153.3009 O   0  0  0  0  0  0  0  0  0  0  0  0
  145.9718  138.5146  154.6897 N   0  0  0  0  0  0  0  0  0  0  0  0
  146.6865  139.6835  154.9567 C   0  0  0  0  0  0  0  0  0  0  0  0
  146.7708  140.1071  156.1090 O   0  0  0  0  0  0  0  0  0  0  0  0
  149.9258  142.3336  155.4606 N   0  0  0  0  0  0  0  0  0  0  0  0
  151.1948  142.2909  156.1732 C   0  0  0  0  0  0  0  0  0  0  0  0
  151.0195  142.7737  157.6170 C   0  0  0  0  0  0  0  0  0  0  0  0
  151.6929  144.4424  157.8438 S   0  0  0  0  0  0  0  0  0  0  0  0
  151.4119  144.6653  159.6211 C   0  0  0  0  0  0  0  0  0  0  0  0
  151.9402  145.8214  160.0189 F   0  0  0  0  0  0  0  0  0  0  0  0
  150.1058  144.6799  159.8835 F   0  0  0  0  0  0  0  0  0  0  0  0
  151.9838  143.6764  160.3064 F   0  0  0  0  0  0  0  0  0  0  0  0
  145.5377  138.0483  155.4730 H   0  0  0  0  0  0  0  0  0  0  0  0
  147.4941  142.2901  154.6439 H   0  0  0  0  0  0  0  0  0  0  0  0
  148.2601  142.0581  153.1045 H   0  0  0  0  0  0  0  0  0  0  0  0
  147.6313  140.2909  151.7612 H   0  0  0  0  0  0  0  0  0  0  0  0
  146.3964  138.2795  151.3331 H   0  0  0  0  0  0  0  0  0  0  0  0
  149.3880  143.1860  155.5244 H   0  0  0  0  0  0  0  0  0  0  0  0
  151.5819  141.2706  156.1653 H   0  0  0  0  0  0  0  0  0  0  0  0
  151.9217  142.9172  155.6538 H   0  0  0  0  0  0  0  0  0  0  0  0
  149.9630  142.7815  157.8865 H   0  0  0  0  0  0  0  0  0  0  0  0
  151.5239  142.0947  158.3050 H   0  0  0  0  0  0  0  0  0  0  0  0
  1  2  2  0  0  0  0
  2  3  1  0  0  0  0
  2 12  1  0  0  0  0
  3  4  1  0  0  0  0
  3 21  1  0  0  0  0
  3 22  1  0  0  0  0
  4 10  1  0  0  0  0
  4  5  1  0  0  0  0
  5  6  2  0  0  0  0
  5 23  1  0  0  0  0
  6  7  1  0  0  0  0
  6 24  1  0  0  0  0
  7  8  2  0  0  0  0
  7  9  1  0  0  0  0
  9 20  1  0  0  0  0
  9 10  1  0  0  0  0
 10 11  2  0  0  0  0
 12 13  1  0  0  0  0
 12 25  1  0  0  0  0
 13 14  1  0  0  0  0
 13 26  1  0  0  0  0
 13 27  1  0  0  0  0
 14 15  1  0  0  0  0
 14 28  1  0  0  0  0
 14 29  1  0  0  0  0
 15 16  1  0  0  0  0
 16 17  1  0  0  0  0
 16 18  1  0  0  0  0
 16 19  1  0  0  0  0
M  END
> <s_m_source_file>
AV-unprocessed.smi

> <i_m_source_file_index>
1819

> <i_lp_mmshare_version>
43012

> <i_f3d_flags>
0

> <s_epik_input>
RkMoRikoRilTW0NIMl1bQ0gyXVtOSF1DKD1PKVtDSDJdbjFbY0hdW2NIXWMoPU8pW25IXWMxPU8=

> <s_epik_cmdline>
J2VwaWtfcHl0aG9uJywgJy1waCcsICc3LjAnLCAnLXRuJywgJzgnLCAnLW1hJywgJzIwMCcsICctbWV0YWxfYmluZGluZycsICctaW1hZScsICc8aW5maWxlLm1hZT4nLCAnLW9tYWUnLCAnPG91dGZpbGUubWFlPic=

> <r_lp_tautomer_probability>
0.999537

> <r_epik_Ionization_Penalty>
0.00347617

> <r_epik_Ionization_Penalty_Charging>
0.00347613

> <r_epik_Ionization_Penalty_Neutral>
4.33222e-08

> <r_epik_State_Penalty>
0.00246522

> <r_epik_Charging_Adjusted_Penalty>
0.00594136

> <i_epik_Tot_Q>
0

> <i_epik_Tot_abs_Q>
0

> <r_epik_Metal_State_Penalty>
0.367629

> <b_epik_Metal_Only>
0

> <s_lp_Force_Field>
OPLS_2005

> <r_lp_Energy>
-0.213216

> <b_lp_Chiralities_Consistent>
1

> <s_lp_Variant>
AV-unprocessed.smi:1819-1

> <Gold.Version>
5.8.1

> <Gold.Id.Protein>
6NUR|6NUR_protein|mol2

> <Gold.PLP.Fitness>
44.9132

> <Gold.PLP.PLP>
-37.9336

> <Gold.PLP.part.hbond>
-2.0000

> <Gold.PLP.part.metal>
0.0000

> <Gold.PLP.part.buried>
-2.7024

> <Gold.PLP.part.nonpolar>
-33.2429

> <Gold.PLP.part.repulsive>
0.4499

> <Gold.PLP.ligand.clash>
0.0000

> <Gold.PLP.ligand.torsion>
0.9121

> <Gold.PLP.Chemscore.Hbond>
1.9913

> <Gold.PLP.Chemscore.CHOScore>
0.9174

> <Gold.PLP.Chemscore.Metal>
0.0000

> <Gold.Chemscore.Hbonds>
donor molecule, donor type, donor heavy atom, donor atom, acceptor molecule, acceptor atom, score
      L1  H    12    25       P1  8028  1.00
      P1  H  7989  7998       L1     1  0.91
      L1  C     5    23       P1  7957  0.94

> <Gold.PLP.Chemscore.Internal.Correction>
0.0778

> <Gold.Rescore>
     Score         DG    S(hbond)    S(metal)    S(lipo)     H(rot)  DE(clash)    DE(int)     intcor
      9.73     -10.89       1.65        0.00      63.44       2.93       0.30       0.86       ----

> <Gold.Chemscore.Fitness>
9.7281

> <Gold.Chemscore.DG>
-10.8943

> <Gold.Chemscore.ZeroCoef>
-5.4800

> <Gold.Chemscore.Hbond>
1.6468

> <Gold.Chemscore.Metal>
0.0000

> <Gold.Chemscore.Lipo>
63.4442

> <Gold.Chemscore.Internal_Hbond>
0.0000

> <Gold.Chemscore.DEClash>
0.3041

> <Gold.Chemscore.DEInternal>
0.8620

> <Gold.Chemscore.Rot>
2.9332

> <Gold.Chemscore.Internal.Correction>
   9.000000E+99

> <Gold.Chemscore.Hbonds>
donor molecule, donor type, donor heavy atom, donor atom, acceptor molecule, acceptor atom, score
      L1  H    12    25       P1  8028  0.99
      P1  H  7989  7998       L1     1  0.18

> <Gold.Chemscore.Hbond.Weighted>
-5.5002

> <Gold.Chemscore.Metal.Weighted>
-0.0000

> <Gold.Chemscore.Lipo.Weighted>
-7.4230

> <Gold.Chemscore.Internal_Hbond.Weighted>
0.0000

> <Gold.Chemscore.DEClash.Weighted>
0.3041

> <Gold.Chemscore.DEInternal.Weighted>
0.8620

> <Gold.Chemscore.Rot.Weighted>
7.5089

> <Gold.Chemscore.Internal.Correction.Weighted>
   9.000000E+99

> <Gold.Protein.RotatedTorsions>
[ 6907 6896 6895 6894 ] final  174.29 input  -60.11 | X-H torsion
[ 7974 7965 7964 7962 ] final -150.84 input  175.53 | X-H torsion
[ 8008 7997 7996 7995 ] final -153.05 input   59.86 | X-H torsion
[ 10167 10162 10161 10158 ] final    6.46 input  -65.29 | X-H torsion
[ 10718 10713 10712 10709 ] final  143.91 input   66.30 | X-H torsion
[ 10763 10752 10751 10750 ] final  -43.01 input  -60.55 | X-H torsion
[ 11005 11000 10999 10996 ] final -128.92 input  -57.11 | X-H torsion

> <Gold.Protein.ActiveResidues>
 VAL166  LYS551  ARG553  GLY616  TRP617  ASP618  TYR619  PRO620  LYS621  CYS622 
 ASP623  PHE694  ASN695  SER759  ASP760  ASP761  ALA762  ILE779  LEU786  VAL792 
 PHE793  MET794  SER795  GLU796  ALA797  LYS798  CYS799  TRP800  GLU811  SER814 

> <Gold.Protein.RotatedAtoms>
  151.7547  133.3329  159.3400 H   0  0  0  0  0  0  0  0  0  0  0  0  # atno 6907 bound_to 6896
  150.7521  134.6160  159.6120 H   0  0  0  0  0  0  0  0  0  0  0  0  # atno 6908 bound_to 6896
  152.3445  134.7092  160.0306 H   0  0  0  0  0  0  0  0  0  0  0  0  # atno 6909 bound_to 6896
  144.7884  140.4877  143.5790 H   0  0  0  0  0  0  0  0  0  0  0  0  # atno 7974 bound_to 7965
  155.6648  140.0726  157.2541 H   0  0  0  0  0  0  0  0  0  0  0  0  # atno 8008 bound_to 7997
  154.4135  140.1710  156.1866 H   0  0  0  0  0  0  0  0  0  0  0  0  # atno 8009 bound_to 7997
  155.9667  140.3365  155.6542 H   0  0  0  0  0  0  0  0  0  0  0  0  # atno 8010 bound_to 7997
  140.6426  143.7738  150.7451 H   0  0  0  0  0  0  0  0  0  0  0  0  # atno 10167 bound_to 10162
  157.3634  131.0968  151.0895 H   0  0  0  0  0  0  0  0  0  0  0  0  # atno 10718 bound_to 10713
  153.9884  135.6708  153.4753 H   0  0  0  0  0  0  0  0  0  0  0  0  # atno 10763 bound_to 10752
  153.0716  135.4971  154.8313 H   0  0  0  0  0  0  0  0  0  0  0  0  # atno 10764 bound_to 10752
  154.7123  135.3100  154.9139 H   0  0  0  0  0  0  0  0  0  0  0  0  # atno 10765 bound_to 10752
  140.9475  134.1110  157.4093 H   0  0  0  0  0  0  0  0  0  0  0  0  # atno 11005 bound_to 11000
  145.5860  139.1492  143.3209 LP  0  0  0  0  0  0  0  0  0  0  0  0  # atno 17320 bound_to 7965
  146.2125  140.5988  142.9053 LP  0  0  0  0  0  0  0  0  0  0  0  0  # atno 17321 bound_to 7965
  140.1372  143.4473  152.2217 LP  0  0  0  0  0  0  0  0  0  0  0  0  # atno 17342 bound_to 10162
  139.5636  144.7421  151.4086 LP  0  0  0  0  0  0  0  0  0  0  0  0  # atno 17343 bound_to 10162
  157.2026  130.6401  149.5744 LP  0  0  0  0  0  0  0  0  0  0  0  0  # atno 17370 bound_to 10713
  155.9741  130.4686  150.6365 LP  0  0  0  0  0  0  0  0  0  0  0  0  # atno 17371 bound_to 10713
  139.8838  135.0056  156.6323 LP  0  0  0  0  0  0  0  0  0  0  0  0  # atno 17394 bound_to 11000
  140.7648  133.8787  155.8446 LP  0  0  0  0  0  0  0  0  0  0  0  0  # atno 17395 bound_to 11000

$$$$
