AV-unprocessed.smi:3349|AV-procd|sdf|12931|dock5
  -GOLD-   2272019363D 1   1.00000     0.00000
 Structure written by MMmdl.
 40 41  0  0  0  0  0  0  0  0  1 V2000
  150.8786  142.2546  156.3384 C   0  0  0  0  0  0  0  0  0  0  0  0
  150.1276  141.0467  156.9553 C   0  0  2  0  0  0  0  0  0  0  0  0
  151.0767  140.3196  157.9474 C   0  0  0  0  0  0  0  0  0  0  0  0
  151.8216  141.2505  158.7878 N   0  0  0  0  0  0  0  0  0  0  0  0
  153.0738  141.0500  159.2241 C   0  0  0  0  0  0  0  0  0  0  0  0
  153.7222  140.0357  158.9646 O   0  0  0  0  0  0  0  0  0  0  0  0
  153.6830  142.1597  160.0974 C   0  0  2  0  0  0  0  0  0  0  0  0
  153.8290  141.6726  161.5556 C   0  0  0  0  0  0  0  0  0  0  0  0
  152.9182  143.4056  159.9873 N   0  0  0  0  0  0  0  0  0  0  0  0
  152.2240  144.0925  160.9032 C   0  0  0  0  0  0  0  0  0  0  0  0
  151.5744  145.1420  160.4201 N   0  0  0  0  0  0  0  0  0  0  0  0
  151.9072  145.0262  159.1016 C   0  0  0  0  0  0  0  0  0  0  0  0
  152.6857  143.9920  158.7852 N   0  0  0  0  0  0  0  0  0  0  0  0
  149.5517  140.1477  155.9278 N   0  0  0  0  0  0  0  0  0  0  0  0
  148.8385  139.0031  156.5068 C   0  0  0  0  0  0  0  0  0  0  0  0
  148.2141  138.0861  155.4405 C   0  0  0  0  0  0  0  0  0  0  0  0
  147.3388  138.8388  154.6122 O   0  0  0  0  0  0  0  0  0  0  0  0
  148.0079  139.9139  153.9680 C   0  0  0  0  0  0  0  0  0  0  0  0
  148.6286  140.8446  155.0240 C   0  0  0  0  0  0  0  0  0  0  0  0
  151.3470  142.8865  157.0919 H   0  0  0  0  0  0  0  0  0  0  0  0
  150.2128  142.9181  155.7887 H   0  0  0  0  0  0  0  0  0  0  0  0
  151.6633  141.9237  155.6573 H   0  0  0  0  0  0  0  0  0  0  0  0
  149.3034  141.4514  157.5450 H   0  0  0  0  0  0  0  0  0  0  0  0
  150.5251  139.6806  158.6353 H   0  0  0  0  0  0  0  0  0  0  0  0
  151.7685  139.6792  157.3971 H   0  0  0  0  0  0  0  0  0  0  0  0
  151.3551  142.1078  159.0468 H   0  0  0  0  0  0  0  0  0  0  0  0
  154.6844  142.3747  159.7204 H   0  0  0  0  0  0  0  0  0  0  0  0
  154.3214  140.7005  161.6014 H   0  0  0  0  0  0  0  0  0  0  0  0
  152.8590  141.5759  162.0455 H   0  0  0  0  0  0  0  0  0  0  0  0
  154.4330  142.3626  162.1455 H   0  0  0  0  0  0  0  0  0  0  0  0
  152.1858  143.8204  161.9481 H   0  0  0  0  0  0  0  0  0  0  0  0
  151.5526  145.7155  158.3495 H   0  0  0  0  0  0  0  0  0  0  0  0
  149.5131  138.3852  157.0958 H   0  0  0  0  0  0  0  0  0  0  0  0
  148.0583  139.3566  157.1828 H   0  0  0  0  0  0  0  0  0  0  0  0
  148.9893  137.6161  154.8330 H   0  0  0  0  0  0  0  0  0  0  0  0
  147.6500  137.2835  155.9159 H   0  0  0  0  0  0  0  0  0  0  0  0
  148.7743  139.5270  153.2945 H   0  0  0  0  0  0  0  0  0  0  0  0
  147.2913  140.4617  153.3560 H   0  0  0  0  0  0  0  0  0  0  0  0
  147.8325  141.3177  155.6011 H   0  0  0  0  0  0  0  0  0  0  0  0
  149.1432  141.6376  154.4846 H   0  0  0  0  0  0  0  0  0  0  0  0
  1  2  1  0  0  0  0
  1 20  1  0  0  0  0
  1 21  1  0  0  0  0
  1 22  1  0  0  0  0
  2  3  1  0  0  0  0
  2 14  1  0  0  0  0
  2 23  1  0  0  0  0
  3  4  1  0  0  0  0
  3 24  1  0  0  0  0
  3 25  1  0  0  0  0
  4  5  1  0  0  0  0
  4 26  1  0  0  0  0
  5  6  2  0  0  0  0
  5  7  1  0  0  0  0
  7  8  1  0  0  0  0
  7  9  1  0  0  0  0
  7 27  1  0  0  0  0
  8 28  1  0  0  0  0
  8 29  1  0  0  0  0
  8 30  1  0  0  0  0
  9 13  1  0  0  0  0
  9 10  1  0  0  0  0
 10 11  2  0  0  0  0
 10 31  1  0  0  0  0
 11 12  1  0  0  0  0
 12 13  2  0  0  0  0
 12 32  1  0  0  0  0
 14 19  1  0  0  0  0
 14 15  1  0  0  0  0
 15 16  1  0  0  0  0
 15 33  1  0  0  0  0
 15 34  1  0  0  0  0
 16 17  1  0  0  0  0
 16 35  1  0  0  0  0
 16 36  1  0  0  0  0
 17 18  1  0  0  0  0
 18 19  1  0  0  0  0
 18 37  1  0  0  0  0
 18 38  1  0  0  0  0
 19 39  1  0  0  0  0
 19 40  1  0  0  0  0
M  END
> <s_m_source_file>
AV-unprocessed.smi

> <i_m_source_file_index>
3349

> <i_lp_mmshare_version>
43012

> <i_f3d_flags>
0

> <s_epik_input>
W0NIMl0xW0NIMl1PW0NIMl1bQ0gyXU4xW0NASF0oW0NIM10pW0NIMl1bTkhdQyg9TylbQ0BIXShbQ0gzXSluMltjSF1uW2NIXW4y

> <s_epik_cmdline>
J2VwaWtfcHl0aG9uJywgJy1waCcsICc3LjAnLCAnLXRuJywgJzgnLCAnLW1hJywgJzIwMCcsICctbWV0YWxfYmluZGluZycsICctaW1hZScsICc8aW5maWxlLm1hZT4nLCAnLW9tYWUnLCAnPG91dGZpbGUubWFlPic=

> <r_lp_tautomer_probability>
1

> <r_epik_Ionization_Penalty>
0.211373

> <r_epik_Ionization_Penalty_Charging>
0

> <r_epik_Ionization_Penalty_Neutral>
0.211373

> <r_epik_State_Penalty>
0.201459

> <r_epik_Charging_Adjusted_Penalty>
0.201459

> <i_epik_Tot_Q>
0

> <i_epik_Tot_abs_Q>
0

> <r_epik_Metal_State_Penalty>
0.201458

> <b_epik_Metal_Only>
0

> <s_lp_Force_Field>
OPLS_2005

> <r_lp_Energy>
36.462

> <b_lp_Chiralities_Consistent>
1

> <s_lp_Variant>
AV-unprocessed.smi:3349-1

> <Gold.Version>
5.8.1

> <Gold.Id.Protein>
6NUR|6NUR_protein|mol2

> <Gold.PLP.Fitness>
36.3707

> <Gold.PLP.PLP>
-34.4187

> <Gold.PLP.part.hbond>
-1.0000

> <Gold.PLP.part.metal>
0.0000

> <Gold.PLP.part.buried>
-4.7854

> <Gold.PLP.part.nonpolar>
-28.1554

> <Gold.PLP.part.repulsive>
0.4472

> <Gold.PLP.ligand.clash>
0.0000

> <Gold.PLP.ligand.torsion>
0.6191

> <Gold.PLP.Chemscore.Hbond>
1.0000

> <Gold.PLP.Chemscore.CHOScore>
0.0000

> <Gold.PLP.Chemscore.Metal>
0.0000

> <Gold.Chemscore.Hbonds>
donor molecule, donor type, donor heavy atom, donor atom, acceptor molecule, acceptor atom, score
      P1  H  7997  8009       L1     6  0.93

> <Gold.PLP.Chemscore.Internal.Correction>
0.1903

> <Gold.Rescore>
     Score         DG    S(hbond)    S(metal)    S(lipo)     H(rot)  DE(clash)    DE(int)     intcor
      6.46      -8.55       0.98        0.00      54.33       2.56       0.12       1.98       ----

> <Gold.Chemscore.Fitness>
6.4570

> <Gold.Chemscore.DG>
-8.5534

> <Gold.Chemscore.ZeroCoef>
-5.4800

> <Gold.Chemscore.Hbond>
0.9768

> <Gold.Chemscore.Metal>
0.0000

> <Gold.Chemscore.Lipo>
54.3305

> <Gold.Chemscore.Internal_Hbond>
0.0000

> <Gold.Chemscore.DEClash>
0.1172

> <Gold.Chemscore.DEInternal>
1.9792

> <Gold.Chemscore.Rot>
2.5570

> <Gold.Chemscore.Internal.Correction>
   9.000000E+99

> <Gold.Chemscore.Hbonds>
donor molecule, donor type, donor heavy atom, donor atom, acceptor molecule, acceptor atom, score
      P1  H  7997  8009       L1     6  0.81

> <Gold.Chemscore.Hbond.Weighted>
-3.2626

> <Gold.Chemscore.Metal.Weighted>
-0.0000

> <Gold.Chemscore.Lipo.Weighted>
-6.3567

> <Gold.Chemscore.Internal_Hbond.Weighted>
0.0000

> <Gold.Chemscore.DEClash.Weighted>
0.1172

> <Gold.Chemscore.DEInternal.Weighted>
1.9792

> <Gold.Chemscore.Rot.Weighted>
6.5459

> <Gold.Chemscore.Internal.Correction.Weighted>
   9.000000E+99

> <Gold.Protein.RotatedTorsions>
[ 6907 6896 6895 6894 ] final  121.65 input  -60.11 | X-H torsion
[ 7974 7965 7964 7962 ] final   17.89 input  175.53 | X-H torsion
[ 8008 7997 7996 7995 ] final  134.97 input   59.86 | X-H torsion
[ 10167 10162 10161 10158 ] final -164.56 input  -65.29 | X-H torsion
[ 10718 10713 10712 10709 ] final  143.19 input   66.30 | X-H torsion
[ 10763 10752 10751 10750 ] final  122.78 input  -60.55 | X-H torsion
[ 11005 11000 10999 10996 ] final -150.61 input  -57.11 | X-H torsion

> <Gold.Protein.ActiveResidues>
 VAL166  LYS551  ARG553  GLY616  TRP617  ASP618  TYR619  PRO620  LYS621  CYS622 
 ASP623  PHE694  ASN695  SER759  ASP760  ASP761  ALA762  ILE779  LEU786  VAL792 
 PHE793  MET794  SER795  GLU796  ALA797  LYS798  CYS799  TRP800  GLU811  SER814 

> <Gold.Protein.RotatedAtoms>
  152.4305  133.7270  159.6565 H   0  0  0  0  0  0  0  0  0  0  0  0  # atno 6907 bound_to 6896
  150.8184  133.8285  159.3156 H   0  0  0  0  0  0  0  0  0  0  0  0  # atno 6908 bound_to 6896
  151.5974  135.1052  160.0104 H   0  0  0  0  0  0  0  0  0  0  0  0  # atno 6909 bound_to 6896
  146.2203  139.8537  142.8618 H   0  0  0  0  0  0  0  0  0  0  0  0  # atno 7974 bound_to 7965
  156.3001  140.2482  156.3504 H   0  0  0  0  0  0  0  0  0  0  0  0  # atno 8008 bound_to 7997
  154.8971  140.0407  157.1891 H   0  0  0  0  0  0  0  0  0  0  0  0  # atno 8009 bound_to 7997
  154.8538  140.2910  155.5585 H   0  0  0  0  0  0  0  0  0  0  0  0  # atno 8010 bound_to 7997
  139.6242  144.0564  152.1960 H   0  0  0  0  0  0  0  0  0  0  0  0  # atno 10167 bound_to 10162
  157.3718  131.0980  151.0821 H   0  0  0  0  0  0  0  0  0  0  0  0  # atno 10718 bound_to 10713
  153.6352  135.3389  155.3054 H   0  0  0  0  0  0  0  0  0  0  0  0  # atno 10763 bound_to 10752
  154.8571  135.4305  154.2063 H   0  0  0  0  0  0  0  0  0  0  0  0  # atno 10764 bound_to 10752
  153.2969  135.7021  153.7314 H   0  0  0  0  0  0  0  0  0  0  0  0  # atno 10765 bound_to 10752
  140.7383  134.3543  157.5153 H   0  0  0  0  0  0  0  0  0  0  0  0  # atno 11005 bound_to 11000
  145.2775  141.0128  143.3736 LP  0  0  0  0  0  0  0  0  0  0  0  0  # atno 17320 bound_to 7965
  144.9175  139.4452  143.6557 LP  0  0  0  0  0  0  0  0  0  0  0  0  # atno 17321 bound_to 7965
  140.0214  144.6150  150.7564 LP  0  0  0  0  0  0  0  0  0  0  0  0  # atno 17342 bound_to 10162
  140.7401  143.2800  151.3627 LP  0  0  0  0  0  0  0  0  0  0  0  0  # atno 17343 bound_to 10162
  157.1922  130.6357  149.5708 LP  0  0  0  0  0  0  0  0  0  0  0  0  # atno 17370 bound_to 10713
  155.9757  130.4718  150.6478 LP  0  0  0  0  0  0  0  0  0  0  0  0  # atno 17371 bound_to 10713
  139.8811  134.9064  156.2922 LP  0  0  0  0  0  0  0  0  0  0  0  0  # atno 17394 bound_to 11000
  140.9859  133.7238  156.0741 LP  0  0  0  0  0  0  0  0  0  0  0  0  # atno 17395 bound_to 11000

$$$$
