AV-unprocessed.smi:3156|AV-procd|sdf|12034|dock8
  -GOLD-   2272017453D 1   1.00000     0.00000
 Structure written by MMmdl.
 41 42  0  0  0  0  0  0  0  0  2 V2000
  147.6575  141.9380  154.3757 C   0  0  0  0  0  0  0  0  0  0  0  0
  149.0795  141.3468  154.3998 C   0  0  1  0  0  0  0  0  0  0  0  0
  149.9524  142.1614  155.2771 N   0  3  0  0  0  0  0  0  0  0  0  0
  149.9481  141.7944  156.7091 C   0  0  0  0  0  0  0  0  0  0  0  0
  151.1579  142.3956  157.4417 C   0  0  2  0  0  0  0  0  0  0  0  0
  151.3261  141.8553  158.8783 C   0  0  0  0  0  0  0  0  0  0  0  0
  152.5102  142.5370  159.5723 C   0  0  0  0  0  0  0  0  0  0  0  0
  152.3570  144.0587  159.4760 C   0  0  0  0  0  0  0  0  0  0  0  0
  152.1506  144.4855  158.0135 C   0  0  0  0  0  0  0  0  0  0  0  0
  151.0209  143.8151  157.4616 O   0  0  0  0  0  0  0  0  0  0  0  0
  149.1033  139.8656  154.8685 C   0  0  1  0  0  0  0  0  0  0  0  0
  148.1350  138.9643  154.0804 C   0  0  0  0  0  0  0  0  0  0  0  0
  150.4485  139.3009  154.8124 N   0  0  0  0  0  0  0  0  0  0  0  0
  150.8454  138.0997  154.2611 C   0  0  0  0  0  0  0  0  0  0  0  0
  152.1951  137.9939  154.4379 C   0  0  0  0  0  0  0  0  0  0  0  0
  152.5450  139.2024  155.1017 C   0  0  0  0  0  0  0  0  0  0  0  0
  151.5000  139.9833  155.3208 N   0  0  0  0  0  0  0  0  0  0  0  0
  147.0116  141.4046  153.6791 H   0  0  0  0  0  0  0  0  0  0  0  0
  147.6623  142.9804  154.0577 H   0  0  0  0  0  0  0  0  0  0  0  0
  147.1927  141.8949  155.3613 H   0  0  0  0  0  0  0  0  0  0  0  0
  149.4840  141.3858  153.3871 H   0  0  0  0  0  0  0  0  0  0  0  0
  150.8992  142.1442  154.9256 H   0  0  0  0  0  0  0  0  0  0  0  0
  149.0310  142.1535  157.1778 H   0  0  0  0  0  0  0  0  0  0  0  0
  149.9543  140.7088  156.8083 H   0  0  0  0  0  0  0  0  0  0  0  0
  152.0514  142.1459  156.8666 H   0  0  0  0  0  0  0  0  0  0  0  0
  150.4212  142.0365  159.4596 H   0  0  0  0  0  0  0  0  0  0  0  0
  151.4740  140.7750  158.8622 H   0  0  0  0  0  0  0  0  0  0  0  0
  152.5716  142.2248  160.6153 H   0  0  0  0  0  0  0  0  0  0  0  0
  153.4426  142.2302  159.0967 H   0  0  0  0  0  0  0  0  0  0  0  0
  151.5033  144.3803  160.0736 H   0  0  0  0  0  0  0  0  0  0  0  0
  153.2348  144.5530  159.8933 H   0  0  0  0  0  0  0  0  0  0  0  0
  151.9825  145.5611  157.9579 H   0  0  0  0  0  0  0  0  0  0  0  0
  153.0394  144.2720  157.4176 H   0  0  0  0  0  0  0  0  0  0  0  0
  148.7976  139.8395  155.9158 H   0  0  0  0  0  0  0  0  0  0  0  0
  147.0962  139.2567  154.2297 H   0  0  0  0  0  0  0  0  0  0  0  0
  148.2208  137.9257  154.4016 H   0  0  0  0  0  0  0  0  0  0  0  0
  148.3417  138.9966  153.0101 H   0  0  0  0  0  0  0  0  0  0  0  0
  150.1415  137.4244  153.7965 H   0  0  0  0  0  0  0  0  0  0  0  0
  152.8365  137.1802  154.1332 H   0  0  0  0  0  0  0  0  0  0  0  0
  153.5203  139.5335  155.4274 H   0  0  0  0  0  0  0  0  0  0  0  0
  149.6108  143.1106  155.2231 H   0  0  0  0  0  0  0  0  0  0  0  0
  1  2  1  0  0  0  0
  1 18  1  0  0  0  0
  1 19  1  0  0  0  0
  1 20  1  0  0  0  0
  2  3  1  0  0  0  0
  2 11  1  0  0  0  0
  2 21  1  0  0  0  0
  3  4  1  0  0  0  0
  3 22  1  0  0  0  0
  3 41  1  0  0  0  0
  4  5  1  0  0  0  0
  4 23  1  0  0  0  0
  4 24  1  0  0  0  0
  5 10  1  0  0  0  0
  5  6  1  0  0  0  0
  5 25  1  0  0  0  0
  6  7  1  0  0  0  0
  6 26  1  0  0  0  0
  6 27  1  0  0  0  0
  7  8  1  0  0  0  0
  7 28  1  0  0  0  0
  7 29  1  0  0  0  0
  8  9  1  0  0  0  0
  8 30  1  0  0  0  0
  8 31  1  0  0  0  0
  9 10  1  0  0  0  0
  9 32  1  0  0  0  0
  9 33  1  0  0  0  0
 11 12  1  0  0  0  0
 11 13  1  0  0  0  0
 11 34  1  0  0  0  0
 12 35  1  0  0  0  0
 12 36  1  0  0  0  0
 12 37  1  0  0  0  0
 13 17  1  0  0  0  0
 13 14  1  0  0  0  0
 14 15  2  0  0  0  0
 14 38  1  0  0  0  0
 15 16  1  0  0  0  0
 15 39  1  0  0  0  0
 16 17  2  0  0  0  0
 16 40  1  0  0  0  0
M  CHG  1   3   1
M  END
> <s_m_source_file>
AV-unprocessed.smi

> <i_m_source_file_index>
3156

> <i_lp_mmshare_version>
43012

> <i_f3d_flags>
0

> <s_epik_input>
bjFbY0hdW2NIXVtjSF1uMVtDQEBIXShbQ0gzXSlbQ0BIXShbQ0gzXSlbTkhdW0NIMl1bQ0BASF0yW0NIMl1bQ0gyXVtDSDJdW0NIMl1PMg==

> <s_epik_cmdline>
J2VwaWtfcHl0aG9uJywgJy1waCcsICc3LjAnLCAnLXRuJywgJzgnLCAnLW1hJywgJzIwMCcsICctbWV0YWxfYmluZGluZycsICctaW1hZScsICc8aW5maWxlLm1hZT4nLCAnLW9tYWUnLCAnPG91dGZpbGUubWFlPic=

> <r_lp_tautomer_probability>
1

> <r_epik_Ionization_Penalty>
0.00658015

> <r_epik_Ionization_Penalty_Charging>
0.00656881

> <r_epik_Ionization_Penalty_Neutral>
1.13431e-05

> <r_epik_State_Penalty>
0.0048654

> <r_epik_Charging_Adjusted_Penalty>
0.0114342

> <i_epik_Tot_Q>
1

> <i_epik_Tot_abs_Q>
1

> <r_epik_Metal_State_Penalty>
-0

> <b_epik_Metal_Only>
0

> <s_lp_Force_Field>
OPLS_2005

> <r_lp_Energy>
18.8572

> <b_lp_Chiralities_Consistent>
1

> <s_lp_Variant>
AV-unprocessed.smi:3156-6

> <Gold.Version>
5.8.1

> <Gold.Id.Protein>
6NUR|6NUR_protein|mol2

> <Gold.PLP.Fitness>
50.9912

> <Gold.PLP.PLP>
-42.1646

> <Gold.PLP.part.hbond>
-2.0000

> <Gold.PLP.part.metal>
0.0000

> <Gold.PLP.part.buried>
-3.0443

> <Gold.PLP.part.nonpolar>
-38.6779

> <Gold.PLP.part.repulsive>
1.1104

> <Gold.PLP.ligand.clash>
0.0000

> <Gold.PLP.ligand.torsion>
0.5726

> <Gold.PLP.Chemscore.Hbond>
2.2600

> <Gold.PLP.Chemscore.CHOScore>
1.0340

> <Gold.PLP.Chemscore.Metal>
0.0000

> <Gold.Chemscore.Hbonds>
donor molecule, donor type, donor heavy atom, donor atom, acceptor molecule, acceptor atom, score
      L1  H     3    41       P1  8028  2.00
      P1  H  7989  7998       L1    17  0.23
      L1  C    14    38       P1  7948  1.00
      L1  C    14    38       P1  7949  0.01

> <Gold.PLP.Chemscore.Internal.Correction>
0.0896

> <Gold.Rescore>
     Score         DG    S(hbond)    S(metal)    S(lipo)     H(rot)  DE(clash)    DE(int)     intcor
     14.17     -17.64       1.00        0.00     110.23       1.59       0.24       3.23       ----

> <Gold.Chemscore.Fitness>
14.1733

> <Gold.Chemscore.DG>
-17.6447

> <Gold.Chemscore.ZeroCoef>
-5.4800

> <Gold.Chemscore.Hbond>
1.0025

> <Gold.Chemscore.Metal>
0.0000

> <Gold.Chemscore.Lipo>
110.2267

> <Gold.Chemscore.Internal_Hbond>
0.0000

> <Gold.Chemscore.DEClash>
0.2373

> <Gold.Chemscore.DEInternal>
3.2342

> <Gold.Chemscore.Rot>
1.5938

> <Gold.Chemscore.Internal.Correction>
   9.000000E+99

> <Gold.Chemscore.Hbonds>
donor molecule, donor type, donor heavy atom, donor atom, acceptor molecule, acceptor atom, score
      L1  H     3    41       P1  8028  1.00

> <Gold.Chemscore.Hbond.Weighted>
-3.3485

> <Gold.Chemscore.Metal.Weighted>
-0.0000

> <Gold.Chemscore.Lipo.Weighted>
-12.8965

> <Gold.Chemscore.Internal_Hbond.Weighted>
0.0000

> <Gold.Chemscore.DEClash.Weighted>
0.2373

> <Gold.Chemscore.DEInternal.Weighted>
3.2342

> <Gold.Chemscore.Rot.Weighted>
4.0802

> <Gold.Chemscore.Internal.Correction.Weighted>
   9.000000E+99

> <Gold.Protein.RotatedTorsions>
[ 6907 6896 6895 6894 ] final  129.58 input  -60.11 | X-H torsion
[ 7974 7965 7964 7962 ] final -159.54 input  175.53 | X-H torsion
[ 8008 7997 7996 7995 ] final  -56.93 input   59.86 | X-H torsion
[ 10167 10162 10161 10158 ] final   93.30 input  -65.29 | X-H torsion
[ 10718 10713 10712 10709 ] final  -32.07 input   66.30 | X-H torsion
[ 10763 10752 10751 10750 ] final -157.34 input  -60.55 | X-H torsion
[ 11005 11000 10999 10996 ] final  102.05 input  -57.11 | X-H torsion

> <Gold.Protein.ActiveResidues>
 VAL166  LYS551  ARG553  GLY616  TRP617  ASP618  TYR619  PRO620  LYS621  CYS622 
 ASP623  PHE694  ASN695  SER759  ASP760  ASP761  ALA762  ILE779  LEU786  VAL792 
 PHE793  MET794  SER795  GLU796  ALA797  LYS798  CYS799  TRP800  GLU811  SER814 

> <Gold.Protein.RotatedAtoms>
  152.3610  133.6296  159.6014 H   0  0  0  0  0  0  0  0  0  0  0  0  # atno 6907 bound_to 6896
  150.7601  133.9424  159.3469 H   0  0  0  0  0  0  0  0  0  0  0  0  # atno 6908 bound_to 6896
  151.7262  135.0885  160.0343 H   0  0  0  0  0  0  0  0  0  0  0  0  # atno 6909 bound_to 6896
  144.7461  140.3670  143.6084 H   0  0  0  0  0  0  0  0  0  0  0  0  # atno 7974 bound_to 7965
  154.4248  140.1118  156.5717 H   0  0  0  0  0  0  0  0  0  0  0  0  # atno 8008 bound_to 7997
  155.6205  140.3495  155.4631 H   0  0  0  0  0  0  0  0  0  0  0  0  # atno 8009 bound_to 7997
  156.0028  140.1202  157.0521 H   0  0  0  0  0  0  0  0  0  0  0  0  # atno 8010 bound_to 7997
  139.8193  144.6738  150.9539 H   0  0  0  0  0  0  0  0  0  0  0  0  # atno 10167 bound_to 10162
  156.3795  130.4353  149.7480 H   0  0  0  0  0  0  0  0  0  0  0  0  # atno 10718 bound_to 10713
  154.7644  135.3127  154.8316 H   0  0  0  0  0  0  0  0  0  0  0  0  # atno 10763 bound_to 10752
  153.9068  135.6810  153.4757 H   0  0  0  0  0  0  0  0  0  0  0  0  # atno 10764 bound_to 10752
  153.1248  135.4806  154.9186 H   0  0  0  0  0  0  0  0  0  0  0  0  # atno 10765 bound_to 10752
  139.8776  134.9208  156.4999 H   0  0  0  0  0  0  0  0  0  0  0  0  # atno 11005 bound_to 11000
  145.7117  139.1686  143.2535 LP  0  0  0  0  0  0  0  0  0  0  0  0  # atno 17320 bound_to 7965
  146.1342  140.7145  142.9398 LP  0  0  0  0  0  0  0  0  0  0  0  0  # atno 17321 bound_to 7965
  140.7814  143.4107  151.0997 LP  0  0  0  0  0  0  0  0  0  0  0  0  # atno 17342 bound_to 10162
  139.7769  143.8412  152.3131 LP  0  0  0  0  0  0  0  0  0  0  0  0  # atno 17343 bound_to 10162
  156.4577  130.7937  151.2957 LP  0  0  0  0  0  0  0  0  0  0  0  0  # atno 17370 bound_to 10713
  157.7491  131.0076  150.3195 LP  0  0  0  0  0  0  0  0  0  0  0  0  # atno 17371 bound_to 10713
  140.8597  133.8069  155.9252 LP  0  0  0  0  0  0  0  0  0  0  0  0  # atno 17394 bound_to 11000
  140.9062  134.2317  157.5013 LP  0  0  0  0  0  0  0  0  0  0  0  0  # atno 17395 bound_to 11000

$$$$
