AV-unprocessed.smi:2471|AV-procd|sdf|9737|dock4
  -GOLD-   2272013373D 1   1.00000     0.00000
 Structure written by MMmdl.
 40 41  0  0  0  0  0  0  0  0  1 V2000
  144.5810  132.6057  149.7291 C   0  0  0  0  0  0  0  0  0  0  0  0
  145.4680  132.2387  150.9001 C   0  0  0  0  0  0  0  0  0  0  0  0
  145.4288  130.9476  151.4626 C   0  0  0  0  0  0  0  0  0  0  0  0
  146.2827  130.6702  152.5449 C   0  0  0  0  0  0  0  0  0  0  0  0
  147.1337  131.6880  153.0175 C   0  0  0  0  0  0  0  0  0  0  0  0
  147.1089  132.9581  152.3988 C   0  0  0  0  0  0  0  0  0  0  0  0
  148.0017  133.9140  152.9520 N   0  0  0  0  0  0  0  0  0  0  0  0
  148.5640  133.9185  154.1736 C   0  0  0  0  0  0  0  0  0  0  0  0
  148.3964  133.0591  155.0395 O   0  0  0  0  0  0  0  0  0  0  0  0
  149.3481  134.9931  154.3414 N   0  0  0  0  0  0  0  0  0  0  0  0
  150.1094  135.2963  155.5497 C   0  0  0  0  0  0  0  0  0  0  0  0
  150.4000  136.8078  155.7166 C   0  0  2  0  0  0  0  0  0  0  0  0
  149.1858  137.5572  156.3141 C   0  0  0  0  0  0  0  0  0  0  0  0
  149.4494  139.0637  156.4589 C   0  0  0  0  0  0  0  0  0  0  0  0
  149.8478  139.6872  155.1147 C   0  0  0  0  0  0  0  0  0  0  0  0
  151.0704  138.9716  154.5242 C   0  0  0  0  0  0  0  0  0  0  0  0
  150.8193  137.4595  154.3755 C   0  0  1  0  0  0  0  0  0  0  0  0
  152.0085  136.8684  153.8907 O   0  0  0  0  0  0  0  0  0  0  0  0
  146.2833  133.2150  151.3536 N   0  0  0  0  0  0  0  0  0  0  0  0
  143.8701  131.8095  149.5064 H   0  0  0  0  0  0  0  0  0  0  0  0
  145.1855  132.7830  148.8394 H   0  0  0  0  0  0  0  0  0  0  0  0
  144.0170  133.5127  149.9481 H   0  0  0  0  0  0  0  0  0  0  0  0
  144.7646  130.1883  151.0764 H   0  0  0  0  0  0  0  0  0  0  0  0
  146.2862  129.6934  153.0054 H   0  0  0  0  0  0  0  0  0  0  0  0
  147.7958  131.4909  153.8482 H   0  0  0  0  0  0  0  0  0  0  0  0
  148.2428  134.6832  152.3450 H   0  0  0  0  0  0  0  0  0  0  0  0
  149.4270  135.6494  153.5783 H   0  0  0  0  0  0  0  0  0  0  0  0
  149.5682  134.9072  156.4136 H   0  0  0  0  0  0  0  0  0  0  0  0
  151.0470  134.7415  155.5048 H   0  0  0  0  0  0  0  0  0  0  0  0
  151.2318  136.9201  156.4141 H   0  0  0  0  0  0  0  0  0  0  0  0
  148.3117  137.4032  155.6798 H   0  0  0  0  0  0  0  0  0  0  0  0
  148.9306  137.1508  157.2930 H   0  0  0  0  0  0  0  0  0  0  0  0
  148.5610  139.5602  156.8501 H   0  0  0  0  0  0  0  0  0  0  0  0
  150.2426  139.2276  157.1895 H   0  0  0  0  0  0  0  0  0  0  0  0
  149.0121  139.6235  154.4167 H   0  0  0  0  0  0  0  0  0  0  0  0
  150.0633  140.7482  155.2451 H   0  0  0  0  0  0  0  0  0  0  0  0
  151.3174  139.4072  153.5553 H   0  0  0  0  0  0  0  0  0  0  0  0
  151.9335  139.1431  155.1694 H   0  0  0  0  0  0  0  0  0  0  0  0
  150.0369  137.2988  153.6324 H   0  0  0  0  0  0  0  0  0  0  0  0
  151.9223  136.7409  152.9582 H   0  0  0  0  0  0  0  0  0  0  0  0
  1  2  1  0  0  0  0
  1 20  1  0  0  0  0
  1 21  1  0  0  0  0
  1 22  1  0  0  0  0
  2 19  1  0  0  0  0
  2  3  2  0  0  0  0
  3  4  1  0  0  0  0
  3 23  1  0  0  0  0
  4  5  2  0  0  0  0
  4 24  1  0  0  0  0
  5  6  1  0  0  0  0
  5 25  1  0  0  0  0
  6  7  1  0  0  0  0
  6 19  2  0  0  0  0
  7  8  1  0  0  0  0
  7 26  1  0  0  0  0
  8  9  2  0  0  0  0
  8 10  1  0  0  0  0
 10 11  1  0  0  0  0
 10 27  1  0  0  0  0
 11 12  1  0  0  0  0
 11 28  1  0  0  0  0
 11 29  1  0  0  0  0
 12 17  1  0  0  0  0
 12 13  1  0  0  0  0
 12 30  1  0  0  0  0
 13 14  1  0  0  0  0
 13 31  1  0  0  0  0
 13 32  1  0  0  0  0
 14 15  1  0  0  0  0
 14 33  1  0  0  0  0
 14 34  1  0  0  0  0
 15 16  1  0  0  0  0
 15 35  1  0  0  0  0
 15 36  1  0  0  0  0
 16 17  1  0  0  0  0
 16 37  1  0  0  0  0
 16 38  1  0  0  0  0
 17 18  1  0  0  0  0
 17 39  1  0  0  0  0
 18 40  1  0  0  0  0
M  END
> <s_m_source_file>
AV-unprocessed.smi

> <i_m_source_file_index>
2471

> <i_lp_mmshare_version>
43012

> <i_f3d_flags>
0

> <s_epik_input>
W0NIM11jMVtjSF1bY0hdW2NIXWMobjEpW05IXUMoPU8pW05IXVtDSDJdW0NAQEhdMltDSDJdW0NIMl1bQ0gyXVtDSDJdW0NASF0yW09IXQ==

> <s_epik_cmdline>
J2VwaWtfcHl0aG9uJywgJy1waCcsICc3LjAnLCAnLXRuJywgJzgnLCAnLW1hJywgJzIwMCcsICctbWV0YWxfYmluZGluZycsICctaW1hZScsICc8aW5maWxlLm1hZT4nLCAnLW9tYWUnLCAnPG91dGZpbGUubWFlPic=

> <r_lp_tautomer_probability>
1

> <r_epik_Ionization_Penalty>
8.52237e-05

> <r_epik_Ionization_Penalty_Charging>
0

> <r_epik_Ionization_Penalty_Neutral>
8.52237e-05

> <r_epik_State_Penalty>
-0

> <r_epik_Charging_Adjusted_Penalty>
0

> <i_epik_Tot_Q>
0

> <i_epik_Tot_abs_Q>
0

> <r_epik_Metal_State_Penalty>
-0

> <b_epik_Metal_Only>
0

> <s_lp_Force_Field>
OPLS_2005

> <r_lp_Energy>
13.6744

> <b_lp_Chiralities_Consistent>
1

> <s_lp_Variant>
AV-unprocessed.smi:2471-1

> <Gold.Version>
5.8.1

> <Gold.Id.Protein>
6NUR|6NUR_protein|mol2

> <Gold.PLP.Fitness>
43.8665

> <Gold.PLP.PLP>
-32.7569

> <Gold.PLP.part.hbond>
-4.0000

> <Gold.PLP.part.metal>
0.0000

> <Gold.PLP.part.buried>
-3.9945

> <Gold.PLP.part.nonpolar>
-24.2728

> <Gold.PLP.part.repulsive>
0.2204

> <Gold.PLP.ligand.clash>
0.0000

> <Gold.PLP.ligand.torsion>
0.4486

> <Gold.PLP.Chemscore.Hbond>
4.0000

> <Gold.PLP.Chemscore.CHOScore>
0.0000

> <Gold.PLP.Chemscore.Metal>
0.0000

> <Gold.Chemscore.Hbonds>
donor molecule, donor type, donor heavy atom, donor atom, acceptor molecule, acceptor atom, score
      L1  H     7    26       P1  7948  1.00
      L1  H    10    27       P1  7948  1.00
      L1  H    18    40       P1  7949  1.00
      P1  H 10752 10764       L1    18  1.00

> <Gold.PLP.Chemscore.Internal.Correction>
0.0069

> <Gold.Rescore>
     Score         DG    S(hbond)    S(metal)    S(lipo)     H(rot)  DE(clash)    DE(int)     intcor
     19.20     -21.12       3.51        0.00      71.50       1.73       0.01       1.92       ----

> <Gold.Chemscore.Fitness>
19.1974

> <Gold.Chemscore.DG>
-21.1209

> <Gold.Chemscore.ZeroCoef>
-5.4800

> <Gold.Chemscore.Hbond>
3.5073

> <Gold.Chemscore.Metal>
0.0000

> <Gold.Chemscore.Lipo>
71.4983

> <Gold.Chemscore.Internal_Hbond>
0.0000

> <Gold.Chemscore.DEClash>
0.0060

> <Gold.Chemscore.DEInternal>
1.9176

> <Gold.Chemscore.Rot>
1.7339

> <Gold.Chemscore.Internal.Correction>
   9.000000E+99

> <Gold.Chemscore.Hbonds>
donor molecule, donor type, donor heavy atom, donor atom, acceptor molecule, acceptor atom, score
      L1  H     7    26       P1  7948  0.25
      L1  H    10    27       P1  7948  0.29
      L1  H    18    40       P1  7949  0.98
      P1  H 10752 10764       L1    18  0.28

> <Gold.Chemscore.Hbond.Weighted>
-11.7143

> <Gold.Chemscore.Metal.Weighted>
-0.0000

> <Gold.Chemscore.Lipo.Weighted>
-8.3653

> <Gold.Chemscore.Internal_Hbond.Weighted>
0.0000

> <Gold.Chemscore.DEClash.Weighted>
0.0060

> <Gold.Chemscore.DEInternal.Weighted>
1.9176

> <Gold.Chemscore.Rot.Weighted>
4.4387

> <Gold.Chemscore.Internal.Correction.Weighted>
   9.000000E+99

> <Gold.Protein.RotatedTorsions>
[ 6907 6896 6895 6894 ] final  -59.35 input  -60.11 | X-H torsion
[ 7974 7965 7964 7962 ] final  -26.96 input  175.53 | X-H torsion
[ 8008 7997 7996 7995 ] final   40.11 input   59.86 | X-H torsion
[ 10167 10162 10161 10158 ] final  -67.42 input  -65.29 | X-H torsion
[ 10718 10713 10712 10709 ] final  167.99 input   66.30 | X-H torsion
[ 10763 10752 10751 10750 ] final  -77.33 input  -60.55 | X-H torsion
[ 11005 11000 10999 10996 ] final  175.17 input  -57.11 | X-H torsion

> <Gold.Protein.ActiveResidues>
 VAL166  LYS551  ARG553  GLY616  TRP617  ASP618  TYR619  PRO620  LYS621  CYS622 
 ASP623  PHE694  ASN695  SER759  ASP760  ASP761  ALA762  ILE779  LEU786  VAL792 
 PHE793  MET794  SER795  GLU796  ALA797  LYS798  CYS799  TRP800  GLU811  SER814 

> <Gold.Protein.RotatedAtoms>
  150.7937  134.6980  159.6533 H   0  0  0  0  0  0  0  0  0  0  0  0  # atno 6907 bound_to 6896
  152.4046  134.6225  160.0064 H   0  0  0  0  0  0  0  0  0  0  0  0  # atno 6908 bound_to 6896
  151.6487  133.3285  159.3183 H   0  0  0  0  0  0  0  0  0  0  0  0  # atno 6909 bound_to 6896
  146.1390  140.5088  142.8660 H   0  0  0  0  0  0  0  0  0  0  0  0  # atno 7974 bound_to 7965
  155.2477  140.3350  155.4285 H   0  0  0  0  0  0  0  0  0  0  0  0  # atno 8008 bound_to 7997
  156.2229  140.1817  156.7478 H   0  0  0  0  0  0  0  0  0  0  0  0  # atno 8009 bound_to 7997
  154.5853  140.0647  156.9147 H   0  0  0  0  0  0  0  0  0  0  0  0  # atno 8010 bound_to 7997
  140.5584  143.2312  151.6775 H   0  0  0  0  0  0  0  0  0  0  0  0  # atno 10167 bound_to 10162
  157.0435  131.0293  151.2705 H   0  0  0  0  0  0  0  0  0  0  0  0  # atno 10718 bound_to 10713
  154.5115  135.5767  153.6609 H   0  0  0  0  0  0  0  0  0  0  0  0  # atno 10763 bound_to 10752
  152.9898  135.6160  154.2872 H   0  0  0  0  0  0  0  0  0  0  0  0  # atno 10764 bound_to 10752
  154.2787  135.2851  155.2686 H   0  0  0  0  0  0  0  0  0  0  0  0  # atno 10765 bound_to 10752
  140.3592  134.7127  157.4320 H   0  0  0  0  0  0  0  0  0  0  0  0  # atno 11005 bound_to 11000
  144.7772  140.5764  143.6630 LP  0  0  0  0  0  0  0  0  0  0  0  0  # atno 17320 bound_to 7965
  145.5089  139.1480  143.3616 LP  0  0  0  0  0  0  0  0  0  0  0  0  # atno 17321 bound_to 7965
  139.5059  144.3702  152.0477 LP  0  0  0  0  0  0  0  0  0  0  0  0  # atno 17342 bound_to 10162
  140.2826  144.3843  150.6114 LP  0  0  0  0  0  0  0  0  0  0  0  0  # atno 17343 bound_to 10162
  157.5086  130.7924  149.7680 LP  0  0  0  0  0  0  0  0  0  0  0  0  # atno 17370 bound_to 10713
  156.0030  130.3870  150.2534 LP  0  0  0  0  0  0  0  0  0  0  0  0  # atno 17371 bound_to 10713
  140.0640  134.5956  155.8716 LP  0  0  0  0  0  0  0  0  0  0  0  0  # atno 17394 bound_to 11000
  141.1989  133.6604  156.5816 LP  0  0  0  0  0  0  0  0  0  0  0  0  # atno 17395 bound_to 11000

$$$$
