AV-unprocessed.smi:1798|AV-procd|sdf|7259|dock10
  -GOLD-   22720 8513D 1   1.00000     0.00000
 Structure written by MMmdl.
 40 41  0  0  0  0  0  0  0  0  3 V2000
  153.3673  142.9276  162.9998 C   0  0  0  0  0  0  0  0  0  0  0  0
  152.5702  142.7147  161.7051 C   0  0  2  0  0  0  0  0  0  0  0  0
  153.2919  141.7424  160.7526 C   0  0  0  0  0  0  0  0  0  0  0  0
  152.4991  141.5286  159.4529 C   0  0  0  0  0  0  0  0  0  0  0  0
  152.2094  142.8663  158.7426 C   0  0  1  0  0  0  0  0  0  0  0  0
  151.3934  142.6517  157.5513 N   0  0  0  0  0  0  0  0  0  0  0  0
  150.1411  142.1704  157.5449 C   0  0  0  0  0  0  0  0  0  0  0  0
  149.5289  141.8673  158.5701 O   0  0  0  0  0  0  0  0  0  0  0  0
  149.4817  142.0347  156.1648 C   0  0  0  0  0  0  0  0  0  0  0  0
  149.6617  140.7033  155.5616 N   0  0  0  0  0  0  0  0  0  0  0  0
  150.9853  140.2695  155.3492 C   0  0  0  0  0  0  0  0  0  0  0  0
  151.2669  139.0724  154.7986 C   0  0  0  0  0  0  0  0  0  0  0  0
  152.6322  138.6458  154.5827 N   0  3  0  0  0  0  0  0  0  0  0  0
  152.8367  137.4958  154.2076 O   0  0  0  0  0  0  0  0  0  0  0  0
  153.5439  139.4432  154.7815 O   0  5  0  0  0  0  0  0  0  0  0  0
  150.1522  138.2237  154.4240 C   0  0  0  0  0  0  0  0  0  0  0  0
  148.8840  138.6342  154.6215 C   0  0  0  0  0  0  0  0  0  0  0  0
  148.5800  139.9392  155.2176 C   0  0  0  0  0  0  0  0  0  0  0  0
  147.4237  140.3219  155.3966 O   0  0  0  0  0  0  0  0  0  0  0  0
  151.4896  143.8400  159.6932 C   0  0  0  0  0  0  0  0  0  0  0  0
  152.2851  144.0503  160.9920 C   0  0  0  0  0  0  0  0  0  0  0  0
  154.3396  143.3779  162.7976 H   0  0  0  0  0  0  0  0  0  0  0  0
  153.5387  141.9823  163.5153 H   0  0  0  0  0  0  0  0  0  0  0  0
  152.8325  143.5840  163.6866 H   0  0  0  0  0  0  0  0  0  0  0  0
  151.6128  142.2689  161.9789 H   0  0  0  0  0  0  0  0  0  0  0  0
  154.2832  142.1291  160.5123 H   0  0  0  0  0  0  0  0  0  0  0  0
  153.4473  140.7826  161.2463 H   0  0  0  0  0  0  0  0  0  0  0  0
  153.0565  140.8631  158.7928 H   0  0  0  0  0  0  0  0  0  0  0  0
  151.5609  141.0209  159.6815 H   0  0  0  0  0  0  0  0  0  0  0  0
  153.1568  143.3218  158.4471 H   0  0  0  0  0  0  0  0  0  0  0  0
  151.8164  142.8819  156.6638 H   0  0  0  0  0  0  0  0  0  0  0  0
  148.4211  142.2659  156.2719 H   0  0  0  0  0  0  0  0  0  0  0  0
  149.8741  142.8052  155.4983 H   0  0  0  0  0  0  0  0  0  0  0  0
  151.7433  140.9765  155.6543 H   0  0  0  0  0  0  0  0  0  0  0  0
  150.3260  137.2536  153.9822 H   0  0  0  0  0  0  0  0  0  0  0  0
  148.0687  137.9868  154.3340 H   0  0  0  0  0  0  0  0  0  0  0  0
  151.3363  144.7999  159.1987 H   0  0  0  0  0  0  0  0  0  0  0  0
  150.4978  143.4557  159.9365 H   0  0  0  0  0  0  0  0  0  0  0  0
  151.7310  144.7164  161.6542 H   0  0  0  0  0  0  0  0  0  0  0  0
  153.2248  144.5553  160.7638 H   0  0  0  0  0  0  0  0  0  0  0  0
  1  2  1  0  0  0  0
  1 22  1  0  0  0  0
  1 23  1  0  0  0  0
  1 24  1  0  0  0  0
  2 21  1  0  0  0  0
  2  3  1  0  0  0  0
  2 25  1  0  0  0  0
  3  4  1  0  0  0  0
  3 26  1  0  0  0  0
  3 27  1  0  0  0  0
  4  5  1  0  0  0  0
  4 28  1  0  0  0  0
  4 29  1  0  0  0  0
  5  6  1  0  0  0  0
  5 20  1  0  0  0  0
  5 30  1  0  0  0  0
  6  7  1  0  0  0  0
  6 31  1  0  0  0  0
  7  8  2  0  0  0  0
  7  9  1  0  0  0  0
  9 10  1  0  0  0  0
  9 32  1  0  0  0  0
  9 33  1  0  0  0  0
 10 18  1  0  0  0  0
 10 11  1  0  0  0  0
 11 12  2  0  0  0  0
 11 34  1  0  0  0  0
 12 13  1  0  0  0  0
 12 16  1  0  0  0  0
 13 14  2  0  0  0  0
 13 15  1  0  0  0  0
 16 17  2  0  0  0  0
 16 35  1  0  0  0  0
 17 18  1  0  0  0  0
 17 36  1  0  0  0  0
 18 19  2  0  0  0  0
 20 21  1  0  0  0  0
 20 37  1  0  0  0  0
 20 38  1  0  0  0  0
 21 39  1  0  0  0  0
 21 40  1  0  0  0  0
M  CHG  1  13   1
M  CHG  1  15  -1
M  END
> <s_m_source_file>
AV-unprocessed.smi

> <i_m_source_file_index>
1798

> <i_lp_mmshare_version>
43012

> <i_f3d_flags>
0

> <s_epik_input>
W0NIM11bQ0BASF0xW0NIMl1bQ0gyXVtDQEhdKFtDSDJdW0NIMl0xKVtOSF1DKD1PKVtDSDJdbjJbY0hdYyhbTitdKD1PKVtPLV0pW2NIXVtjSF1jMj1P

> <s_epik_cmdline>
J2VwaWtfcHl0aG9uJywgJy1waCcsICc3LjAnLCAnLXRuJywgJzgnLCAnLW1hJywgJzIwMCcsICctbWV0YWxfYmluZGluZycsICctaW1hZScsICc8aW5maWxlLm1hZT4nLCAnLW9tYWUnLCAnPG91dGZpbGUubWFlPic=

> <r_lp_tautomer_probability>
1

> <r_epik_Ionization_Penalty>
1.91292e-08

> <r_epik_Ionization_Penalty_Charging>
8.23013e-11

> <r_epik_Ionization_Penalty_Neutral>
1.90469e-08

> <r_epik_State_Penalty>
-0

> <r_epik_Charging_Adjusted_Penalty>
8.23013e-11

> <i_epik_Tot_Q>
0

> <i_epik_Tot_abs_Q>
2

> <r_epik_Metal_State_Penalty>
-0

> <b_epik_Metal_Only>
0

> <s_lp_Force_Field>
OPLS_2005

> <r_lp_Energy>
19.9033

> <b_lp_Chiralities_Consistent>
1

> <s_lp_Variant>
AV-unprocessed.smi:1798-1

> <Gold.Version>
5.8.1

> <Gold.Id.Protein>
6NUR|6NUR_protein|mol2

> <Gold.PLP.Fitness>
48.2073

> <Gold.PLP.PLP>
-44.4739

> <Gold.PLP.part.hbond>
-3.0984

> <Gold.PLP.part.metal>
0.0000

> <Gold.PLP.part.buried>
-2.5664

> <Gold.PLP.part.nonpolar>
-39.2352

> <Gold.PLP.part.repulsive>
0.2394

> <Gold.PLP.ligand.clash>
0.0000

> <Gold.PLP.ligand.torsion>
0.4054

> <Gold.PLP.Chemscore.Hbond>
1.5120

> <Gold.PLP.Chemscore.CHOScore>
0.0000

> <Gold.PLP.Chemscore.Metal>
0.0000

> <Gold.Chemscore.Hbonds>
donor molecule, donor type, donor heavy atom, donor atom, acceptor molecule, acceptor atom, score
      P1  H  7997  8010       L1    15  1.00
      P1  H 10752 10765       L1    14  0.48

> <Gold.PLP.Chemscore.Internal.Correction>
0.0083

> <Gold.Rescore>
     Score         DG    S(hbond)    S(metal)    S(lipo)     H(rot)  DE(clash)    DE(int)     intcor
     17.67     -19.61       1.68        0.00     106.68       1.55       0.60       1.33       ----

> <Gold.Chemscore.Fitness>
17.6701

> <Gold.Chemscore.DG>
-19.6068

> <Gold.Chemscore.ZeroCoef>
-5.4800

> <Gold.Chemscore.Hbond>
1.6809

> <Gold.Chemscore.Metal>
0.0000

> <Gold.Chemscore.Lipo>
106.6803

> <Gold.Chemscore.Internal_Hbond>
0.0000

> <Gold.Chemscore.DEClash>
0.6048

> <Gold.Chemscore.DEInternal>
1.3319

> <Gold.Chemscore.Rot>
1.5505

> <Gold.Chemscore.Internal.Correction>
   9.000000E+99

> <Gold.Chemscore.Hbonds>
donor molecule, donor type, donor heavy atom, donor atom, acceptor molecule, acceptor atom, score
      P1  H  7997  8010       L1    15  0.99
      P1  H 10752 10765       L1    14  0.48

> <Gold.Chemscore.Hbond.Weighted>
-5.6143

> <Gold.Chemscore.Metal.Weighted>
-0.0000

> <Gold.Chemscore.Lipo.Weighted>
-12.4816

> <Gold.Chemscore.Internal_Hbond.Weighted>
0.0000

> <Gold.Chemscore.DEClash.Weighted>
0.6048

> <Gold.Chemscore.DEInternal.Weighted>
1.3319

> <Gold.Chemscore.Rot.Weighted>
3.9692

> <Gold.Chemscore.Internal.Correction.Weighted>
   9.000000E+99

> <Gold.Protein.RotatedTorsions>
[ 6907 6896 6895 6894 ] final   40.37 input  -60.11 | X-H torsion
[ 7974 7965 7964 7962 ] final -114.58 input  175.53 | X-H torsion
[ 8008 7997 7996 7995 ] final  104.58 input   59.86 | X-H torsion
[ 10167 10162 10161 10158 ] final   70.74 input  -65.29 | X-H torsion
[ 10718 10713 10712 10709 ] final   98.02 input   66.30 | X-H torsion
[ 10763 10752 10751 10750 ] final  147.82 input  -60.55 | X-H torsion
[ 11005 11000 10999 10996 ] final  148.75 input  -57.11 | X-H torsion

> <Gold.Protein.ActiveResidues>
 VAL166  LYS551  ARG553  GLY616  TRP617  ASP618  TYR619  PRO620  LYS621  CYS622 
 ASP623  PHE694  ASN695  SER759  ASP760  ASP761  ALA762  ILE779  LEU786  VAL792 
 PHE793  MET794  SER795  GLU796  ALA797  LYS798  CYS799  TRP800  GLU811  SER814 

> <Gold.Protein.RotatedAtoms>
  152.1817  134.8749  160.0525 H   0  0  0  0  0  0  0  0  0  0  0  0  # atno 6907 bound_to 6896
  151.9671  133.3708  159.4065 H   0  0  0  0  0  0  0  0  0  0  0  0  # atno 6908 bound_to 6896
  150.6918  134.4103  159.5202 H   0  0  0  0  0  0  0  0  0  0  0  0  # atno 6909 bound_to 6896
  145.1185  140.8655  143.3828 H   0  0  0  0  0  0  0  0  0  0  0  0  # atno 7974 bound_to 7965
  156.1585  140.3145  155.8766 H   0  0  0  0  0  0  0  0  0  0  0  0  # atno 8008 bound_to 7997
  155.3830  140.0489  157.3060 H   0  0  0  0  0  0  0  0  0  0  0  0  # atno 8009 bound_to 7997
  154.5124  140.2169  155.9142 H   0  0  0  0  0  0  0  0  0  0  0  0  # atno 8010 bound_to 7997
  140.0537  144.5291  150.7345 H   0  0  0  0  0  0  0  0  0  0  0  0  # atno 10167 bound_to 10162
  157.6903  131.0627  150.4733 H   0  0  0  0  0  0  0  0  0  0  0  0  # atno 10718 bound_to 10713
  154.0447  135.2886  155.3350 H   0  0  0  0  0  0  0  0  0  0  0  0  # atno 10763 bound_to 10752
  154.6907  135.5227  153.8392 H   0  0  0  0  0  0  0  0  0  0  0  0  # atno 10764 bound_to 10752
  153.0585  135.6605  154.0648 H   0  0  0  0  0  0  0  0  0  0  0  0  # atno 10765 bound_to 10752
  140.0986  134.8997  157.1761 H   0  0  0  0  0  0  0  0  0  0  0  0  # atno 11005 bound_to 11000
  145.0767  139.2991  143.5804 LP  0  0  0  0  0  0  0  0  0  0  0  0  # atno 17320 bound_to 7965
  146.3522  140.0259  142.8654 LP  0  0  0  0  0  0  0  0  0  0  0  0  # atno 17321 bound_to 7965
  140.7205  143.2584  151.4295 LP  0  0  0  0  0  0  0  0  0  0  0  0  # atno 17342 bound_to 10162
  139.5937  144.1443  152.2119 LP  0  0  0  0  0  0  0  0  0  0  0  0  # atno 17343 bound_to 10162
  156.5069  130.4130  149.6322 LP  0  0  0  0  0  0  0  0  0  0  0  0  # atno 17370 bound_to 10713
  156.3276  130.7314  151.2238 LP  0  0  0  0  0  0  0  0  0  0  0  0  # atno 17371 bound_to 10713
  140.3252  134.2872  155.7238 LP  0  0  0  0  0  0  0  0  0  0  0  0  # atno 17394 bound_to 11000
  141.2099  133.7735  156.9966 LP  0  0  0  0  0  0  0  0  0  0  0  0  # atno 17395 bound_to 11000

$$$$
