AV-unprocessed.smi:1570|AV-procd|sdf|6317|dock7
  -GOLD-   22720 6523D 1   1.00000     0.00000
 Structure written by MMmdl.
 51 53  0  0  0  0  0  0  0  0  1 V2000
  153.7301  141.4426  161.8161 C   0  0  0  0  0  0  0  0  0  0  0  0
  153.9185  140.8360  160.4202 C   0  0  0  0  0  0  0  0  0  0  0  0
  152.7784  141.1336  159.5568 N   0  0  0  0  0  0  0  0  0  0  0  0
  152.0524  140.2419  158.8422 C   0  0  0  0  0  0  0  0  0  0  0  0
  152.2259  139.0235  158.8149 O   0  0  0  0  0  0  0  0  0  0  0  0
  151.1047  140.9241  158.1574 N   0  0  0  0  0  0  0  0  0  0  0  0
  150.1063  140.3557  157.2542 C   0  0  0  0  0  0  0  0  0  0  0  0
  150.2000  140.9614  155.8372 C   0  0  1  0  0  0  0  0  0  0  0  0
  151.3917  140.5468  155.2003 O   0  0  0  0  0  0  0  0  0  0  0  0
  148.9937  140.6155  154.9344 C   0  0  0  0  0  0  0  0  0  0  0  0
  147.7242  141.2751  155.2538 N   0  0  0  0  0  0  0  0  0  0  0  0
  146.6854  140.3403  155.6808 C   0  0  0  0  0  0  0  0  0  0  0  0
  145.3488  141.0402  155.9982 C   0  0  1  0  0  0  0  0  0  0  0  0
  145.3724  141.8173  157.3255 C   0  0  0  0  0  0  0  0  0  0  0  0
  144.9489  141.8686  154.9052 O   0  0  0  0  0  0  0  0  0  0  0  0
  145.9337  142.7970  154.4545 C   0  0  2  0  0  0  0  0  0  0  0  0
  145.3682  143.5431  153.2417 C   0  0  0  0  0  0  0  0  0  0  0  0
  147.2303  142.0402  154.1165 C   0  0  0  0  0  0  0  0  0  0  0  0
  151.2300  142.2922  158.4381 C   0  0  0  0  0  0  0  0  0  0  0  0
  150.4961  143.4022  157.9841 C   0  0  0  0  0  0  0  0  0  0  0  0
  150.8866  144.6749  158.4620 C   0  0  0  0  0  0  0  0  0  0  0  0
  151.9754  144.8111  159.3620 C   0  0  0  0  0  0  0  0  0  0  0  0
  152.6954  143.6769  159.8051 C   0  0  0  0  0  0  0  0  0  0  0  0
  152.2852  142.4241  159.3166 C   0  0  0  0  0  0  0  0  0  0  0  0
  154.5823  141.2144  162.4563 H   0  0  0  0  0  0  0  0  0  0  0  0
  152.8362  141.0485  162.3000 H   0  0  0  0  0  0  0  0  0  0  0  0
  153.6338  142.5276  161.7654 H   0  0  0  0  0  0  0  0  0  0  0  0
  154.8355  141.2195  159.9705 H   0  0  0  0  0  0  0  0  0  0  0  0
  154.0485  139.7563  160.4961 H   0  0  0  0  0  0  0  0  0  0  0  0
  150.1855  139.2686  157.2267 H   0  0  0  0  0  0  0  0  0  0  0  0
  149.1207  140.5665  157.6730 H   0  0  0  0  0  0  0  0  0  0  0  0
  150.2483  142.0488  155.9084 H   0  0  0  0  0  0  0  0  0  0  0  0
  151.3891  139.6034  155.1479 H   0  0  0  0  0  0  0  0  0  0  0  0
  149.2777  140.9169  153.9250 H   0  0  0  0  0  0  0  0  0  0  0  0
  148.8571  139.5341  154.8826 H   0  0  0  0  0  0  0  0  0  0  0  0
  146.5203  139.6006  154.8958 H   0  0  0  0  0  0  0  0  0  0  0  0
  147.0052  139.7873  156.5625 H   0  0  0  0  0  0  0  0  0  0  0  0
  144.5826  140.2705  156.0951 H   0  0  0  0  0  0  0  0  0  0  0  0
  145.5709  141.1475  158.1624 H   0  0  0  0  0  0  0  0  0  0  0  0
  144.4127  142.3008  157.5096 H   0  0  0  0  0  0  0  0  0  0  0  0
  146.1431  142.5876  157.3368 H   0  0  0  0  0  0  0  0  0  0  0  0
  146.1321  143.5250  155.2420 H   0  0  0  0  0  0  0  0  0  0  0  0
  146.0840  144.2727  152.8622 H   0  0  0  0  0  0  0  0  0  0  0  0
  144.4562  144.0792  153.5048 H   0  0  0  0  0  0  0  0  0  0  0  0
  145.1285  142.8552  152.4304 H   0  0  0  0  0  0  0  0  0  0  0  0
  147.9880  142.7573  153.7978 H   0  0  0  0  0  0  0  0  0  0  0  0
  147.0571  141.3735  153.2700 H   0  0  0  0  0  0  0  0  0  0  0  0
  149.6676  143.2939  157.3001 H   0  0  0  0  0  0  0  0  0  0  0  0
  150.3495  145.5539  158.1372 H   0  0  0  0  0  0  0  0  0  0  0  0
  152.2579  145.7925  159.7137 H   0  0  0  0  0  0  0  0  0  0  0  0
  153.5251  143.7746  160.4894 H   0  0  0  0  0  0  0  0  0  0  0  0
  1  2  1  0  0  0  0
  1 25  1  0  0  0  0
  1 26  1  0  0  0  0
  1 27  1  0  0  0  0
  2  3  1  0  0  0  0
  2 28  1  0  0  0  0
  2 29  1  0  0  0  0
  3 24  1  0  0  0  0
  3  4  1  0  0  0  0
  4  5  2  0  0  0  0
  4  6  1  0  0  0  0
  6  7  1  0  0  0  0
  6 19  1  0  0  0  0
  7  8  1  0  0  0  0
  7 30  1  0  0  0  0
  7 31  1  0  0  0  0
  8  9  1  0  0  0  0
  8 10  1  0  0  0  0
  8 32  1  0  0  0  0
  9 33  1  0  0  0  0
 10 11  1  0  0  0  0
 10 34  1  0  0  0  0
 10 35  1  0  0  0  0
 11 18  1  0  0  0  0
 11 12  1  0  0  0  0
 12 13  1  0  0  0  0
 12 36  1  0  0  0  0
 12 37  1  0  0  0  0
 13 14  1  0  0  0  0
 13 15  1  0  0  0  0
 13 38  1  0  0  0  0
 14 39  1  0  0  0  0
 14 40  1  0  0  0  0
 14 41  1  0  0  0  0
 15 16  1  0  0  0  0
 16 17  1  0  0  0  0
 16 18  1  0  0  0  0
 16 42  1  0  0  0  0
 17 43  1  0  0  0  0
 17 44  1  0  0  0  0
 17 45  1  0  0  0  0
 18 46  1  0  0  0  0
 18 47  1  0  0  0  0
 19 24  2  0  0  0  0
 19 20  1  0  0  0  0
 20 21  2  0  0  0  0
 20 48  1  0  0  0  0
 21 22  1  0  0  0  0
 21 49  1  0  0  0  0
 22 23  2  0  0  0  0
 22 50  1  0  0  0  0
 23 24  1  0  0  0  0
 23 51  1  0  0  0  0
M  END
> <s_m_source_file>
AV-unprocessed.smi

> <i_m_source_file_index>
1570

> <i_lp_mmshare_version>
43012

> <i_f3d_flags>
0

> <s_epik_input>
W2NIXTFbY0hdW2NIXVtjSF1jKGMxMiluKFtDSDJdW0NIM10pYyg9TyluMltDSDJdW0NASF0oW09IXSlbQ0gyXU4zW0NIMl1bQ0BASF0oW0NIM10pT1tDQEBIXShbQ0gzXSlbQ0gyXTM=

> <s_epik_cmdline>
J2VwaWtfcHl0aG9uJywgJy1waCcsICc3LjAnLCAnLXRuJywgJzgnLCAnLW1hJywgJzIwMCcsICctbWV0YWxfYmluZGluZycsICctaW1hZScsICc8aW5maWxlLm1hZT4nLCAnLW9tYWUnLCAnPG91dGZpbGUubWFlPic=

> <r_epik_Ionization_Penalty>
0.214359

> <r_epik_Ionization_Penalty_Charging>
2.30976e-09

> <r_epik_Ionization_Penalty_Neutral>
0.214359

> <r_epik_State_Penalty>
0.204533

> <r_epik_Charging_Adjusted_Penalty>
0.204533

> <i_epik_Tot_Q>
0

> <i_epik_Tot_abs_Q>
0

> <r_epik_Metal_State_Penalty>
0.204533

> <b_epik_Metal_Only>
0

> <s_lp_Force_Field>
OPLS_2005

> <r_lp_Energy>
65.1855

> <b_lp_Chiralities_Consistent>
1

> <s_lp_Variant>
AV-unprocessed.smi:1570-6

> <Gold.Version>
5.8.1

> <Gold.Id.Protein>
6NUR|6NUR_protein|mol2

> <Gold.PLP.Fitness>
51.5487

> <Gold.PLP.PLP>
-50.4063

> <Gold.PLP.part.hbond>
-1.0000

> <Gold.PLP.part.metal>
0.0000

> <Gold.PLP.part.buried>
-6.8246

> <Gold.PLP.part.nonpolar>
-43.2144

> <Gold.PLP.part.repulsive>
0.2758

> <Gold.PLP.ligand.clash>
0.0000

> <Gold.PLP.ligand.torsion>
0.9487

> <Gold.PLP.Chemscore.Hbond>
1.0000

> <Gold.PLP.Chemscore.CHOScore>
0.0000

> <Gold.PLP.Chemscore.Metal>
0.0000

> <Gold.Chemscore.Hbonds>
donor molecule, donor type, donor heavy atom, donor atom, acceptor molecule, acceptor atom, score
      P1  H  7989  7998       L1     9  0.78

> <Gold.PLP.Chemscore.Internal.Correction>
0.0399

> <Gold.Rescore>
     Score         DG    S(hbond)    S(metal)    S(lipo)     H(rot)  DE(clash)    DE(int)     intcor
     17.67     -18.69       0.92        0.00     131.62       2.06       0.09       0.93       ----

> <Gold.Chemscore.Fitness>
17.6730

> <Gold.Chemscore.DG>
-18.6884

> <Gold.Chemscore.ZeroCoef>
-5.4800

> <Gold.Chemscore.Hbond>
0.9210

> <Gold.Chemscore.Metal>
0.0000

> <Gold.Chemscore.Lipo>
131.6159

> <Gold.Chemscore.Internal_Hbond>
0.0000

> <Gold.Chemscore.DEClash>
0.0883

> <Gold.Chemscore.DEInternal>
0.9270

> <Gold.Chemscore.Rot>
2.0574

> <Gold.Chemscore.Internal.Correction>
   9.000000E+99

> <Gold.Chemscore.Hbonds>
donor molecule, donor type, donor heavy atom, donor atom, acceptor molecule, acceptor atom, score
      P1  H  7989  7998       L1     9  0.15

> <Gold.Chemscore.Hbond.Weighted>
-3.0762

> <Gold.Chemscore.Metal.Weighted>
-0.0000

> <Gold.Chemscore.Lipo.Weighted>
-15.3991

> <Gold.Chemscore.Internal_Hbond.Weighted>
0.0000

> <Gold.Chemscore.DEClash.Weighted>
0.0883

> <Gold.Chemscore.DEInternal.Weighted>
0.9270

> <Gold.Chemscore.Rot.Weighted>
5.2669

> <Gold.Chemscore.Internal.Correction.Weighted>
   9.000000E+99

> <Gold.Protein.RotatedTorsions>
[ 6907 6896 6895 6894 ] final    6.05 input  -60.11 | X-H torsion
[ 7974 7965 7964 7962 ] final    3.47 input  175.53 | X-H torsion
[ 8008 7997 7996 7995 ] final  -42.43 input   59.86 | X-H torsion
[ 10167 10162 10161 10158 ] final  -45.71 input  -65.29 | X-H torsion
[ 10718 10713 10712 10709 ] final   -5.61 input   66.30 | X-H torsion
[ 10763 10752 10751 10750 ] final  147.48 input  -60.55 | X-H torsion
[ 11005 11000 10999 10996 ] final   -2.48 input  -57.11 | X-H torsion

> <Gold.Protein.ActiveResidues>
 VAL166  LYS551  ARG553  GLY616  TRP617  ASP618  TYR619  PRO620  LYS621  CYS622 
 ASP623  PHE694  ASN695  SER759  ASP760  ASP761  ALA762  ILE779  LEU786  VAL792 
 PHE793  MET794  SER795  GLU796  ALA797  LYS798  CYS799  TRP800  GLU811  SER814 

> <Gold.Protein.RotatedAtoms>
  151.6674  135.0981  160.0191 H   0  0  0  0  0  0  0  0  0  0  0  0  # atno 6907 bound_to 6896
  152.3911  133.6676  159.6247 H   0  0  0  0  0  0  0  0  0  0  0  0  # atno 6908 bound_to 6896
  150.7826  133.8869  159.3343 H   0  0  0  0  0  0  0  0  0  0  0  0  # atno 6909 bound_to 6896
  146.2445  140.0680  142.8364 H   0  0  0  0  0  0  0  0  0  0  0  0  # atno 7974 bound_to 7965
  154.3999  140.1473  156.3354 H   0  0  0  0  0  0  0  0  0  0  0  0  # atno 8008 bound_to 7997
  155.8405  140.3462  155.5608 H   0  0  0  0  0  0  0  0  0  0  0  0  # atno 8009 bound_to 7997
  155.8092  140.0881  157.1904 H   0  0  0  0  0  0  0  0  0  0  0  0  # atno 8010 bound_to 7997
  140.6847  143.2866  151.3678 H   0  0  0  0  0  0  0  0  0  0  0  0  # atno 10167 bound_to 10162
  156.7441  130.5219  149.5818 H   0  0  0  0  0  0  0  0  0  0  0  0  # atno 10718 bound_to 10713
  154.0390  135.2891  155.3358 H   0  0  0  0  0  0  0  0  0  0  0  0  # atno 10763 bound_to 10752
  154.6941  135.5215  153.8436 H   0  0  0  0  0  0  0  0  0  0  0  0  # atno 10764 bound_to 10752
  153.0608  135.6613  154.0596 H   0  0  0  0  0  0  0  0  0  0  0  0  # atno 10765 bound_to 10752
  140.6588  133.9339  155.8424 H   0  0  0  0  0  0  0  0  0  0  0  0  # atno 11005 bound_to 11000
  145.0841  140.9241  143.4808 LP  0  0  0  0  0  0  0  0  0  0  0  0  # atno 17320 bound_to 7965
  145.0839  139.2939  143.5769 LP  0  0  0  0  0  0  0  0  0  0  0  0  # atno 17321 bound_to 7965
  139.6196  144.0934  152.2378 LP  0  0  0  0  0  0  0  0  0  0  0  0  # atno 17342 bound_to 10162
  140.0374  144.6034  150.7438 LP  0  0  0  0  0  0  0  0  0  0  0  0  # atno 17343 bound_to 10162
  156.1445  130.6267  151.0512 LP  0  0  0  0  0  0  0  0  0  0  0  0  # atno 17370 bound_to 10713
  157.6806  131.0839  150.7380 LP  0  0  0  0  0  0  0  0  0  0  0  0  # atno 17371 bound_to 10713
  141.0481  134.0525  157.3819 LP  0  0  0  0  0  0  0  0  0  0  0  0  # atno 17394 bound_to 11000
  139.9020  135.0168  156.7313 LP  0  0  0  0  0  0  0  0  0  0  0  0  # atno 17395 bound_to 11000

$$$$
