AV-unprocessed.smi:2795|AV-procd|sdf|10781|dock1
  -GOLD-   2272015213D 1   1.00000     0.00000
 Structure written by MMmdl.
 36 37  0  0  0  0  0  0  0  0  1 V2000
  152.8261  142.4802  160.8709 C   0  0  0  0  0  0  0  0  0  0  0  0
  151.9797  143.5591  160.4020 N   0  0  0  0  0  0  0  0  0  0  0  0
  151.7894  144.7458  160.9943 C   0  0  0  0  0  0  0  0  0  0  0  0
  150.9547  145.5520  160.3536 N   0  0  0  0  0  0  0  0  0  0  0  0
  150.5699  144.8109  159.2399 C   0  0  0  0  0  0  0  0  0  0  0  0
  151.1984  143.5827  159.2496 C   0  0  0  0  0  0  0  0  0  0  0  0
  151.1248  142.4268  158.2936 C   0  0  0  0  0  0  0  0  0  0  0  0
  151.1284  142.7994  156.8012 C   0  0  0  0  0  0  0  0  0  0  0  0
  150.0032  142.1987  156.0959 N   0  0  0  0  0  0  0  0  0  0  0  0
  150.0644  141.0566  155.3964 C   0  0  0  0  0  0  0  0  0  0  0  0
  151.1072  140.4179  155.2483 O   0  0  0  0  0  0  0  0  0  0  0  0
  148.7474  140.5797  154.7683 C   0  0  1  0  0  0  0  0  0  0  0  0
  148.0828  141.6479  153.8696 C   0  0  0  0  0  0  0  0  0  0  0  0
  146.8200  141.0859  153.2075 C   0  0  0  0  0  0  0  0  0  0  0  0
  147.1532  139.7755  152.4874 C   0  0  0  0  0  0  0  0  0  0  0  0
  147.8532  138.8029  153.4490 C   0  0  0  0  0  0  0  0  0  0  0  0
  149.0197  139.4117  153.9932 O   0  0  0  0  0  0  0  0  0  0  0  0
  153.2704  142.7384  161.8329 H   0  0  0  0  0  0  0  0  0  0  0  0
  153.6237  142.2991  160.1500 H   0  0  0  0  0  0  0  0  0  0  0  0
  152.2345  141.5719  160.9876 H   0  0  0  0  0  0  0  0  0  0  0  0
  152.2723  145.0256  161.9192 H   0  0  0  0  0  0  0  0  0  0  0  0
  149.8757  145.2184  158.5195 H   0  0  0  0  0  0  0  0  0  0  0  0
  151.9596  141.7517  158.4859 H   0  0  0  0  0  0  0  0  0  0  0  0
  150.2232  141.8519  158.5069 H   0  0  0  0  0  0  0  0  0  0  0  0
  151.0840  143.8842  156.6942 H   0  0  0  0  0  0  0  0  0  0  0  0
  152.0603  142.4720  156.3373 H   0  0  0  0  0  0  0  0  0  0  0  0
  149.1098  142.6643  156.1710 H   0  0  0  0  0  0  0  0  0  0  0  0
  148.0723  140.3163  155.5844 H   0  0  0  0  0  0  0  0  0  0  0  0
  147.8264  142.5334  154.4527 H   0  0  0  0  0  0  0  0  0  0  0  0
  148.7813  141.9725  153.0966 H   0  0  0  0  0  0  0  0  0  0  0  0
  146.0568  140.9052  153.9654 H   0  0  0  0  0  0  0  0  0  0  0  0
  146.4025  141.8100  152.5073 H   0  0  0  0  0  0  0  0  0  0  0  0
  146.2459  139.3235  152.0861 H   0  0  0  0  0  0  0  0  0  0  0  0
  147.8048  139.9794  151.6369 H   0  0  0  0  0  0  0  0  0  0  0  0
  147.1812  138.4983  154.2526 H   0  0  0  0  0  0  0  0  0  0  0  0
  148.1452  137.8967  152.9180 H   0  0  0  0  0  0  0  0  0  0  0  0
  1  2  1  0  0  0  0
  1 18  1  0  0  0  0
  1 19  1  0  0  0  0
  1 20  1  0  0  0  0
  2  6  1  0  0  0  0
  2  3  1  0  0  0  0
  3  4  2  0  0  0  0
  3 21  1  0  0  0  0
  4  5  1  0  0  0  0
  5  6  2  0  0  0  0
  5 22  1  0  0  0  0
  6  7  1  0  0  0  0
  7  8  1  0  0  0  0
  7 23  1  0  0  0  0
  7 24  1  0  0  0  0
  8  9  1  0  0  0  0
  8 25  1  0  0  0  0
  8 26  1  0  0  0  0
  9 10  1  0  0  0  0
  9 27  1  0  0  0  0
 10 11  2  0  0  0  0
 10 12  1  0  0  0  0
 12 17  1  0  0  0  0
 12 13  1  0  0  0  0
 12 28  1  0  0  0  0
 13 14  1  0  0  0  0
 13 29  1  0  0  0  0
 13 30  1  0  0  0  0
 14 15  1  0  0  0  0
 14 31  1  0  0  0  0
 14 32  1  0  0  0  0
 15 16  1  0  0  0  0
 15 33  1  0  0  0  0
 15 34  1  0  0  0  0
 16 17  1  0  0  0  0
 16 35  1  0  0  0  0
 16 36  1  0  0  0  0
M  END
> <s_m_source_file>
AV-unprocessed.smi

> <i_m_source_file_index>
2795

> <i_lp_mmshare_version>
43012

> <i_f3d_flags>
0

> <s_epik_input>
W0NIM11uMVtjSF1uW2NIXWMxW0NIMl1bQ0gyXVtOSF1DKD1PKVtDQEBIXTJbQ0gyXVtDSDJdW0NIMl1bQ0gyXU8y

> <s_epik_cmdline>
J2VwaWtfcHl0aG9uJywgJy1waCcsICc3LjAnLCAnLXRuJywgJzgnLCAnLW1hJywgJzIwMCcsICctbWV0YWxfYmluZGluZycsICctaW1hZScsICc8aW5maWxlLm1hZT4nLCAnLW9tYWUnLCAnPG91dGZpbGUubWFlPic=

> <r_lp_tautomer_probability>
1

> <r_epik_Ionization_Penalty>
0.870864

> <r_epik_Ionization_Penalty_Charging>
0.870864

> <r_epik_Ionization_Penalty_Neutral>
4.06047e-08

> <r_epik_State_Penalty>
0.90819

> <r_epik_Charging_Adjusted_Penalty>
1.77905

> <i_epik_Tot_Q>
0

> <i_epik_Tot_abs_Q>
0

> <r_epik_Metal_State_Penalty>
0.360563

> <b_epik_Metal_Only>
0

> <s_lp_Force_Field>
OPLS_2005

> <r_lp_Energy>
10.035

> <b_lp_Chiralities_Consistent>
1

> <s_lp_Variant>
AV-unprocessed.smi:2795-4

> <Gold.Version>
5.8.1

> <Gold.Id.Protein>
6NUR|6NUR_protein|mol2

> <Gold.PLP.Fitness>
43.4213

> <Gold.PLP.PLP>
-37.2686

> <Gold.PLP.part.hbond>
-3.8965

> <Gold.PLP.part.metal>
0.0000

> <Gold.PLP.part.buried>
-2.0154

> <Gold.PLP.part.nonpolar>
-31.2856

> <Gold.PLP.part.repulsive>
0.7418

> <Gold.PLP.ligand.clash>
0.0000

> <Gold.PLP.ligand.torsion>
0.8220

> <Gold.PLP.Chemscore.Hbond>
1.5760

> <Gold.PLP.Chemscore.CHOScore>
1.0101

> <Gold.PLP.Chemscore.Metal>
0.0000

> <Gold.Chemscore.Hbonds>
donor molecule, donor type, donor heavy atom, donor atom, acceptor molecule, acceptor atom, score
      L1  H     9    27       P1  8028  0.32
      P1  H  7989  7998       L1    11  1.00
      L1  C     5    22       P1  8029  1.00

> <Gold.PLP.Chemscore.Internal.Correction>
0.0383

> <Gold.Rescore>
     Score         DG    S(hbond)    S(metal)    S(lipo)     H(rot)  DE(clash)    DE(int)     intcor
     13.29     -15.53       1.33        0.00      86.49       1.76       1.30       0.95       ----

> <Gold.Chemscore.Fitness>
13.2860

> <Gold.Chemscore.DG>
-15.5283

> <Gold.Chemscore.ZeroCoef>
-5.4800

> <Gold.Chemscore.Hbond>
1.3267

> <Gold.Chemscore.Metal>
0.0000

> <Gold.Chemscore.Lipo>
86.4860

> <Gold.Chemscore.Internal_Hbond>
0.0000

> <Gold.Chemscore.DEClash>
1.2970

> <Gold.Chemscore.DEInternal>
0.9453

> <Gold.Chemscore.Rot>
1.7585

> <Gold.Chemscore.Internal.Correction>
   9.000000E+99

> <Gold.Chemscore.Hbonds>
donor molecule, donor type, donor heavy atom, donor atom, acceptor molecule, acceptor atom, score
      L1  H     9    27       P1  8028  0.33
      P1  H  7989  7998       L1    11  0.37

> <Gold.Chemscore.Hbond.Weighted>
-4.4312

> <Gold.Chemscore.Metal.Weighted>
-0.0000

> <Gold.Chemscore.Lipo.Weighted>
-10.1189

> <Gold.Chemscore.Internal_Hbond.Weighted>
0.0000

> <Gold.Chemscore.DEClash.Weighted>
1.2970

> <Gold.Chemscore.DEInternal.Weighted>
0.9453

> <Gold.Chemscore.Rot.Weighted>
4.5018

> <Gold.Chemscore.Internal.Correction.Weighted>
   9.000000E+99

> <Gold.Protein.RotatedTorsions>
[ 6907 6896 6895 6894 ] final -116.09 input  -60.11 | X-H torsion
[ 7974 7965 7964 7962 ] final -139.11 input  175.53 | X-H torsion
[ 8008 7997 7996 7995 ] final  153.38 input   59.86 | X-H torsion
[ 10167 10162 10161 10158 ] final -161.87 input  -65.29 | X-H torsion
[ 10718 10713 10712 10709 ] final  160.19 input   66.30 | X-H torsion
[ 10763 10752 10751 10750 ] final  157.29 input  -60.55 | X-H torsion
[ 11005 11000 10999 10996 ] final   58.45 input  -57.11 | X-H torsion

> <Gold.Protein.ActiveResidues>
 VAL166  LYS551  ARG553  GLY616  TRP617  ASP618  TYR619  PRO620  LYS621  CYS622 
 ASP623  PHE694  ASN695  SER759  ASP760  ASP761  ALA762  ILE779  LEU786  VAL792 
 PHE793  MET794  SER795  GLU796  ALA797  LYS798  CYS799  TRP800  GLU811  SER814 

> <Gold.Protein.RotatedAtoms>
  150.8029  133.8566  159.3219 H   0  0  0  0  0  0  0  0  0  0  0  0  # atno 6907 bound_to 6896
  151.6373  135.1015  160.0143 H   0  0  0  0  0  0  0  0  0  0  0  0  # atno 6908 bound_to 6896
  152.4117  133.6934  159.6439 H   0  0  0  0  0  0  0  0  0  0  0  0  # atno 6909 bound_to 6896
  144.8703  140.6357  143.5271 H   0  0  0  0  0  0  0  0  0  0  0  0  # atno 7974 bound_to 7965
  156.2584  140.1995  156.6480 H   0  0  0  0  0  0  0  0  0  0  0  0  # atno 8008 bound_to 7997
  154.6558  140.0566  157.0032 H   0  0  0  0  0  0  0  0  0  0  0  0  # atno 8009 bound_to 7997
  155.1349  140.3237  155.4468 H   0  0  0  0  0  0  0  0  0  0  0  0  # atno 8010 bound_to 7997
  139.6434  144.0218  152.2109 H   0  0  0  0  0  0  0  0  0  0  0  0  # atno 10167 bound_to 10162
  157.1538  131.0570  151.2266 H   0  0  0  0  0  0  0  0  0  0  0  0  # atno 10718 bound_to 10713
  154.1979  135.2791  155.3000 H   0  0  0  0  0  0  0  0  0  0  0  0  # atno 10763 bound_to 10752
  154.5877  135.5569  153.7251 H   0  0  0  0  0  0  0  0  0  0  0  0  # atno 10764 bound_to 10752
  153.0095  135.6360  154.2118 H   0  0  0  0  0  0  0  0  0  0  0  0  # atno 10765 bound_to 10752
  140.0377  134.5919  155.9423 H   0  0  0  0  0  0  0  0  0  0  0  0  # atno 11005 bound_to 11000
  145.4143  139.1575  143.4109 LP  0  0  0  0  0  0  0  0  0  0  0  0  # atno 17320 bound_to 7965
  146.2925  140.4249  142.8734 LP  0  0  0  0  0  0  0  0  0  0  0  0  # atno 17321 bound_to 7965
  139.9913  144.6359  150.7812 LP  0  0  0  0  0  0  0  0  0  0  0  0  # atno 17342 bound_to 10162
  140.7502  143.2952  151.3225 LP  0  0  0  0  0  0  0  0  0  0  0  0  # atno 17343 bound_to 10162
  157.4195  130.7430  149.6902 LP  0  0  0  0  0  0  0  0  0  0  0  0  # atno 17370 bound_to 10713
  155.9765  130.4074  150.3771 LP  0  0  0  0  0  0  0  0  0  0  0  0  # atno 17371 bound_to 10713
  141.1866  133.6558  156.5247 LP  0  0  0  0  0  0  0  0  0  0  0  0  # atno 17394 bound_to 11000
  140.4121  134.7263  157.4841 LP  0  0  0  0  0  0  0  0  0  0  0  0  # atno 17395 bound_to 11000

$$$$
