AV-unprocessed.smi:1046|AV-procd|sdf|4559|dock3
  -GOLD-   22720 2593D 1   1.00000     0.00000
 Structure written by MMmdl.
 54 56  0  0  0  0  0  0  0  0  3 V2000
  152.2617  143.9946  160.0878 C   0  0  0  0  0  0  0  0  0  0  0  0
  151.9130  142.9471  159.0440 C   0  0  0  0  0  0  0  0  0  0  0  0
  150.9908  143.2877  158.0288 C   0  0  0  0  0  0  0  0  0  0  0  0
  150.6948  142.3099  157.0864 C   0  0  0  0  0  0  0  0  0  0  0  0
  149.8439  142.3350  155.9793 N   0  3  0  0  0  0  0  0  0  0  0  0
  149.8848  141.1297  155.3470 C   0  0  0  0  0  0  0  0  0  0  0  0
  150.7479  140.3338  156.0348 N   0  0  0  0  0  0  0  0  0  0  0  0
  151.1503  138.9433  155.7788 C   0  0  0  0  0  0  0  0  0  0  0  0
  150.4981  138.3594  154.5095 C   0  0  1  0  0  0  0  0  0  0  0  0
  151.2057  137.2233  154.0541 O   0  0  0  0  0  0  0  0  0  0  0  0
  148.9977  138.0041  154.6146 C   0  0  0  0  0  0  0  0  0  0  0  0
  148.0506  139.1070  154.3931 N   0  0  0  0  0  0  0  0  0  0  0  0
  147.6260  139.2796  152.9980 C   0  0  0  0  0  0  0  0  0  0  0  0
  146.6772  138.1704  152.4935 C   0  0  0  0  0  0  0  0  0  0  0  0
  145.4890  138.0560  153.3768 N   0  3  0  0  0  0  0  0  0  0  0  0
  144.5195  137.0392  152.8966 C   0  0  0  0  0  0  0  0  0  0  0  0
  143.2705  136.9449  153.7897 C   0  0  0  0  0  0  0  0  0  0  0  0
  142.7288  138.2317  153.9990 O   0  0  0  0  0  0  0  0  0  0  0  0
  145.9083  137.8605  154.7889 C   0  0  0  0  0  0  0  0  0  0  0  0
  146.8499  139.0004  155.2223 C   0  0  0  0  0  0  0  0  0  0  0  0
  151.2783  141.0288  157.1289 C   0  0  0  0  0  0  0  0  0  0  0  0
  152.1886  140.6773  158.1231 C   0  0  0  0  0  0  0  0  0  0  0  0
  152.5060  141.6588  159.0889 C   0  0  0  0  0  0  0  0  0  0  0  0
  153.5019  141.3047  160.1801 C   0  0  0  0  0  0  0  0  0  0  0  0
  151.6632  144.8971  159.9622 H   0  0  0  0  0  0  0  0  0  0  0  0
  153.3119  144.2759  160.0087 H   0  0  0  0  0  0  0  0  0  0  0  0
  152.0790  143.6142  161.0930 H   0  0  0  0  0  0  0  0  0  0  0  0
  150.5379  144.2673  157.9864 H   0  0  0  0  0  0  0  0  0  0  0  0
  149.3315  140.8557  154.4603 H   0  0  0  0  0  0  0  0  0  0  0  0
  152.2379  138.9024  155.7259 H   0  0  0  0  0  0  0  0  0  0  0  0
  150.8538  138.3600  156.6513 H   0  0  0  0  0  0  0  0  0  0  0  0
  150.5892  139.1066  153.7200 H   0  0  0  0  0  0  0  0  0  0  0  0
  150.9880  137.0763  153.1463 H   0  0  0  0  0  0  0  0  0  0  0  0
  148.7774  137.1745  153.9440 H   0  0  0  0  0  0  0  0  0  0  0  0
  148.8462  137.5986  155.6161 H   0  0  0  0  0  0  0  0  0  0  0  0
  147.1173  140.2402  152.9043 H   0  0  0  0  0  0  0  0  0  0  0  0
  148.4834  139.3426  152.3332 H   0  0  0  0  0  0  0  0  0  0  0  0
  146.3526  138.4128  151.4809 H   0  0  0  0  0  0  0  0  0  0  0  0
  147.1886  137.2093  152.4334 H   0  0  0  0  0  0  0  0  0  0  0  0
  144.1991  137.2851  151.8828 H   0  0  0  0  0  0  0  0  0  0  0  0
  145.0136  136.0688  152.8320 H   0  0  0  0  0  0  0  0  0  0  0  0
  142.5133  136.3331  153.2989 H   0  0  0  0  0  0  0  0  0  0  0  0
  143.4820  136.4730  154.7484 H   0  0  0  0  0  0  0  0  0  0  0  0
  142.9888  138.7895  153.2809 H   0  0  0  0  0  0  0  0  0  0  0  0
  145.0377  137.8538  155.4435 H   0  0  0  0  0  0  0  0  0  0  0  0
  146.3970  136.8917  154.9035 H   0  0  0  0  0  0  0  0  0  0  0  0
  147.1318  138.8721  156.2681 H   0  0  0  0  0  0  0  0  0  0  0  0
  146.3038  139.9440  155.1804 H   0  0  0  0  0  0  0  0  0  0  0  0
  152.6456  139.6993  158.1548 H   0  0  0  0  0  0  0  0  0  0  0  0
  153.9005  140.2987  160.0457 H   0  0  0  0  0  0  0  0  0  0  0  0
  153.0259  141.3471  161.1600 H   0  0  0  0  0  0  0  0  0  0  0  0
  154.3429  141.9984  160.1723 H   0  0  0  0  0  0  0  0  0  0  0  0
  145.0153  138.9470  153.3282 H   0  0  0  0  0  0  0  0  0  0  0  0
  149.2767  143.1159  155.6752 H   0  0  0  0  0  0  0  0  0  0  0  0
  1  2  1  0  0  0  0
  1 25  1  0  0  0  0
  1 26  1  0  0  0  0
  1 27  1  0  0  0  0
  2 23  1  0  0  0  0
  2  3  2  0  0  0  0
  3  4  1  0  0  0  0
  3 28  1  0  0  0  0
  4 21  2  0  0  0  0
  4  5  1  0  0  0  0
  5  6  2  0  0  0  0
  5 54  1  0  0  0  0
  6  7  1  0  0  0  0
  6 29  1  0  0  0  0
  7  8  1  0  0  0  0
  7 21  1  0  0  0  0
  8  9  1  0  0  0  0
  8 30  1  0  0  0  0
  8 31  1  0  0  0  0
  9 10  1  0  0  0  0
  9 11  1  0  0  0  0
  9 32  1  0  0  0  0
 10 33  1  0  0  0  0
 11 12  1  0  0  0  0
 11 34  1  0  0  0  0
 11 35  1  0  0  0  0
 12 20  1  0  0  0  0
 12 13  1  0  0  0  0
 13 14  1  0  0  0  0
 13 36  1  0  0  0  0
 13 37  1  0  0  0  0
 14 15  1  0  0  0  0
 14 38  1  0  0  0  0
 14 39  1  0  0  0  0
 15 16  1  0  0  0  0
 15 19  1  0  0  0  0
 15 53  1  0  0  0  0
 16 17  1  0  0  0  0
 16 40  1  0  0  0  0
 16 41  1  0  0  0  0
 17 18  1  0  0  0  0
 17 42  1  0  0  0  0
 17 43  1  0  0  0  0
 18 44  1  0  0  0  0
 19 20  1  0  0  0  0
 19 45  1  0  0  0  0
 19 46  1  0  0  0  0
 20 47  1  0  0  0  0
 20 48  1  0  0  0  0
 21 22  1  0  0  0  0
 22 23  2  0  0  0  0
 22 49  1  0  0  0  0
 23 24  1  0  0  0  0
 24 50  1  0  0  0  0
 24 51  1  0  0  0  0
 24 52  1  0  0  0  0
M  CHG  1   5   1
M  CHG  1  15   1
M  END
> <s_m_source_file>
AV-unprocessed.smi

> <i_m_source_file_index>
1046

> <i_lp_mmshare_version>
43012

> <i_f3d_flags>
0

> <s_epik_input>
W0NIM11jKFtjSF0xKWMoW0NIM10pW2NIXWMoYzEyKW4oW2NIXW4yKVtDSDJdW0NASF0oW09IXSlbQ0gyXU4zW0NIMl1bQ0gyXU4oW0NIMl1bQ0gyXTMpW0NIMl1bQ0gyXVtPSF0=

> <s_epik_cmdline>
J2VwaWtfcHl0aG9uJywgJy1waCcsICc3LjAnLCAnLXRuJywgJzgnLCAnLW1hJywgJzIwMCcsICctbWV0YWxfYmluZGluZycsICctaW1hZScsICc8aW5maWxlLm1hZT4nLCAnLW9tYWUnLCAnPG91dGZpbGUubWFlPic=

> <r_epik_Ionization_Penalty>
1.37806

> <r_epik_Ionization_Penalty_Charging>
1.32954

> <r_epik_Ionization_Penalty_Neutral>
0.0485178

> <r_epik_State_Penalty>
2.26587

> <r_epik_Charging_Adjusted_Penalty>
3.59541

> <i_epik_Tot_Q>
2

> <i_epik_Tot_abs_Q>
2

> <r_epik_Metal_State_Penalty>
6.27317

> <b_epik_Metal_Only>
0

> <s_lp_Force_Field>
OPLS_2005

> <r_lp_Energy>
47.9713

> <b_lp_Chiralities_Consistent>
1

> <s_lp_Variant>
AV-unprocessed.smi:1046-12

> <Gold.Version>
5.8.1

> <Gold.Id.Protein>
6NUR|6NUR_protein|mol2

> <Gold.PLP.Fitness>
59.6675

> <Gold.PLP.PLP>
-42.9446

> <Gold.PLP.part.hbond>
-3.9418

> <Gold.PLP.part.metal>
0.0000

> <Gold.PLP.part.buried>
-1.2225

> <Gold.PLP.part.nonpolar>
-39.0464

> <Gold.PLP.part.repulsive>
0.2703

> <Gold.PLP.ligand.clash>
0.0000

> <Gold.PLP.ligand.torsion>
0.9043

> <Gold.PLP.Chemscore.Hbond>
6.1069

> <Gold.PLP.Chemscore.CHOScore>
0.0000

> <Gold.PLP.Chemscore.Metal>
0.0000

> <Gold.Chemscore.Hbonds>
donor molecule, donor type, donor heavy atom, donor atom, acceptor molecule, acceptor atom, score
      L1  H     5    54       P1  8028  2.00
      L1  H    10    33       P1  7949  0.99
      L1  H    15    53       P1 10175  1.17
      L1  H    18    44       P1 10175  1.00
      P1  H 10752 10763       L1    10  0.21

> <Gold.PLP.Chemscore.Internal.Correction>
0.2108

> <Gold.Rescore>
     Score         DG    S(hbond)    S(metal)    S(lipo)     H(rot)  DE(clash)    DE(int)     intcor
     17.35     -19.45       2.98        0.00     106.23       3.29       0.06       2.05       ----

> <Gold.Chemscore.Fitness>
17.3459

> <Gold.Chemscore.DG>
-19.4533

> <Gold.Chemscore.ZeroCoef>
-5.4800

> <Gold.Chemscore.Hbond>
2.9837

> <Gold.Chemscore.Metal>
0.0000

> <Gold.Chemscore.Lipo>
106.2330

> <Gold.Chemscore.Internal_Hbond>
0.0000

> <Gold.Chemscore.DEClash>
0.0553

> <Gold.Chemscore.DEInternal>
2.0521

> <Gold.Chemscore.Rot>
3.2896

> <Gold.Chemscore.Internal.Correction>
   9.000000E+99

> <Gold.Chemscore.Hbonds>
donor molecule, donor type, donor heavy atom, donor atom, acceptor molecule, acceptor atom, score
      L1  H     5    54       P1  8028  0.97
      L1  H    10    33       P1  7949  0.24
      L1  H    15    53       P1 10175  0.57
      L1  H    18    44       P1 10175  0.97
      P1  H 10752 10763       L1    10  0.05

> <Gold.Chemscore.Hbond.Weighted>
-9.9655

> <Gold.Chemscore.Metal.Weighted>
-0.0000

> <Gold.Chemscore.Lipo.Weighted>
-12.4293

> <Gold.Chemscore.Internal_Hbond.Weighted>
0.0000

> <Gold.Chemscore.DEClash.Weighted>
0.0553

> <Gold.Chemscore.DEInternal.Weighted>
2.0521

> <Gold.Chemscore.Rot.Weighted>
8.4215

> <Gold.Chemscore.Internal.Correction.Weighted>
   9.000000E+99

> <Gold.Protein.RotatedTorsions>
[ 6907 6896 6895 6894 ] final   93.05 input  -60.11 | X-H torsion
[ 7974 7965 7964 7962 ] final  173.51 input  175.53 | X-H torsion
[ 8008 7997 7996 7995 ] final -127.26 input   59.86 | X-H torsion
[ 10167 10162 10161 10158 ] final  -94.18 input  -65.29 | X-H torsion
[ 10718 10713 10712 10709 ] final  -37.19 input   66.30 | X-H torsion
[ 10763 10752 10751 10750 ] final   43.80 input  -60.55 | X-H torsion
[ 11005 11000 10999 10996 ] final  171.13 input  -57.11 | X-H torsion

> <Gold.Protein.ActiveResidues>
 VAL166  LYS551  ARG553  GLY616  TRP617  ASP618  TYR619  PRO620  LYS621  CYS622 
 ASP623  PHE694  ASN695  SER759  ASP760  ASP761  ALA762  ILE779  LEU786  VAL792 
 PHE793  MET794  SER795  GLU796  ALA797  LYS798  CYS799  TRP800  GLU811  SER814 

> <Gold.Protein.RotatedAtoms>
  152.5453  134.1407  159.8477 H   0  0  0  0  0  0  0  0  0  0  0  0  # atno 6907 bound_to 6896
  151.1443  133.4943  159.2604 H   0  0  0  0  0  0  0  0  0  0  0  0  # atno 6908 bound_to 6896
  151.1539  135.0251  159.8735 H   0  0  0  0  0  0  0  0  0  0  0  0  # atno 6909 bound_to 6896
  144.7242  139.9658  143.6436 H   0  0  0  0  0  0  0  0  0  0  0  0  # atno 7974 bound_to 7965
  155.2433  140.0429  157.2977 H   0  0  0  0  0  0  0  0  0  0  0  0  # atno 8008 bound_to 7997
  154.5815  140.2402  155.8017 H   0  0  0  0  0  0  0  0  0  0  0  0  # atno 8009 bound_to 7997
  156.2196  140.2974  155.9929 H   0  0  0  0  0  0  0  0  0  0  0  0  # atno 8010 bound_to 7997
  140.3171  143.3071  152.0086 H   0  0  0  0  0  0  0  0  0  0  0  0  # atno 10167 bound_to 10162
  156.3180  130.4262  149.7987 H   0  0  0  0  0  0  0  0  0  0  0  0  # atno 10718 bound_to 10713
  152.9853  135.6090  154.3171 H   0  0  0  0  0  0  0  0  0  0  0  0  # atno 10763 bound_to 10752
  154.2883  135.2775  155.2668 H   0  0  0  0  0  0  0  0  0  0  0  0  # atno 10764 bound_to 10752
  154.4975  135.5875  153.6562 H   0  0  0  0  0  0  0  0  0  0  0  0  # atno 10765 bound_to 10752
  140.3158  134.7479  157.4026 H   0  0  0  0  0  0  0  0  0  0  0  0  # atno 11005 bound_to 11000
  146.0602  139.3596  143.0586 LP  0  0  0  0  0  0  0  0  0  0  0  0  # atno 17320 bound_to 7965
  145.8103  140.9729  143.0952 LP  0  0  0  0  0  0  0  0  0  0  0  0  # atno 17321 bound_to 7965
  139.4881  144.6340  151.7013 LP  0  0  0  0  0  0  0  0  0  0  0  0  # atno 17342 bound_to 10162
  140.5517  144.0415  150.6130 LP  0  0  0  0  0  0  0  0  0  0  0  0  # atno 17343 bound_to 10162
  156.5305  130.8255  151.3235 LP  0  0  0  0  0  0  0  0  0  0  0  0  # atno 17370 bound_to 10713
  157.7406  130.9853  150.2387 LP  0  0  0  0  0  0  0  0  0  0  0  0  # atno 17371 bound_to 10713
  140.0985  134.5505  155.8375 LP  0  0  0  0  0  0  0  0  0  0  0  0  # atno 17394 bound_to 11000
  141.2098  133.6688  156.6464 LP  0  0  0  0  0  0  0  0  0  0  0  0  # atno 17395 bound_to 11000

$$$$
