AV-unprocessed.smi:164|AV-procd|sdf|1382|dock4
  -GOLD-   2262019113D 1   1.00000     0.00000
 Structure written by MMmdl.
 53 55  0  0  0  0  0  0  0  0  1 V2000
  153.2416  143.2986  163.3889 C   0  0  0  0  0  0  0  0  0  0  0  0
  152.8110  143.5816  161.9599 C   0  0  0  0  0  0  0  0  0  0  0  0
  152.1845  144.8099  161.6665 C   0  0  0  0  0  0  0  0  0  0  0  0
  151.7750  145.1055  160.3544 C   0  0  0  0  0  0  0  0  0  0  0  0
  151.9942  144.1777  159.3178 C   0  0  0  0  0  0  0  0  0  0  0  0
  151.5422  144.5133  157.9085 C   0  0  0  0  0  0  0  0  0  0  0  0
  152.6347  142.9486  159.5993 C   0  0  0  0  0  0  0  0  0  0  0  0
  152.8548  142.0514  158.5861 O   0  0  0  0  0  0  0  0  0  0  0  0
  152.0045  140.9150  158.6401 C   0  0  0  0  0  0  0  0  0  0  0  0
  150.9089  141.0602  157.5718 C   0  0  2  0  0  0  0  0  0  0  0  0
  149.8089  140.2822  158.0011 O   0  0  0  0  0  0  0  0  0  0  0  0
  151.3714  140.5232  156.1983 C   0  0  0  0  0  0  0  0  0  0  0  0
  150.4620  139.5399  155.6316 N   0  0  0  0  0  0  0  0  0  0  0  0
  150.8776  138.1861  155.6290 C   0  0  0  0  0  0  0  0  0  0  0  0
  151.9549  137.8304  156.1103 O   0  0  0  0  0  0  0  0  0  0  0  0
  149.9409  137.2682  154.9920 C   0  0  0  0  0  0  0  0  0  0  0  0
  150.2493  135.9638  154.8991 F   0  0  0  0  0  0  0  0  0  0  0  0
  148.7750  137.7094  154.4724 C   0  0  0  0  0  0  0  0  0  0  0  0
  148.3751  139.0374  154.5174 N   0  0  0  0  0  0  0  0  0  0  0  0
  147.1015  139.5354  153.8498 C   0  0  2  0  0  0  0  0  0  0  0  0
  145.8080  138.9701  154.4517 C   0  0  0  0  0  0  0  0  0  0  0  0
  145.4693  137.8052  153.5247 C   0  0  0  0  0  0  0  0  0  0  0  0
  146.5820  137.8069  152.4712 C   0  0  0  0  0  0  0  0  0  0  0  0
  147.1116  139.1245  152.5200 O   0  0  0  0  0  0  0  0  0  0  0  0
  149.2502  140.0022  155.0662 C   0  0  0  0  0  0  0  0  0  0  0  0
  148.9625  141.2012  155.0415 O   0  0  0  0  0  0  0  0  0  0  0  0
  153.0291  142.6378  160.9249 C   0  0  0  0  0  0  0  0  0  0  0  0
  153.6898  141.2997  161.2291 C   0  0  0  0  0  0  0  0  0  0  0  0
  153.1497  144.1869  164.0146 H   0  0  0  0  0  0  0  0  0  0  0  0
  154.2827  142.9762  163.4223 H   0  0  0  0  0  0  0  0  0  0  0  0
  152.6208  142.5154  163.8246 H   0  0  0  0  0  0  0  0  0  0  0  0
  152.0117  145.5336  162.4497 H   0  0  0  0  0  0  0  0  0  0  0  0
  151.2932  146.0497  160.1465 H   0  0  0  0  0  0  0  0  0  0  0  0
  151.1491  143.6308  157.4030 H   0  0  0  0  0  0  0  0  0  0  0  0
  152.3784  144.9004  157.3261 H   0  0  0  0  0  0  0  0  0  0  0  0
  150.7559  145.2687  157.9187 H   0  0  0  0  0  0  0  0  0  0  0  0
  152.6139  140.0358  158.4292 H   0  0  0  0  0  0  0  0  0  0  0  0
  151.5733  140.7696  159.6328 H   0  0  0  0  0  0  0  0  0  0  0  0
  150.6163  142.1078  157.4920 H   0  0  0  0  0  0  0  0  0  0  0  0
  149.7757  140.3044  158.9454 H   0  0  0  0  0  0  0  0  0  0  0  0
  151.4426  141.3262  155.4625 H   0  0  0  0  0  0  0  0  0  0  0  0
  152.3781  140.1031  156.2277 H   0  0  0  0  0  0  0  0  0  0  0  0
  148.1497  136.9747  153.9904 H   0  0  0  0  0  0  0  0  0  0  0  0
  147.1359  140.6228  153.9348 H   0  0  0  0  0  0  0  0  0  0  0  0
  145.9091  138.7117  155.5055 H   0  0  0  0  0  0  0  0  0  0  0  0
  145.0347  139.7354  154.3740 H   0  0  0  0  0  0  0  0  0  0  0  0
  145.4223  136.8535  154.0548 H   0  0  0  0  0  0  0  0  0  0  0  0
  144.4989  137.9724  153.0559 H   0  0  0  0  0  0  0  0  0  0  0  0
  147.3608  137.0869  152.7257 H   0  0  0  0  0  0  0  0  0  0  0  0
  146.2148  137.5641  151.4739 H   0  0  0  0  0  0  0  0  0  0  0  0
  153.5059  140.5644  160.4461 H   0  0  0  0  0  0  0  0  0  0  0  0
  153.3083  140.8739  162.1569 H   0  0  0  0  0  0  0  0  0  0  0  0
  154.7682  141.4272  161.3257 H   0  0  0  0  0  0  0  0  0  0  0  0
  1  2  1  0  0  0  0
  1 29  1  0  0  0  0
  1 30  1  0  0  0  0
  1 31  1  0  0  0  0
  2 27  1  0  0  0  0
  2  3  2  0  0  0  0
  3  4  1  0  0  0  0
  3 32  1  0  0  0  0
  4  5  2  0  0  0  0
  4 33  1  0  0  0  0
  5  6  1  0  0  0  0
  5  7  1  0  0  0  0
  6 34  1  0  0  0  0
  6 35  1  0  0  0  0
  6 36  1  0  0  0  0
  7  8  1  0  0  0  0
  7 27  2  0  0  0  0
  8  9  1  0  0  0  0
  9 10  1  0  0  0  0
  9 37  1  0  0  0  0
  9 38  1  0  0  0  0
 10 11  1  0  0  0  0
 10 12  1  0  0  0  0
 10 39  1  0  0  0  0
 11 40  1  0  0  0  0
 12 13  1  0  0  0  0
 12 41  1  0  0  0  0
 12 42  1  0  0  0  0
 13 25  1  0  0  0  0
 13 14  1  0  0  0  0
 14 15  2  0  0  0  0
 14 16  1  0  0  0  0
 16 17  1  0  0  0  0
 16 18  2  0  0  0  0
 18 19  1  0  0  0  0
 18 43  1  0  0  0  0
 19 20  1  0  0  0  0
 19 25  1  0  0  0  0
 20 24  1  0  0  0  0
 20 21  1  0  0  0  0
 20 44  1  0  0  0  0
 21 22  1  0  0  0  0
 21 45  1  0  0  0  0
 21 46  1  0  0  0  0
 22 23  1  0  0  0  0
 22 47  1  0  0  0  0
 22 48  1  0  0  0  0
 23 24  1  0  0  0  0
 23 49  1  0  0  0  0
 23 50  1  0  0  0  0
 25 26  2  0  0  0  0
 27 28  1  0  0  0  0
 28 51  1  0  0  0  0
 28 52  1  0  0  0  0
 28 53  1  0  0  0  0
M  END
> <s_m_source_file>
AV-unprocessed.smi

> <i_m_source_file_index>
164

> <i_lp_mmshare_version>
43012

> <i_f3d_flags>
0

> <s_epik_input>
W0NIM11jMVtjSF1bY0hdYyhbQ0gzXSljKGMxW0NIM10pT1tDSDJdW0NASF0oW09IXSlbQ0gyXW4yYyg9TyljKEYpW2NIXW4oYzI9TylbQ0BASF0zW0NIMl1bQ0gyXVtDSDJdTzM=

> <s_epik_cmdline>
J2VwaWtfcHl0aG9uJywgJy1waCcsICc3LjAnLCAnLXRuJywgJzgnLCAnLW1hJywgJzIwMCcsICctbWV0YWxfYmluZGluZycsICctaW1hZScsICc8aW5maWxlLm1hZT4nLCAnLW9tYWUnLCAnPG91dGZpbGUubWFlPic=

> <r_lp_tautomer_probability>
1

> <r_epik_Ionization_Penalty>
1.45842e-07

> <r_epik_Ionization_Penalty_Charging>
2.86622e-08

> <r_epik_Ionization_Penalty_Neutral>
1.1718e-07

> <r_epik_State_Penalty>
-0

> <r_epik_Charging_Adjusted_Penalty>
2.86622e-08

> <i_epik_Tot_Q>
0

> <i_epik_Tot_abs_Q>
0

> <r_epik_Metal_State_Penalty>
-0

> <b_epik_Metal_Only>
0

> <s_epik_Chemistry_Notes>
This compound contains an acetal/aminal-like group ( X-CH(R)-Y where X, Y are N, S, or O) that may be acid/base labile, releasing an aldehyde.

> <s_lp_Force_Field>
OPLS_2005

> <r_lp_Energy>
44.8383

> <b_lp_Chiralities_Consistent>
1

> <s_lp_Variant>
AV-unprocessed.smi:164-1

> <Gold.Version>
5.8.1

> <Gold.Id.Protein>
6NUR|6NUR_protein|mol2

> <Gold.PLP.Fitness>
46.0094

> <Gold.PLP.PLP>
-47.9038

> <Gold.PLP.part.hbond>
0.0000

> <Gold.PLP.part.metal>
0.0000

> <Gold.PLP.part.buried>
1.0601

> <Gold.PLP.part.nonpolar>
-49.1777

> <Gold.PLP.part.repulsive>
1.5087

> <Gold.PLP.ligand.clash>
0.9793

> <Gold.PLP.ligand.torsion>
1.6768

> <Gold.PLP.Chemscore.Hbond>
0.0000

> <Gold.PLP.Chemscore.CHOScore>
0.6924

> <Gold.PLP.Chemscore.Metal>
0.0000

> <Gold.Chemscore.Hbonds>
donor molecule, donor type, donor heavy atom, donor atom, acceptor molecule, acceptor atom, score
      L1  C    18    43       P1  7948  0.68

> <Gold.PLP.Chemscore.Internal.Correction>
0.3611

> <Gold.Rescore>
     Score         DG    S(hbond)    S(metal)    S(lipo)     H(rot)  DE(clash)    DE(int)     intcor
     10.03     -14.58       0.00        0.00     137.58       2.73       0.40       4.15       ----

> <Gold.Chemscore.Fitness>
10.0329

> <Gold.Chemscore.DG>
-14.5848

> <Gold.Chemscore.ZeroCoef>
-5.4800

> <Gold.Chemscore.Hbond>
0.0000

> <Gold.Chemscore.Metal>
0.0000

> <Gold.Chemscore.Lipo>
137.5842

> <Gold.Chemscore.Internal_Hbond>
0.0000

> <Gold.Chemscore.DEClash>
0.4038

> <Gold.Chemscore.DEInternal>
4.1481

> <Gold.Chemscore.Rot>
2.7315

> <Gold.Chemscore.Internal.Correction>
   9.000000E+99

> <Gold.Chemscore.Hbond.Weighted>
-0.0000

> <Gold.Chemscore.Metal.Weighted>
-0.0000

> <Gold.Chemscore.Lipo.Weighted>
-16.0974

> <Gold.Chemscore.Internal_Hbond.Weighted>
0.0000

> <Gold.Chemscore.DEClash.Weighted>
0.4038

> <Gold.Chemscore.DEInternal.Weighted>
4.1481

> <Gold.Chemscore.Rot.Weighted>
6.9925

> <Gold.Chemscore.Internal.Correction.Weighted>
   9.000000E+99

> <Gold.Protein.RotatedTorsions>
[ 6907 6896 6895 6894 ] final  106.46 input  -60.11 | X-H torsion
[ 7974 7965 7964 7962 ] final   75.58 input  175.53 | X-H torsion
[ 8008 7997 7996 7995 ] final  -12.61 input   59.86 | X-H torsion
[ 10167 10162 10161 10158 ] final  -82.14 input  -65.29 | X-H torsion
[ 10718 10713 10712 10709 ] final    8.87 input   66.30 | X-H torsion
[ 10763 10752 10751 10750 ] final   78.54 input  -60.55 | X-H torsion
[ 11005 11000 10999 10996 ] final  126.01 input  -57.11 | X-H torsion

> <Gold.Protein.ActiveResidues>
 VAL166  LYS551  ARG553  GLY616  TRP617  ASP618  TYR619  PRO620  LYS621  CYS622 
 ASP623  PHE694  ASN695  SER759  ASP760  ASP761  ALA762  ILE779  LEU786  VAL792 
 PHE793  MET794  SER795  GLU796  ALA797  LYS798  CYS799  TRP800  GLU811  SER814 

> <Gold.Protein.RotatedAtoms>
  152.5192  133.9377  159.7611 H   0  0  0  0  0  0  0  0  0  0  0  0  # atno 6907 bound_to 6896
  150.9714  133.6332  159.2744 H   0  0  0  0  0  0  0  0  0  0  0  0  # atno 6908 bound_to 6896
  151.3542  135.0896  159.9466 H   0  0  0  0  0  0  0  0  0  0  0  0  # atno 6909 bound_to 6896
  145.7138  139.2624  143.1635 H   0  0  0  0  0  0  0  0  0  0  0  0  # atno 7974 bound_to 7965
  154.5363  140.2271  155.8718 H   0  0  0  0  0  0  0  0  0  0  0  0  # atno 8008 bound_to 7997
  156.1814  140.3099  155.9119 H   0  0  0  0  0  0  0  0  0  0  0  0  # atno 8009 bound_to 7997
  155.3349  140.0447  157.3034 H   0  0  0  0  0  0  0  0  0  0  0  0  # atno 8010 bound_to 7997
  140.4347  143.2536  151.8710 H   0  0  0  0  0  0  0  0  0  0  0  0  # atno 10167 bound_to 10162
  156.9580  130.5922  149.5660 H   0  0  0  0  0  0  0  0  0  0  0  0  # atno 10718 bound_to 10713
  153.0882  135.4873  154.8638 H   0  0  0  0  0  0  0  0  0  0  0  0  # atno 10763 bound_to 10752
  154.7237  135.3045  154.9009 H   0  0  0  0  0  0  0  0  0  0  0  0  # atno 10764 bound_to 10752
  153.9665  135.6806  153.4799 H   0  0  0  0  0  0  0  0  0  0  0  0  # atno 10765 bound_to 10752
  139.9435  134.9633  156.8643 H   0  0  0  0  0  0  0  0  0  0  0  0  # atno 11005 bound_to 11000
  146.0688  140.7891  142.9698 LP  0  0  0  0  0  0  0  0  0  0  0  0  # atno 17320 bound_to 7965
  144.6935  140.3310  143.7216 LP  0  0  0  0  0  0  0  0  0  0  0  0  # atno 17321 bound_to 7965
  139.4786  144.5296  151.8686 LP  0  0  0  0  0  0  0  0  0  0  0  0  # atno 17342 bound_to 10162
  140.4387  144.2016  150.5890 LP  0  0  0  0  0  0  0  0  0  0  0  0  # atno 17343 bound_to 10162
  156.0334  130.5424  150.8593 LP  0  0  0  0  0  0  0  0  0  0  0  0  # atno 17370 bound_to 10713
  157.5677  131.0946  150.9465 LP  0  0  0  0  0  0  0  0  0  0  0  0  # atno 17371 bound_to 10713
  140.5893  134.0277  155.7493 LP  0  0  0  0  0  0  0  0  0  0  0  0  # atno 17394 bound_to 11000
  141.1077  133.9667  157.2967 LP  0  0  0  0  0  0  0  0  0  0  0  0  # atno 17395 bound_to 11000

$$$$
