AV-unprocessed.smi:1740|AV-procd|sdf|7010|dock8
  -GOLD-   22720 8223D 1   1.00000     0.00000
 Structure written by MMmdl.
 53 55  0  0  0  0  0  0  0  0  3 V2000
  142.2804  132.7378  150.6525 N   0  0  0  0  0  0  0  0  0  0  0  0
  143.5216  132.3164  150.3998 C   0  0  0  0  0  0  0  0  0  0  0  0
  143.8434  131.8400  149.3126 O   0  0  0  0  0  0  0  0  0  0  0  0
  144.5458  132.4711  151.5293 C   0  0  0  0  0  0  0  0  0  0  0  0
  144.7975  133.8879  151.9001 N   0  3  2  0  0  0  0  0  0  0  0  0
  143.7686  134.4430  152.8205 C   0  0  0  0  0  0  0  0  0  0  0  0
  144.1434  135.8610  153.2822 C   0  0  0  0  0  0  0  0  0  0  0  0
  144.3508  136.7982  152.0781 C   0  0  1  0  0  0  0  0  0  0  0  0
  144.7925  138.1212  152.5109 N   0  0  0  0  0  0  0  0  0  0  0  0
  145.9893  138.3943  153.0503 C   0  0  0  0  0  0  0  0  0  0  0  0
  146.8691  137.5500  153.2174 O   0  0  0  0  0  0  0  0  0  0  0  0
  146.1022  139.6970  153.3606 N   0  0  0  0  0  0  0  0  0  0  0  0
  147.2265  140.3634  153.9259 C   0  0  0  0  0  0  0  0  0  0  0  0
  148.4526  139.6799  154.1328 C   0  0  0  0  0  0  0  0  0  0  0  0
  149.5276  140.3371  154.7596 C   0  0  0  0  0  0  0  0  0  0  0  0
  149.3569  141.6648  155.1863 C   0  0  0  0  0  0  0  0  0  0  0  0
  148.1752  142.2841  154.9871 N   0  3  0  0  0  0  0  0  0  0  0  0
  147.1075  141.7106  154.3770 C   0  0  0  0  0  0  0  0  0  0  0  0
  145.9366  142.4893  154.2297 N   0  0  0  0  0  0  0  0  0  0  0  0
  145.2218  142.9788  155.4033 C   0  0  0  0  0  0  0  0  0  0  0  0
  144.2746  144.0519  154.8732 C   0  0  0  0  0  0  0  0  0  0  0  0
  145.0867  144.6750  153.7421 C   0  0  0  0  0  0  0  0  0  0  0  0
  145.8781  143.4936  153.1721 C   0  0  0  0  0  0  0  0  0  0  0  0
  145.3892  136.1852  151.1251 C   0  0  0  0  0  0  0  0  0  0  0  0
  144.9914  134.7578  150.7119 C   0  0  0  0  0  0  0  0  0  0  0  0
  141.5709  132.6621  149.9372 H   0  0  0  0  0  0  0  0  0  0  0  0
  142.0511  133.1359  151.5520 H   0  0  0  0  0  0  0  0  0  0  0  0
  144.1430  131.9333  152.3888 H   0  0  0  0  0  0  0  0  0  0  0  0
  145.4841  131.9807  151.2644 H   0  0  0  0  0  0  0  0  0  0  0  0
  142.8000  134.4580  152.3182 H   0  0  0  0  0  0  0  0  0  0  0  0
  143.6585  133.8009  153.6946 H   0  0  0  0  0  0  0  0  0  0  0  0
  143.3605  136.2501  153.9342 H   0  0  0  0  0  0  0  0  0  0  0  0
  145.0532  135.8188  153.8831 H   0  0  0  0  0  0  0  0  0  0  0  0
  143.4074  136.8977  151.5368 H   0  0  0  0  0  0  0  0  0  0  0  0
  144.1322  138.8781  152.4072 H   0  0  0  0  0  0  0  0  0  0  0  0
  145.3390  140.2932  153.0759 H   0  0  0  0  0  0  0  0  0  0  0  0
  148.5788  138.6484  153.8402 H   0  0  0  0  0  0  0  0  0  0  0  0
  150.4647  139.8245  154.9218 H   0  0  0  0  0  0  0  0  0  0  0  0
  150.1213  142.2455  155.6820 H   0  0  0  0  0  0  0  0  0  0  0  0
  144.6824  142.1755  155.9057 H   0  0  0  0  0  0  0  0  0  0  0  0
  145.9168  143.4260  156.1150 H   0  0  0  0  0  0  0  0  0  0  0  0
  143.3716  143.5896  154.4722 H   0  0  0  0  0  0  0  0  0  0  0  0
  143.9781  144.7725  155.6357 H   0  0  0  0  0  0  0  0  0  0  0  0
  144.4672  145.1708  152.9945 H   0  0  0  0  0  0  0  0  0  0  0  0
  145.7757  145.4146  154.1520 H   0  0  0  0  0  0  0  0  0  0  0  0
  146.8700  143.8040  152.8409 H   0  0  0  0  0  0  0  0  0  0  0  0
  145.3503  143.0703  152.3174 H   0  0  0  0  0  0  0  0  0  0  0  0
  145.4955  136.8084  150.2363 H   0  0  0  0  0  0  0  0  0  0  0  0
  146.3684  136.1625  151.6061 H   0  0  0  0  0  0  0  0  0  0  0  0
  145.7716  134.3417  150.0735 H   0  0  0  0  0  0  0  0  0  0  0  0
  144.0742  134.7776  150.1209 H   0  0  0  0  0  0  0  0  0  0  0  0
  145.6745  133.8917  152.4019 H   0  0  0  0  0  0  0  0  0  0  0  0
  148.0821  143.2471  155.3098 H   0  0  0  0  0  0  0  0  0  0  0  0
  1  2  1  0  0  0  0
  1 26  1  0  0  0  0
  1 27  1  0  0  0  0
  2  3  2  0  0  0  0
  2  4  1  0  0  0  0
  4  5  1  0  0  0  0
  4 28  1  0  0  0  0
  4 29  1  0  0  0  0
  5 25  1  0  0  0  0
  5  6  1  0  0  0  0
  5 52  1  0  0  0  0
  6  7  1  0  0  0  0
  6 30  1  0  0  0  0
  6 31  1  0  0  0  0
  7  8  1  0  0  0  0
  7 32  1  0  0  0  0
  7 33  1  0  0  0  0
  8  9  1  0  0  0  0
  8 24  1  0  0  0  0
  8 34  1  0  0  0  0
  9 10  1  0  0  0  0
  9 35  1  0  0  0  0
 10 11  2  0  0  0  0
 10 12  1  0  0  0  0
 12 13  1  0  0  0  0
 12 36  1  0  0  0  0
 13 18  1  0  0  0  0
 13 14  2  0  0  0  0
 14 15  1  0  0  0  0
 14 37  1  0  0  0  0
 15 16  2  0  0  0  0
 15 38  1  0  0  0  0
 16 17  1  0  0  0  0
 16 39  1  0  0  0  0
 17 18  2  0  0  0  0
 17 53  1  0  0  0  0
 18 19  1  0  0  0  0
 19 23  1  0  0  0  0
 19 20  1  0  0  0  0
 20 21  1  0  0  0  0
 20 40  1  0  0  0  0
 20 41  1  0  0  0  0
 21 22  1  0  0  0  0
 21 42  1  0  0  0  0
 21 43  1  0  0  0  0
 22 23  1  0  0  0  0
 22 44  1  0  0  0  0
 22 45  1  0  0  0  0
 23 46  1  0  0  0  0
 23 47  1  0  0  0  0
 24 25  1  0  0  0  0
 24 48  1  0  0  0  0
 24 49  1  0  0  0  0
 25 50  1  0  0  0  0
 25 51  1  0  0  0  0
M  CHG  1   5   1
M  CHG  1  17   1
M  END
> <s_m_source_file>
AV-unprocessed.smi

> <i_m_source_file_index>
1740

> <i_lp_mmshare_version>
43012

> <i_f3d_flags>
0

> <s_epik_input>
W05IMl1DKD1PKVtDSDJdTjFbQ0gyXVtDSDJdW0NIXShbQ0gyXVtDSDJdMSlbTkhdQyg9TylbTkhdYzJbY0hdW2NIXVtjSF1uYzJOM1tDSDJdW0NIMl1bQ0gyXVtDSDJdMw==

> <s_epik_cmdline>
J2VwaWtfcHl0aG9uJywgJy1waCcsICc3LjAnLCAnLXRuJywgJzgnLCAnLW1hJywgJzIwMCcsICctbWV0YWxfYmluZGluZycsICctaW1hZScsICc8aW5maWxlLm1hZT4nLCAnLW9tYWUnLCAnPG91dGZpbGUubWFlPic=

> <r_lp_tautomer_probability>
0.999994

> <r_epik_Ionization_Penalty>
2.11361

> <r_epik_Ionization_Penalty_Charging>
2.11355

> <r_epik_Ionization_Penalty_Neutral>
5.98217e-05

> <r_epik_State_Penalty>
2.13444

> <r_epik_Charging_Adjusted_Penalty>
4.24799

> <i_epik_Tot_Q>
2

> <i_epik_Tot_abs_Q>
2

> <r_epik_Metal_State_Penalty>
2.23528

> <b_epik_Metal_Only>
0

> <s_lp_Force_Field>
OPLS_2005

> <r_lp_Energy>
49.3709

> <b_lp_Chiralities_Consistent>
1

> <s_lp_Variant>
AV-unprocessed.smi:1740-5

> <Gold.Version>
5.8.1

> <Gold.Id.Protein>
6NUR|6NUR_protein|mol2

> <Gold.PLP.Fitness>
56.1058

> <Gold.PLP.PLP>
-41.6713

> <Gold.PLP.part.hbond>
-6.7975

> <Gold.PLP.part.metal>
0.0000

> <Gold.PLP.part.buried>
-4.9845

> <Gold.PLP.part.nonpolar>
-32.3695

> <Gold.PLP.part.repulsive>
2.9774

> <Gold.PLP.ligand.clash>
0.0000

> <Gold.PLP.ligand.torsion>
0.4991

> <Gold.PLP.Chemscore.Hbond>
5.0080

> <Gold.PLP.Chemscore.CHOScore>
0.0000

> <Gold.PLP.Chemscore.Metal>
0.0000

> <Gold.Chemscore.Hbonds>
donor molecule, donor type, donor heavy atom, donor atom, acceptor molecule, acceptor atom, score
      L1  H     1    26       P1 10186  0.16
      L1  H     9    35       P1 10175  1.00
      L1  H    12    36       P1 10175  1.00
      L1  H    17    53       P1  8028  1.92
      P1  H 10785 10796       L1     3  0.78

> <Gold.PLP.Chemscore.Internal.Correction>
0.4086

> <Gold.Rescore>
     Score         DG    S(hbond)    S(metal)    S(lipo)     H(rot)  DE(clash)    DE(int)     intcor
     15.52     -22.44       3.70        0.00      87.97       2.22       3.99       2.93       ----

> <Gold.Chemscore.Fitness>
15.5243

> <Gold.Chemscore.DG>
-22.4446

> <Gold.Chemscore.ZeroCoef>
-5.4800

> <Gold.Chemscore.Hbond>
3.6998

> <Gold.Chemscore.Metal>
0.0000

> <Gold.Chemscore.Lipo>
87.9674

> <Gold.Chemscore.Internal_Hbond>
0.0000

> <Gold.Chemscore.DEClash>
3.9932

> <Gold.Chemscore.DEInternal>
2.9271

> <Gold.Chemscore.Rot>
2.2207

> <Gold.Chemscore.Internal.Correction>
   9.000000E+99

> <Gold.Chemscore.Hbonds>
donor molecule, donor type, donor heavy atom, donor atom, acceptor molecule, acceptor atom, score
      L1  H     1    26       P1 10186  0.17
      L1  H     9    35       P1 10175  0.97
      L1  H    12    36       P1 10175  0.93
      L1  H    17    53       P1  8028  0.79
      P1  H 10785 10796       L1     3  0.77

> <Gold.Chemscore.Hbond.Weighted>
-12.3573

> <Gold.Chemscore.Metal.Weighted>
-0.0000

> <Gold.Chemscore.Lipo.Weighted>
-10.2922

> <Gold.Chemscore.Internal_Hbond.Weighted>
0.0000

> <Gold.Chemscore.DEClash.Weighted>
3.9932

> <Gold.Chemscore.DEInternal.Weighted>
2.9271

> <Gold.Chemscore.Rot.Weighted>
5.6849

> <Gold.Chemscore.Internal.Correction.Weighted>
   9.000000E+99

> <Gold.Protein.RotatedTorsions>
[ 6907 6896 6895 6894 ] final -112.36 input  -60.11 | X-H torsion
[ 7974 7965 7964 7962 ] final   83.65 input  175.53 | X-H torsion
[ 8008 7997 7996 7995 ] final  -66.33 input   59.86 | X-H torsion
[ 10167 10162 10161 10158 ] final  157.58 input  -65.29 | X-H torsion
[ 10718 10713 10712 10709 ] final -177.93 input   66.30 | X-H torsion
[ 10763 10752 10751 10750 ] final  171.35 input  -60.55 | X-H torsion
[ 11005 11000 10999 10996 ] final  -94.00 input  -57.11 | X-H torsion

> <Gold.Protein.ActiveResidues>
 VAL166  LYS551  ARG553  GLY616  TRP617  ASP618  TYR619  PRO620  LYS621  CYS622 
 ASP623  PHE694  ASN695  SER759  ASP760  ASP761  ALA762  ILE779  LEU786  VAL792 
 PHE793  MET794  SER795  GLU796  ALA797  LYS798  CYS799  TRP800  GLU811  SER814 

> <Gold.Protein.RotatedAtoms>
  150.7753  133.9101  159.3366 H   0  0  0  0  0  0  0  0  0  0  0  0  # atno 6907 bound_to 6896
  151.6978  135.0933  160.0255 H   0  0  0  0  0  0  0  0  0  0  0  0  # atno 6908 bound_to 6896
  152.3786  133.6477  159.6179 H   0  0  0  0  0  0  0  0  0  0  0  0  # atno 6909 bound_to 6896
  145.6091  139.2365  143.2202 H   0  0  0  0  0  0  0  0  0  0  0  0  # atno 7974 bound_to 7965
  154.4728  140.0915  156.7186 H   0  0  0  0  0  0  0  0  0  0  0  0  # atno 8008 bound_to 7997
  155.4679  140.3463  155.4303 H   0  0  0  0  0  0  0  0  0  0  0  0  # atno 8009 bound_to 7997
  156.1067  140.1436  156.9383 H   0  0  0  0  0  0  0  0  0  0  0  0  # atno 8010 bound_to 7997
  139.4823  144.4904  151.8316 H   0  0  0  0  0  0  0  0  0  0  0  0  # atno 10167 bound_to 10162
  156.8368  130.9672  151.3103 H   0  0  0  0  0  0  0  0  0  0  0  0  # atno 10718 bound_to 10713
  154.4107  135.2756  155.2039 H   0  0  0  0  0  0  0  0  0  0  0  0  # atno 10763 bound_to 10752
  154.4026  135.6041  153.5909 H   0  0  0  0  0  0  0  0  0  0  0  0  # atno 10764 bound_to 10752
  152.9831  135.5930  154.4388 H   0  0  0  0  0  0  0  0  0  0  0  0  # atno 10765 bound_to 10752
  141.1482  133.7926  157.0238 H   0  0  0  0  0  0  0  0  0  0  0  0  # atno 11005 bound_to 11000
  146.1518  140.6915  142.9318 LP  0  0  0  0  0  0  0  0  0  0  0  0  # atno 17320 bound_to 7965
  144.7277  140.4576  143.6961 LP  0  0  0  0  0  0  0  0  0  0  0  0  # atno 17321 bound_to 7965
  140.4388  144.2015  150.5890 LP  0  0  0  0  0  0  0  0  0  0  0  0  # atno 17342 bound_to 10162
  140.4705  143.2415  151.9096 LP  0  0  0  0  0  0  0  0  0  0  0  0  # atno 17343 bound_to 10162
  157.6377  130.8780  149.9390 LP  0  0  0  0  0  0  0  0  0  0  0  0  # atno 17370 bound_to 10713
  156.0903  130.3664  150.0408 LP  0  0  0  0  0  0  0  0  0  0  0  0  # atno 17371 bound_to 10713
  140.0798  134.9654  157.1606 LP  0  0  0  0  0  0  0  0  0  0  0  0  # atno 17394 bound_to 11000
  140.3592  134.2513  155.7189 LP  0  0  0  0  0  0  0  0  0  0  0  0  # atno 17395 bound_to 11000

$$$$
