AV-unprocessed.smi:1366|AV-procd|sdf|5571|dock2
  -GOLD-   22720 5163D 1   1.00000     0.00000
 Structure written by MMmdl.
 31 32  0  0  0  0  0  0  0  0  1 V2000
  146.7436  138.6375  151.2112 N   0  0  0  0  0  0  0  0  0  0  0  0
  147.1512  139.0872  152.1963 C   0  0  0  0  0  0  0  0  0  0  0  0
  147.6644  139.6532  153.4363 C   0  0  0  0  0  0  0  0  0  0  0  0
  146.8429  140.4712  154.2422 C   0  0  0  0  0  0  0  0  0  0  0  0
  147.2872  141.0138  155.3964 N   0  0  0  0  0  0  0  0  0  0  0  0
  148.5491  140.7374  155.7339 C   0  0  0  0  0  0  0  0  0  0  0  0
  149.1568  141.4450  157.2505 S   0  0  0  0  0  0  0  0  0  0  0  0
  150.9563  141.4266  156.9782 C   0  0  0  0  0  0  0  0  0  0  0  0
  151.7092  142.3644  157.9372 C   0  0  1  0  0  0  0  0  0  0  0  0
  151.4713  143.8481  157.5974 C   0  0  0  0  0  0  0  0  0  0  0  0
  152.1783  144.7519  158.6142 C   0  0  0  0  0  0  0  0  0  0  0  0
  151.7622  144.3563  160.0351 C   0  0  0  0  0  0  0  0  0  0  0  0
  151.9721  142.8497  160.2546 C   0  0  0  0  0  0  0  0  0  0  0  0
  151.2586  142.1123  159.2667 O   0  0  0  0  0  0  0  0  0  0  0  0
  149.4173  139.9767  155.0646 N   0  0  0  0  0  0  0  0  0  0  0  0
  148.9830  139.4297  153.9084 C   0  0  0  0  0  0  0  0  0  0  0  0
  149.9041  138.6411  153.2164 N   0  0  0  0  0  0  0  0  0  0  0  0
  145.8235  140.6955  153.9634 H   0  0  0  0  0  0  0  0  0  0  0  0
  151.3227  140.4046  157.0766 H   0  0  0  0  0  0  0  0  0  0  0  0
  151.1438  141.7246  155.9464 H   0  0  0  0  0  0  0  0  0  0  0  0
  152.7786  142.1563  157.8788 H   0  0  0  0  0  0  0  0  0  0  0  0
  151.8298  144.0682  156.5914 H   0  0  0  0  0  0  0  0  0  0  0  0
  150.4014  144.0608  157.6023 H   0  0  0  0  0  0  0  0  0  0  0  0
  153.2589  144.6509  158.5065 H   0  0  0  0  0  0  0  0  0  0  0  0
  151.9397  145.7988  158.4250 H   0  0  0  0  0  0  0  0  0  0  0  0
  152.3310  144.9284  160.7685 H   0  0  0  0  0  0  0  0  0  0  0  0
  150.7113  144.6029  160.1913 H   0  0  0  0  0  0  0  0  0  0  0  0
  153.0323  142.5937  160.2192 H   0  0  0  0  0  0  0  0  0  0  0  0
  151.6084  142.5606  161.2408 H   0  0  0  0  0  0  0  0  0  0  0  0
  149.6673  138.1931  152.3429 H   0  0  0  0  0  0  0  0  0  0  0  0
  150.8337  138.4813  153.5770 H   0  0  0  0  0  0  0  0  0  0  0  0
  1  2  3  0  0  0  0
  2  3  1  0  0  0  0
  3 16  1  0  0  0  0
  3  4  2  0  0  0  0
  4  5  1  0  0  0  0
  4 18  1  0  0  0  0
  5  6  2  0  0  0  0
  6  7  1  0  0  0  0
  6 15  1  0  0  0  0
  7  8  1  0  0  0  0
  8  9  1  0  0  0  0
  8 19  1  0  0  0  0
  8 20  1  0  0  0  0
  9 14  1  0  0  0  0
  9 10  1  0  0  0  0
  9 21  1  0  0  0  0
 10 11  1  0  0  0  0
 10 22  1  0  0  0  0
 10 23  1  0  0  0  0
 11 12  1  0  0  0  0
 11 24  1  0  0  0  0
 11 25  1  0  0  0  0
 12 13  1  0  0  0  0
 12 26  1  0  0  0  0
 12 27  1  0  0  0  0
 13 14  1  0  0  0  0
 13 28  1  0  0  0  0
 13 29  1  0  0  0  0
 15 16  2  0  0  0  0
 16 17  1  0  0  0  0
 17 30  1  0  0  0  0
 17 31  1  0  0  0  0
M  END
> <s_m_source_file>
AV-unprocessed.smi

> <i_m_source_file_index>
1366

> <i_lp_mmshare_version>
43012

> <i_f3d_flags>
0

> <s_epik_input>
TiNDYzFbY0hdbmMobmMxW05IMl0pU1tDSDJdW0NAQEhdMltDSDJdW0NIMl1bQ0gyXVtDSDJdTzI=

> <s_epik_cmdline>
J2VwaWtfcHl0aG9uJywgJy1waCcsICc3LjAnLCAnLXRuJywgJzgnLCAnLW1hJywgJzIwMCcsICctbWV0YWxfYmluZGluZycsICctaW1hZScsICc8aW5maWxlLm1hZT4nLCAnLW9tYWUnLCAnPG91dGZpbGUubWFlPic=

> <r_lp_tautomer_probability>
1

> <r_epik_Ionization_Penalty>
5.69531e-05

> <r_epik_Ionization_Penalty_Charging>
0

> <r_epik_Ionization_Penalty_Neutral>
5.69531e-05

> <r_epik_State_Penalty>
-0

> <r_epik_Charging_Adjusted_Penalty>
0

> <i_epik_Tot_Q>
0

> <i_epik_Tot_abs_Q>
0

> <r_epik_Metal_State_Penalty>
-0

> <b_epik_Metal_Only>
0

> <s_lp_Force_Field>
OPLS_2005

> <r_lp_Energy>
5.10679

> <b_lp_Chiralities_Consistent>
1

> <s_lp_Variant>
AV-unprocessed.smi:1366-2

> <Gold.Version>
5.8.1

> <Gold.Id.Protein>
6NUR|6NUR_protein|mol2

> <Gold.PLP.Fitness>
39.8539

> <Gold.PLP.PLP>
-32.7160

> <Gold.PLP.part.hbond>
-3.0454

> <Gold.PLP.part.metal>
0.0000

> <Gold.PLP.part.buried>
-0.9463

> <Gold.PLP.part.nonpolar>
-29.6546

> <Gold.PLP.part.repulsive>
0.5805

> <Gold.PLP.ligand.clash>
0.0000

> <Gold.PLP.ligand.torsion>
0.4590

> <Gold.PLP.Chemscore.Hbond>
1.7893

> <Gold.PLP.Chemscore.CHOScore>
0.8951

> <Gold.PLP.Chemscore.Metal>
0.0000

> <Gold.Chemscore.Hbonds>
donor molecule, donor type, donor heavy atom, donor atom, acceptor molecule, acceptor atom, score
      L1  H    17    30       P1  7948  0.58
      P1  H  7954  7966       L1     1  0.88
      L1  C     4    18       P1 10175  0.80

> <Gold.PLP.Chemscore.Internal.Correction>
0.0029

> <Gold.Rescore>
     Score         DG    S(hbond)    S(metal)    S(lipo)     H(rot)  DE(clash)    DE(int)     intcor
     15.01     -15.63       1.55        0.00      80.42       1.73       0.17       0.45       ----

> <Gold.Chemscore.Fitness>
15.0089

> <Gold.Chemscore.DG>
-15.6298

> <Gold.Chemscore.ZeroCoef>
-5.4800

> <Gold.Chemscore.Hbond>
1.5452

> <Gold.Chemscore.Metal>
0.0000

> <Gold.Chemscore.Lipo>
80.4163

> <Gold.Chemscore.Internal_Hbond>
0.0000

> <Gold.Chemscore.DEClash>
0.1695

> <Gold.Chemscore.DEInternal>
0.4514

> <Gold.Chemscore.Rot>
1.7266

> <Gold.Chemscore.Internal.Correction>
   9.000000E+99

> <Gold.Chemscore.Hbonds>
donor molecule, donor type, donor heavy atom, donor atom, acceptor molecule, acceptor atom, score
      L1  H    17    30       P1  7948  0.23
      P1  H  7954  7966       L1     1  0.76

> <Gold.Chemscore.Hbond.Weighted>
-5.1611

> <Gold.Chemscore.Metal.Weighted>
-0.0000

> <Gold.Chemscore.Lipo.Weighted>
-9.4087

> <Gold.Chemscore.Internal_Hbond.Weighted>
0.0000

> <Gold.Chemscore.DEClash.Weighted>
0.1695

> <Gold.Chemscore.DEInternal.Weighted>
0.4514

> <Gold.Chemscore.Rot.Weighted>
4.4200

> <Gold.Chemscore.Internal.Correction.Weighted>
   9.000000E+99

> <Gold.Protein.RotatedTorsions>
[ 6907 6896 6895 6894 ] final  -25.32 input  -60.11 | X-H torsion
[ 7974 7965 7964 7962 ] final   37.02 input  175.53 | X-H torsion
[ 8008 7997 7996 7995 ] final   13.65 input   59.86 | X-H torsion
[ 10167 10162 10161 10158 ] final  179.03 input  -65.29 | X-H torsion
[ 10718 10713 10712 10709 ] final  133.98 input   66.30 | X-H torsion
[ 10763 10752 10751 10750 ] final   76.90 input  -60.55 | X-H torsion
[ 11005 11000 10999 10996 ] final  136.11 input  -57.11 | X-H torsion

> <Gold.Protein.ActiveResidues>
 VAL166  LYS551  ARG553  GLY616  TRP617  ASP618  TYR619  PRO620  LYS621  CYS622 
 ASP623  PHE694  ASN695  SER759  ASP760  ASP761  ALA762  ILE779  LEU786  VAL792 
 PHE793  MET794  SER795  GLU796  ALA797  LYS798  CYS799  TRP800  GLU811  SER814 

> <Gold.Protein.RotatedAtoms>
  151.1769  135.0343  159.8775 H   0  0  0  0  0  0  0  0  0  0  0  0  # atno 6907 bound_to 6896
  152.5446  134.1107  159.8367 H   0  0  0  0  0  0  0  0  0  0  0  0  # atno 6908 bound_to 6896
  151.1219  133.5051  159.2634 H   0  0  0  0  0  0  0  0  0  0  0  0  # atno 6909 bound_to 6896
  146.1168  139.5945  142.9316 H   0  0  0  0  0  0  0  0  0  0  0  0  # atno 7974 bound_to 7965
  154.8374  140.2909  155.5682 H   0  0  0  0  0  0  0  0  0  0  0  0  # atno 8008 bound_to 7997
  156.3009  140.2520  156.3242 H   0  0  0  0  0  0  0  0  0  0  0  0  # atno 8009 bound_to 7997
  154.9163  140.0387  157.1963 H   0  0  0  0  0  0  0  0  0  0  0  0  # atno 8010 bound_to 7997
  139.5319  144.2610  152.0707 H   0  0  0  0  0  0  0  0  0  0  0  0  # atno 10167 bound_to 10162
  157.4719  131.1080  150.9792 H   0  0  0  0  0  0  0  0  0  0  0  0  # atno 10718 bound_to 10713
  153.0759  135.4934  154.8402 H   0  0  0  0  0  0  0  0  0  0  0  0  # atno 10763 bound_to 10752
  154.7086  135.3015  154.9234 H   0  0  0  0  0  0  0  0  0  0  0  0  # atno 10764 bound_to 10752
  153.9935  135.6775  153.4808 H   0  0  0  0  0  0  0  0  0  0  0  0  # atno 10765 bound_to 10752
  140.0024  134.9473  157.0101 H   0  0  0  0  0  0  0  0  0  0  0  0  # atno 11005 bound_to 11000
  145.5549  141.0410  143.2258 LP  0  0  0  0  0  0  0  0  0  0  0  0  # atno 17320 bound_to 7965
  144.7561  139.7072  143.7253 LP  0  0  0  0  0  0  0  0  0  0  0  0  # atno 17321 bound_to 7965
  140.2074  144.4597  150.6402 LP  0  0  0  0  0  0  0  0  0  0  0  0  # atno 17342 bound_to 10162
  140.6502  143.2223  151.6095 LP  0  0  0  0  0  0  0  0  0  0  0  0  # atno 17343 bound_to 10162
  157.0554  130.5804  149.5377 LP  0  0  0  0  0  0  0  0  0  0  0  0  # atno 17370 bound_to 10713
  156.0077  130.5166  150.7886 LP  0  0  0  0  0  0  0  0  0  0  0  0  # atno 17371 bound_to 10713
  140.4703  134.1393  155.7202 LP  0  0  0  0  0  0  0  0  0  0  0  0  # atno 17394 bound_to 11000
  141.1652  133.8717  157.1735 LP  0  0  0  0  0  0  0  0  0  0  0  0  # atno 17395 bound_to 11000

$$$$
