AV-unprocessed.smi:2887|AV-procd|sdf|11099|dock3
  -GOLD-   2272015563D 1   1.00000     0.00000
 Structure written by MMmdl.
 38 39  0  0  0  0  0  0  0  0  3 V2000
  147.7798  142.1185  156.9634 O   0  0  0  0  0  0  0  0  0  0  0  0
  148.7926  141.6824  156.4177 C   0  0  0  0  0  0  0  0  0  0  0  0
  148.6518  140.9163  155.0925 C   0  0  0  0  0  0  0  0  0  0  0  0
  149.3536  139.6341  155.0566 N   0  0  0  0  0  0  0  0  0  0  0  0
  148.6639  138.4263  155.0737 C   0  0  0  0  0  0  0  0  0  0  0  0
  149.2538  137.2211  154.9683 C   0  0  0  0  0  0  0  0  0  0  0  0
  150.7212  137.1414  154.8199 C   0  0  0  0  0  0  0  0  0  0  0  0
  151.2789  136.0519  154.6989 O   0  0  0  0  0  0  0  0  0  0  0  0
  151.4707  138.4323  154.8111 C   0  0  0  0  0  0  0  0  0  0  0  0
  152.9102  138.5566  154.6969 N   0  3  0  0  0  0  0  0  0  0  0  0
  153.5924  137.5410  154.5960 O   0  0  0  0  0  0  0  0  0  0  0  0
  153.4083  139.6775  154.7009 O   0  5  0  0  0  0  0  0  0  0  0  0
  150.7409  139.5708  154.9265 C   0  0  0  0  0  0  0  0  0  0  0  0
  150.0245  141.8265  156.9367 N   0  0  0  0  0  0  0  0  0  0  0  0
  150.3503  142.4291  158.2259 C   0  0  0  0  0  0  0  0  0  0  0  0
  151.8727  142.4747  158.4466 C   0  0  0  0  0  0  0  0  0  0  0  0
  152.2660  142.7210  159.8922 C   0  0  0  0  0  0  0  0  0  0  0  0
  151.8940  143.7506  160.6512 C   0  0  0  0  0  0  0  0  0  0  0  0
  152.4746  143.6887  162.0369 C   0  0  0  0  0  0  0  0  0  0  0  0
  153.3180  142.3942  162.0319 C   0  0  0  0  0  0  0  0  0  0  0  0
  153.1648  141.7627  160.6298 C   0  0  0  0  0  0  0  0  0  0  0  0
  147.5911  140.7522  154.8964 H   0  0  0  0  0  0  0  0  0  0  0  0
  149.0104  141.5557  154.2846 H   0  0  0  0  0  0  0  0  0  0  0  0
  147.5933  138.5247  155.1804 H   0  0  0  0  0  0  0  0  0  0  0  0
  148.6765  136.3083  154.9867 H   0  0  0  0  0  0  0  0  0  0  0  0
  151.2078  140.5457  154.9330 H   0  0  0  0  0  0  0  0  0  0  0  0
  150.7973  141.4417  156.4128 H   0  0  0  0  0  0  0  0  0  0  0  0
  149.9464  143.4415  158.2424 H   0  0  0  0  0  0  0  0  0  0  0  0
  149.8721  141.8981  159.0504 H   0  0  0  0  0  0  0  0  0  0  0  0
  152.3132  141.5308  158.1223 H   0  0  0  0  0  0  0  0  0  0  0  0
  152.3166  143.2525  157.8245 H   0  0  0  0  0  0  0  0  0  0  0  0
  151.2529  144.5598  160.3338 H   0  0  0  0  0  0  0  0  0  0  0  0
  153.0882  144.5691  162.2292 H   0  0  0  0  0  0  0  0  0  0  0  0
  151.6766  143.6498  162.7789 H   0  0  0  0  0  0  0  0  0  0  0  0
  154.3651  142.6190  162.2382 H   0  0  0  0  0  0  0  0  0  0  0  0
  152.9764  141.7061  162.8060 H   0  0  0  0  0  0  0  0  0  0  0  0
  152.7040  140.7757  160.6802 H   0  0  0  0  0  0  0  0  0  0  0  0
  154.1275  141.6713  160.1265 H   0  0  0  0  0  0  0  0  0  0  0  0
  1  2  2  0  0  0  0
  2  3  1  0  0  0  0
  2 14  1  0  0  0  0
  3  4  1  0  0  0  0
  3 22  1  0  0  0  0
  3 23  1  0  0  0  0
  4 13  1  0  0  0  0
  4  5  1  0  0  0  0
  5  6  2  0  0  0  0
  5 24  1  0  0  0  0
  6  7  1  0  0  0  0
  6 25  1  0  0  0  0
  7  8  2  0  0  0  0
  7  9  1  0  0  0  0
  9 10  1  0  0  0  0
  9 13  2  0  0  0  0
 10 11  2  0  0  0  0
 10 12  1  0  0  0  0
 13 26  1  0  0  0  0
 14 15  1  0  0  0  0
 14 27  1  0  0  0  0
 15 16  1  0  0  0  0
 15 28  1  0  0  0  0
 15 29  1  0  0  0  0
 16 17  1  0  0  0  0
 16 30  1  0  0  0  0
 16 31  1  0  0  0  0
 17 21  1  0  0  0  0
 17 18  2  0  0  0  0
 18 19  1  0  0  0  0
 18 32  1  0  0  0  0
 19 20  1  0  0  0  0
 19 33  1  0  0  0  0
 19 34  1  0  0  0  0
 20 21  1  0  0  0  0
 20 35  1  0  0  0  0
 20 36  1  0  0  0  0
 21 37  1  0  0  0  0
 21 38  1  0  0  0  0
M  CHG  1  10   1
M  CHG  1  12  -1
M  END
> <s_m_source_file>
AV-unprocessed.smi

> <i_m_source_file_index>
2887

> <i_lp_mmshare_version>
43012

> <i_f3d_flags>
0

> <s_epik_input>
W0NIMl0xW0NIMl1bQ0gyXVtDSF09QzFbQ0gyXVtDSDJdW05IXUMoPU8pW0NIMl1uMltjSF1bY0hdYyg9TyljKFtOK10oPU8pW08tXSlbY0hdMg==

> <s_epik_cmdline>
J2VwaWtfcHl0aG9uJywgJy1waCcsICc3LjAnLCAnLXRuJywgJzgnLCAnLW1hJywgJzIwMCcsICctbWV0YWxfYmluZGluZycsICctaW1hZScsICc8aW5maWxlLm1hZT4nLCAnLW9tYWUnLCAnPG91dGZpbGUubWFlPic=

> <r_lp_tautomer_probability>
1

> <r_epik_Ionization_Penalty>
2.85916e-08

> <r_epik_Ionization_Penalty_Charging>
1.01785e-08

> <r_epik_Ionization_Penalty_Neutral>
1.84131e-08

> <r_epik_State_Penalty>
-0

> <r_epik_Charging_Adjusted_Penalty>
1.01785e-08

> <i_epik_Tot_Q>
0

> <i_epik_Tot_abs_Q>
2

> <r_epik_Metal_State_Penalty>
-0

> <b_epik_Metal_Only>
0

> <s_lp_Force_Field>
OPLS_2005

> <r_lp_Energy>
18.7972

> <b_lp_Chiralities_Consistent>
1

> <s_lp_Variant>
AV-unprocessed.smi:2887-1

> <Gold.Version>
5.8.1

> <Gold.Id.Protein>
6NUR|6NUR_protein|mol2

> <Gold.PLP.Fitness>
48.4149

> <Gold.PLP.PLP>
-43.0269

> <Gold.PLP.part.hbond>
-3.2484

> <Gold.PLP.part.metal>
0.0000

> <Gold.PLP.part.buried>
-4.1120

> <Gold.PLP.part.nonpolar>
-36.0938

> <Gold.PLP.part.repulsive>
0.5942

> <Gold.PLP.ligand.clash>
0.0000

> <Gold.PLP.ligand.torsion>
0.3405

> <Gold.PLP.Chemscore.Hbond>
2.0117

> <Gold.PLP.Chemscore.CHOScore>
0.0000

> <Gold.PLP.Chemscore.Metal>
0.0000

> <Gold.Chemscore.Hbonds>
donor molecule, donor type, donor heavy atom, donor atom, acceptor molecule, acceptor atom, score
      P1  H  7989  7998       L1    12  0.01
      P1  H  7997  8009       L1    12  1.00
      P1  H 10752 10763       L1     8  1.00

> <Gold.PLP.Chemscore.Internal.Correction>
0.0339

> <Gold.Rescore>
     Score         DG    S(hbond)    S(metal)    S(lipo)     H(rot)  DE(clash)    DE(int)     intcor
     16.96     -18.89       1.98        0.00     101.86       2.00       0.16       1.77       ----

> <Gold.Chemscore.Fitness>
16.9577

> <Gold.Chemscore.DG>
-18.8895

> <Gold.Chemscore.ZeroCoef>
-5.4800

> <Gold.Chemscore.Hbond>
1.9789

> <Gold.Chemscore.Metal>
0.0000

> <Gold.Chemscore.Lipo>
101.8610

> <Gold.Chemscore.Internal_Hbond>
0.0000

> <Gold.Chemscore.DEClash>
0.1629

> <Gold.Chemscore.DEInternal>
1.7690

> <Gold.Chemscore.Rot>
1.9991

> <Gold.Chemscore.Internal.Correction>
   9.000000E+99

> <Gold.Chemscore.Hbonds>
donor molecule, donor type, donor heavy atom, donor atom, acceptor molecule, acceptor atom, score
      P1  H  7989  7998       L1    12  0.01
      P1  H  7997  8009       L1    12  0.98
      P1  H 10752 10763       L1     8  1.00

> <Gold.Chemscore.Hbond.Weighted>
-6.6095

> <Gold.Chemscore.Metal.Weighted>
-0.0000

> <Gold.Chemscore.Lipo.Weighted>
-11.9177

> <Gold.Chemscore.Internal_Hbond.Weighted>
0.0000

> <Gold.Chemscore.DEClash.Weighted>
0.1629

> <Gold.Chemscore.DEInternal.Weighted>
1.7690

> <Gold.Chemscore.Rot.Weighted>
5.1177

> <Gold.Chemscore.Internal.Correction.Weighted>
   9.000000E+99

> <Gold.Protein.RotatedTorsions>
[ 6907 6896 6895 6894 ] final -120.75 input  -60.11 | X-H torsion
[ 7974 7965 7964 7962 ] final   89.20 input  175.53 | X-H torsion
[ 8008 7997 7996 7995 ] final -137.94 input   59.86 | X-H torsion
[ 10167 10162 10161 10158 ] final  -36.65 input  -65.29 | X-H torsion
[ 10718 10713 10712 10709 ] final -101.75 input   66.30 | X-H torsion
[ 10763 10752 10751 10750 ] final   52.98 input  -60.55 | X-H torsion
[ 11005 11000 10999 10996 ] final  -92.26 input  -57.11 | X-H torsion

> <Gold.Protein.ActiveResidues>
 VAL166  LYS551  ARG553  GLY616  TRP617  ASP618  TYR619  PRO620  LYS621  CYS622 
 ASP623  PHE694  ASN695  SER759  ASP760  ASP761  ALA762  ILE779  LEU786  VAL792 
 PHE793  MET794  SER795  GLU796  ALA797  LYS798  CYS799  TRP800  GLU811  SER814 

> <Gold.Protein.RotatedAtoms>
  150.8421  133.7919  159.3056 H   0  0  0  0  0  0  0  0  0  0  0  0  # atno 6907 bound_to 6896
  151.5617  135.1063  159.9983 H   0  0  0  0  0  0  0  0  0  0  0  0  # atno 6908 bound_to 6896
  152.4483  133.7536  159.6764 H   0  0  0  0  0  0  0  0  0  0  0  0  # atno 6909 bound_to 6896
  145.5356  139.2285  143.2594 H   0  0  0  0  0  0  0  0  0  0  0  0  # atno 7974 bound_to 7965
  155.4202  140.0518  157.3026 H   0  0  0  0  0  0  0  0  0  0  0  0  # atno 8008 bound_to 7997
  154.4906  140.2118  155.9516 H   0  0  0  0  0  0  0  0  0  0  0  0  # atno 8009 bound_to 7997
  156.1337  140.3167  155.8392 H   0  0  0  0  0  0  0  0  0  0  0  0  # atno 8010 bound_to 7997
  140.7137  143.3394  151.2390 H   0  0  0  0  0  0  0  0  0  0  0  0  # atno 10167 bound_to 10162
  156.0205  130.5388  150.7009 H   0  0  0  0  0  0  0  0  0  0  0  0  # atno 10718 bound_to 10713
  152.9792  135.5794  154.4668 H   0  0  0  0  0  0  0  0  0  0  0  0  # atno 10763 bound_to 10752
  154.4236  135.2772  155.1961 H   0  0  0  0  0  0  0  0  0  0  0  0  # atno 10764 bound_to 10752
  154.3699  135.6170  153.5788 H   0  0  0  0  0  0  0  0  0  0  0  0  # atno 10765 bound_to 10752
  141.1526  133.7809  156.9995 H   0  0  0  0  0  0  0  0  0  0  0  0  # atno 11005 bound_to 11000
  146.2015  140.6174  142.9100 LP  0  0  0  0  0  0  0  0  0  0  0  0  # atno 17320 bound_to 7965
  144.7603  140.5407  143.6740 LP  0  0  0  0  0  0  0  0  0  0  0  0  # atno 17321 bound_to 7965
  139.6898  143.9712  152.2853 LP  0  0  0  0  0  0  0  0  0  0  0  0  # atno 17342 bound_to 10162
  139.9369  144.6706  150.8305 LP  0  0  0  0  0  0  0  0  0  0  0  0  # atno 17343 bound_to 10162
  157.4669  131.0889  151.0685 LP  0  0  0  0  0  0  0  0  0  0  0  0  # atno 17370 bound_to 10713
  157.1156  130.6040  149.5492 LP  0  0  0  0  0  0  0  0  0  0  0  0  # atno 17371 bound_to 10713
  140.0949  134.9570  157.1834 LP  0  0  0  0  0  0  0  0  0  0  0  0  # atno 17394 bound_to 11000
  140.3395  134.2719  155.7214 LP  0  0  0  0  0  0  0  0  0  0  0  0  # atno 17395 bound_to 11000

$$$$
