AV-unprocessed.smi:1833|AV-procd|sdf|7467|dock5
  -GOLD-   22720 9163D 1   1.00000     0.00000
 Structure written by MMmdl.
 42 43  0  0  0  0  0  0  0  0  2 V2000
  144.9550  132.8838  150.7526 C   0  0  0  0  0  0  0  0  0  0  0  0
  146.3357  133.5547  150.7054 C   0  0  0  0  0  0  0  0  0  0  0  0
  146.5263  134.5316  151.8064 N   0  3  1  0  0  0  0  0  0  0  0  0
  145.6011  135.6902  151.7023 C   0  0  0  0  0  0  0  0  0  0  0  0
  145.9215  136.7570  152.7640 C   0  0  0  0  0  0  0  0  0  0  0  0
  145.9217  136.1573  154.1802 C   0  0  0  0  0  0  0  0  0  0  0  0
  146.8450  134.9284  154.2576 C   0  0  2  0  0  0  0  0  0  0  0  0
  148.2424  135.3479  154.1482 N   0  0  0  0  0  0  0  0  0  0  0  0
  148.9559  135.9197  155.1279 C   0  0  0  0  0  0  0  0  0  0  0  0
  148.5220  136.1298  156.2603 O   0  0  0  0  0  0  0  0  0  0  0  0
  150.1911  136.2449  154.7198 N   0  0  0  0  0  0  0  0  0  0  0  0
  151.2015  136.9139  155.5363 C   0  0  0  0  0  0  0  0  0  0  0  0
  151.6550  138.2573  154.9333 C   0  0  0  0  0  0  0  0  0  0  0  0
  151.2825  139.4529  155.7502 C   0  0  0  0  0  0  0  0  0  0  0  0
  150.5522  140.4667  155.2773 N   0  0  0  0  0  0  0  0  0  0  0  0
  150.3753  141.4830  156.2190 C   0  0  0  0  0  0  0  0  0  0  0  0
  150.9886  141.2303  157.4197 C   0  0  0  0  0  0  0  0  0  0  0  0
  151.8153  139.6971  157.4117 S   0  0  0  0  0  0  0  0  0  0  0  0
  146.4608  133.9139  153.1577 C   0  0  0  0  0  0  0  0  0  0  0  0
  144.8771  132.1139  149.9847 H   0  0  0  0  0  0  0  0  0  0  0  0
  144.1462  133.5930  150.5800 H   0  0  0  0  0  0  0  0  0  0  0  0
  144.7825  132.4054  151.7171 H   0  0  0  0  0  0  0  0  0  0  0  0
  147.0875  132.7687  150.7868 H   0  0  0  0  0  0  0  0  0  0  0  0
  146.4988  134.0388  149.7413 H   0  0  0  0  0  0  0  0  0  0  0  0
  145.6801  136.1398  150.7116 H   0  0  0  0  0  0  0  0  0  0  0  0
  144.5716  135.3456  151.8125 H   0  0  0  0  0  0  0  0  0  0  0  0
  146.8939  137.2024  152.5507 H   0  0  0  0  0  0  0  0  0  0  0  0
  145.1955  137.5686  152.7057 H   0  0  0  0  0  0  0  0  0  0  0  0
  146.2212  136.9098  154.9110 H   0  0  0  0  0  0  0  0  0  0  0  0
  144.9057  135.8616  154.4449 H   0  0  0  0  0  0  0  0  0  0  0  0
  146.7096  134.4607  155.2346 H   0  0  0  0  0  0  0  0  0  0  0  0
  148.6842  135.2295  153.2481 H   0  0  0  0  0  0  0  0  0  0  0  0
  150.4487  136.0329  153.7669 H   0  0  0  0  0  0  0  0  0  0  0  0
  150.8368  137.0662  156.5534 H   0  0  0  0  0  0  0  0  0  0  0  0
  152.0600  136.2476  155.6209 H   0  0  0  0  0  0  0  0  0  0  0  0
  152.7376  138.2515  154.8012 H   0  0  0  0  0  0  0  0  0  0  0  0
  151.2275  138.3760  153.9373 H   0  0  0  0  0  0  0  0  0  0  0  0
  149.7979  142.3549  155.9491 H   0  0  0  0  0  0  0  0  0  0  0  0
  151.0042  141.8506  158.3034 H   0  0  0  0  0  0  0  0  0  0  0  0
  145.4508  133.5404  153.3341 H   0  0  0  0  0  0  0  0  0  0  0  0
  147.1171  133.0465  153.2136 H   0  0  0  0  0  0  0  0  0  0  0  0
  147.4590  134.9037  151.6981 H   0  0  0  0  0  0  0  0  0  0  0  0
  1  2  1  0  0  0  0
  1 20  1  0  0  0  0
  1 21  1  0  0  0  0
  1 22  1  0  0  0  0
  2  3  1  0  0  0  0
  2 23  1  0  0  0  0
  2 24  1  0  0  0  0
  3 19  1  0  0  0  0
  3  4  1  0  0  0  0
  3 42  1  0  0  0  0
  4  5  1  0  0  0  0
  4 25  1  0  0  0  0
  4 26  1  0  0  0  0
  5  6  1  0  0  0  0
  5 27  1  0  0  0  0
  5 28  1  0  0  0  0
  6  7  1  0  0  0  0
  6 29  1  0  0  0  0
  6 30  1  0  0  0  0
  7  8  1  0  0  0  0
  7 19  1  0  0  0  0
  7 31  1  0  0  0  0
  8  9  1  0  0  0  0
  8 32  1  0  0  0  0
  9 10  2  0  0  0  0
  9 11  1  0  0  0  0
 11 12  1  0  0  0  0
 11 33  1  0  0  0  0
 12 13  1  0  0  0  0
 12 34  1  0  0  0  0
 12 35  1  0  0  0  0
 13 14  1  0  0  0  0
 13 36  1  0  0  0  0
 13 37  1  0  0  0  0
 14 18  1  0  0  0  0
 14 15  2  0  0  0  0
 15 16  1  0  0  0  0
 16 17  2  0  0  0  0
 16 38  1  0  0  0  0
 17 18  1  0  0  0  0
 17 39  1  0  0  0  0
 19 40  1  0  0  0  0
 19 41  1  0  0  0  0
M  CHG  1   3   1
M  END
> <s_m_source_file>
AV-unprocessed.smi

> <i_m_source_file_index>
1833

> <i_lp_mmshare_version>
43012

> <i_f3d_flags>
0

> <s_epik_input>
W0NIM11bQ0gyXU4xW0NIMl1bQ0gyXVtDSDJdW0NASF0oW0NIMl0xKVtOSF1DKD1PKVtOSF1bQ0gyXVtDSDJdYzJuW2NIXVtjSF1zMg==

> <s_epik_cmdline>
J2VwaWtfcHl0aG9uJywgJy1waCcsICc3LjAnLCAnLXRuJywgJzgnLCAnLW1hJywgJzIwMCcsICctbWV0YWxfYmluZGluZycsICctaW1hZScsICc8aW5maWxlLm1hZT4nLCAnLW9tYWUnLCAnPG91dGZpbGUubWFlPic=

> <r_lp_tautomer_probability>
1

> <r_epik_Ionization_Penalty>
0.00269629

> <r_epik_Ionization_Penalty_Charging>
0.00233899

> <r_epik_Ionization_Penalty_Neutral>
0.000357304

> <r_epik_State_Penalty>
-0

> <r_epik_Charging_Adjusted_Penalty>
0.00233899

> <i_epik_Tot_Q>
1

> <i_epik_Tot_abs_Q>
1

> <r_epik_Metal_State_Penalty>
-0

> <b_epik_Metal_Only>
0

> <s_lp_Force_Field>
OPLS_2005

> <r_lp_Energy>
15.7918

> <b_lp_Chiralities_Consistent>
1

> <s_lp_Variant>
AV-unprocessed.smi:1833-3

> <Gold.Version>
5.8.1

> <Gold.Id.Protein>
6NUR|6NUR_protein|mol2

> <Gold.PLP.Fitness>
42.9473

> <Gold.PLP.PLP>
-29.3924

> <Gold.PLP.part.hbond>
-4.1228

> <Gold.PLP.part.metal>
0.0000

> <Gold.PLP.part.buried>
-2.4201

> <Gold.PLP.part.nonpolar>
-22.4558

> <Gold.PLP.part.repulsive>
0.2088

> <Gold.PLP.ligand.clash>
0.0000

> <Gold.PLP.ligand.torsion>
0.6137

> <Gold.PLP.Chemscore.Hbond>
3.9077

> <Gold.PLP.Chemscore.CHOScore>
1.0000

> <Gold.PLP.Chemscore.Metal>
0.0000

> <Gold.Chemscore.Hbonds>
donor molecule, donor type, donor heavy atom, donor atom, acceptor molecule, acceptor atom, score
      L1  H     3    42       P1  7948  2.00
      L1  H     8    32       P1  7948  0.75
      L1  H    11    33       P1  7949  0.04
      P1  H  7989  7998       L1    15  0.78
      L1  C    16    38       P1  8028  0.95

> <Gold.PLP.Chemscore.Internal.Correction>
0.0592

> <Gold.Rescore>
     Score         DG    S(hbond)    S(metal)    S(lipo)     H(rot)  DE(clash)    DE(int)     intcor
     16.71     -17.62       2.70        0.00      64.22       1.71       0.00       0.92       ----

> <Gold.Chemscore.Fitness>
16.7057

> <Gold.Chemscore.DG>
-17.6225

> <Gold.Chemscore.ZeroCoef>
-5.4800

> <Gold.Chemscore.Hbond>
2.7001

> <Gold.Chemscore.Metal>
0.0000

> <Gold.Chemscore.Lipo>
64.2188

> <Gold.Chemscore.Internal_Hbond>
0.0000

> <Gold.Chemscore.DEClash>
0.0000

> <Gold.Chemscore.DEInternal>
0.9168

> <Gold.Chemscore.Rot>
1.7147

> <Gold.Chemscore.Internal.Correction>
   9.000000E+99

> <Gold.Chemscore.Hbonds>
donor molecule, donor type, donor heavy atom, donor atom, acceptor molecule, acceptor atom, score
      L1  H     3    42       P1  7948  0.69
      L1  H     8    32       P1  7948  0.58
      P1  H  7989  7998       L1    15  0.18

> <Gold.Chemscore.Hbond.Weighted>
-9.0185

> <Gold.Chemscore.Metal.Weighted>
-0.0000

> <Gold.Chemscore.Lipo.Weighted>
-7.5136

> <Gold.Chemscore.Internal_Hbond.Weighted>
0.0000

> <Gold.Chemscore.DEClash.Weighted>
0.0000

> <Gold.Chemscore.DEInternal.Weighted>
0.9168

> <Gold.Chemscore.Rot.Weighted>
4.3896

> <Gold.Chemscore.Internal.Correction.Weighted>
   9.000000E+99

> <Gold.Protein.RotatedTorsions>
[ 6907 6896 6895 6894 ] final  -80.49 input  -60.11 | X-H torsion
[ 7974 7965 7964 7962 ] final   97.67 input  175.53 | X-H torsion
[ 8008 7997 7996 7995 ] final   96.68 input   59.86 | X-H torsion
[ 10167 10162 10161 10158 ] final -109.04 input  -65.29 | X-H torsion
[ 10718 10713 10712 10709 ] final  -79.26 input   66.30 | X-H torsion
[ 10763 10752 10751 10750 ] final -163.21 input  -60.55 | X-H torsion
[ 11005 11000 10999 10996 ] final -100.67 input  -57.11 | X-H torsion

> <Gold.Protein.ActiveResidues>
 VAL166  LYS551  ARG553  GLY616  TRP617  ASP618  TYR619  PRO620  LYS621  CYS622 
 ASP623  PHE694  ASN695  SER759  ASP760  ASP761  ALA762  ILE779  LEU786  VAL792 
 PHE793  MET794  SER795  GLU796  ALA797  LYS798  CYS799  TRP800  GLU811  SER814 

> <Gold.Protein.RotatedAtoms>
  150.6928  134.3961  159.5097 H   0  0  0  0  0  0  0  0  0  0  0  0  # atno 6907 bound_to 6896
  152.1742  134.8806  160.0541 H   0  0  0  0  0  0  0  0  0  0  0  0  # atno 6908 bound_to 6896
  151.9821  133.3726  159.4148 H   0  0  0  0  0  0  0  0  0  0  0  0  # atno 6909 bound_to 6896
  145.4225  139.2320  143.3188 H   0  0  0  0  0  0  0  0  0  0  0  0  # atno 7974 bound_to 7965
  156.0822  140.3269  155.7708 H   0  0  0  0  0  0  0  0  0  0  0  0  # atno 8008 bound_to 7997
  155.5134  140.0579  157.2937 H   0  0  0  0  0  0  0  0  0  0  0  0  # atno 8009 bound_to 7997
  154.4589  140.1956  156.0318 H   0  0  0  0  0  0  0  0  0  0  0  0  # atno 8010 bound_to 7997
  140.1596  143.4131  152.1435 H   0  0  0  0  0  0  0  0  0  0  0  0  # atno 10167 bound_to 10162
  156.0097  130.4541  150.3622 H   0  0  0  0  0  0  0  0  0  0  0  0  # atno 10718 bound_to 10713
  154.7144  135.3012  154.9147 H   0  0  0  0  0  0  0  0  0  0  0  0  # atno 10763 bound_to 10752
  154.0039  135.6703  153.4765 H   0  0  0  0  0  0  0  0  0  0  0  0  # atno 10764 bound_to 10752
  153.0781  135.5024  154.8361 H   0  0  0  0  0  0  0  0  0  0  0  0  # atno 10765 bound_to 10752
  141.1261  133.8417  157.1132 H   0  0  0  0  0  0  0  0  0  0  0  0  # atno 11005 bound_to 11000
  146.2649  140.4951  142.8838 LP  0  0  0  0  0  0  0  0  0  0  0  0  # atno 17320 bound_to 7965
  144.8236  140.6591  143.6337 LP  0  0  0  0  0  0  0  0  0  0  0  0  # atno 17321 bound_to 7965
  139.5387  144.7235  151.4805 LP  0  0  0  0  0  0  0  0  0  0  0  0  # atno 17342 bound_to 10162
  140.6651  143.8415  150.6933 LP  0  0  0  0  0  0  0  0  0  0  0  0  # atno 17343 bound_to 10162
  157.1710  131.0369  151.2795 LP  0  0  0  0  0  0  0  0  0  0  0  0  # atno 17370 bound_to 10713
  157.4229  130.7447  149.6927 LP  0  0  0  0  0  0  0  0  0  0  0  0  # atno 17371 bound_to 10713
  140.0262  134.9923  157.0690 LP  0  0  0  0  0  0  0  0  0  0  0  0  # atno 17394 bound_to 11000
  140.4359  134.1732  155.7170 LP  0  0  0  0  0  0  0  0  0  0  0  0  # atno 17395 bound_to 11000

$$$$
