AV-unprocessed.smi:33|AV-procd|sdf|201|dock4
  -GOLD-   2262015473D 1   1.00000     0.00000
 Structure written by MMmdl.
 67 72  0  0  0  0  0  0  0  0  1 V2000
  151.8527  129.7052  155.0570 O   0  0  0  0  0  0  0  0  0  0  0  0
  152.6103  130.3681  155.7685 C   0  0  0  0  0  0  0  0  0  0  0  0
  152.2178  130.9922  156.8962 O   0  0  0  0  0  0  0  0  0  0  0  0
  150.8860  131.4641  157.0178 C   0  0  0  0  0  0  0  0  0  0  0  0
  150.5697  132.3912  155.8381 C   0  0  2  0  0  0  0  0  0  0  0  0
  151.1731  133.6628  156.0160 O   0  0  0  0  0  0  0  0  0  0  0  0
  150.5264  134.5788  155.1896 C   0  0  2  0  0  0  0  0  0  0  0  0
  150.4945  135.8946  155.8943 N   0  0  0  0  0  0  0  0  0  0  0  0
  149.9093  136.1840  157.1070 C   0  0  0  0  0  0  0  0  0  0  0  0
  150.0273  137.4224  157.5038 N   0  0  0  0  0  0  0  0  0  0  0  0
  150.7442  138.0344  156.4835 C   0  0  0  0  0  0  0  0  0  0  0  0
  151.2152  139.3569  156.2616 C   0  0  0  0  0  0  0  0  0  0  0  0
  151.0005  140.3714  157.1324 N   0  0  0  0  0  0  0  0  0  0  0  0
  149.6536  140.9610  157.1545 C   0  0  0  0  0  0  0  0  0  0  0  0
  149.2541  141.5286  158.1730 O   0  0  0  0  0  0  0  0  0  0  0  0
  148.7467  140.8346  155.9630 C   0  0  0  0  0  0  0  0  0  0  0  0
  147.3657  140.6044  156.1477 C   0  0  0  0  0  0  0  0  0  0  0  0
  146.5079  140.5018  155.0354 C   0  0  0  0  0  0  0  0  0  0  0  0
  147.0219  140.6473  153.7328 C   0  0  0  0  0  0  0  0  0  0  0  0
  148.3930  140.9050  153.5426 C   0  0  0  0  0  0  0  0  0  0  0  0
  149.2516  141.0073  154.6543 C   0  0  0  0  0  0  0  0  0  0  0  0
  152.1335  140.7975  157.9673 C   0  0  0  0  0  0  0  0  0  0  0  0
  153.0334  139.9959  158.2257 O   0  0  0  0  0  0  0  0  0  0  0  0
  152.1696  142.1809  158.5530 C   0  0  0  0  0  0  0  0  0  0  0  0
  151.6317  143.2689  157.8310 C   0  0  0  0  0  0  0  0  0  0  0  0
  151.6548  144.5658  158.3796 C   0  0  0  0  0  0  0  0  0  0  0  0
  152.1969  144.7797  159.6614 C   0  0  0  0  0  0  0  0  0  0  0  0
  152.7084  143.6949  160.3984 C   0  0  0  0  0  0  0  0  0  0  0  0
  152.6874  142.3982  159.8499 C   0  0  0  0  0  0  0  0  0  0  0  0
  151.9073  139.6037  155.1190 N   0  0  0  0  0  0  0  0  0  0  0  0
  152.1231  138.6149  154.2467 C   0  0  0  0  0  0  0  0  0  0  0  0
  151.7420  137.3380  154.3218 N   0  0  0  0  0  0  0  0  0  0  0  0
  151.0468  137.0854  155.4688 C   0  0  0  0  0  0  0  0  0  0  0  0
  149.1018  134.0562  154.9321 C   0  0  1  0  0  0  0  0  0  0  0  0
  148.8627  133.8364  153.5565 O   0  0  0  0  0  0  0  0  0  0  0  0
  149.0856  132.7285  155.6800 C   0  0  2  0  0  0  0  0  0  0  0  0
  148.5058  132.8970  156.8696 F   0  0  0  0  0  0  0  0  0  0  0  0
  154.0589  130.5626  155.4711 C   0  0  0  0  0  0  0  0  0  0  0  0
  154.6256  129.9275  154.3411 C   0  0  0  0  0  0  0  0  0  0  0  0
  155.9913  130.0891  154.0369 C   0  0  0  0  0  0  0  0  0  0  0  0
  156.8075  130.8873  154.8593 C   0  0  0  0  0  0  0  0  0  0  0  0
  156.2562  131.5239  155.9866 C   0  0  0  0  0  0  0  0  0  0  0  0
  154.8906  131.3639  156.2922 C   0  0  0  0  0  0  0  0  0  0  0  0
  150.2048  130.6121  157.0121 H   0  0  0  0  0  0  0  0  0  0  0  0
  150.7518  131.9890  157.9650 H   0  0  0  0  0  0  0  0  0  0  0  0
  150.9374  131.9568  154.9066 H   0  0  0  0  0  0  0  0  0  0  0  0
  151.1034  134.7551  154.2802 H   0  0  0  0  0  0  0  0  0  0  0  0
  149.3899  135.4412  157.6949 H   0  0  0  0  0  0  0  0  0  0  0  0
  146.9600  140.4919  157.1428 H   0  0  0  0  0  0  0  0  0  0  0  0
  145.4548  140.3130  155.1822 H   0  0  0  0  0  0  0  0  0  0  0  0
  146.3636  140.5685  152.8802 H   0  0  0  0  0  0  0  0  0  0  0  0
  148.7859  141.0264  152.5440 H   0  0  0  0  0  0  0  0  0  0  0  0
  150.3011  141.2112  154.4967 H   0  0  0  0  0  0  0  0  0  0  0  0
  151.2137  143.1170  156.8463 H   0  0  0  0  0  0  0  0  0  0  0  0
  151.2561  145.3967  157.8165 H   0  0  0  0  0  0  0  0  0  0  0  0
  152.2145  145.7745  160.0816 H   0  0  0  0  0  0  0  0  0  0  0  0
  153.1168  143.8569  161.3850 H   0  0  0  0  0  0  0  0  0  0  0  0
  153.0795  141.5725  160.4264 H   0  0  0  0  0  0  0  0  0  0  0  0
  152.6798  138.8853  153.3616 H   0  0  0  0  0  0  0  0  0  0  0  0
  148.3495  134.7465  155.3177 H   0  0  0  0  0  0  0  0  0  0  0  0
  148.6342  134.6608  153.1553 H   0  0  0  0  0  0  0  0  0  0  0  0
  148.5248  131.9439  155.1705 H   0  0  0  0  0  0  0  0  0  0  0  0
  154.0191  129.3086  153.6955 H   0  0  0  0  0  0  0  0  0  0  0  0
  156.4129  129.5988  153.1716 H   0  0  0  0  0  0  0  0  0  0  0  0
  157.8546  131.0112  154.6258 H   0  0  0  0  0  0  0  0  0  0  0  0
  156.8817  132.1362  156.6194 H   0  0  0  0  0  0  0  0  0  0  0  0
  154.5002  131.8649  157.1660 H   0  0  0  0  0  0  0  0  0  0  0  0
  1  2  2  0  0  0  0
  2  3  1  0  0  0  0
  2 38  1  0  0  0  0
  3  4  1  0  0  0  0
  4  5  1  0  0  0  0
  4 44  1  0  0  0  0
  4 45  1  0  0  0  0
  5 36  1  0  0  0  0
  5  6  1  0  0  0  0
  5 46  1  0  0  0  0
  6  7  1  0  0  0  0
  7  8  1  0  0  0  0
  7 34  1  0  0  0  0
  7 47  1  0  0  0  0
  8 33  1  0  0  0  0
  8  9  1  0  0  0  0
  9 10  2  0  0  0  0
  9 48  1  0  0  0  0
 10 11  1  0  0  0  0
 11 33  2  0  0  0  0
 11 12  1  0  0  0  0
 12 13  1  0  0  0  0
 12 30  2  0  0  0  0
 13 14  1  0  0  0  0
 13 22  1  0  0  0  0
 14 15  2  0  0  0  0
 14 16  1  0  0  0  0
 16 21  1  0  0  0  0
 16 17  2  0  0  0  0
 17 18  1  0  0  0  0
 17 49  1  0  0  0  0
 18 19  2  0  0  0  0
 18 50  1  0  0  0  0
 19 20  1  0  0  0  0
 19 51  1  0  0  0  0
 20 21  2  0  0  0  0
 20 52  1  0  0  0  0
 21 53  1  0  0  0  0
 22 23  2  0  0  0  0
 22 24  1  0  0  0  0
 24 29  1  0  0  0  0
 24 25  2  0  0  0  0
 25 26  1  0  0  0  0
 25 54  1  0  0  0  0
 26 27  2  0  0  0  0
 26 55  1  0  0  0  0
 27 28  1  0  0  0  0
 27 56  1  0  0  0  0
 28 29  2  0  0  0  0
 28 57  1  0  0  0  0
 29 58  1  0  0  0  0
 30 31  1  0  0  0  0
 31 32  2  0  0  0  0
 31 59  1  0  0  0  0
 32 33  1  0  0  0  0
 34 35  1  0  0  0  0
 34 36  1  0  0  0  0
 34 60  1  0  0  0  0
 35 61  1  0  0  0  0
 36 37  1  0  0  0  0
 36 62  1  0  0  0  0
 38 43  1  0  0  0  0
 38 39  2  0  0  0  0
 39 40  1  0  0  0  0
 39 63  1  0  0  0  0
 40 41  2  0  0  0  0
 40 64  1  0  0  0  0
 41 42  1  0  0  0  0
 41 65  1  0  0  0  0
 42 43  2  0  0  0  0
 42 66  1  0  0  0  0
 43 67  1  0  0  0  0
M  END
> <s_m_source_file>
AV-unprocessed.smi

> <i_m_source_file_index>
33

> <i_lp_mmshare_version>
43012

> <i_f3d_flags>
0

> <s_epik_input>
W2NIXTFbY0hdW2NIXVtjSF1bY0hdYzFDKD1PKU9bQ0gyXVtDQEBIXTJPW0NASF0oW0NAQEhdKFtPSF0pW0NAQEhdMkYpbihbY0hdbjMpYyhjMzQpbltjSF1uYzROKEMoPU8pYzVbY0hdW2NIXVtjSF1bY0hdW2NIXTUpQyg9TyljNltjSF1bY0hdW2NIXVtjSF1bY0hdNg==

> <s_epik_cmdline>
J2VwaWtfcHl0aG9uJywgJy1waCcsICc3LjAnLCAnLXRuJywgJzgnLCAnLW1hJywgJzIwMCcsICctbWV0YWxfYmluZGluZycsICctaW1hZScsICc8aW5maWxlLm1hZT4nLCAnLW9tYWUnLCAnPG91dGZpbGUubWFlPic=

> <r_lp_tautomer_probability>
1

> <r_epik_Ionization_Penalty>
0.00067664

> <r_epik_Ionization_Penalty_Charging>
0

> <r_epik_Ionization_Penalty_Neutral>
0.00067664

> <r_epik_State_Penalty>
0.000428095

> <r_epik_Charging_Adjusted_Penalty>
0.000428095

> <i_epik_Tot_Q>
0

> <i_epik_Tot_abs_Q>
0

> <r_epik_Metal_State_Penalty>
-0

> <b_epik_Metal_Only>
0

> <s_epik_Chemistry_Notes>
This compound has an ester and may undergo hydrolysis at high or low pH. This compound contains an acetal/aminal-like group ( X-CH(R)-Y where X, Y are N, S, or O) that may be acid/base labile, releasing an aldehyde.

> <s_lp_Force_Field>
OPLS_2005

> <r_lp_Energy>
66.4626

> <b_lp_Chiralities_Consistent>
1

> <s_lp_Variant>
AV-unprocessed.smi:33-3

> <Gold.Version>
5.8.1

> <Gold.Id.Protein>
6NUR|6NUR_protein|mol2

> <Gold.PLP.Fitness>
73.1595

> <Gold.PLP.PLP>
-65.6369

> <Gold.PLP.part.hbond>
-4.0000

> <Gold.PLP.part.metal>
0.0000

> <Gold.PLP.part.buried>
-6.8213

> <Gold.PLP.part.nonpolar>
-55.8456

> <Gold.PLP.part.repulsive>
0.3129

> <Gold.PLP.ligand.clash>
0.0000

> <Gold.PLP.ligand.torsion>
3.5042

> <Gold.PLP.Chemscore.Hbond>
3.3020

> <Gold.PLP.Chemscore.CHOScore>
0.0000

> <Gold.PLP.Chemscore.Metal>
0.0000

> <Gold.Chemscore.Hbonds>
donor molecule, donor type, donor heavy atom, donor atom, acceptor molecule, acceptor atom, score
      L1  H    35    61       P1  7948  1.00
      P1  H  7989  7998       L1    30  0.36
      P1  H  7997  8010       L1    23  1.00
      P1  H 10752 10765       L1    32  0.94

> <Gold.PLP.Chemscore.Internal.Correction>
4.6253

> <Gold.Rescore>
     Score         DG    S(hbond)    S(metal)    S(lipo)     H(rot)  DE(clash)    DE(int)     intcor
     16.83     -21.97       1.64        0.00     149.25       2.52       0.33       4.81       ----

> <Gold.Chemscore.Fitness>
16.8320

> <Gold.Chemscore.DG>
-21.9667

> <Gold.Chemscore.ZeroCoef>
-5.4800

> <Gold.Chemscore.Hbond>
1.6430

> <Gold.Chemscore.Metal>
0.0000

> <Gold.Chemscore.Lipo>
149.2509

> <Gold.Chemscore.Internal_Hbond>
0.0000

> <Gold.Chemscore.DEClash>
0.3264

> <Gold.Chemscore.DEInternal>
4.8083

> <Gold.Chemscore.Rot>
2.5247

> <Gold.Chemscore.Internal.Correction>
   9.000000E+99

> <Gold.Chemscore.Hbonds>
donor molecule, donor type, donor heavy atom, donor atom, acceptor molecule, acceptor atom, score
      L1  H    35    61       P1  7948  0.27
      P1  H  7989  7998       L1    30  0.01
      P1  H  7997  8010       L1    23  0.85
      P1  H 10752 10765       L1    32  0.22

> <Gold.Chemscore.Hbond.Weighted>
-5.4876

> <Gold.Chemscore.Metal.Weighted>
-0.0000

> <Gold.Chemscore.Lipo.Weighted>
-17.4624

> <Gold.Chemscore.Internal_Hbond.Weighted>
0.0000

> <Gold.Chemscore.DEClash.Weighted>
0.3264

> <Gold.Chemscore.DEInternal.Weighted>
4.8083

> <Gold.Chemscore.Rot.Weighted>
6.4633

> <Gold.Chemscore.Internal.Correction.Weighted>
   9.000000E+99

> <Gold.Protein.RotatedTorsions>
[ 6907 6896 6895 6894 ] final  139.05 input  -60.11 | X-H torsion
[ 7974 7965 7964 7962 ] final  -60.71 input  175.53 | X-H torsion
[ 8008 7997 7996 7995 ] final   39.01 input   59.86 | X-H torsion
[ 10167 10162 10161 10158 ] final   95.00 input  -65.29 | X-H torsion
[ 10718 10713 10712 10709 ] final   98.36 input   66.30 | X-H torsion
[ 10763 10752 10751 10750 ] final  161.58 input  -60.55 | X-H torsion
[ 11005 11000 10999 10996 ] final -149.47 input  -57.11 | X-H torsion

> <Gold.Protein.ActiveResidues>
 VAL166  LYS551  ARG553  GLY616  TRP617  ASP618  TYR619  PRO620  LYS621  CYS622 
 ASP623  PHE694  ASN695  SER759  ASP760  ASP761  ALA762  ILE779  LEU786  VAL792 
 PHE793  MET794  SER795  GLU796  ALA797  LYS798  CYS799  TRP800  GLU811  SER814 

> <Gold.Protein.RotatedAtoms>
  152.2594  133.5284  159.5372 H   0  0  0  0  0  0  0  0  0  0  0  0  # atno 6907 bound_to 6896
  150.7120  134.0850  159.3920 H   0  0  0  0  0  0  0  0  0  0  0  0  # atno 6908 bound_to 6896
  151.8768  135.0469  160.0535 H   0  0  0  0  0  0  0  0  0  0  0  0  # atno 6909 bound_to 6896
  145.8123  140.8591  143.0176 H   0  0  0  0  0  0  0  0  0  0  0  0  # atno 7974 bound_to 7965
  155.2297  140.3337  155.4305 H   0  0  0  0  0  0  0  0  0  0  0  0  # atno 8008 bound_to 7997
  156.2300  140.1846  156.7313 H   0  0  0  0  0  0  0  0  0  0  0  0  # atno 8009 bound_to 7997
  154.5962  140.0630  156.9292 H   0  0  0  0  0  0  0  0  0  0  0  0  # atno 8010 bound_to 7997
  139.8030  144.6805  150.9739 H   0  0  0  0  0  0  0  0  0  0  0  0  # atno 10167 bound_to 10162
  157.6897  131.0638  150.4784 H   0  0  0  0  0  0  0  0  0  0  0  0  # atno 10718 bound_to 10713
  154.2652  135.2767  155.2761 H   0  0  0  0  0  0  0  0  0  0  0  0  # atno 10763 bound_to 10752
  154.5350  135.5719  153.6794 H   0  0  0  0  0  0  0  0  0  0  0  0  # atno 10764 bound_to 10752
  152.9955  135.6237  154.2804 H   0  0  0  0  0  0  0  0  0  0  0  0  # atno 10765 bound_to 10752
  140.7504  134.3413  157.5127 H   0  0  0  0  0  0  0  0  0  0  0  0  # atno 11005 bound_to 11000
  144.6756  140.0413  143.7481 LP  0  0  0  0  0  0  0  0  0  0  0  0  # atno 17320 bound_to 7965
  145.9764  139.2908  143.1068 LP  0  0  0  0  0  0  0  0  0  0  0  0  # atno 17321 bound_to 7965
  140.7820  143.4262  151.0765 LP  0  0  0  0  0  0  0  0  0  0  0  0  # atno 17342 bound_to 10162
  139.7933  143.8188  152.3154 LP  0  0  0  0  0  0  0  0  0  0  0  0  # atno 17343 bound_to 10162
  156.5118  130.4141  149.6297 LP  0  0  0  0  0  0  0  0  0  0  0  0  # atno 17370 bound_to 10713
  156.3234  130.7292  151.2209 LP  0  0  0  0  0  0  0  0  0  0  0  0  # atno 17371 bound_to 10713
  139.8788  134.9138  156.3093 LP  0  0  0  0  0  0  0  0  0  0  0  0  # atno 17394 bound_to 11000
  140.9756  133.7300  156.0597 LP  0  0  0  0  0  0  0  0  0  0  0  0  # atno 17395 bound_to 11000

$$$$
