AV-unprocessed.smi:2867|AV-procd|sdf|11025|dock10
  -GOLD-   2272015483D 1   1.00000     0.00000
 Structure written by MMmdl.
 39 41  0  0  0  0  0  0  0  0  2 V2000
  155.8240  138.4621  159.2994 C   0  0  0  0  0  0  0  0  0  0  0  0
  156.0711  139.8050  158.9208 O   0  0  0  0  0  0  0  0  0  0  0  0
  156.3078  140.6470  160.0351 C   0  0  0  0  0  0  0  0  0  0  0  0
  155.0618  140.6488  160.9282 C   0  0  0  0  0  0  0  0  0  0  0  0
  155.0785  141.7652  161.8592 N   0  0  0  0  0  0  0  0  0  0  0  0
  154.3065  142.8809  161.8308 C   0  0  0  0  0  0  0  0  0  0  0  0
  153.3040  143.1518  160.8109 C   0  0  0  0  0  0  0  0  0  0  0  0
  153.5362  142.7861  159.4681 C   0  0  0  0  0  0  0  0  0  0  0  0
  152.5613  143.0497  158.4863 C   0  0  0  0  0  0  0  0  0  0  0  0
  151.3545  143.6820  158.8438 C   0  0  0  0  0  0  0  0  0  0  0  0
  151.1232  144.0533  160.1829 C   0  0  0  0  0  0  0  0  0  0  0  0
  149.9631  144.6615  160.5259 F   0  0  0  0  0  0  0  0  0  0  0  0
  152.0977  143.7909  161.1651 C   0  0  0  0  0  0  0  0  0  0  0  0
  154.5141  143.7366  162.8336 N   0  0  0  0  0  0  0  0  0  0  0  0
  155.5057  143.1218  163.5727 C   0  0  0  0  0  0  0  0  0  0  0  0
  156.1531  143.5295  164.7596 C   0  0  0  0  0  0  0  0  0  0  0  0
  157.1435  142.7095  165.3414 C   0  0  0  0  0  0  0  0  0  0  0  0
  157.9492  143.2407  166.8499 S   0  0  0  0  0  0  0  0  0  0  0  0
  157.1233  142.2944  167.8618 N   0  5  0  0  0  0  0  0  0  0  0  0
  159.3637  142.8538  166.7322 O   0  0  0  0  0  0  0  0  0  0  0  0
  157.6304  144.6676  167.0143 O   0  0  0  0  0  0  0  0  0  0  0  0
  157.5042  141.4792  164.7511 C   0  0  0  0  0  0  0  0  0  0  0  0
  156.8696  141.0603  163.5661 C   0  0  0  0  0  0  0  0  0  0  0  0
  155.8812  141.8802  162.9885 C   0  0  0  0  0  0  0  0  0  0  0  0
  155.6402  137.8586  158.4107 H   0  0  0  0  0  0  0  0  0  0  0  0
  154.9474  138.3879  159.9442 H   0  0  0  0  0  0  0  0  0  0  0  0
  156.6812  138.0368  159.8233 H   0  0  0  0  0  0  0  0  0  0  0  0
  157.1737  140.2899  160.5952 H   0  0  0  0  0  0  0  0  0  0  0  0
  156.5280  141.6612  159.6973 H   0  0  0  0  0  0  0  0  0  0  0  0
  154.1616  140.7163  160.3164 H   0  0  0  0  0  0  0  0  0  0  0  0
  154.9862  139.7139  161.4827 H   0  0  0  0  0  0  0  0  0  0  0  0
  154.4612  142.3016  159.1904 H   0  0  0  0  0  0  0  0  0  0  0  0
  152.7389  142.7672  157.4590 H   0  0  0  0  0  0  0  0  0  0  0  0
  150.6070  143.8831  158.0907 H   0  0  0  0  0  0  0  0  0  0  0  0
  151.9170  144.0761  162.1914 H   0  0  0  0  0  0  0  0  0  0  0  0
  155.8834  144.4659  165.2250 H   0  0  0  0  0  0  0  0  0  0  0  0
  157.7555  142.0256  168.6247 H   0  0  0  0  0  0  0  0  0  0  0  0
  158.2597  140.8561  165.2065 H   0  0  0  0  0  0  0  0  0  0  0  0
  157.1373  140.1188  163.1106 H   0  0  0  0  0  0  0  0  0  0  0  0
  1  2  1  0  0  0  0
  1 25  1  0  0  0  0
  1 26  1  0  0  0  0
  1 27  1  0  0  0  0
  2  3  1  0  0  0  0
  3  4  1  0  0  0  0
  3 28  1  0  0  0  0
  3 29  1  0  0  0  0
  4  5  1  0  0  0  0
  4 30  1  0  0  0  0
  4 31  1  0  0  0  0
  5 24  1  0  0  0  0
  5  6  1  0  0  0  0
  6  7  1  0  0  0  0
  6 14  2  0  0  0  0
  7 13  1  0  0  0  0
  7  8  2  0  0  0  0
  8  9  1  0  0  0  0
  8 32  1  0  0  0  0
  9 10  2  0  0  0  0
  9 33  1  0  0  0  0
 10 11  1  0  0  0  0
 10 34  1  0  0  0  0
 11 12  1  0  0  0  0
 11 13  2  0  0  0  0
 13 35  1  0  0  0  0
 14 15  1  0  0  0  0
 15 24  2  0  0  0  0
 15 16  1  0  0  0  0
 16 17  2  0  0  0  0
 16 36  1  0  0  0  0
 17 18  1  0  0  0  0
 17 22  1  0  0  0  0
 18 19  1  0  0  0  0
 18 20  2  0  0  0  0
 18 21  2  0  0  0  0
 19 37  1  0  0  0  0
 22 23  2  0  0  0  0
 22 38  1  0  0  0  0
 23 24  1  0  0  0  0
 23 39  1  0  0  0  0
M  CHG  1  19  -1
M  END
> <s_m_source_file>
AV-unprocessed.smi

> <i_m_source_file_index>
2867

> <i_lp_mmshare_version>
43012

> <i_f3d_flags>
0

> <s_epik_input>
W05IMl1TKD1PKSg9TyljKFtjSF0xKVtjSF1bY0hdYyhjMTIpbihbQ0gyXVtDSDJdT1tDSDNdKWMobjIpLWMzW2NIXVtjSF1bY0hdYyhGKVtjSF0z

> <s_epik_cmdline>
J2VwaWtfcHl0aG9uJywgJy1waCcsICc3LjAnLCAnLXRuJywgJzgnLCAnLW1hJywgJzIwMCcsICctbWV0YWxfYmluZGluZycsICctaW1hZScsICc8aW5maWxlLm1hZT4nLCAnLW9tYWUnLCAnPG91dGZpbGUubWFlPic=

> <r_epik_Ionization_Penalty>
4.13732

> <r_epik_Ionization_Penalty_Charging>
3.73366

> <r_epik_Ionization_Penalty_Neutral>
0.403663

> <r_epik_State_Penalty>
3.79183

> <r_epik_Charging_Adjusted_Penalty>
7.52549

> <i_epik_Tot_Q>
-1

> <i_epik_Tot_abs_Q>
1

> <r_epik_Metal_State_Penalty>
0.634538

> <b_epik_Metal_Only>
1

> <s_lp_Force_Field>
OPLS_2005

> <r_lp_Energy>
13.7357

> <b_lp_Chiralities_Consistent>
1

> <s_lp_Variant>
AV-unprocessed.smi:2867-3

> <Gold.Version>
5.8.1

> <Gold.Id.Protein>
6NUR|6NUR_protein|mol2

> <Gold.PLP.Fitness>
49.9924

> <Gold.PLP.PLP>
-47.3846

> <Gold.PLP.part.hbond>
-3.6715

> <Gold.PLP.part.metal>
0.0000

> <Gold.PLP.part.buried>
0.2032

> <Gold.PLP.part.nonpolar>
-41.7470

> <Gold.PLP.part.repulsive>
0.0679

> <Gold.PLP.ligand.clash>
0.0000

> <Gold.PLP.ligand.torsion>
1.8002

> <Gold.PLP.Chemscore.Hbond>
1.0000

> <Gold.PLP.Chemscore.CHOScore>
0.0000

> <Gold.PLP.Chemscore.Metal>
0.0000

> <Gold.Chemscore.Hbonds>
donor molecule, donor type, donor heavy atom, donor atom, acceptor molecule, acceptor atom, score
      P1  H  7997  8010       L1     2  1.00

> <Gold.PLP.Chemscore.Internal.Correction>
3.2082

> <Gold.Rescore>
     Score         DG    S(hbond)    S(metal)    S(lipo)     H(rot)  DE(clash)    DE(int)     intcor
     15.97     -19.20       0.99        0.00     120.47       1.43       0.30       2.93       ----

> <Gold.Chemscore.Fitness>
15.9718

> <Gold.Chemscore.DG>
-19.2036

> <Gold.Chemscore.ZeroCoef>
-5.4800

> <Gold.Chemscore.Hbond>
0.9856

> <Gold.Chemscore.Metal>
0.0000

> <Gold.Chemscore.Lipo>
120.4654

> <Gold.Chemscore.Internal_Hbond>
0.0000

> <Gold.Chemscore.DEClash>
0.3043

> <Gold.Chemscore.DEInternal>
2.9276

> <Gold.Chemscore.Rot>
1.4308

> <Gold.Chemscore.Internal.Correction>
   9.000000E+99

> <Gold.Chemscore.Hbonds>
donor molecule, donor type, donor heavy atom, donor atom, acceptor molecule, acceptor atom, score
      P1  H  7997  8010       L1     2  0.70

> <Gold.Chemscore.Hbond.Weighted>
-3.2920

> <Gold.Chemscore.Metal.Weighted>
-0.0000

> <Gold.Chemscore.Lipo.Weighted>
-14.0944

> <Gold.Chemscore.Internal_Hbond.Weighted>
0.0000

> <Gold.Chemscore.DEClash.Weighted>
0.3043

> <Gold.Chemscore.DEInternal.Weighted>
2.9276

> <Gold.Chemscore.Rot.Weighted>
3.6628

> <Gold.Chemscore.Internal.Correction.Weighted>
   9.000000E+99

> <Gold.Protein.RotatedTorsions>
[ 6907 6896 6895 6894 ] final -100.46 input  -60.11 | X-H torsion
[ 7974 7965 7964 7962 ] final   49.80 input  175.53 | X-H torsion
[ 8008 7997 7996 7995 ] final  -24.16 input   59.86 | X-H torsion
[ 10167 10162 10161 10158 ] final  134.66 input  -65.29 | X-H torsion
[ 10718 10713 10712 10709 ] final  -91.69 input   66.30 | X-H torsion
[ 10763 10752 10751 10750 ] final   26.13 input  -60.55 | X-H torsion
[ 11005 11000 10999 10996 ] final  160.79 input  -57.11 | X-H torsion

> <Gold.Protein.ActiveResidues>
 VAL166  LYS551  ARG553  GLY616  TRP617  ASP618  TYR619  PRO620  LYS621  CYS622 
 ASP623  PHE694  ASN695  SER759  ASP760  ASP761  ALA762  ILE779  LEU786  VAL792 
 PHE793  MET794  SER795  GLU796  ALA797  LYS798  CYS799  TRP800  GLU811  SER814 

> <Gold.Protein.RotatedAtoms>
  150.7117  134.0883  159.3922 H   0  0  0  0  0  0  0  0  0  0  0  0  # atno 6907 bound_to 6896
  151.8868  135.0430  160.0503 H   0  0  0  0  0  0  0  0  0  0  0  0  # atno 6908 bound_to 6896
  152.2523  133.5190  159.5369 H   0  0  0  0  0  0  0  0  0  0  0  0  # atno 6909 bound_to 6896
  146.0074  139.4505  142.9977 H   0  0  0  0  0  0  0  0  0  0  0  0  # atno 7974 bound_to 7965
  154.4545  140.1961  156.0421 H   0  0  0  0  0  0  0  0  0  0  0  0  # atno 8008 bound_to 7997
  156.0717  140.3283  155.7556 H   0  0  0  0  0  0  0  0  0  0  0  0  # atno 8009 bound_to 7997
  155.5253  140.0573  157.2890 H   0  0  0  0  0  0  0  0  0  0  0  0  # atno 8010 bound_to 7997
  139.5247  144.6556  151.5172 H   0  0  0  0  0  0  0  0  0  0  0  0  # atno 10167 bound_to 10162
  155.9996  130.4958  150.5512 H   0  0  0  0  0  0  0  0  0  0  0  0  # atno 10718 bound_to 10713
  153.0643  135.6567  154.0389 H   0  0  0  0  0  0  0  0  0  0  0  0  # atno 10763 bound_to 10752
  154.0050  135.2933  155.3400 H   0  0  0  0  0  0  0  0  0  0  0  0  # atno 10764 bound_to 10752
  154.6995  135.5250  153.8575 H   0  0  0  0  0  0  0  0  0  0  0  0  # atno 10765 bound_to 10752
  140.2094  134.8279  157.3104 H   0  0  0  0  0  0  0  0  0  0  0  0  # atno 11005 bound_to 11000
  145.7395  141.0013  143.1309 LP  0  0  0  0  0  0  0  0  0  0  0  0  # atno 17320 bound_to 7965
  144.6940  139.9082  143.7462 LP  0  0  0  0  0  0  0  0  0  0  0  0  # atno 17321 bound_to 7965
  140.6380  143.8945  150.6665 LP  0  0  0  0  0  0  0  0  0  0  0  0  # atno 17342 bound_to 10162
  140.2271  143.3764  152.1596 LP  0  0  0  0  0  0  0  0  0  0  0  0  # atno 17343 bound_to 10162
  157.3435  131.0721  151.1770 LP  0  0  0  0  0  0  0  0  0  0  0  0  # atno 17370 bound_to 10713
  157.2610  130.6659  149.5974 LP  0  0  0  0  0  0  0  0  0  0  0  0  # atno 17371 bound_to 10713
  140.1968  134.4304  155.7685 LP  0  0  0  0  0  0  0  0  0  0  0  0  # atno 17394 bound_to 11000
  141.2226  133.7053  156.8117 LP  0  0  0  0  0  0  0  0  0  0  0  0  # atno 17395 bound_to 11000

$$$$
