AV-unprocessed.smi:1679|AV-procd|sdf|6732|dock6
  -GOLD-   22720 7473D 1   1.00000     0.00000
 Structure written by MMmdl.
 45 46  0  0  0  0  0  0  0  0  1 V2000
  153.2681  141.4861  161.0268 C   0  0  0  0  0  0  0  0  0  0  0  0
  152.3595  142.6410  160.5749 C   0  0  1  0  0  0  0  0  0  0  0  0
  152.4604  143.8266  161.5550 C   0  0  0  0  0  0  0  0  0  0  0  0
  151.5572  144.9933  161.1308 C   0  0  0  0  0  0  0  0  0  0  0  0
  151.8901  145.4519  159.7055 C   0  0  0  0  0  0  0  0  0  0  0  0
  151.7911  144.2848  158.7139 C   0  0  0  0  0  0  0  0  0  0  0  0
  152.6779  143.0891  159.1296 C   0  0  2  0  0  0  0  0  0  0  0  0
  152.4075  141.9836  158.2772 O   0  0  0  0  0  0  0  0  0  0  0  0
  151.0479  141.5707  158.2360 C   0  0  0  0  0  0  0  0  0  0  0  0
  150.8914  140.5066  157.1366 C   0  0  0  0  0  0  0  0  0  0  0  0
  149.7739  140.8121  156.2488 N   0  0  0  0  0  0  0  0  0  0  0  0
  149.6991  140.4919  154.9480 C   0  0  0  0  0  0  0  0  0  0  0  0
  150.5338  139.7970  154.3693 O   0  0  0  0  0  0  0  0  0  0  0  0
  148.5040  141.0623  154.1783 C   0  0  0  0  0  0  0  0  0  0  0  0
  147.6021  139.9851  153.7477 N   0  0  0  0  0  0  0  0  0  0  0  0
  147.3071  139.8279  152.4004 C   0  0  0  0  0  0  0  0  0  0  0  0
  146.5186  138.8383  151.9184 C   0  0  0  0  0  0  0  0  0  0  0  0
  145.9252  137.8606  152.8238 C   0  0  0  0  0  0  0  0  0  0  0  0
  145.2050  136.9248  152.4837 O   0  0  0  0  0  0  0  0  0  0  0  0
  146.2437  138.0522  154.1708 N   0  0  0  0  0  0  0  0  0  0  0  0
  147.0562  139.0696  154.6743 C   0  0  0  0  0  0  0  0  0  0  0  0
  147.2787  139.1400  155.8821 O   0  0  0  0  0  0  0  0  0  0  0  0
  145.8581  137.3975  154.8357 H   0  0  0  0  0  0  0  0  0  0  0  0
  154.3177  141.7804  161.0161 H   0  0  0  0  0  0  0  0  0  0  0  0
  153.1600  140.6168  160.3777 H   0  0  0  0  0  0  0  0  0  0  0  0
  153.0225  141.1676  162.0401 H   0  0  0  0  0  0  0  0  0  0  0  0
  151.3299  142.2800  160.5965 H   0  0  0  0  0  0  0  0  0  0  0  0
  152.1862  143.5039  162.5600 H   0  0  0  0  0  0  0  0  0  0  0  0
  153.4938  144.1708  161.6133 H   0  0  0  0  0  0  0  0  0  0  0  0
  150.5119  144.6872  161.1845 H   0  0  0  0  0  0  0  0  0  0  0  0
  151.6724  145.8256  161.8255 H   0  0  0  0  0  0  0  0  0  0  0  0
  151.2119  146.2511  159.4048 H   0  0  0  0  0  0  0  0  0  0  0  0
  152.8967  145.8710  159.6792 H   0  0  0  0  0  0  0  0  0  0  0  0
  150.7559  143.9549  158.6524 H   0  0  0  0  0  0  0  0  0  0  0  0
  152.0535  144.6438  157.7195 H   0  0  0  0  0  0  0  0  0  0  0  0
  153.7323  143.3650  159.0663 H   0  0  0  0  0  0  0  0  0  0  0  0
  150.7220  141.1592  159.1902 H   0  0  0  0  0  0  0  0  0  0  0  0
  150.4096  142.4308  158.0303 H   0  0  0  0  0  0  0  0  0  0  0  0
  151.8130  140.4109  156.5610 H   0  0  0  0  0  0  0  0  0  0  0  0
  150.7009  139.5344  157.5915 H   0  0  0  0  0  0  0  0  0  0  0  0
  149.0344  141.3806  156.6354 H   0  0  0  0  0  0  0  0  0  0  0  0
  147.9825  141.7867  154.8066 H   0  0  0  0  0  0  0  0  0  0  0  0
  148.8525  141.6338  153.3160 H   0  0  0  0  0  0  0  0  0  0  0  0
  147.7331  140.5243  151.6919 H   0  0  0  0  0  0  0  0  0  0  0  0
  146.3305  138.7667  150.8568 H   0  0  0  0  0  0  0  0  0  0  0  0
  1  2  1  0  0  0  0
  1 24  1  0  0  0  0
  1 25  1  0  0  0  0
  1 26  1  0  0  0  0
  2  7  1  0  0  0  0
  2  3  1  0  0  0  0
  2 27  1  0  0  0  0
  3  4  1  0  0  0  0
  3 28  1  0  0  0  0
  3 29  1  0  0  0  0
  4  5  1  0  0  0  0
  4 30  1  0  0  0  0
  4 31  1  0  0  0  0
  5  6  1  0  0  0  0
  5 32  1  0  0  0  0
  5 33  1  0  0  0  0
  6  7  1  0  0  0  0
  6 34  1  0  0  0  0
  6 35  1  0  0  0  0
  7  8  1  0  0  0  0
  7 36  1  0  0  0  0
  8  9  1  0  0  0  0
  9 10  1  0  0  0  0
  9 37  1  0  0  0  0
  9 38  1  0  0  0  0
 10 11  1  0  0  0  0
 10 39  1  0  0  0  0
 10 40  1  0  0  0  0
 11 12  1  0  0  0  0
 11 41  1  0  0  0  0
 12 13  2  0  0  0  0
 12 14  1  0  0  0  0
 14 15  1  0  0  0  0
 14 42  1  0  0  0  0
 14 43  1  0  0  0  0
 15 21  1  0  0  0  0
 15 16  1  0  0  0  0
 16 17  2  0  0  0  0
 16 44  1  0  0  0  0
 17 18  1  0  0  0  0
 17 45  1  0  0  0  0
 18 19  2  0  0  0  0
 18 20  1  0  0  0  0
 20 23  1  0  0  0  0
 20 21  1  0  0  0  0
 21 22  2  0  0  0  0
M  END
> <s_m_source_file>
AV-unprocessed.smi

> <i_m_source_file_index>
1679

> <i_lp_mmshare_version>
43012

> <i_f3d_flags>
0

> <s_epik_input>
W0NIM11bQ0BASF0xW0NIMl1bQ0gyXVtDSDJdW0NIMl1bQ0BIXTFPW0NIMl1bQ0gyXVtOSF1DKD1PKVtDSDJdbjJbY0hdW2NIXWMoPU8pW25IXWMyPU8=

> <s_epik_cmdline>
J2VwaWtfcHl0aG9uJywgJy1waCcsICc3LjAnLCAnLXRuJywgJzgnLCAnLW1hJywgJzIwMCcsICctbWV0YWxfYmluZGluZycsICctaW1hZScsICc8aW5maWxlLm1hZT4nLCAnLW9tYWUnLCAnPG91dGZpbGUubWFlPic=

> <r_lp_tautomer_probability>
0.999537

> <r_epik_Ionization_Penalty>
0.0033132

> <r_epik_Ionization_Penalty_Charging>
0.00331317

> <r_epik_Ionization_Penalty_Neutral>
2.78599e-08

> <r_epik_State_Penalty>
0.002342

> <r_epik_Charging_Adjusted_Penalty>
0.00565517

> <i_epik_Tot_Q>
0

> <i_epik_Tot_abs_Q>
0

> <r_epik_Metal_State_Penalty>
0.365595

> <b_epik_Metal_Only>
0

> <s_lp_Force_Field>
OPLS_2005

> <r_lp_Energy>
10.1003

> <b_lp_Chiralities_Consistent>
1

> <s_lp_Variant>
AV-unprocessed.smi:1679-4

> <Gold.Version>
5.8.1

> <Gold.Id.Protein>
6NUR|6NUR_protein|mol2

> <Gold.PLP.Fitness>
46.8076

> <Gold.PLP.PLP>
-42.9520

> <Gold.PLP.part.hbond>
-1.0000

> <Gold.PLP.part.metal>
0.0000

> <Gold.PLP.part.buried>
1.1602

> <Gold.PLP.part.nonpolar>
-44.0890

> <Gold.PLP.part.repulsive>
0.3561

> <Gold.PLP.ligand.clash>
0.0000

> <Gold.PLP.ligand.torsion>
0.6152

> <Gold.PLP.Chemscore.Hbond>
1.0000

> <Gold.PLP.Chemscore.CHOScore>
0.6834

> <Gold.PLP.Chemscore.Metal>
0.0000

> <Gold.Chemscore.Hbonds>
donor molecule, donor type, donor heavy atom, donor atom, acceptor molecule, acceptor atom, score
      P1  H  7989  7998       L1    13  1.00
      L1  C    16    44       P1  7957  0.58

> <Gold.PLP.Chemscore.Internal.Correction>
0.0358

> <Gold.Rescore>
     Score         DG    S(hbond)    S(metal)    S(lipo)     H(rot)  DE(clash)    DE(int)     intcor
     12.86     -16.38       0.88        0.00     123.11       2.52       1.68       1.83       ----

> <Gold.Chemscore.Fitness>
12.8645

> <Gold.Chemscore.DG>
-16.3763

> <Gold.Chemscore.ZeroCoef>
-5.4800

> <Gold.Chemscore.Hbond>
0.8800

> <Gold.Chemscore.Metal>
0.0000

> <Gold.Chemscore.Lipo>
123.1131

> <Gold.Chemscore.Internal_Hbond>
0.0000

> <Gold.Chemscore.DEClash>
1.6810

> <Gold.Chemscore.DEInternal>
1.8308

> <Gold.Chemscore.Rot>
2.5185

> <Gold.Chemscore.Internal.Correction>
   9.000000E+99

> <Gold.Chemscore.Hbonds>
donor molecule, donor type, donor heavy atom, donor atom, acceptor molecule, acceptor atom, score
      P1  H  7989  7998       L1    13  0.65

> <Gold.Chemscore.Hbond.Weighted>
-2.9393

> <Gold.Chemscore.Metal.Weighted>
-0.0000

> <Gold.Chemscore.Lipo.Weighted>
-14.4042

> <Gold.Chemscore.Internal_Hbond.Weighted>
0.0000

> <Gold.Chemscore.DEClash.Weighted>
1.6810

> <Gold.Chemscore.DEInternal.Weighted>
1.8308

> <Gold.Chemscore.Rot.Weighted>
6.4472

> <Gold.Chemscore.Internal.Correction.Weighted>
   9.000000E+99

> <Gold.Protein.RotatedTorsions>
[ 6907 6896 6895 6894 ] final -107.64 input  -60.11 | X-H torsion
[ 7974 7965 7964 7962 ] final  -51.95 input  175.53 | X-H torsion
[ 8008 7997 7996 7995 ] final  178.78 input   59.86 | X-H torsion
[ 10167 10162 10161 10158 ] final -166.55 input  -65.29 | X-H torsion
[ 10718 10713 10712 10709 ] final  -47.92 input   66.30 | X-H torsion
[ 10763 10752 10751 10750 ] final    2.78 input  -60.55 | X-H torsion
[ 11005 11000 10999 10996 ] final    6.19 input  -57.11 | X-H torsion

> <Gold.Protein.ActiveResidues>
 VAL166  LYS551  ARG553  GLY616  TRP617  ASP618  TYR619  PRO620  LYS621  CYS622 
 ASP623  PHE694  ASN695  SER759  ASP760  ASP761  ALA762  ILE779  LEU786  VAL792 
 PHE793  MET794  SER795  GLU796  ALA797  LYS798  CYS799  TRP800  GLU811  SER814 

> <Gold.Protein.RotatedAtoms>
  150.7455  133.9796  159.3571 H   0  0  0  0  0  0  0  0  0  0  0  0  # atno 6907 bound_to 6896
  151.7736  135.0778  160.0373 H   0  0  0  0  0  0  0  0  0  0  0  0  # atno 6908 bound_to 6896
  152.3322  133.5934  159.5853 H   0  0  0  0  0  0  0  0  0  0  0  0  # atno 6909 bound_to 6896
  145.9133  140.7896  142.9684 H   0  0  0  0  0  0  0  0  0  0  0  0  # atno 7974 bound_to 7965
  156.0508  140.1325  157.0052 H   0  0  0  0  0  0  0  0  0  0  0  0  # atno 8008 bound_to 7997
  154.4434  140.1011  156.6444 H   0  0  0  0  0  0  0  0  0  0  0  0  # atno 8009 bound_to 7997
  155.5526  140.3463  155.4474 H   0  0  0  0  0  0  0  0  0  0  0  0  # atno 8010 bound_to 7997
  139.6108  144.0819  152.1839 H   0  0  0  0  0  0  0  0  0  0  0  0  # atno 10167 bound_to 10162
  156.2038  130.4157  149.9205 H   0  0  0  0  0  0  0  0  0  0  0  0  # atno 10718 bound_to 10713
  153.2914  135.6949  153.7289 H   0  0  0  0  0  0  0  0  0  0  0  0  # atno 10763 bound_to 10752
  153.6239  135.3422  155.3020 H   0  0  0  0  0  0  0  0  0  0  0  0  # atno 10764 bound_to 10752
  154.8525  135.4393  154.1998 H   0  0  0  0  0  0  0  0  0  0  0  0  # atno 10765 bound_to 10752
  140.5623  134.0181  155.7976 H   0  0  0  0  0  0  0  0  0  0  0  0  # atno 11005 bound_to 11000
  144.6745  140.1860  143.7401 LP  0  0  0  0  0  0  0  0  0  0  0  0  # atno 17320 bound_to 7965
  145.8644  139.2239  143.1698 LP  0  0  0  0  0  0  0  0  0  0  0  0  # atno 17321 bound_to 7965
  140.0437  144.5987  150.7390 LP  0  0  0  0  0  0  0  0  0  0  0  0  # atno 17342 bound_to 10162
  140.7317  143.2697  151.3927 LP  0  0  0  0  0  0  0  0  0  0  0  0  # atno 17343 bound_to 10162
  156.6906  130.8894  151.3587 LP  0  0  0  0  0  0  0  0  0  0  0  0  # atno 17370 bound_to 10713
  157.7001  130.9323  150.0759 LP  0  0  0  0  0  0  0  0  0  0  0  0  # atno 17371 bound_to 10713
  141.1107  133.9621  157.2915 LP  0  0  0  0  0  0  0  0  0  0  0  0  # atno 17394 bound_to 11000
  139.9402  135.0192  156.8684 LP  0  0  0  0  0  0  0  0  0  0  0  0  # atno 17395 bound_to 11000

$$$$
