AV-unprocessed.smi:311|AV-procd|sdf|2304|dock8
  -GOLD-   2262022203D 1   1.00000     0.00000
 Structure written by MMmdl.
 44 46  0  0  0  0  0  0  0  0  2 V2000
  150.7453  135.9275  154.8034 C   0  0  0  0  0  0  0  0  0  0  0  0
  150.3165  134.8096  155.7103 C   0  0  0  0  0  0  0  0  0  0  0  0
  150.2894  135.0033  157.0178 N   0  0  0  0  0  0  0  0  0  0  0  0
  149.8452  133.8001  157.5743 O   0  0  0  0  0  0  0  0  0  0  0  0
  149.6141  132.9201  156.5674 C   0  0  0  0  0  0  0  0  0  0  0  0
  149.1196  131.5700  156.9632 C   0  0  0  0  0  0  0  0  0  0  0  0
  149.8922  133.4958  155.3579 C   0  0  0  0  0  0  0  0  0  0  0  0
  149.7687  132.9023  153.9773 C   0  0  0  0  0  0  0  0  0  0  0  0
  148.2948  132.8616  153.5772 C   0  0  0  0  0  0  0  0  0  0  0  0
  147.6246  131.8522  153.7927 O   0  0  0  0  0  0  0  0  0  0  0  0
  147.8136  133.9553  152.9663 N   0  0  0  0  0  0  0  0  0  0  0  0
  146.4775  134.0809  152.3939 C   0  0  1  0  0  0  0  0  0  0  0  0
  145.9247  135.5110  152.4637 C   0  0  0  0  0  0  0  0  0  0  0  0
  145.1505  135.7142  151.1456 C   0  0  0  0  0  0  0  0  0  0  0  0
  145.2224  134.4332  150.4049 N   0  3  2  0  0  0  0  0  0  0  0  0
  143.9892  133.6163  150.5785 C   0  0  0  0  0  0  0  0  0  0  0  0
  144.1497  132.1968  150.0183 C   0  0  0  0  0  0  0  0  0  0  0  0
  145.3334  131.4938  150.6878 C   0  0  0  0  0  0  0  0  0  0  0  0
  146.6070  132.3112  150.4521 C   0  0  0  0  0  0  0  0  0  0  0  0
  146.4667  133.7878  150.8880 C   0  0  2  0  0  0  0  0  0  0  0  0
  151.3452  135.5519  153.9744 H   0  0  0  0  0  0  0  0  0  0  0  0
  151.3442  136.6693  155.3331 H   0  0  0  0  0  0  0  0  0  0  0  0
  149.8796  136.4376  154.3807 H   0  0  0  0  0  0  0  0  0  0  0  0
  148.5155  131.1272  156.1710 H   0  0  0  0  0  0  0  0  0  0  0  0
  148.5040  131.6284  157.8613 H   0  0  0  0  0  0  0  0  0  0  0  0
  149.9542  130.8996  157.1684 H   0  0  0  0  0  0  0  0  0  0  0  0
  150.3242  133.4882  153.2441 H   0  0  0  0  0  0  0  0  0  0  0  0
  150.1784  131.8926  153.9321 H   0  0  0  0  0  0  0  0  0  0  0  0
  148.4412  134.7362  152.8386 H   0  0  0  0  0  0  0  0  0  0  0  0
  145.7772  133.4193  152.9069 H   0  0  0  0  0  0  0  0  0  0  0  0
  145.2824  135.6409  153.3353 H   0  0  0  0  0  0  0  0  0  0  0  0
  146.7277  136.2462  152.5364 H   0  0  0  0  0  0  0  0  0  0  0  0
  144.1235  136.0422  151.3137 H   0  0  0  0  0  0  0  0  0  0  0  0
  145.6402  136.4843  150.5483 H   0  0  0  0  0  0  0  0  0  0  0  0
  143.7269  133.5582  151.6361 H   0  0  0  0  0  0  0  0  0  0  0  0
  143.1594  134.1184  150.0798 H   0  0  0  0  0  0  0  0  0  0  0  0
  143.2357  131.6258  150.1846 H   0  0  0  0  0  0  0  0  0  0  0  0
  144.3000  132.2364  148.9386 H   0  0  0  0  0  0  0  0  0  0  0  0
  145.1499  131.3798  151.7568 H   0  0  0  0  0  0  0  0  0  0  0  0
  145.4532  130.4884  150.2827 H   0  0  0  0  0  0  0  0  0  0  0  0
  147.4548  131.8420  150.9509 H   0  0  0  0  0  0  0  0  0  0  0  0
  146.8411  132.2846  149.3870 H   0  0  0  0  0  0  0  0  0  0  0  0
  147.2962  134.3377  150.4381 H   0  0  0  0  0  0  0  0  0  0  0  0
  145.3190  134.6222  149.4173 H   0  0  0  0  0  0  0  0  0  0  0  0
  1  2  1  0  0  0  0
  1 21  1  0  0  0  0
  1 22  1  0  0  0  0
  1 23  1  0  0  0  0
  2  7  1  0  0  0  0
  2  3  2  0  0  0  0
  3  4  1  0  0  0  0
  4  5  1  0  0  0  0
  5  6  1  0  0  0  0
  5  7  2  0  0  0  0
  6 24  1  0  0  0  0
  6 25  1  0  0  0  0
  6 26  1  0  0  0  0
  7  8  1  0  0  0  0
  8  9  1  0  0  0  0
  8 27  1  0  0  0  0
  8 28  1  0  0  0  0
  9 10  2  0  0  0  0
  9 11  1  0  0  0  0
 11 12  1  0  0  0  0
 11 29  1  0  0  0  0
 12 20  1  0  0  0  0
 12 13  1  0  0  0  0
 12 30  1  0  0  0  0
 13 14  1  0  0  0  0
 13 31  1  0  0  0  0
 13 32  1  0  0  0  0
 14 15  1  0  0  0  0
 14 33  1  0  0  0  0
 14 34  1  0  0  0  0
 15 20  1  0  0  0  0
 15 16  1  0  0  0  0
 15 44  1  0  0  0  0
 16 17  1  0  0  0  0
 16 35  1  0  0  0  0
 16 36  1  0  0  0  0
 17 18  1  0  0  0  0
 17 37  1  0  0  0  0
 17 38  1  0  0  0  0
 18 19  1  0  0  0  0
 18 39  1  0  0  0  0
 18 40  1  0  0  0  0
 19 20  1  0  0  0  0
 19 41  1  0  0  0  0
 19 42  1  0  0  0  0
 20 43  1  0  0  0  0
M  CHG  1  15   1
M  END
> <s_m_source_file>
AV-unprocessed.smi

> <i_m_source_file_index>
311

> <i_lp_mmshare_version>
43012

> <i_f3d_flags>
0

> <s_epik_input>
W0NIM11jMW5vYyhbQ0gzXSljMVtDSDJdQyg9TylbTkhdW0NASF0oW0NIMl1bQ0gyXTIpW0NAQEhdKE4yMylbQ0gyXVtDSDJdW0NIMl1bQ0gyXTM=

> <s_epik_cmdline>
J2VwaWtfcHl0aG9uJywgJy1waCcsICc3LjAnLCAnLXRuJywgJzgnLCAnLW1hJywgJzIwMCcsICctbWV0YWxfYmluZGluZycsICctaW1hZScsICc8aW5maWxlLm1hZT4nLCAnLW9tYWUnLCAnPG91dGZpbGUubWFlPic=

> <r_epik_Ionization_Penalty>
0.00173669

> <r_epik_Ionization_Penalty_Charging>
0.0017366

> <r_epik_Ionization_Penalty_Neutral>
9.2145e-08

> <r_epik_State_Penalty>
0.00117499

> <r_epik_Charging_Adjusted_Penalty>
0.00291159

> <i_epik_Tot_Q>
1

> <i_epik_Tot_abs_Q>
1

> <r_epik_Metal_State_Penalty>
-0

> <b_epik_Metal_Only>
0

> <s_lp_Force_Field>
OPLS_2005

> <r_lp_Energy>
30.3664

> <b_lp_Chiralities_Consistent>
1

> <s_lp_Variant>
AV-unprocessed.smi:311-8

> <Gold.Version>
5.8.1

> <Gold.Id.Protein>
6NUR|6NUR_protein|mol2

> <Gold.PLP.Fitness>
40.4856

> <Gold.PLP.PLP>
-33.3439

> <Gold.PLP.part.hbond>
-3.0680

> <Gold.PLP.part.metal>
0.0000

> <Gold.PLP.part.buried>
-1.3585

> <Gold.PLP.part.nonpolar>
-28.1684

> <Gold.PLP.part.repulsive>
0.1037

> <Gold.PLP.ligand.clash>
0.0000

> <Gold.PLP.ligand.torsion>
0.9354

> <Gold.PLP.Chemscore.Hbond>
3.0000

> <Gold.PLP.Chemscore.CHOScore>
0.0000

> <Gold.PLP.Chemscore.Metal>
0.0000

> <Gold.Chemscore.Hbonds>
donor molecule, donor type, donor heavy atom, donor atom, acceptor molecule, acceptor atom, score
      L1  H    11    29       P1  7948  0.98
      L1  H    15    44       P1  7921  1.00
      P1  H  6896  6908       L1     4  1.00

> <Gold.PLP.Chemscore.Internal.Correction>
0.0125

> <Gold.Rescore>
     Score         DG    S(hbond)    S(metal)    S(lipo)     H(rot)  DE(clash)    DE(int)     intcor
     17.97     -20.15       2.36        0.00      87.72       1.36       1.26       0.92       ----

> <Gold.Chemscore.Fitness>
17.9672

> <Gold.Chemscore.DG>
-20.1461

> <Gold.Chemscore.ZeroCoef>
-5.4800

> <Gold.Chemscore.Hbond>
2.3582

> <Gold.Chemscore.Metal>
0.0000

> <Gold.Chemscore.Lipo>
87.7154

> <Gold.Chemscore.Internal_Hbond>
0.0000

> <Gold.Chemscore.DEClash>
1.2598

> <Gold.Chemscore.DEInternal>
0.9191

> <Gold.Chemscore.Rot>
1.3567

> <Gold.Chemscore.Internal.Correction>
   9.000000E+99

> <Gold.Chemscore.Hbonds>
donor molecule, donor type, donor heavy atom, donor atom, acceptor molecule, acceptor atom, score
      L1  H    11    29       P1  7948  0.37
      L1  H    15    44       P1  7921  0.97
      P1  H  6896  6908       L1     4  0.34

> <Gold.Chemscore.Hbond.Weighted>
-7.8765

> <Gold.Chemscore.Metal.Weighted>
-0.0000

> <Gold.Chemscore.Lipo.Weighted>
-10.2627

> <Gold.Chemscore.Internal_Hbond.Weighted>
0.0000

> <Gold.Chemscore.DEClash.Weighted>
1.2598

> <Gold.Chemscore.DEInternal.Weighted>
0.9191

> <Gold.Chemscore.Rot.Weighted>
3.4731

> <Gold.Chemscore.Internal.Correction.Weighted>
   9.000000E+99

> <Gold.Protein.RotatedTorsions>
[ 6907 6896 6895 6894 ] final  116.20 input  -60.11 | X-H torsion
[ 7974 7965 7964 7962 ] final -100.42 input  175.53 | X-H torsion
[ 8008 7997 7996 7995 ] final -126.83 input   59.86 | X-H torsion
[ 10167 10162 10161 10158 ] final  142.87 input  -65.29 | X-H torsion
[ 10718 10713 10712 10709 ] final   44.89 input   66.30 | X-H torsion
[ 10763 10752 10751 10750 ] final -178.29 input  -60.55 | X-H torsion
[ 11005 11000 10999 10996 ] final  -88.74 input  -57.11 | X-H torsion

> <Gold.Protein.ActiveResidues>
 VAL166  LYS551  ARG553  GLY616  TRP617  ASP618  TYR619  PRO620  LYS621  CYS622 
 ASP623  PHE694  ASN695  SER759  ASP760  ASP761  ALA762  ILE779  LEU786  VAL792 
 PHE793  MET794  SER795  GLU796  ALA797  LYS798  CYS799  TRP800  GLU811  SER814 

> <Gold.Protein.RotatedAtoms>
  152.4693  133.7993  159.6944 H   0  0  0  0  0  0  0  0  0  0  0  0  # atno 6907 bound_to 6896
  150.8674  133.7545  159.2979 H   0  0  0  0  0  0  0  0  0  0  0  0  # atno 6908 bound_to 6896
  151.5091  135.1067  159.9901 H   0  0  0  0  0  0  0  0  0  0  0  0  # atno 6909 bound_to 6896
  145.2948  140.9362  143.2857 H   0  0  0  0  0  0  0  0  0  0  0  0  # atno 7974 bound_to 7965
  155.2362  140.0427  157.2969 H   0  0  0  0  0  0  0  0  0  0  0  0  # atno 8008 bound_to 7997
  154.5857  140.2413  155.7961 H   0  0  0  0  0  0  0  0  0  0  0  0  # atno 8009 bound_to 7997
  156.2224  140.2965  155.9993 H   0  0  0  0  0  0  0  0  0  0  0  0  # atno 8010 bound_to 7997
  139.4983  144.6078  151.6339 H   0  0  0  0  0  0  0  0  0  0  0  0  # atno 10167 bound_to 10162
  157.4317  130.8028  149.7609 H   0  0  0  0  0  0  0  0  0  0  0  0  # atno 10718 bound_to 10713
  154.5496  135.2812  155.1021 H   0  0  0  0  0  0  0  0  0  0  0  0  # atno 10763 bound_to 10752
  154.2472  135.6346  153.5231 H   0  0  0  0  0  0  0  0  0  0  0  0  # atno 10764 bound_to 10752
  152.9999  135.5574  154.6058 H   0  0  0  0  0  0  0  0  0  0  0  0  # atno 10765 bound_to 10752
  141.1597  133.7588  156.9495 H   0  0  0  0  0  0  0  0  0  0  0  0  # atno 11005 bound_to 11000
  144.9143  139.4490  143.6572 LP  0  0  0  0  0  0  0  0  0  0  0  0  # atno 17320 bound_to 7965
  146.3172  139.7968  142.8974 LP  0  0  0  0  0  0  0  0  0  0  0  0  # atno 17321 bound_to 7965
  140.5745  144.0052  150.6234 LP  0  0  0  0  0  0  0  0  0  0  0  0  # atno 17342 bound_to 10162
  140.3181  143.3155  152.0812 LP  0  0  0  0  0  0  0  0  0  0  0  0  # atno 17343 bound_to 10162
  155.9915  130.3937  150.2980 LP  0  0  0  0  0  0  0  0  0  0  0  0  # atno 17370 bound_to 10713
  157.1137  131.0228  151.3037 LP  0  0  0  0  0  0  0  0  0  0  0  0  # atno 17371 bound_to 10713
  140.1267  134.9382  157.2280 LP  0  0  0  0  0  0  0  0  0  0  0  0  # atno 17394 bound_to 11000
  140.3004  134.3138  155.7291 LP  0  0  0  0  0  0  0  0  0  0  0  0  # atno 17395 bound_to 11000

$$$$
