AV-unprocessed.smi:1005|AV-procd|sdf|4383|dock4
  -GOLD-   22720 2303D 1   1.00000     0.00000
 Structure written by MMmdl.
 58 60  0  0  0  0  0  0  0  0  4 V2000
  152.0459  144.2557  160.7579 C   0  0  0  0  0  0  0  0  0  0  0  0
  151.9646  143.2184  159.6508 C   0  0  0  0  0  0  0  0  0  0  0  0
  151.1345  143.4825  158.5383 C   0  0  0  0  0  0  0  0  0  0  0  0
  151.0825  142.5155  157.5416 C   0  0  0  0  0  0  0  0  0  0  0  0
  150.3733  142.4807  156.3396 N   0  3  0  0  0  0  0  0  0  0  0  0
  150.6447  141.3182  155.6850 C   0  0  0  0  0  0  0  0  0  0  0  0
  151.5182  140.6083  156.4504 N   0  0  0  0  0  0  0  0  0  0  0  0
  152.1282  139.2932  156.2019 C   0  0  0  0  0  0  0  0  0  0  0  0
  151.6932  138.6751  154.8575 C   0  0  1  0  0  0  0  0  0  0  0  0
  152.5588  137.6075  154.5227 O   0  0  0  0  0  0  0  0  0  0  0  0
  150.2467  138.1421  154.9079 C   0  0  0  0  0  0  0  0  0  0  0  0
  150.0258  137.2109  156.0479 N   0  3  1  0  0  0  0  0  0  0  0  0
  148.6345  137.2112  156.5615 C   0  0  0  0  0  0  0  0  0  0  0  0
  147.7115  136.3688  155.6652 C   0  0  0  0  0  0  0  0  0  0  0  0
  148.2248  135.0452  155.5783 O   0  0  0  0  0  0  0  0  0  0  0  0
  149.5118  134.9961  154.9701 C   0  0  2  0  0  0  0  0  0  0  0  0
  149.9408  133.5183  154.8843 C   0  0  0  0  0  0  0  0  0  0  0  0
  148.9057  132.6434  154.2746 N   0  3  0  0  0  0  0  0  0  0  0  0
  149.2896  131.2149  154.3235 C   0  0  0  0  0  0  0  0  0  0  0  0
  148.5146  133.0516  152.9053 C   0  0  0  0  0  0  0  0  0  0  0  0
  150.5019  135.8208  155.8254 C   0  0  0  0  0  0  0  0  0  0  0  0
  151.8177  141.3163  157.6219 C   0  0  0  0  0  0  0  0  0  0  0  0
  152.6385  141.0401  158.7134 C   0  0  0  0  0  0  0  0  0  0  0  0
  152.7074  142.0126  159.7366 C   0  0  0  0  0  0  0  0  0  0  0  0
  153.5985  141.7399  160.9366 C   0  0  0  0  0  0  0  0  0  0  0  0
  151.4245  145.1244  160.5376 H   0  0  0  0  0  0  0  0  0  0  0  0
  153.0713  144.6039  160.8836 H   0  0  0  0  0  0  0  0  0  0  0  0
  151.7047  143.8335  161.7035 H   0  0  0  0  0  0  0  0  0  0  0  0
  150.5661  144.3984  158.4656 H   0  0  0  0  0  0  0  0  0  0  0  0
  150.2397  141.0162  154.7299 H   0  0  0  0  0  0  0  0  0  0  0  0
  153.2128  139.3795  156.2706 H   0  0  0  0  0  0  0  0  0  0  0  0
  151.8234  138.6426  157.0225 H   0  0  0  0  0  0  0  0  0  0  0  0
  151.7870  139.4369  154.0841 H   0  0  0  0  0  0  0  0  0  0  0  0
  153.4015  137.9617  154.2823 H   0  0  0  0  0  0  0  0  0  0  0  0
  149.5718  138.9953  154.9943 H   0  0  0  0  0  0  0  0  0  0  0  0
  149.9894  137.6515  153.9691 H   0  0  0  0  0  0  0  0  0  0  0  0
  148.6409  136.7889  157.5674 H   0  0  0  0  0  0  0  0  0  0  0  0
  148.2574  138.2295  156.6623 H   0  0  0  0  0  0  0  0  0  0  0  0
  146.7095  136.3296  156.0931 H   0  0  0  0  0  0  0  0  0  0  0  0
  147.6148  136.8067  154.6706 H   0  0  0  0  0  0  0  0  0  0  0  0
  149.4579  135.4222  153.9688 H   0  0  0  0  0  0  0  0  0  0  0  0
  150.8717  133.4216  154.3234 H   0  0  0  0  0  0  0  0  0  0  0  0
  150.1547  133.1668  155.8949 H   0  0  0  0  0  0  0  0  0  0  0  0
  150.1837  131.0298  153.7268 H   0  0  0  0  0  0  0  0  0  0  0  0
  148.4864  130.5849  153.9399 H   0  0  0  0  0  0  0  0  0  0  0  0
  149.4902  130.9010  155.3483 H   0  0  0  0  0  0  0  0  0  0  0  0
  149.3700  133.0269  152.2291 H   0  0  0  0  0  0  0  0  0  0  0  0
  148.0938  134.0559  152.8900 H   0  0  0  0  0  0  0  0  0  0  0  0
  147.7521  132.3800  152.5092 H   0  0  0  0  0  0  0  0  0  0  0  0
  151.4940  135.8146  155.3754 H   0  0  0  0  0  0  0  0  0  0  0  0
  150.6120  135.3501  156.8034 H   0  0  0  0  0  0  0  0  0  0  0  0
  153.2067  140.1250  158.7822 H   0  0  0  0  0  0  0  0  0  0  0  0
  154.1030  140.7773  160.8490 H   0  0  0  0  0  0  0  0  0  0  0  0
  153.0105  141.7253  161.8545 H   0  0  0  0  0  0  0  0  0  0  0  0
  154.3650  142.5097  161.0278 H   0  0  0  0  0  0  0  0  0  0  0  0
  148.0810  132.7266  154.8523 H   0  0  0  0  0  0  0  0  0  0  0  0
  150.5899  137.5903  156.7958 H   0  0  0  0  0  0  0  0  0  0  0  0
  149.7495  143.1972  155.9898 H   0  0  0  0  0  0  0  0  0  0  0  0
  1  2  1  0  0  0  0
  1 26  1  0  0  0  0
  1 27  1  0  0  0  0
  1 28  1  0  0  0  0
  2 24  1  0  0  0  0
  2  3  2  0  0  0  0
  3  4  1  0  0  0  0
  3 29  1  0  0  0  0
  4 22  2  0  0  0  0
  4  5  1  0  0  0  0
  5  6  2  0  0  0  0
  5 58  1  0  0  0  0
  6  7  1  0  0  0  0
  6 30  1  0  0  0  0
  7  8  1  0  0  0  0
  7 22  1  0  0  0  0
  8  9  1  0  0  0  0
  8 31  1  0  0  0  0
  8 32  1  0  0  0  0
  9 10  1  0  0  0  0
  9 11  1  0  0  0  0
  9 33  1  0  0  0  0
 10 34  1  0  0  0  0
 11 12  1  0  0  0  0
 11 35  1  0  0  0  0
 11 36  1  0  0  0  0
 12 21  1  0  0  0  0
 12 13  1  0  0  0  0
 12 57  1  0  0  0  0
 13 14  1  0  0  0  0
 13 37  1  0  0  0  0
 13 38  1  0  0  0  0
 14 15  1  0  0  0  0
 14 39  1  0  0  0  0
 14 40  1  0  0  0  0
 15 16  1  0  0  0  0
 16 17  1  0  0  0  0
 16 21  1  0  0  0  0
 16 41  1  0  0  0  0
 17 18  1  0  0  0  0
 17 42  1  0  0  0  0
 17 43  1  0  0  0  0
 18 19  1  0  0  0  0
 18 20  1  0  0  0  0
 18 56  1  0  0  0  0
 19 44  1  0  0  0  0
 19 45  1  0  0  0  0
 19 46  1  0  0  0  0
 20 47  1  0  0  0  0
 20 48  1  0  0  0  0
 20 49  1  0  0  0  0
 21 50  1  0  0  0  0
 21 51  1  0  0  0  0
 22 23  1  0  0  0  0
 23 24  2  0  0  0  0
 23 52  1  0  0  0  0
 24 25  1  0  0  0  0
 25 53  1  0  0  0  0
 25 54  1  0  0  0  0
 25 55  1  0  0  0  0
M  CHG  1   5   1
M  CHG  1  12   1
M  CHG  1  18   1
M  END
> <s_m_source_file>
AV-unprocessed.smi

> <i_m_source_file_index>
1005

> <i_lp_mmshare_version>
43012

> <i_f3d_flags>
0

> <s_epik_input>
W0NIM11jKFtjSF0xKWMoW0NIM10pW2NIXWMoYzEyKW4oW2NIXW4yKVtDSDJdW0NASF0oW09IXSlbQ0gyXU4zW0NIMl1bQ0gyXU9bQ0BIXShbQ0gyXTMpW0NIMl1OKFtDSDNdKVtDSDNd

> <s_epik_cmdline>
J2VwaWtfcHl0aG9uJywgJy1waCcsICc3LjAnLCAnLXRuJywgJzgnLCAnLW1hJywgJzIwMCcsICctbWV0YWxfYmluZGluZycsICctaW1hZScsICc8aW5maWxlLm1hZT4nLCAnLW9tYWUnLCAnPG91dGZpbGUubWFlPic=

> <r_epik_Ionization_Penalty>
2.30802

> <r_epik_Ionization_Penalty_Charging>
2.30798

> <r_epik_Ionization_Penalty_Neutral>
3.4851e-05

> <r_epik_State_Penalty>
2.52618

> <r_epik_Charging_Adjusted_Penalty>
4.83416

> <i_epik_Tot_Q>
3

> <i_epik_Tot_abs_Q>
3

> <r_epik_Metal_State_Penalty>
6.53149

> <b_epik_Metal_Only>
0

> <s_lp_Force_Field>
OPLS_2005

> <r_lp_Energy>
46.6994

> <b_lp_Chiralities_Consistent>
1

> <s_lp_Variant>
AV-unprocessed.smi:1005-22

> <Gold.Version>
5.8.1

> <Gold.Id.Protein>
6NUR|6NUR_protein|mol2

> <Gold.PLP.Fitness>
57.0674

> <Gold.PLP.PLP>
-50.0528

> <Gold.PLP.part.hbond>
-2.0000

> <Gold.PLP.part.metal>
0.0000

> <Gold.PLP.part.buried>
-7.5849

> <Gold.PLP.part.nonpolar>
-40.5131

> <Gold.PLP.part.repulsive>
0.1456

> <Gold.PLP.ligand.clash>
0.0000

> <Gold.PLP.ligand.torsion>
0.4702

> <Gold.PLP.Chemscore.Hbond>
2.5920

> <Gold.PLP.Chemscore.CHOScore>
0.0000

> <Gold.PLP.Chemscore.Metal>
0.0000

> <Gold.Chemscore.Hbonds>
donor molecule, donor type, donor heavy atom, donor atom, acceptor molecule, acceptor atom, score
      L1  H     5    58       P1  8028  2.00
      P1  H 10752 10765       L1    10  0.48

> <Gold.PLP.Chemscore.Internal.Correction>
0.1790

> <Gold.Rescore>
     Score         DG    S(hbond)    S(metal)    S(lipo)     H(rot)  DE(clash)    DE(int)     intcor
     17.53     -18.16       1.23        0.00     129.07       2.56       0.02       0.61       ----

> <Gold.Chemscore.Fitness>
17.5304

> <Gold.Chemscore.DG>
-18.1570

> <Gold.Chemscore.ZeroCoef>
-5.4800

> <Gold.Chemscore.Hbond>
1.2338

> <Gold.Chemscore.Metal>
0.0000

> <Gold.Chemscore.Lipo>
129.0686

> <Gold.Chemscore.Internal_Hbond>
0.0000

> <Gold.Chemscore.DEClash>
0.0197

> <Gold.Chemscore.DEInternal>
0.6070

> <Gold.Chemscore.Rot>
2.5566

> <Gold.Chemscore.Internal.Correction>
   9.000000E+99

> <Gold.Chemscore.Hbonds>
donor molecule, donor type, donor heavy atom, donor atom, acceptor molecule, acceptor atom, score
      L1  H     5    58       P1  8028  1.00
      P1  H 10752 10765       L1    10  0.08

> <Gold.Chemscore.Hbond.Weighted>
-4.1210

> <Gold.Chemscore.Metal.Weighted>
-0.0000

> <Gold.Chemscore.Lipo.Weighted>
-15.1010

> <Gold.Chemscore.Internal_Hbond.Weighted>
0.0000

> <Gold.Chemscore.DEClash.Weighted>
0.0197

> <Gold.Chemscore.DEInternal.Weighted>
0.6070

> <Gold.Chemscore.Rot.Weighted>
6.5450

> <Gold.Chemscore.Internal.Correction.Weighted>
   9.000000E+99

> <Gold.Protein.RotatedTorsions>
[ 6907 6896 6895 6894 ] final   -2.64 input  -60.11 | X-H torsion
[ 7974 7965 7964 7962 ] final   56.99 input  175.53 | X-H torsion
[ 8008 7997 7996 7995 ] final -171.63 input   59.86 | X-H torsion
[ 10167 10162 10161 10158 ] final  -95.31 input  -65.29 | X-H torsion
[ 10718 10713 10712 10709 ] final -110.91 input   66.30 | X-H torsion
[ 10763 10752 10751 10750 ] final  154.60 input  -60.55 | X-H torsion
[ 11005 11000 10999 10996 ] final  -53.49 input  -57.11 | X-H torsion

> <Gold.Protein.ActiveResidues>
 VAL166  LYS551  ARG553  GLY616  TRP617  ASP618  TYR619  PRO620  LYS621  CYS622 
 ASP623  PHE694  ASN695  SER759  ASP760  ASP761  ALA762  ILE779  LEU786  VAL792 
 PHE793  MET794  SER795  GLU796  ALA797  LYS798  CYS799  TRP800  GLU811  SER814 

> <Gold.Protein.RotatedAtoms>
  151.5266  135.1068  159.9891 H   0  0  0  0  0  0  0  0  0  0  0  0  # atno 6907 bound_to 6896
  152.4597  133.7792  159.6852 H   0  0  0  0  0  0  0  0  0  0  0  0  # atno 6908 bound_to 6896
  150.8554  133.7658  159.3035 H   0  0  0  0  0  0  0  0  0  0  0  0  # atno 6909 bound_to 6896
  145.9338  139.3830  143.0405 H   0  0  0  0  0  0  0  0  0  0  0  0  # atno 7974 bound_to 7965
  155.9341  140.1096  157.1109 H   0  0  0  0  0  0  0  0  0  0  0  0  # atno 8008 bound_to 7997
  154.4076  140.1232  156.4907 H   0  0  0  0  0  0  0  0  0  0  0  0  # atno 8009 bound_to 7997
  155.7044  140.3471  155.4949 H   0  0  0  0  0  0  0  0  0  0  0  0  # atno 8010 bound_to 7997
  140.3055  143.3136  152.0204 H   0  0  0  0  0  0  0  0  0  0  0  0  # atno 10167 bound_to 10162
  156.0617  130.5840  150.8302 H   0  0  0  0  0  0  0  0  0  0  0  0  # atno 10718 bound_to 10713
  154.1550  135.2813  155.3125 H   0  0  0  0  0  0  0  0  0  0  0  0  # atno 10763 bound_to 10752
  154.6189  135.5474  153.7557 H   0  0  0  0  0  0  0  0  0  0  0  0  # atno 10764 bound_to 10752
  153.0209  135.6434  154.1693 H   0  0  0  0  0  0  0  0  0  0  0  0  # atno 10765 bound_to 10752
  141.0978  133.6622  156.4180 H   0  0  0  0  0  0  0  0  0  0  0  0  # atno 11005 bound_to 11000
  145.8390  140.9590  143.0809 LP  0  0  0  0  0  0  0  0  0  0  0  0  # atno 17320 bound_to 7965
  144.6768  140.0260  143.7483 LP  0  0  0  0  0  0  0  0  0  0  0  0  # atno 17321 bound_to 7965
  139.4905  144.6424  151.6849 LP  0  0  0  0  0  0  0  0  0  0  0  0  # atno 17342 bound_to 10162
  140.5614  144.0262  150.6171 LP  0  0  0  0  0  0  0  0  0  0  0  0  # atno 17343 bound_to 10162
  157.5631  131.0946  150.9530 LP  0  0  0  0  0  0  0  0  0  0  0  0  # atno 17370 bound_to 10713
  156.9763  130.5510  149.5293 LP  0  0  0  0  0  0  0  0  0  0  0  0  # atno 17371 bound_to 10713
  140.5096  134.6408  157.5279 LP  0  0  0  0  0  0  0  0  0  0  0  0  # atno 17394 bound_to 11000
  139.9820  134.7121  155.9842 LP  0  0  0  0  0  0  0  0  0  0  0  0  # atno 17395 bound_to 11000

$$$$
