AV-unprocessed.smi:2822|AV-procd|sdf|10861|dock3
  -GOLD-   2272015303D 1   1.00000     0.00000
 Structure written by MMmdl.
 41 43  0  0  0  0  0  0  0  0  3 V2000
  146.5527  142.9640  154.1351 Cl  0  0  0  0  0  0  0  0  0  0  0  0
  147.4210  141.4778  153.9717 C   0  0  0  0  0  0  0  0  0  0  0  0
  147.1428  140.6342  152.8764 C   0  0  0  0  0  0  0  0  0  0  0  0
  147.8126  139.4712  152.7324 N   0  3  0  0  0  0  0  0  0  0  0  0
  148.7577  139.0618  153.6046 C   0  0  0  0  0  0  0  0  0  0  0  0
  149.0807  139.8624  154.7194 C   0  0  0  0  0  0  0  0  0  0  0  0
  148.4066  141.0939  154.9145 C   0  0  0  0  0  0  0  0  0  0  0  0
  148.6800  141.9356  156.0038 N   0  0  0  0  0  0  0  0  0  0  0  0
  149.5251  141.5002  157.1054 C   0  0  0  0  0  0  0  0  0  0  0  0
  151.0060  141.8469  156.8503 C   0  0  1  0  0  0  0  0  0  0  0  0
  151.3791  143.2770  157.2864 C   0  0  0  0  0  0  0  0  0  0  0  0
  151.4354  143.3989  158.7624 N   0  3  2  0  0  0  0  0  0  0  0  0
  151.7636  144.7805  159.1978 C   0  0  0  0  0  0  0  0  0  0  0  0
  151.7323  144.9032  160.7293 C   0  0  0  0  0  0  0  0  0  0  0  0
  152.6817  143.8869  161.3750 C   0  0  0  0  0  0  0  0  0  0  0  0
  152.3384  142.4714  160.8933 C   0  0  0  0  0  0  0  0  0  0  0  0
  152.3459  142.3815  159.3538 C   0  0  1  0  0  0  0  0  0  0  0  0
  151.9378  140.9733  158.8825 C   0  0  0  0  0  0  0  0  0  0  0  0
  151.8997  140.9158  157.4609 O   0  0  0  0  0  0  0  0  0  0  0  0
  146.4081  140.8545  152.1157 H   0  0  0  0  0  0  0  0  0  0  0  0
  149.2234  138.1116  153.3873 H   0  0  0  0  0  0  0  0  0  0  0  0
  149.8367  139.5155  155.4079 H   0  0  0  0  0  0  0  0  0  0  0  0
  148.4356  142.9146  155.9423 H   0  0  0  0  0  0  0  0  0  0  0  0
  149.1936  142.0051  158.0135 H   0  0  0  0  0  0  0  0  0  0  0  0
  149.3925  140.4318  157.2743 H   0  0  0  0  0  0  0  0  0  0  0  0
  151.1753  141.7793  155.7749 H   0  0  0  0  0  0  0  0  0  0  0  0
  152.3537  143.5400  156.8721 H   0  0  0  0  0  0  0  0  0  0  0  0
  150.6624  143.9924  156.8805 H   0  0  0  0  0  0  0  0  0  0  0  0
  152.7493  145.0583  158.8209 H   0  0  0  0  0  0  0  0  0  0  0  0
  151.0492  145.4796  158.7618 H   0  0  0  0  0  0  0  0  0  0  0  0
  152.0097  145.9144  161.0284 H   0  0  0  0  0  0  0  0  0  0  0  0
  150.7162  144.7407  161.0918 H   0  0  0  0  0  0  0  0  0  0  0  0
  153.7132  144.1266  161.1139 H   0  0  0  0  0  0  0  0  0  0  0  0
  152.6124  143.9430  162.4618 H   0  0  0  0  0  0  0  0  0  0  0  0
  153.0499  141.7587  161.3128 H   0  0  0  0  0  0  0  0  0  0  0  0
  151.3567  142.1882  161.2763 H   0  0  0  0  0  0  0  0  0  0  0  0
  153.3572  142.5853  158.9967 H   0  0  0  0  0  0  0  0  0  0  0  0
  152.6628  140.2388  159.2339 H   0  0  0  0  0  0  0  0  0  0  0  0
  150.9760  140.6790  159.3032 H   0  0  0  0  0  0  0  0  0  0  0  0
  150.5087  143.1975  159.1095 H   0  0  0  0  0  0  0  0  0  0  0  0
  147.5945  138.8768  151.9319 H   0  0  0  0  0  0  0  0  0  0  0  0
  1  2  1  0  0  0  0
  2  7  1  0  0  0  0
  2  3  2  0  0  0  0
  3  4  1  0  0  0  0
  3 20  1  0  0  0  0
  4  5  2  0  0  0  0
  4 41  1  0  0  0  0
  5  6  1  0  0  0  0
  5 21  1  0  0  0  0
  6  7  2  0  0  0  0
  6 22  1  0  0  0  0
  7  8  1  0  0  0  0
  8  9  1  0  0  0  0
  8 23  1  0  0  0  0
  9 10  1  0  0  0  0
  9 24  1  0  0  0  0
  9 25  1  0  0  0  0
 10 19  1  0  0  0  0
 10 11  1  0  0  0  0
 10 26  1  0  0  0  0
 11 12  1  0  0  0  0
 11 27  1  0  0  0  0
 11 28  1  0  0  0  0
 12 17  1  0  0  0  0
 12 13  1  0  0  0  0
 12 40  1  0  0  0  0
 13 14  1  0  0  0  0
 13 29  1  0  0  0  0
 13 30  1  0  0  0  0
 14 15  1  0  0  0  0
 14 31  1  0  0  0  0
 14 32  1  0  0  0  0
 15 16  1  0  0  0  0
 15 33  1  0  0  0  0
 15 34  1  0  0  0  0
 16 17  1  0  0  0  0
 16 35  1  0  0  0  0
 16 36  1  0  0  0  0
 17 18  1  0  0  0  0
 17 37  1  0  0  0  0
 18 19  1  0  0  0  0
 18 38  1  0  0  0  0
 18 39  1  0  0  0  0
M  CHG  1   4   1
M  CHG  1  12   1
M  END
> <s_m_source_file>
AV-unprocessed.smi

> <i_m_source_file_index>
2822

> <i_lp_mmshare_version>
43012

> <i_f3d_flags>
0

> <s_epik_input>
Q2xjMVtjSF1uW2NIXVtjSF1jMVtOSF1bQ0gyXVtDQEhdKFtDSDJdMilPW0NIMl1bQ0BASF0oTjIzKVtDSDJdW0NIMl1bQ0gyXVtDSDJdMw==

> <s_epik_cmdline>
J2VwaWtfcHl0aG9uJywgJy1waCcsICc3LjAnLCAnLXRuJywgJzgnLCAnLW1hJywgJzIwMCcsICctbWV0YWxfYmluZGluZycsICctaW1hZScsICc8aW5maWxlLm1hZT4nLCAnLW9tYWUnLCAnPG91dGZpbGUubWFlPic=

> <r_lp_tautomer_probability>
1

> <r_epik_Ionization_Penalty>
0.254999

> <r_epik_Ionization_Penalty_Charging>
0.254956

> <r_epik_Ionization_Penalty_Neutral>
4.33524e-05

> <r_epik_State_Penalty>
0.230978

> <r_epik_Charging_Adjusted_Penalty>
0.485934

> <i_epik_Tot_Q>
2

> <i_epik_Tot_abs_Q>
2

> <r_epik_Metal_State_Penalty>
3.47007

> <b_epik_Metal_Only>
0

> <s_lp_Force_Field>
OPLS_2005

> <r_lp_Energy>
41.9056

> <b_lp_Chiralities_Consistent>
1

> <s_lp_Variant>
AV-unprocessed.smi:2822-2

> <Gold.Version>
5.8.1

> <Gold.Id.Protein>
6NUR|6NUR_protein|mol2

> <Gold.PLP.Fitness>
42.4057

> <Gold.PLP.PLP>
-40.4852

> <Gold.PLP.part.hbond>
-2.0000

> <Gold.PLP.part.metal>
0.0000

> <Gold.PLP.part.buried>
-3.1115

> <Gold.PLP.part.nonpolar>
-36.0060

> <Gold.PLP.part.repulsive>
0.1694

> <Gold.PLP.ligand.clash>
0.0000

> <Gold.PLP.ligand.torsion>
0.5437

> <Gold.PLP.Chemscore.Hbond>
1.0000

> <Gold.PLP.Chemscore.CHOScore>
0.0000

> <Gold.PLP.Chemscore.Metal>
0.0000

> <Gold.Chemscore.Hbonds>
donor molecule, donor type, donor heavy atom, donor atom, acceptor molecule, acceptor atom, score
      L1  H     8    23       P1  8028  1.00

> <Gold.PLP.Chemscore.Internal.Correction>
0.0079

> <Gold.Rescore>
     Score         DG    S(hbond)    S(metal)    S(lipo)     H(rot)  DE(clash)    DE(int)     intcor
     19.63     -20.49       0.97        0.00     126.74       1.20       0.38       0.48       ----

> <Gold.Chemscore.Fitness>
19.6292

> <Gold.Chemscore.DG>
-20.4943

> <Gold.Chemscore.ZeroCoef>
-5.4800

> <Gold.Chemscore.Hbond>
0.9724

> <Gold.Chemscore.Metal>
0.0000

> <Gold.Chemscore.Lipo>
126.7412

> <Gold.Chemscore.Internal_Hbond>
0.0000

> <Gold.Chemscore.DEClash>
0.3849

> <Gold.Chemscore.DEInternal>
0.4802

> <Gold.Chemscore.Rot>
1.1962

> <Gold.Chemscore.Internal.Correction>
   9.000000E+99

> <Gold.Chemscore.Hbonds>
donor molecule, donor type, donor heavy atom, donor atom, acceptor molecule, acceptor atom, score
      L1  H     8    23       P1  8028  0.94

> <Gold.Chemscore.Hbond.Weighted>
-3.2478

> <Gold.Chemscore.Metal.Weighted>
-0.0000

> <Gold.Chemscore.Lipo.Weighted>
-14.8287

> <Gold.Chemscore.Internal_Hbond.Weighted>
0.0000

> <Gold.Chemscore.DEClash.Weighted>
0.3849

> <Gold.Chemscore.DEInternal.Weighted>
0.4802

> <Gold.Chemscore.Rot.Weighted>
3.0623

> <Gold.Chemscore.Internal.Correction.Weighted>
   9.000000E+99

> <Gold.Protein.RotatedTorsions>
[ 6907 6896 6895 6894 ] final  -19.69 input  -60.11 | X-H torsion
[ 7974 7965 7964 7962 ] final   58.02 input  175.53 | X-H torsion
[ 8008 7997 7996 7995 ] final   56.32 input   59.86 | X-H torsion
[ 10167 10162 10161 10158 ] final  -31.04 input  -65.29 | X-H torsion
[ 10718 10713 10712 10709 ] final  155.64 input   66.30 | X-H torsion
[ 10763 10752 10751 10750 ] final   60.21 input  -60.55 | X-H torsion
[ 11005 11000 10999 10996 ] final  -10.27 input  -57.11 | X-H torsion

> <Gold.Protein.ActiveResidues>
 VAL166  LYS551  ARG553  GLY616  TRP617  ASP618  TYR619  PRO620  LYS621  CYS622 
 ASP623  PHE694  ASN695  SER759  ASP760  ASP761  ALA762  ILE779  LEU786  VAL792 
 PHE793  MET794  SER795  GLU796  ALA797  LYS798  CYS799  TRP800  GLU811  SER814 

> <Gold.Protein.RotatedAtoms>
  151.2594  135.0649  159.9092 H   0  0  0  0  0  0  0  0  0  0  0  0  # atno 6907 bound_to 6896
  152.5368  134.0247  159.8008 H   0  0  0  0  0  0  0  0  0  0  0  0  # atno 6908 bound_to 6896
  151.0468  133.5609  159.2677 H   0  0  0  0  0  0  0  0  0  0  0  0  # atno 6909 bound_to 6896
  145.9228  139.3743  143.0468 H   0  0  0  0  0  0  0  0  0  0  0  0  # atno 7974 bound_to 7965
  155.5156  140.3478  155.4397 H   0  0  0  0  0  0  0  0  0  0  0  0  # atno 8008 bound_to 7997
  156.0819  140.1389  156.9728 H   0  0  0  0  0  0  0  0  0  0  0  0  # atno 8009 bound_to 7997
  154.4585  140.0944  156.6802 H   0  0  0  0  0  0  0  0  0  0  0  0  # atno 8010 bound_to 7997
  140.7241  143.3801  151.1616 H   0  0  0  0  0  0  0  0  0  0  0  0  # atno 10167 bound_to 10162
  157.2157  131.0707  151.1943 H   0  0  0  0  0  0  0  0  0  0  0  0  # atno 10718 bound_to 10713
  152.9915  135.5544  154.5837 H   0  0  0  0  0  0  0  0  0  0  0  0  # atno 10763 bound_to 10752
  154.5213  135.2808  155.1262 H   0  0  0  0  0  0  0  0  0  0  0  0  # atno 10764 bound_to 10752
  154.2614  135.6380  153.5329 H   0  0  0  0  0  0  0  0  0  0  0  0  # atno 10765 bound_to 10752
  140.7429  133.8655  155.8982 H   0  0  0  0  0  0  0  0  0  0  0  0  # atno 11005 bound_to 11000
  145.8528  140.9519  143.0740 LP  0  0  0  0  0  0  0  0  0  0  0  0  # atno 17320 bound_to 7965
  144.6755  140.0429  143.7480 LP  0  0  0  0  0  0  0  0  0  0  0  0  # atno 17321 bound_to 7965
  139.7389  143.8956  152.3043 LP  0  0  0  0  0  0  0  0  0  0  0  0  # atno 17342 bound_to 10162
  139.8770  144.7038  150.8921 LP  0  0  0  0  0  0  0  0  0  0  0  0  # atno 17343 bound_to 10162
  157.3627  130.7140  149.6512 LP  0  0  0  0  0  0  0  0  0  0  0  0  # atno 17370 bound_to 10713
  155.9686  130.4221  150.4500 LP  0  0  0  0  0  0  0  0  0  0  0  0  # atno 17371 bound_to 10713
  140.9820  134.1393  157.4486 LP  0  0  0  0  0  0  0  0  0  0  0  0  # atno 17394 bound_to 11000
  139.8802  135.0013  156.6062 LP  0  0  0  0  0  0  0  0  0  0  0  0  # atno 17395 bound_to 11000

$$$$
