AV-unprocessed.smi:960|AV-procd|sdf|4272|dock5
  -GOLD-   22720 2183D 1   1.00000     0.00000
 Structure written by MMmdl.
 46 47  0  0  0  0  0  0  0  0  2 V2000
  146.0496  131.7706  149.0008 C   0  0  0  0  0  0  0  0  0  0  0  0
  145.2987  132.2225  150.0187 C   0  0  0  0  0  0  0  0  0  0  0  0
  143.7921  132.3710  149.8991 C   0  0  0  0  0  0  0  0  0  0  0  0
  145.9093  132.5820  151.3648 C   0  0  0  0  0  0  0  0  0  0  0  0
  145.3236  133.8104  151.9646 N   0  3  2  0  0  0  0  0  0  0  0  0
  145.5029  134.9845  151.0707 C   0  0  0  0  0  0  0  0  0  0  0  0
  144.7876  136.2331  151.6176 C   0  0  0  0  0  0  0  0  0  0  0  0
  145.2397  136.5739  153.0466 C   0  0  2  0  0  0  0  0  0  0  0  0
  146.6147  137.0734  153.0458 N   0  0  0  0  0  0  0  0  0  0  0  0
  147.0344  138.1871  153.6630 C   0  0  0  0  0  0  0  0  0  0  0  0
  146.2922  138.9341  154.2991 O   0  0  0  0  0  0  0  0  0  0  0  0
  148.3491  138.3830  153.4809 N   0  0  0  0  0  0  0  0  0  0  0  0
  149.1362  139.4311  154.0210 C   0  0  0  0  0  0  0  0  0  0  0  0
  148.7649  140.7676  154.3525 C   0  0  0  0  0  0  0  0  0  0  0  0
  147.4481  141.4846  154.2426 C   0  0  0  0  0  0  0  0  0  0  0  0
  149.8025  141.4076  154.8712 N   0  0  0  0  0  0  0  0  0  0  0  0
  150.8615  140.4882  154.9184 O   0  0  0  0  0  0  0  0  0  0  0  0
  150.4339  139.2995  154.4193 C   0  0  0  0  0  0  0  0  0  0  0  0
  151.4170  138.1783  154.4044 C   0  0  0  0  0  0  0  0  0  0  0  0
  145.0805  135.3284  153.9394 C   0  0  0  0  0  0  0  0  0  0  0  0
  145.7875  134.0950  153.3494 C   0  0  0  0  0  0  0  0  0  0  0  0
  145.6077  131.5057  148.0510 H   0  0  0  0  0  0  0  0  0  0  0  0
  147.1192  131.6581  149.1018 H   0  0  0  0  0  0  0  0  0  0  0  0
  143.2951  131.6903  150.5907 H   0  0  0  0  0  0  0  0  0  0  0  0
  143.4492  132.1337  148.8914 H   0  0  0  0  0  0  0  0  0  0  0  0
  143.4681  133.3837  150.1339 H   0  0  0  0  0  0  0  0  0  0  0  0
  145.8212  131.7416  152.0553 H   0  0  0  0  0  0  0  0  0  0  0  0
  146.9774  132.7412  151.2078 H   0  0  0  0  0  0  0  0  0  0  0  0
  146.5680  135.1842  150.9431 H   0  0  0  0  0  0  0  0  0  0  0  0
  145.1066  134.7547  150.0808 H   0  0  0  0  0  0  0  0  0  0  0  0
  144.9560  137.0827  150.9546 H   0  0  0  0  0  0  0  0  0  0  0  0
  143.7112  136.0562  151.6144 H   0  0  0  0  0  0  0  0  0  0  0  0
  144.5941  137.3675  153.4275 H   0  0  0  0  0  0  0  0  0  0  0  0
  147.2967  136.5328  152.5343 H   0  0  0  0  0  0  0  0  0  0  0  0
  148.8170  137.7695  152.8301 H   0  0  0  0  0  0  0  0  0  0  0  0
  146.6122  140.8005  154.3878 H   0  0  0  0  0  0  0  0  0  0  0  0
  147.3371  141.9507  153.2635 H   0  0  0  0  0  0  0  0  0  0  0  0
  147.3570  142.2695  154.9942 H   0  0  0  0  0  0  0  0  0  0  0  0
  150.9334  137.2351  154.1510 H   0  0  0  0  0  0  0  0  0  0  0  0
  151.8877  138.0641  155.3810 H   0  0  0  0  0  0  0  0  0  0  0  0
  152.2009  138.3637  153.6703 H   0  0  0  0  0  0  0  0  0  0  0  0
  145.4510  135.5243  154.9462 H   0  0  0  0  0  0  0  0  0  0  0  0
  144.0184  135.1069  154.0522 H   0  0  0  0  0  0  0  0  0  0  0  0
  145.5710  133.2479  153.9982 H   0  0  0  0  0  0  0  0  0  0  0  0
  146.8696  134.2354  153.3540 H   0  0  0  0  0  0  0  0  0  0  0  0
  144.3281  133.6487  152.0239 H   0  0  0  0  0  0  0  0  0  0  0  0
  1  2  2  0  0  0  0
  1 22  1  0  0  0  0
  1 23  1  0  0  0  0
  2  3  1  0  0  0  0
  2  4  1  0  0  0  0
  3 24  1  0  0  0  0
  3 25  1  0  0  0  0
  3 26  1  0  0  0  0
  4  5  1  0  0  0  0
  4 27  1  0  0  0  0
  4 28  1  0  0  0  0
  5 21  1  0  0  0  0
  5  6  1  0  0  0  0
  5 46  1  0  0  0  0
  6  7  1  0  0  0  0
  6 29  1  0  0  0  0
  6 30  1  0  0  0  0
  7  8  1  0  0  0  0
  7 31  1  0  0  0  0
  7 32  1  0  0  0  0
  8  9  1  0  0  0  0
  8 20  1  0  0  0  0
  8 33  1  0  0  0  0
  9 10  1  0  0  0  0
  9 34  1  0  0  0  0
 10 11  2  0  0  0  0
 10 12  1  0  0  0  0
 12 13  1  0  0  0  0
 12 35  1  0  0  0  0
 13 18  2  0  0  0  0
 13 14  1  0  0  0  0
 14 15  1  0  0  0  0
 14 16  2  0  0  0  0
 15 36  1  0  0  0  0
 15 37  1  0  0  0  0
 15 38  1  0  0  0  0
 16 17  1  0  0  0  0
 17 18  1  0  0  0  0
 18 19  1  0  0  0  0
 19 39  1  0  0  0  0
 19 40  1  0  0  0  0
 19 41  1  0  0  0  0
 20 21  1  0  0  0  0
 20 42  1  0  0  0  0
 20 43  1  0  0  0  0
 21 44  1  0  0  0  0
 21 45  1  0  0  0  0
M  CHG  1   5   1
M  END
> <s_m_source_file>
AV-unprocessed.smi

> <i_m_source_file_index>
960

> <i_lp_mmshare_version>
43012

> <i_f3d_flags>
0

> <s_epik_input>
W0NIMl09QyhbQ0gzXSlbQ0gyXU4xW0NIMl1bQ0gyXVtDSF0oW0NIMl1bQ0gyXTEpW05IXUMoPU8pW05IXWMyYyhbQ0gzXSlub2MyW0NIM10=

> <s_epik_cmdline>
J2VwaWtfcHl0aG9uJywgJy1waCcsICc3LjAnLCAnLXRuJywgJzgnLCAnLW1hJywgJzIwMCcsICctbWV0YWxfYmluZGluZycsICctaW1hZScsICc8aW5maWxlLm1hZT4nLCAnLW9tYWUnLCAnPG91dGZpbGUubWFlPic=

> <r_epik_Ionization_Penalty>
0.01938

> <r_epik_Ionization_Penalty_Charging>
0.0193505

> <r_epik_Ionization_Penalty_Neutral>
2.94909e-05

> <r_epik_State_Penalty>
0.0154499

> <r_epik_Charging_Adjusted_Penalty>
0.0348004

> <i_epik_Tot_Q>
1

> <i_epik_Tot_abs_Q>
1

> <r_epik_Metal_State_Penalty>
0.0154499

> <b_epik_Metal_Only>
0

> <s_lp_Force_Field>
OPLS_2005

> <r_lp_Energy>
21.0262

> <b_lp_Chiralities_Consistent>
1

> <s_lp_Variant>
AV-unprocessed.smi:960-2

> <Gold.Version>
5.8.1

> <Gold.Id.Protein>
6NUR|6NUR_protein|mol2

> <Gold.PLP.Fitness>
45.5529

> <Gold.PLP.PLP>
-38.4734

> <Gold.PLP.part.hbond>
-4.7492

> <Gold.PLP.part.metal>
0.0000

> <Gold.PLP.part.buried>
-1.8558

> <Gold.PLP.part.nonpolar>
-31.5744

> <Gold.PLP.part.repulsive>
0.3786

> <Gold.PLP.ligand.clash>
0.0000

> <Gold.PLP.ligand.torsion>
0.6275

> <Gold.PLP.Chemscore.Hbond>
2.6500

> <Gold.PLP.Chemscore.CHOScore>
0.0000

> <Gold.PLP.Chemscore.Metal>
0.0000

> <Gold.Chemscore.Hbonds>
donor molecule, donor type, donor heavy atom, donor atom, acceptor molecule, acceptor atom, score
      L1  H     9    34       P1  7948  1.00
      L1  H    12    35       P1  7948  1.00
      P1  H  7989  7998       L1    17  0.62

> <Gold.PLP.Chemscore.Internal.Correction>
0.3845

> <Gold.Rescore>
     Score         DG    S(hbond)    S(metal)    S(lipo)     H(rot)  DE(clash)    DE(int)     intcor
     18.21     -20.04       1.96        0.00      98.01       1.35       0.12       1.71       ----

> <Gold.Chemscore.Fitness>
18.2055

> <Gold.Chemscore.DG>
-20.0350

> <Gold.Chemscore.ZeroCoef>
-5.4800

> <Gold.Chemscore.Hbond>
1.9578

> <Gold.Chemscore.Metal>
0.0000

> <Gold.Chemscore.Lipo>
98.0088

> <Gold.Chemscore.Internal_Hbond>
0.0000

> <Gold.Chemscore.DEClash>
0.1235

> <Gold.Chemscore.DEInternal>
1.7060

> <Gold.Chemscore.Rot>
1.3480

> <Gold.Chemscore.Internal.Correction>
   9.000000E+99

> <Gold.Chemscore.Hbonds>
donor molecule, donor type, donor heavy atom, donor atom, acceptor molecule, acceptor atom, score
      L1  H     9    34       P1  7948  0.98
      L1  H    12    35       P1  7948  0.98
      P1  H  7989  7998       L1    17  0.01

> <Gold.Chemscore.Hbond.Weighted>
-6.5389

> <Gold.Chemscore.Metal.Weighted>
-0.0000

> <Gold.Chemscore.Lipo.Weighted>
-11.4670

> <Gold.Chemscore.Internal_Hbond.Weighted>
0.0000

> <Gold.Chemscore.DEClash.Weighted>
0.1235

> <Gold.Chemscore.DEInternal.Weighted>
1.7060

> <Gold.Chemscore.Rot.Weighted>
3.4509

> <Gold.Chemscore.Internal.Correction.Weighted>
   9.000000E+99

> <Gold.Protein.RotatedTorsions>
[ 6907 6896 6895 6894 ] final -164.13 input  -60.11 | X-H torsion
[ 7974 7965 7964 7962 ] final    5.49 input  175.53 | X-H torsion
[ 8008 7997 7996 7995 ] final   85.09 input   59.86 | X-H torsion
[ 10167 10162 10161 10158 ] final -177.84 input  -65.29 | X-H torsion
[ 10718 10713 10712 10709 ] final   66.31 input   66.30 | X-H torsion
[ 10763 10752 10751 10750 ] final  167.18 input  -60.55 | X-H torsion
[ 11005 11000 10999 10996 ] final -102.40 input  -57.11 | X-H torsion

> <Gold.Protein.ActiveResidues>
 VAL166  LYS551  ARG553  GLY616  TRP617  ASP618  TYR619  PRO620  LYS621  CYS622 
 ASP623  PHE694  ASN695  SER759  ASP760  ASP761  ALA762  ILE779  LEU786  VAL792 
 PHE793  MET794  SER795  GLU796  ALA797  LYS798  CYS799  TRP800  GLU811  SER814 

> <Gold.Protein.RotatedAtoms>
  151.4070  133.3739  159.2738 H   0  0  0  0  0  0  0  0  0  0  0  0  # atno 6907 bound_to 6896
  150.9391  134.8803  159.7611 H   0  0  0  0  0  0  0  0  0  0  0  0  # atno 6908 bound_to 6896
  152.5063  134.4019  159.9471 H   0  0  0  0  0  0  0  0  0  0  0  0  # atno 6909 bound_to 6896
  146.2440  140.0376  142.8384 H   0  0  0  0  0  0  0  0  0  0  0  0  # atno 7974 bound_to 7965
  155.9455  140.3405  155.6363 H   0  0  0  0  0  0  0  0  0  0  0  0  # atno 8008 bound_to 7997
  155.6986  140.0757  157.2438 H   0  0  0  0  0  0  0  0  0  0  0  0  # atno 8009 bound_to 7997
  154.4111  140.1644  156.2153 H   0  0  0  0  0  0  0  0  0  0  0  0  # atno 8010 bound_to 7997
  139.5461  144.2233  152.0990 H   0  0  0  0  0  0  0  0  0  0  0  0  # atno 10167 bound_to 10162
  157.6161  130.9261  150.0092 H   0  0  0  0  0  0  0  0  0  0  0  0  # atno 10718 bound_to 10713
  154.3500  135.2753  155.2377 H   0  0  0  0  0  0  0  0  0  0  0  0  # atno 10763 bound_to 10752
  154.4611  135.5907  153.6259 H   0  0  0  0  0  0  0  0  0  0  0  0  # atno 10764 bound_to 10752
  152.9850  135.6065  154.3709 H   0  0  0  0  0  0  0  0  0  0  0  0  # atno 10765 bound_to 10752
  141.1191  133.8555  157.1355 H   0  0  0  0  0  0  0  0  0  0  0  0  # atno 11005 bound_to 11000
  145.1098  140.9398  143.4663 LP  0  0  0  0  0  0  0  0  0  0  0  0  # atno 17320 bound_to 7965
  145.0587  139.3122  143.5891 LP  0  0  0  0  0  0  0  0  0  0  0  0  # atno 17321 bound_to 7965
  140.1720  144.4927  150.6574 LP  0  0  0  0  0  0  0  0  0  0  0  0  # atno 17342 bound_to 10162
  140.6709  143.2285  151.5627 LP  0  0  0  0  0  0  0  0  0  0  0  0  # atno 17343 bound_to 10162
  156.1284  130.3644  149.9772 LP  0  0  0  0  0  0  0  0  0  0  0  0  # atno 17370 bound_to 10713
  156.7838  130.9231  151.3646 LP  0  0  0  0  0  0  0  0  0  0  0  0  # atno 17371 bound_to 10713
  140.0134  134.9978  157.0443 LP  0  0  0  0  0  0  0  0  0  0  0  0  # atno 17394 bound_to 11000
  140.4561  134.1532  155.7186 LP  0  0  0  0  0  0  0  0  0  0  0  0  # atno 17395 bound_to 11000

$$$$
