AV-unprocessed.smi:1273|AV-procd|sdf|5338|dock5
  -GOLD-   22720 4473D 1   1.00000     0.00000
 Structure written by MMmdl.
 40 41  0  0  0  0  0  0  0  0  1 V2000
  154.7356  141.5849  167.8307 C   0  0  0  0  0  0  0  0  0  0  0  0
  155.8857  141.5784  166.8107 C   0  0  2  0  0  0  0  0  0  0  0  0
  155.3681  141.4888  165.3685 C   0  0  0  0  0  0  0  0  0  0  0  0
  155.7891  140.6073  164.6201 O   0  0  0  0  0  0  0  0  0  0  0  0
  154.4700  142.4266  165.0122 N   0  0  0  0  0  0  0  0  0  0  0  0
  153.8244  142.6083  163.7598 C   0  0  0  0  0  0  0  0  0  0  0  0
  154.1699  141.7394  162.7069 C   0  0  0  0  0  0  0  0  0  0  0  0
  153.5625  141.9057  161.4480 C   0  0  0  0  0  0  0  0  0  0  0  0
  152.6218  142.9471  161.2680 C   0  0  0  0  0  0  0  0  0  0  0  0
  151.9964  143.1331  160.0155 N   0  0  0  0  0  0  0  0  0  0  0  0
  152.1008  142.0577  159.0304 C   0  0  0  0  0  0  0  0  0  0  0  0
  151.1309  142.3034  157.8625 C   0  0  0  0  0  0  0  0  0  0  0  0
  151.3729  143.5886  157.3005 O   0  0  0  0  0  0  0  0  0  0  0  0
  151.1557  144.6287  158.2478 C   0  0  0  0  0  0  0  0  0  0  0  0
  152.1243  144.4666  159.4322 C   0  0  0  0  0  0  0  0  0  0  0  0
  152.3053  143.7958  162.2767 N   0  0  0  0  0  0  0  0  0  0  0  0
  152.8884  143.6324  163.4829 C   0  0  0  0  0  0  0  0  0  0  0  0
  157.0346  140.1660  167.1637 S   0  0  0  0  0  0  0  0  0  0  0  0
  158.3731  140.3925  165.9178 C   0  0  0  0  0  0  0  0  0  0  0  0
  157.6124  140.3741  168.5004 O   0  0  0  0  0  0  0  0  0  0  0  0
  156.3448  138.9010  166.8669 O   0  0  0  0  0  0  0  0  0  0  0  0
  154.0285  142.3900  167.6271 H   0  0  0  0  0  0  0  0  0  0  0  0
  155.1158  141.7310  168.8418 H   0  0  0  0  0  0  0  0  0  0  0  0
  154.1846  140.6437  167.8204 H   0  0  0  0  0  0  0  0  0  0  0  0
  156.4612  142.4971  166.9315 H   0  0  0  0  0  0  0  0  0  0  0  0
  154.2701  143.1325  165.7058 H   0  0  0  0  0  0  0  0  0  0  0  0
  154.8933  140.9514  162.8580 H   0  0  0  0  0  0  0  0  0  0  0  0
  153.8363  141.2467  160.6377 H   0  0  0  0  0  0  0  0  0  0  0  0
  153.1255  142.0055  158.6600 H   0  0  0  0  0  0  0  0  0  0  0  0
  151.8708  141.0966  159.4923 H   0  0  0  0  0  0  0  0  0  0  0  0
  151.2723  141.5459  157.0914 H   0  0  0  0  0  0  0  0  0  0  0  0
  150.0944  142.2290  158.1956 H   0  0  0  0  0  0  0  0  0  0  0  0
  151.3168  145.5907  157.7609 H   0  0  0  0  0  0  0  0  0  0  0  0
  150.1193  144.6145  158.5888 H   0  0  0  0  0  0  0  0  0  0  0  0
  151.9233  145.2497  160.1614 H   0  0  0  0  0  0  0  0  0  0  0  0
  153.1520  144.6046  159.0941 H   0  0  0  0  0  0  0  0  0  0  0  0
  152.6009  144.3630  164.2224 H   0  0  0  0  0  0  0  0  0  0  0  0
  159.1568  139.6564  166.0961 H   0  0  0  0  0  0  0  0  0  0  0  0
  158.7926  141.3943  166.0079 H   0  0  0  0  0  0  0  0  0  0  0  0
  157.9750  140.2497  164.9135 H   0  0  0  0  0  0  0  0  0  0  0  0
  1  2  1  0  0  0  0
  1 22  1  0  0  0  0
  1 23  1  0  0  0  0
  1 24  1  0  0  0  0
  2  3  1  0  0  0  0
  2 18  1  0  0  0  0
  2 25  1  0  0  0  0
  3  4  2  0  0  0  0
  3  5  1  0  0  0  0
  5  6  1  0  0  0  0
  5 26  1  0  0  0  0
  6 17  1  0  0  0  0
  6  7  2  0  0  0  0
  7  8  1  0  0  0  0
  7 27  1  0  0  0  0
  8  9  2  0  0  0  0
  8 28  1  0  0  0  0
  9 10  1  0  0  0  0
  9 16  1  0  0  0  0
 10 15  1  0  0  0  0
 10 11  1  0  0  0  0
 11 12  1  0  0  0  0
 11 29  1  0  0  0  0
 11 30  1  0  0  0  0
 12 13  1  0  0  0  0
 12 31  1  0  0  0  0
 12 32  1  0  0  0  0
 13 14  1  0  0  0  0
 14 15  1  0  0  0  0
 14 33  1  0  0  0  0
 14 34  1  0  0  0  0
 15 35  1  0  0  0  0
 15 36  1  0  0  0  0
 16 17  2  0  0  0  0
 17 37  1  0  0  0  0
 18 19  1  0  0  0  0
 18 20  2  0  0  0  0
 18 21  2  0  0  0  0
 19 38  1  0  0  0  0
 19 39  1  0  0  0  0
 19 40  1  0  0  0  0
M  END
> <s_m_source_file>
AV-unprocessed.smi

> <i_m_source_file_index>
1273

> <i_lp_mmshare_version>
43012

> <i_f3d_flags>
0

> <s_epik_input>
W0NIM11TKD1PKSg9TylbQ0BIXShbQ0gzXSlDKD1PKVtOSF1jMVtjSF1bY0hdYyhuW2NIXTEpTjJbQ0gyXVtDSDJdT1tDSDJdW0NIMl0y

> <s_epik_cmdline>
J2VwaWtfcHl0aG9uJywgJy1waCcsICc3LjAnLCAnLXRuJywgJzgnLCAnLW1hJywgJzIwMCcsICctbWV0YWxfYmluZGluZycsICctaW1hZScsICc8aW5maWxlLm1hZT4nLCAnLW9tYWUnLCAnPG91dGZpbGUubWFlPic=

> <r_lp_tautomer_probability>
1

> <r_epik_Ionization_Penalty>
0.000253983

> <r_epik_Ionization_Penalty_Charging>
0

> <r_epik_Ionization_Penalty_Neutral>
0.000253983

> <r_epik_State_Penalty>
-0

> <r_epik_Charging_Adjusted_Penalty>
0

> <i_epik_Tot_Q>
0

> <i_epik_Tot_abs_Q>
0

> <r_epik_Metal_State_Penalty>
-0

> <b_epik_Metal_Only>
0

> <s_lp_Force_Field>
OPLS_2005

> <r_lp_Energy>
19.002

> <b_lp_Chiralities_Consistent>
1

> <s_lp_Variant>
AV-unprocessed.smi:1273-1

> <Gold.Version>
5.8.1

> <Gold.Id.Protein>
6NUR|6NUR_protein|mol2

> <Gold.PLP.Fitness>
40.2193

> <Gold.PLP.PLP>
-40.3497

> <Gold.PLP.part.hbond>
-1.0000

> <Gold.PLP.part.metal>
0.0000

> <Gold.PLP.part.buried>
-3.9766

> <Gold.PLP.part.nonpolar>
-34.3281

> <Gold.PLP.part.repulsive>
0.5095

> <Gold.PLP.ligand.clash>
0.0000

> <Gold.PLP.ligand.torsion>
0.3128

> <Gold.PLP.Chemscore.Hbond>
0.0000

> <Gold.PLP.Chemscore.CHOScore>
0.0000

> <Gold.PLP.Chemscore.Metal>
0.0000

> <Gold.PLP.Chemscore.Internal.Correction>
0.4952

> <Gold.Rescore>
     Score         DG    S(hbond)    S(metal)    S(lipo)     H(rot)  DE(clash)    DE(int)     intcor
      8.81     -13.08       0.00        0.00      99.10       1.56       0.94       3.33       ----

> <Gold.Chemscore.Fitness>
8.8090

> <Gold.Chemscore.DG>
-13.0751

> <Gold.Chemscore.ZeroCoef>
-5.4800

> <Gold.Chemscore.Hbond>
0.0000

> <Gold.Chemscore.Metal>
0.0000

> <Gold.Chemscore.Lipo>
99.1007

> <Gold.Chemscore.Internal_Hbond>
0.0000

> <Gold.Chemscore.DEClash>
0.9377

> <Gold.Chemscore.DEInternal>
3.3284

> <Gold.Chemscore.Rot>
1.5624

> <Gold.Chemscore.Internal.Correction>
   9.000000E+99

> <Gold.Chemscore.Hbond.Weighted>
-0.0000

> <Gold.Chemscore.Metal.Weighted>
-0.0000

> <Gold.Chemscore.Lipo.Weighted>
-11.5948

> <Gold.Chemscore.Internal_Hbond.Weighted>
0.0000

> <Gold.Chemscore.DEClash.Weighted>
0.9377

> <Gold.Chemscore.DEInternal.Weighted>
3.3284

> <Gold.Chemscore.Rot.Weighted>
3.9996

> <Gold.Chemscore.Internal.Correction.Weighted>
   9.000000E+99

> <Gold.Protein.RotatedTorsions>
[ 6907 6896 6895 6894 ] final  123.11 input  -60.11 | X-H torsion
[ 7974 7965 7964 7962 ] final  106.21 input  175.53 | X-H torsion
[ 8008 7997 7996 7995 ] final  -98.52 input   59.86 | X-H torsion
[ 10167 10162 10161 10158 ] final   -1.45 input  -65.29 | X-H torsion
[ 10718 10713 10712 10709 ] final   65.82 input   66.30 | X-H torsion
[ 10763 10752 10751 10750 ] final    2.79 input  -60.55 | X-H torsion
[ 11005 11000 10999 10996 ] final -116.49 input  -57.11 | X-H torsion

> <Gold.Protein.ActiveResidues>
 VAL166  LYS551  ARG553  GLY616  TRP617  ASP618  TYR619  PRO620  LYS621  CYS622 
 ASP623  PHE694  ASN695  SER759  ASP760  ASP761  ALA762  ILE779  LEU786  VAL792 
 PHE793  MET794  SER795  GLU796  ALA797  LYS798  CYS799  TRP800  GLU811  SER814 

> <Gold.Protein.RotatedAtoms>
  152.4189  133.7083  159.6463 H   0  0  0  0  0  0  0  0  0  0  0  0  # atno 6907 bound_to 6896
  150.8065  133.8489  159.3209 H   0  0  0  0  0  0  0  0  0  0  0  0  # atno 6908 bound_to 6896
  151.6212  135.1034  160.0153 H   0  0  0  0  0  0  0  0  0  0  0  0  # atno 6909 bound_to 6896
  145.3096  139.2544  143.3770 H   0  0  0  0  0  0  0  0  0  0  0  0  # atno 7974 bound_to 7965
  154.8023  140.0454  157.1282 H   0  0  0  0  0  0  0  0  0  0  0  0  # atno 8008 bound_to 7997
  154.9465  140.3059  155.5076 H   0  0  0  0  0  0  0  0  0  0  0  0  # atno 8009 bound_to 7997
  156.2963  140.2296  156.4538 H   0  0  0  0  0  0  0  0  0  0  0  0  # atno 8010 bound_to 7997
  140.6811  143.6773  150.8134 H   0  0  0  0  0  0  0  0  0  0  0  0  # atno 10167 bound_to 10162
  157.6130  130.9235  150.0027 H   0  0  0  0  0  0  0  0  0  0  0  0  # atno 10718 bound_to 10713
  153.2912  135.6948  153.7291 H   0  0  0  0  0  0  0  0  0  0  0  0  # atno 10763 bound_to 10752
  153.6241  135.3422  155.3021 H   0  0  0  0  0  0  0  0  0  0  0  0  # atno 10764 bound_to 10752
  154.8524  135.4393  154.1996 H   0  0  0  0  0  0  0  0  0  0  0  0  # atno 10765 bound_to 10752
  141.0418  133.9823  157.2982 H   0  0  0  0  0  0  0  0  0  0  0  0  # atno 11005 bound_to 11000
  146.3123  140.3629  142.8666 LP  0  0  0  0  0  0  0  0  0  0  0  0  # atno 17320 bound_to 7965
  144.9027  140.7662  143.5857 LP  0  0  0  0  0  0  0  0  0  0  0  0  # atno 17321 bound_to 7965
  140.0474  143.5284  152.2690 LP  0  0  0  0  0  0  0  0  0  0  0  0  # atno 17342 bound_to 10162
  139.6134  144.7614  151.2901 LP  0  0  0  0  0  0  0  0  0  0  0  0  # atno 17343 bound_to 10162
  156.1240  130.3645  149.9839 LP  0  0  0  0  0  0  0  0  0  0  0  0  # atno 17370 bound_to 10713
  156.7914  130.9257  151.3646 LP  0  0  0  0  0  0  0  0  0  0  0  0  # atno 17371 bound_to 10713
  139.9282  135.0201  156.8307 LP  0  0  0  0  0  0  0  0  0  0  0  0  # atno 17394 bound_to 11000
  140.6220  133.9985  155.7622 LP  0  0  0  0  0  0  0  0  0  0  0  0  # atno 17395 bound_to 11000

$$$$
