AV-unprocessed.smi:2424|AV-procd|sdf|9574|dock1
  -GOLD-   2272013203D 1   1.00000     0.00000
 Structure written by MMmdl.
 49 50  0  0  0  0  0  0  0  0  2 V2000
  142.3839  135.1716  153.8553 C   0  0  0  0  0  0  0  0  0  0  0  0
  143.1248  135.4979  152.5467 C   0  0  0  0  0  0  0  0  0  0  0  0
  144.6625  135.3128  152.5856 C   0  0  0  0  0  0  0  0  0  0  0  0
  145.2427  135.7578  151.2177 C   0  0  0  0  0  0  0  0  0  0  0  0
  144.5127  135.1943  149.9866 C   0  0  0  0  0  0  0  0  0  0  0  0
  145.3295  135.9050  153.8620 C   0  0  2  0  0  0  0  0  0  0  0  0
  146.7253  136.3020  153.6605 N   0  0  0  0  0  0  0  0  0  0  0  0
  147.4679  136.9988  154.5294 C   0  0  0  0  0  0  0  0  0  0  0  0
  147.0510  137.3792  155.6227 O   0  0  0  0  0  0  0  0  0  0  0  0
  148.6995  137.2117  154.0342 N   0  0  0  0  0  0  0  0  0  0  0  0
  149.7658  137.9162  154.6072 C   0  0  0  0  0  0  0  0  0  0  0  0
  150.9444  137.2659  154.9123 C   0  0  0  0  0  0  0  0  0  0  0  0
  152.0736  137.7684  155.4565 N   0  5  0  0  0  0  0  0  0  0  0  0
  152.1029  139.0970  155.7623 C   0  0  0  0  0  0  0  0  0  0  0  0
  153.0970  139.6247  156.2599 O   0  0  0  0  0  0  0  0  0  0  0  0
  150.9068  139.9183  155.4860 C   0  0  0  0  0  0  0  0  0  0  0  0
  150.9450  141.3986  155.8249 C   0  0  0  0  0  0  0  0  0  0  0  0
  149.8081  139.3403  154.9387 C   0  0  0  0  0  0  0  0  0  0  0  0
  145.2186  134.5276  154.5372 C   0  0  2  0  0  0  0  0  0  0  0  0
  146.2763  134.0241  155.5180 C   0  0  0  0  0  0  0  0  0  0  0  0
  145.1097  133.9230  153.1278 C   0  0  2  0  0  0  0  0  0  0  0  0
  146.3856  133.4986  152.6615 O   0  0  0  0  0  0  0  0  0  0  0  0
  146.3401  132.9296  151.3640 C   0  0  0  0  0  0  0  0  0  0  0  0
  141.3366  135.4644  153.7817 H   0  0  0  0  0  0  0  0  0  0  0  0
  142.8113  135.7013  154.7063 H   0  0  0  0  0  0  0  0  0  0  0  0
  142.3996  134.1054  154.0783 H   0  0  0  0  0  0  0  0  0  0  0  0
  142.6864  134.9194  151.7342 H   0  0  0  0  0  0  0  0  0  0  0  0
  142.8851  136.5309  152.2948 H   0  0  0  0  0  0  0  0  0  0  0  0
  145.2170  136.8441  151.1341 H   0  0  0  0  0  0  0  0  0  0  0  0
  146.3012  135.5138  151.1433 H   0  0  0  0  0  0  0  0  0  0  0  0
  144.8984  135.6483  149.0736 H   0  0  0  0  0  0  0  0  0  0  0  0
  143.4426  135.3971  150.0261 H   0  0  0  0  0  0  0  0  0  0  0  0
  144.6483  134.1177  149.8902 H   0  0  0  0  0  0  0  0  0  0  0  0
  144.7157  136.6668  154.3461 H   0  0  0  0  0  0  0  0  0  0  0  0
  147.1519  136.0248  152.7887 H   0  0  0  0  0  0  0  0  0  0  0  0
  148.8913  136.8218  153.1229 H   0  0  0  0  0  0  0  0  0  0  0  0
  150.9867  136.1791  154.6832 H   0  0  0  0  0  0  0  0  0  0  0  0
  150.0025  141.8882  155.5786 H   0  0  0  0  0  0  0  0  0  0  0  0
  151.7387  141.8964  155.2672 H   0  0  0  0  0  0  0  0  0  0  0  0
  151.1300  141.5409  156.8901 H   0  0  0  0  0  0  0  0  0  0  0  0
  148.9554  139.9714  154.7488 H   0  0  0  0  0  0  0  0  0  0  0  0
  144.2381  134.4649  155.0118 H   0  0  0  0  0  0  0  0  0  0  0  0
  147.2749  134.0211  155.0807 H   0  0  0  0  0  0  0  0  0  0  0  0
  146.0591  133.0052  155.8385 H   0  0  0  0  0  0  0  0  0  0  0  0
  146.3119  134.6494  156.4103 H   0  0  0  0  0  0  0  0  0  0  0  0
  144.3533  133.1376  153.0832 H   0  0  0  0  0  0  0  0  0  0  0  0
  147.3488  132.6689  151.0439 H   0  0  0  0  0  0  0  0  0  0  0  0
  145.9228  133.6231  150.6339 H   0  0  0  0  0  0  0  0  0  0  0  0
  145.7405  132.0187  151.3583 H   0  0  0  0  0  0  0  0  0  0  0  0
  1  2  1  0  0  0  0
  1 24  1  0  0  0  0
  1 25  1  0  0  0  0
  1 26  1  0  0  0  0
  2  3  1  0  0  0  0
  2 27  1  0  0  0  0
  2 28  1  0  0  0  0
  3 21  1  0  0  0  0
  3  4  1  0  0  0  0
  3  6  1  0  0  0  0
  4  5  1  0  0  0  0
  4 29  1  0  0  0  0
  4 30  1  0  0  0  0
  5 31  1  0  0  0  0
  5 32  1  0  0  0  0
  5 33  1  0  0  0  0
  6  7  1  0  0  0  0
  6 19  1  0  0  0  0
  6 34  1  0  0  0  0
  7  8  1  0  0  0  0
  7 35  1  0  0  0  0
  8  9  2  0  0  0  0
  8 10  1  0  0  0  0
 10 11  1  0  0  0  0
 10 36  1  0  0  0  0
 11 18  1  0  0  0  0
 11 12  2  0  0  0  0
 12 13  1  0  0  0  0
 12 37  1  0  0  0  0
 13 14  1  0  0  0  0
 14 15  2  0  0  0  0
 14 16  1  0  0  0  0
 16 17  1  0  0  0  0
 16 18  2  0  0  0  0
 17 38  1  0  0  0  0
 17 39  1  0  0  0  0
 17 40  1  0  0  0  0
 18 41  1  0  0  0  0
 19 20  1  0  0  0  0
 19 21  1  0  0  0  0
 19 42  1  0  0  0  0
 20 43  1  0  0  0  0
 20 44  1  0  0  0  0
 20 45  1  0  0  0  0
 21 22  1  0  0  0  0
 21 46  1  0  0  0  0
 22 23  1  0  0  0  0
 23 47  1  0  0  0  0
 23 48  1  0  0  0  0
 23 49  1  0  0  0  0
M  CHG  1  13  -1
M  END
> <s_m_source_file>
AV-unprocessed.smi

> <i_m_source_file_index>
2424

> <i_lp_mmshare_version>
43012

> <i_f3d_flags>
0

> <s_epik_input>
W0NIM11PW0NAQEhdMVtDQEhdKFtDSDNdKVtDQEBIXShDMShbQ0gyXVtDSDNdKVtDSDJdW0NIM10pW05IXUMoPU8pW05IXWMyW2NIXVtuSF1jKD1PKWMoW0NIM10pW2NIXTI=

> <s_epik_cmdline>
J2VwaWtfcHl0aG9uJywgJy1waCcsICc3LjAnLCAnLXRuJywgJzgnLCAnLW1hJywgJzIwMCcsICctbWV0YWxfYmluZGluZycsICctaW1hZScsICc8aW5maWxlLm1hZT4nLCAnLW9tYWUnLCAnPG91dGZpbGUubWFlPic=

> <r_lp_tautomer_probability>
1

> <r_epik_Ionization_Penalty>
7.6122

> <r_epik_Ionization_Penalty_Charging>
1.53843

> <r_epik_Ionization_Penalty_Neutral>
6.07377

> <r_epik_State_Penalty>
6.07371

> <r_epik_Charging_Adjusted_Penalty>
7.61214

> <i_epik_Tot_Q>
-1

> <i_epik_Tot_abs_Q>
1

> <r_epik_Metal_State_Penalty>
2.02136

> <b_epik_Metal_Only>
1

> <s_lp_Force_Field>
OPLS_2005

> <r_lp_Energy>
42.0535

> <b_lp_Chiralities_Consistent>
1

> <s_lp_Variant>
AV-unprocessed.smi:2424-16

> <Gold.Version>
5.8.1

> <Gold.Id.Protein>
6NUR|6NUR_protein|mol2

> <Gold.PLP.Fitness>
35.9823

> <Gold.PLP.PLP>
-30.5489

> <Gold.PLP.part.hbond>
-2.3878

> <Gold.PLP.part.metal>
0.0000

> <Gold.PLP.part.buried>
-2.4695

> <Gold.PLP.part.nonpolar>
-25.2239

> <Gold.PLP.part.repulsive>
0.1596

> <Gold.PLP.ligand.clash>
0.4689

> <Gold.PLP.ligand.torsion>
1.1593

> <Gold.PLP.Chemscore.Hbond>
2.4437

> <Gold.PLP.Chemscore.CHOScore>
0.0000

> <Gold.PLP.Chemscore.Metal>
0.0000

> <Gold.Chemscore.Hbonds>
donor molecule, donor type, donor heavy atom, donor atom, acceptor molecule, acceptor atom, score
      L1  H     7    35       P1  7948  0.77
      L1  H    10    36       P1  7948  0.63
      P1  H  7997  8008       L1    15  0.70

> <Gold.PLP.Chemscore.Internal.Correction>
0.8898

> <Gold.Rescore>
     Score         DG    S(hbond)    S(metal)    S(lipo)     H(rot)  DE(clash)    DE(int)     intcor
     15.66     -19.88       2.88        0.00      74.06       1.52       1.92       2.30       ----

> <Gold.Chemscore.Fitness>
15.6567

> <Gold.Chemscore.DG>
-19.8822

> <Gold.Chemscore.ZeroCoef>
-5.4800

> <Gold.Chemscore.Hbond>
2.8832

> <Gold.Chemscore.Metal>
0.0000

> <Gold.Chemscore.Lipo>
74.0567

> <Gold.Chemscore.Internal_Hbond>
0.0000

> <Gold.Chemscore.DEClash>
1.9216

> <Gold.Chemscore.DEInternal>
2.3038

> <Gold.Chemscore.Rot>
1.5204

> <Gold.Chemscore.Internal.Correction>
   9.000000E+99

> <Gold.Chemscore.Hbonds>
donor molecule, donor type, donor heavy atom, donor atom, acceptor molecule, acceptor atom, score
      L1  H     7    35       P1  7948  0.73
      L1  H    10    36       P1  7948  0.63
      P1  H  7997  8008       L1    15  0.66

> <Gold.Chemscore.Hbond.Weighted>
-9.6298

> <Gold.Chemscore.Metal.Weighted>
-0.0000

> <Gold.Chemscore.Lipo.Weighted>
-8.6646

> <Gold.Chemscore.Internal_Hbond.Weighted>
0.0000

> <Gold.Chemscore.DEClash.Weighted>
1.9216

> <Gold.Chemscore.DEInternal.Weighted>
2.3038

> <Gold.Chemscore.Rot.Weighted>
3.8922

> <Gold.Chemscore.Internal.Correction.Weighted>
   9.000000E+99

> <Gold.Protein.RotatedTorsions>
[ 6907 6896 6895 6894 ] final    9.67 input  -60.11 | X-H torsion
[ 7974 7965 7964 7962 ] final  -21.65 input  175.53 | X-H torsion
[ 8008 7997 7996 7995 ] final  -25.68 input   59.86 | X-H torsion
[ 10167 10162 10161 10158 ] final   22.28 input  -65.29 | X-H torsion
[ 10718 10713 10712 10709 ] final  106.03 input   66.30 | X-H torsion
[ 10763 10752 10751 10750 ] final  152.13 input  -60.55 | X-H torsion
[ 11005 11000 10999 10996 ] final  165.39 input  -57.11 | X-H torsion

> <Gold.Protein.ActiveResidues>
 VAL166  LYS551  ARG553  GLY616  TRP617  ASP618  TYR619  PRO620  LYS621  CYS622 
 ASP623  PHE694  ASN695  SER759  ASP760  ASP761  ALA762  ILE779  LEU786  VAL792 
 PHE793  MET794  SER795  GLU796  ALA797  LYS798  CYS799  TRP800  GLU811  SER814 

> <Gold.Protein.RotatedAtoms>
  151.7259  135.0885  160.0291 H   0  0  0  0  0  0  0  0  0  0  0  0  # atno 6907 bound_to 6896
  152.3572  133.6247  159.5996 H   0  0  0  0  0  0  0  0  0  0  0  0  # atno 6908 bound_to 6896
  150.7579  133.9397  159.3494 H   0  0  0  0  0  0  0  0  0  0  0  0  # atno 6909 bound_to 6896
  146.1720  140.4371  142.8528 H   0  0  0  0  0  0  0  0  0  0  0  0  # atno 7974 bound_to 7965
  154.4463  140.1920  156.0658 H   0  0  0  0  0  0  0  0  0  0  0  0  # atno 8008 bound_to 7997
  156.0549  140.3304  155.7366 H   0  0  0  0  0  0  0  0  0  0  0  0  # atno 8009 bound_to 7997
  155.5501  140.0594  157.2842 H   0  0  0  0  0  0  0  0  0  0  0  0  # atno 8010 bound_to 7997
  140.5361  143.9758  150.6492 H   0  0  0  0  0  0  0  0  0  0  0  0  # atno 10167 bound_to 10162
  157.6683  131.0841  150.5946 H   0  0  0  0  0  0  0  0  0  0  0  0  # atno 10718 bound_to 10713
  154.1151  135.2836  155.3221 H   0  0  0  0  0  0  0  0  0  0  0  0  # atno 10763 bound_to 10752
  154.6462  135.5385  153.7851 H   0  0  0  0  0  0  0  0  0  0  0  0  # atno 10764 bound_to 10752
  153.0332  135.6499  154.1308 H   0  0  0  0  0  0  0  0  0  0  0  0  # atno 10765 bound_to 10752
  140.2556  134.7942  157.3543 H   0  0  0  0  0  0  0  0  0  0  0  0  # atno 11005 bound_to 11000
  144.8178  140.6498  143.6373 LP  0  0  0  0  0  0  0  0  0  0  0  0  # atno 17320 bound_to 7965
  145.4313  139.1549  143.4021 LP  0  0  0  0  0  0  0  0  0  0  0  0  # atno 17321 bound_to 7965
  140.3146  143.3176  152.0845 LP  0  0  0  0  0  0  0  0  0  0  0  0  # atno 17342 bound_to 10162
  139.4971  144.6614  151.6456 LP  0  0  0  0  0  0  0  0  0  0  0  0  # atno 17343 bound_to 10162
  156.6246  130.4415  149.5809 LP  0  0  0  0  0  0  0  0  0  0  0  0  # atno 17370 bound_to 10713
  156.2329  130.6805  151.1481 LP  0  0  0  0  0  0  0  0  0  0  0  0  # atno 17371 bound_to 10713
  140.1515  134.4844  155.7958 LP  0  0  0  0  0  0  0  0  0  0  0  0  # atno 17394 bound_to 11000
  141.2196  133.6864  156.7386 LP  0  0  0  0  0  0  0  0  0  0  0  0  # atno 17395 bound_to 11000

$$$$
