AV-unprocessed.smi:16|AV-procd|sdf|90|dock6
  -GOLD-   2262015233D 1   1.00000     0.00000
 Structure written by MMmdl.
 60 64  0  0  0  0  0  0  0  0  2 V2000
  152.2812  139.7614  154.6203 C   0  0  0  0  0  0  0  0  0  0  0  0
  151.0778  138.9579  154.1076 C   0  0  0  0  0  0  0  0  0  0  0  0
  149.8724  139.8059  153.9056 N   0  3  2  0  0  0  0  0  0  0  0  0
  149.8605  141.0682  154.6957 C   0  0  0  0  0  0  0  0  0  0  0  0
  149.5295  140.8250  156.1808 C   0  0  0  0  0  0  0  0  0  0  0  0
  148.2097  140.0564  156.3223 C   0  0  2  0  0  0  0  0  0  0  0  0
  147.9648  139.7748  157.6954 O   0  0  0  0  0  0  0  0  0  0  0  0
  146.7121  139.1246  157.8842 C   0  0  0  0  0  0  0  0  0  0  0  0
  146.7097  137.7877  157.1252 C   0  0  0  0  0  0  0  0  0  0  0  0
  147.0214  138.0010  155.7139 N   0  0  0  0  0  0  0  0  0  0  0  0
  146.9119  136.8713  154.9786 C   0  0  0  0  0  0  0  0  0  0  0  0
  147.6625  135.7803  155.2848 N   0  0  0  0  0  0  0  0  0  0  0  0
  147.5630  134.6738  154.5412 C   0  0  0  0  0  0  0  0  0  0  0  0
  146.8041  134.4573  153.4642 N   0  0  0  0  0  0  0  0  0  0  0  0
  146.0610  135.5574  153.1495 C   0  0  0  0  0  0  0  0  0  0  0  0
  146.0509  136.7929  153.8537 C   0  0  0  0  0  0  0  0  0  0  0  0
  145.1685  137.6807  153.2532 N   0  0  0  0  0  0  0  0  0  0  0  0
  144.6745  137.0031  152.2525 C   0  0  0  0  0  0  0  0  0  0  0  0
  145.1795  135.7309  152.0967 N   0  0  0  0  0  0  0  0  0  0  0  0
  144.7903  134.7701  151.1070 C   0  0  0  0  0  0  0  0  0  0  0  0
  144.2497  133.3951  151.5063 C   0  0  0  0  0  0  0  0  0  0  0  0
  144.8945  132.7822  150.2425 C   0  0  0  0  0  0  0  0  0  0  0  0
  145.5768  131.4192  150.4427 C   0  0  0  0  0  0  0  0  0  0  0  0
  146.6333  131.5083  151.3769 O   0  0  0  0  0  0  0  0  0  0  0  0
  143.9794  132.7138  149.0032 C   0  0  0  0  0  0  0  0  0  0  0  0
  142.7833  132.0141  149.2812 O   0  0  0  0  0  0  0  0  0  0  0  0
  145.8377  134.0045  150.2946 C   0  0  0  0  0  0  0  0  0  0  0  0
  148.2753  138.7350  155.5262 C   0  0  1  0  0  0  0  0  0  0  0  0
  148.5958  139.0555  154.0438 C   0  0  0  0  0  0  0  0  0  0  0  0
  147.4004  140.6817  155.9390 H   0  0  0  0  0  0  0  0  0  0  0  0
  149.0789  138.1202  155.9351 H   0  0  0  0  0  0  0  0  0  0  0  0
  153.1719  139.1339  154.6558 H   0  0  0  0  0  0  0  0  0  0  0  0
  152.1191  140.1465  155.6266 H   0  0  0  0  0  0  0  0  0  0  0  0
  152.4994  140.6056  153.9655 H   0  0  0  0  0  0  0  0  0  0  0  0
  151.3633  138.5128  153.1536 H   0  0  0  0  0  0  0  0  0  0  0  0
  150.8625  138.1258  154.7777 H   0  0  0  0  0  0  0  0  0  0  0  0
  150.8065  141.5991  154.5986 H   0  0  0  0  0  0  0  0  0  0  0  0
  149.1046  141.7265  154.2653 H   0  0  0  0  0  0  0  0  0  0  0  0
  150.3362  140.2733  156.6640 H   0  0  0  0  0  0  0  0  0  0  0  0
  149.4588  141.7795  156.7033 H   0  0  0  0  0  0  0  0  0  0  0  0
  146.5577  138.9525  158.9494 H   0  0  0  0  0  0  0  0  0  0  0  0
  145.8986  139.7675  157.5438 H   0  0  0  0  0  0  0  0  0  0  0  0
  147.4451  137.1168  157.5722 H   0  0  0  0  0  0  0  0  0  0  0  0
  145.7350  137.3075  157.2216 H   0  0  0  0  0  0  0  0  0  0  0  0
  148.1820  133.8444  154.8503 H   0  0  0  0  0  0  0  0  0  0  0  0
  143.9295  137.4200  151.5901 H   0  0  0  0  0  0  0  0  0  0  0  0
  144.0881  135.2837  150.4482 H   0  0  0  0  0  0  0  0  0  0  0  0
  144.6932  133.0282  152.4338 H   0  0  0  0  0  0  0  0  0  0  0  0
  143.1617  133.3353  151.5474 H   0  0  0  0  0  0  0  0  0  0  0  0
  144.8654  130.6819  150.8161 H   0  0  0  0  0  0  0  0  0  0  0  0
  145.9637  131.0205  149.5047 H   0  0  0  0  0  0  0  0  0  0  0  0
  147.4479  131.3543  150.9234 H   0  0  0  0  0  0  0  0  0  0  0  0
  143.7075  133.7118  148.6590 H   0  0  0  0  0  0  0  0  0  0  0  0
  144.4805  132.2320  148.1635 H   0  0  0  0  0  0  0  0  0  0  0  0
  142.0915  132.6442  149.4145 H   0  0  0  0  0  0  0  0  0  0  0  0
  146.0702  134.4467  149.3253 H   0  0  0  0  0  0  0  0  0  0  0  0
  146.7491  133.8115  150.8639 H   0  0  0  0  0  0  0  0  0  0  0  0
  147.7917  139.6563  153.6157 H   0  0  0  0  0  0  0  0  0  0  0  0
  148.6505  138.1504  153.4379 H   0  0  0  0  0  0  0  0  0  0  0  0
  149.9133  140.0842  152.9355 H   0  0  0  0  0  0  0  0  0  0  0  0
  1  2  1  0  0  0  0
  1 32  1  0  0  0  0
  1 33  1  0  0  0  0
  1 34  1  0  0  0  0
  2  3  1  0  0  0  0
  2 35  1  0  0  0  0
  2 36  1  0  0  0  0
  3 29  1  0  0  0  0
  3  4  1  0  0  0  0
  3 60  1  0  0  0  0
  4  5  1  0  0  0  0
  4 37  1  0  0  0  0
  4 38  1  0  0  0  0
  5  6  1  0  0  0  0
  5 39  1  0  0  0  0
  5 40  1  0  0  0  0
  6 30  1  0  0  0  0
  6 28  1  0  0  0  0
  6  7  1  0  0  0  0
  7  8  1  0  0  0  0
  8  9  1  0  0  0  0
  8 41  1  0  0  0  0
  8 42  1  0  0  0  0
  9 10  1  0  0  0  0
  9 43  1  0  0  0  0
  9 44  1  0  0  0  0
 10 11  1  0  0  0  0
 10 28  1  0  0  0  0
 11 16  1  0  0  0  0
 11 12  2  0  0  0  0
 12 13  1  0  0  0  0
 13 14  2  0  0  0  0
 13 45  1  0  0  0  0
 14 15  1  0  0  0  0
 15 19  1  0  0  0  0
 15 16  2  0  0  0  0
 16 17  1  0  0  0  0
 17 18  2  0  0  0  0
 18 19  1  0  0  0  0
 18 46  1  0  0  0  0
 19 20  1  0  0  0  0
 20 27  1  0  0  0  0
 20 21  1  0  0  0  0
 20 47  1  0  0  0  0
 21 22  1  0  0  0  0
 21 48  1  0  0  0  0
 21 49  1  0  0  0  0
 22 23  1  0  0  0  0
 22 25  1  0  0  0  0
 22 27  1  0  0  0  0
 23 24  1  0  0  0  0
 23 50  1  0  0  0  0
 23 51  1  0  0  0  0
 24 52  1  0  0  0  0
 25 26  1  0  0  0  0
 25 53  1  0  0  0  0
 25 54  1  0  0  0  0
 26 55  1  0  0  0  0
 27 56  1  0  0  0  0
 27 57  1  0  0  0  0
 28 31  1  0  0  0  0
 28 29  1  0  0  0  0
 29 58  1  0  0  0  0
 29 59  1  0  0  0  0
M  CHG  1   3   1
M  END
> <s_m_source_file>
AV-unprocessed.smi

> <i_m_source_file_index>
16

> <i_lp_mmshare_version>
43012

> <i_f3d_flags>
0

> <s_epik_input>
W0NIM11bQ0gyXU4oW0NIMl1bQ0gyXTEpW0NIMl1bQ0BASF0oW0NAQEhdMTIpTihbQ0gyXVtDSDJdTzIpYyhuW2NIXW4zKWMoYzM0KW5bY0hdbjRbQ0hdKFtDSDJdNSlbQ0gyXUM1KFtDSDJdW09IXSlbQ0gyXVtPSF0=

> <s_epik_cmdline>
J2VwaWtfcHl0aG9uJywgJy1waCcsICc3LjAnLCAnLXRuJywgJzgnLCAnLW1hJywgJzIwMCcsICctbWV0YWxfYmluZGluZycsICctaW1hZScsICc8aW5maWxlLm1hZT4nLCAnLW9tYWUnLCAnPG91dGZpbGUubWFlPic=

> <r_lp_tautomer_probability>
1

> <r_epik_Ionization_Penalty>
0.0135603

> <r_epik_Ionization_Penalty_Charging>
0.0131385

> <r_epik_Ionization_Penalty_Neutral>
0.000421734

> <r_epik_State_Penalty>
0.0102091

> <r_epik_Charging_Adjusted_Penalty>
0.0233476

> <i_epik_Tot_Q>
1

> <i_epik_Tot_abs_Q>
1

> <r_epik_Metal_State_Penalty>
0.0103746

> <b_epik_Metal_Only>
0

> <s_lp_Force_Field>
OPLS_2005

> <r_lp_Energy>
56.2472

> <b_lp_Chiralities_Consistent>
1

> <s_lp_Variant>
AV-unprocessed.smi:16-4

> <Gold.Version>
5.8.1

> <Gold.Id.Protein>
6NUR|6NUR_protein|mol2

> <Gold.PLP.Fitness>
50.2456

> <Gold.PLP.PLP>
-37.0027

> <Gold.PLP.part.hbond>
-5.4876

> <Gold.PLP.part.metal>
0.0000

> <Gold.PLP.part.buried>
-1.2055

> <Gold.PLP.part.nonpolar>
-30.3459

> <Gold.PLP.part.repulsive>
0.4765

> <Gold.PLP.ligand.clash>
0.0000

> <Gold.PLP.ligand.torsion>
1.0791

> <Gold.PLP.Chemscore.Hbond>
3.9100

> <Gold.PLP.Chemscore.CHOScore>
1.0000

> <Gold.PLP.Chemscore.Metal>
0.0000

> <Gold.Chemscore.Hbonds>
donor molecule, donor type, donor heavy atom, donor atom, acceptor molecule, acceptor atom, score
      L1  H     3    60       P1  7957  1.00
      L1  H    24    52       P1 10747  1.00
      L1  H    26    55       P1 10186  0.89
      P1  H 10785 10796       L1    26  1.00
      L1  C    18    46       P1 10171  1.00

> <Gold.PLP.Chemscore.Internal.Correction>
0.6712

> <Gold.Rescore>
     Score         DG    S(hbond)    S(metal)    S(lipo)     H(rot)  DE(clash)    DE(int)     intcor
     14.67     -17.67       3.20        0.00      85.62       3.33       1.97       1.03       ----

> <Gold.Chemscore.Fitness>
14.6735

> <Gold.Chemscore.DG>
-17.6717

> <Gold.Chemscore.ZeroCoef>
-5.4800

> <Gold.Chemscore.Hbond>
3.1994

> <Gold.Chemscore.Metal>
0.0000

> <Gold.Chemscore.Lipo>
85.6231

> <Gold.Chemscore.Internal_Hbond>
0.0000

> <Gold.Chemscore.DEClash>
1.9715

> <Gold.Chemscore.DEInternal>
1.0267

> <Gold.Chemscore.Rot>
3.3251

> <Gold.Chemscore.Internal.Correction>
   9.000000E+99

> <Gold.Chemscore.Hbonds>
donor molecule, donor type, donor heavy atom, donor atom, acceptor molecule, acceptor atom, score
      L1  H     3    60       P1  7957  0.99
      L1  H    24    52       P1 10747  1.00
      L1  H    26    55       P1 10186  0.87
      P1  H 10785 10796       L1    26  0.43

> <Gold.Chemscore.Hbond.Weighted>
-10.6860

> <Gold.Chemscore.Metal.Weighted>
-0.0000

> <Gold.Chemscore.Lipo.Weighted>
-10.0179

> <Gold.Chemscore.Internal_Hbond.Weighted>
0.0000

> <Gold.Chemscore.DEClash.Weighted>
1.9715

> <Gold.Chemscore.DEInternal.Weighted>
1.0267

> <Gold.Chemscore.Rot.Weighted>
8.5122

> <Gold.Chemscore.Internal.Correction.Weighted>
   9.000000E+99

> <Gold.Protein.RotatedTorsions>
[ 6907 6896 6895 6894 ] final   89.35 input  -60.11 | X-H torsion
[ 7974 7965 7964 7962 ] final  -55.04 input  175.53 | X-H torsion
[ 8008 7997 7996 7995 ] final   53.08 input   59.86 | X-H torsion
[ 10167 10162 10161 10158 ] final  124.31 input  -65.29 | X-H torsion
[ 10718 10713 10712 10709 ] final -157.67 input   66.30 | X-H torsion
[ 10763 10752 10751 10750 ] final   75.24 input  -60.55 | X-H torsion
[ 11005 11000 10999 10996 ] final -133.71 input  -57.11 | X-H torsion

> <Gold.Protein.ActiveResidues>
 VAL166  LYS551  ARG553  GLY616  TRP617  ASP618  TYR619  PRO620  LYS621  CYS622 
 ASP623  PHE694  ASN695  SER759  ASP760  ASP761  ALA762  ILE779  LEU786  VAL792 
 PHE793  MET794  SER795  GLU796  ALA797  LYS798  CYS799  TRP800  GLU811  SER814 

> <Gold.Protein.RotatedAtoms>
  152.5435  134.1980  159.8700 H   0  0  0  0  0  0  0  0  0  0  0  0  # atno 6907 bound_to 6896
  151.1971  133.4626  159.2603 H   0  0  0  0  0  0  0  0  0  0  0  0  # atno 6908 bound_to 6896
  151.1026  134.9993  159.8511 H   0  0  0  0  0  0  0  0  0  0  0  0  # atno 6909 bound_to 6896
  145.8787  140.8161  142.9851 H   0  0  0  0  0  0  0  0  0  0  0  0  # atno 7974 bound_to 7965
  155.4623  140.3462  155.4314 H   0  0  0  0  0  0  0  0  0  0  0  0  # atno 8008 bound_to 7997
  156.1153  140.1472  156.9311 H   0  0  0  0  0  0  0  0  0  0  0  0  # atno 8009 bound_to 7997
  154.4784  140.0877  156.7298 H   0  0  0  0  0  0  0  0  0  0  0  0  # atno 8010 bound_to 7997
  139.5749  144.6958  151.3680 H   0  0  0  0  0  0  0  0  0  0  0  0  # atno 10167 bound_to 10162
  156.5435  130.8573  151.2756 H   0  0  0  0  0  0  0  0  0  0  0  0  # atno 10718 bound_to 10713
  153.0641  135.4996  154.8160 H   0  0  0  0  0  0  0  0  0  0  0  0  # atno 10763 bound_to 10752
  154.6927  135.2987  154.9459 H   0  0  0  0  0  0  0  0  0  0  0  0  # atno 10764 bound_to 10752
  154.0208  135.6742  153.4825 H   0  0  0  0  0  0  0  0  0  0  0  0  # atno 10765 bound_to 10752
  140.9056  134.1634  157.4428 H   0  0  0  0  0  0  0  0  0  0  0  0  # atno 11005 bound_to 11000
  144.6727  140.1351  143.7441 LP  0  0  0  0  0  0  0  0  0  0  0  0  # atno 17320 bound_to 7965
  145.9049  139.2452  143.1471 LP  0  0  0  0  0  0  0  0  0  0  0  0  # atno 17321 bound_to 7965
  140.7032  143.7580  150.7437 LP  0  0  0  0  0  0  0  0  0  0  0  0  # atno 17342 bound_to 10162
  140.1097  143.4711  152.2377 LP  0  0  0  0  0  0  0  0  0  0  0  0  # atno 17343 bound_to 10162
  157.7401  130.9844  150.2355 LP  0  0  0  0  0  0  0  0  0  0  0  0  # atno 17370 bound_to 10713
  156.2950  130.3750  149.7805 LP  0  0  0  0  0  0  0  0  0  0  0  0  # atno 17371 bound_to 10713
  139.8749  134.9915  156.5554 LP  0  0  0  0  0  0  0  0  0  0  0  0  # atno 17394 bound_to 11000
  140.8175  133.8380  155.8866 LP  0  0  0  0  0  0  0  0  0  0  0  0  # atno 17395 bound_to 11000

$$$$
