AV-unprocessed.smi:1545|AV-procd|sdf|6216|dock5
  -GOLD-   22720 6383D 1   1.00000     0.00000
 Structure written by MMmdl.
 41 43  0  0  0  0  0  0  0  0  1 V2000
  153.0098  135.8403  156.8923 O   0  0  0  0  0  0  0  0  0  0  0  0
  152.1621  136.9661  156.8132 C   0  0  0  0  0  0  0  0  0  0  0  0
  152.9149  138.1596  156.2078 C   0  0  0  0  0  0  0  0  0  0  0  0
  152.0898  139.3522  156.1474 N   0  0  0  0  0  0  0  0  0  0  0  0
  150.9076  139.6365  155.4737 C   0  0  0  0  0  0  0  0  0  0  0  0
  150.2696  138.7703  154.6893 N   0  0  0  0  0  0  0  0  0  0  0  0
  149.1802  139.5069  154.2643 C   0  0  0  0  0  0  0  0  0  0  0  0
  148.1137  139.1551  153.4062 C   0  0  0  0  0  0  0  0  0  0  0  0
  147.0976  140.0873  153.1111 C   0  0  0  0  0  0  0  0  0  0  0  0
  147.1323  141.3821  153.6685 C   0  0  0  0  0  0  0  0  0  0  0  0
  148.1853  141.7543  154.5260 C   0  0  0  0  0  0  0  0  0  0  0  0
  149.1982  140.8209  154.8172 C   0  0  0  0  0  0  0  0  0  0  0  0
  150.3464  140.8617  155.6031 N   0  0  0  0  0  0  0  0  0  0  0  0
  150.8251  141.9885  156.3929 C   0  0  0  0  0  0  0  0  0  0  0  0
  150.0369  142.1669  157.7057 C   0  0  2  0  0  0  0  0  0  0  0  0
  148.8571  142.9094  157.4644 O   0  0  0  0  0  0  0  0  0  0  0  0
  150.8995  142.7916  158.7908 C   0  0  0  0  0  0  0  0  0  0  0  0
  150.6378  144.1086  159.2267 C   0  0  0  0  0  0  0  0  0  0  0  0
  151.4257  144.6917  160.2380 C   0  0  0  0  0  0  0  0  0  0  0  0
  152.4777  143.9604  160.8217 C   0  0  0  0  0  0  0  0  0  0  0  0
  152.7413  142.6449  160.3941 C   0  0  0  0  0  0  0  0  0  0  0  0
  153.7506  141.9396  160.9572 F   0  0  0  0  0  0  0  0  0  0  0  0
  151.9544  142.0614  159.3821 C   0  0  0  0  0  0  0  0  0  0  0  0
  153.6416  135.9864  157.5796 H   0  0  0  0  0  0  0  0  0  0  0  0
  151.2581  136.7279  156.2509 H   0  0  0  0  0  0  0  0  0  0  0  0
  151.8521  137.2100  157.8295 H   0  0  0  0  0  0  0  0  0  0  0  0
  153.7709  138.3997  156.8386 H   0  0  0  0  0  0  0  0  0  0  0  0
  153.3119  137.9196  155.2205 H   0  0  0  0  0  0  0  0  0  0  0  0
  152.4245  140.1017  156.7350 H   0  0  0  0  0  0  0  0  0  0  0  0
  148.0780  138.1656  152.9751 H   0  0  0  0  0  0  0  0  0  0  0  0
  146.2876  139.8068  152.4540 H   0  0  0  0  0  0  0  0  0  0  0  0
  146.3497  142.0898  153.4374 H   0  0  0  0  0  0  0  0  0  0  0  0
  148.2125  142.7447  154.9550 H   0  0  0  0  0  0  0  0  0  0  0  0
  151.8839  141.8357  156.6058 H   0  0  0  0  0  0  0  0  0  0  0  0
  150.7672  142.8929  155.7863 H   0  0  0  0  0  0  0  0  0  0  0  0
  149.7135  141.1867  158.0585 H   0  0  0  0  0  0  0  0  0  0  0  0
  148.9753  143.4131  156.6739 H   0  0  0  0  0  0  0  0  0  0  0  0
  149.8308  144.6768  158.7876 H   0  0  0  0  0  0  0  0  0  0  0  0
  151.2220  145.7000  160.5673 H   0  0  0  0  0  0  0  0  0  0  0  0
  153.0807  144.4077  161.5980 H   0  0  0  0  0  0  0  0  0  0  0  0
  152.1623  141.0505  159.0636 H   0  0  0  0  0  0  0  0  0  0  0  0
  1  2  1  0  0  0  0
  1 24  1  0  0  0  0
  2  3  1  0  0  0  0
  2 25  1  0  0  0  0
  2 26  1  0  0  0  0
  3  4  1  0  0  0  0
  3 27  1  0  0  0  0
  3 28  1  0  0  0  0
  4  5  1  0  0  0  0
  4 29  1  0  0  0  0
  5 13  1  0  0  0  0
  5  6  2  0  0  0  0
  6  7  1  0  0  0  0
  7 12  2  0  0  0  0
  7  8  1  0  0  0  0
  8  9  2  0  0  0  0
  8 30  1  0  0  0  0
  9 10  1  0  0  0  0
  9 31  1  0  0  0  0
 10 11  2  0  0  0  0
 10 32  1  0  0  0  0
 11 12  1  0  0  0  0
 11 33  1  0  0  0  0
 12 13  1  0  0  0  0
 13 14  1  0  0  0  0
 14 15  1  0  0  0  0
 14 34  1  0  0  0  0
 14 35  1  0  0  0  0
 15 16  1  0  0  0  0
 15 17  1  0  0  0  0
 15 36  1  0  0  0  0
 16 37  1  0  0  0  0
 17 23  1  0  0  0  0
 17 18  2  0  0  0  0
 18 19  1  0  0  0  0
 18 38  1  0  0  0  0
 19 20  2  0  0  0  0
 19 39  1  0  0  0  0
 20 21  1  0  0  0  0
 20 40  1  0  0  0  0
 21 22  1  0  0  0  0
 21 23  2  0  0  0  0
 23 41  1  0  0  0  0
M  END
> <s_m_source_file>
AV-unprocessed.smi

> <i_m_source_file_index>
1545

> <i_lp_mmshare_version>
43012

> <i_f3d_flags>
0

> <s_epik_input>
W09IXVtDSDJdW0NIMl1bTkhdYyhuMSluKGMoYzEyKVtjSF1bY0hdW2NIXVtjSF0yKVtDSDJdW0NASF0oW09IXSljM1tjSF1bY0hdW2NIXWMoRilbY0hdMw==

> <s_epik_cmdline>
J2VwaWtfcHl0aG9uJywgJy1waCcsICc3LjAnLCAnLXRuJywgJzgnLCAnLW1hJywgJzIwMCcsICctbWV0YWxfYmluZGluZycsICctaW1hZScsICc8aW5maWxlLm1hZT4nLCAnLW9tYWUnLCAnPG91dGZpbGUubWFlPic=

> <r_epik_Ionization_Penalty>
1.30972

> <r_epik_Ionization_Penalty_Charging>
0

> <r_epik_Ionization_Penalty_Neutral>
1.30972

> <r_epik_State_Penalty>
1.38438

> <r_epik_Charging_Adjusted_Penalty>
1.38438

> <i_epik_Tot_Q>
0

> <i_epik_Tot_abs_Q>
0

> <r_epik_Metal_State_Penalty>
0.00551145

> <b_epik_Metal_Only>
0

> <s_lp_Force_Field>
OPLS_2005

> <r_lp_Energy>
9.7293

> <b_lp_Chiralities_Consistent>
1

> <s_lp_Variant>
AV-unprocessed.smi:1545-3

> <Gold.Version>
5.8.1

> <Gold.Id.Protein>
6NUR|6NUR_protein|mol2

> <Gold.PLP.Fitness>
52.5448

> <Gold.PLP.PLP>
-48.0881

> <Gold.PLP.part.hbond>
-2.5102

> <Gold.PLP.part.metal>
0.0000

> <Gold.PLP.part.buried>
-2.2776

> <Gold.PLP.part.nonpolar>
-43.9842

> <Gold.PLP.part.repulsive>
0.2953

> <Gold.PLP.ligand.clash>
0.0000

> <Gold.PLP.ligand.torsion>
0.7926

> <Gold.PLP.Chemscore.Hbond>
2.0000

> <Gold.PLP.Chemscore.CHOScore>
0.0000

> <Gold.PLP.Chemscore.Metal>
0.0000

> <Gold.Chemscore.Hbonds>
donor molecule, donor type, donor heavy atom, donor atom, acceptor molecule, acceptor atom, score
      L1  H    16    37       P1  8028  1.00
      P1  H 10752 10763       L1     1  1.00

> <Gold.PLP.Chemscore.Internal.Correction>
0.0419

> <Gold.Rescore>
     Score         DG    S(hbond)    S(metal)    S(lipo)     H(rot)  DE(clash)    DE(int)     intcor
     16.84     -17.79       1.62        0.00     126.35       3.08       0.22       0.73       ----

> <Gold.Chemscore.Fitness>
16.8409

> <Gold.Chemscore.DG>
-17.7934

> <Gold.Chemscore.ZeroCoef>
-5.4800

> <Gold.Chemscore.Hbond>
1.6223

> <Gold.Chemscore.Metal>
0.0000

> <Gold.Chemscore.Lipo>
126.3479

> <Gold.Chemscore.Internal_Hbond>
0.0000

> <Gold.Chemscore.DEClash>
0.2249

> <Gold.Chemscore.DEInternal>
0.7275

> <Gold.Chemscore.Rot>
3.0812

> <Gold.Chemscore.Internal.Correction>
   9.000000E+99

> <Gold.Chemscore.Hbonds>
donor molecule, donor type, donor heavy atom, donor atom, acceptor molecule, acceptor atom, score
      L1  H    16    37       P1  8028  0.89
      P1  H 10752 10763       L1     1  0.55

> <Gold.Chemscore.Hbond.Weighted>
-5.4184

> <Gold.Chemscore.Metal.Weighted>
-0.0000

> <Gold.Chemscore.Lipo.Weighted>
-14.7827

> <Gold.Chemscore.Internal_Hbond.Weighted>
0.0000

> <Gold.Chemscore.DEClash.Weighted>
0.2249

> <Gold.Chemscore.DEInternal.Weighted>
0.7275

> <Gold.Chemscore.Rot.Weighted>
7.8878

> <Gold.Chemscore.Internal.Correction.Weighted>
   9.000000E+99

> <Gold.Protein.RotatedTorsions>
[ 6907 6896 6895 6894 ] final  -20.82 input  -60.11 | X-H torsion
[ 7974 7965 7964 7962 ] final  141.48 input  175.53 | X-H torsion
[ 8008 7997 7996 7995 ] final  163.85 input   59.86 | X-H torsion
[ 10167 10162 10161 10158 ] final -118.83 input  -65.29 | X-H torsion
[ 10718 10713 10712 10709 ] final  -63.49 input   66.30 | X-H torsion
[ 10763 10752 10751 10750 ] final  105.57 input  -60.55 | X-H torsion
[ 11005 11000 10999 10996 ] final  -34.84 input  -57.11 | X-H torsion

> <Gold.Protein.ActiveResidues>
 VAL166  LYS551  ARG553  GLY616  TRP617  ASP618  TYR619  PRO620  LYS621  CYS622 
 ASP623  PHE694  ASN695  SER759  ASP760  ASP761  ALA762  ILE779  LEU786  VAL792 
 PHE793  MET794  SER795  GLU796  ALA797  LYS798  CYS799  TRP800  GLU811  SER814 

> <Gold.Protein.RotatedAtoms>
  151.2425  135.0594  159.9030 H   0  0  0  0  0  0  0  0  0  0  0  0  # atno 6907 bound_to 6896
  152.5391  134.0419  159.8081 H   0  0  0  0  0  0  0  0  0  0  0  0  # atno 6908 bound_to 6896
  151.0614  133.5492  159.2665 H   0  0  0  0  0  0  0  0  0  0  0  0  # atno 6909 bound_to 6896
  144.9092  139.5315  143.5716 H   0  0  0  0  0  0  0  0  0  0  0  0  # atno 7974 bound_to 7965
  156.1925  140.1712  156.8063 H   0  0  0  0  0  0  0  0  0  0  0  0  # atno 8008 bound_to 7997
  154.5489  140.0721  156.8667 H   0  0  0  0  0  0  0  0  0  0  0  0  # atno 8009 bound_to 7997
  155.3067  140.3365  155.4248 H   0  0  0  0  0  0  0  0  0  0  0  0  # atno 8010 bound_to 7997
  140.0532  143.5039  152.2071 H   0  0  0  0  0  0  0  0  0  0  0  0  # atno 10167 bound_to 10162
  156.0788  130.4221  150.1285 H   0  0  0  0  0  0  0  0  0  0  0  0  # atno 10718 bound_to 10713
  153.3812  135.3905  155.1858 H   0  0  0  0  0  0  0  0  0  0  0  0  # atno 10763 bound_to 10752
  154.8708  135.3726  154.4855 H   0  0  0  0  0  0  0  0  0  0  0  0  # atno 10764 bound_to 10752
  153.5332  135.7085  153.5734 H   0  0  0  0  0  0  0  0  0  0  0  0  # atno 10765 bound_to 10752
  140.9748  133.7089  156.1584 H   0  0  0  0  0  0  0  0  0  0  0  0  # atno 11005 bound_to 11000
  146.3150  139.7885  142.8990 LP  0  0  0  0  0  0  0  0  0  0  0  0  # atno 17320 bound_to 7965
  145.3482  141.0302  143.3353 LP  0  0  0  0  0  0  0  0  0  0  0  0  # atno 17321 bound_to 7965
  139.5940  144.7560  151.3332 LP  0  0  0  0  0  0  0  0  0  0  0  0  # atno 17342 bound_to 10162
  140.7207  143.7144  150.7744 LP  0  0  0  0  0  0  0  0  0  0  0  0  # atno 17343 bound_to 10162
  156.9320  130.9717  151.3531 LP  0  0  0  0  0  0  0  0  0  0  0  0  # atno 17370 bound_to 10713
  157.5895  130.8433  149.8638 LP  0  0  0  0  0  0  0  0  0  0  0  0  # atno 17371 bound_to 10713
  140.7275  134.4291  157.5569 LP  0  0  0  0  0  0  0  0  0  0  0  0  # atno 17394 bound_to 11000
  139.8926  134.8750  156.2262 LP  0  0  0  0  0  0  0  0  0  0  0  0  # atno 17395 bound_to 11000

$$$$
