AV-unprocessed.smi:1447|AV-procd|sdf|5891|dock3
  -GOLD-   22720 5573D 1   1.00000     0.00000
 Structure written by MMmdl.
 48 50  0  0  0  0  0  0  0  0  2 V2000
  153.4676  138.4475  154.4910 C   0  0  0  0  0  0  0  0  0  0  0  0
  153.0329  139.5748  155.2301 O   0  0  0  0  0  0  0  0  0  0  0  0
  151.6478  139.5293  155.5305 C   0  0  0  0  0  0  0  0  0  0  0  0
  150.8437  139.2471  154.2506 C   0  0  0  0  0  0  0  0  0  0  0  0
  149.4699  139.7541  154.3453 N   0  0  0  0  0  0  0  0  0  0  0  0
  148.5047  138.8280  153.9857 N   0  0  0  0  0  0  0  0  0  0  0  0
  147.2506  139.1428  154.0340 C   0  0  0  0  0  0  0  0  0  0  0  0
  146.1841  138.1753  153.6545 C   0  0  0  0  0  0  0  0  0  0  0  0
  145.0498  138.2353  154.1318 O   0  0  0  0  0  0  0  0  0  0  0  0
  146.5472  137.2406  152.7572 N   0  0  0  0  0  0  0  0  0  0  0  0
  145.6805  136.1873  152.2387 C   0  0  2  0  0  0  0  0  0  0  0  0
  146.2440  134.8108  152.6281 C   0  0  0  0  0  0  0  0  0  0  0  0
  145.4056  133.6740  152.0195 C   0  0  0  0  0  0  0  0  0  0  0  0
  145.3170  133.8066  150.5442 N   0  3  1  0  0  0  0  0  0  0  0  0
  144.6110  132.6640  149.9246 C   0  0  0  0  0  0  0  0  0  0  0  0
  143.4878  132.1134  150.7722 C   0  0  0  0  0  0  0  0  0  0  0  0
  144.7948  131.3597  150.6649 C   0  0  0  0  0  0  0  0  0  0  0  0
  144.7322  135.1104  150.1439 C   0  0  0  0  0  0  0  0  0  0  0  0
  145.5560  136.2807  150.7060 C   0  0  0  0  0  0  0  0  0  0  0  0
  146.8314  140.4657  154.4638 C   0  0  0  0  0  0  0  0  0  0  0  0
  147.7839  141.3583  154.8120 C   0  0  0  0  0  0  0  0  0  0  0  0
  149.2093  141.0286  154.7668 C   0  0  0  0  0  0  0  0  0  0  0  0
  150.0927  141.8260  155.0800 O   0  0  0  0  0  0  0  0  0  0  0  0
  154.5337  138.5355  154.2821 H   0  0  0  0  0  0  0  0  0  0  0  0
  152.9432  138.3740  153.5374 H   0  0  0  0  0  0  0  0  0  0  0  0
  153.3090  137.5249  155.0508 H   0  0  0  0  0  0  0  0  0  0  0  0
  151.4633  138.7346  156.2551 H   0  0  0  0  0  0  0  0  0  0  0  0
  151.3227  140.4656  155.9877 H   0  0  0  0  0  0  0  0  0  0  0  0
  151.3627  139.6521  153.3805 H   0  0  0  0  0  0  0  0  0  0  0  0
  150.8107  138.1688  154.0849 H   0  0  0  0  0  0  0  0  0  0  0  0
  147.4978  137.2622  152.4160 H   0  0  0  0  0  0  0  0  0  0  0  0
  144.6897  136.2912  152.6854 H   0  0  0  0  0  0  0  0  0  0  0  0
  147.2764  134.7208  152.2862 H   0  0  0  0  0  0  0  0  0  0  0  0
  146.2676  134.7098  153.7138 H   0  0  0  0  0  0  0  0  0  0  0  0
  145.8563  132.7139  152.2735 H   0  0  0  0  0  0  0  0  0  0  0  0
  144.4018  133.6755  152.4476 H   0  0  0  0  0  0  0  0  0  0  0  0
  144.5293  132.6763  148.8390 H   0  0  0  0  0  0  0  0  0  0  0  0
  143.2679  132.6023  151.7196 H   0  0  0  0  0  0  0  0  0  0  0  0
  142.6269  131.6953  150.2543 H   0  0  0  0  0  0  0  0  0  0  0  0
  144.7953  130.4446  150.0761 H   0  0  0  0  0  0  0  0  0  0  0  0
  145.4399  131.3486  151.5416 H   0  0  0  0  0  0  0  0  0  0  0  0
  144.6995  135.1789  149.0558 H   0  0  0  0  0  0  0  0  0  0  0  0
  143.7013  135.1730  150.4961 H   0  0  0  0  0  0  0  0  0  0  0  0
  145.0895  137.2243  150.4202 H   0  0  0  0  0  0  0  0  0  0  0  0
  146.5477  136.2771  150.2513 H   0  0  0  0  0  0  0  0  0  0  0  0
  145.7866  140.7373  154.5060 H   0  0  0  0  0  0  0  0  0  0  0  0
  147.4863  142.3456  155.1336 H   0  0  0  0  0  0  0  0  0  0  0  0
  146.2628  133.7894  150.1904 H   0  0  0  0  0  0  0  0  0  0  0  0
  1  2  1  0  0  0  0
  1 24  1  0  0  0  0
  1 25  1  0  0  0  0
  1 26  1  0  0  0  0
  2  3  1  0  0  0  0
  3  4  1  0  0  0  0
  3 27  1  0  0  0  0
  3 28  1  0  0  0  0
  4  5  1  0  0  0  0
  4 29  1  0  0  0  0
  4 30  1  0  0  0  0
  5 22  1  0  0  0  0
  5  6  1  0  0  0  0
  6  7  2  0  0  0  0
  7  8  1  0  0  0  0
  7 20  1  0  0  0  0
  8  9  2  0  0  0  0
  8 10  1  0  0  0  0
 10 11  1  0  0  0  0
 10 31  1  0  0  0  0
 11 19  1  0  0  0  0
 11 12  1  0  0  0  0
 11 32  1  0  0  0  0
 12 13  1  0  0  0  0
 12 33  1  0  0  0  0
 12 34  1  0  0  0  0
 13 14  1  0  0  0  0
 13 35  1  0  0  0  0
 13 36  1  0  0  0  0
 14 15  1  0  0  0  0
 14 18  1  0  0  0  0
 14 48  1  0  0  0  0
 15 17  1  0  0  0  0
 15 16  1  0  0  0  0
 15 37  1  0  0  0  0
 16 17  1  0  0  0  0
 16 38  1  0  0  0  0
 16 39  1  0  0  0  0
 17 40  1  0  0  0  0
 17 41  1  0  0  0  0
 18 19  1  0  0  0  0
 18 42  1  0  0  0  0
 18 43  1  0  0  0  0
 19 44  1  0  0  0  0
 19 45  1  0  0  0  0
 20 21  2  0  0  0  0
 20 46  1  0  0  0  0
 21 22  1  0  0  0  0
 21 47  1  0  0  0  0
 22 23  2  0  0  0  0
M  CHG  1  14   1
M  END
> <s_m_source_file>
AV-unprocessed.smi

> <i_m_source_file_index>
1447

> <i_lp_mmshare_version>
43012

> <i_f3d_flags>
0

> <s_epik_input>
W0NIM11PW0NIMl1bQ0gyXW4xbmMoW2NIXVtjSF1jMT1PKUMoPU8pW05IXVtDSF0yW0NIMl1bQ0gyXU4oW0NIMl1bQ0gyXTIpW0NIXTNbQ0gyXVtDSDJdMw==

> <s_epik_cmdline>
J2VwaWtfcHl0aG9uJywgJy1waCcsICc3LjAnLCAnLXRuJywgJzgnLCAnLW1hJywgJzIwMCcsICctbWV0YWxfYmluZGluZycsICctaW1hZScsICc8aW5maWxlLm1hZT4nLCAnLW9tYWUnLCAnPG91dGZpbGUubWFlPic=

> <r_lp_tautomer_probability>
1

> <r_epik_Ionization_Penalty>
0.168623

> <r_epik_Ionization_Penalty_Charging>
0.16862

> <r_epik_Ionization_Penalty_Neutral>
2.93027e-06

> <r_epik_State_Penalty>
0.157986

> <r_epik_Charging_Adjusted_Penalty>
0.326605

> <i_epik_Tot_Q>
1

> <i_epik_Tot_abs_Q>
1

> <r_epik_Metal_State_Penalty>
0.157986

> <b_epik_Metal_Only>
0

> <s_lp_Force_Field>
OPLS_2005

> <r_lp_Energy>
46.6346

> <b_lp_Chiralities_Consistent>
1

> <s_lp_Variant>
AV-unprocessed.smi:1447-1

> <Gold.Version>
5.8.1

> <Gold.Id.Protein>
6NUR|6NUR_protein|mol2

> <Gold.PLP.Fitness>
42.3500

> <Gold.PLP.PLP>
-37.5486

> <Gold.PLP.part.hbond>
-3.2156

> <Gold.PLP.part.metal>
0.0000

> <Gold.PLP.part.buried>
1.5445

> <Gold.PLP.part.nonpolar>
-36.3615

> <Gold.PLP.part.repulsive>
1.3516

> <Gold.PLP.ligand.clash>
0.0000

> <Gold.PLP.ligand.torsion>
1.2230

> <Gold.PLP.Chemscore.Hbond>
1.9668

> <Gold.PLP.Chemscore.CHOScore>
0.0000

> <Gold.PLP.Chemscore.Metal>
0.0000

> <Gold.Chemscore.Hbonds>
donor molecule, donor type, donor heavy atom, donor atom, acceptor molecule, acceptor atom, score
      L1  H    10    31       P1  7948  0.91
      P1  H  7989  7998       L1    23  0.03
      P1  H  7997  8010       L1     2  1.00

> <Gold.PLP.Chemscore.Internal.Correction>
1.3472

> <Gold.Rescore>
     Score         DG    S(hbond)    S(metal)    S(lipo)     H(rot)  DE(clash)    DE(int)     intcor
     13.65     -17.78       1.88        0.00      90.10       1.76       1.61       2.51       ----

> <Gold.Chemscore.Fitness>
13.6510

> <Gold.Chemscore.DG>
-17.7790

> <Gold.Chemscore.ZeroCoef>
-5.4800

> <Gold.Chemscore.Hbond>
1.8757

> <Gold.Chemscore.Metal>
0.0000

> <Gold.Chemscore.Lipo>
90.1006

> <Gold.Chemscore.Internal_Hbond>
0.0000

> <Gold.Chemscore.DEClash>
1.6138

> <Gold.Chemscore.DEInternal>
2.5142

> <Gold.Chemscore.Rot>
1.7608

> <Gold.Chemscore.Internal.Correction>
   9.000000E+99

> <Gold.Chemscore.Hbonds>
donor molecule, donor type, donor heavy atom, donor atom, acceptor molecule, acceptor atom, score
      L1  H    10    31       P1  7948  0.90
      P1  H  7997  8010       L1     2  0.45

> <Gold.Chemscore.Hbond.Weighted>
-6.2650

> <Gold.Chemscore.Metal.Weighted>
-0.0000

> <Gold.Chemscore.Lipo.Weighted>
-10.5418

> <Gold.Chemscore.Internal_Hbond.Weighted>
0.0000

> <Gold.Chemscore.DEClash.Weighted>
1.6138

> <Gold.Chemscore.DEInternal.Weighted>
2.5142

> <Gold.Chemscore.Rot.Weighted>
4.5077

> <Gold.Chemscore.Internal.Correction.Weighted>
   9.000000E+99

> <Gold.Protein.RotatedTorsions>
[ 6907 6896 6895 6894 ] final   34.84 input  -60.11 | X-H torsion
[ 7974 7965 7964 7962 ] final -177.61 input  175.53 | X-H torsion
[ 8008 7997 7996 7995 ] final  102.37 input   59.86 | X-H torsion
[ 10167 10162 10161 10158 ] final -175.04 input  -65.29 | X-H torsion
[ 10718 10713 10712 10709 ] final  119.79 input   66.30 | X-H torsion
[ 10763 10752 10751 10750 ] final   26.44 input  -60.55 | X-H torsion
[ 11005 11000 10999 10996 ] final -153.60 input  -57.11 | X-H torsion

> <Gold.Protein.ActiveResidues>
 VAL166  LYS551  ARG553  GLY616  TRP617  ASP618  TYR619  PRO620  LYS621  CYS622 
 ASP623  PHE694  ASN695  SER759  ASP760  ASP761  ALA762  ILE779  LEU786  VAL792 
 PHE793  MET794  SER795  GLU796  ALA797  LYS798  CYS799  TRP800  GLU811  SER814 

> <Gold.Protein.RotatedAtoms>
  152.1079  134.9295  160.0567 H   0  0  0  0  0  0  0  0  0  0  0  0  # atno 6907 bound_to 6896
  152.0485  133.4003  159.4375 H   0  0  0  0  0  0  0  0  0  0  0  0  # atno 6908 bound_to 6896
  150.6842  134.3256  159.4848 H   0  0  0  0  0  0  0  0  0  0  0  0  # atno 6909 bound_to 6896
  144.7128  140.0993  143.6417 H   0  0  0  0  0  0  0  0  0  0  0  0  # atno 7974 bound_to 7965
  156.1386  140.3182  155.8460 H   0  0  0  0  0  0  0  0  0  0  0  0  # atno 8008 bound_to 7997
  155.4196  140.0511  157.3043 H   0  0  0  0  0  0  0  0  0  0  0  0  # atno 8009 bound_to 7997
  154.4958  140.2110  155.9463 H   0  0  0  0  0  0  0  0  0  0  0  0  # atno 8010 bound_to 7997
  139.5601  144.1890  152.1225 H   0  0  0  0  0  0  0  0  0  0  0  0  # atno 10167 bound_to 10162
  157.5937  131.1061  150.7945 H   0  0  0  0  0  0  0  0  0  0  0  0  # atno 10718 bound_to 10713
  153.0622  135.6560  154.0436 H   0  0  0  0  0  0  0  0  0  0  0  0  # atno 10763 bound_to 10752
  154.0101  135.2929  155.3394 H   0  0  0  0  0  0  0  0  0  0  0  0  # atno 10764 bound_to 10752
  154.6965  135.5262  153.8534 H   0  0  0  0  0  0  0  0  0  0  0  0  # atno 10765 bound_to 10752
  140.7064  134.3881  157.5203 H   0  0  0  0  0  0  0  0  0  0  0  0  # atno 11005 bound_to 11000
  145.9552  139.2761  143.1188 LP  0  0  0  0  0  0  0  0  0  0  0  0  # atno 17320 bound_to 7965
  145.9280  140.9068  143.0371 LP  0  0  0  0  0  0  0  0  0  0  0  0  # atno 17321 bound_to 7965
  140.1402  144.5209  150.6749 LP  0  0  0  0  0  0  0  0  0  0  0  0  # atno 17342 bound_to 10162
  140.6880  143.2360  151.5208 LP  0  0  0  0  0  0  0  0  0  0  0  0  # atno 17343 bound_to 10162
  156.8360  130.5032  149.5326 LP  0  0  0  0  0  0  0  0  0  0  0  0  # atno 17370 bound_to 10713
  156.0996  130.5959  150.9871 LP  0  0  0  0  0  0  0  0  0  0  0  0  # atno 17371 bound_to 10713
  139.8883  134.8860  156.2481 LP  0  0  0  0  0  0  0  0  0  0  0  0  # atno 17394 bound_to 11000
  141.0121  133.7089  156.1129 LP  0  0  0  0  0  0  0  0  0  0  0  0  # atno 17395 bound_to 11000

$$$$
