AV-unprocessed.smi:2195|AV-procd|sdf|8905|dock10
  -GOLD-   2272012123D 1   1.00000     0.00000
 Structure written by MMmdl.
 39 41  0  0  0  0  0  0  0  0  1 V2000
  156.1264  135.1272  166.0968 C   0  0  0  0  0  0  0  0  0  0  0  0
  156.0067  135.9073  164.8037 C   0  0  0  0  0  0  0  0  0  0  0  0
  155.6718  137.2758  164.8219 C   0  0  0  0  0  0  0  0  0  0  0  0
  155.5647  137.9925  163.6144 C   0  0  0  0  0  0  0  0  0  0  0  0
  155.7897  137.3587  162.3749 C   0  0  0  0  0  0  0  0  0  0  0  0
  155.6669  138.1362  161.2432 O   0  0  0  0  0  0  0  0  0  0  0  0
  154.8266  139.2818  161.2994 C   0  0  0  0  0  0  0  0  0  0  0  0
  154.7065  139.8760  159.8874 C   0  0  1  0  0  0  0  0  0  0  0  0
  154.9875  138.8571  158.9474 O   0  0  0  0  0  0  0  0  0  0  0  0
  153.2952  140.4315  159.6133 C   0  0  0  0  0  0  0  0  0  0  0  0
  153.0857  141.7358  160.2163 N   0  0  0  0  0  0  0  0  0  0  0  0
  153.4340  142.1242  161.4582 C   0  0  0  0  0  0  0  0  0  0  0  0
  153.1449  143.3743  161.8095 N   0  0  0  0  0  0  0  0  0  0  0  0
  152.5365  143.8528  160.6617 C   0  0  0  0  0  0  0  0  0  0  0  0
  151.9901  145.1244  160.3750 C   0  0  0  0  0  0  0  0  0  0  0  0
  151.4111  145.3858  159.1157 C   0  0  0  0  0  0  0  0  0  0  0  0
  151.3696  144.3827  158.1253 C   0  0  0  0  0  0  0  0  0  0  0  0
  151.9086  143.1084  158.3873 C   0  0  0  0  0  0  0  0  0  0  0  0
  152.4846  142.8518  159.6453 C   0  0  0  0  0  0  0  0  0  0  0  0
  156.1227  135.9806  162.3639 C   0  0  0  0  0  0  0  0  0  0  0  0
  156.2297  135.2630  163.5711 C   0  0  0  0  0  0  0  0  0  0  0  0
  156.0425  135.7808  166.9655 H   0  0  0  0  0  0  0  0  0  0  0  0
  157.0907  134.6208  166.1454 H   0  0  0  0  0  0  0  0  0  0  0  0
  155.3397  134.3750  166.1577 H   0  0  0  0  0  0  0  0  0  0  0  0
  155.4962  137.7819  165.7599 H   0  0  0  0  0  0  0  0  0  0  0  0
  155.3084  139.0414  163.6404 H   0  0  0  0  0  0  0  0  0  0  0  0
  153.8411  139.0424  161.7034 H   0  0  0  0  0  0  0  0  0  0  0  0
  155.2899  140.0154  161.9615 H   0  0  0  0  0  0  0  0  0  0  0  0
  155.4342  140.6798  159.7668 H   0  0  0  0  0  0  0  0  0  0  0  0
  154.4000  138.1340  159.1070 H   0  0  0  0  0  0  0  0  0  0  0  0
  153.1159  140.5084  158.5396 H   0  0  0  0  0  0  0  0  0  0  0  0
  152.5385  139.7522  160.0077 H   0  0  0  0  0  0  0  0  0  0  0  0
  153.9246  141.4495  162.1444 H   0  0  0  0  0  0  0  0  0  0  0  0
  152.0162  145.9001  161.1258 H   0  0  0  0  0  0  0  0  0  0  0  0
  150.9962  146.3615  158.9090 H   0  0  0  0  0  0  0  0  0  0  0  0
  150.9234  144.5919  157.1641 H   0  0  0  0  0  0  0  0  0  0  0  0
  151.8793  142.3370  157.6320 H   0  0  0  0  0  0  0  0  0  0  0  0
  156.3007  135.4490  161.4415 H   0  0  0  0  0  0  0  0  0  0  0  0
  156.4845  134.2135  163.5482 H   0  0  0  0  0  0  0  0  0  0  0  0
  1  2  1  0  0  0  0
  1 22  1  0  0  0  0
  1 23  1  0  0  0  0
  1 24  1  0  0  0  0
  2 21  1  0  0  0  0
  2  3  2  0  0  0  0
  3  4  1  0  0  0  0
  3 25  1  0  0  0  0
  4  5  2  0  0  0  0
  4 26  1  0  0  0  0
  5  6  1  0  0  0  0
  5 20  1  0  0  0  0
  6  7  1  0  0  0  0
  7  8  1  0  0  0  0
  7 27  1  0  0  0  0
  7 28  1  0  0  0  0
  8  9  1  0  0  0  0
  8 10  1  0  0  0  0
  8 29  1  0  0  0  0
  9 30  1  0  0  0  0
 10 11  1  0  0  0  0
 10 31  1  0  0  0  0
 10 32  1  0  0  0  0
 11 19  1  0  0  0  0
 11 12  1  0  0  0  0
 12 13  2  0  0  0  0
 12 33  1  0  0  0  0
 13 14  1  0  0  0  0
 14 19  2  0  0  0  0
 14 15  1  0  0  0  0
 15 16  2  0  0  0  0
 15 34  1  0  0  0  0
 16 17  1  0  0  0  0
 16 35  1  0  0  0  0
 17 18  2  0  0  0  0
 17 36  1  0  0  0  0
 18 19  1  0  0  0  0
 18 37  1  0  0  0  0
 20 21  2  0  0  0  0
 20 38  1  0  0  0  0
 21 39  1  0  0  0  0
M  END
> <s_m_source_file>
AV-unprocessed.smi

> <i_m_source_file_index>
2195

> <i_lp_mmshare_version>
43012

> <i_f3d_flags>
0

> <s_epik_input>
W0NIM11jMVtjSF1bY0hdYyhbY0hdW2NIXTEpT1tDSDJdW0NASF0oW09IXSlbQ0gyXW4oW2NIXW4yKWMoYzIzKVtjSF1bY0hdW2NIXVtjSF0z

> <s_epik_cmdline>
J2VwaWtfcHl0aG9uJywgJy1waCcsICc3LjAnLCAnLXRuJywgJzgnLCAnLW1hJywgJzIwMCcsICctbWV0YWxfYmluZGluZycsICctaW1hZScsICc8aW5maWxlLm1hZT4nLCAnLW9tYWUnLCAnPG91dGZpbGUubWFlPic=

> <r_lp_tautomer_probability>
1

> <r_epik_Ionization_Penalty>
0.0609831

> <r_epik_Ionization_Penalty_Charging>
0

> <r_epik_Ionization_Penalty_Neutral>
0.0609831

> <r_epik_State_Penalty>
0.0529032

> <r_epik_Charging_Adjusted_Penalty>
0.0529032

> <i_epik_Tot_Q>
0

> <i_epik_Tot_abs_Q>
0

> <r_epik_Metal_State_Penalty>
5.53344e-05

> <b_epik_Metal_Only>
0

> <s_lp_Force_Field>
OPLS_2005

> <r_lp_Energy>
16.3269

> <b_lp_Chiralities_Consistent>
1

> <s_lp_Variant>
AV-unprocessed.smi:2195-2

> <Gold.Version>
5.8.1

> <Gold.Id.Protein>
6NUR|6NUR_protein|mol2

> <Gold.PLP.Fitness>
55.8446

> <Gold.PLP.PLP>
-55.2947

> <Gold.PLP.part.hbond>
-1.0000

> <Gold.PLP.part.metal>
0.0000

> <Gold.PLP.part.buried>
-4.2528

> <Gold.PLP.part.nonpolar>
-49.9412

> <Gold.PLP.part.repulsive>
0.1209

> <Gold.PLP.ligand.clash>
0.0000

> <Gold.PLP.ligand.torsion>
1.2420

> <Gold.PLP.Chemscore.Hbond>
1.0000

> <Gold.PLP.Chemscore.CHOScore>
0.0000

> <Gold.PLP.Chemscore.Metal>
0.0000

> <Gold.Chemscore.Hbonds>
donor molecule, donor type, donor heavy atom, donor atom, acceptor molecule, acceptor atom, score
      P1  H  7997  8010       L1     9  0.90

> <Gold.PLP.Chemscore.Internal.Correction>
0.0339

> <Gold.Rescore>
     Score         DG    S(hbond)    S(metal)    S(lipo)     H(rot)  DE(clash)    DE(int)     intcor
     18.30     -20.07       0.90        0.00     146.98       2.19       0.45       1.32       ----

> <Gold.Chemscore.Fitness>
18.3004

> <Gold.Chemscore.DG>
-20.0725

> <Gold.Chemscore.ZeroCoef>
-5.4800

> <Gold.Chemscore.Hbond>
0.8971

> <Gold.Chemscore.Metal>
0.0000

> <Gold.Chemscore.Lipo>
146.9794

> <Gold.Chemscore.Internal_Hbond>
0.0000

> <Gold.Chemscore.DEClash>
0.4542

> <Gold.Chemscore.DEInternal>
1.3179

> <Gold.Chemscore.Rot>
2.1877

> <Gold.Chemscore.Internal.Correction>
   9.000000E+99

> <Gold.Chemscore.Hbonds>
donor molecule, donor type, donor heavy atom, donor atom, acceptor molecule, acceptor atom, score
      P1  H  7997  8010       L1     9  0.17

> <Gold.Chemscore.Hbond.Weighted>
-2.9964

> <Gold.Chemscore.Metal.Weighted>
-0.0000

> <Gold.Chemscore.Lipo.Weighted>
-17.1966

> <Gold.Chemscore.Internal_Hbond.Weighted>
0.0000

> <Gold.Chemscore.DEClash.Weighted>
0.4542

> <Gold.Chemscore.DEInternal.Weighted>
1.3179

> <Gold.Chemscore.Rot.Weighted>
5.6005

> <Gold.Chemscore.Internal.Correction.Weighted>
   9.000000E+99

> <Gold.Protein.RotatedTorsions>
[ 6907 6896 6895 6894 ] final  -58.44 input  -60.11 | X-H torsion
[ 7974 7965 7964 7962 ] final  140.06 input  175.53 | X-H torsion
[ 8008 7997 7996 7995 ] final   -7.36 input   59.86 | X-H torsion
[ 10167 10162 10161 10158 ] final  -68.20 input  -65.29 | X-H torsion
[ 10718 10713 10712 10709 ] final    1.46 input   66.30 | X-H torsion
[ 10763 10752 10751 10750 ] final  -18.52 input  -60.55 | X-H torsion
[ 11005 11000 10999 10996 ] final -120.66 input  -57.11 | X-H torsion

> <Gold.Protein.ActiveResidues>
 VAL166  LYS551  ARG553  GLY616  TRP617  ASP618  TYR619  PRO620  LYS621  CYS622 
 ASP623  PHE694  ASN695  SER759  ASP760  ASP761  ALA762  ILE779  LEU786  VAL792 
 PHE793  MET794  SER795  GLU796  ALA797  LYS798  CYS799  TRP800  GLU811  SER814 

> <Gold.Protein.RotatedAtoms>
  150.8007  134.7098  159.6596 H   0  0  0  0  0  0  0  0  0  0  0  0  # atno 6907 bound_to 6896
  152.4123  134.6099  160.0032 H   0  0  0  0  0  0  0  0  0  0  0  0  # atno 6908 bound_to 6896
  151.6338  133.3293  159.3151 H   0  0  0  0  0  0  0  0  0  0  0  0  # atno 6909 bound_to 6896
  144.9221  139.5154  143.5658 H   0  0  0  0  0  0  0  0  0  0  0  0  # atno 7974 bound_to 7965
  154.5846  140.2409  155.8005 H   0  0  0  0  0  0  0  0  0  0  0  0  # atno 8008 bound_to 7997
  156.2204  140.2999  155.9894 H   0  0  0  0  0  0  0  0  0  0  0  0  # atno 8009 bound_to 7997
  155.2481  140.0409  157.2974 H   0  0  0  0  0  0  0  0  0  0  0  0  # atno 8010 bound_to 7997
  140.5525  143.2312  151.6883 H   0  0  0  0  0  0  0  0  0  0  0  0  # atno 10167 bound_to 10162
  156.8485  130.5545  149.5671 H   0  0  0  0  0  0  0  0  0  0  0  0  # atno 10718 bound_to 10713
  153.5906  135.7002  153.5425 H   0  0  0  0  0  0  0  0  0  0  0  0  # atno 10763 bound_to 10752
  153.3182  135.4081  155.1394 H   0  0  0  0  0  0  0  0  0  0  0  0  # atno 10764 bound_to 10752
  154.8601  135.3689  154.5437 H   0  0  0  0  0  0  0  0  0  0  0  0  # atno 10765 bound_to 10752
  141.0127  134.0241  157.3392 H   0  0  0  0  0  0  0  0  0  0  0  0  # atno 11005 bound_to 11000
  146.3209  139.8108  142.8946 LP  0  0  0  0  0  0  0  0  0  0  0  0  # atno 17320 bound_to 7965
  145.3279  141.0259  143.3463 LP  0  0  0  0  0  0  0  0  0  0  0  0  # atno 17321 bound_to 7965
  139.5033  144.3794  152.0391 LP  0  0  0  0  0  0  0  0  0  0  0  0  # atno 17342 bound_to 10162
  140.2913  144.3751  150.6088 LP  0  0  0  0  0  0  0  0  0  0  0  0  # atno 17343 bound_to 10162
  156.0841  130.5844  150.9617 LP  0  0  0  0  0  0  0  0  0  0  0  0  # atno 17370 bound_to 10713
  157.6317  131.0920  150.8429 LP  0  0  0  0  0  0  0  0  0  0  0  0  # atno 17371 bound_to 10713
  139.9099  135.0188  156.7647 LP  0  0  0  0  0  0  0  0  0  0  0  0  # atno 17394 bound_to 11000
  140.6706  133.9563  155.7855 LP  0  0  0  0  0  0  0  0  0  0  0  0  # atno 17395 bound_to 11000

$$$$
