AV-unprocessed.smi:1184|AV-procd|sdf|4972|dock8
  -GOLD-   22720 3563D 1   1.00000     0.00000
 Structure written by MMmdl.
 43 44  0  0  0  0  0  0  0  0  2 V2000
  145.5293  136.0914  151.5344 C   0  0  0  0  0  0  0  0  0  0  0  0
  144.5227  135.4206  150.5882 C   0  0  0  0  0  0  0  0  0  0  0  0
  145.0196  134.1250  150.0689 N   0  3  2  0  0  0  0  0  0  0  0  0
  143.9918  133.2934  149.3984 C   0  0  0  0  0  0  0  0  0  0  0  0
  144.2074  131.8476  149.8710 C   0  0  0  0  0  0  0  0  0  0  0  0
  145.5978  131.8517  150.5043 C   0  0  2  0  0  0  0  0  0  0  0  0
  145.8355  130.7238  151.5280 C   0  0  0  0  0  0  0  0  0  0  0  0
  147.1713  130.8281  152.1048 N   0  0  0  0  0  0  0  0  0  0  0  0
  147.4418  131.2331  153.3556 C   0  0  0  0  0  0  0  0  0  0  0  0
  146.5838  131.3862  154.2245 O   0  0  0  0  0  0  0  0  0  0  0  0
  148.8944  131.6036  153.6445 C   0  0  0  0  0  0  0  0  0  0  0  0
  149.5089  130.4964  154.4642 C   0  0  0  0  0  0  0  0  0  0  0  0
  149.5427  129.1026  154.1716 C   0  0  0  0  0  0  0  0  0  0  0  0
  148.9584  128.3806  152.9914 C   0  0  0  0  0  0  0  0  0  0  0  0
  150.2026  128.4206  155.0925 N   0  0  0  0  0  0  0  0  0  0  0  0
  150.6270  129.3608  156.0361 O   0  0  0  0  0  0  0  0  0  0  0  0
  150.2012  130.5872  155.6412 C   0  0  0  0  0  0  0  0  0  0  0  0
  150.5773  131.7364  156.5140 C   0  0  0  0  0  0  0  0  0  0  0  0
  145.6898  133.2707  151.0683 C   0  0  0  0  0  0  0  0  0  0  0  0
  145.1709  137.0736  151.8435 H   0  0  0  0  0  0  0  0  0  0  0  0
  146.4964  136.2297  151.0496 H   0  0  0  0  0  0  0  0  0  0  0  0
  145.6879  135.5032  152.4387 H   0  0  0  0  0  0  0  0  0  0  0  0
  143.5662  135.2775  151.0929 H   0  0  0  0  0  0  0  0  0  0  0  0
  144.3368  136.0855  149.7438 H   0  0  0  0  0  0  0  0  0  0  0  0
  142.9793  133.6242  149.6351 H   0  0  0  0  0  0  0  0  0  0  0  0
  144.1231  133.3778  148.3193 H   0  0  0  0  0  0  0  0  0  0  0  0
  143.4556  131.5961  150.6205 H   0  0  0  0  0  0  0  0  0  0  0  0
  144.1203  131.1237  149.0602 H   0  0  0  0  0  0  0  0  0  0  0  0
  146.3353  131.7601  149.7048 H   0  0  0  0  0  0  0  0  0  0  0  0
  145.0697  130.7403  152.3055 H   0  0  0  0  0  0  0  0  0  0  0  0
  145.7506  129.7549  151.0354 H   0  0  0  0  0  0  0  0  0  0  0  0
  147.9486  130.7110  151.4708 H   0  0  0  0  0  0  0  0  0  0  0  0
  149.4245  131.7458  152.7021 H   0  0  0  0  0  0  0  0  0  0  0  0
  148.9307  132.5617  154.1643 H   0  0  0  0  0  0  0  0  0  0  0  0
  149.1588  128.9185  152.0648 H   0  0  0  0  0  0  0  0  0  0  0  0
  147.8776  128.2831  153.0920 H   0  0  0  0  0  0  0  0  0  0  0  0
  149.3741  127.3781  152.8849 H   0  0  0  0  0  0  0  0  0  0  0  0
  149.8484  132.5428  156.4325 H   0  0  0  0  0  0  0  0  0  0  0  0
  151.5516  132.1325  156.2277 H   0  0  0  0  0  0  0  0  0  0  0  0
  150.6280  131.4329  157.5598 H   0  0  0  0  0  0  0  0  0  0  0  0
  146.7198  133.5887  151.2311 H   0  0  0  0  0  0  0  0  0  0  0  0
  145.1605  133.3296  152.0211 H   0  0  0  0  0  0  0  0  0  0  0  0
  145.7113  134.3309  149.3621 H   0  0  0  0  0  0  0  0  0  0  0  0
  1  2  1  0  0  0  0
  1 20  1  0  0  0  0
  1 21  1  0  0  0  0
  1 22  1  0  0  0  0
  2  3  1  0  0  0  0
  2 23  1  0  0  0  0
  2 24  1  0  0  0  0
  3 19  1  0  0  0  0
  3  4  1  0  0  0  0
  3 43  1  0  0  0  0
  4  5  1  0  0  0  0
  4 25  1  0  0  0  0
  4 26  1  0  0  0  0
  5  6  1  0  0  0  0
  5 27  1  0  0  0  0
  5 28  1  0  0  0  0
  6  7  1  0  0  0  0
  6 19  1  0  0  0  0
  6 29  1  0  0  0  0
  7  8  1  0  0  0  0
  7 30  1  0  0  0  0
  7 31  1  0  0  0  0
  8  9  1  0  0  0  0
  8 32  1  0  0  0  0
  9 10  2  0  0  0  0
  9 11  1  0  0  0  0
 11 12  1  0  0  0  0
 11 33  1  0  0  0  0
 11 34  1  0  0  0  0
 12 17  2  0  0  0  0
 12 13  1  0  0  0  0
 13 14  1  0  0  0  0
 13 15  2  0  0  0  0
 14 35  1  0  0  0  0
 14 36  1  0  0  0  0
 14 37  1  0  0  0  0
 15 16  1  0  0  0  0
 16 17  1  0  0  0  0
 17 18  1  0  0  0  0
 18 38  1  0  0  0  0
 18 39  1  0  0  0  0
 18 40  1  0  0  0  0
 19 41  1  0  0  0  0
 19 42  1  0  0  0  0
M  CHG  1   3   1
M  END
> <s_m_source_file>
AV-unprocessed.smi

> <i_m_source_file_index>
1184

> <i_lp_mmshare_version>
43012

> <i_f3d_flags>
0

> <s_epik_input>
W0NIM11bQ0gyXU4xW0NIMl1bQ0gyXVtDQEhdKFtDSDJdMSlbQ0gyXVtOSF1DKD1PKVtDSDJdYzJjKFtDSDNdKW5vYzJbQ0gzXQ==

> <s_epik_cmdline>
J2VwaWtfcHl0aG9uJywgJy1waCcsICc3LjAnLCAnLXRuJywgJzgnLCAnLW1hJywgJzIwMCcsICctbWV0YWxfYmluZGluZycsICctaW1hZScsICc8aW5maWxlLm1hZT4nLCAnLW9tYWUnLCAnPG91dGZpbGUubWFlPic=

> <r_epik_Ionization_Penalty>
0.000590726

> <r_epik_Ionization_Penalty_Charging>
0.000590692

> <r_epik_Ionization_Penalty_Neutral>
3.44741e-08

> <r_epik_State_Penalty>
0.000371644

> <r_epik_Charging_Adjusted_Penalty>
0.000962336

> <i_epik_Tot_Q>
1

> <i_epik_Tot_abs_Q>
1

> <r_epik_Metal_State_Penalty>
-0

> <b_epik_Metal_Only>
0

> <s_lp_Force_Field>
OPLS_2005

> <r_lp_Energy>
20.136

> <b_lp_Chiralities_Consistent>
1

> <s_lp_Variant>
AV-unprocessed.smi:1184-4

> <Gold.Version>
5.8.1

> <Gold.Id.Protein>
6NUR|6NUR_protein|mol2

> <Gold.PLP.Fitness>
41.2161

> <Gold.PLP.PLP>
-36.0948

> <Gold.PLP.part.hbond>
-2.0000

> <Gold.PLP.part.metal>
0.0000

> <Gold.PLP.part.buried>
-4.3861

> <Gold.PLP.part.nonpolar>
-30.7280

> <Gold.PLP.part.repulsive>
0.2383

> <Gold.PLP.ligand.clash>
0.0000

> <Gold.PLP.ligand.torsion>
0.4598

> <Gold.PLP.Chemscore.Hbond>
2.0000

> <Gold.PLP.Chemscore.CHOScore>
0.0000

> <Gold.PLP.Chemscore.Metal>
0.0000

> <Gold.Chemscore.Hbonds>
donor molecule, donor type, donor heavy atom, donor atom, acceptor molecule, acceptor atom, score
      L1  H     3    43       P1  7921  1.00
      L1  H     8    32       P1 10747  1.00

> <Gold.PLP.Chemscore.Internal.Correction>
0.0410

> <Gold.Rescore>
     Score         DG    S(hbond)    S(metal)    S(lipo)     H(rot)  DE(clash)    DE(int)     intcor
     17.27     -17.72       1.78        0.00      90.34       1.67       0.05       0.40       ----

> <Gold.Chemscore.Fitness>
17.2741

> <Gold.Chemscore.DG>
-17.7193

> <Gold.Chemscore.ZeroCoef>
-5.4800

> <Gold.Chemscore.Hbond>
1.7788

> <Gold.Chemscore.Metal>
0.0000

> <Gold.Chemscore.Lipo>
90.3374

> <Gold.Chemscore.Internal_Hbond>
0.0000

> <Gold.Chemscore.DEClash>
0.0480

> <Gold.Chemscore.DEInternal>
0.3972

> <Gold.Chemscore.Rot>
1.6684

> <Gold.Chemscore.Internal.Correction>
   9.000000E+99

> <Gold.Chemscore.Hbonds>
donor molecule, donor type, donor heavy atom, donor atom, acceptor molecule, acceptor atom, score
      L1  H     3    43       P1  7921  0.71
      L1  H     8    32       P1 10747  0.97

> <Gold.Chemscore.Hbond.Weighted>
-5.9411

> <Gold.Chemscore.Metal.Weighted>
-0.0000

> <Gold.Chemscore.Lipo.Weighted>
-10.5695

> <Gold.Chemscore.Internal_Hbond.Weighted>
0.0000

> <Gold.Chemscore.DEClash.Weighted>
0.0480

> <Gold.Chemscore.DEInternal.Weighted>
0.3972

> <Gold.Chemscore.Rot.Weighted>
4.2712

> <Gold.Chemscore.Internal.Correction.Weighted>
   9.000000E+99

> <Gold.Protein.RotatedTorsions>
[ 6907 6896 6895 6894 ] final   62.15 input  -60.11 | X-H torsion
[ 7974 7965 7964 7962 ] final -173.36 input  175.53 | X-H torsion
[ 8008 7997 7996 7995 ] final  137.61 input   59.86 | X-H torsion
[ 10167 10162 10161 10158 ] final   33.49 input  -65.29 | X-H torsion
[ 10718 10713 10712 10709 ] final   47.16 input   66.30 | X-H torsion
[ 10763 10752 10751 10750 ] final  108.97 input  -60.55 | X-H torsion
[ 11005 11000 10999 10996 ] final  104.69 input  -57.11 | X-H torsion

> <Gold.Protein.ActiveResidues>
 VAL166  LYS551  ARG553  GLY616  TRP617  ASP618  TYR619  PRO620  LYS621  CYS622 
 ASP623  PHE694  ASN695  SER759  ASP760  ASP761  ALA762  ILE779  LEU786  VAL792 
 PHE793  MET794  SER795  GLU796  ALA797  LYS798  CYS799  TRP800  GLU811  SER814 

> <Gold.Protein.RotatedAtoms>
  152.4148  134.6061  160.0012 H   0  0  0  0  0  0  0  0  0  0  0  0  # atno 6907 bound_to 6896
  151.6228  133.3332  159.3099 H   0  0  0  0  0  0  0  0  0  0  0  0  # atno 6908 bound_to 6896
  150.8037  134.7187  159.6690 H   0  0  0  0  0  0  0  0  0  0  0  0  # atno 6909 bound_to 6896
  144.7138  140.1634  143.6374 H   0  0  0  0  0  0  0  0  0  0  0  0  # atno 7974 bound_to 7965
  156.3001  140.2415  156.3938 H   0  0  0  0  0  0  0  0  0  0  0  0  # atno 8008 bound_to 7997
  154.8589  140.0421  157.1672 H   0  0  0  0  0  0  0  0  0  0  0  0  # atno 8009 bound_to 7997
  154.8917  140.2964  155.5370 H   0  0  0  0  0  0  0  0  0  0  0  0  # atno 8010 bound_to 7997
  140.4402  144.1198  150.6173 H   0  0  0  0  0  0  0  0  0  0  0  0  # atno 10167 bound_to 10162
  157.4556  130.8165  149.7833 H   0  0  0  0  0  0  0  0  0  0  0  0  # atno 10718 bound_to 10713
  153.4281  135.3795  155.2153 H   0  0  0  0  0  0  0  0  0  0  0  0  # atno 10763 bound_to 10752
  154.8748  135.3833  154.4302 H   0  0  0  0  0  0  0  0  0  0  0  0  # atno 10764 bound_to 10752
  153.4831  135.7088  153.5990 H   0  0  0  0  0  0  0  0  0  0  0  0  # atno 10765 bound_to 10752
  139.8794  134.9309  156.5400 H   0  0  0  0  0  0  0  0  0  0  0  0  # atno 11005 bound_to 11000
  145.9010  139.2430  143.1493 LP  0  0  0  0  0  0  0  0  0  0  0  0  # atno 17320 bound_to 7965
  145.9811  140.8682  143.0114 LP  0  0  0  0  0  0  0  0  0  0  0  0  # atno 17321 bound_to 7965
  140.4327  143.2561  151.9575 LP  0  0  0  0  0  0  0  0  0  0  0  0  # atno 17342 bound_to 10162
  139.4789  144.5729  151.8059 LP  0  0  0  0  0  0  0  0  0  0  0  0  # atno 17343 bound_to 10162
  156.0006  130.3882  150.2622 LP  0  0  0  0  0  0  0  0  0  0  0  0  # atno 17370 bound_to 10713
  157.0796  131.0139  151.3161 LP  0  0  0  0  0  0  0  0  0  0  0  0  # atno 17371 bound_to 10713
  140.8317  133.8273  155.8990 LP  0  0  0  0  0  0  0  0  0  0  0  0  # atno 17394 bound_to 11000
  140.9322  134.2007  157.4856 LP  0  0  0  0  0  0  0  0  0  0  0  0  # atno 17395 bound_to 11000

$$$$
