AV-unprocessed.smi:1879|AV-procd|sdf|7633|dock3
  -GOLD-   22720 9353D 1   1.00000     0.00000
 Structure written by MMmdl.
 47 49  0  0  0  0  0  0  0  0  2 V2000
  147.1902  132.2596  153.1577 O   0  0  0  0  0  0  0  0  0  0  0  0
  147.6380  133.3874  152.9508 C   0  0  0  0  0  0  0  0  0  0  0  0
  148.7040  133.9223  153.5701 N   0  0  0  0  0  0  0  0  0  0  0  0
  149.5252  133.3379  154.5766 C   0  0  0  0  0  0  0  0  0  0  0  0
  149.7900  131.9439  154.5990 C   0  0  0  0  0  0  0  0  0  0  0  0
  150.5863  131.3950  155.6215 C   0  0  0  0  0  0  0  0  0  0  0  0
  151.1117  132.2483  156.6063 C   0  0  0  0  0  0  0  0  0  0  0  0
  150.8605  133.5723  156.5461 N   0  3  0  0  0  0  0  0  0  0  0  0
  150.1147  134.1628  155.5789 C   0  0  0  0  0  0  0  0  0  0  0  0
  149.9525  135.5660  155.6354 N   0  0  0  0  0  0  0  0  0  0  0  0
  150.6999  136.4324  154.7310 C   0  0  0  0  0  0  0  0  0  0  0  0
  150.0102  137.7908  154.8242 C   0  0  0  0  0  0  0  0  0  0  0  0
  148.5462  137.4015  155.0056 C   0  0  0  0  0  0  0  0  0  0  0  0
  148.6140  136.1137  155.8332 C   0  0  0  0  0  0  0  0  0  0  0  0
  147.0985  134.2521  152.0798 N   0  0  0  0  0  0  0  0  0  0  0  0
  145.9295  133.9901  151.2452 C   0  0  2  0  0  0  0  0  0  0  0  0
  144.7251  133.6429  152.1411 C   0  0  0  0  0  0  0  0  0  0  0  0
  143.4811  133.3006  151.3053 C   0  0  0  0  0  0  0  0  0  0  0  0
  143.7756  132.1602  150.3157 C   0  0  1  0  0  0  0  0  0  0  0  0
  142.6351  131.9187  149.5193 O   0  0  0  0  0  0  0  0  0  0  0  0
  144.9706  132.5076  149.4115 C   0  0  0  0  0  0  0  0  0  0  0  0
  146.2158  132.8497  150.2457 C   0  0  0  0  0  0  0  0  0  0  0  0
  148.8919  134.8927  153.3657 H   0  0  0  0  0  0  0  0  0  0  0  0
  149.3989  131.2822  153.8412 H   0  0  0  0  0  0  0  0  0  0  0  0
  150.7887  130.3342  155.6493 H   0  0  0  0  0  0  0  0  0  0  0  0
  151.7290  131.9175  157.4291 H   0  0  0  0  0  0  0  0  0  0  0  0
  151.7514  136.4919  155.0133 H   0  0  0  0  0  0  0  0  0  0  0  0
  150.6378  136.0621  153.7070 H   0  0  0  0  0  0  0  0  0  0  0  0
  150.3635  138.3308  155.7041 H   0  0  0  0  0  0  0  0  0  0  0  0
  150.1825  138.4168  153.9483 H   0  0  0  0  0  0  0  0  0  0  0  0
  147.9530  138.1818  155.4832 H   0  0  0  0  0  0  0  0  0  0  0  0
  148.1011  137.1897  154.0323 H   0  0  0  0  0  0  0  0  0  0  0  0
  147.8334  135.4116  155.5372 H   0  0  0  0  0  0  0  0  0  0  0  0
  148.4826  136.3443  156.8907 H   0  0  0  0  0  0  0  0  0  0  0  0
  147.5291  135.1597  151.9803 H   0  0  0  0  0  0  0  0  0  0  0  0
  145.6839  134.8951  150.6858 H   0  0  0  0  0  0  0  0  0  0  0  0
  144.9722  132.7951  152.7820 H   0  0  0  0  0  0  0  0  0  0  0  0
  144.5008  134.4776  152.8063 H   0  0  0  0  0  0  0  0  0  0  0  0
  142.6592  133.0212  151.9655 H   0  0  0  0  0  0  0  0  0  0  0  0
  143.1550  134.1892  150.7629 H   0  0  0  0  0  0  0  0  0  0  0  0
  143.9953  131.2475  150.8710 H   0  0  0  0  0  0  0  0  0  0  0  0
  142.1716  132.7340  149.4024 H   0  0  0  0  0  0  0  0  0  0  0  0
  145.1911  131.6736  148.7441 H   0  0  0  0  0  0  0  0  0  0  0  0
  144.7198  133.3567  148.7739 H   0  0  0  0  0  0  0  0  0  0  0  0
  147.0336  133.1270  149.5796 H   0  0  0  0  0  0  0  0  0  0  0  0
  146.5451  131.9599  150.7843 H   0  0  0  0  0  0  0  0  0  0  0  0
  151.2654  134.1671  157.2692 H   0  0  0  0  0  0  0  0  0  0  0  0
  1  2  2  0  0  0  0
  2  3  1  0  0  0  0
  2 15  1  0  0  0  0
  3  4  1  0  0  0  0
  3 23  1  0  0  0  0
  4  9  1  0  0  0  0
  4  5  2  0  0  0  0
  5  6  1  0  0  0  0
  5 24  1  0  0  0  0
  6  7  2  0  0  0  0
  6 25  1  0  0  0  0
  7  8  1  0  0  0  0
  7 26  1  0  0  0  0
  8  9  2  0  0  0  0
  8 47  1  0  0  0  0
  9 10  1  0  0  0  0
 10 14  1  0  0  0  0
 10 11  1  0  0  0  0
 11 12  1  0  0  0  0
 11 27  1  0  0  0  0
 11 28  1  0  0  0  0
 12 13  1  0  0  0  0
 12 29  1  0  0  0  0
 12 30  1  0  0  0  0
 13 14  1  0  0  0  0
 13 31  1  0  0  0  0
 13 32  1  0  0  0  0
 14 33  1  0  0  0  0
 14 34  1  0  0  0  0
 15 16  1  0  0  0  0
 15 35  1  0  0  0  0
 16 22  1  0  0  0  0
 16 17  1  0  0  0  0
 16 36  1  0  0  0  0
 17 18  1  0  0  0  0
 17 37  1  0  0  0  0
 17 38  1  0  0  0  0
 18 19  1  0  0  0  0
 18 39  1  0  0  0  0
 18 40  1  0  0  0  0
 19 20  1  0  0  0  0
 19 21  1  0  0  0  0
 19 41  1  0  0  0  0
 20 42  1  0  0  0  0
 21 22  1  0  0  0  0
 21 43  1  0  0  0  0
 21 44  1  0  0  0  0
 22 45  1  0  0  0  0
 22 46  1  0  0  0  0
M  CHG  1   8   1
M  END
> <s_m_source_file>
AV-unprocessed.smi

> <i_m_source_file_index>
1879

> <i_lp_mmshare_version>
43012

> <i_f3d_flags>
0

> <s_epik_input>
W0NIMl0xW0NIMl1bQ0BIXShbT0hdKVtDSDJdW0NIMl1bQ0BIXTFbTkhdQyg9TylbTkhdYzJbY0hdW2NIXVtjSF1uYzJOM1tDSDJdW0NIMl1bQ0gyXVtDSDJdMw==

> <s_epik_cmdline>
J2VwaWtfcHl0aG9uJywgJy1waCcsICc3LjAnLCAnLXRuJywgJzgnLCAnLW1hJywgJzIwMCcsICctbWV0YWxfYmluZGluZycsICctaW1hZScsICc8aW5maWxlLm1hZT4nLCAnLW9tYWUnLCAnPG91dGZpbGUubWFlPic=

> <r_lp_tautomer_probability>
0.999994

> <r_epik_Ionization_Penalty>
1.08454

> <r_epik_Ionization_Penalty_Charging>
1.08452

> <r_epik_Ionization_Penalty_Neutral>
2.17987e-05

> <r_epik_State_Penalty>
1.14025

> <r_epik_Charging_Adjusted_Penalty>
2.22477

> <i_epik_Tot_Q>
1

> <i_epik_Tot_abs_Q>
1

> <r_epik_Metal_State_Penalty>
1.22973

> <b_epik_Metal_Only>
0

> <s_lp_Force_Field>
OPLS_2005

> <r_lp_Energy>
43.9381

> <b_lp_Chiralities_Consistent>
1

> <s_lp_Variant>
AV-unprocessed.smi:1879-3

> <Gold.Version>
5.8.1

> <Gold.Id.Protein>
6NUR|6NUR_protein|mol2

> <Gold.PLP.Fitness>
47.9951

> <Gold.PLP.PLP>
-37.2728

> <Gold.PLP.part.hbond>
-4.5407

> <Gold.PLP.part.metal>
0.0000

> <Gold.PLP.part.buried>
-3.8805

> <Gold.PLP.part.nonpolar>
-29.5330

> <Gold.PLP.part.repulsive>
0.3597

> <Gold.PLP.ligand.clash>
0.0000

> <Gold.PLP.ligand.torsion>
0.4599

> <Gold.PLP.Chemscore.Hbond>
3.7570

> <Gold.PLP.Chemscore.CHOScore>
0.0000

> <Gold.PLP.Chemscore.Metal>
0.0000

> <Gold.Chemscore.Hbonds>
donor molecule, donor type, donor heavy atom, donor atom, acceptor molecule, acceptor atom, score
      L1  H     3    23       P1  7948  0.83
      L1  H    15    35       P1  7948  1.00
      L1  H    20    42       P1 10186  0.96
      P1  H 10785 10796       L1    20  0.95

> <Gold.PLP.Chemscore.Internal.Correction>
0.3710

> <Gold.Rescore>
     Score         DG    S(hbond)    S(metal)    S(lipo)     H(rot)  DE(clash)    DE(int)     intcor
     16.50     -19.27       2.44        0.00      85.30       1.69       0.15       2.62       ----

> <Gold.Chemscore.Fitness>
16.4999

> <Gold.Chemscore.DG>
-19.2671

> <Gold.Chemscore.ZeroCoef>
-5.4800

> <Gold.Chemscore.Hbond>
2.4373

> <Gold.Chemscore.Metal>
0.0000

> <Gold.Chemscore.Lipo>
85.3013

> <Gold.Chemscore.Internal_Hbond>
0.0000

> <Gold.Chemscore.DEClash>
0.1478

> <Gold.Chemscore.DEInternal>
2.6194

> <Gold.Chemscore.Rot>
1.6929

> <Gold.Chemscore.Internal.Correction>
   9.000000E+99

> <Gold.Chemscore.Hbonds>
donor molecule, donor type, donor heavy atom, donor atom, acceptor molecule, acceptor atom, score
      L1  H     3    23       P1  7948  0.24
      L1  H    15    35       P1  7948  0.91
      L1  H    20    42       P1 10186  0.91
      P1  H 10785 10796       L1    20  0.20

> <Gold.Chemscore.Hbond.Weighted>
-8.1406

> <Gold.Chemscore.Metal.Weighted>
-0.0000

> <Gold.Chemscore.Lipo.Weighted>
-9.9803

> <Gold.Chemscore.Internal_Hbond.Weighted>
0.0000

> <Gold.Chemscore.DEClash.Weighted>
0.1478

> <Gold.Chemscore.DEInternal.Weighted>
2.6194

> <Gold.Chemscore.Rot.Weighted>
4.3338

> <Gold.Chemscore.Internal.Correction.Weighted>
   9.000000E+99

> <Gold.Protein.RotatedTorsions>
[ 6907 6896 6895 6894 ] final  -86.99 input  -60.11 | X-H torsion
[ 7974 7965 7964 7962 ] final  -35.41 input  175.53 | X-H torsion
[ 8008 7997 7996 7995 ] final  162.45 input   59.86 | X-H torsion
[ 10167 10162 10161 10158 ] final  160.25 input  -65.29 | X-H torsion
[ 10718 10713 10712 10709 ] final  161.09 input   66.30 | X-H torsion
[ 10763 10752 10751 10750 ] final  162.62 input  -60.55 | X-H torsion
[ 11005 11000 10999 10996 ] final   -3.24 input  -57.11 | X-H torsion

> <Gold.Protein.ActiveResidues>
 VAL166  LYS551  ARG553  GLY616  TRP617  ASP618  TYR619  PRO620  LYS621  CYS622 
 ASP623  PHE694  ASN695  SER759  ASP760  ASP761  ALA762  ILE779  LEU786  VAL792 
 PHE793  MET794  SER795  GLU796  ALA797  LYS798  CYS799  TRP800  GLU811  SER814 

> <Gold.Protein.RotatedAtoms>
  150.6866  134.2965  159.4688 H   0  0  0  0  0  0  0  0  0  0  0  0  # atno 6907 bound_to 6896
  152.0865  134.9433  160.0582 H   0  0  0  0  0  0  0  0  0  0  0  0  # atno 6908 bound_to 6896
  152.0766  133.4097  159.4519 H   0  0  0  0  0  0  0  0  0  0  0  0  # atno 6909 bound_to 6896
  146.0749  140.6155  142.8935 H   0  0  0  0  0  0  0  0  0  0  0  0  # atno 7974 bound_to 7965
  156.2030  140.1750  156.7859 H   0  0  0  0  0  0  0  0  0  0  0  0  # atno 8008 bound_to 7997
  154.5617  140.0698  156.8860 H   0  0  0  0  0  0  0  0  0  0  0  0  # atno 8009 bound_to 7997
  155.2835  140.3350  155.4259 H   0  0  0  0  0  0  0  0  0  0  0  0  # atno 8010 bound_to 7997
  139.4838  144.4652  151.8651 H   0  0  0  0  0  0  0  0  0  0  0  0  # atno 10167 bound_to 10162
  157.1413  131.0541  151.2325 H   0  0  0  0  0  0  0  0  0  0  0  0  # atno 10718 bound_to 10713
  154.2812  135.2763  155.2696 H   0  0  0  0  0  0  0  0  0  0  0  0  # atno 10763 bound_to 10752
  154.5216  135.5754  153.6689 H   0  0  0  0  0  0  0  0  0  0  0  0  # atno 10764 bound_to 10752
  152.9929  135.6206  154.2972 H   0  0  0  0  0  0  0  0  0  0  0  0  # atno 10765 bound_to 10752
  140.6672  133.9268  155.8472 H   0  0  0  0  0  0  0  0  0  0  0  0  # atno 11005 bound_to 11000
  144.7255  140.4511  143.6976 LP  0  0  0  0  0  0  0  0  0  0  0  0  # atno 17320 bound_to 7965
  145.6324  139.1538  143.2961 LP  0  0  0  0  0  0  0  0  0  0  0  0  # atno 17321 bound_to 7965
  140.4117  144.2360  150.5888 LP  0  0  0  0  0  0  0  0  0  0  0  0  # atno 17342 bound_to 10162
  140.4960  143.2332  151.8749 LP  0  0  0  0  0  0  0  0  0  0  0  0  # atno 17343 bound_to 10162
  157.4304  130.7487  149.6985 LP  0  0  0  0  0  0  0  0  0  0  0  0  # atno 17370 bound_to 10713
  155.9788  130.4047  150.3627 LP  0  0  0  0  0  0  0  0  0  0  0  0  # atno 17371 bound_to 10713
  141.0420  134.0608  157.3890 LP  0  0  0  0  0  0  0  0  0  0  0  0  # atno 17394 bound_to 11000
  139.8993  135.0158  156.7190 LP  0  0  0  0  0  0  0  0  0  0  0  0  # atno 17395 bound_to 11000

$$$$
