AV-unprocessed.smi:64|AV-procd|sdf|610|dock7
  -GOLD-   2262016503D 1   1.00000     0.00000
 Structure written by MMmdl.
 31 32  0  0  0  0  0  0  0  0  2 V2000
  153.0375  142.8858  161.9121 C   0  0  0  0  0  0  0  0  0  0  0  0
  152.1259  143.6411  160.9529 C   0  0  0  0  0  0  0  0  0  0  0  0
  151.0185  144.0461  161.3070 O   0  0  0  0  0  0  0  0  0  0  0  0
  152.6687  143.7927  159.7345 O   0  0  0  0  0  0  0  0  0  0  0  0
  151.9169  144.4171  158.7059 C   0  0  0  0  0  0  0  0  0  0  0  0
  150.5403  143.7544  158.5988 C   0  0  0  0  0  0  0  0  0  0  0  0
  150.6767  142.5069  157.9388 O   0  0  0  0  0  0  0  0  0  0  0  0
  151.3693  141.5713  158.6952 C   0  0  0  0  0  0  0  0  0  0  0  0
  151.8348  140.5336  157.7973 N   0  0  0  0  0  0  0  0  0  0  0  0
  152.8254  139.6485  158.0209 C   0  0  0  0  0  0  0  0  0  0  0  0
  153.0619  138.7935  157.0266 N   0  0  0  0  0  0  0  0  0  0  0  0
  152.1196  139.1809  156.0801 C   0  0  0  0  0  0  0  0  0  0  0  0
  151.8127  138.6646  154.7239 C   0  0  0  0  0  0  0  0  0  0  0  0
  152.4664  137.7225  154.2796 O   0  0  0  0  0  0  0  0  0  0  0  0
  150.7971  139.3044  154.0674 N   0  5  0  0  0  0  0  0  0  0  0  0
  150.1187  140.3704  154.6751 C   0  0  0  0  0  0  0  0  0  0  0  0
  149.1256  140.8950  153.8769 N   0  0  0  0  0  0  0  0  0  0  0  0
  150.3364  140.8782  155.8638 N   0  0  0  0  0  0  0  0  0  0  0  0
  151.3641  140.2318  156.5253 C   0  0  0  0  0  0  0  0  0  0  0  0
  153.9593  142.5800  161.4162 H   0  0  0  0  0  0  0  0  0  0  0  0
  152.5343  141.9932  162.2836 H   0  0  0  0  0  0  0  0  0  0  0  0
  153.2952  143.5166  162.7628 H   0  0  0  0  0  0  0  0  0  0  0  0
  151.8121  145.4858  158.8977 H   0  0  0  0  0  0  0  0  0  0  0  0
  152.4514  144.3039  157.7617 H   0  0  0  0  0  0  0  0  0  0  0  0
  150.1434  143.5885  159.6013 H   0  0  0  0  0  0  0  0  0  0  0  0
  149.8396  144.4044  158.0722 H   0  0  0  0  0  0  0  0  0  0  0  0
  152.2315  142.0265  159.1855 H   0  0  0  0  0  0  0  0  0  0  0  0
  150.7179  141.1214  159.4461 H   0  0  0  0  0  0  0  0  0  0  0  0
  153.3910  139.6312  158.9409 H   0  0  0  0  0  0  0  0  0  0  0  0
  148.9103  140.5483  152.9539 H   0  0  0  0  0  0  0  0  0  0  0  0
  148.5433  141.6694  154.1600 H   0  0  0  0  0  0  0  0  0  0  0  0
  1  2  1  0  0  0  0
  1 20  1  0  0  0  0
  1 21  1  0  0  0  0
  1 22  1  0  0  0  0
  2  3  2  0  0  0  0
  2  4  1  0  0  0  0
  4  5  1  0  0  0  0
  5  6  1  0  0  0  0
  5 23  1  0  0  0  0
  5 24  1  0  0  0  0
  6  7  1  0  0  0  0
  6 25  1  0  0  0  0
  6 26  1  0  0  0  0
  7  8  1  0  0  0  0
  8  9  1  0  0  0  0
  8 27  1  0  0  0  0
  8 28  1  0  0  0  0
  9 19  1  0  0  0  0
  9 10  1  0  0  0  0
 10 11  2  0  0  0  0
 10 29  1  0  0  0  0
 11 12  1  0  0  0  0
 12 19  2  0  0  0  0
 12 13  1  0  0  0  0
 13 14  2  0  0  0  0
 13 15  1  0  0  0  0
 15 16  1  0  0  0  0
 16 17  1  0  0  0  0
 16 18  2  0  0  0  0
 17 30  1  0  0  0  0
 17 31  1  0  0  0  0
 18 19  1  0  0  0  0
M  CHG  1  15  -1
M  END
> <s_m_source_file>
AV-unprocessed.smi

> <i_m_source_file_index>
64

> <i_lp_mmshare_version>
43012

> <i_f3d_flags>
0

> <s_epik_input>
W0NIM11DKD1PKU9bQ0gyXVtDSDJdT1tDSDJdbihbY0hdbjEpYyhjMTIpbmMoW05IMl0pW25IXWMyPU8=

> <s_epik_cmdline>
J2VwaWtfcHl0aG9uJywgJy1waCcsICc3LjAnLCAnLXRuJywgJzgnLCAnLW1hJywgJzIwMCcsICctbWV0YWxfYmluZGluZycsICctaW1hZScsICc8aW5maWxlLm1hZT4nLCAnLW9tYWUnLCAnPG91dGZpbGUubWFlPic=

> <r_lp_tautomer_probability>
1

> <r_epik_Ionization_Penalty>
3.5586

> <r_epik_Ionization_Penalty_Charging>
1.23364e-10

> <r_epik_Ionization_Penalty_Neutral>
3.5586

> <r_epik_State_Penalty>
3.54828

> <r_epik_Charging_Adjusted_Penalty>
3.54828

> <i_epik_Tot_Q>
-1

> <i_epik_Tot_abs_Q>
1

> <r_epik_Metal_State_Penalty>
0.517613

> <b_epik_Metal_Only>
1

> <s_epik_Chemistry_Notes>
This compound has an ester and may undergo hydrolysis at high or low pH. This compound contains an acetal/aminal-like group ( X-CH(R)-Y where X, Y are N, S, or O) that may be acid/base labile, releasing an aldehyde.

> <s_lp_Force_Field>
OPLS_2005

> <r_lp_Energy>
20.1337

> <b_lp_Chiralities_Consistent>
1

> <s_lp_Variant>
AV-unprocessed.smi:64-2

> <Gold.Version>
5.8.1

> <Gold.Id.Protein>
6NUR|6NUR_protein|mol2

> <Gold.PLP.Fitness>
40.6010

> <Gold.PLP.PLP>
-36.0221

> <Gold.PLP.part.hbond>
-4.6496

> <Gold.PLP.part.metal>
0.0000

> <Gold.PLP.part.buried>
-4.1432

> <Gold.PLP.part.nonpolar>
-27.4777

> <Gold.PLP.part.repulsive>
1.1391

> <Gold.PLP.ligand.clash>
0.0000

> <Gold.PLP.ligand.torsion>
0.4668

> <Gold.PLP.Chemscore.Hbond>
1.8224

> <Gold.PLP.Chemscore.CHOScore>
0.0000

> <Gold.PLP.Chemscore.Metal>
0.0000

> <Gold.Chemscore.Hbonds>
donor molecule, donor type, donor heavy atom, donor atom, acceptor molecule, acceptor atom, score
      L1  H    17    30       P1  7957  0.94
      P1  H  7997  8008       L1    11  0.12
      P1  H 10752 10765       L1    14  0.55

> <Gold.PLP.Chemscore.Internal.Correction>
0.0452

> <Gold.Rescore>
     Score         DG    S(hbond)    S(metal)    S(lipo)     H(rot)  DE(clash)    DE(int)     intcor
      0.60      -5.59       1.58        0.00      41.80       3.93       0.09       4.90       ----

> <Gold.Chemscore.Fitness>
0.5985

> <Gold.Chemscore.DG>
-5.5897

> <Gold.Chemscore.ZeroCoef>
-5.4800

> <Gold.Chemscore.Hbond>
1.5842

> <Gold.Chemscore.Metal>
0.0000

> <Gold.Chemscore.Lipo>
41.7952

> <Gold.Chemscore.Internal_Hbond>
0.0000

> <Gold.Chemscore.DEClash>
0.0939

> <Gold.Chemscore.DEInternal>
4.8974

> <Gold.Chemscore.Rot>
3.9343

> <Gold.Chemscore.Internal.Correction>
   9.000000E+99

> <Gold.Chemscore.Hbonds>
donor molecule, donor type, donor heavy atom, donor atom, acceptor molecule, acceptor atom, score
      L1  H    17    30       P1  7957  0.89
      P1  H 10752 10765       L1    14  0.54

> <Gold.Chemscore.Hbond.Weighted>
-5.2914

> <Gold.Chemscore.Metal.Weighted>
-0.0000

> <Gold.Chemscore.Lipo.Weighted>
-4.8900

> <Gold.Chemscore.Internal_Hbond.Weighted>
0.0000

> <Gold.Chemscore.DEClash.Weighted>
0.0939

> <Gold.Chemscore.DEInternal.Weighted>
4.8974

> <Gold.Chemscore.Rot.Weighted>
10.0717

> <Gold.Chemscore.Internal.Correction.Weighted>
   9.000000E+99

> <Gold.Protein.RotatedTorsions>
[ 6907 6896 6895 6894 ] final  -38.64 input  -60.11 | X-H torsion
[ 7974 7965 7964 7962 ] final  132.53 input  175.53 | X-H torsion
[ 8008 7997 7996 7995 ] final  -52.73 input   59.86 | X-H torsion
[ 10167 10162 10161 10158 ] final -115.35 input  -65.29 | X-H torsion
[ 10718 10713 10712 10709 ] final  -75.36 input   66.30 | X-H torsion
[ 10763 10752 10751 10750 ] final  155.84 input  -60.55 | X-H torsion
[ 11005 11000 10999 10996 ] final  -75.49 input  -57.11 | X-H torsion

> <Gold.Protein.ActiveResidues>
 VAL166  LYS551  ARG553  GLY616  TRP617  ASP618  TYR619  PRO620  LYS621  CYS622 
 ASP623  PHE694  ASN695  SER759  ASP760  ASP761  ALA762  ILE779  LEU786  VAL792 
 PHE793  MET794  SER795  GLU796  ALA797  LYS798  CYS799  TRP800  GLU811  SER814 

> <Gold.Protein.RotatedAtoms>
  151.0000  134.9314  159.7947 H   0  0  0  0  0  0  0  0  0  0  0  0  # atno 6907 bound_to 6896
  152.5275  134.3167  159.9143 H   0  0  0  0  0  0  0  0  0  0  0  0  # atno 6908 bound_to 6896
  151.3173  133.4013  159.2686 H   0  0  0  0  0  0  0  0  0  0  0  0  # atno 6909 bound_to 6896
  144.9959  139.4360  143.5316 H   0  0  0  0  0  0  0  0  0  0  0  0  # atno 7974 bound_to 7965
  154.4114  140.1217  156.5038 H   0  0  0  0  0  0  0  0  0  0  0  0  # atno 8008 bound_to 7997
  155.6868  140.3495  155.4858 H   0  0  0  0  0  0  0  0  0  0  0  0  # atno 8009 bound_to 7997
  155.9504  140.1104  157.0971 H   0  0  0  0  0  0  0  0  0  0  0  0  # atno 8010 bound_to 7997
  140.0910  143.4700  152.1870 H   0  0  0  0  0  0  0  0  0  0  0  0  # atno 10167 bound_to 10162
  156.0210  130.4439  150.3032 H   0  0  0  0  0  0  0  0  0  0  0  0  # atno 10718 bound_to 10713
  154.1748  135.2802  155.3070 H   0  0  0  0  0  0  0  0  0  0  0  0  # atno 10763 bound_to 10752
  154.6048  135.5518  153.7415 H   0  0  0  0  0  0  0  0  0  0  0  0  # atno 10764 bound_to 10752
  153.0154  135.6400  154.1888 H   0  0  0  0  0  0  0  0  0  0  0  0  # atno 10765 bound_to 10752
  141.1646  133.6949  156.7525 H   0  0  0  0  0  0  0  0  0  0  0  0  # atno 11005 bound_to 11000
  146.3442  139.9319  142.8752 LP  0  0  0  0  0  0  0  0  0  0  0  0  # atno 17320 bound_to 7965
  145.2220  140.9939  143.4040 LP  0  0  0  0  0  0  0  0  0  0  0  0  # atno 17321 bound_to 7965
  139.5725  144.7470  151.3853 LP  0  0  0  0  0  0  0  0  0  0  0  0  # atno 17342 bound_to 10162
  140.7028  143.7588  150.7432 LP  0  0  0  0  0  0  0  0  0  0  0  0  # atno 17343 bound_to 10162
  157.1134  131.0227  151.3038 LP  0  0  0  0  0  0  0  0  0  0  0  0  # atno 17370 bound_to 10713
  157.4686  130.7695  149.7302 LP  0  0  0  0  0  0  0  0  0  0  0  0  # atno 17371 bound_to 10713
  140.2593  134.8479  157.3743 LP  0  0  0  0  0  0  0  0  0  0  0  0  # atno 17394 bound_to 11000
  140.1626  134.4709  155.7884 LP  0  0  0  0  0  0  0  0  0  0  0  0  # atno 17395 bound_to 11000

$$$$
