AV-unprocessed.smi:1695|AV-procd|sdf|6798|dock10
  -GOLD-   22720 7563D 1   1.00000     0.00000
 Structure written by MMmdl.
 50 52  0  0  0  0  0  0  0  0  1 V2000
  153.5948  142.2348  161.0015 C   0  0  0  0  0  0  0  0  0  0  0  0
  152.7875  142.0727  159.7257 C   0  0  0  0  0  0  0  0  0  0  0  0
  152.7329  140.8049  159.1036 C   0  0  0  0  0  0  0  0  0  0  0  0
  151.9949  140.6123  157.9152 C   0  0  0  0  0  0  0  0  0  0  0  0
  151.8061  139.4750  157.1486 N   0  0  0  0  0  0  0  0  0  0  0  0
  151.0265  139.9354  156.1741 C   0  0  0  0  0  0  0  0  0  0  0  0
  150.6873  141.2382  156.2199 N   0  0  0  0  0  0  0  0  0  0  0  0
  149.8518  141.9615  155.2783 C   0  0  0  0  0  0  0  0  0  0  0  0
  148.4494  141.3403  155.1367 C   0  0  1  0  0  0  0  0  0  0  0  0
  147.5581  142.3184  154.6372 O   0  0  0  0  0  0  0  0  0  0  0  0
  148.4585  140.1446  154.1631 C   0  0  0  0  0  0  0  0  0  0  0  0
  147.1451  139.5913  153.8243 N   0  0  0  0  0  0  0  0  0  0  0  0
  146.5243  138.8886  154.9524 C   0  0  0  0  0  0  0  0  0  0  0  0
  145.1273  138.3415  154.6127 C   0  0  0  0  0  0  0  0  0  0  0  0
  145.1930  137.3963  153.3967 C   0  0  0  0  0  0  0  0  0  0  0  0
  143.7956  136.9082  152.9914 C   0  0  0  0  0  0  0  0  0  0  0  0
  142.9051  137.8382  152.6370 N   0  0  0  0  0  0  0  0  0  0  0  0
  143.5208  135.7096  152.9964 O   0  0  0  0  0  0  0  0  0  0  0  0
  145.8911  138.1268  152.2328 C   0  0  0  0  0  0  0  0  0  0  0  0
  147.2529  138.6819  152.6829 C   0  0  0  0  0  0  0  0  0  0  0  0
  151.3077  141.7318  157.3618 C   0  0  0  0  0  0  0  0  0  0  0  0
  151.3545  142.9983  157.9709 C   0  0  0  0  0  0  0  0  0  0  0  0
  152.0966  143.1733  159.1578 C   0  0  0  0  0  0  0  0  0  0  0  0
  152.1407  144.5445  159.8086 C   0  0  0  0  0  0  0  0  0  0  0  0
  154.0124  141.2835  161.3323 H   0  0  0  0  0  0  0  0  0  0  0  0
  152.9685  142.6211  161.8057 H   0  0  0  0  0  0  0  0  0  0  0  0
  154.4219  142.9268  160.8428 H   0  0  0  0  0  0  0  0  0  0  0  0
  153.2599  139.9668  159.5352 H   0  0  0  0  0  0  0  0  0  0  0  0
  150.6827  139.2894  155.3795 H   0  0  0  0  0  0  0  0  0  0  0  0
  149.7799  143.0018  155.5994 H   0  0  0  0  0  0  0  0  0  0  0  0
  150.3598  141.9677  154.3131 H   0  0  0  0  0  0  0  0  0  0  0  0
  148.1087  141.0365  156.1251 H   0  0  0  0  0  0  0  0  0  0  0  0
  147.9449  143.1698  154.7756 H   0  0  0  0  0  0  0  0  0  0  0  0
  148.9643  140.4627  153.2500 H   0  0  0  0  0  0  0  0  0  0  0  0
  149.0794  139.3490  154.5784 H   0  0  0  0  0  0  0  0  0  0  0  0
  147.1671  138.0686  155.2765 H   0  0  0  0  0  0  0  0  0  0  0  0
  146.4222  139.5548  155.8071 H   0  0  0  0  0  0  0  0  0  0  0  0
  144.7186  137.8158  155.4767 H   0  0  0  0  0  0  0  0  0  0  0  0
  144.4548  139.1770  154.4111 H   0  0  0  0  0  0  0  0  0  0  0  0
  145.7997  136.5305  153.6692 H   0  0  0  0  0  0  0  0  0  0  0  0
  141.9720  137.5663  152.3638 H   0  0  0  0  0  0  0  0  0  0  0  0
  143.1692  138.8130  152.6453 H   0  0  0  0  0  0  0  0  0  0  0  0
  146.0324  137.4469  151.3920 H   0  0  0  0  0  0  0  0  0  0  0  0
  145.2705  138.9472  151.8684 H   0  0  0  0  0  0  0  0  0  0  0  0
  147.7108  139.2033  151.8415 H   0  0  0  0  0  0  0  0  0  0  0  0
  147.9190  137.8542  152.9309 H   0  0  0  0  0  0  0  0  0  0  0  0
  150.8236  143.8272  157.5268 H   0  0  0  0  0  0  0  0  0  0  0  0
  151.5917  145.2812  159.2216 H   0  0  0  0  0  0  0  0  0  0  0  0
  153.1697  144.8920  159.9025 H   0  0  0  0  0  0  0  0  0  0  0  0
  151.6942  144.5086  160.8026 H   0  0  0  0  0  0  0  0  0  0  0  0
  1  2  1  0  0  0  0
  1 25  1  0  0  0  0
  1 26  1  0  0  0  0
  1 27  1  0  0  0  0
  2 23  1  0  0  0  0
  2  3  2  0  0  0  0
  3  4  1  0  0  0  0
  3 28  1  0  0  0  0
  4 21  2  0  0  0  0
  4  5  1  0  0  0  0
  5  6  2  0  0  0  0
  6  7  1  0  0  0  0
  6 29  1  0  0  0  0
  7  8  1  0  0  0  0
  7 21  1  0  0  0  0
  8  9  1  0  0  0  0
  8 30  1  0  0  0  0
  8 31  1  0  0  0  0
  9 10  1  0  0  0  0
  9 11  1  0  0  0  0
  9 32  1  0  0  0  0
 10 33  1  0  0  0  0
 11 12  1  0  0  0  0
 11 34  1  0  0  0  0
 11 35  1  0  0  0  0
 12 20  1  0  0  0  0
 12 13  1  0  0  0  0
 13 14  1  0  0  0  0
 13 36  1  0  0  0  0
 13 37  1  0  0  0  0
 14 15  1  0  0  0  0
 14 38  1  0  0  0  0
 14 39  1  0  0  0  0
 15 16  1  0  0  0  0
 15 19  1  0  0  0  0
 15 40  1  0  0  0  0
 16 17  1  0  0  0  0
 16 18  2  0  0  0  0
 17 41  1  0  0  0  0
 17 42  1  0  0  0  0
 19 20  1  0  0  0  0
 19 43  1  0  0  0  0
 19 44  1  0  0  0  0
 20 45  1  0  0  0  0
 20 46  1  0  0  0  0
 21 22  1  0  0  0  0
 22 23  2  0  0  0  0
 22 47  1  0  0  0  0
 23 24  1  0  0  0  0
 24 48  1  0  0  0  0
 24 49  1  0  0  0  0
 24 50  1  0  0  0  0
M  END
> <s_m_source_file>
AV-unprocessed.smi

> <i_m_source_file_index>
1695

> <i_lp_mmshare_version>
43012

> <i_f3d_flags>
0

> <s_epik_input>
W0NIM11jKFtjSF0xKWMoW0NIM10pW2NIXWMoYzEyKW4oW2NIXW4yKVtDSDJdW0NASF0oW09IXSlbQ0gyXU4zW0NIMl1bQ0gyXVtDSF0oQyg9TylbTkgyXSlbQ0gyXVtDSDJdMw==

> <s_epik_cmdline>
J2VwaWtfcHl0aG9uJywgJy1waCcsICc3LjAnLCAnLXRuJywgJzgnLCAnLW1hJywgJzIwMCcsICctbWV0YWxfYmluZGluZycsICctaW1hZScsICc8aW5maWxlLm1hZT4nLCAnLW9tYWUnLCAnPG91dGZpbGUubWFlPic=

> <r_epik_Ionization_Penalty>
1.9508

> <r_epik_Ionization_Penalty_Charging>
0

> <r_epik_Ionization_Penalty_Neutral>
1.9508

> <r_epik_State_Penalty>
2.03746

> <r_epik_Charging_Adjusted_Penalty>
2.03746

> <i_epik_Tot_Q>
0

> <i_epik_Tot_abs_Q>
0

> <r_epik_Metal_State_Penalty>
2.03012

> <b_epik_Metal_Only>
0

> <s_lp_Force_Field>
OPLS_2005

> <r_lp_Energy>
30.7191

> <b_lp_Chiralities_Consistent>
1

> <s_lp_Variant>
AV-unprocessed.smi:1695-10

> <Gold.Version>
5.8.1

> <Gold.Id.Protein>
6NUR|6NUR_protein|mol2

> <Gold.PLP.Fitness>
48.2156

> <Gold.PLP.PLP>
-42.8414

> <Gold.PLP.part.hbond>
-3.0000

> <Gold.PLP.part.metal>
0.0000

> <Gold.PLP.part.buried>
-1.1029

> <Gold.PLP.part.nonpolar>
-40.0058

> <Gold.PLP.part.repulsive>
0.3219

> <Gold.PLP.ligand.clash>
0.0000

> <Gold.PLP.ligand.torsion>
0.3241

> <Gold.PLP.Chemscore.Hbond>
2.0000

> <Gold.PLP.Chemscore.CHOScore>
0.0000

> <Gold.PLP.Chemscore.Metal>
0.0000

> <Gold.Chemscore.Hbonds>
donor molecule, donor type, donor heavy atom, donor atom, acceptor molecule, acceptor atom, score
      L1  H    10    33       P1  8028  1.00
      L1  H    17    42       P1 10175  1.00

> <Gold.PLP.Chemscore.Internal.Correction>
0.0225

> <Gold.Rescore>
     Score         DG    S(hbond)    S(metal)    S(lipo)     H(rot)  DE(clash)    DE(int)     intcor
     18.33     -18.94       1.94        0.00     120.66       2.78       0.15       0.46       ----

> <Gold.Chemscore.Fitness>
18.3258

> <Gold.Chemscore.DG>
-18.9396

> <Gold.Chemscore.ZeroCoef>
-5.4800

> <Gold.Chemscore.Hbond>
1.9376

> <Gold.Chemscore.Metal>
0.0000

> <Gold.Chemscore.Lipo>
120.6618

> <Gold.Chemscore.Internal_Hbond>
0.0000

> <Gold.Chemscore.DEClash>
0.1507

> <Gold.Chemscore.DEInternal>
0.4630

> <Gold.Chemscore.Rot>
2.7849

> <Gold.Chemscore.Internal.Correction>
   9.000000E+99

> <Gold.Chemscore.Hbonds>
donor molecule, donor type, donor heavy atom, donor atom, acceptor molecule, acceptor atom, score
      L1  H    10    33       P1  8028  0.83
      L1  H    17    42       P1 10175  1.00

> <Gold.Chemscore.Hbond.Weighted>
-6.4716

> <Gold.Chemscore.Metal.Weighted>
-0.0000

> <Gold.Chemscore.Lipo.Weighted>
-14.1174

> <Gold.Chemscore.Internal_Hbond.Weighted>
0.0000

> <Gold.Chemscore.DEClash.Weighted>
0.1507

> <Gold.Chemscore.DEInternal.Weighted>
0.4630

> <Gold.Chemscore.Rot.Weighted>
7.1294

> <Gold.Chemscore.Internal.Correction.Weighted>
   9.000000E+99

> <Gold.Protein.RotatedTorsions>
[ 6907 6896 6895 6894 ] final  140.09 input  -60.11 | X-H torsion
[ 7974 7965 7964 7962 ] final    0.34 input  175.53 | X-H torsion
[ 8008 7997 7996 7995 ] final -159.60 input   59.86 | X-H torsion
[ 10167 10162 10161 10158 ] final -152.81 input  -65.29 | X-H torsion
[ 10718 10713 10712 10709 ] final -122.24 input   66.30 | X-H torsion
[ 10763 10752 10751 10750 ] final  -44.18 input  -60.55 | X-H torsion
[ 11005 11000 10999 10996 ] final   -4.63 input  -57.11 | X-H torsion

> <Gold.Protein.ActiveResidues>
 VAL166  LYS551  ARG553  GLY616  TRP617  ASP618  TYR619  PRO620  LYS621  CYS622 
 ASP623  PHE694  ASN695  SER759  ASP760  ASP761  ALA762  ILE779  LEU786  VAL792 
 PHE793  MET794  SER795  GLU796  ALA797  LYS798  CYS799  TRP800  GLU811  SER814 

> <Gold.Protein.RotatedAtoms>
  152.2471  133.5184  159.5303 H   0  0  0  0  0  0  0  0  0  0  0  0  # atno 6907 bound_to 6896
  150.7082  134.1010  159.3975 H   0  0  0  0  0  0  0  0  0  0  0  0  # atno 6908 bound_to 6896
  151.8930  135.0409  160.0550 H   0  0  0  0  0  0  0  0  0  0  0  0  # atno 6909 bound_to 6896
  146.2433  140.1153  142.8342 H   0  0  0  0  0  0  0  0  0  0  0  0  # atno 7974 bound_to 7965
  155.7650  140.0844  157.2136 H   0  0  0  0  0  0  0  0  0  0  0  0  # atno 8008 bound_to 7997
  154.4000  140.1536  156.2933 H   0  0  0  0  0  0  0  0  0  0  0  0  # atno 8009 bound_to 7997
  155.8802  140.3421  155.5885 H   0  0  0  0  0  0  0  0  0  0  0  0  # atno 8010 bound_to 7997
  139.7150  143.9047  152.2482 H   0  0  0  0  0  0  0  0  0  0  0  0  # atno 10167 bound_to 10162
  156.1402  130.6460  150.9759 H   0  0  0  0  0  0  0  0  0  0  0  0  # atno 10718 bound_to 10713
  154.0078  135.6685  153.4763 H   0  0  0  0  0  0  0  0  0  0  0  0  # atno 10763 bound_to 10752
  153.0634  135.5015  154.8141 H   0  0  0  0  0  0  0  0  0  0  0  0  # atno 10764 bound_to 10752
  154.7014  135.3079  154.9299 H   0  0  0  0  0  0  0  0  0  0  0  0  # atno 10765 bound_to 10752
  140.6824  133.9142  155.8563 H   0  0  0  0  0  0  0  0  0  0  0  0  # atno 11005 bound_to 11000
  145.0452  140.8976  143.5028 LP  0  0  0  0  0  0  0  0  0  0  0  0  # atno 17320 bound_to 7965
  145.1241  139.2674  143.5573 LP  0  0  0  0  0  0  0  0  0  0  0  0  # atno 17321 bound_to 7965
  139.8927  144.6956  150.8752 LP  0  0  0  0  0  0  0  0  0  0  0  0  # atno 17342 bound_to 10162
  140.7742  143.3574  151.1895 LP  0  0  0  0  0  0  0  0  0  0  0  0  # atno 17343 bound_to 10162
  157.6569  131.0888  150.7927 LP  0  0  0  0  0  0  0  0  0  0  0  0  # atno 17370 bound_to 10713
  156.8003  130.4919  149.5371 LP  0  0  0  0  0  0  0  0  0  0  0  0  # atno 17371 bound_to 10713
  141.0307  134.0760  157.4017 LP  0  0  0  0  0  0  0  0  0  0  0  0  # atno 17394 bound_to 11000
  139.8948  135.0137  156.6968 LP  0  0  0  0  0  0  0  0  0  0  0  0  # atno 17395 bound_to 11000

$$$$
