AV-unprocessed.smi:100|AV-procd|sdf|907|dock4
  -GOLD-   2262017403D 1   1.00000     0.00000
 Structure written by MMmdl.
 31 33  0  0  0  0  0  0  0  0  1 V2000
  149.1964  139.9227  154.0397 N   0  0  0  0  0  0  0  0  0  0  0  0
  150.3094  139.5991  154.7128 C   0  0  0  0  0  0  0  0  0  0  0  0
  151.3725  139.1377  154.0136 N   0  0  0  0  0  0  0  0  0  0  0  0
  152.4946  138.8105  154.6626 C   0  0  0  0  0  0  0  0  0  0  0  0
  152.7498  138.8702  155.9721 N   0  0  0  0  0  0  0  0  0  0  0  0
  151.6756  139.3324  156.6771 C   0  0  0  0  0  0  0  0  0  0  0  0
  150.4242  139.7184  156.1211 C   0  0  0  0  0  0  0  0  0  0  0  0
  149.5678  140.1412  157.1285 N   0  0  0  0  0  0  0  0  0  0  0  0
  150.2769  140.0102  158.2173 C   0  0  0  0  0  0  0  0  0  0  0  0
  151.5547  139.5252  158.0393 N   0  0  0  0  0  0  0  0  0  0  0  0
  152.5841  139.2653  159.0968 C   0  0  2  0  0  0  0  0  0  0  0  0
  153.8470  139.2712  158.5050 O   0  0  0  0  0  0  0  0  0  0  0  0
  154.6528  138.2837  159.1387 C   0  0  2  0  0  0  0  0  0  0  0  0
  155.8585  137.9105  158.2618 C   0  0  0  0  0  0  0  0  0  0  0  0
  156.7155  139.0235  158.1187 O   0  0  0  0  0  0  0  0  0  0  0  0
  153.6583  137.1425  159.3680 C   0  0  2  0  0  0  0  0  0  0  0  0
  153.4587  136.4888  158.2210 F   0  0  0  0  0  0  0  0  0  0  0  0
  152.4090  137.9000  159.7958 C   0  0  2  0  0  0  0  0  0  0  0  0
  151.2159  137.1958  159.4981 O   0  0  0  0  0  0  0  0  0  0  0  0
  148.3904  140.2696  154.5394 H   0  0  0  0  0  0  0  0  0  0  0  0
  149.1673  139.8218  153.0357 H   0  0  0  0  0  0  0  0  0  0  0  0
  153.3042  138.4490  154.0460 H   0  0  0  0  0  0  0  0  0  0  0  0
  149.8815  140.2621  159.1905 H   0  0  0  0  0  0  0  0  0  0  0  0
  152.4887  140.1054  159.7866 H   0  0  0  0  0  0  0  0  0  0  0  0
  154.9850  138.6589  160.1089 H   0  0  0  0  0  0  0  0  0  0  0  0
  156.4340  137.1141  158.7342 H   0  0  0  0  0  0  0  0  0  0  0  0
  155.5410  137.5462  157.2840 H   0  0  0  0  0  0  0  0  0  0  0  0
  157.3197  139.0333  158.8454 H   0  0  0  0  0  0  0  0  0  0  0  0
  153.9962  136.4155  160.1069 H   0  0  0  0  0  0  0  0  0  0  0  0
  152.4478  138.0787  160.8711 H   0  0  0  0  0  0  0  0  0  0  0  0
  150.4800  137.7205  159.7736 H   0  0  0  0  0  0  0  0  0  0  0  0
  1  2  1  0  0  0  0
  1 20  1  0  0  0  0
  1 21  1  0  0  0  0
  2  7  1  0  0  0  0
  2  3  2  0  0  0  0
  3  4  1  0  0  0  0
  4  5  2  0  0  0  0
  4 22  1  0  0  0  0
  5  6  1  0  0  0  0
  6 10  1  0  0  0  0
  6  7  2  0  0  0  0
  7  8  1  0  0  0  0
  8  9  2  0  0  0  0
  9 10  1  0  0  0  0
  9 23  1  0  0  0  0
 10 11  1  0  0  0  0
 11 18  1  0  0  0  0
 11 12  1  0  0  0  0
 11 24  1  0  0  0  0
 12 13  1  0  0  0  0
 13 14  1  0  0  0  0
 13 16  1  0  0  0  0
 13 25  1  0  0  0  0
 14 15  1  0  0  0  0
 14 26  1  0  0  0  0
 14 27  1  0  0  0  0
 15 28  1  0  0  0  0
 16 17  1  0  0  0  0
 16 18  1  0  0  0  0
 16 29  1  0  0  0  0
 18 19  1  0  0  0  0
 18 30  1  0  0  0  0
 19 31  1  0  0  0  0
M  END
> <s_m_source_file>
AV-unprocessed.smi

> <i_m_source_file_index>
100

> <i_lp_mmshare_version>
43012

> <i_f3d_flags>
0

> <s_epik_input>
bjFbY0hdbmMoW05IMl0pYyhjMTIpbltjSF1uMltDQEBIXTNPW0NAQEhdKFtDSDJdW09IXSlbQ0BIXShGKVtDQEhdM1tPSF0=

> <s_epik_cmdline>
J2VwaWtfcHl0aG9uJywgJy1waCcsICc3LjAnLCAnLXRuJywgJzgnLCAnLW1hJywgJzIwMCcsICctbWV0YWxfYmluZGluZycsICctaW1hZScsICc8aW5maWxlLm1hZT4nLCAnLW9tYWUnLCAnPG91dGZpbGUubWFlPic=

> <r_lp_tautomer_probability>
1

> <r_epik_Ionization_Penalty>
0.000750324

> <r_epik_Ionization_Penalty_Charging>
0

> <r_epik_Ionization_Penalty_Neutral>
0.000750324

> <r_epik_State_Penalty>
-0

> <r_epik_Charging_Adjusted_Penalty>
0

> <i_epik_Tot_Q>
0

> <i_epik_Tot_abs_Q>
0

> <r_epik_Metal_State_Penalty>
-0

> <b_epik_Metal_Only>
0

> <s_epik_Chemistry_Notes>
This compound contains an acetal/aminal-like group ( X-CH(R)-Y where X, Y are N, S, or O) that may be acid/base labile, releasing an aldehyde.

> <s_lp_Force_Field>
OPLS_2005

> <r_lp_Energy>
39.5

> <b_lp_Chiralities_Consistent>
1

> <s_lp_Variant>
AV-unprocessed.smi:100-11

> <Gold.Version>
5.8.1

> <Gold.Id.Protein>
6NUR|6NUR_protein|mol2

> <Gold.PLP.Fitness>
33.8280

> <Gold.PLP.PLP>
-22.6719

> <Gold.PLP.part.hbond>
-6.0040

> <Gold.PLP.part.metal>
0.0000

> <Gold.PLP.part.buried>
0.6038

> <Gold.PLP.part.nonpolar>
-16.0469

> <Gold.PLP.part.repulsive>
0.3054

> <Gold.PLP.ligand.clash>
0.0000

> <Gold.PLP.ligand.torsion>
0.6441

> <Gold.PLP.Chemscore.Hbond>
4.1460

> <Gold.PLP.Chemscore.CHOScore>
0.0000

> <Gold.PLP.Chemscore.Metal>
0.0000

> <Gold.Chemscore.Hbonds>
donor molecule, donor type, donor heavy atom, donor atom, acceptor molecule, acceptor atom, score
      L1  H     1    21       P1  7957  1.00
      P1  H  6896  6909       L1    19  0.84
      P1  H  7989  7998       L1     3  0.40
      P1  H  7997  8008       L1    12  1.00
      P1  H  7997  8010       L1    15  0.59

> <Gold.PLP.Chemscore.Internal.Correction>
0.0062

> <Gold.Rescore>
     Score         DG    S(hbond)    S(metal)    S(lipo)     H(rot)  DE(clash)    DE(int)     intcor
      7.92     -11.07       3.35        0.00      21.96       3.19       1.05       2.11       ----

> <Gold.Chemscore.Fitness>
7.9179

> <Gold.Chemscore.DG>
-11.0706

> <Gold.Chemscore.ZeroCoef>
-5.4800

> <Gold.Chemscore.Hbond>
3.3498

> <Gold.Chemscore.Metal>
0.0000

> <Gold.Chemscore.Lipo>
21.9576

> <Gold.Chemscore.Internal_Hbond>
0.0000

> <Gold.Chemscore.DEClash>
1.0458

> <Gold.Chemscore.DEInternal>
2.1069

> <Gold.Chemscore.Rot>
3.1901

> <Gold.Chemscore.Internal.Correction>
   9.000000E+99

> <Gold.Chemscore.Hbonds>
donor molecule, donor type, donor heavy atom, donor atom, acceptor molecule, acceptor atom, score
      L1  H     1    21       P1  7957  0.99
      P1  H  6896  6909       L1    19  0.57
      P1  H  7997  8008       L1    12  0.89
      P1  H  7997  8010       L1    15  0.53

> <Gold.Chemscore.Hbond.Weighted>
-11.1882

> <Gold.Chemscore.Metal.Weighted>
-0.0000

> <Gold.Chemscore.Lipo.Weighted>
-2.5690

> <Gold.Chemscore.Internal_Hbond.Weighted>
0.0000

> <Gold.Chemscore.DEClash.Weighted>
1.0458

> <Gold.Chemscore.DEInternal.Weighted>
2.1069

> <Gold.Chemscore.Rot.Weighted>
8.1667

> <Gold.Chemscore.Internal.Correction.Weighted>
   9.000000E+99

> <Gold.Protein.RotatedTorsions>
[ 6907 6896 6895 6894 ] final  115.64 input  -60.11 | X-H torsion
[ 7974 7965 7964 7962 ] final  173.41 input  175.53 | X-H torsion
[ 8008 7997 7996 7995 ] final  -83.01 input   59.86 | X-H torsion
[ 10167 10162 10161 10158 ] final   54.95 input  -65.29 | X-H torsion
[ 10718 10713 10712 10709 ] final  137.94 input   66.30 | X-H torsion
[ 10763 10752 10751 10750 ] final -154.86 input  -60.55 | X-H torsion
[ 11005 11000 10999 10996 ] final  -25.88 input  -57.11 | X-H torsion

> <Gold.Protein.ActiveResidues>
 VAL166  LYS551  ARG553  GLY616  TRP617  ASP618  TYR619  PRO620  LYS621  CYS622 
 ASP623  PHE694  ASN695  SER759  ASP760  ASP761  ALA762  ILE779  LEU786  VAL792 
 PHE793  MET794  SER795  GLU796  ALA797  LYS798  CYS799  TRP800  GLU811  SER814 

> <Gold.Protein.RotatedAtoms>
  152.4729  133.8070  159.6982 H   0  0  0  0  0  0  0  0  0  0  0  0  # atno 6907 bound_to 6896
  150.8728  133.7472  159.2962 H   0  0  0  0  0  0  0  0  0  0  0  0  # atno 6908 bound_to 6896
  151.5001  135.1065  159.9879 H   0  0  0  0  0  0  0  0  0  0  0  0  # atno 6909 bound_to 6896
  144.7244  139.9644  143.6435 H   0  0  0  0  0  0  0  0  0  0  0  0  # atno 7974 bound_to 7965
  154.6146  140.0625  156.9538 H   0  0  0  0  0  0  0  0  0  0  0  0  # atno 8008 bound_to 7997
  155.1917  140.3307  155.4339 H   0  0  0  0  0  0  0  0  0  0  0  0  # atno 8009 bound_to 7997
  156.2397  140.1880  156.7006 H   0  0  0  0  0  0  0  0  0  0  0  0  # atno 8010 bound_to 7997
  140.2246  144.3752  150.6437 H   0  0  0  0  0  0  0  0  0  0  0  0  # atno 10167 bound_to 10162
  157.4306  131.1048  151.0254 H   0  0  0  0  0  0  0  0  0  0  0  0  # atno 10718 bound_to 10713
  154.7829  135.3180  154.7951 H   0  0  0  0  0  0  0  0  0  0  0  0  # atno 10763 bound_to 10752
  153.8658  135.6849  153.4783 H   0  0  0  0  0  0  0  0  0  0  0  0  # atno 10764 bound_to 10752
  153.1471  135.4715  154.9520 H   0  0  0  0  0  0  0  0  0  0  0  0  # atno 10765 bound_to 10752
  140.8978  133.7544  156.0504 H   0  0  0  0  0  0  0  0  0  0  0  0  # atno 11005 bound_to 11000
  146.0612  139.3606  143.0580 LP  0  0  0  0  0  0  0  0  0  0  0  0  # atno 17320 bound_to 7965
  145.8090  140.9735  143.0959 LP  0  0  0  0  0  0  0  0  0  0  0  0  # atno 17321 bound_to 7965
  140.6230  143.2178  151.6655 LP  0  0  0  0  0  0  0  0  0  0  0  0  # atno 17342 bound_to 10162
  139.5131  144.3452  152.0703 LP  0  0  0  0  0  0  0  0  0  0  0  0  # atno 17343 bound_to 10162
  157.1152  130.6038  149.5491 LP  0  0  0  0  0  0  0  0  0  0  0  0  # atno 17370 bound_to 10713
  155.9912  130.4966  150.7289 LP  0  0  0  0  0  0  0  0  0  0  0  0  # atno 17371 bound_to 10713
  140.8268  134.3225  157.5363 LP  0  0  0  0  0  0  0  0  0  0  0  0  # atno 17394 bound_to 11000
  139.8738  134.9340  156.3596 LP  0  0  0  0  0  0  0  0  0  0  0  0  # atno 17395 bound_to 11000

$$$$
