AV-unprocessed.smi:3088|AV-procd|sdf|11768|dock6
  -GOLD-   2272017153D 1   1.00000     0.00000
 Structure written by MMmdl.
 29 30  0  0  0  0  0  0  0  0  2 V2000
  149.1262  138.5393  153.2971 N   0  3  0  0  0  0  0  0  0  0  0  0
  150.1074  138.8578  154.3479 C   0  0  0  0  0  0  0  0  0  0  0  0
  149.9052  140.2794  154.8904 C   0  0  0  0  0  0  0  0  0  0  0  0
  150.6694  140.5169  156.1576 C   0  0  0  0  0  0  0  0  0  0  0  0
  151.3062  139.5733  156.9254 C   0  0  0  0  0  0  0  0  0  0  0  0
  152.0776  140.2801  158.3189 S   0  0  0  0  0  0  0  0  0  0  0  0
  151.4958  141.8584  157.7972 C   0  0  0  0  0  0  0  0  0  0  0  0
  151.7651  143.0198  158.5152 N   0  0  0  0  0  0  0  0  0  0  0  0
  151.4370  144.3868  158.1208 C   0  0  0  0  0  0  0  0  0  0  0  0
  152.1679  145.3342  159.0690 C   0  0  0  0  0  0  0  0  0  0  0  0
  152.2442  144.5176  160.3444 C   0  0  0  0  0  0  0  0  0  0  0  0
  152.4363  143.1011  159.8089 C   0  0  0  0  0  0  0  0  0  0  0  0
  150.7873  141.8143  156.6655 N   0  0  0  0  0  0  0  0  0  0  0  0
  149.3137  137.6169  152.9306 H   0  0  0  0  0  0  0  0  0  0  0  0
  149.1977  139.2173  152.5519 H   0  0  0  0  0  0  0  0  0  0  0  0
  150.0090  138.1278  155.1519 H   0  0  0  0  0  0  0  0  0  0  0  0
  151.1100  138.7471  153.9333 H   0  0  0  0  0  0  0  0  0  0  0  0
  150.2105  141.0049  154.1351 H   0  0  0  0  0  0  0  0  0  0  0  0
  148.8425  140.4556  155.0614 H   0  0  0  0  0  0  0  0  0  0  0  0
  151.3692  138.5081  156.7586 H   0  0  0  0  0  0  0  0  0  0  0  0
  151.7160  144.5765  157.0839 H   0  0  0  0  0  0  0  0  0  0  0  0
  150.3580  144.5217  158.2052 H   0  0  0  0  0  0  0  0  0  0  0  0
  153.1732  145.5343  158.6955 H   0  0  0  0  0  0  0  0  0  0  0  0
  151.6552  146.2878  159.1980 H   0  0  0  0  0  0  0  0  0  0  0  0
  153.0475  144.8335  161.0102 H   0  0  0  0  0  0  0  0  0  0  0  0
  151.3013  144.5874  160.8887 H   0  0  0  0  0  0  0  0  0  0  0  0
  152.0434  142.3587  160.5043 H   0  0  0  0  0  0  0  0  0  0  0  0
  153.4959  142.8905  159.6609 H   0  0  0  0  0  0  0  0  0  0  0  0
  148.1943  138.5634  153.6859 H   0  0  0  0  0  0  0  0  0  0  0  0
  1  2  1  0  0  0  0
  1 14  1  0  0  0  0
  1 15  1  0  0  0  0
  1 29  1  0  0  0  0
  2  3  1  0  0  0  0
  2 16  1  0  0  0  0
  2 17  1  0  0  0  0
  3  4  1  0  0  0  0
  3 18  1  0  0  0  0
  3 19  1  0  0  0  0
  4 13  1  0  0  0  0
  4  5  2  0  0  0  0
  5  6  1  0  0  0  0
  5 20  1  0  0  0  0
  6  7  1  0  0  0  0
  7  8  1  0  0  0  0
  7 13  2  0  0  0  0
  8 12  1  0  0  0  0
  8  9  1  0  0  0  0
  9 10  1  0  0  0  0
  9 21  1  0  0  0  0
  9 22  1  0  0  0  0
 10 11  1  0  0  0  0
 10 23  1  0  0  0  0
 10 24  1  0  0  0  0
 11 12  1  0  0  0  0
 11 25  1  0  0  0  0
 11 26  1  0  0  0  0
 12 27  1  0  0  0  0
 12 28  1  0  0  0  0
M  CHG  1   1   1
M  END
> <s_m_source_file>
AV-unprocessed.smi

> <i_m_source_file_index>
3088

> <i_lp_mmshare_version>
43012

> <i_f3d_flags>
0

> <s_epik_input>
W05IMl1bQ0gyXVtDSDJdYzFbY0hdc2MobjEpTjJbQ0gyXVtDSDJdW0NIMl1bQ0gyXTI=

> <s_epik_cmdline>
J2VwaWtfcHl0aG9uJywgJy1waCcsICc3LjAnLCAnLXRuJywgJzgnLCAnLW1hJywgJzIwMCcsICctbWV0YWxfYmluZGluZycsICctaW1hZScsICc8aW5maWxlLm1hZT4nLCAnLW9tYWUnLCAnPG91dGZpbGUubWFlPic=

> <r_epik_Ionization_Penalty>
0.0059221

> <r_epik_Ionization_Penalty_Charging>
0.00199846

> <r_epik_Ionization_Penalty_Neutral>
0.00392364

> <r_epik_State_Penalty>
0.00774005

> <r_epik_Charging_Adjusted_Penalty>
0.00973852

> <i_epik_Tot_Q>
1

> <i_epik_Tot_abs_Q>
1

> <r_epik_Metal_State_Penalty>
7.11937e-06

> <b_epik_Metal_Only>
0

> <s_lp_Force_Field>
OPLS_2005

> <r_lp_Energy>
15.4389

> <b_lp_Chiralities_Consistent>
1

> <s_lp_Variant>
AV-unprocessed.smi:3088-1

> <Gold.Version>
5.8.1

> <Gold.Id.Protein>
6NUR|6NUR_protein|mol2

> <Gold.PLP.Fitness>
42.8594

> <Gold.PLP.PLP>
-34.1884

> <Gold.PLP.part.hbond>
-2.0000

> <Gold.PLP.part.metal>
0.0000

> <Gold.PLP.part.buried>
-4.2649

> <Gold.PLP.part.nonpolar>
-28.4686

> <Gold.PLP.part.repulsive>
0.1613

> <Gold.PLP.ligand.clash>
0.0000

> <Gold.PLP.ligand.torsion>
0.1652

> <Gold.PLP.Chemscore.Hbond>
3.0000

> <Gold.PLP.Chemscore.CHOScore>
0.0000

> <Gold.PLP.Chemscore.Metal>
0.0000

> <Gold.Chemscore.Hbonds>
donor molecule, donor type, donor heavy atom, donor atom, acceptor molecule, acceptor atom, score
      L1  H     1    14       P1  7948  2.00
      L1  H     1    15       P1  7957  1.00

> <Gold.PLP.Chemscore.Internal.Correction>
0.0015

> <Gold.Rescore>
     Score         DG    S(hbond)    S(metal)    S(lipo)     H(rot)  DE(clash)    DE(int)     intcor
     18.31     -18.51       1.99        0.00      83.35       1.32       0.05       0.15       ----

> <Gold.Chemscore.Fitness>
18.3142

> <Gold.Chemscore.DG>
-18.5140

> <Gold.Chemscore.ZeroCoef>
-5.4800

> <Gold.Chemscore.Hbond>
1.9915

> <Gold.Chemscore.Metal>
0.0000

> <Gold.Chemscore.Lipo>
83.3531

> <Gold.Chemscore.Internal_Hbond>
0.0000

> <Gold.Chemscore.DEClash>
0.0497

> <Gold.Chemscore.DEInternal>
0.1501

> <Gold.Chemscore.Rot>
1.3164

> <Gold.Chemscore.Internal.Correction>
   9.000000E+99

> <Gold.Chemscore.Hbonds>
donor molecule, donor type, donor heavy atom, donor atom, acceptor molecule, acceptor atom, score
      L1  H     1    14       P1  7948  0.93
      L1  H     1    15       P1  7957  1.00

> <Gold.Chemscore.Hbond.Weighted>
-6.6517

> <Gold.Chemscore.Metal.Weighted>
-0.0000

> <Gold.Chemscore.Lipo.Weighted>
-9.7523

> <Gold.Chemscore.Internal_Hbond.Weighted>
0.0000

> <Gold.Chemscore.DEClash.Weighted>
0.0497

> <Gold.Chemscore.DEInternal.Weighted>
0.1501

> <Gold.Chemscore.Rot.Weighted>
3.3700

> <Gold.Chemscore.Internal.Correction.Weighted>
   9.000000E+99

> <Gold.Protein.RotatedTorsions>
[ 6907 6896 6895 6894 ] final  -60.01 input  -60.11 | X-H torsion
[ 7974 7965 7964 7962 ] final -137.06 input  175.53 | X-H torsion
[ 8008 7997 7996 7995 ] final -113.86 input   59.86 | X-H torsion
[ 10167 10162 10161 10158 ] final -125.27 input  -65.29 | X-H torsion
[ 10718 10713 10712 10709 ] final  130.80 input   66.30 | X-H torsion
[ 10763 10752 10751 10750 ] final -119.98 input  -60.55 | X-H torsion
[ 11005 11000 10999 10996 ] final   16.40 input  -57.11 | X-H torsion

> <Gold.Protein.ActiveResidues>
 VAL166  LYS551  ARG553  GLY616  TRP617  ASP618  TYR619  PRO620  LYS621  CYS622 
 ASP623  PHE694  ASN695  SER759  ASP760  ASP761  ALA762  ILE779  LEU786  VAL792 
 PHE793  MET794  SER795  GLU796  ALA797  LYS798  CYS799  TRP800  GLU811  SER814 

> <Gold.Protein.RotatedAtoms>
  150.7887  134.6893  159.6487 H   0  0  0  0  0  0  0  0  0  0  0  0  # atno 6907 bound_to 6896
  152.3989  134.6317  160.0087 H   0  0  0  0  0  0  0  0  0  0  0  0  # atno 6908 bound_to 6896
  151.6594  133.3281  159.3206 H   0  0  0  0  0  0  0  0  0  0  0  0  # atno 6909 bound_to 6896
  144.8874  140.6593  143.5167 H   0  0  0  0  0  0  0  0  0  0  0  0  # atno 7974 bound_to 7965
  155.0273  140.0393  157.2460 H   0  0  0  0  0  0  0  0  0  0  0  0  # atno 8008 bound_to 7997
  154.7326  140.2733  155.6419 H   0  0  0  0  0  0  0  0  0  0  0  0  # atno 8009 bound_to 7997
  156.2845  140.2681  156.2031 H   0  0  0  0  0  0  0  0  0  0  0  0  # atno 8010 bound_to 7997
  139.9838  143.5713  152.2368 H   0  0  0  0  0  0  0  0  0  0  0  0  # atno 10167 bound_to 10162
  157.5028  131.1094  150.9403 H   0  0  0  0  0  0  0  0  0  0  0  0  # atno 10718 bound_to 10713
  154.8632  135.4219  154.2386 H   0  0  0  0  0  0  0  0  0  0  0  0  # atno 10763 bound_to 10752
  153.3356  135.6990  153.6916 H   0  0  0  0  0  0  0  0  0  0  0  0  # atno 10764 bound_to 10752
  153.5915  135.3554  155.2885 H   0  0  0  0  0  0  0  0  0  0  0  0  # atno 10765 bound_to 10752
  140.4476  134.1258  155.7698 H   0  0  0  0  0  0  0  0  0  0  0  0  # atno 11005 bound_to 11000
  145.3845  139.1630  143.4263 LP  0  0  0  0  0  0  0  0  0  0  0  0  # atno 17320 bound_to 7965
  146.3033  140.3928  142.8696 LP  0  0  0  0  0  0  0  0  0  0  0  0  # atno 17321 bound_to 7965
  139.6390  144.7653  151.2378 LP  0  0  0  0  0  0  0  0  0  0  0  0  # atno 17342 bound_to 10162
  140.7479  143.6350  150.8388 LP  0  0  0  0  0  0  0  0  0  0  0  0  # atno 17343 bound_to 10162
  157.0068  130.5621  149.5317 LP  0  0  0  0  0  0  0  0  0  0  0  0  # atno 17370 bound_to 10713
  156.0240  130.5334  150.8354 LP  0  0  0  0  0  0  0  0  0  0  0  0  # atno 17371 bound_to 10713
  141.1678  133.8668  157.1661 LP  0  0  0  0  0  0  0  0  0  0  0  0  # atno 17394 bound_to 11000
  140.0028  135.0021  157.0228 LP  0  0  0  0  0  0  0  0  0  0  0  0  # atno 17395 bound_to 11000

$$$$
