AV-unprocessed.smi:3100|AV-procd|sdf|11805|dock3
  -GOLD-   2272017183D 1   1.00000     0.00000
 Structure written by MMmdl.
 28 29  0  0  0  0  0  0  0  0  1 V2000
  152.5027  143.3873  161.8191 C   0  0  0  0  0  0  0  0  0  0  0  0
  151.9010  144.0273  160.5639 C   0  0  1  0  0  0  0  0  0  0  0  0
  152.8656  144.1198  159.3873 C   0  0  0  0  0  0  0  0  0  0  0  0
  151.9113  144.2919  158.2229 C   0  0  0  0  0  0  0  0  0  0  0  0
  150.6605  143.5109  158.6648 C   0  0  1  0  0  0  0  0  0  0  0  0
  150.4686  142.1801  157.9279 C   0  0  0  0  0  0  0  0  0  0  0  0
  150.6048  141.1180  158.5367 O   0  0  0  0  0  0  0  0  0  0  0  0
  150.1393  142.2766  156.6266 N   0  0  0  0  0  0  0  0  0  0  0  0
  149.9175  141.2254  155.6985 C   0  0  0  0  0  0  0  0  0  0  0  0
  148.8708  141.4356  154.7699 C   0  0  0  0  0  0  0  0  0  0  0  0
  148.5421  140.5284  153.8233 N   0  0  0  0  0  0  0  0  0  0  0  0
  149.2678  139.3902  153.8000 C   0  0  0  0  0  0  0  0  0  0  0  0
  150.3140  139.1636  154.7164 C   0  0  0  0  0  0  0  0  0  0  0  0
  150.6374  140.0749  155.6595 N   0  0  0  0  0  0  0  0  0  0  0  0
  150.8456  143.2272  160.0511 O   0  0  0  0  0  0  0  0  0  0  0  0
  153.3361  143.9792  162.1985 H   0  0  0  0  0  0  0  0  0  0  0  0
  152.8709  142.3819  161.6125 H   0  0  0  0  0  0  0  0  0  0  0  0
  151.7585  143.3124  162.6120 H   0  0  0  0  0  0  0  0  0  0  0  0
  151.5054  145.0173  160.7974 H   0  0  0  0  0  0  0  0  0  0  0  0
  153.5784  144.9395  159.4813 H   0  0  0  0  0  0  0  0  0  0  0  0
  153.4244  143.1892  159.2762 H   0  0  0  0  0  0  0  0  0  0  0  0
  151.6606  145.3463  158.1000 H   0  0  0  0  0  0  0  0  0  0  0  0
  152.3432  143.9485  157.2816 H   0  0  0  0  0  0  0  0  0  0  0  0
  149.7759  144.1386  158.5442 H   0  0  0  0  0  0  0  0  0  0  0  0
  150.0410  143.2118  156.2589 H   0  0  0  0  0  0  0  0  0  0  0  0
  148.2875  142.3449  154.7837 H   0  0  0  0  0  0  0  0  0  0  0  0
  149.0145  138.6581  153.0475 H   0  0  0  0  0  0  0  0  0  0  0  0
  150.8918  138.2515  154.6930 H   0  0  0  0  0  0  0  0  0  0  0  0
  1  2  1  0  0  0  0
  1 16  1  0  0  0  0
  1 17  1  0  0  0  0
  1 18  1  0  0  0  0
  2 15  1  0  0  0  0
  2  3  1  0  0  0  0
  2 19  1  0  0  0  0
  3  4  1  0  0  0  0
  3 20  1  0  0  0  0
  3 21  1  0  0  0  0
  4  5  1  0  0  0  0
  4 22  1  0  0  0  0
  4 23  1  0  0  0  0
  5  6  1  0  0  0  0
  5 15  1  0  0  0  0
  5 24  1  0  0  0  0
  6  7  2  0  0  0  0
  6  8  1  0  0  0  0
  8  9  1  0  0  0  0
  8 25  1  0  0  0  0
  9 14  1  0  0  0  0
  9 10  2  0  0  0  0
 10 11  1  0  0  0  0
 10 26  1  0  0  0  0
 11 12  2  0  0  0  0
 12 13  1  0  0  0  0
 12 27  1  0  0  0  0
 13 14  2  0  0  0  0
 13 28  1  0  0  0  0
M  END
> <s_m_source_file>
AV-unprocessed.smi

> <i_m_source_file_index>
3100

> <i_lp_mmshare_version>
43012

> <i_f3d_flags>
0

> <s_epik_input>
W0NIM11bQ0BASF0xW0NIMl1bQ0gyXVtDQEhdKE8xKUMoPU8pW05IXWMyW2NIXW5bY0hdW2NIXW4y

> <s_epik_cmdline>
J2VwaWtfcHl0aG9uJywgJy1waCcsICc3LjAnLCAnLXRuJywgJzgnLCAnLW1hJywgJzIwMCcsICctbWV0YWxfYmluZGluZycsICctaW1hZScsICc8aW5maWxlLm1hZT4nLCAnLW9tYWUnLCAnPG91dGZpbGUubWFlPic=

> <r_lp_tautomer_probability>
1

> <r_epik_Ionization_Penalty>
2.81186e-06

> <r_epik_Ionization_Penalty_Charging>
0

> <r_epik_Ionization_Penalty_Neutral>
2.81186e-06

> <r_epik_State_Penalty>
-0

> <r_epik_Charging_Adjusted_Penalty>
0

> <i_epik_Tot_Q>
0

> <i_epik_Tot_abs_Q>
0

> <r_epik_Metal_State_Penalty>
-0

> <b_epik_Metal_Only>
0

> <s_lp_Force_Field>
OPLS_2005

> <r_lp_Energy>
25.9666

> <b_lp_Chiralities_Consistent>
1

> <s_lp_Variant>
AV-unprocessed.smi:3100-2

> <Gold.Version>
5.8.1

> <Gold.Id.Protein>
6NUR|6NUR_protein|mol2

> <Gold.PLP.Fitness>
39.0545

> <Gold.PLP.PLP>
-31.2893

> <Gold.PLP.part.hbond>
-2.0000

> <Gold.PLP.part.metal>
0.0000

> <Gold.PLP.part.buried>
-3.0725

> <Gold.PLP.part.nonpolar>
-27.9629

> <Gold.PLP.part.repulsive>
1.6014

> <Gold.PLP.ligand.clash>
0.0000

> <Gold.PLP.ligand.torsion>
0.4068

> <Gold.PLP.Chemscore.Hbond>
1.0000

> <Gold.PLP.Chemscore.CHOScore>
1.8570

> <Gold.PLP.Chemscore.Metal>
0.0000

> <Gold.Chemscore.Hbonds>
donor molecule, donor type, donor heavy atom, donor atom, acceptor molecule, acceptor atom, score
      L1  H     8    25       P1  8028  1.00
      L1  C    10    26       P1  8028  0.88
      L1  C    12    27       P1  7948  0.65
      L1  C    12    27       P1  7957  0.33

> <Gold.PLP.Chemscore.Internal.Correction>
0.0077

> <Gold.Rescore>
     Score         DG    S(hbond)    S(metal)    S(lipo)     H(rot)  DE(clash)    DE(int)     intcor
     14.19     -15.75       0.99        0.00      81.45       1.00       0.16       1.39       ----

> <Gold.Chemscore.Fitness>
14.1947

> <Gold.Chemscore.DG>
-15.7527

> <Gold.Chemscore.ZeroCoef>
-5.4800

> <Gold.Chemscore.Hbond>
0.9891

> <Gold.Chemscore.Metal>
0.0000

> <Gold.Chemscore.Lipo>
81.4462

> <Gold.Chemscore.Internal_Hbond>
0.0000

> <Gold.Chemscore.DEClash>
0.1635

> <Gold.Chemscore.DEInternal>
1.3945

> <Gold.Chemscore.Rot>
1.0000

> <Gold.Chemscore.Internal.Correction>
   9.000000E+99

> <Gold.Chemscore.Hbonds>
donor molecule, donor type, donor heavy atom, donor atom, acceptor molecule, acceptor atom, score
      L1  H     8    25       P1  8028  0.92

> <Gold.Chemscore.Hbond.Weighted>
-3.3035

> <Gold.Chemscore.Metal.Weighted>
-0.0000

> <Gold.Chemscore.Lipo.Weighted>
-9.5292

> <Gold.Chemscore.Internal_Hbond.Weighted>
0.0000

> <Gold.Chemscore.DEClash.Weighted>
0.1635

> <Gold.Chemscore.DEInternal.Weighted>
1.3945

> <Gold.Chemscore.Rot.Weighted>
2.5600

> <Gold.Chemscore.Internal.Correction.Weighted>
   9.000000E+99

> <Gold.Protein.RotatedTorsions>
[ 6907 6896 6895 6894 ] final    2.04 input  -60.11 | X-H torsion
[ 7974 7965 7964 7962 ] final  -30.80 input  175.53 | X-H torsion
[ 8008 7997 7996 7995 ] final -171.26 input   59.86 | X-H torsion
[ 10167 10162 10161 10158 ] final  171.63 input  -65.29 | X-H torsion
[ 10718 10713 10712 10709 ] final   60.43 input   66.30 | X-H torsion
[ 10763 10752 10751 10750 ] final  134.33 input  -60.55 | X-H torsion
[ 11005 11000 10999 10996 ] final  139.00 input  -57.11 | X-H torsion

> <Gold.Protein.ActiveResidues>
 VAL166  LYS551  ARG553  GLY616  TRP617  ASP618  TYR619  PRO620  LYS621  CYS622 
 ASP623  PHE694  ASN695  SER759  ASP760  ASP761  ALA762  ILE779  LEU786  VAL792 
 PHE793  MET794  SER795  GLU796  ALA797  LYS798  CYS799  TRP800  GLU811  SER814 

> <Gold.Protein.RotatedAtoms>
  151.6023  135.1046  160.0062 H   0  0  0  0  0  0  0  0  0  0  0  0  # atno 6907 bound_to 6896
  152.4251  133.7177  159.6526 H   0  0  0  0  0  0  0  0  0  0  0  0  # atno 6908 bound_to 6896
  150.8140  133.8299  159.3191 H   0  0  0  0  0  0  0  0  0  0  0  0  # atno 6909 bound_to 6896
  146.1116  140.5586  142.8775 H   0  0  0  0  0  0  0  0  0  0  0  0  # atno 7974 bound_to 7965
  155.9293  140.1088  157.1145 H   0  0  0  0  0  0  0  0  0  0  0  0  # atno 8008 bound_to 7997
  154.4068  140.1241  156.4847 H   0  0  0  0  0  0  0  0  0  0  0  0  # atno 8009 bound_to 7997
  155.7100  140.3471  155.4972 H   0  0  0  0  0  0  0  0  0  0  0  0  # atno 8010 bound_to 7997
  139.5052  144.3464  151.9967 H   0  0  0  0  0  0  0  0  0  0  0  0  # atno 10167 bound_to 10162
  157.5752  130.8938  149.9335 H   0  0  0  0  0  0  0  0  0  0  0  0  # atno 10718 bound_to 10713
  153.8218  135.3115  155.3411 H   0  0  0  0  0  0  0  0  0  0  0  0  # atno 10763 bound_to 10752
  154.8009  135.4727  154.0277 H   0  0  0  0  0  0  0  0  0  0  0  0  # atno 10764 bound_to 10752
  153.1689  135.6874  153.8726 H   0  0  0  0  0  0  0  0  0  0  0  0  # atno 10765 bound_to 10752
  140.0223  134.9391  157.0499 H   0  0  0  0  0  0  0  0  0  0  0  0  # atno 11005 bound_to 11000
  144.7516  140.5205  143.6798 LP  0  0  0  0  0  0  0  0  0  0  0  0  # atno 17320 bound_to 7965
  145.5652  139.1481  143.3319 LP  0  0  0  0  0  0  0  0  0  0  0  0  # atno 17321 bound_to 7965
  140.2901  144.3763  150.6091 LP  0  0  0  0  0  0  0  0  0  0  0  0  # atno 17342 bound_to 10162
  140.5953  143.2167  151.7176 LP  0  0  0  0  0  0  0  0  0  0  0  0  # atno 17343 bound_to 10162
  156.0797  130.3674  150.0606 LP  0  0  0  0  0  0  0  0  0  0  0  0  # atno 17370 bound_to 10713
  156.8753  130.9538  151.3605 LP  0  0  0  0  0  0  0  0  0  0  0  0  # atno 17371 bound_to 10713
  140.4366  134.1725  155.7171 LP  0  0  0  0  0  0  0  0  0  0  0  0  # atno 17394 bound_to 11000
  141.1781  133.8471  157.1351 LP  0  0  0  0  0  0  0  0  0  0  0  0  # atno 17395 bound_to 11000

$$$$
