AV-unprocessed.smi:249|AV-procd|sdf|1920|dock2
  -GOLD-   2262021 23D 1   1.00000     0.00000
 Structure written by MMmdl.
 64 67  0  0  0  0  0  0  0  0  2 V2000
  146.2300  130.3155  152.2813 C   0  0  0  0  0  0  0  0  0  0  0  0
  147.1825  130.6658  153.4349 C   0  0  0  0  0  0  0  0  0  0  0  0
  148.3306  131.5188  153.0075 N   0  3  2  0  0  0  0  0  0  0  0  0
  149.5491  131.3658  153.8523 C   0  0  0  0  0  0  0  0  0  0  0  0
  149.3849  132.0373  155.2296 C   0  0  0  0  0  0  0  0  0  0  0  0
  149.0095  133.5242  155.0737 C   0  0  2  0  0  0  0  0  0  0  0  0
  148.8432  134.1998  156.3655 N   0  0  0  0  0  0  0  0  0  0  0  0
  149.2752  133.5390  157.5966 C   0  0  0  0  0  0  0  0  0  0  0  0
  148.9554  135.5527  156.3310 C   0  0  0  0  0  0  0  0  0  0  0  0
  148.4914  136.2391  155.2526 N   0  0  0  0  0  0  0  0  0  0  0  0
  148.5779  137.5719  155.2127 C   0  0  0  0  0  0  0  0  0  0  0  0
  149.0863  138.4023  156.1248 N   0  0  0  0  0  0  0  0  0  0  0  0
  149.5644  137.7196  157.2037 C   0  0  0  0  0  0  0  0  0  0  0  0
  149.5355  136.3086  157.3887 C   0  0  0  0  0  0  0  0  0  0  0  0
  150.1130  135.9796  158.6099 N   0  0  0  0  0  0  0  0  0  0  0  0
  150.4572  137.1305  159.1203 C   0  0  0  0  0  0  0  0  0  0  0  0
  150.1825  138.2265  158.3335 N   0  0  0  0  0  0  0  0  0  0  0  0
  150.4560  139.6160  158.6559 C   0  0  0  0  0  0  0  0  0  0  0  0
  151.5594  140.2777  157.7885 C   0  0  1  0  0  0  0  0  0  0  0  0
  150.9598  140.6791  156.4208 C   0  0  0  0  0  0  0  0  0  0  0  0
  151.4607  139.8722  155.3739 O   0  0  0  0  0  0  0  0  0  0  0  0
  152.3047  141.4555  158.4825 C   0  0  2  0  0  0  0  0  0  0  0  0
  152.8734  141.1257  159.8541 C   0  0  0  0  0  0  0  0  0  0  0  0
  153.1018  142.5073  160.4490 C   0  0  0  0  0  0  0  0  0  0  0  0
  151.9914  143.2705  160.0040 O   0  0  0  0  0  0  0  0  0  0  0  0
  151.4454  142.6837  158.8261 C   0  0  0  0  0  0  0  0  0  0  0  0
  147.7766  133.6760  154.1613 C   0  0  0  0  0  0  0  0  0  0  0  0
  148.0102  132.9665  152.8113 C   0  0  2  0  0  0  0  0  0  0  0  0
  146.8714  133.2164  151.8062 C   0  0  0  0  0  0  0  0  0  0  0  0
  145.3350  129.8238  152.6632 H   0  0  0  0  0  0  0  0  0  0  0  0
  146.6835  129.6328  151.5634 H   0  0  0  0  0  0  0  0  0  0  0  0
  145.9102  131.2104  151.7467 H   0  0  0  0  0  0  0  0  0  0  0  0
  146.5845  131.1948  154.1740 H   0  0  0  0  0  0  0  0  0  0  0  0
  147.5310  129.7559  153.9229 H   0  0  0  0  0  0  0  0  0  0  0  0
  149.8242  130.3190  153.9692 H   0  0  0  0  0  0  0  0  0  0  0  0
  150.3879  131.8265  153.3284 H   0  0  0  0  0  0  0  0  0  0  0  0
  148.6308  131.5083  155.8121 H   0  0  0  0  0  0  0  0  0  0  0  0
  150.3170  131.9475  155.7887 H   0  0  0  0  0  0  0  0  0  0  0  0
  149.8369  133.9943  154.5430 H   0  0  0  0  0  0  0  0  0  0  0  0
  148.9220  134.0857  158.4721 H   0  0  0  0  0  0  0  0  0  0  0  0
  150.3625  133.4789  157.6488 H   0  0  0  0  0  0  0  0  0  0  0  0
  148.8737  132.5292  157.6667 H   0  0  0  0  0  0  0  0  0  0  0  0
  148.1834  138.0396  154.3226 H   0  0  0  0  0  0  0  0  0  0  0  0
  150.9375  137.2110  160.0847 H   0  0  0  0  0  0  0  0  0  0  0  0
  149.5179  140.1610  158.5443 H   0  0  0  0  0  0  0  0  0  0  0  0
  150.7211  139.6793  159.7121 H   0  0  0  0  0  0  0  0  0  0  0  0
  152.3049  139.5136  157.5671 H   0  0  0  0  0  0  0  0  0  0  0  0
  149.8723  140.6082  156.4311 H   0  0  0  0  0  0  0  0  0  0  0  0
  151.1911  141.7210  156.1970 H   0  0  0  0  0  0  0  0  0  0  0  0
  151.5391  138.9848  155.6900 H   0  0  0  0  0  0  0  0  0  0  0  0
  153.1305  141.7812  157.8478 H   0  0  0  0  0  0  0  0  0  0  0  0
  152.1420  140.5793  160.4516 H   0  0  0  0  0  0  0  0  0  0  0  0
  153.7903  140.5372  159.8102 H   0  0  0  0  0  0  0  0  0  0  0  0
  153.1702  142.4941  161.5370 H   0  0  0  0  0  0  0  0  0  0  0  0
  154.0172  142.9488  160.0529 H   0  0  0  0  0  0  0  0  0  0  0  0
  151.4349  143.4140  158.0180 H   0  0  0  0  0  0  0  0  0  0  0  0
  150.4146  142.4002  159.0409 H   0  0  0  0  0  0  0  0  0  0  0  0
  146.8834  133.2715  154.6365 H   0  0  0  0  0  0  0  0  0  0  0  0
  147.5817  134.7359  153.9917 H   0  0  0  0  0  0  0  0  0  0  0  0
  148.8996  133.4107  152.3613 H   0  0  0  0  0  0  0  0  0  0  0  0
  146.8250  134.2721  151.5371 H   0  0  0  0  0  0  0  0  0  0  0  0
  145.8952  132.9521  152.2124 H   0  0  0  0  0  0  0  0  0  0  0  0
  147.0237  132.6519  150.8859 H   0  0  0  0  0  0  0  0  0  0  0  0
  148.5849  131.1741  152.0927 H   0  0  0  0  0  0  0  0  0  0  0  0
  1  2  1  0  0  0  0
  1 30  1  0  0  0  0
  1 31  1  0  0  0  0
  1 32  1  0  0  0  0
  2  3  1  0  0  0  0
  2 33  1  0  0  0  0
  2 34  1  0  0  0  0
  3 28  1  0  0  0  0
  3  4  1  0  0  0  0
  3 64  1  0  0  0  0
  4  5  1  0  0  0  0
  4 35  1  0  0  0  0
  4 36  1  0  0  0  0
  5  6  1  0  0  0  0
  5 37  1  0  0  0  0
  5 38  1  0  0  0  0
  6  7  1  0  0  0  0
  6 27  1  0  0  0  0
  6 39  1  0  0  0  0
  7  8  1  0  0  0  0
  7  9  1  0  0  0  0
  8 40  1  0  0  0  0
  8 41  1  0  0  0  0
  8 42  1  0  0  0  0
  9 14  1  0  0  0  0
  9 10  2  0  0  0  0
 10 11  1  0  0  0  0
 11 12  2  0  0  0  0
 11 43  1  0  0  0  0
 12 13  1  0  0  0  0
 13 17  1  0  0  0  0
 13 14  2  0  0  0  0
 14 15  1  0  0  0  0
 15 16  2  0  0  0  0
 16 17  1  0  0  0  0
 16 44  1  0  0  0  0
 17 18  1  0  0  0  0
 18 19  1  0  0  0  0
 18 45  1  0  0  0  0
 18 46  1  0  0  0  0
 19 20  1  0  0  0  0
 19 22  1  0  0  0  0
 19 47  1  0  0  0  0
 20 21  1  0  0  0  0
 20 48  1  0  0  0  0
 20 49  1  0  0  0  0
 21 50  1  0  0  0  0
 22 26  1  0  0  0  0
 22 23  1  0  0  0  0
 22 51  1  0  0  0  0
 23 24  1  0  0  0  0
 23 52  1  0  0  0  0
 23 53  1  0  0  0  0
 24 25  1  0  0  0  0
 24 54  1  0  0  0  0
 24 55  1  0  0  0  0
 25 26  1  0  0  0  0
 26 56  1  0  0  0  0
 26 57  1  0  0  0  0
 27 28  1  0  0  0  0
 27 58  1  0  0  0  0
 27 59  1  0  0  0  0
 28 29  1  0  0  0  0
 28 60  1  0  0  0  0
 29 61  1  0  0  0  0
 29 62  1  0  0  0  0
 29 63  1  0  0  0  0
M  CHG  1   3   1
M  END
> <s_m_source_file>
AV-unprocessed.smi

> <i_m_source_file_index>
249

> <i_lp_mmshare_version>
43012

> <i_f3d_flags>
0

> <s_epik_input>
W0NIM11bQ0gyXU4xW0NIMl1bQ0gyXVtDQEhdKFtDSDJdW0NASF0xW0NIM10pTihbQ0gzXSljKG5bY0hdbjIpYyhjMjMpbltjSF1uM1tDSDJdW0NASF0oW0NIMl1bT0hdKVtDQEBIXTRbQ0gyXVtDSDJdT1tDSDJdNA==

> <s_epik_cmdline>
J2VwaWtfcHl0aG9uJywgJy1waCcsICc3LjAnLCAnLXRuJywgJzgnLCAnLW1hJywgJzIwMCcsICctbWV0YWxfYmluZGluZycsICctaW1hZScsICc8aW5maWxlLm1hZT4nLCAnLW9tYWUnLCAnPG91dGZpbGUubWFlPic=

> <r_lp_tautomer_probability>
1

> <r_epik_Ionization_Penalty>
0.00294688

> <r_epik_Ionization_Penalty_Charging>
0.00169971

> <r_epik_Ionization_Penalty_Neutral>
0.00124717

> <r_epik_State_Penalty>
-0

> <r_epik_Charging_Adjusted_Penalty>
0.00169971

> <i_epik_Tot_Q>
1

> <i_epik_Tot_abs_Q>
1

> <r_epik_Metal_State_Penalty>
-0

> <b_epik_Metal_Only>
0

> <s_lp_Force_Field>
OPLS_2005

> <r_lp_Energy>
55.0731

> <b_lp_Chiralities_Consistent>
1

> <s_lp_Variant>
AV-unprocessed.smi:249-23

> <Gold.Version>
5.8.1

> <Gold.Id.Protein>
6NUR|6NUR_protein|mol2

> <Gold.PLP.Fitness>
47.6675

> <Gold.PLP.PLP>
-41.3616

> <Gold.PLP.part.hbond>
-3.0000

> <Gold.PLP.part.metal>
0.0000

> <Gold.PLP.part.buried>
-8.0678

> <Gold.PLP.part.nonpolar>
-30.6192

> <Gold.PLP.part.repulsive>
0.1382

> <Gold.PLP.ligand.clash>
0.0000

> <Gold.PLP.ligand.torsion>
1.9820

> <Gold.PLP.Chemscore.Hbond>
3.0000

> <Gold.PLP.Chemscore.CHOScore>
0.0000

> <Gold.PLP.Chemscore.Metal>
0.0000

> <Gold.Chemscore.Hbonds>
donor molecule, donor type, donor heavy atom, donor atom, acceptor molecule, acceptor atom, score
      L1  H     3    64       P1 10747  1.00
      P1  H  6896  6907       L1    15  1.00
      P1  H  7989  7998       L1    21  0.76

> <Gold.PLP.Chemscore.Internal.Correction>
1.2698

> <Gold.Rescore>
     Score         DG    S(hbond)    S(metal)    S(lipo)     H(rot)  DE(clash)    DE(int)     intcor
     15.42     -19.47       2.68        0.00     100.95       2.65       0.20       3.85       ----

> <Gold.Chemscore.Fitness>
15.4181

> <Gold.Chemscore.DG>
-19.4712

> <Gold.Chemscore.ZeroCoef>
-5.4800

> <Gold.Chemscore.Hbond>
2.6849

> <Gold.Chemscore.Metal>
0.0000

> <Gold.Chemscore.Lipo>
100.9525

> <Gold.Chemscore.Internal_Hbond>
0.0000

> <Gold.Chemscore.DEClash>
0.1996

> <Gold.Chemscore.DEInternal>
3.8535

> <Gold.Chemscore.Rot>
2.6515

> <Gold.Chemscore.Internal.Correction>
   9.000000E+99

> <Gold.Chemscore.Hbonds>
donor molecule, donor type, donor heavy atom, donor atom, acceptor molecule, acceptor atom, score
      L1  H     3    64       P1 10747  0.96
      P1  H  6896  6907       L1    15  0.49
      P1  H  7989  7998       L1    21  0.64

> <Gold.Chemscore.Hbond.Weighted>
-8.9677

> <Gold.Chemscore.Metal.Weighted>
-0.0000

> <Gold.Chemscore.Lipo.Weighted>
-11.8114

> <Gold.Chemscore.Internal_Hbond.Weighted>
0.0000

> <Gold.Chemscore.DEClash.Weighted>
0.1996

> <Gold.Chemscore.DEInternal.Weighted>
3.8535

> <Gold.Chemscore.Rot.Weighted>
6.7880

> <Gold.Chemscore.Internal.Correction.Weighted>
   9.000000E+99

> <Gold.Protein.RotatedTorsions>
[ 6907 6896 6895 6894 ] final  -54.79 input  -60.11 | X-H torsion
[ 7974 7965 7964 7962 ] final -165.25 input  175.53 | X-H torsion
[ 8008 7997 7996 7995 ] final -160.59 input   59.86 | X-H torsion
[ 10167 10162 10161 10158 ] final  -25.78 input  -65.29 | X-H torsion
[ 10718 10713 10712 10709 ] final  -97.55 input   66.30 | X-H torsion
[ 10763 10752 10751 10750 ] final -158.07 input  -60.55 | X-H torsion
[ 11005 11000 10999 10996 ] final -167.66 input  -57.11 | X-H torsion

> <Gold.Protein.ActiveResidues>
 VAL166  LYS551  ARG553  GLY616  TRP617  ASP618  TYR619  PRO620  LYS621  CYS622 
 ASP623  PHE694  ASN695  SER759  ASP760  ASP761  ALA762  ILE779  LEU786  VAL792 
 PHE793  MET794  SER795  GLU796  ALA797  LYS798  CYS799  TRP800  GLU811  SER814 

> <Gold.Protein.RotatedAtoms>
  150.8307  134.7559  159.6850 H   0  0  0  0  0  0  0  0  0  0  0  0  # atno 6907 bound_to 6896
  152.4412  134.5584  159.9897 H   0  0  0  0  0  0  0  0  0  0  0  0  # atno 6908 bound_to 6896
  151.5745  133.3348  159.3032 H   0  0  0  0  0  0  0  0  0  0  0  0  # atno 6909 bound_to 6896
  144.7275  140.2841  143.6231 H   0  0  0  0  0  0  0  0  0  0  0  0  # atno 7974 bound_to 7965
  155.7796  140.0863  157.2066 H   0  0  0  0  0  0  0  0  0  0  0  0  # atno 8008 bound_to 7997
  154.3991  140.1510  156.3094 H   0  0  0  0  0  0  0  0  0  0  0  0  # atno 8009 bound_to 7997
  155.8666  140.3427  155.5795 H   0  0  0  0  0  0  0  0  0  0  0  0  # atno 8010 bound_to 7997
  140.7285  143.4235  151.0914 H   0  0  0  0  0  0  0  0  0  0  0  0  # atno 10167 bound_to 10162
  156.0086  130.5199  150.6391 H   0  0  0  0  0  0  0  0  0  0  0  0  # atno 10718 bound_to 10713
  154.7586  135.3111  154.8421 H   0  0  0  0  0  0  0  0  0  0  0  0  # atno 10763 bound_to 10752
  153.9188  135.6798  153.4752 H   0  0  0  0  0  0  0  0  0  0  0  0  # atno 10764 bound_to 10752
  153.1185  135.4833  154.9087 H   0  0  0  0  0  0  0  0  0  0  0  0  # atno 10765 bound_to 10752
  140.5508  134.5430  157.5122 H   0  0  0  0  0  0  0  0  0  0  0  0  # atno 11005 bound_to 11000
  145.7920  139.1931  143.2097 LP  0  0  0  0  0  0  0  0  0  0  0  0  # atno 17320 bound_to 7965
  146.0748  140.7830  142.9670 LP  0  0  0  0  0  0  0  0  0  0  0  0  # atno 17321 bound_to 7965
  139.7883  143.8255  152.3148 LP  0  0  0  0  0  0  0  0  0  0  0  0  # atno 17342 bound_to 10162
  139.8230  144.7287  150.9548 LP  0  0  0  0  0  0  0  0  0  0  0  0  # atno 17343 bound_to 10162
  157.4174  131.0832  151.1163 LP  0  0  0  0  0  0  0  0  0  0  0  0  # atno 17370 bound_to 10713
  157.1776  130.6295  149.5661 LP  0  0  0  0  0  0  0  0  0  0  0  0  # atno 17371 bound_to 10713
  139.9456  134.7708  156.0570 LP  0  0  0  0  0  0  0  0  0  0  0  0  # atno 17394 bound_to 11000
  141.1173  133.6624  156.3125 LP  0  0  0  0  0  0  0  0  0  0  0  0  # atno 17395 bound_to 11000

$$$$
