AV-unprocessed.smi:2373|AV-procd|sdf|9439|dock10
  -GOLD-   2272013 73D 1   1.00000     0.00000
 Structure written by MMmdl.
 47 48  0  0  0  0  0  0  0  0  2 V2000
  145.7481  132.2077  150.2311 C   0  0  0  0  0  0  0  0  0  0  0  0
  145.4493  132.5572  151.6154 N   0  0  0  0  0  0  0  0  0  0  0  0
  145.6963  131.5994  152.6853 C   0  0  0  0  0  0  0  0  0  0  0  0
  144.8330  133.7929  151.9088 C   0  0  0  0  0  0  0  0  0  0  0  0
  145.2006  135.0105  151.2859 C   0  0  0  0  0  0  0  0  0  0  0  0
  144.5365  136.2047  151.6332 C   0  0  0  0  0  0  0  0  0  0  0  0
  143.5144  136.1845  152.6049 C   0  0  0  0  0  0  0  0  0  0  0  0
  142.8672  137.4133  152.9090 N   0  0  0  0  0  0  0  0  0  0  0  0
  141.6360  137.6150  153.4098 C   0  0  0  0  0  0  0  0  0  0  0  0
  140.8482  136.7263  153.7301 O   0  0  0  0  0  0  0  0  0  0  0  0
  141.3780  138.9280  153.5356 N   0  0  0  0  0  0  0  0  0  0  0  0
  140.1549  139.5722  154.0387 C   0  0  0  0  0  0  0  0  0  0  0  0
  140.3021  141.1245  154.0400 C   0  0  0  0  0  0  0  0  0  0  0  0
  141.3810  141.6974  154.9798 C   0  0  0  0  0  0  0  0  0  0  0  0
  141.8377  142.9340  154.4766 O   0  0  0  0  0  0  0  0  0  0  0  0
  139.0030  139.1021  153.1151 C   0  0  0  0  0  0  0  0  0  0  0  0
  137.6075  139.4079  153.6871 C   0  0  0  0  0  0  0  0  0  0  0  0
  137.4733  138.8204  154.9736 O   0  0  0  0  0  0  0  0  0  0  0  0
  138.4009  139.3463  155.9125 C   0  0  0  0  0  0  0  0  0  0  0  0
  139.8415  139.0429  155.4637 C   0  0  0  0  0  0  0  0  0  0  0  0
  143.1762  134.9416  153.1914 C   0  0  0  0  0  0  0  0  0  0  0  0
  143.8369  133.8214  152.8275 N   0  3  0  0  0  0  0  0  0  0  0  0
  146.4178  132.9441  149.7855 H   0  0  0  0  0  0  0  0  0  0  0  0
  144.8324  132.1681  149.6399 H   0  0  0  0  0  0  0  0  0  0  0  0
  146.2327  131.2336  150.1630 H   0  0  0  0  0  0  0  0  0  0  0  0
  144.7654  131.3359  153.1880 H   0  0  0  0  0  0  0  0  0  0  0  0
  146.3847  132.0165  153.4209 H   0  0  0  0  0  0  0  0  0  0  0  0
  146.1378  130.6798  152.3010 H   0  0  0  0  0  0  0  0  0  0  0  0
  145.9824  135.0499  150.5422 H   0  0  0  0  0  0  0  0  0  0  0  0
  144.8169  137.1316  151.1544 H   0  0  0  0  0  0  0  0  0  0  0  0
  143.4226  138.2429  152.7579 H   0  0  0  0  0  0  0  0  0  0  0  0
  142.1070  139.5618  153.2423 H   0  0  0  0  0  0  0  0  0  0  0  0
  140.5039  141.4781  153.0294 H   0  0  0  0  0  0  0  0  0  0  0  0
  139.3451  141.5750  154.3056 H   0  0  0  0  0  0  0  0  0  0  0  0
  140.9904  141.8576  155.9844 H   0  0  0  0  0  0  0  0  0  0  0  0
  142.2341  141.0250  155.0618 H   0  0  0  0  0  0  0  0  0  0  0  0
  141.9221  142.8652  153.5378 H   0  0  0  0  0  0  0  0  0  0  0  0
  139.0966  139.5265  152.1162 H   0  0  0  0  0  0  0  0  0  0  0  0
  139.0703  138.0213  152.9793 H   0  0  0  0  0  0  0  0  0  0  0  0
  137.4210  140.4812  153.7383 H   0  0  0  0  0  0  0  0  0  0  0  0
  136.8408  138.9899  153.0346 H   0  0  0  0  0  0  0  0  0  0  0  0
  138.2419  140.4178  156.0399 H   0  0  0  0  0  0  0  0  0  0  0  0
  138.2115  138.8864  156.8824 H   0  0  0  0  0  0  0  0  0  0  0  0
  139.9800  137.9607  155.4880 H   0  0  0  0  0  0  0  0  0  0  0  0
  140.5386  139.4521  156.1953 H   0  0  0  0  0  0  0  0  0  0  0  0
  142.4010  134.7871  153.9265 H   0  0  0  0  0  0  0  0  0  0  0  0
  143.5669  132.9431  153.2710 H   0  0  0  0  0  0  0  0  0  0  0  0
  1  2  1  0  0  0  0
  1 23  1  0  0  0  0
  1 24  1  0  0  0  0
  1 25  1  0  0  0  0
  2  3  1  0  0  0  0
  2  4  1  0  0  0  0
  3 26  1  0  0  0  0
  3 27  1  0  0  0  0
  3 28  1  0  0  0  0
  4 22  1  0  0  0  0
  4  5  2  0  0  0  0
  5  6  1  0  0  0  0
  5 29  1  0  0  0  0
  6  7  2  0  0  0  0
  6 30  1  0  0  0  0
  7  8  1  0  0  0  0
  7 21  1  0  0  0  0
  8  9  1  0  0  0  0
  8 31  1  0  0  0  0
  9 10  2  0  0  0  0
  9 11  1  0  0  0  0
 11 12  1  0  0  0  0
 11 32  1  0  0  0  0
 12 20  1  0  0  0  0
 12 13  1  0  0  0  0
 12 16  1  0  0  0  0
 13 14  1  0  0  0  0
 13 33  1  0  0  0  0
 13 34  1  0  0  0  0
 14 15  1  0  0  0  0
 14 35  1  0  0  0  0
 14 36  1  0  0  0  0
 15 37  1  0  0  0  0
 16 17  1  0  0  0  0
 16 38  1  0  0  0  0
 16 39  1  0  0  0  0
 17 18  1  0  0  0  0
 17 40  1  0  0  0  0
 17 41  1  0  0  0  0
 18 19  1  0  0  0  0
 19 20  1  0  0  0  0
 19 42  1  0  0  0  0
 19 43  1  0  0  0  0
 20 44  1  0  0  0  0
 20 45  1  0  0  0  0
 21 22  2  0  0  0  0
 21 46  1  0  0  0  0
 22 47  1  0  0  0  0
M  CHG  1  22   1
M  END
> <s_m_source_file>
AV-unprocessed.smi

> <i_m_source_file_index>
2373

> <i_lp_mmshare_version>
43012

> <i_f3d_flags>
0

> <s_epik_input>
W0NIM11OKFtDSDNdKWMxW2NIXVtjSF1jKFtjSF1uMSlbTkhdQyg9TylbTkhdQzIoW0NIMl1bQ0gyXVtPSF0pW0NIMl1bQ0gyXU9bQ0gyXVtDSDJdMg==

> <s_epik_cmdline>
J2VwaWtfcHl0aG9uJywgJy1waCcsICc3LjAnLCAnLXRuJywgJzgnLCAnLW1hJywgJzIwMCcsICctbWV0YWxfYmluZGluZycsICctaW1hZScsICc8aW5maWxlLm1hZT4nLCAnLW9tYWUnLCAnPG91dGZpbGUubWFlPic=

> <r_lp_tautomer_probability>
0.999994

> <r_epik_Ionization_Penalty>
0.250535

> <r_epik_Ionization_Penalty_Charging>
0.250515

> <r_epik_Ionization_Penalty_Neutral>
1.96065e-05

> <r_epik_State_Penalty>
0.241842

> <r_epik_Charging_Adjusted_Penalty>
0.492357

> <i_epik_Tot_Q>
1

> <i_epik_Tot_abs_Q>
1

> <r_epik_Metal_State_Penalty>
0.533268

> <b_epik_Metal_Only>
0

> <s_lp_Force_Field>
OPLS_2005

> <r_lp_Energy>
24.7544

> <b_lp_Chiralities_Consistent>
1

> <s_lp_Variant>
AV-unprocessed.smi:2373-1

> <Gold.Version>
5.8.1

> <Gold.Id.Protein>
6NUR|6NUR_protein|mol2

> <Gold.PLP.Fitness>
42.6793

> <Gold.PLP.PLP>
-31.4313

> <Gold.PLP.part.hbond>
-3.5075

> <Gold.PLP.part.metal>
0.0000

> <Gold.PLP.part.buried>
-4.2688

> <Gold.PLP.part.nonpolar>
-23.8527

> <Gold.PLP.part.repulsive>
0.1228

> <Gold.PLP.ligand.clash>
0.0000

> <Gold.PLP.ligand.torsion>
0.9225

> <Gold.PLP.Chemscore.Hbond>
4.3563

> <Gold.PLP.Chemscore.CHOScore>
0.0000

> <Gold.PLP.Chemscore.Metal>
0.0000

> <Gold.Chemscore.Hbonds>
donor molecule, donor type, donor heavy atom, donor atom, acceptor molecule, acceptor atom, score
      L1  H     8    31       P1 10175  0.52
      L1  H    11    32       P1 10175  1.00
      L1  H    15    37       P1 10174  1.00
      L1  H    22    47       P1 10957  1.59

> <Gold.PLP.Chemscore.Internal.Correction>
0.0242

> <Gold.Rescore>
     Score         DG    S(hbond)    S(metal)    S(lipo)     H(rot)  DE(clash)    DE(int)     intcor
     15.17     -18.08       3.36        0.00      58.12       2.12       0.05       2.86       ----

> <Gold.Chemscore.Fitness>
15.1743

> <Gold.Chemscore.DG>
-18.0803

> <Gold.Chemscore.ZeroCoef>
-5.4800

> <Gold.Chemscore.Hbond>
3.3581

> <Gold.Chemscore.Metal>
0.0000

> <Gold.Chemscore.Lipo>
58.1201

> <Gold.Chemscore.Internal_Hbond>
0.0000

> <Gold.Chemscore.DEClash>
0.0456

> <Gold.Chemscore.DEInternal>
2.8604

> <Gold.Chemscore.Rot>
2.1155

> <Gold.Chemscore.Internal.Correction>
   9.000000E+99

> <Gold.Chemscore.Hbonds>
donor molecule, donor type, donor heavy atom, donor atom, acceptor molecule, acceptor atom, score
      L1  H     8    31       P1 10175  0.50
      L1  H    11    32       P1 10175  0.91
      L1  H    15    37       P1 10174  0.98
      L1  H    22    47       P1 10957  0.50

> <Gold.Chemscore.Hbond.Weighted>
-11.2160

> <Gold.Chemscore.Metal.Weighted>
-0.0000

> <Gold.Chemscore.Lipo.Weighted>
-6.8000

> <Gold.Chemscore.Internal_Hbond.Weighted>
0.0000

> <Gold.Chemscore.DEClash.Weighted>
0.0456

> <Gold.Chemscore.DEInternal.Weighted>
2.8604

> <Gold.Chemscore.Rot.Weighted>
5.4158

> <Gold.Chemscore.Internal.Correction.Weighted>
   9.000000E+99

> <Gold.Protein.RotatedTorsions>
[ 6907 6896 6895 6894 ] final  136.19 input  -60.11 | X-H torsion
[ 7974 7965 7964 7962 ] final   48.24 input  175.53 | X-H torsion
[ 8008 7997 7996 7995 ] final  -71.20 input   59.86 | X-H torsion
[ 10167 10162 10161 10158 ] final  144.95 input  -65.29 | X-H torsion
[ 10718 10713 10712 10709 ] final -138.99 input   66.30 | X-H torsion
[ 10763 10752 10751 10750 ] final -154.27 input  -60.55 | X-H torsion
[ 11005 11000 10999 10996 ] final  -50.09 input  -57.11 | X-H torsion

> <Gold.Protein.ActiveResidues>
 VAL166  LYS551  ARG553  GLY616  TRP617  ASP618  TYR619  PRO620  LYS621  CYS622 
 ASP623  PHE694  ASN695  SER759  ASP760  ASP761  ALA762  ILE779  LEU786  VAL792 
 PHE793  MET794  SER795  GLU796  ALA797  LYS798  CYS799  TRP800  GLU811  SER814 

> <Gold.Protein.RotatedAtoms>
  152.2921  133.5572  159.5563 H   0  0  0  0  0  0  0  0  0  0  0  0  # atno 6907 bound_to 6896
  150.7240  134.0413  159.3775 H   0  0  0  0  0  0  0  0  0  0  0  0  # atno 6908 bound_to 6896
  151.8318  135.0619  160.0488 H   0  0  0  0  0  0  0  0  0  0  0  0  # atno 6909 bound_to 6896
  146.0223  139.4665  142.9889 H   0  0  0  0  0  0  0  0  0  0  0  0  # atno 7974 bound_to 7965
  154.5069  140.0820  156.7912 H   0  0  0  0  0  0  0  0  0  0  0  0  # atno 8008 bound_to 7997
  155.3873  140.3431  155.4231 H   0  0  0  0  0  0  0  0  0  0  0  0  # atno 8009 bound_to 7997
  156.1526  140.1563  156.8732 H   0  0  0  0  0  0  0  0  0  0  0  0  # atno 8010 bound_to 7997
  139.4936  144.5936  151.6630 H   0  0  0  0  0  0  0  0  0  0  0  0  # atno 10167 bound_to 10162
  156.3056  130.7453  151.1516 H   0  0  0  0  0  0  0  0  0  0  0  0  # atno 10718 bound_to 10713
  154.7870  135.3194  154.7864 H   0  0  0  0  0  0  0  0  0  0  0  0  # atno 10763 bound_to 10752
  153.8561  135.6857  153.4791 H   0  0  0  0  0  0  0  0  0  0  0  0  # atno 10764 bound_to 10752
  153.1525  135.4693  154.9597 H   0  0  0  0  0  0  0  0  0  0  0  0  # atno 10765 bound_to 10752
  141.0796  133.6656  156.3681 H   0  0  0  0  0  0  0  0  0  0  0  0  # atno 11005 bound_to 11000
  145.7173  141.0086  143.1421 LP  0  0  0  0  0  0  0  0  0  0  0  0  # atno 17320 bound_to 7965
  144.6995  139.8829  143.7448 LP  0  0  0  0  0  0  0  0  0  0  0  0  # atno 17321 bound_to 7965
  140.5568  144.0334  150.6151 LP  0  0  0  0  0  0  0  0  0  0  0  0  # atno 17342 bound_to 10162
  140.3407  143.3021  152.0591 LP  0  0  0  0  0  0  0  0  0  0  0  0  # atno 17343 bound_to 10162
  157.7379  131.0547  150.5329 LP  0  0  0  0  0  0  0  0  0  0  0  0  # atno 17370 bound_to 10713
  156.5462  130.4220  149.6130 LP  0  0  0  0  0  0  0  0  0  0  0  0  # atno 17371 bound_to 10713
  140.5497  134.6040  157.5404 LP  0  0  0  0  0  0  0  0  0  0  0  0  # atno 17394 bound_to 11000
  139.9610  134.7453  156.0238 LP  0  0  0  0  0  0  0  0  0  0  0  0  # atno 17395 bound_to 11000

$$$$
