AV-unprocessed.smi:1076|AV-procd|sdf|4697|dock4
  -GOLD-   22720 3213D 1   1.00000     0.00000
 Structure written by MMmdl.
 45 46  0  0  0  0  0  0  0  0  2 V2000
  143.6011  132.5755  151.3482 C   0  0  0  0  0  0  0  0  0  0  0  0
  144.1891  133.9396  151.5635 C   0  0  0  0  0  0  0  0  0  0  0  0
  143.9883  134.8111  152.6708 C   0  0  0  0  0  0  0  0  0  0  0  0
  144.6396  135.9560  152.5477 N   0  0  0  0  0  0  0  0  0  0  0  0
  145.2833  135.8532  151.3650 N   0  0  0  0  0  0  0  0  0  0  0  0
  146.0852  136.9651  150.8808 C   0  0  0  0  0  0  0  0  0  0  0  0
  146.2200  138.0760  151.9403 C   0  0  2  0  0  0  0  0  0  0  0  0
  146.7740  139.3741  151.3351 C   0  0  0  0  0  0  0  0  0  0  0  0
  147.0763  137.6054  153.0506 N   0  3  0  0  0  0  0  0  0  0  0  0
  147.2814  138.5622  154.1599 C   0  0  0  0  0  0  0  0  0  0  0  0
  148.5251  138.1842  154.9897 C   0  0  0  0  0  0  0  0  0  0  0  0
  149.0756  139.3405  155.8506 C   0  0  0  0  0  0  0  0  0  0  0  0
  148.3815  139.7790  156.7695 O   0  0  0  0  0  0  0  0  0  0  0  0
  150.3126  139.8268  155.5936 N   0  0  0  0  0  0  0  0  0  0  0  0
  150.9977  140.7756  156.4751 C   0  0  0  0  0  0  0  0  0  0  0  0
  152.2181  140.0617  157.0852 C   0  0  0  0  0  0  0  0  0  0  0  0
  153.0694  139.5867  156.0440 O   0  0  0  0  0  0  0  0  0  0  0  0
  152.4164  138.6939  155.1436 C   0  0  0  0  0  0  0  0  0  0  0  0
  151.2036  139.3994  154.5119 C   0  0  0  0  0  0  0  0  0  0  0  0
  145.0314  134.6447  150.7514 C   0  0  0  0  0  0  0  0  0  0  0  0
  143.2674  132.1262  152.2839 H   0  0  0  0  0  0  0  0  0  0  0  0
  144.3220  131.8899  150.9029 H   0  0  0  0  0  0  0  0  0  0  0  0
  142.7378  132.6125  150.6837 H   0  0  0  0  0  0  0  0  0  0  0  0
  143.3851  134.6487  153.5518 H   0  0  0  0  0  0  0  0  0  0  0  0
  147.0671  136.5929  150.5830 H   0  0  0  0  0  0  0  0  0  0  0  0
  145.6125  137.3573  149.9797 H   0  0  0  0  0  0  0  0  0  0  0  0
  145.2205  138.2737  152.3309 H   0  0  0  0  0  0  0  0  0  0  0  0
  146.1414  139.7257  150.5195 H   0  0  0  0  0  0  0  0  0  0  0  0
  147.7789  139.2294  150.9367 H   0  0  0  0  0  0  0  0  0  0  0  0
  146.8207  140.1709  152.0779 H   0  0  0  0  0  0  0  0  0  0  0  0
  146.5982  136.8084  153.4484 H   0  0  0  0  0  0  0  0  0  0  0  0
  147.3917  139.5642  153.7447 H   0  0  0  0  0  0  0  0  0  0  0  0
  146.4061  138.5918  154.8106 H   0  0  0  0  0  0  0  0  0  0  0  0
  148.2623  137.3424  155.6312 H   0  0  0  0  0  0  0  0  0  0  0  0
  149.3186  137.8448  154.3231 H   0  0  0  0  0  0  0  0  0  0  0  0
  151.3167  141.6456  155.8993 H   0  0  0  0  0  0  0  0  0  0  0  0
  150.3592  141.1573  157.2729 H   0  0  0  0  0  0  0  0  0  0  0  0
  152.7812  140.7476  157.7180 H   0  0  0  0  0  0  0  0  0  0  0  0
  151.9048  139.2283  157.7159 H   0  0  0  0  0  0  0  0  0  0  0  0
  153.1236  138.3915  154.3712 H   0  0  0  0  0  0  0  0  0  0  0  0
  152.1098  137.7888  155.6707 H   0  0  0  0  0  0  0  0  0  0  0  0
  150.7265  138.7523  153.7776 H   0  0  0  0  0  0  0  0  0  0  0  0
  151.5348  140.2766  153.9539 H   0  0  0  0  0  0  0  0  0  0  0  0
  145.4586  134.3936  149.7916 H   0  0  0  0  0  0  0  0  0  0  0  0
  147.9666  137.2909  152.6924 H   0  0  0  0  0  0  0  0  0  0  0  0
  1  2  1  0  0  0  0
  1 21  1  0  0  0  0
  1 22  1  0  0  0  0
  1 23  1  0  0  0  0
  2 20  2  0  0  0  0
  2  3  1  0  0  0  0
  3  4  2  0  0  0  0
  3 24  1  0  0  0  0
  4  5  1  0  0  0  0
  5  6  1  0  0  0  0
  5 20  1  0  0  0  0
  6  7  1  0  0  0  0
  6 25  1  0  0  0  0
  6 26  1  0  0  0  0
  7  8  1  0  0  0  0
  7  9  1  0  0  0  0
  7 27  1  0  0  0  0
  8 28  1  0  0  0  0
  8 29  1  0  0  0  0
  8 30  1  0  0  0  0
  9 10  1  0  0  0  0
  9 31  1  0  0  0  0
  9 45  1  0  0  0  0
 10 11  1  0  0  0  0
 10 32  1  0  0  0  0
 10 33  1  0  0  0  0
 11 12  1  0  0  0  0
 11 34  1  0  0  0  0
 11 35  1  0  0  0  0
 12 13  2  0  0  0  0
 12 14  1  0  0  0  0
 14 19  1  0  0  0  0
 14 15  1  0  0  0  0
 15 16  1  0  0  0  0
 15 36  1  0  0  0  0
 15 37  1  0  0  0  0
 16 17  1  0  0  0  0
 16 38  1  0  0  0  0
 16 39  1  0  0  0  0
 17 18  1  0  0  0  0
 18 19  1  0  0  0  0
 18 40  1  0  0  0  0
 18 41  1  0  0  0  0
 19 42  1  0  0  0  0
 19 43  1  0  0  0  0
 20 44  1  0  0  0  0
M  CHG  1   9   1
M  END
> <s_m_source_file>
AV-unprocessed.smi

> <i_m_source_file_index>
1076

> <i_lp_mmshare_version>
43012

> <i_f3d_flags>
0

> <s_epik_input>
W0NIM11jMVtjSF1ubihbY0hdMSlbQ0gyXVtDQEhdKFtDSDNdKVtOSF1bQ0gyXVtDSDJdQyg9TylOMltDSDJdW0NIMl1PW0NIMl1bQ0gyXTI=

> <s_epik_cmdline>
J2VwaWtfcHl0aG9uJywgJy1waCcsICc3LjAnLCAnLXRuJywgJzgnLCAnLW1hJywgJzIwMCcsICctbWV0YWxfYmluZGluZycsICctaW1hZScsICc8aW5maWxlLm1hZT4nLCAnLW9tYWUnLCAnPG91dGZpbGUubWFlPic=

> <r_lp_tautomer_probability>
1

> <r_epik_Ionization_Penalty>
0.00797518

> <r_epik_Ionization_Penalty_Charging>
0.0079672

> <r_epik_Ionization_Penalty_Neutral>
7.97619e-06

> <r_epik_State_Penalty>
0.00597998

> <r_epik_Charging_Adjusted_Penalty>
0.0139472

> <i_epik_Tot_Q>
1

> <i_epik_Tot_abs_Q>
1

> <r_epik_Metal_State_Penalty>
0.00598062

> <b_epik_Metal_Only>
0

> <s_lp_Force_Field>
OPLS_2005

> <r_lp_Energy>
21.8291

> <b_lp_Chiralities_Consistent>
1

> <s_lp_Variant>
AV-unprocessed.smi:1076-1

> <Gold.Version>
5.8.1

> <Gold.Id.Protein>
6NUR|6NUR_protein|mol2

> <Gold.PLP.Fitness>
45.4627

> <Gold.PLP.PLP>
-33.9500

> <Gold.PLP.part.hbond>
-2.0000

> <Gold.PLP.part.metal>
0.0000

> <Gold.PLP.part.buried>
3.9333

> <Gold.PLP.part.nonpolar>
-35.1631

> <Gold.PLP.part.repulsive>
0.1544

> <Gold.PLP.ligand.clash>
0.0000

> <Gold.PLP.ligand.torsion>
0.3302

> <Gold.PLP.Chemscore.Hbond>
3.0000

> <Gold.PLP.Chemscore.CHOScore>
1.0000

> <Gold.PLP.Chemscore.Metal>
0.0000

> <Gold.Chemscore.Hbonds>
donor molecule, donor type, donor heavy atom, donor atom, acceptor molecule, acceptor atom, score
      L1  H     9    45       P1  7948  2.00
      P1  H  7997  8009       L1    17  0.71
      L1  C    20    44       P1  7921  1.00

> <Gold.PLP.Chemscore.Internal.Correction>
0.1730

> <Gold.Rescore>
     Score         DG    S(hbond)    S(metal)    S(lipo)     H(rot)  DE(clash)    DE(int)     intcor
     15.03     -16.23       1.88        0.00      81.52       1.98       0.94       0.25       ----

> <Gold.Chemscore.Fitness>
15.0299

> <Gold.Chemscore.DG>
-16.2273

> <Gold.Chemscore.ZeroCoef>
-5.4800

> <Gold.Chemscore.Hbond>
1.8825

> <Gold.Chemscore.Metal>
0.0000

> <Gold.Chemscore.Lipo>
81.5205

> <Gold.Chemscore.Internal_Hbond>
0.0000

> <Gold.Chemscore.DEClash>
0.9444

> <Gold.Chemscore.DEInternal>
0.2530

> <Gold.Chemscore.Rot>
1.9837

> <Gold.Chemscore.Internal.Correction>
   9.000000E+99

> <Gold.Chemscore.Hbonds>
donor molecule, donor type, donor heavy atom, donor atom, acceptor molecule, acceptor atom, score
      L1  H     9    45       P1  7948  0.97
      P1  H  7997  8009       L1    17  0.58

> <Gold.Chemscore.Hbond.Weighted>
-6.2876

> <Gold.Chemscore.Metal.Weighted>
-0.0000

> <Gold.Chemscore.Lipo.Weighted>
-9.5379

> <Gold.Chemscore.Internal_Hbond.Weighted>
0.0000

> <Gold.Chemscore.DEClash.Weighted>
0.9444

> <Gold.Chemscore.DEInternal.Weighted>
0.2530

> <Gold.Chemscore.Rot.Weighted>
5.0782

> <Gold.Chemscore.Internal.Correction.Weighted>
   9.000000E+99

> <Gold.Protein.RotatedTorsions>
[ 6907 6896 6895 6894 ] final   66.20 input  -60.11 | X-H torsion
[ 7974 7965 7964 7962 ] final -160.81 input  175.53 | X-H torsion
[ 8008 7997 7996 7995 ] final -148.43 input   59.86 | X-H torsion
[ 10167 10162 10161 10158 ] final  -56.42 input  -65.29 | X-H torsion
[ 10718 10713 10712 10709 ] final -127.00 input   66.30 | X-H torsion
[ 10763 10752 10751 10750 ] final -174.37 input  -60.55 | X-H torsion
[ 11005 11000 10999 10996 ] final  -88.63 input  -57.11 | X-H torsion

> <Gold.Protein.ActiveResidues>
 VAL166  LYS551  ARG553  GLY616  TRP617  ASP618  TYR619  PRO620  LYS621  CYS622 
 ASP623  PHE694  ASN695  SER759  ASP760  ASP761  ALA762  ILE779  LEU786  VAL792 
 PHE793  MET794  SER795  GLU796  ALA797  LYS798  CYS799  TRP800  GLU811  SER814 

> <Gold.Protein.RotatedAtoms>
  152.4464  134.5486  159.9859 H   0  0  0  0  0  0  0  0  0  0  0  0  # atno 6907 bound_to 6896
  151.5570  133.3403  159.2972 H   0  0  0  0  0  0  0  0  0  0  0  0  # atno 6908 bound_to 6896
  150.8381  134.7695  159.6973 H   0  0  0  0  0  0  0  0  0  0  0  0  # atno 6909 bound_to 6896
  144.7413  140.3487  143.6120 H   0  0  0  0  0  0  0  0  0  0  0  0  # atno 7974 bound_to 7965
  155.5915  140.0653  157.2757 H   0  0  0  0  0  0  0  0  0  0  0  0  # atno 8008 bound_to 7997
  154.4304  140.1834  156.1127 H   0  0  0  0  0  0  0  0  0  0  0  0  # atno 8009 bound_to 7997
  156.0229  140.3315  155.7061 H   0  0  0  0  0  0  0  0  0  0  0  0  # atno 8010 bound_to 7997
  140.6318  143.2463  151.5221 H   0  0  0  0  0  0  0  0  0  0  0  0  # atno 10167 bound_to 10162
  156.1816  130.6736  151.0312 H   0  0  0  0  0  0  0  0  0  0  0  0  # atno 10718 bound_to 10713
  154.5971  135.2851  155.0575 H   0  0  0  0  0  0  0  0  0  0  0  0  # atno 10763 bound_to 10752
  154.1854  135.6450  153.5049 H   0  0  0  0  0  0  0  0  0  0  0  0  # atno 10764 bound_to 10752
  153.0142  135.5433  154.6676 H   0  0  0  0  0  0  0  0  0  0  0  0  # atno 10765 bound_to 10752
  141.1598  133.7581  156.9478 H   0  0  0  0  0  0  0  0  0  0  0  0  # atno 11005 bound_to 11000
  145.7298  139.1733  143.2437 LP  0  0  0  0  0  0  0  0  0  0  0  0  # atno 17320 bound_to 7965
  146.1214  140.7303  142.9455 LP  0  0  0  0  0  0  0  0  0  0  0  0  # atno 17321 bound_to 7965
  139.5531  144.2344  152.1566 LP  0  0  0  0  0  0  0  0  0  0  0  0  # atno 17342 bound_to 10162
  140.1589  144.5044  150.6644 LP  0  0  0  0  0  0  0  0  0  0  0  0  # atno 17343 bound_to 10162
  157.6872  131.0821  150.7209 LP  0  0  0  0  0  0  0  0  0  0  0  0  # atno 17370 bound_to 10713
  156.7266  130.4697  149.5509 LP  0  0  0  0  0  0  0  0  0  0  0  0  # atno 17371 bound_to 10713
  140.1277  134.9376  157.2294 LP  0  0  0  0  0  0  0  0  0  0  0  0  # atno 17394 bound_to 11000
  140.2991  134.3152  155.7294 LP  0  0  0  0  0  0  0  0  0  0  0  0  # atno 17395 bound_to 11000

$$$$
