AV-unprocessed.smi:1165|AV-procd|sdf|4929|dock7
  -GOLD-   22720 3513D 1   1.00000     0.00000
 Structure written by MMmdl.
 41 42  0  0  0  0  0  0  0  0  1 V2000
  146.7684  138.7227  152.7724 C   0  0  0  0  0  0  0  0  0  0  0  0
  147.2767  139.6653  153.8686 C   0  0  1  0  0  0  0  0  0  0  0  0
  148.6109  140.3340  153.4805 C   0  0  0  0  0  0  0  0  0  0  0  0
  149.0074  141.3428  154.4770 N   0  0  0  0  0  0  0  0  0  0  0  0
  150.1378  140.9044  155.7230 S   0  0  0  0  0  0  0  0  0  0  0  0
  149.4293  140.1584  156.7743 O   0  0  0  0  0  0  0  0  0  0  0  0
  151.3500  140.3554  155.0964 O   0  0  0  0  0  0  0  0  0  0  0  0
  150.5170  142.4658  156.3401 N   0  0  0  0  0  0  0  0  0  0  0  0
  150.4978  142.6734  157.7842 C   0  0  0  0  0  0  0  0  0  0  0  0
  151.6606  143.5833  158.1991 C   0  0  0  0  0  0  0  0  0  0  0  0
  152.0116  143.4298  159.6654 C   0  0  0  0  0  0  0  0  0  0  0  0
  152.6616  142.2696  160.1343 C   0  0  0  0  0  0  0  0  0  0  0  0
  152.9678  142.1708  161.5051 C   0  0  0  0  0  0  0  0  0  0  0  0
  152.6092  143.2394  162.3509 C   0  0  0  0  0  0  0  0  0  0  0  0
  151.9853  144.3545  161.9130 N   0  0  0  0  0  0  0  0  0  0  0  0
  151.6952  144.4412  160.5969 C   0  0  0  0  0  0  0  0  0  0  0  0
  147.9296  142.2948  154.7930 C   0  0  0  0  0  0  0  0  0  0  0  0
  146.6234  141.5538  155.1422 C   0  0  1  0  0  0  0  0  0  0  0  0
  145.4511  142.5195  155.3454 C   0  0  0  0  0  0  0  0  0  0  0  0
  146.2875  140.6651  154.0836 O   0  0  0  0  0  0  0  0  0  0  0  0
  147.4850  137.9245  152.5783 H   0  0  0  0  0  0  0  0  0  0  0  0
  146.6019  139.2582  151.8371 H   0  0  0  0  0  0  0  0  0  0  0  0
  145.8252  138.2594  153.0632 H   0  0  0  0  0  0  0  0  0  0  0  0
  147.4011  139.0844  154.7830 H   0  0  0  0  0  0  0  0  0  0  0  0
  149.3974  139.5893  153.3600 H   0  0  0  0  0  0  0  0  0  0  0  0
  148.5051  140.8318  152.5158 H   0  0  0  0  0  0  0  0  0  0  0  0
  150.0414  143.2072  155.8265 H   0  0  0  0  0  0  0  0  0  0  0  0
  149.5424  143.1156  158.0686 H   0  0  0  0  0  0  0  0  0  0  0  0
  150.5725  141.7069  158.2842 H   0  0  0  0  0  0  0  0  0  0  0  0
  152.5442  143.3581  157.6002 H   0  0  0  0  0  0  0  0  0  0  0  0
  151.4106  144.6262  157.9987 H   0  0  0  0  0  0  0  0  0  0  0  0
  152.9208  141.4689  159.4571 H   0  0  0  0  0  0  0  0  0  0  0  0
  153.4652  141.2970  161.8997 H   0  0  0  0  0  0  0  0  0  0  0  0
  152.8291  143.1971  163.4074 H   0  0  0  0  0  0  0  0  0  0  0  0
  151.1953  145.3444  160.2792 H   0  0  0  0  0  0  0  0  0  0  0  0
  148.2315  142.9539  155.6067 H   0  0  0  0  0  0  0  0  0  0  0  0
  147.7693  142.9306  153.9213 H   0  0  0  0  0  0  0  0  0  0  0  0
  146.7506  140.9817  156.0616 H   0  0  0  0  0  0  0  0  0  0  0  0
  145.6537  143.2169  156.1587 H   0  0  0  0  0  0  0  0  0  0  0  0
  144.5382  141.9771  155.5927 H   0  0  0  0  0  0  0  0  0  0  0  0
  145.2581  143.1021  154.4443 H   0  0  0  0  0  0  0  0  0  0  0  0
  1  2  1  0  0  0  0
  1 21  1  0  0  0  0
  1 22  1  0  0  0  0
  1 23  1  0  0  0  0
  2 20  1  0  0  0  0
  2  3  1  0  0  0  0
  2 24  1  0  0  0  0
  3  4  1  0  0  0  0
  3 25  1  0  0  0  0
  3 26  1  0  0  0  0
  4  5  1  0  0  0  0
  4 17  1  0  0  0  0
  5  6  2  0  0  0  0
  5  7  2  0  0  0  0
  5  8  1  0  0  0  0
  8  9  1  0  0  0  0
  8 27  1  0  0  0  0
  9 10  1  0  0  0  0
  9 28  1  0  0  0  0
  9 29  1  0  0  0  0
 10 11  1  0  0  0  0
 10 30  1  0  0  0  0
 10 31  1  0  0  0  0
 11 16  1  0  0  0  0
 11 12  2  0  0  0  0
 12 13  1  0  0  0  0
 12 32  1  0  0  0  0
 13 14  2  0  0  0  0
 13 33  1  0  0  0  0
 14 15  1  0  0  0  0
 14 34  1  0  0  0  0
 15 16  2  0  0  0  0
 16 35  1  0  0  0  0
 17 18  1  0  0  0  0
 17 36  1  0  0  0  0
 17 37  1  0  0  0  0
 18 19  1  0  0  0  0
 18 20  1  0  0  0  0
 18 38  1  0  0  0  0
 19 39  1  0  0  0  0
 19 40  1  0  0  0  0
 19 41  1  0  0  0  0
M  END
> <s_m_source_file>
AV-unprocessed.smi

> <i_m_source_file_index>
1165

> <i_lp_mmshare_version>
43012

> <i_f3d_flags>
0

> <s_epik_input>
W0NIM11bQ0BASF0xW0NIMl1OKFtDSDJdW0NASF0oTzEpW0NIM10pUyg9TykoPU8pW05IXVtDSDJdW0NIMl1jMltjSF1bY0hdW2NIXW5bY0hdMg==

> <s_epik_cmdline>
J2VwaWtfcHl0aG9uJywgJy1waCcsICc3LjAnLCAnLXRuJywgJzgnLCAnLW1hJywgJzIwMCcsICctbWV0YWxfYmluZGluZycsICctaW1hZScsICc8aW5maWxlLm1hZT4nLCAnLW9tYWUnLCAnPG91dGZpbGUubWFlPic=

> <r_epik_Ionization_Penalty>
0.0861056

> <r_epik_Ionization_Penalty_Charging>
0

> <r_epik_Ionization_Penalty_Neutral>
0.0861056

> <r_epik_State_Penalty>
0.0574425

> <r_epik_Charging_Adjusted_Penalty>
0.0574425

> <i_epik_Tot_Q>
0

> <i_epik_Tot_abs_Q>
0

> <r_epik_Metal_State_Penalty>
0.317425

> <b_epik_Metal_Only>
0

> <s_lp_Force_Field>
OPLS_2005

> <r_lp_Energy>
3.52917

> <b_lp_Chiralities_Consistent>
1

> <s_lp_Variant>
AV-unprocessed.smi:1165-2

> <Gold.Version>
5.8.1

> <Gold.Id.Protein>
6NUR|6NUR_protein|mol2

> <Gold.PLP.Fitness>
46.3212

> <Gold.PLP.PLP>
-42.0900

> <Gold.PLP.part.hbond>
-2.0000

> <Gold.PLP.part.metal>
0.0000

> <Gold.PLP.part.buried>
2.9770

> <Gold.PLP.part.nonpolar>
-43.2992

> <Gold.PLP.part.repulsive>
0.7817

> <Gold.PLP.ligand.clash>
0.0000

> <Gold.PLP.ligand.torsion>
1.9126

> <Gold.PLP.Chemscore.Hbond>
1.9833

> <Gold.PLP.Chemscore.CHOScore>
0.0000

> <Gold.PLP.Chemscore.Metal>
0.0000

> <Gold.Chemscore.Hbonds>
donor molecule, donor type, donor heavy atom, donor atom, acceptor molecule, acceptor atom, score
      L1  H     8    27       P1  8028  1.00
      P1  H  7989  7998       L1     7  1.00

> <Gold.PLP.Chemscore.Internal.Correction>
2.1065

> <Gold.Rescore>
     Score         DG    S(hbond)    S(metal)    S(lipo)     H(rot)  DE(clash)    DE(int)     intcor
     16.49     -20.15       1.85        0.00     105.64       1.52       1.69       1.97       ----

> <Gold.Chemscore.Fitness>
16.4945

> <Gold.Chemscore.DG>
-20.1453

> <Gold.Chemscore.ZeroCoef>
-5.4800

> <Gold.Chemscore.Hbond>
1.8532

> <Gold.Chemscore.Metal>
0.0000

> <Gold.Chemscore.Lipo>
105.6397

> <Gold.Chemscore.Internal_Hbond>
0.0000

> <Gold.Chemscore.DEClash>
1.6854

> <Gold.Chemscore.DEInternal>
1.9654

> <Gold.Chemscore.Rot>
1.5172

> <Gold.Chemscore.Internal.Correction>
   9.000000E+99

> <Gold.Chemscore.Hbonds>
donor molecule, donor type, donor heavy atom, donor atom, acceptor molecule, acceptor atom, score
      L1  H     8    27       P1  8028  0.98
      P1  H  7989  7998       L1     7  0.86

> <Gold.Chemscore.Hbond.Weighted>
-6.1896

> <Gold.Chemscore.Metal.Weighted>
-0.0000

> <Gold.Chemscore.Lipo.Weighted>
-12.3598

> <Gold.Chemscore.Internal_Hbond.Weighted>
0.0000

> <Gold.Chemscore.DEClash.Weighted>
1.6854

> <Gold.Chemscore.DEInternal.Weighted>
1.9654

> <Gold.Chemscore.Rot.Weighted>
3.8841

> <Gold.Chemscore.Internal.Correction.Weighted>
   9.000000E+99

> <Gold.Protein.RotatedTorsions>
[ 6907 6896 6895 6894 ] final  -28.89 input  -60.11 | X-H torsion
[ 7974 7965 7964 7962 ] final -126.84 input  175.53 | X-H torsion
[ 8008 7997 7996 7995 ] final   16.99 input   59.86 | X-H torsion
[ 10167 10162 10161 10158 ] final -146.19 input  -65.29 | X-H torsion
[ 10718 10713 10712 10709 ] final -134.01 input   66.30 | X-H torsion
[ 10763 10752 10751 10750 ] final -178.02 input  -60.55 | X-H torsion
[ 11005 11000 10999 10996 ] final -160.15 input  -57.11 | X-H torsion

> <Gold.Protein.ActiveResidues>
 VAL166  LYS551  ARG553  GLY616  TRP617  ASP618  TYR619  PRO620  LYS621  CYS622 
 ASP623  PHE694  ASN695  SER759  ASP760  ASP761  ALA762  ILE779  LEU786  VAL792 
 PHE793  MET794  SER795  GLU796  ALA797  LYS798  CYS799  TRP800  GLU811  SER814 

> <Gold.Protein.RotatedAtoms>
  151.1267  135.0108  159.8563 H   0  0  0  0  0  0  0  0  0  0  0  0  # atno 6907 bound_to 6896
  152.5450  134.1659  159.8587 H   0  0  0  0  0  0  0  0  0  0  0  0  # atno 6908 bound_to 6896
  151.1722  133.4732  159.2627 H   0  0  0  0  0  0  0  0  0  0  0  0  # atno 6909 bound_to 6896
  144.9832  140.7660  143.4599 H   0  0  0  0  0  0  0  0  0  0  0  0  # atno 7974 bound_to 7965
  154.8849  140.2978  155.5404 H   0  0  0  0  0  0  0  0  0  0  0  0  # atno 8008 bound_to 7997
  156.3021  140.2435  156.3791 H   0  0  0  0  0  0  0  0  0  0  0  0  # atno 8009 bound_to 7997
  154.8678  140.0402  157.1695 H   0  0  0  0  0  0  0  0  0  0  0  0  # atno 8010 bound_to 7997
  139.7736  143.8202  152.2628 H   0  0  0  0  0  0  0  0  0  0  0  0  # atno 10167 bound_to 10162
  156.2510  130.7153  151.1052 H   0  0  0  0  0  0  0  0  0  0  0  0  # atno 10718 bound_to 10713
  154.5528  135.2814  155.0992 H   0  0  0  0  0  0  0  0  0  0  0  0  # atno 10763 bound_to 10752
  154.2431  135.6353  153.5218 H   0  0  0  0  0  0  0  0  0  0  0  0  # atno 10764 bound_to 10752
  153.0007  135.5565  154.6100 H   0  0  0  0  0  0  0  0  0  0  0  0  # atno 10765 bound_to 10752
  140.6347  134.4614  157.5231 H   0  0  0  0  0  0  0  0  0  0  0  0  # atno 11005 bound_to 11000
  145.2391  139.2080  143.5002 LP  0  0  0  0  0  0  0  0  0  0  0  0  # atno 17320 bound_to 7965
  146.3413  140.2283  142.8593 LP  0  0  0  0  0  0  0  0  0  0  0  0  # atno 17321 bound_to 7965
  139.8244  144.7282  150.9531 LP  0  0  0  0  0  0  0  0  0  0  0  0  # atno 17342 bound_to 10162
  140.7815  143.4129  151.0964 LP  0  0  0  0  0  0  0  0  0  0  0  0  # atno 17343 bound_to 10162
  157.7214  131.0679  150.6119 LP  0  0  0  0  0  0  0  0  0  0  0  0  # atno 17370 bound_to 10713
  156.6199  130.4403  149.5826 LP  0  0  0  0  0  0  0  0  0  0  0  0  # atno 17371 bound_to 10713
  139.9103  134.8360  156.1554 LP  0  0  0  0  0  0  0  0  0  0  0  0  # atno 17394 bound_to 11000
  141.0650  133.6823  156.2027 LP  0  0  0  0  0  0  0  0  0  0  0  0  # atno 17395 bound_to 11000

$$$$
