AV-unprocessed.smi:2776|AV-procd|sdf|10704|dock5
  -GOLD-   2272015143D 1   1.00000     0.00000
 Structure written by MMmdl.
 25 26  0  0  0  0  0  0  0  0  1 V2000
  150.1680  142.3593  155.5836 O   0  0  0  0  0  0  0  0  0  0  0  0
  150.2420  141.3063  156.5262 C   0  0  2  0  0  0  0  0  0  0  0  0
  151.5591  141.4145  157.3205 C   0  0  0  0  0  0  0  0  0  0  0  0
  151.4807  142.3848  158.3981 N   0  0  0  0  0  0  0  0  0  0  0  0
  150.7375  143.5077  158.4235 C   0  0  0  0  0  0  0  0  0  0  0  0
  150.8111  144.2627  159.5159 N   0  0  0  0  0  0  0  0  0  0  0  0
  151.7056  143.5456  160.2918 C   0  0  0  0  0  0  0  0  0  0  0  0
  152.2168  143.8092  161.5826 C   0  0  0  0  0  0  0  0  0  0  0  0
  153.1348  142.9224  162.1830 C   0  0  0  0  0  0  0  0  0  0  0  0
  153.6155  143.1908  163.4201 F   0  0  0  0  0  0  0  0  0  0  0  0
  153.5549  141.7602  161.5023 C   0  0  0  0  0  0  0  0  0  0  0  0
  154.4368  140.9142  162.0853 F   0  0  0  0  0  0  0  0  0  0  0  0
  153.0599  141.4771  160.2149 C   0  0  0  0  0  0  0  0  0  0  0  0
  152.1437  142.3643  159.6206 C   0  0  0  0  0  0  0  0  0  0  0  0
  150.0928  139.9584  155.7946 C   0  0  0  0  0  0  0  0  0  0  0  0
  149.1624  140.0521  154.8443 F   0  0  0  0  0  0  0  0  0  0  0  0
  151.2498  139.5786  155.2512 F   0  0  0  0  0  0  0  0  0  0  0  0
  149.7027  139.0241  156.6616 F   0  0  0  0  0  0  0  0  0  0  0  0
  149.5969  143.0294  155.9265 H   0  0  0  0  0  0  0  0  0  0  0  0
  149.4036  141.4242  157.2140 H   0  0  0  0  0  0  0  0  0  0  0  0
  151.8188  140.4475  157.7528 H   0  0  0  0  0  0  0  0  0  0  0  0
  152.3832  141.6914  156.6620 H   0  0  0  0  0  0  0  0  0  0  0  0
  150.1075  143.7870  157.5917 H   0  0  0  0  0  0  0  0  0  0  0  0
  151.9028  144.6962  162.1122 H   0  0  0  0  0  0  0  0  0  0  0  0
  153.3827  140.5898  159.6905 H   0  0  0  0  0  0  0  0  0  0  0  0
  1  2  1  0  0  0  0
  1 19  1  0  0  0  0
  2  3  1  0  0  0  0
  2 15  1  0  0  0  0
  2 20  1  0  0  0  0
  3  4  1  0  0  0  0
  3 21  1  0  0  0  0
  3 22  1  0  0  0  0
  4 14  1  0  0  0  0
  4  5  1  0  0  0  0
  5  6  2  0  0  0  0
  5 23  1  0  0  0  0
  6  7  1  0  0  0  0
  7 14  2  0  0  0  0
  7  8  1  0  0  0  0
  8  9  2  0  0  0  0
  8 24  1  0  0  0  0
  9 10  1  0  0  0  0
  9 11  1  0  0  0  0
 11 12  1  0  0  0  0
 11 13  2  0  0  0  0
 13 14  1  0  0  0  0
 13 25  1  0  0  0  0
 15 16  1  0  0  0  0
 15 17  1  0  0  0  0
 15 18  1  0  0  0  0
M  END
> <s_m_source_file>
AV-unprocessed.smi

> <i_m_source_file_index>
2776

> <i_lp_mmshare_version>
43012

> <i_f3d_flags>
0

> <s_epik_input>
RkMoRikoRilbQ0BIXShbT0hdKVtDSDJdbihbY0hdbjEpYyhjMTIpW2NIXWMoRiljKEYpW2NIXTI=

> <s_epik_cmdline>
J2VwaWtfcHl0aG9uJywgJy1waCcsICc3LjAnLCAnLXRuJywgJzgnLCAnLW1hJywgJzIwMCcsICctbWV0YWxfYmluZGluZycsICctaW1hZScsICc8aW5maWxlLm1hZT4nLCAnLW9tYWUnLCAnPG91dGZpbGUubWFlPic=

> <r_epik_Ionization_Penalty>
0.0162713

> <r_epik_Ionization_Penalty_Charging>
0

> <r_epik_Ionization_Penalty_Neutral>
0.0162713

> <r_epik_State_Penalty>
0.00836517

> <r_epik_Charging_Adjusted_Penalty>
0.00836517

> <i_epik_Tot_Q>
0

> <i_epik_Tot_abs_Q>
0

> <r_epik_Metal_State_Penalty>
8.42444e-06

> <b_epik_Metal_Only>
0

> <s_lp_Force_Field>
OPLS_2005

> <r_lp_Energy>
8.8272

> <b_lp_Chiralities_Consistent>
1

> <s_lp_Variant>
AV-unprocessed.smi:2776-1

> <Gold.Version>
5.8.1

> <Gold.Id.Protein>
6NUR|6NUR_protein|mol2

> <Gold.PLP.Fitness>
46.5790

> <Gold.PLP.PLP>
-42.8602

> <Gold.PLP.part.hbond>
-1.1800

> <Gold.PLP.part.metal>
0.0000

> <Gold.PLP.part.buried>
-2.4654

> <Gold.PLP.part.nonpolar>
-38.4331

> <Gold.PLP.part.repulsive>
0.1132

> <Gold.PLP.ligand.clash>
0.0000

> <Gold.PLP.ligand.torsion>
1.1471

> <Gold.PLP.Chemscore.Hbond>
1.0000

> <Gold.PLP.Chemscore.CHOScore>
1.0000

> <Gold.PLP.Chemscore.Metal>
0.0000

> <Gold.Chemscore.Hbonds>
donor molecule, donor type, donor heavy atom, donor atom, acceptor molecule, acceptor atom, score
      L1  H     1    19       P1  8028  0.91
      L1  C     5    23       P1  8028  1.00

> <Gold.PLP.Chemscore.Internal.Correction>
0.0128

> <Gold.Rescore>
     Score         DG    S(hbond)    S(metal)    S(lipo)     H(rot)  DE(clash)    DE(int)     intcor
     12.36     -12.99       0.98        0.00      81.70       2.08       0.08       0.55       ----

> <Gold.Chemscore.Fitness>
12.3637

> <Gold.Chemscore.DG>
-12.9923

> <Gold.Chemscore.ZeroCoef>
-5.4800

> <Gold.Chemscore.Hbond>
0.9848

> <Gold.Chemscore.Metal>
0.0000

> <Gold.Chemscore.Lipo>
81.6966

> <Gold.Chemscore.Internal_Hbond>
0.0000

> <Gold.Chemscore.DEClash>
0.0795

> <Gold.Chemscore.DEInternal>
0.5492

> <Gold.Chemscore.Rot>
2.0841

> <Gold.Chemscore.Internal.Correction>
   9.000000E+99

> <Gold.Chemscore.Hbonds>
donor molecule, donor type, donor heavy atom, donor atom, acceptor molecule, acceptor atom, score
      L1  H     1    19       P1  8028  0.90

> <Gold.Chemscore.Hbond.Weighted>
-3.2891

> <Gold.Chemscore.Metal.Weighted>
-0.0000

> <Gold.Chemscore.Lipo.Weighted>
-9.5585

> <Gold.Chemscore.Internal_Hbond.Weighted>
0.0000

> <Gold.Chemscore.DEClash.Weighted>
0.0795

> <Gold.Chemscore.DEInternal.Weighted>
0.5492

> <Gold.Chemscore.Rot.Weighted>
5.3353

> <Gold.Chemscore.Internal.Correction.Weighted>
   9.000000E+99

> <Gold.Protein.RotatedTorsions>
[ 6907 6896 6895 6894 ] final -175.94 input  -60.11 | X-H torsion
[ 7974 7965 7964 7962 ] final   61.79 input  175.53 | X-H torsion
[ 8008 7997 7996 7995 ] final  100.96 input   59.86 | X-H torsion
[ 10167 10162 10161 10158 ] final  -92.35 input  -65.29 | X-H torsion
[ 10718 10713 10712 10709 ] final  -19.47 input   66.30 | X-H torsion
[ 10763 10752 10751 10750 ] final  -86.90 input  -60.55 | X-H torsion
[ 11005 11000 10999 10996 ] final  174.88 input  -57.11 | X-H torsion

> <Gold.Protein.ActiveResidues>
 VAL166  LYS551  ARG553  GLY616  TRP617  ASP618  TYR619  PRO620  LYS621  CYS622 
 ASP623  PHE694  ASN695  SER759  ASP760  ASP761  ALA762  ILE779  LEU786  VAL792 
 PHE793  MET794  SER795  GLU796  ALA797  LYS798  CYS799  TRP800  GLU811  SER814 

> <Gold.Protein.RotatedAtoms>
  151.5968  133.3360  159.3038 H   0  0  0  0  0  0  0  0  0  0  0  0  # atno 6907 bound_to 6896
  150.8230  134.7450  159.6800 H   0  0  0  0  0  0  0  0  0  0  0  0  # atno 6908 bound_to 6896
  152.4322  134.5762  159.9986 H   0  0  0  0  0  0  0  0  0  0  0  0  # atno 6909 bound_to 6896
  145.8807  139.3441  143.0708 H   0  0  0  0  0  0  0  0  0  0  0  0  # atno 7974 bound_to 7965
  156.1253  140.3205  155.8268 H   0  0  0  0  0  0  0  0  0  0  0  0  # atno 8008 bound_to 7997
  155.4431  140.0527  157.3025 H   0  0  0  0  0  0  0  0  0  0  0  0  # atno 8009 bound_to 7997
  154.4858  140.2072  155.9673 H   0  0  0  0  0  0  0  0  0  0  0  0  # atno 8010 bound_to 7997
  140.3357  143.2970  151.9892 H   0  0  0  0  0  0  0  0  0  0  0  0  # atno 10167 bound_to 10162
  156.5452  130.4688  149.6479 H   0  0  0  0  0  0  0  0  0  0  0  0  # atno 10718 bound_to 10713
  154.6276  135.5432  153.7644 H   0  0  0  0  0  0  0  0  0  0  0  0  # atno 10763 bound_to 10752
  153.0268  135.6428  154.1348 H   0  0  0  0  0  0  0  0  0  0  0  0  # atno 10764 bound_to 10752
  154.1280  135.2916  155.3172 H   0  0  0  0  0  0  0  0  0  0  0  0  # atno 10765 bound_to 10752
  140.3561  134.7153  157.4300 H   0  0  0  0  0  0  0  0  0  0  0  0  # atno 11005 bound_to 11000
  145.9027  140.9232  143.0495 LP  0  0  0  0  0  0  0  0  0  0  0  0  # atno 17320 bound_to 7965
  144.6727  140.1054  143.7458 LP  0  0  0  0  0  0  0  0  0  0  0  0  # atno 17321 bound_to 7965
  139.4849  144.6198  151.7277 LP  0  0  0  0  0  0  0  0  0  0  0  0  # atno 17342 bound_to 10162
  140.5355  144.0662  150.6069 LP  0  0  0  0  0  0  0  0  0  0  0  0  # atno 17343 bound_to 10162
  156.2935  130.7137  151.1992 LP  0  0  0  0  0  0  0  0  0  0  0  0  # atno 17370 bound_to 10713
  157.7398  131.0525  150.5209 LP  0  0  0  0  0  0  0  0  0  0  0  0  # atno 17371 bound_to 10713
  140.0664  134.5923  155.8690 LP  0  0  0  0  0  0  0  0  0  0  0  0  # atno 17394 bound_to 11000
  141.1998  133.6609  156.5863 LP  0  0  0  0  0  0  0  0  0  0  0  0  # atno 17395 bound_to 11000

$$$$
