AV-unprocessed.smi:2807|AV-procd|sdf|10819|dock10
  -GOLD-   2272015253D 1   1.00000     0.00000
 Structure written by MMmdl.
 32 33  0  0  0  0  0  0  0  0  1 V2000
  151.5997  140.0667  155.3476 O   0  0  0  0  0  0  0  0  0  0  0  0
  150.9015  140.6038  156.2096 C   0  0  0  0  0  0  0  0  0  0  0  0
  149.7169  141.1731  155.9337 N   0  0  0  0  0  0  0  0  0  0  0  0
  149.1041  141.2528  154.6097 C   0  0  1  0  0  0  0  0  0  0  0  0
  149.1307  139.8770  153.9167 C   0  0  0  0  0  0  0  0  0  0  0  0
  147.7376  139.2873  154.1279 C   0  0  0  0  0  0  0  0  0  0  0  0
  146.8178  140.5017  154.0573 C   0  0  0  0  0  0  0  0  0  0  0  0
  147.6100  141.6315  154.7302 C   0  0  2  0  0  0  0  0  0  0  0  0
  147.3317  142.8634  154.0974 O   0  0  0  0  0  0  0  0  0  0  0  0
  151.3399  140.6361  157.6838 C   0  0  0  0  0  0  0  0  0  0  0  0
  150.4292  139.9927  158.4185 F   0  0  0  0  0  0  0  0  0  0  0  0
  152.4896  139.9661  157.7852 F   0  0  0  0  0  0  0  0  0  0  0  0
  151.5097  142.0621  158.2067 C   0  0  0  0  0  0  0  0  0  0  0  0
  152.1369  142.3130  159.4487 C   0  0  0  0  0  0  0  0  0  0  0  0
  152.2803  143.6470  159.8757 C   0  0  0  0  0  0  0  0  0  0  0  0
  151.7950  144.6794  159.0513 C   0  0  0  0  0  0  0  0  0  0  0  0
  151.1863  144.3303  157.8301 C   0  0  0  0  0  0  0  0  0  0  0  0
  151.0439  143.0548  157.4112 N   0  0  0  0  0  0  0  0  0  0  0  0
  149.2033  141.5869  156.6983 H   0  0  0  0  0  0  0  0  0  0  0  0
  149.6469  141.9822  154.0045 H   0  0  0  0  0  0  0  0  0  0  0  0
  149.2985  140.0181  152.8482 H   0  0  0  0  0  0  0  0  0  0  0  0
  149.9201  139.2171  154.2790 H   0  0  0  0  0  0  0  0  0  0  0  0
  147.4867  138.5254  153.3895 H   0  0  0  0  0  0  0  0  0  0  0  0
  147.6746  138.8310  155.1167 H   0  0  0  0  0  0  0  0  0  0  0  0
  146.6291  140.7388  153.0088 H   0  0  0  0  0  0  0  0  0  0  0  0
  145.8526  140.3263  154.5332 H   0  0  0  0  0  0  0  0  0  0  0  0
  147.3117  141.7063  155.7773 H   0  0  0  0  0  0  0  0  0  0  0  0
  147.7344  143.5562  154.5984 H   0  0  0  0  0  0  0  0  0  0  0  0
  152.5076  141.5048  160.0616 H   0  0  0  0  0  0  0  0  0  0  0  0
  152.7559  143.8740  160.8184 H   0  0  0  0  0  0  0  0  0  0  0  0
  151.8883  145.7140  159.3465 H   0  0  0  0  0  0  0  0  0  0  0  0
  150.8032  145.0961  157.1722 H   0  0  0  0  0  0  0  0  0  0  0  0
  1  2  2  0  0  0  0
  2  3  1  0  0  0  0
  2 10  1  0  0  0  0
  3  4  1  0  0  0  0
  3 19  1  0  0  0  0
  4  8  1  0  0  0  0
  4  5  1  0  0  0  0
  4 20  1  0  0  0  0
  5  6  1  0  0  0  0
  5 21  1  0  0  0  0
  5 22  1  0  0  0  0
  6  7  1  0  0  0  0
  6 23  1  0  0  0  0
  6 24  1  0  0  0  0
  7  8  1  0  0  0  0
  7 25  1  0  0  0  0
  7 26  1  0  0  0  0
  8  9  1  0  0  0  0
  8 27  1  0  0  0  0
  9 28  1  0  0  0  0
 10 11  1  0  0  0  0
 10 12  1  0  0  0  0
 10 13  1  0  0  0  0
 13 18  1  0  0  0  0
 13 14  2  0  0  0  0
 14 15  1  0  0  0  0
 14 29  1  0  0  0  0
 15 16  2  0  0  0  0
 15 30  1  0  0  0  0
 16 17  1  0  0  0  0
 16 31  1  0  0  0  0
 17 18  2  0  0  0  0
 17 32  1  0  0  0  0
M  END
> <s_m_source_file>
AV-unprocessed.smi

> <i_m_source_file_index>
2807

> <i_lp_mmshare_version>
43012

> <i_f3d_flags>
0

> <s_epik_input>
bjFbY0hdW2NIXVtjSF1bY0hdYzFDKEYpKEYpQyg9TylbTkhdW0NAQEhdMltDSDJdW0NIMl1bQ0gyXVtDQEhdMltPSF0=

> <s_epik_cmdline>
J2VwaWtfcHl0aG9uJywgJy1waCcsICc3LjAnLCAnLXRuJywgJzgnLCAnLW1hJywgJzIwMCcsICctbWV0YWxfYmluZGluZycsICctaW1hZScsICc8aW5maWxlLm1hZT4nLCAnLW9tYWUnLCAnPG91dGZpbGUubWFlPic=

> <r_lp_tautomer_probability>
1

> <r_epik_Ionization_Penalty>
4.08325e-05

> <r_epik_Ionization_Penalty_Charging>
0

> <r_epik_Ionization_Penalty_Neutral>
4.08325e-05

> <r_epik_State_Penalty>
-0

> <r_epik_Charging_Adjusted_Penalty>
0

> <i_epik_Tot_Q>
0

> <i_epik_Tot_abs_Q>
0

> <r_epik_Metal_State_Penalty>
0.034564

> <b_epik_Metal_Only>
0

> <s_lp_Force_Field>
OPLS_2005

> <r_lp_Energy>
23.3641

> <b_lp_Chiralities_Consistent>
1

> <s_lp_Variant>
AV-unprocessed.smi:2807-4

> <Gold.Version>
5.8.1

> <Gold.Id.Protein>
6NUR|6NUR_protein|mol2

> <Gold.PLP.Fitness>
44.0801

> <Gold.PLP.PLP>
-36.5376

> <Gold.PLP.part.hbond>
-3.1411

> <Gold.PLP.part.metal>
0.0000

> <Gold.PLP.part.buried>
-1.4216

> <Gold.PLP.part.nonpolar>
-33.7060

> <Gold.PLP.part.repulsive>
0.2311

> <Gold.PLP.ligand.clash>
0.0000

> <Gold.PLP.ligand.torsion>
0.5002

> <Gold.PLP.Chemscore.Hbond>
2.0000

> <Gold.PLP.Chemscore.CHOScore>
0.8397

> <Gold.PLP.Chemscore.Metal>
0.0000

> <Gold.Chemscore.Hbonds>
donor molecule, donor type, donor heavy atom, donor atom, acceptor molecule, acceptor atom, score
      L1  H     9    28       P1  8028  1.00
      P1  H  7989  7998       L1     1  0.98
      L1  C    17    32       P1  8028  0.88

> <Gold.PLP.Chemscore.Internal.Correction>
0.0237

> <Gold.Rescore>
     Score         DG    S(hbond)    S(metal)    S(lipo)     H(rot)  DE(clash)    DE(int)     intcor
     12.77     -16.95       1.71        0.00      94.08       2.05       1.26       2.92       ----

> <Gold.Chemscore.Fitness>
12.7740

> <Gold.Chemscore.DG>
-16.9549

> <Gold.Chemscore.ZeroCoef>
-5.4800

> <Gold.Chemscore.Hbond>
1.7081

> <Gold.Chemscore.Metal>
0.0000

> <Gold.Chemscore.Lipo>
94.0755

> <Gold.Chemscore.Internal_Hbond>
0.0000

> <Gold.Chemscore.DEClash>
1.2606

> <Gold.Chemscore.DEInternal>
2.9203

> <Gold.Chemscore.Rot>
2.0457

> <Gold.Chemscore.Internal.Correction>
   9.000000E+99

> <Gold.Chemscore.Hbonds>
donor molecule, donor type, donor heavy atom, donor atom, acceptor molecule, acceptor atom, score
      L1  H     9    28       P1  8028  0.40
      P1  H  7989  7998       L1     1  0.86

> <Gold.Chemscore.Hbond.Weighted>
-5.7052

> <Gold.Chemscore.Metal.Weighted>
-0.0000

> <Gold.Chemscore.Lipo.Weighted>
-11.0068

> <Gold.Chemscore.Internal_Hbond.Weighted>
0.0000

> <Gold.Chemscore.DEClash.Weighted>
1.2606

> <Gold.Chemscore.DEInternal.Weighted>
2.9203

> <Gold.Chemscore.Rot.Weighted>
5.2371

> <Gold.Chemscore.Internal.Correction.Weighted>
   9.000000E+99

> <Gold.Protein.RotatedTorsions>
[ 6907 6896 6895 6894 ] final  -96.53 input  -60.11 | X-H torsion
[ 7974 7965 7964 7962 ] final -127.72 input  175.53 | X-H torsion
[ 8008 7997 7996 7995 ] final -174.10 input   59.86 | X-H torsion
[ 10167 10162 10161 10158 ] final  123.05 input  -65.29 | X-H torsion
[ 10718 10713 10712 10709 ] final   79.02 input   66.30 | X-H torsion
[ 10763 10752 10751 10750 ] final  -93.18 input  -60.55 | X-H torsion
[ 11005 11000 10999 10996 ] final -154.70 input  -57.11 | X-H torsion

> <Gold.Protein.ActiveResidues>
 VAL166  LYS551  ARG553  GLY616  TRP617  ASP618  TYR619  PRO620  LYS621  CYS622 
 ASP623  PHE694  ASN695  SER759  ASP760  ASP761  ALA762  ILE779  LEU786  VAL792 
 PHE793  MET794  SER795  GLU796  ALA797  LYS798  CYS799  TRP800  GLU811  SER814 

> <Gold.Protein.RotatedAtoms>
  150.6991  134.1489  159.4132 H   0  0  0  0  0  0  0  0  0  0  0  0  # atno 6907 bound_to 6896
  151.9472  135.0183  160.0549 H   0  0  0  0  0  0  0  0  0  0  0  0  # atno 6908 bound_to 6896
  152.2042  133.4828  159.5112 H   0  0  0  0  0  0  0  0  0  0  0  0  # atno 6909 bound_to 6896
  144.9743  140.7577  143.4651 H   0  0  0  0  0  0  0  0  0  0  0  0  # atno 7974 bound_to 7965
  155.9658  140.1153  157.0856 H   0  0  0  0  0  0  0  0  0  0  0  0  # atno 8008 bound_to 7997
  154.4143  140.1173  156.5307 H   0  0  0  0  0  0  0  0  0  0  0  0  # atno 8009 bound_to 7997
  155.6661  140.3473  155.4803 H   0  0  0  0  0  0  0  0  0  0  0  0  # atno 8010 bound_to 7997
  139.5822  144.6991  151.3500 H   0  0  0  0  0  0  0  0  0  0  0  0  # atno 10167 bound_to 10162
  157.6763  130.9895  150.1871 H   0  0  0  0  0  0  0  0  0  0  0  0  # atno 10718 bound_to 10713
  154.6934  135.5204  153.8424 H   0  0  0  0  0  0  0  0  0  0  0  0  # atno 10763 bound_to 10752
  153.0649  135.6581  154.0388 H   0  0  0  0  0  0  0  0  0  0  0  0  # atno 10764 bound_to 10752
  154.0258  135.2989  155.3355 H   0  0  0  0  0  0  0  0  0  0  0  0  # atno 10765 bound_to 10752
  140.6945  134.4005  157.5216 H   0  0  0  0  0  0  0  0  0  0  0  0  # atno 11005 bound_to 11000
  145.2513  139.2030  143.4941 LP  0  0  0  0  0  0  0  0  0  0  0  0  # atno 17320 bound_to 7965
  146.3391  140.2427  142.8596 LP  0  0  0  0  0  0  0  0  0  0  0  0  # atno 17321 bound_to 7965
  140.7099  143.7418  150.7548 LP  0  0  0  0  0  0  0  0  0  0  0  0  # atno 17342 bound_to 10162
  140.0954  143.4838  152.2455 LP  0  0  0  0  0  0  0  0  0  0  0  0  # atno 17343 bound_to 10162
  156.2591  130.3709  149.8150 LP  0  0  0  0  0  0  0  0  0  0  0  0  # atno 17370 bound_to 10713
  156.5900  130.8502  151.3405 LP  0  0  0  0  0  0  0  0  0  0  0  0  # atno 17371 bound_to 10713
  139.8914  134.8780  156.2321 LP  0  0  0  0  0  0  0  0  0  0  0  0  # atno 17394 bound_to 11000
  141.0215  133.7039  156.1275 LP  0  0  0  0  0  0  0  0  0  0  0  0  # atno 17395 bound_to 11000

$$$$
