AV-unprocessed.smi:1443|AV-procd|sdf|5880|dock2
  -GOLD-   22720 5553D 1   1.00000     0.00000
 Structure written by MMmdl.
 27 28  0  0  0  0  0  0  0  0  1 V2000
  146.1747  138.1981  152.0902 C   0  0  0  0  0  0  0  0  0  0  0  0
  146.6637  139.9425  152.1829 S   0  0  0  0  0  0  0  0  0  0  0  0
  147.6923  140.0810  153.6090 C   0  0  0  0  0  0  0  0  0  0  0  0
  148.0355  138.9891  154.3164 N   0  0  0  0  0  0  0  0  0  0  0  0
  149.0154  139.4706  155.6077 S   0  0  0  0  0  0  0  0  0  0  0  0
  148.9055  141.1338  155.1111 C   0  0  0  0  0  0  0  0  0  0  0  0
  149.5517  142.1893  155.8183 N   0  0  0  0  0  0  0  0  0  0  0  0
  150.5468  142.1675  156.7314 C   0  0  0  0  0  0  0  0  0  0  0  0
  151.0569  141.1068  157.0880 O   0  0  0  0  0  0  0  0  0  0  0  0
  150.9314  143.3603  157.2126 N   0  0  0  0  0  0  0  0  0  0  0  0
  151.9461  143.5862  158.1877 C   0  0  1  0  0  0  0  0  0  0  0  0
  152.5158  144.9858  158.2678 C   0  0  0  0  0  0  0  0  0  0  0  0
  151.6081  144.4858  159.3593 C   0  0  2  0  0  0  0  0  0  0  0  0
  152.1656  144.2106  160.7389 C   0  0  0  0  0  0  0  0  0  0  0  0
  148.1534  141.2752  154.0197 N   0  0  0  0  0  0  0  0  0  0  0  0
  145.5330  138.0328  151.2249 H   0  0  0  0  0  0  0  0  0  0  0  0
  145.6274  137.9074  152.9872 H   0  0  0  0  0  0  0  0  0  0  0  0
  147.0533  137.5596  151.9963 H   0  0  0  0  0  0  0  0  0  0  0  0
  149.2184  143.1135  155.5850 H   0  0  0  0  0  0  0  0  0  0  0  0
  150.4559  144.1783  156.8590 H   0  0  0  0  0  0  0  0  0  0  0  0
  152.6442  142.7732  158.3832 H   0  0  0  0  0  0  0  0  0  0  0  0
  153.5764  145.0809  158.4923 H   0  0  0  0  0  0  0  0  0  0  0  0
  152.1157  145.7394  157.5918 H   0  0  0  0  0  0  0  0  0  0  0  0
  150.6032  144.9051  159.3710 H   0  0  0  0  0  0  0  0  0  0  0  0
  153.1680  143.7865  160.6750 H   0  0  0  0  0  0  0  0  0  0  0  0
  151.5234  143.5055  161.2667 H   0  0  0  0  0  0  0  0  0  0  0  0
  152.2142  145.1353  161.3142 H   0  0  0  0  0  0  0  0  0  0  0  0
  1  2  1  0  0  0  0
  1 16  1  0  0  0  0
  1 17  1  0  0  0  0
  1 18  1  0  0  0  0
  2  3  1  0  0  0  0
  3 15  1  0  0  0  0
  3  4  2  0  0  0  0
  4  5  1  0  0  0  0
  5  6  1  0  0  0  0
  6  7  1  0  0  0  0
  6 15  2  0  0  0  0
  7  8  1  0  0  0  0
  7 19  1  0  0  0  0
  8  9  2  0  0  0  0
  8 10  1  0  0  0  0
 10 11  1  0  0  0  0
 10 20  1  0  0  0  0
 11 13  1  0  0  0  0
 11 12  1  0  0  0  0
 11 21  1  0  0  0  0
 12 13  1  0  0  0  0
 12 22  1  0  0  0  0
 12 23  1  0  0  0  0
 13 14  1  0  0  0  0
 13 24  1  0  0  0  0
 14 25  1  0  0  0  0
 14 26  1  0  0  0  0
 14 27  1  0  0  0  0
M  END
> <s_m_source_file>
AV-unprocessed.smi

> <i_m_source_file_index>
1443

> <i_lp_mmshare_version>
43012

> <i_f3d_flags>
0

> <s_epik_input>
W0NIM11TYzFuc2MobjEpW05IXUMoPU8pW05IXVtDQEBIXTJbQ0gyXVtDQEhdMltDSDNd

> <s_epik_cmdline>
J2VwaWtfcHl0aG9uJywgJy1waCcsICc3LjAnLCAnLXRuJywgJzgnLCAnLW1hJywgJzIwMCcsICctbWV0YWxfYmluZGluZycsICctaW1hZScsICc8aW5maWxlLm1hZT4nLCAnLW9tYWUnLCAnPG91dGZpbGUubWFlPic=

> <r_lp_tautomer_probability>
1

> <r_epik_Ionization_Penalty>
2.74658e-05

> <r_epik_Ionization_Penalty_Charging>
0

> <r_epik_Ionization_Penalty_Neutral>
2.74658e-05

> <r_epik_State_Penalty>
-0

> <r_epik_Charging_Adjusted_Penalty>
0

> <i_epik_Tot_Q>
0

> <i_epik_Tot_abs_Q>
0

> <r_epik_Metal_State_Penalty>
-0

> <b_epik_Metal_Only>
0

> <s_lp_Force_Field>
OPLS_2005

> <r_lp_Energy>
20.7485

> <b_lp_Chiralities_Consistent>
1

> <s_lp_Variant>
AV-unprocessed.smi:1443-4

> <Gold.Version>
5.8.1

> <Gold.Id.Protein>
6NUR|6NUR_protein|mol2

> <Gold.PLP.Fitness>
35.6010

> <Gold.PLP.PLP>
-30.5076

> <Gold.PLP.part.hbond>
-2.1419

> <Gold.PLP.part.metal>
0.0000

> <Gold.PLP.part.buried>
-0.0732

> <Gold.PLP.part.nonpolar>
-29.9074

> <Gold.PLP.part.repulsive>
0.4800

> <Gold.PLP.ligand.clash>
0.0000

> <Gold.PLP.ligand.torsion>
0.2656

> <Gold.PLP.Chemscore.Hbond>
1.8640

> <Gold.PLP.Chemscore.CHOScore>
0.0000

> <Gold.PLP.Chemscore.Metal>
0.0000

> <Gold.Chemscore.Hbonds>
donor molecule, donor type, donor heavy atom, donor atom, acceptor molecule, acceptor atom, score
      L1  H     7    19       P1  8028  1.00
      L1  H    10    20       P1  8028  0.85

> <Gold.PLP.Chemscore.Internal.Correction>
0.0326

> <Gold.Rescore>
     Score         DG    S(hbond)    S(metal)    S(lipo)     H(rot)  DE(clash)    DE(int)     intcor
     15.10     -17.07       1.86        0.00      73.81       1.27       0.86       1.11       ----

> <Gold.Chemscore.Fitness>
15.1043

> <Gold.Chemscore.DG>
-17.0750

> <Gold.Chemscore.ZeroCoef>
-5.4800

> <Gold.Chemscore.Hbond>
1.8593

> <Gold.Chemscore.Metal>
0.0000

> <Gold.Chemscore.Lipo>
73.8100

> <Gold.Chemscore.Internal_Hbond>
0.0000

> <Gold.Chemscore.DEClash>
0.8557

> <Gold.Chemscore.DEInternal>
1.1150

> <Gold.Chemscore.Rot>
1.2699

> <Gold.Chemscore.Internal.Correction>
   9.000000E+99

> <Gold.Chemscore.Hbonds>
donor molecule, donor type, donor heavy atom, donor atom, acceptor molecule, acceptor atom, score
      L1  H     7    19       P1  8028  0.99
      L1  H    10    20       P1  8028  0.78

> <Gold.Chemscore.Hbond.Weighted>
-6.2101

> <Gold.Chemscore.Metal.Weighted>
-0.0000

> <Gold.Chemscore.Lipo.Weighted>
-8.6358

> <Gold.Chemscore.Internal_Hbond.Weighted>
0.0000

> <Gold.Chemscore.DEClash.Weighted>
0.8557

> <Gold.Chemscore.DEInternal.Weighted>
1.1150

> <Gold.Chemscore.Rot.Weighted>
3.2509

> <Gold.Chemscore.Internal.Correction.Weighted>
   9.000000E+99

> <Gold.Protein.RotatedTorsions>
[ 6907 6896 6895 6894 ] final   91.02 input  -60.11 | X-H torsion
[ 7974 7965 7964 7962 ] final  126.28 input  175.53 | X-H torsion
[ 8008 7997 7996 7995 ] final  -87.69 input   59.86 | X-H torsion
[ 10167 10162 10161 10158 ] final   57.39 input  -65.29 | X-H torsion
[ 10718 10713 10712 10709 ] final  172.37 input   66.30 | X-H torsion
[ 10763 10752 10751 10750 ] final   41.54 input  -60.55 | X-H torsion
[ 11005 11000 10999 10996 ] final  -85.25 input  -57.11 | X-H torsion

> <Gold.Protein.ActiveResidues>
 VAL166  LYS551  ARG553  GLY616  TRP617  ASP618  TYR619  PRO620  LYS621  CYS622 
 ASP623  PHE694  ASN695  SER759  ASP760  ASP761  ALA762  ILE779  LEU786  VAL792 
 PHE793  MET794  SER795  GLU796  ALA797  LYS798  CYS799  TRP800  GLU811  SER814 

> <Gold.Protein.RotatedAtoms>
  152.5448  134.1722  159.8601 H   0  0  0  0  0  0  0  0  0  0  0  0  # atno 6907 bound_to 6896
  151.1731  133.4765  159.2601 H   0  0  0  0  0  0  0  0  0  0  0  0  # atno 6908 bound_to 6896
  151.1254  135.0113  159.8613 H   0  0  0  0  0  0  0  0  0  0  0  0  # atno 6909 bound_to 6896
  145.0635  139.3786  143.4994 H   0  0  0  0  0  0  0  0  0  0  0  0  # atno 7974 bound_to 7965
  154.6662  140.0562  157.0116 H   0  0  0  0  0  0  0  0  0  0  0  0  # atno 8008 bound_to 7997
  155.1156  140.3242  155.4491 H   0  0  0  0  0  0  0  0  0  0  0  0  # atno 8009 bound_to 7997
  156.2638  140.2006  156.6279 H   0  0  0  0  0  0  0  0  0  0  0  0  # atno 8010 bound_to 7997
  140.1985  144.4013  150.6539 H   0  0  0  0  0  0  0  0  0  0  0  0  # atno 10167 bound_to 10162
  156.9800  131.0116  151.2884 H   0  0  0  0  0  0  0  0  0  0  0  0  # atno 10718 bound_to 10713
  152.9905  135.6159  154.2804 H   0  0  0  0  0  0  0  0  0  0  0  0  # atno 10763 bound_to 10752
  154.2533  135.2784  155.2809 H   0  0  0  0  0  0  0  0  0  0  0  0  # atno 10764 bound_to 10752
  154.5269  135.5799  153.6784 H   0  0  0  0  0  0  0  0  0  0  0  0  # atno 10765 bound_to 10752
  141.1643  133.7389  156.8987 H   0  0  0  0  0  0  0  0  0  0  0  0  # atno 11005 bound_to 11000
  146.3525  140.0345  142.8648 LP  0  0  0  0  0  0  0  0  0  0  0  0  # atno 17320 bound_to 7965
  145.1379  140.9555  143.4505 LP  0  0  0  0  0  0  0  0  0  0  0  0  # atno 17321 bound_to 7965
  140.6407  143.2203  151.6296 LP  0  0  0  0  0  0  0  0  0  0  0  0  # atno 17342 bound_to 10162
  139.5227  144.3155  152.0956 LP  0  0  0  0  0  0  0  0  0  0  0  0  # atno 17343 bound_to 10162
  157.5533  130.8196  149.8172 LP  0  0  0  0  0  0  0  0  0  0  0  0  # atno 17370 bound_to 10713
  156.0248  130.3783  150.1855 LP  0  0  0  0  0  0  0  0  0  0  0  0  # atno 17371 bound_to 10713
  140.1597  134.9174  157.2699 LP  0  0  0  0  0  0  0  0  0  0  0  0  # atno 17394 bound_to 11000
  140.2625  134.3554  155.7401 LP  0  0  0  0  0  0  0  0  0  0  0  0  # atno 17395 bound_to 11000

$$$$
