AV-unprocessed.smi:1701|AV-procd|sdf|6827|dock6
  -GOLD-   22720 8 03D 1   1.00000     0.00000
 Structure written by MMmdl.
 55 57  0  0  0  0  0  0  0  0  3 V2000
  150.0844  143.2940  158.3370 C   0  0  0  0  0  0  0  0  0  0  0  0
  150.8519  142.9522  157.0516 C   0  0  0  0  0  0  0  0  0  0  0  0
  151.2394  141.5441  156.9685 N   0  0  0  0  0  0  0  0  0  0  0  0
  152.2171  141.0099  157.9194 C   0  0  0  0  0  0  0  0  0  0  0  0
  152.7763  142.0754  158.8751 C   0  0  0  0  0  0  0  0  0  0  0  0
  150.5406  140.6627  156.1083 C   0  0  0  0  0  0  0  0  0  0  0  0
  151.1723  139.6597  155.3307 C   0  0  0  0  0  0  0  0  0  0  0  0
  150.4013  138.8238  154.4976 C   0  0  0  0  0  0  0  0  0  0  0  0
  149.0009  138.9802  154.4463 C   0  0  0  0  0  0  0  0  0  0  0  0
  148.2711  138.1236  153.5787 N   0  0  0  0  0  0  0  0  0  0  0  0
  146.9362  138.0108  153.4300 C   0  0  0  0  0  0  0  0  0  0  0  0
  146.1039  138.6487  154.0698 O   0  0  0  0  0  0  0  0  0  0  0  0
  146.5589  137.0922  152.5222 N   0  0  0  0  0  0  0  0  0  0  0  0
  145.1996  136.7211  152.1206 C   0  0  2  0  0  0  0  0  0  0  0  0
  144.2970  136.3958  153.3041 C   0  0  0  0  0  0  0  0  0  0  0  0
  143.1520  135.6079  152.6608 C   0  0  0  0  0  0  0  0  0  0  0  0
  143.7080  134.9572  151.4492 N   0  3  2  0  0  0  0  0  0  0  0  0
  143.5449  133.4790  151.4289 C   0  0  0  0  0  0  0  0  0  0  0  0
  144.4531  132.8413  150.3669 C   0  0  0  0  0  0  0  0  0  0  0  0
  145.9414  133.1068  150.6627 C   0  0  0  0  0  0  0  0  0  0  0  0
  146.1550  134.3535  151.5422 C   0  0  0  0  0  0  0  0  0  0  0  0
  145.1015  135.4503  151.2518 C   0  0  2  0  0  0  0  0  0  0  0  0
  148.4146  139.9991  155.2334 C   0  0  0  0  0  0  0  0  0  0  0  0
  149.1924  140.7776  156.0158 N   0  3  0  0  0  0  0  0  0  0  0  0
  149.7685  144.3373  158.3264 H   0  0  0  0  0  0  0  0  0  0  0  0
  150.7034  143.1533  159.2221 H   0  0  0  0  0  0  0  0  0  0  0  0
  149.1911  142.6795  158.4491 H   0  0  0  0  0  0  0  0  0  0  0  0
  150.2719  143.2360  156.1736 H   0  0  0  0  0  0  0  0  0  0  0  0
  151.7524  143.5652  157.0051 H   0  0  0  0  0  0  0  0  0  0  0  0
  151.7754  140.1902  158.4870 H   0  0  0  0  0  0  0  0  0  0  0  0
  153.0430  140.5651  157.3639 H   0  0  0  0  0  0  0  0  0  0  0  0
  153.4917  141.6301  159.5668 H   0  0  0  0  0  0  0  0  0  0  0  0
  151.9881  142.5355  159.4712 H   0  0  0  0  0  0  0  0  0  0  0  0
  153.2940  142.8692  158.3384 H   0  0  0  0  0  0  0  0  0  0  0  0
  152.2420  139.5179  155.3471 H   0  0  0  0  0  0  0  0  0  0  0  0
  150.8889  138.0648  153.9031 H   0  0  0  0  0  0  0  0  0  0  0  0
  148.8297  137.4841  153.0336 H   0  0  0  0  0  0  0  0  0  0  0  0
  147.3031  136.5709  152.0806 H   0  0  0  0  0  0  0  0  0  0  0  0
  144.7427  137.5554  151.5839 H   0  0  0  0  0  0  0  0  0  0  0  0
  144.8235  135.7624  154.0199 H   0  0  0  0  0  0  0  0  0  0  0  0
  143.9514  137.2846  153.8332 H   0  0  0  0  0  0  0  0  0  0  0  0
  142.7040  134.9028  153.3623 H   0  0  0  0  0  0  0  0  0  0  0  0
  142.3642  136.2903  152.3404 H   0  0  0  0  0  0  0  0  0  0  0  0
  143.7873  133.0597  152.4071 H   0  0  0  0  0  0  0  0  0  0  0  0
  142.4992  133.2395  151.2336 H   0  0  0  0  0  0  0  0  0  0  0  0
  144.2714  131.7679  150.3031 H   0  0  0  0  0  0  0  0  0  0  0  0
  144.1965  133.2515  149.3892 H   0  0  0  0  0  0  0  0  0  0  0  0
  146.3845  132.2435  151.1605 H   0  0  0  0  0  0  0  0  0  0  0  0
  146.4766  133.2183  149.7189 H   0  0  0  0  0  0  0  0  0  0  0  0
  146.0974  134.0678  152.5935 H   0  0  0  0  0  0  0  0  0  0  0  0
  147.1675  134.7264  151.3857 H   0  0  0  0  0  0  0  0  0  0  0  0
  145.2071  135.7331  150.2033 H   0  0  0  0  0  0  0  0  0  0  0  0
  147.3622  140.2375  155.2648 H   0  0  0  0  0  0  0  0  0  0  0  0
  143.1752  135.3145  150.6687 H   0  0  0  0  0  0  0  0  0  0  0  0
  148.7347  141.5020  156.5695 H   0  0  0  0  0  0  0  0  0  0  0  0
  1  2  1  0  0  0  0
  1 25  1  0  0  0  0
  1 26  1  0  0  0  0
  1 27  1  0  0  0  0
  2  3  1  0  0  0  0
  2 28  1  0  0  0  0
  2 29  1  0  0  0  0
  3  4  1  0  0  0  0
  3  6  1  0  0  0  0
  4  5  1  0  0  0  0
  4 30  1  0  0  0  0
  4 31  1  0  0  0  0
  5 32  1  0  0  0  0
  5 33  1  0  0  0  0
  5 34  1  0  0  0  0
  6 24  1  0  0  0  0
  6  7  2  0  0  0  0
  7  8  1  0  0  0  0
  7 35  1  0  0  0  0
  8  9  2  0  0  0  0
  8 36  1  0  0  0  0
  9 10  1  0  0  0  0
  9 23  1  0  0  0  0
 10 11  1  0  0  0  0
 10 37  1  0  0  0  0
 11 12  2  0  0  0  0
 11 13  1  0  0  0  0
 13 14  1  0  0  0  0
 13 38  1  0  0  0  0
 14 22  1  0  0  0  0
 14 15  1  0  0  0  0
 14 39  1  0  0  0  0
 15 16  1  0  0  0  0
 15 40  1  0  0  0  0
 15 41  1  0  0  0  0
 16 17  1  0  0  0  0
 16 42  1  0  0  0  0
 16 43  1  0  0  0  0
 17 22  1  0  0  0  0
 17 18  1  0  0  0  0
 17 54  1  0  0  0  0
 18 19  1  0  0  0  0
 18 44  1  0  0  0  0
 18 45  1  0  0  0  0
 19 20  1  0  0  0  0
 19 46  1  0  0  0  0
 19 47  1  0  0  0  0
 20 21  1  0  0  0  0
 20 48  1  0  0  0  0
 20 49  1  0  0  0  0
 21 22  1  0  0  0  0
 21 50  1  0  0  0  0
 21 51  1  0  0  0  0
 22 52  1  0  0  0  0
 23 24  2  0  0  0  0
 23 53  1  0  0  0  0
 24 55  1  0  0  0  0
M  CHG  1  17   1
M  CHG  1  24   1
M  END
> <s_m_source_file>
AV-unprocessed.smi

> <i_m_source_file_index>
1701

> <i_lp_mmshare_version>
43012

> <i_f3d_flags>
0

> <s_epik_input>
W0NIM11bQ0gyXU4oW0NIMl1bQ0gzXSljMVtjSF1bY0hdYyhbY0hdbjEpW05IXUMoPU8pW05IXVtDQEhdKFtDSDJdW0NIMl0yKVtDQEBIXShOMjMpW0NIMl1bQ0gyXVtDSDJdW0NIMl0z

> <s_epik_cmdline>
J2VwaWtfcHl0aG9uJywgJy1waCcsICc3LjAnLCAnLXRuJywgJzgnLCAnLW1hJywgJzIwMCcsICctbWV0YWxfYmluZGluZycsICctaW1hZScsICc8aW5maWxlLm1hZT4nLCAnLW9tYWUnLCAnPG91dGZpbGUubWFlPic=

> <r_lp_tautomer_probability>
0.999994

> <r_epik_Ionization_Penalty>
0.302862

> <r_epik_Ionization_Penalty_Charging>
0.302842

> <r_epik_Ionization_Penalty_Neutral>
1.95166e-05

> <r_epik_State_Penalty>
0.019791

> <r_epik_Charging_Adjusted_Penalty>
0.322633

> <i_epik_Tot_Q>
2

> <i_epik_Tot_abs_Q>
2

> <r_epik_Metal_State_Penalty>
0.0536763

> <b_epik_Metal_Only>
0

> <s_lp_Force_Field>
OPLS_2005

> <r_lp_Energy>
67.6643

> <b_lp_Chiralities_Consistent>
1

> <s_lp_Variant>
AV-unprocessed.smi:1701-7

> <Gold.Version>
5.8.1

> <Gold.Id.Protein>
6NUR|6NUR_protein|mol2

> <Gold.PLP.Fitness>
44.2911

> <Gold.PLP.PLP>
-40.1548

> <Gold.PLP.part.hbond>
-2.2050

> <Gold.PLP.part.metal>
0.0000

> <Gold.PLP.part.buried>
-3.2640

> <Gold.PLP.part.nonpolar>
-35.2942

> <Gold.PLP.part.repulsive>
0.2839

> <Gold.PLP.ligand.clash>
0.0000

> <Gold.PLP.ligand.torsion>
0.9725

> <Gold.PLP.Chemscore.Hbond>
1.9760

> <Gold.PLP.Chemscore.CHOScore>
0.0000

> <Gold.PLP.Chemscore.Metal>
0.0000

> <Gold.Chemscore.Hbonds>
donor molecule, donor type, donor heavy atom, donor atom, acceptor molecule, acceptor atom, score
      L1  H    10    37       P1  7948  1.00
      L1  H    13    38       P1  7948  1.00

> <Gold.PLP.Chemscore.Internal.Correction>
0.1535

> <Gold.Rescore>
     Score         DG    S(hbond)    S(metal)    S(lipo)     H(rot)  DE(clash)    DE(int)     intcor
     17.19     -20.60       1.90        0.00     103.52       1.30       0.13       3.28       ----

> <Gold.Chemscore.Fitness>
17.1909

> <Gold.Chemscore.DG>
-20.6003

> <Gold.Chemscore.ZeroCoef>
-5.4800

> <Gold.Chemscore.Hbond>
1.8988

> <Gold.Chemscore.Metal>
0.0000

> <Gold.Chemscore.Lipo>
103.5163

> <Gold.Chemscore.Internal_Hbond>
0.0000

> <Gold.Chemscore.DEClash>
0.1287

> <Gold.Chemscore.DEInternal>
3.2807

> <Gold.Chemscore.Rot>
1.3020

> <Gold.Chemscore.Internal.Correction>
   9.000000E+99

> <Gold.Chemscore.Hbonds>
donor molecule, donor type, donor heavy atom, donor atom, acceptor molecule, acceptor atom, score
      L1  H    10    37       P1  7948  0.96
      L1  H    13    38       P1  7948  0.96

> <Gold.Chemscore.Hbond.Weighted>
-6.3419

> <Gold.Chemscore.Metal.Weighted>
-0.0000

> <Gold.Chemscore.Lipo.Weighted>
-12.1114

> <Gold.Chemscore.Internal_Hbond.Weighted>
0.0000

> <Gold.Chemscore.DEClash.Weighted>
0.1287

> <Gold.Chemscore.DEInternal.Weighted>
3.2807

> <Gold.Chemscore.Rot.Weighted>
3.3330

> <Gold.Chemscore.Internal.Correction.Weighted>
   9.000000E+99

> <Gold.Protein.RotatedTorsions>
[ 6907 6896 6895 6894 ] final   70.78 input  -60.11 | X-H torsion
[ 7974 7965 7964 7962 ] final -179.57 input  175.53 | X-H torsion
[ 8008 7997 7996 7995 ] final  -80.33 input   59.86 | X-H torsion
[ 10167 10162 10161 10158 ] final   45.81 input  -65.29 | X-H torsion
[ 10718 10713 10712 10709 ] final -163.21 input   66.30 | X-H torsion
[ 10763 10752 10751 10750 ] final -110.36 input  -60.55 | X-H torsion
[ 11005 11000 10999 10996 ] final   42.92 input  -57.11 | X-H torsion

> <Gold.Protein.ActiveResidues>
 VAL166  LYS551  ARG553  GLY616  TRP617  ASP618  TYR619  PRO620  LYS621  CYS622 
 ASP623  PHE694  ASN695  SER759  ASP760  ASP761  ALA762  ILE779  LEU786  VAL792 
 PHE793  MET794  SER795  GLU796  ALA797  LYS798  CYS799  TRP800  GLU811  SER814 

> <Gold.Protein.RotatedAtoms>
  152.4770  134.4818  159.9667 H   0  0  0  0  0  0  0  0  0  0  0  0  # atno 6907 bound_to 6896
  151.4832  133.3536  159.2849 H   0  0  0  0  0  0  0  0  0  0  0  0  # atno 6908 bound_to 6896
  150.8816  134.8234  159.7290 H   0  0  0  0  0  0  0  0  0  0  0  0  # atno 6909 bound_to 6896
  144.7137  140.0698  143.6430 H   0  0  0  0  0  0  0  0  0  0  0  0  # atno 7974 bound_to 7965
  154.5873  140.0664  156.9189 H   0  0  0  0  0  0  0  0  0  0  0  0  # atno 8008 bound_to 7997
  155.2357  140.3341  155.4280 H   0  0  0  0  0  0  0  0  0  0  0  0  # atno 8009 bound_to 7997
  156.2231  140.1807  156.7412 H   0  0  0  0  0  0  0  0  0  0  0  0  # atno 8010 bound_to 7997
  140.3203  144.2713  150.6184 H   0  0  0  0  0  0  0  0  0  0  0  0  # atno 10167 bound_to 10162
  156.6214  130.8892  151.2958 H   0  0  0  0  0  0  0  0  0  0  0  0  # atno 10718 bound_to 10713
  154.8243  135.4567  154.0873 H   0  0  0  0  0  0  0  0  0  0  0  0  # atno 10763 bound_to 10752
  153.2200  135.6893  153.8018 H   0  0  0  0  0  0  0  0  0  0  0  0  # atno 10764 bound_to 10752
  153.7439  135.3308  155.3285 H   0  0  0  0  0  0  0  0  0  0  0  0  # atno 10765 bound_to 10752
  140.1694  134.4241  155.8267 H   0  0  0  0  0  0  0  0  0  0  0  0  # atno 11005 bound_to 11000
  145.9793  139.2929  143.1051 LP  0  0  0  0  0  0  0  0  0  0  0  0  # atno 17320 bound_to 7965
  145.9029  140.9231  143.0494 LP  0  0  0  0  0  0  0  0  0  0  0  0  # atno 17321 bound_to 7965
  140.5489  143.2210  151.7960 LP  0  0  0  0  0  0  0  0  0  0  0  0  # atno 17342 bound_to 10162
  139.4875  144.4503  151.9662 LP  0  0  0  0  0  0  0  0  0  0  0  0  # atno 17343 bound_to 10162
  157.7226  130.9579  150.1502 LP  0  0  0  0  0  0  0  0  0  0  0  0  # atno 17370 bound_to 10713
  156.2308  130.3682  149.8447 LP  0  0  0  0  0  0  0  0  0  0  0  0  # atno 17371 bound_to 10713
  141.2216  133.6949  156.7736 LP  0  0  0  0  0  0  0  0  0  0  0  0  # atno 17394 bound_to 11000
  140.2396  134.8624  157.3559 LP  0  0  0  0  0  0  0  0  0  0  0  0  # atno 17395 bound_to 11000

$$$$
