AV-unprocessed.smi:2510|AV-procd|sdf|9883|dock6
  -GOLD-   2272013523D 1   1.00000     0.00000
 Structure written by MMmdl.
 48 49  0  0  0  0  0  0  0  0  1 V2000
  151.1420  138.8145  158.1267 C   0  0  0  0  0  0  0  0  0  0  0  0
  150.1552  137.9172  157.3604 C   0  0  0  0  0  0  0  0  0  0  0  0
  150.1351  138.0529  155.8182 C   0  0  0  0  0  0  0  0  0  0  0  0
  151.5494  137.6486  155.3111 C   0  0  0  0  0  0  0  0  0  0  0  0
  152.6734  138.6813  155.5219 C   0  0  0  0  0  0  0  0  0  0  0  0
  148.9388  137.3968  155.0646 C   0  0  2  0  0  0  0  0  0  0  0  0
  149.2622  136.1302  154.4141 N   0  0  0  0  0  0  0  0  0  0  0  0
  149.6000  135.0028  155.0560 C   0  0  0  0  0  0  0  0  0  0  0  0
  149.6841  134.9274  156.2829 O   0  0  0  0  0  0  0  0  0  0  0  0
  149.8748  133.7876  154.1620 C   0  0  0  0  0  0  0  0  0  0  0  0
  148.6451  133.2671  153.4846 C   0  0  0  0  0  0  0  0  0  0  0  0
  148.0677  132.0279  153.4870 C   0  0  0  0  0  0  0  0  0  0  0  0
  146.9242  132.1694  152.6472 C   0  0  0  0  0  0  0  0  0  0  0  0
  145.9077  131.1283  152.2818 C   0  0  0  0  0  0  0  0  0  0  0  0
  146.8024  133.3955  152.1609 N   0  0  0  0  0  0  0  0  0  0  0  0
  147.8558  134.0549  152.6772 N   0  0  0  0  0  0  0  0  0  0  0  0
  148.9093  138.5847  154.0936 C   0  0  1  0  0  0  0  0  0  0  0  0
  147.5698  139.0301  153.5182 C   0  0  0  0  0  0  0  0  0  0  0  0
  149.5449  139.3750  155.2490 C   0  0  2  0  0  0  0  0  0  0  0  0
  150.5332  140.3126  154.8510 O   0  0  0  0  0  0  0  0  0  0  0  0
  150.9851  141.1437  155.9054 C   0  0  0  0  0  0  0  0  0  0  0  0
  148.0200  135.0312  152.4760 H   0  0  0  0  0  0  0  0  0  0  0  0
  151.1360  138.5609  159.1870 H   0  0  0  0  0  0  0  0  0  0  0  0
  150.8705  139.8675  158.0533 H   0  0  0  0  0  0  0  0  0  0  0  0
  152.1658  138.6970  157.7737 H   0  0  0  0  0  0  0  0  0  0  0  0
  150.3912  136.8864  157.6261 H   0  0  0  0  0  0  0  0  0  0  0  0
  149.1605  138.1060  157.7663 H   0  0  0  0  0  0  0  0  0  0  0  0
  151.8623  136.7209  155.7918 H   0  0  0  0  0  0  0  0  0  0  0  0
  151.5159  137.4174  154.2464 H   0  0  0  0  0  0  0  0  0  0  0  0
  153.5963  138.3342  155.0572 H   0  0  0  0  0  0  0  0  0  0  0  0
  152.8919  138.8357  156.5783 H   0  0  0  0  0  0  0  0  0  0  0  0
  152.4373  139.6499  155.0846 H   0  0  0  0  0  0  0  0  0  0  0  0
  148.0161  137.3609  155.6455 H   0  0  0  0  0  0  0  0  0  0  0  0
  149.2193  136.1104  153.4056 H   0  0  0  0  0  0  0  0  0  0  0  0
  150.6205  134.0630  153.4149 H   0  0  0  0  0  0  0  0  0  0  0  0
  150.3192  132.9978  154.7690 H   0  0  0  0  0  0  0  0  0  0  0  0
  148.4110  131.1492  154.0129 H   0  0  0  0  0  0  0  0  0  0  0  0
  146.1315  130.1740  152.7590 H   0  0  0  0  0  0  0  0  0  0  0  0
  145.8848  130.9628  151.2045 H   0  0  0  0  0  0  0  0  0  0  0  0
  144.9075  131.4289  152.5951 H   0  0  0  0  0  0  0  0  0  0  0  0
  149.6416  138.4425  153.2969 H   0  0  0  0  0  0  0  0  0  0  0  0
  146.8430  139.2255  154.3068 H   0  0  0  0  0  0  0  0  0  0  0  0
  147.1490  138.2651  152.8658 H   0  0  0  0  0  0  0  0  0  0  0  0
  147.6692  139.9402  152.9280 H   0  0  0  0  0  0  0  0  0  0  0  0
  148.7975  139.8178  155.9100 H   0  0  0  0  0  0  0  0  0  0  0  0
  151.7891  141.7836  155.5428 H   0  0  0  0  0  0  0  0  0  0  0  0
  151.3734  140.5555  156.7377 H   0  0  0  0  0  0  0  0  0  0  0  0
  150.1886  141.7903  156.2714 H   0  0  0  0  0  0  0  0  0  0  0  0
  1  2  1  0  0  0  0
  1 23  1  0  0  0  0
  1 24  1  0  0  0  0
  1 25  1  0  0  0  0
  2  3  1  0  0  0  0
  2 26  1  0  0  0  0
  2 27  1  0  0  0  0
  3 19  1  0  0  0  0
  3  4  1  0  0  0  0
  3  6  1  0  0  0  0
  4  5  1  0  0  0  0
  4 28  1  0  0  0  0
  4 29  1  0  0  0  0
  5 30  1  0  0  0  0
  5 31  1  0  0  0  0
  5 32  1  0  0  0  0
  6  7  1  0  0  0  0
  6 17  1  0  0  0  0
  6 33  1  0  0  0  0
  7  8  1  0  0  0  0
  7 34  1  0  0  0  0
  8  9  2  0  0  0  0
  8 10  1  0  0  0  0
 10 35  1  0  0  0  0
 10 36  1  0  0  0  0
 10 11  1  0  0  0  0
 11 16  1  0  0  0  0
 11 12  2  0  0  0  0
 12 13  1  0  0  0  0
 12 37  1  0  0  0  0
 13 14  1  0  0  0  0
 13 15  2  0  0  0  0
 14 38  1  0  0  0  0
 14 39  1  0  0  0  0
 14 40  1  0  0  0  0
 15 16  1  0  0  0  0
 16 22  1  0  0  0  0
 17 18  1  0  0  0  0
 17 19  1  0  0  0  0
 17 41  1  0  0  0  0
 18 42  1  0  0  0  0
 18 43  1  0  0  0  0
 18 44  1  0  0  0  0
 19 20  1  0  0  0  0
 19 45  1  0  0  0  0
 20 21  1  0  0  0  0
 21 46  1  0  0  0  0
 21 47  1  0  0  0  0
 21 48  1  0  0  0  0
M  END
> <s_m_source_file>
AV-unprocessed.smi

> <i_m_source_file_index>
2510

> <i_lp_mmshare_version>
43012

> <i_f3d_flags>
0

> <s_epik_input>
W0NIM11PW0NAQEhdMVtDQEhdKFtDSDNdKVtDQEBIXShDMShbQ0gyXVtDSDNdKVtDSDJdW0NIM10pW05IXUMoPU8pW0NIMl1jMltjSF1jKFtDSDNdKVtuSF1uMg==

> <s_epik_cmdline>
J2VwaWtfcHl0aG9uJywgJy1waCcsICc3LjAnLCAnLXRuJywgJzgnLCAnLW1hJywgJzIwMCcsICctbWV0YWxfYmluZGluZycsICctaW1hZScsICc8aW5maWxlLm1hZT4nLCAnLW9tYWUnLCAnPG91dGZpbGUubWFlPic=

> <r_lp_tautomer_probability>
0.5

> <r_epik_Ionization_Penalty>
0.000134763

> <r_epik_Ionization_Penalty_Charging>
0

> <r_epik_Ionization_Penalty_Neutral>
0.000134763

> <r_epik_State_Penalty>
0.41068

> <r_epik_Charging_Adjusted_Penalty>
0.41068

> <i_epik_Tot_Q>
0

> <i_epik_Tot_abs_Q>
0

> <r_epik_Metal_State_Penalty>
0.410661

> <b_epik_Metal_Only>
0

> <s_lp_Force_Field>
OPLS_2005

> <r_lp_Energy>
25.9976

> <b_lp_Chiralities_Consistent>
1

> <s_lp_Variant>
AV-unprocessed.smi:2510-14

> <Gold.Version>
5.8.1

> <Gold.Id.Protein>
6NUR|6NUR_protein|mol2

> <Gold.PLP.Fitness>
39.2153

> <Gold.PLP.PLP>
-30.9396

> <Gold.PLP.part.hbond>
-3.0000

> <Gold.PLP.part.metal>
0.0000

> <Gold.PLP.part.buried>
-2.7470

> <Gold.PLP.part.nonpolar>
-24.5193

> <Gold.PLP.part.repulsive>
0.2557

> <Gold.PLP.ligand.clash>
0.0000

> <Gold.PLP.ligand.torsion>
0.6434

> <Gold.PLP.Chemscore.Hbond>
2.9920

> <Gold.PLP.Chemscore.CHOScore>
0.0000

> <Gold.PLP.Chemscore.Metal>
0.0000

> <Gold.Chemscore.Hbonds>
donor molecule, donor type, donor heavy atom, donor atom, acceptor molecule, acceptor atom, score
      L1  H     7    34       P1  7948  1.00
      L1  H    16    22       P1  7948  0.98
      P1  H  7989  7998       L1    20  1.00

> <Gold.PLP.Chemscore.Internal.Correction>
0.5864

> <Gold.Rescore>
     Score         DG    S(hbond)    S(metal)    S(lipo)     H(rot)  DE(clash)    DE(int)     intcor
     16.06     -18.31       2.53        0.00      76.88       1.81       0.01       2.24       ----

> <Gold.Chemscore.Fitness>
16.0637

> <Gold.Chemscore.DG>
-18.3070

> <Gold.Chemscore.ZeroCoef>
-5.4800

> <Gold.Chemscore.Hbond>
2.5347

> <Gold.Chemscore.Metal>
0.0000

> <Gold.Chemscore.Lipo>
76.8817

> <Gold.Chemscore.Internal_Hbond>
0.0000

> <Gold.Chemscore.DEClash>
0.0078

> <Gold.Chemscore.DEInternal>
2.2355

> <Gold.Chemscore.Rot>
1.8102

> <Gold.Chemscore.Internal.Correction>
   9.000000E+99

> <Gold.Chemscore.Hbonds>
donor molecule, donor type, donor heavy atom, donor atom, acceptor molecule, acceptor atom, score
      L1  H     7    34       P1  7948  0.78
      L1  H    16    22       P1  7948  0.81
      P1  H  7989  7998       L1    20  0.25

> <Gold.Chemscore.Hbond.Weighted>
-8.4660

> <Gold.Chemscore.Metal.Weighted>
-0.0000

> <Gold.Chemscore.Lipo.Weighted>
-8.9952

> <Gold.Chemscore.Internal_Hbond.Weighted>
0.0000

> <Gold.Chemscore.DEClash.Weighted>
0.0078

> <Gold.Chemscore.DEInternal.Weighted>
2.2355

> <Gold.Chemscore.Rot.Weighted>
4.6341

> <Gold.Chemscore.Internal.Correction.Weighted>
   9.000000E+99

> <Gold.Protein.RotatedTorsions>
[ 6907 6896 6895 6894 ] final  -83.87 input  -60.11 | X-H torsion
[ 7974 7965 7964 7962 ] final  152.53 input  175.53 | X-H torsion
[ 8008 7997 7996 7995 ] final  -42.53 input   59.86 | X-H torsion
[ 10167 10162 10161 10158 ] final  -85.93 input  -65.29 | X-H torsion
[ 10718 10713 10712 10709 ] final  -83.87 input   66.30 | X-H torsion
[ 10763 10752 10751 10750 ] final -128.26 input  -60.55 | X-H torsion
[ 11005 11000 10999 10996 ] final  -63.89 input  -57.11 | X-H torsion

> <Gold.Protein.ActiveResidues>
 VAL166  LYS551  ARG553  GLY616  TRP617  ASP618  TYR619  PRO620  LYS621  CYS622 
 ASP623  PHE694  ASN695  SER759  ASP760  ASP761  ALA762  ILE779  LEU786  VAL792 
 PHE793  MET794  SER795  GLU796  ALA797  LYS798  CYS799  TRP800  GLU811  SER814 

> <Gold.Protein.RotatedAtoms>
  150.6881  134.3446  159.4882 H   0  0  0  0  0  0  0  0  0  0  0  0  # atno 6907 bound_to 6896
  152.1295  134.9143  160.0568 H   0  0  0  0  0  0  0  0  0  0  0  0  # atno 6908 bound_to 6896
  152.0318  133.3906  159.4337 H   0  0  0  0  0  0  0  0  0  0  0  0  # atno 6909 bound_to 6896
  144.8216  139.6681  143.6098 H   0  0  0  0  0  0  0  0  0  0  0  0  # atno 7974 bound_to 7965
  154.3999  140.1471  156.3370 H   0  0  0  0  0  0  0  0  0  0  0  0  # atno 8008 bound_to 7997
  155.8391  140.3462  155.5599 H   0  0  0  0  0  0  0  0  0  0  0  0  # atno 8009 bound_to 7997
  155.8106  140.0883  157.1896 H   0  0  0  0  0  0  0  0  0  0  0  0  # atno 8010 bound_to 7997
  140.3990  143.2671  151.9167 H   0  0  0  0  0  0  0  0  0  0  0  0  # atno 10167 bound_to 10162
  156.0013  130.4679  150.4323 H   0  0  0  0  0  0  0  0  0  0  0  0  # atno 10718 bound_to 10713
  154.8756  135.3934  154.3728 H   0  0  0  0  0  0  0  0  0  0  0  0  # atno 10763 bound_to 10752
  153.4486  135.7028  153.6128 H   0  0  0  0  0  0  0  0  0  0  0  0  # atno 10764 bound_to 10752
  153.4678  135.3797  155.2343 H   0  0  0  0  0  0  0  0  0  0  0  0  # atno 10765 bound_to 10752
  141.1407  133.6658  156.5749 H   0  0  0  0  0  0  0  0  0  0  0  0  # atno 11005 bound_to 11000
  146.2521  139.6223  142.9420 LP  0  0  0  0  0  0  0  0  0  0  0  0  # atno 17320 bound_to 7965
  145.5092  141.0436  143.2497 LP  0  0  0  0  0  0  0  0  0  0  0  0  # atno 17321 bound_to 7965
  139.4785  144.5652  151.8175 LP  0  0  0  0  0  0  0  0  0  0  0  0  # atno 17342 bound_to 10162
  140.4760  144.1518  150.5925 LP  0  0  0  0  0  0  0  0  0  0  0  0  # atno 17343 bound_to 10162
  157.2370  131.0517  151.2459 LP  0  0  0  0  0  0  0  0  0  0  0  0  # atno 17370 bound_to 10713
  157.3656  130.7154  149.6531 LP  0  0  0  0  0  0  0  0  0  0  0  0  # atno 17371 bound_to 10713
  140.3883  134.7462  157.4705 LP  0  0  0  0  0  0  0  0  0  0  0  0  # atno 17394 bound_to 11000
  140.0585  134.6029  155.8777 LP  0  0  0  0  0  0  0  0  0  0  0  0  # atno 17395 bound_to 11000

$$$$
