AV-unprocessed.smi:2725|AV-procd|sdf|10515|dock7
  -GOLD-   2272014553D 1   1.00000     0.00000
 Structure written by MMmdl.
 44 45  0  0  0  0  0  0  0  0  1 V2000
  150.9441  140.5184  155.1766 O   0  0  0  0  0  0  0  0  0  0  0  0
  150.3831  141.5181  155.6263 C   0  0  0  0  0  0  0  0  0  0  0  0
  151.0722  142.4033  156.6692 C   0  0  0  0  0  0  0  0  0  0  0  0
  151.5168  141.6339  157.9281 C   0  0  0  0  0  0  0  0  0  0  0  0
  152.2898  142.5113  158.9286 C   0  0  0  0  0  0  0  0  0  0  0  0
  152.7404  141.7812  160.1981 C   0  0  0  0  0  0  0  0  0  0  0  0
  152.9887  142.8851  161.2327 C   0  0  0  0  0  0  0  0  0  0  0  0
  152.2038  144.1145  160.7499 C   0  0  0  0  0  0  0  0  0  0  0  0
  151.4684  143.6796  159.4783 C   0  0  0  0  0  0  0  0  0  0  0  0
  149.1535  141.9019  155.2512 N   0  0  0  0  0  0  0  0  0  0  0  0
  148.3097  141.2099  154.2769 C   0  0  2  0  0  0  0  0  0  0  0  0
  146.8533  141.6910  154.4363 C   0  0  0  0  0  0  0  0  0  0  0  0
  146.8207  142.9881  154.9937 O   0  0  0  0  0  0  0  0  0  0  0  0
  148.4326  139.6733  154.4317 C   0  0  0  0  0  0  0  0  0  0  0  0
  147.3657  138.8721  153.6992 C   0  0  0  0  0  0  0  0  0  0  0  0
  146.5964  137.9041  154.3809 C   0  0  0  0  0  0  0  0  0  0  0  0
  145.6154  137.1957  153.6609 C   0  0  0  0  0  0  0  0  0  0  0  0
  145.4436  137.4778  152.2919 C   0  0  0  0  0  0  0  0  0  0  0  0
  146.2644  138.4595  151.7019 C   0  0  0  0  0  0  0  0  0  0  0  0
  147.2065  139.1456  152.3842 N   0  0  0  0  0  0  0  0  0  0  0  0
  151.9315  142.8790  156.1959 H   0  0  0  0  0  0  0  0  0  0  0  0
  150.3888  143.2039  156.9566 H   0  0  0  0  0  0  0  0  0  0  0  0
  150.6366  141.2258  158.4273 H   0  0  0  0  0  0  0  0  0  0  0  0
  152.1313  140.7777  157.6448 H   0  0  0  0  0  0  0  0  0  0  0  0
  153.1714  142.9234  158.4350 H   0  0  0  0  0  0  0  0  0  0  0  0
  151.9424  141.1269  160.5527 H   0  0  0  0  0  0  0  0  0  0  0  0
  153.6234  141.1631  160.0343 H   0  0  0  0  0  0  0  0  0  0  0  0
  152.6761  142.5690  162.2284 H   0  0  0  0  0  0  0  0  0  0  0  0
  154.0519  143.1221  161.2851 H   0  0  0  0  0  0  0  0  0  0  0  0
  151.5114  144.4831  161.5074 H   0  0  0  0  0  0  0  0  0  0  0  0
  152.8968  144.9247  160.5201 H   0  0  0  0  0  0  0  0  0  0  0  0
  151.3641  144.4930  158.7596 H   0  0  0  0  0  0  0  0  0  0  0  0
  150.4653  143.3389  159.7388 H   0  0  0  0  0  0  0  0  0  0  0  0
  148.7717  142.7381  155.6690 H   0  0  0  0  0  0  0  0  0  0  0  0
  148.6377  141.4587  153.2655 H   0  0  0  0  0  0  0  0  0  0  0  0
  146.3656  141.7519  153.4631 H   0  0  0  0  0  0  0  0  0  0  0  0
  146.2628  141.0044  155.0444 H   0  0  0  0  0  0  0  0  0  0  0  0
  147.6641  143.3934  154.8612 H   0  0  0  0  0  0  0  0  0  0  0  0
  149.4182  139.3410  154.1026 H   0  0  0  0  0  0  0  0  0  0  0  0
  148.3822  139.4155  155.4905 H   0  0  0  0  0  0  0  0  0  0  0  0
  146.7499  137.7124  155.4329 H   0  0  0  0  0  0  0  0  0  0  0  0
  145.0061  136.4502  154.1499 H   0  0  0  0  0  0  0  0  0  0  0  0
  144.7015  136.9540  151.7077 H   0  0  0  0  0  0  0  0  0  0  0  0
  146.1612  138.7010  150.6544 H   0  0  0  0  0  0  0  0  0  0  0  0
  1  2  2  0  0  0  0
  2  3  1  0  0  0  0
  2 10  1  0  0  0  0
  3  4  1  0  0  0  0
  3 21  1  0  0  0  0
  3 22  1  0  0  0  0
  4  5  1  0  0  0  0
  4 23  1  0  0  0  0
  4 24  1  0  0  0  0
  5  9  1  0  0  0  0
  5  6  1  0  0  0  0
  5 25  1  0  0  0  0
  6  7  1  0  0  0  0
  6 26  1  0  0  0  0
  6 27  1  0  0  0  0
  7  8  1  0  0  0  0
  7 28  1  0  0  0  0
  7 29  1  0  0  0  0
  8  9  1  0  0  0  0
  8 30  1  0  0  0  0
  8 31  1  0  0  0  0
  9 32  1  0  0  0  0
  9 33  1  0  0  0  0
 10 11  1  0  0  0  0
 10 34  1  0  0  0  0
 11 12  1  0  0  0  0
 11 14  1  0  0  0  0
 11 35  1  0  0  0  0
 12 13  1  0  0  0  0
 12 36  1  0  0  0  0
 12 37  1  0  0  0  0
 13 38  1  0  0  0  0
 14 15  1  0  0  0  0
 14 39  1  0  0  0  0
 14 40  1  0  0  0  0
 15 20  1  0  0  0  0
 15 16  2  0  0  0  0
 16 17  1  0  0  0  0
 16 41  1  0  0  0  0
 17 18  2  0  0  0  0
 17 42  1  0  0  0  0
 18 19  1  0  0  0  0
 18 43  1  0  0  0  0
 19 20  2  0  0  0  0
 19 44  1  0  0  0  0
M  END
> <s_m_source_file>
AV-unprocessed.smi

> <i_m_source_file_index>
2725

> <i_lp_mmshare_version>
43012

> <i_f3d_flags>
0

> <s_epik_input>
W0NIMl0xW0NIMl1bQ0gyXVtDSDJdW0NIXTFbQ0gyXVtDSDJdQyg9TylbTkhdW0NASF0oW0NIMl1bT0hdKVtDSDJdYzJbY0hdW2NIXVtjSF1bY0hdbjI=

> <s_epik_cmdline>
J2VwaWtfcHl0aG9uJywgJy1waCcsICc3LjAnLCAnLXRuJywgJzgnLCAnLW1hJywgJzIwMCcsICctbWV0YWxfYmluZGluZycsICctaW1hZScsICc8aW5maWxlLm1hZT4nLCAnLW9tYWUnLCAnPG91dGZpbGUubWFlPic=

> <r_epik_Ionization_Penalty>
0.0257016

> <r_epik_Ionization_Penalty_Charging>
0

> <r_epik_Ionization_Penalty_Neutral>
0.0257016

> <r_epik_State_Penalty>
0.0209381

> <r_epik_Charging_Adjusted_Penalty>
0.0209381

> <i_epik_Tot_Q>
0

> <i_epik_Tot_abs_Q>
0

> <r_epik_Metal_State_Penalty>
0.0200649

> <b_epik_Metal_Only>
0

> <s_lp_Force_Field>
OPLS_2005

> <r_lp_Energy>
24.7076

> <b_lp_Chiralities_Consistent>
1

> <s_lp_Variant>
AV-unprocessed.smi:2725-1

> <Gold.Version>
5.8.1

> <Gold.Id.Protein>
6NUR|6NUR_protein|mol2

> <Gold.PLP.Fitness>
48.5790

> <Gold.PLP.PLP>
-40.0259

> <Gold.PLP.part.hbond>
-3.0000

> <Gold.PLP.part.metal>
0.0000

> <Gold.PLP.part.buried>
-4.5809

> <Gold.PLP.part.nonpolar>
-33.9584

> <Gold.PLP.part.repulsive>
2.5965

> <Gold.PLP.ligand.clash>
0.0000

> <Gold.PLP.ligand.torsion>
0.8764

> <Gold.PLP.Chemscore.Hbond>
2.6516

> <Gold.PLP.Chemscore.CHOScore>
0.7388

> <Gold.PLP.Chemscore.Metal>
0.0000

> <Gold.Chemscore.Hbonds>
donor molecule, donor type, donor heavy atom, donor atom, acceptor molecule, acceptor atom, score
      L1  H    10    34       P1  8028  0.88
      L1  H    13    38       P1  8028  0.83
      P1  H  7989  7998       L1     1  0.98
      L1  C    19    44       P1 10171  0.71

> <Gold.PLP.Chemscore.Internal.Correction>
0.1347

> <Gold.Rescore>
     Score         DG    S(hbond)    S(metal)    S(lipo)     H(rot)  DE(clash)    DE(int)     intcor
     16.13     -19.04       1.95        0.00     113.80       2.44       0.74       2.18       ----

> <Gold.Chemscore.Fitness>
16.1283

> <Gold.Chemscore.DG>
-19.0412

> <Gold.Chemscore.ZeroCoef>
-5.4800

> <Gold.Chemscore.Hbond>
1.9454

> <Gold.Chemscore.Metal>
0.0000

> <Gold.Chemscore.Lipo>
113.7953

> <Gold.Chemscore.Internal_Hbond>
0.0000

> <Gold.Chemscore.DEClash>
0.7358

> <Gold.Chemscore.DEInternal>
2.1772

> <Gold.Chemscore.Rot>
2.4416

> <Gold.Chemscore.Internal.Correction>
   9.000000E+99

> <Gold.Chemscore.Hbonds>
donor molecule, donor type, donor heavy atom, donor atom, acceptor molecule, acceptor atom, score
      L1  H    10    34       P1  8028  0.85
      L1  H    13    38       P1  8028  0.32
      P1  H  7989  7998       L1     1  0.69

> <Gold.Chemscore.Hbond.Weighted>
-6.4977

> <Gold.Chemscore.Metal.Weighted>
-0.0000

> <Gold.Chemscore.Lipo.Weighted>
-13.3141

> <Gold.Chemscore.Internal_Hbond.Weighted>
0.0000

> <Gold.Chemscore.DEClash.Weighted>
0.7358

> <Gold.Chemscore.DEInternal.Weighted>
2.1772

> <Gold.Chemscore.Rot.Weighted>
6.2505

> <Gold.Chemscore.Internal.Correction.Weighted>
   9.000000E+99

> <Gold.Protein.RotatedTorsions>
[ 6907 6896 6895 6894 ] final  -41.99 input  -60.11 | X-H torsion
[ 7974 7965 7964 7962 ] final  150.86 input  175.53 | X-H torsion
[ 8008 7997 7996 7995 ] final  -84.03 input   59.86 | X-H torsion
[ 10167 10162 10161 10158 ] final  176.37 input  -65.29 | X-H torsion
[ 10718 10713 10712 10709 ] final -116.53 input   66.30 | X-H torsion
[ 10763 10752 10751 10750 ] final   12.95 input  -60.55 | X-H torsion
[ 11005 11000 10999 10996 ] final -120.83 input  -57.11 | X-H torsion

> <Gold.Protein.ActiveResidues>
 VAL166  LYS551  ARG553  GLY616  TRP617  ASP618  TYR619  PRO620  LYS621  CYS622 
 ASP623  PHE694  ASN695  SER759  ASP760  ASP761  ALA762  ILE779  LEU786  VAL792 
 PHE793  MET794  SER795  GLU796  ALA797  LYS798  CYS799  TRP800  GLU811  SER814 

> <Gold.Protein.RotatedAtoms>
  150.9604  134.8993  159.7726 H   0  0  0  0  0  0  0  0  0  0  0  0  # atno 6907 bound_to 6896
  152.5154  134.3681  159.9318 H   0  0  0  0  0  0  0  0  0  0  0  0  # atno 6908 bound_to 6896
  151.3693  133.3820  159.2732 H   0  0  0  0  0  0  0  0  0  0  0  0  # atno 6909 bound_to 6896
  144.8334  139.6463  143.6049 H   0  0  0  0  0  0  0  0  0  0  0  0  # atno 7974 bound_to 7965
  154.6254  140.0610  156.9667 H   0  0  0  0  0  0  0  0  0  0  0  0  # atno 8008 bound_to 7997
  155.1750  140.3294  155.4367 H   0  0  0  0  0  0  0  0  0  0  0  0  # atno 8009 bound_to 7997
  156.2454  140.1907  156.6850 H   0  0  0  0  0  0  0  0  0  0  0  0  # atno 8010 bound_to 7997
  139.5212  144.2923  152.0452 H   0  0  0  0  0  0  0  0  0  0  0  0  # atno 10167 bound_to 10162
  156.0970  130.6141  150.9048 H   0  0  0  0  0  0  0  0  0  0  0  0  # atno 10718 bound_to 10713
  153.1770  135.6821  153.8529 H   0  0  0  0  0  0  0  0  0  0  0  0  # atno 10763 bound_to 10752
  153.7874  135.3174  155.3375 H   0  0  0  0  0  0  0  0  0  0  0  0  # atno 10764 bound_to 10752
  154.8035  135.4763  154.0429 H   0  0  0  0  0  0  0  0  0  0  0  0  # atno 10765 bound_to 10752
  141.0115  134.0257  157.3407 H   0  0  0  0  0  0  0  0  0  0  0  0  # atno 11005 bound_to 11000
  146.2635  139.6465  142.9346 LP  0  0  0  0  0  0  0  0  0  0  0  0  # atno 17320 bound_to 7965
  145.4847  141.0438  143.2626 LP  0  0  0  0  0  0  0  0  0  0  0  0  # atno 17321 bound_to 7965
  140.2374  144.4305  150.6274 LP  0  0  0  0  0  0  0  0  0  0  0  0  # atno 17342 bound_to 10162
  140.6314  143.2188  151.6487 LP  0  0  0  0  0  0  0  0  0  0  0  0  # atno 17343 bound_to 10162
  157.6133  131.0935  150.8756 LP  0  0  0  0  0  0  0  0  0  0  0  0  # atno 17370 bound_to 10713
  156.8891  130.5206  149.5287 LP  0  0  0  0  0  0  0  0  0  0  0  0  # atno 17371 bound_to 10713
  139.9092  135.0186  156.7621 LP  0  0  0  0  0  0  0  0  0  0  0  0  # atno 17394 bound_to 11000
  140.6725  133.9546  155.7865 LP  0  0  0  0  0  0  0  0  0  0  0  0  # atno 17395 bound_to 11000

$$$$
