AV-unprocessed.smi:66|AV-procd|sdf|623|dock7
  -GOLD-   2262016513D 1   1.00000     0.00000
 Structure written by MMmdl.
 28 30  0  0  0  0  0  0  0  0  2 V2000
  154.1312  138.3676  158.3143 O   0  0  0  0  0  0  0  0  0  0  0  0
  153.0584  137.7256  158.2957 C   0  0  0  0  0  0  0  0  0  0  0  0
  152.8126  136.7070  158.9798 O   0  5  0  0  0  0  0  0  0  0  0  0
  151.9629  138.2355  157.3475 C   0  0  2  0  0  0  0  0  0  0  0  0
  151.5238  137.1669  156.3213 C   0  0  0  0  0  0  0  0  0  0  0  0
  151.5260  137.9030  154.9814 C   0  0  2  0  0  0  0  0  0  0  0  0
  151.8157  137.0484  153.8955 O   0  0  0  0  0  0  0  0  0  0  0  0
  152.5967  138.9687  155.1851 C   0  0  0  0  0  0  0  0  0  0  0  0
  152.4277  139.3906  156.5726 N   0  0  0  0  0  0  0  0  0  0  0  0
  151.8519  140.6451  156.8794 C   0  0  0  0  0  0  0  0  0  0  0  0
  151.0867  141.2831  155.9606 N   0  0  0  0  0  0  0  0  0  0  0  0
  150.5551  142.4692  156.2843 C   0  0  0  0  0  0  0  0  0  0  0  0
  150.6653  143.1627  157.4276 N   0  0  0  0  0  0  0  0  0  0  0  0
  151.4218  142.5516  158.3485 C   0  0  0  0  0  0  0  0  0  0  0  0
  151.7128  143.0351  159.6171 N   0  0  0  0  0  0  0  0  0  0  0  0
  152.4864  142.0686  160.1092 C   0  0  0  0  0  0  0  0  0  0  0  0
  152.7235  141.0241  159.2998 N   0  0  0  0  0  0  0  0  0  0  0  0
  152.0410  141.2857  158.1230 C   0  0  0  0  0  0  0  0  0  0  0  0
  153.2821  140.2127  159.5311 H   0  0  0  0  0  0  0  0  0  0  0  0
  151.0887  138.5176  157.9366 H   0  0  0  0  0  0  0  0  0  0  0  0
  152.2274  136.3325  156.2910 H   0  0  0  0  0  0  0  0  0  0  0  0
  150.5425  136.7522  156.5536 H   0  0  0  0  0  0  0  0  0  0  0  0
  150.5586  138.3811  154.8208 H   0  0  0  0  0  0  0  0  0  0  0  0
  151.1313  137.1464  153.2508 H   0  0  0  0  0  0  0  0  0  0  0  0
  153.5931  138.5333  155.0935 H   0  0  0  0  0  0  0  0  0  0  0  0
  152.5345  139.7601  154.4383 H   0  0  0  0  0  0  0  0  0  0  0  0
  149.9528  142.9323  155.5169 H   0  0  0  0  0  0  0  0  0  0  0  0
  152.9000  142.1214  161.1055 H   0  0  0  0  0  0  0  0  0  0  0  0
  1  2  2  0  0  0  0
  2  3  1  0  0  0  0
  2  4  1  0  0  0  0
  4  9  1  0  0  0  0
  4  5  1  0  0  0  0
  4 20  1  0  0  0  0
  5  6  1  0  0  0  0
  5 21  1  0  0  0  0
  5 22  1  0  0  0  0
  6  7  1  0  0  0  0
  6  8  1  0  0  0  0
  6 23  1  0  0  0  0
  7 24  1  0  0  0  0
  8  9  1  0  0  0  0
  8 25  1  0  0  0  0
  8 26  1  0  0  0  0
  9 10  1  0  0  0  0
 10 18  1  0  0  0  0
 10 11  2  0  0  0  0
 11 12  1  0  0  0  0
 12 13  2  0  0  0  0
 12 27  1  0  0  0  0
 13 14  1  0  0  0  0
 14 18  2  0  0  0  0
 14 15  1  0  0  0  0
 15 16  2  0  0  0  0
 16 17  1  0  0  0  0
 16 28  1  0  0  0  0
 17 19  1  0  0  0  0
 17 18  1  0  0  0  0
M  CHG  1   3  -1
M  END
> <s_m_source_file>
AV-unprocessed.smi

> <i_m_source_file_index>
66

> <i_lp_mmshare_version>
43012

> <i_f3d_flags>
0

> <s_epik_input>
Tz1DKFtPSF0pW0NAQEhdMVtDSDJdW0NAQEhdKFtPSF0pW0NIMl1OMWMobltjSF1uMiljKGMyMylbbkhdW2NIXW4z

> <s_epik_cmdline>
J2VwaWtfcHl0aG9uJywgJy1waCcsICc3LjAnLCAnLXRuJywgJzgnLCAnLW1hJywgJzIwMCcsICctbWV0YWxfYmluZGluZycsICctaW1hZScsICc8aW5maWxlLm1hZT4nLCAnLW9tYWUnLCAnPG91dGZpbGUubWFlPic=

> <r_lp_tautomer_probability>
0.0419193

> <r_epik_Ionization_Penalty>
0.0157405

> <r_epik_Ionization_Penalty_Charging>
0.000248217

> <r_epik_Ionization_Penalty_Neutral>
0.0154923

> <r_epik_State_Penalty>
1.99742

> <r_epik_Charging_Adjusted_Penalty>
1.99767

> <i_epik_Tot_Q>
-1

> <i_epik_Tot_abs_Q>
1

> <r_epik_Metal_State_Penalty>
2.31035

> <b_epik_Metal_Only>
0

> <s_lp_Force_Field>
OPLS_2005

> <r_lp_Energy>
22.103

> <b_lp_Chiralities_Consistent>
1

> <s_lp_Variant>
AV-unprocessed.smi:66-7

> <Gold.Version>
5.8.1

> <Gold.Id.Protein>
6NUR|6NUR_protein|mol2

> <Gold.PLP.Fitness>
41.6515

> <Gold.PLP.PLP>
-25.6051

> <Gold.PLP.part.hbond>
-4.9614

> <Gold.PLP.part.metal>
0.0000

> <Gold.PLP.part.buried>
-5.3643

> <Gold.PLP.part.nonpolar>
-16.9659

> <Gold.PLP.part.repulsive>
0.3877

> <Gold.PLP.ligand.clash>
0.0000

> <Gold.PLP.ligand.torsion>
0.3293

> <Gold.PLP.Chemscore.Hbond>
4.5096

> <Gold.PLP.Chemscore.CHOScore>
0.9839

> <Gold.PLP.Chemscore.Metal>
0.0000

> <Gold.Chemscore.Hbonds>
donor molecule, donor type, donor heavy atom, donor atom, acceptor molecule, acceptor atom, score
      L1  H     7    24       P1  7949  0.32
      P1  H  6896  6908       L1     3  1.19
      P1  H  7997  8008       L1     1  1.72
      P1  H 10752 10763       L1     7  1.00
      L1  C    12    27       P1  8028  0.95

> <Gold.PLP.Chemscore.Internal.Correction>
0.2244

> <Gold.Rescore>
     Score         DG    S(hbond)    S(metal)    S(lipo)     H(rot)  DE(clash)    DE(int)     intcor
     11.22     -13.06       3.01        0.00      32.96       2.48       1.57       0.26       ----

> <Gold.Chemscore.Fitness>
11.2213

> <Gold.Chemscore.DG>
-13.0595

> <Gold.Chemscore.ZeroCoef>
-5.4800

> <Gold.Chemscore.Hbond>
3.0126

> <Gold.Chemscore.Metal>
0.0000

> <Gold.Chemscore.Lipo>
32.9617

> <Gold.Chemscore.Internal_Hbond>
0.0000

> <Gold.Chemscore.DEClash>
1.5740

> <Gold.Chemscore.DEInternal>
0.2642

> <Gold.Chemscore.Rot>
2.4762

> <Gold.Chemscore.Internal.Correction>
   9.000000E+99

> <Gold.Chemscore.Hbonds>
donor molecule, donor type, donor heavy atom, donor atom, acceptor molecule, acceptor atom, score
      L1  H     7    24       P1  7949  0.14
      P1  H  6896  6908       L1     3  0.58
      P1  H  7997  8008       L1     1  0.83
      P1  H 10752 10763       L1     7  0.96

> <Gold.Chemscore.Hbond.Weighted>
-10.0620

> <Gold.Chemscore.Metal.Weighted>
-0.0000

> <Gold.Chemscore.Lipo.Weighted>
-3.8565

> <Gold.Chemscore.Internal_Hbond.Weighted>
0.0000

> <Gold.Chemscore.DEClash.Weighted>
1.5740

> <Gold.Chemscore.DEInternal.Weighted>
0.2642

> <Gold.Chemscore.Rot.Weighted>
6.3391

> <Gold.Chemscore.Internal.Correction.Weighted>
   9.000000E+99

> <Gold.Protein.RotatedTorsions>
[ 6907 6896 6895 6894 ] final  -80.83 input  -60.11 | X-H torsion
[ 7974 7965 7964 7962 ] final  151.16 input  175.53 | X-H torsion
[ 8008 7997 7996 7995 ] final -101.15 input   59.86 | X-H torsion
[ 10167 10162 10161 10158 ] final  126.31 input  -65.29 | X-H torsion
[ 10718 10713 10712 10709 ] final  -18.18 input   66.30 | X-H torsion
[ 10763 10752 10751 10750 ] final   34.31 input  -60.55 | X-H torsion
[ 11005 11000 10999 10996 ] final   10.15 input  -57.11 | X-H torsion

> <Gold.Protein.ActiveResidues>
 VAL166  LYS551  ARG553  GLY616  TRP617  ASP618  TYR619  PRO620  LYS621  CYS622 
 ASP623  PHE694  ASN695  SER759  ASP760  ASP761  ALA762  ILE779  LEU786  VAL792 
 PHE793  MET794  SER795  GLU796  ALA797  LYS798  CYS799  TRP800  GLU811  SER814 

> <Gold.Protein.RotatedAtoms>
  150.6922  134.3909  159.5075 H   0  0  0  0  0  0  0  0  0  0  0  0  # atno 6907 bound_to 6896
  152.1698  134.8841  160.0544 H   0  0  0  0  0  0  0  0  0  0  0  0  # atno 6908 bound_to 6896
  151.9872  133.3743  159.4167 H   0  0  0  0  0  0  0  0  0  0  0  0  # atno 6909 bound_to 6896
  144.8312  139.6502  143.6058 H   0  0  0  0  0  0  0  0  0  0  0  0  # atno 7974 bound_to 7965
  154.8385  140.0436  157.1525 H   0  0  0  0  0  0  0  0  0  0  0  0  # atno 8008 bound_to 7997
  154.9073  140.3008  155.5265 H   0  0  0  0  0  0  0  0  0  0  0  0  # atno 8009 bound_to 7997
  156.2991  140.2364  156.4108 H   0  0  0  0  0  0  0  0  0  0  0  0  # atno 8010 bound_to 7997
  139.5638  144.6898  151.3968 H   0  0  0  0  0  0  0  0  0  0  0  0  # atno 10167 bound_to 10162
  156.5632  130.4731  149.6397 H   0  0  0  0  0  0  0  0  0  0  0  0  # atno 10718 bound_to 10713
  153.0170  135.6364  154.1648 H   0  0  0  0  0  0  0  0  0  0  0  0  # atno 10763 bound_to 10752
  154.1386  135.2836  155.3168 H   0  0  0  0  0  0  0  0  0  0  0  0  # atno 10764 bound_to 10752
  154.6141  135.5546  153.7566 H   0  0  0  0  0  0  0  0  0  0  0  0  # atno 10765 bound_to 10752
  140.5177  134.0590  155.7836 H   0  0  0  0  0  0  0  0  0  0  0  0  # atno 11005 bound_to 11000
  146.2615  139.6421  142.9359 LP  0  0  0  0  0  0  0  0  0  0  0  0  # atno 17320 bound_to 7965
  145.4892  141.0438  143.2603 LP  0  0  0  0  0  0  0  0  0  0  0  0  # atno 17321 bound_to 7965
  140.6920  143.7839  150.7269 LP  0  0  0  0  0  0  0  0  0  0  0  0  # atno 17342 bound_to 10162
  140.1324  143.4514  152.2246 LP  0  0  0  0  0  0  0  0  0  0  0  0  # atno 17343 bound_to 10162
  156.2780  130.7055  151.1871 LP  0  0  0  0  0  0  0  0  0  0  0  0  # atno 17370 bound_to 10713
  157.7364  131.0562  150.5415 LP  0  0  0  0  0  0  0  0  0  0  0  0  # atno 17371 bound_to 10713
  141.1351  133.9235  157.2451 LP  0  0  0  0  0  0  0  0  0  0  0  0  # atno 17394 bound_to 11000
  139.9623  135.0151  156.9295 LP  0  0  0  0  0  0  0  0  0  0  0  0  # atno 17395 bound_to 11000

$$$$
