AV-unprocessed.smi:3204|AV-procd|sdf|12252|dock3
  -GOLD-   2272018 83D 1   1.00000     0.00000
 Structure written by MMmdl.
 30 31  0  0  0  0  0  0  0  0  1 V2000
  152.8523  143.1512  161.9891 C   0  0  0  0  0  0  0  0  0  0  0  0
  152.1639  143.2683  160.6246 C   0  0  0  0  0  0  0  0  0  0  0  0
  152.4542  142.0770  159.7308 C   0  0  0  0  0  0  0  0  0  0  0  0
  153.4241  141.2302  160.1429 N   0  0  0  0  0  0  0  0  0  0  0  0
  153.6918  140.1903  159.3495 C   0  0  0  0  0  0  0  0  0  0  0  0
  153.1020  139.8999  158.1868 N   0  0  0  0  0  0  0  0  0  0  0  0
  152.1300  140.7403  157.7583 C   0  0  0  0  0  0  0  0  0  0  0  0
  151.4835  140.4874  156.5400 N   0  0  0  0  0  0  0  0  0  0  0  0
  151.3479  139.1324  156.0139 C   0  0  2  0  0  0  0  0  0  0  0  0
  152.5453  138.6707  155.1938 C   0  0  0  0  0  0  0  0  0  0  0  0
  152.0466  137.5266  154.5146 O   0  0  0  0  0  0  0  0  0  0  0  0
  150.6566  137.7001  154.2388 C   0  0  0  0  0  0  0  0  0  0  0  0
  150.2000  138.9343  155.0296 C   0  0  2  0  0  0  0  0  0  0  0  0
  150.0646  140.0259  154.1363 O   0  0  0  0  0  0  0  0  0  0  0  0
  151.7617  141.8721  158.5171 C   0  0  0  0  0  0  0  0  0  0  0  0
  150.7944  142.7235  158.0964 F   0  0  0  0  0  0  0  0  0  0  0  0
  152.6279  144.0164  162.6131 H   0  0  0  0  0  0  0  0  0  0  0  0
  153.9354  143.0929  161.8777 H   0  0  0  0  0  0  0  0  0  0  0  0
  152.5215  142.2600  162.5228 H   0  0  0  0  0  0  0  0  0  0  0  0
  151.0853  143.3555  160.7630 H   0  0  0  0  0  0  0  0  0  0  0  0
  152.4814  144.1851  160.1272 H   0  0  0  0  0  0  0  0  0  0  0  0
  154.4655  139.5144  159.6819 H   0  0  0  0  0  0  0  0  0  0  0  0
  151.0320  141.2466  156.0504 H   0  0  0  0  0  0  0  0  0  0  0  0
  151.2273  138.4362  156.8454 H   0  0  0  0  0  0  0  0  0  0  0  0
  152.8412  139.4243  154.4621 H   0  0  0  0  0  0  0  0  0  0  0  0
  153.4123  138.4273  155.8083 H   0  0  0  0  0  0  0  0  0  0  0  0
  150.4828  137.7989  153.1662 H   0  0  0  0  0  0  0  0  0  0  0  0
  150.1286  136.8076  154.5762 H   0  0  0  0  0  0  0  0  0  0  0  0
  149.2470  138.7703  155.5333 H   0  0  0  0  0  0  0  0  0  0  0  0
  149.6602  139.7114  153.3423 H   0  0  0  0  0  0  0  0  0  0  0  0
  1  2  1  0  0  0  0
  1 17  1  0  0  0  0
  1 18  1  0  0  0  0
  1 19  1  0  0  0  0
  2  3  1  0  0  0  0
  2 20  1  0  0  0  0
  2 21  1  0  0  0  0
  3 15  1  0  0  0  0
  3  4  2  0  0  0  0
  4  5  1  0  0  0  0
  5  6  2  0  0  0  0
  5 22  1  0  0  0  0
  6  7  1  0  0  0  0
  7  8  1  0  0  0  0
  7 15  2  0  0  0  0
  8  9  1  0  0  0  0
  8 23  1  0  0  0  0
  9 13  1  0  0  0  0
  9 10  1  0  0  0  0
  9 24  1  0  0  0  0
 10 11  1  0  0  0  0
 10 25  1  0  0  0  0
 10 26  1  0  0  0  0
 11 12  1  0  0  0  0
 12 13  1  0  0  0  0
 12 27  1  0  0  0  0
 12 28  1  0  0  0  0
 13 14  1  0  0  0  0
 13 29  1  0  0  0  0
 14 30  1  0  0  0  0
 15 16  1  0  0  0  0
M  END
> <s_m_source_file>
AV-unprocessed.smi

> <i_m_source_file_index>
3204

> <i_lp_mmshare_version>
43012

> <i_f3d_flags>
0

> <s_epik_input>
W0NIM11bQ0gyXWMxbltjSF1uYyhjMUYpW05IXVtDQEBIXTJbQ0gyXU9bQ0gyXVtDQEhdMltPSF0=

> <s_epik_cmdline>
J2VwaWtfcHl0aG9uJywgJy1waCcsICc3LjAnLCAnLXRuJywgJzgnLCAnLW1hJywgJzIwMCcsICctbWV0YWxfYmluZGluZycsICctaW1hZScsICc8aW5maWxlLm1hZT4nLCAnLW9tYWUnLCAnPG91dGZpbGUubWFlPic=

> <r_lp_tautomer_probability>
1

> <r_epik_Ionization_Penalty>
0.000484964

> <r_epik_Ionization_Penalty_Charging>
0

> <r_epik_Ionization_Penalty_Neutral>
0.000484964

> <r_epik_State_Penalty>
-0

> <r_epik_Charging_Adjusted_Penalty>
0

> <i_epik_Tot_Q>
0

> <i_epik_Tot_abs_Q>
0

> <r_epik_Metal_State_Penalty>
-0

> <b_epik_Metal_Only>
0

> <s_lp_Force_Field>
OPLS_2005

> <r_lp_Energy>
19.3266

> <b_lp_Chiralities_Consistent>
1

> <s_lp_Variant>
AV-unprocessed.smi:3204-3

> <Gold.Version>
5.8.1

> <Gold.Id.Protein>
6NUR|6NUR_protein|mol2

> <Gold.PLP.Fitness>
44.4573

> <Gold.PLP.PLP>
-34.6763

> <Gold.PLP.part.hbond>
-3.7320

> <Gold.PLP.part.metal>
0.0000

> <Gold.PLP.part.buried>
-4.3537

> <Gold.PLP.part.nonpolar>
-26.1754

> <Gold.PLP.part.repulsive>
0.2586

> <Gold.PLP.ligand.clash>
0.0000

> <Gold.PLP.ligand.torsion>
0.6135

> <Gold.PLP.Chemscore.Hbond>
3.6647

> <Gold.PLP.Chemscore.CHOScore>
0.0000

> <Gold.PLP.Chemscore.Metal>
0.0000

> <Gold.Chemscore.Hbonds>
donor molecule, donor type, donor heavy atom, donor atom, acceptor molecule, acceptor atom, score
      L1  H    14    30       P1  7957  0.48
      P1  H  7989  7998       L1    14  0.98
      P1  H  7997  8009       L1     6  0.90
      P1  H 10752 10765       L1    11  0.73

> <Gold.PLP.Chemscore.Internal.Correction>
0.0139

> <Gold.Rescore>
     Score         DG    S(hbond)    S(metal)    S(lipo)     H(rot)  DE(clash)    DE(int)     intcor
     16.79     -17.58       2.51        0.00      71.96       1.83       0.14       0.64       ----

> <Gold.Chemscore.Fitness>
16.7903

> <Gold.Chemscore.DG>
-17.5757

> <Gold.Chemscore.ZeroCoef>
-5.4800

> <Gold.Chemscore.Hbond>
2.5060

> <Gold.Chemscore.Metal>
0.0000

> <Gold.Chemscore.Lipo>
71.9635

> <Gold.Chemscore.Internal_Hbond>
0.0000

> <Gold.Chemscore.DEClash>
0.1412

> <Gold.Chemscore.DEInternal>
0.6442

> <Gold.Chemscore.Rot>
1.8337

> <Gold.Chemscore.Internal.Correction>
   9.000000E+99

> <Gold.Chemscore.Hbonds>
donor molecule, donor type, donor heavy atom, donor atom, acceptor molecule, acceptor atom, score
      L1  H    14    30       P1  7957  0.47
      P1  H  7989  7998       L1    14  0.31
      P1  H  7997  8009       L1     6  0.13
      P1  H 10752 10765       L1    11  0.69

> <Gold.Chemscore.Hbond.Weighted>
-8.3702

> <Gold.Chemscore.Metal.Weighted>
-0.0000

> <Gold.Chemscore.Lipo.Weighted>
-8.4197

> <Gold.Chemscore.Internal_Hbond.Weighted>
0.0000

> <Gold.Chemscore.DEClash.Weighted>
0.1412

> <Gold.Chemscore.DEInternal.Weighted>
0.6442

> <Gold.Chemscore.Rot.Weighted>
4.6942

> <Gold.Chemscore.Internal.Correction.Weighted>
   9.000000E+99

> <Gold.Protein.RotatedTorsions>
[ 6907 6896 6895 6894 ] final  116.25 input  -60.11 | X-H torsion
[ 7974 7965 7964 7962 ] final  -90.26 input  175.53 | X-H torsion
[ 8008 7997 7996 7995 ] final  150.59 input   59.86 | X-H torsion
[ 10167 10162 10161 10158 ] final  179.54 input  -65.29 | X-H torsion
[ 10718 10713 10712 10709 ] final -112.04 input   66.30 | X-H torsion
[ 10763 10752 10751 10750 ] final  154.86 input  -60.55 | X-H torsion
[ 11005 11000 10999 10996 ] final  -71.61 input  -57.11 | X-H torsion

> <Gold.Protein.ActiveResidues>
 VAL166  LYS551  ARG553  GLY616  TRP617  ASP618  TYR619  PRO620  LYS621  CYS622 
 ASP623  PHE694  ASN695  SER759  ASP760  ASP761  ALA762  ILE779  LEU786  VAL792 
 PHE793  MET794  SER795  GLU796  ALA797  LYS798  CYS799  TRP800  GLU811  SER814 

> <Gold.Protein.RotatedAtoms>
  152.4690  133.7986  159.6940 H   0  0  0  0  0  0  0  0  0  0  0  0  # atno 6907 bound_to 6896
  150.8669  133.7552  159.2980 H   0  0  0  0  0  0  0  0  0  0  0  0  # atno 6908 bound_to 6896
  151.5100  135.1068  159.9903 H   0  0  0  0  0  0  0  0  0  0  0  0  # atno 6909 bound_to 6896
  145.4288  140.9555  143.2139 H   0  0  0  0  0  0  0  0  0  0  0  0  # atno 7974 bound_to 7965
  156.2709  140.2071  156.6041 H   0  0  0  0  0  0  0  0  0  0  0  0  # atno 8008 bound_to 7997
  154.6883  140.0533  157.0361 H   0  0  0  0  0  0  0  0  0  0  0  0  # atno 8009 bound_to 7997
  155.0902  140.3195  155.4579 H   0  0  0  0  0  0  0  0  0  0  0  0  # atno 8010 bound_to 7997
  139.5341  144.2548  152.0755 H   0  0  0  0  0  0  0  0  0  0  0  0  # atno 10167 bound_to 10162
  156.0682  130.5899  150.8455 H   0  0  0  0  0  0  0  0  0  0  0  0  # atno 10718 bound_to 10713
  154.1591  135.2811  155.3114 H   0  0  0  0  0  0  0  0  0  0  0  0  # atno 10763 bound_to 10752
  154.6160  135.5483  153.7527 H   0  0  0  0  0  0  0  0  0  0  0  0  # atno 10764 bound_to 10752
  153.0198  135.6427  154.1733 H   0  0  0  0  0  0  0  0  0  0  0  0  # atno 10765 bound_to 10752
  141.1595  133.6822  156.6933 H   0  0  0  0  0  0  0  0  0  0  0  0  # atno 11005 bound_to 11000
  144.8196  139.5815  143.6993 LP  0  0  0  0  0  0  0  0  0  0  0  0  # atno 17320 bound_to 7965
  146.2618  139.6427  142.9357 LP  0  0  0  0  0  0  0  0  0  0  0  0  # atno 17321 bound_to 7965
  140.2016  144.4652  150.6428 LP  0  0  0  0  0  0  0  0  0  0  0  0  # atno 17342 bound_to 10162
  140.6537  143.2232  151.6018 LP  0  0  0  0  0  0  0  0  0  0  0  0  # atno 17343 bound_to 10162
  157.5737  131.0946  150.9378 LP  0  0  0  0  0  0  0  0  0  0  0  0  # atno 17370 bound_to 10713
  156.9589  130.5447  149.5285 LP  0  0  0  0  0  0  0  0  0  0  0  0  # atno 17371 bound_to 10713
  140.3014  134.8160  157.4101 LP  0  0  0  0  0  0  0  0  0  0  0  0  # atno 17394 bound_to 11000
  140.1258  134.5159  155.8145 LP  0  0  0  0  0  0  0  0  0  0  0  0  # atno 17395 bound_to 11000

$$$$
