AV-unprocessed.smi:2177|AV-procd|sdf|8851|dock4
  -GOLD-   2272012 43D 1   1.00000     0.00000
 Structure written by MMmdl.
 42 43  0  0  0  0  0  0  0  0  1 V2000
  151.0902  137.2897  154.6735 C   0  0  0  0  0  0  0  0  0  0  0  0
  150.2898  138.5605  154.6551 C   0  0  0  0  0  0  0  0  0  0  0  0
  149.1213  138.5822  154.0363 N   0  0  0  0  0  0  0  0  0  0  0  0
  148.6765  139.8463  154.1845 N   0  0  0  0  0  0  0  0  0  0  0  0
  147.4001  140.2236  153.6097 C   0  0  0  0  0  0  0  0  0  0  0  0
  149.5648  140.6241  154.9007 C   0  0  0  0  0  0  0  0  0  0  0  0
  149.3057  142.0669  155.1915 C   0  0  0  0  0  0  0  0  0  0  0  0
  150.6294  139.8247  155.2216 C   0  0  0  0  0  0  0  0  0  0  0  0
  151.8883  140.1878  155.9717 C   0  0  0  0  0  0  0  0  0  0  0  0
  151.5198  140.7240  157.3556 C   0  0  0  0  0  0  0  0  0  0  0  0
  150.3632  141.0672  157.5975 O   0  0  0  0  0  0  0  0  0  0  0  0
  152.5239  140.8106  158.2417 N   0  0  0  0  0  0  0  0  0  0  0  0
  152.4584  141.4419  159.5553 C   0  0  1  0  0  0  0  0  0  0  0  0
  153.8618  141.4941  160.1767 C   0  0  0  0  0  0  0  0  0  0  0  0
  151.8316  142.8419  159.4117 C   0  0  1  0  0  0  0  0  0  0  0  0
  151.8723  143.6944  160.6836 C   0  0  0  0  0  0  0  0  0  0  0  0
  151.8545  145.1234  160.1629 C   0  0  0  0  0  0  0  0  0  0  0  0
  152.1399  144.9806  158.6651 C   0  0  0  0  0  0  0  0  0  0  0  0
  152.5679  143.6368  158.4960 O   0  0  0  0  0  0  0  0  0  0  0  0
  151.9992  137.3951  154.0810 H   0  0  0  0  0  0  0  0  0  0  0  0
  150.5260  136.4493  154.2680 H   0  0  0  0  0  0  0  0  0  0  0  0
  151.3843  137.0291  155.6900 H   0  0  0  0  0  0  0  0  0  0  0  0
  146.6921  140.4483  154.4075 H   0  0  0  0  0  0  0  0  0  0  0  0
  146.9985  139.4148  152.9974 H   0  0  0  0  0  0  0  0  0  0  0  0
  147.5258  141.1079  152.9841 H   0  0  0  0  0  0  0  0  0  0  0  0
  150.0795  142.4864  155.8343 H   0  0  0  0  0  0  0  0  0  0  0  0
  148.3476  142.1967  155.6949 H   0  0  0  0  0  0  0  0  0  0  0  0
  149.2870  142.6483  154.2696 H   0  0  0  0  0  0  0  0  0  0  0  0
  152.5473  139.3258  156.0811 H   0  0  0  0  0  0  0  0  0  0  0  0
  152.4673  140.9469  155.4448 H   0  0  0  0  0  0  0  0  0  0  0  0
  153.4339  140.4902  157.9441 H   0  0  0  0  0  0  0  0  0  0  0  0
  151.8136  140.8533  160.2106 H   0  0  0  0  0  0  0  0  0  0  0  0
  153.8353  141.9487  161.1672 H   0  0  0  0  0  0  0  0  0  0  0  0
  154.5480  142.0768  159.5612 H   0  0  0  0  0  0  0  0  0  0  0  0
  154.2794  140.4927  160.2868 H   0  0  0  0  0  0  0  0  0  0  0  0
  150.8011  142.7618  159.0591 H   0  0  0  0  0  0  0  0  0  0  0  0
  151.0438  143.4802  161.3597 H   0  0  0  0  0  0  0  0  0  0  0  0
  152.8010  143.5169  161.2281 H   0  0  0  0  0  0  0  0  0  0  0  0
  150.8880  145.6006  160.3284 H   0  0  0  0  0  0  0  0  0  0  0  0
  152.6155  145.7251  160.6613 H   0  0  0  0  0  0  0  0  0  0  0  0
  151.2302  145.1417  158.0852 H   0  0  0  0  0  0  0  0  0  0  0  0
  152.8966  145.6823  158.3132 H   0  0  0  0  0  0  0  0  0  0  0  0
  1  2  1  0  0  0  0
  1 20  1  0  0  0  0
  1 21  1  0  0  0  0
  1 22  1  0  0  0  0
  2  8  1  0  0  0  0
  2  3  2  0  0  0  0
  3  4  1  0  0  0  0
  4  5  1  0  0  0  0
  4  6  1  0  0  0  0
  5 23  1  0  0  0  0
  5 24  1  0  0  0  0
  5 25  1  0  0  0  0
  6  7  1  0  0  0  0
  6  8  2  0  0  0  0
  7 26  1  0  0  0  0
  7 27  1  0  0  0  0
  7 28  1  0  0  0  0
  8  9  1  0  0  0  0
  9 10  1  0  0  0  0
  9 29  1  0  0  0  0
  9 30  1  0  0  0  0
 10 11  2  0  0  0  0
 10 12  1  0  0  0  0
 12 13  1  0  0  0  0
 12 31  1  0  0  0  0
 13 14  1  0  0  0  0
 13 15  1  0  0  0  0
 13 32  1  0  0  0  0
 14 33  1  0  0  0  0
 14 34  1  0  0  0  0
 14 35  1  0  0  0  0
 15 19  1  0  0  0  0
 15 16  1  0  0  0  0
 15 36  1  0  0  0  0
 16 17  1  0  0  0  0
 16 37  1  0  0  0  0
 16 38  1  0  0  0  0
 17 18  1  0  0  0  0
 17 39  1  0  0  0  0
 17 40  1  0  0  0  0
 18 19  1  0  0  0  0
 18 41  1  0  0  0  0
 18 42  1  0  0  0  0
M  END
> <s_m_source_file>
AV-unprocessed.smi

> <i_m_source_file_index>
2177

> <i_lp_mmshare_version>
43012

> <i_f3d_flags>
0

> <s_epik_input>
W0NIM11jMW5uKFtDSDNdKWMoW0NIM10pYzFbQ0gyXUMoPU8pW05IXVtDQEhdKFtDSDNdKVtDQEBIXTJbQ0gyXVtDSDJdW0NIMl1PMg==

> <s_epik_cmdline>
J2VwaWtfcHl0aG9uJywgJy1waCcsICc3LjAnLCAnLXRuJywgJzgnLCAnLW1hJywgJzIwMCcsICctbWV0YWxfYmluZGluZycsICctaW1hZScsICc8aW5maWxlLm1hZT4nLCAnLW9tYWUnLCAnPG91dGZpbGUubWFlPic=

> <r_lp_tautomer_probability>
1

> <r_epik_Ionization_Penalty>
0.00310467

> <r_epik_Ionization_Penalty_Charging>
0

> <r_epik_Ionization_Penalty_Neutral>
0.00310467

> <r_epik_State_Penalty>
0.00218493

> <r_epik_Charging_Adjusted_Penalty>
0.00218493

> <i_epik_Tot_Q>
0

> <i_epik_Tot_abs_Q>
0

> <r_epik_Metal_State_Penalty>
-0

> <b_epik_Metal_Only>
0

> <s_lp_Force_Field>
OPLS_2005

> <r_lp_Energy>
11.3681

> <b_lp_Chiralities_Consistent>
1

> <s_lp_Variant>
AV-unprocessed.smi:2177-4

> <Gold.Version>
5.8.1

> <Gold.Id.Protein>
6NUR|6NUR_protein|mol2

> <Gold.PLP.Fitness>
41.2949

> <Gold.PLP.PLP>
-41.8801

> <Gold.PLP.part.hbond>
0.0000

> <Gold.PLP.part.metal>
0.0000

> <Gold.PLP.part.buried>
0.9507

> <Gold.PLP.part.nonpolar>
-42.8668

> <Gold.PLP.part.repulsive>
0.6288

> <Gold.PLP.ligand.clash>
0.0000

> <Gold.PLP.ligand.torsion>
0.3166

> <Gold.PLP.Chemscore.Hbond>
0.0000

> <Gold.PLP.Chemscore.CHOScore>
0.0000

> <Gold.PLP.Chemscore.Metal>
0.0000

> <Gold.PLP.Chemscore.Internal.Correction>
0.0480

> <Gold.Rescore>
     Score         DG    S(hbond)    S(metal)    S(lipo)     H(rot)  DE(clash)    DE(int)     intcor
     12.58     -15.34       0.00        0.00     116.30       1.46       0.27       2.49       ----

> <Gold.Chemscore.Fitness>
12.5849

> <Gold.Chemscore.DG>
-15.3424

> <Gold.Chemscore.ZeroCoef>
-5.4800

> <Gold.Chemscore.Hbond>
0.0000

> <Gold.Chemscore.Metal>
0.0000

> <Gold.Chemscore.Lipo>
116.2980

> <Gold.Chemscore.Internal_Hbond>
0.0000

> <Gold.Chemscore.DEClash>
0.2652

> <Gold.Chemscore.DEInternal>
2.4923

> <Gold.Chemscore.Rot>
1.4627

> <Gold.Chemscore.Internal.Correction>
   9.000000E+99

> <Gold.Chemscore.Hbond.Weighted>
-0.0000

> <Gold.Chemscore.Metal.Weighted>
-0.0000

> <Gold.Chemscore.Lipo.Weighted>
-13.6069

> <Gold.Chemscore.Internal_Hbond.Weighted>
0.0000

> <Gold.Chemscore.DEClash.Weighted>
0.2652

> <Gold.Chemscore.DEInternal.Weighted>
2.4923

> <Gold.Chemscore.Rot.Weighted>
3.7445

> <Gold.Chemscore.Internal.Correction.Weighted>
   9.000000E+99

> <Gold.Protein.RotatedTorsions>
[ 6907 6896 6895 6894 ] final -158.35 input  -60.11 | X-H torsion
[ 7974 7965 7964 7962 ] final   53.15 input  175.53 | X-H torsion
[ 8008 7997 7996 7995 ] final -108.42 input   59.86 | X-H torsion
[ 10167 10162 10161 10158 ] final    0.98 input  -65.29 | X-H torsion
[ 10718 10713 10712 10709 ] final  -27.23 input   66.30 | X-H torsion
[ 10763 10752 10751 10750 ] final  -47.26 input  -60.55 | X-H torsion
[ 11005 11000 10999 10996 ] final   94.55 input  -57.11 | X-H torsion

> <Gold.Protein.ActiveResidues>
 VAL166  LYS551  ARG553  GLY616  TRP617  ASP618  TYR619  PRO620  LYS621  CYS622 
 ASP623  PHE694  ASN695  SER759  ASP760  ASP761  ALA762  ILE779  LEU786  VAL792 
 PHE793  MET794  SER795  GLU796  ALA797  LYS798  CYS799  TRP800  GLU811  SER814 

> <Gold.Protein.RotatedAtoms>
  151.3168  133.4057  159.2651 H   0  0  0  0  0  0  0  0  0  0  0  0  # atno 6907 bound_to 6896
  151.0068  134.9366  159.7995 H   0  0  0  0  0  0  0  0  0  0  0  0  # atno 6908 bound_to 6896
  152.5290  134.3133  159.9174 H   0  0  0  0  0  0  0  0  0  0  0  0  # atno 6909 bound_to 6896
  145.9741  139.4177  143.0172 H   0  0  0  0  0  0  0  0  0  0  0  0  # atno 7974 bound_to 7965
  154.9441  140.0402  157.2111 H   0  0  0  0  0  0  0  0  0  0  0  0  # atno 8008 bound_to 7997
  154.8041  140.2857  155.5878 H   0  0  0  0  0  0  0  0  0  0  0  0  # atno 8009 bound_to 7997
  156.2964  140.2549  156.2915 H   0  0  0  0  0  0  0  0  0  0  0  0  # atno 8010 bound_to 7997
  140.6704  143.7065  150.7910 H   0  0  0  0  0  0  0  0  0  0  0  0  # atno 10167 bound_to 10162
  156.4409  130.4464  149.7053 H   0  0  0  0  0  0  0  0  0  0  0  0  # atno 10718 bound_to 10713
  154.0585  135.6621  153.4809 H   0  0  0  0  0  0  0  0  0  0  0  0  # atno 10763 bound_to 10752
  153.0436  135.5129  154.7682 H   0  0  0  0  0  0  0  0  0  0  0  0  # atno 10764 bound_to 10752
  154.6711  135.3029  154.9708 H   0  0  0  0  0  0  0  0  0  0  0  0  # atno 10765 bound_to 10752
  139.8797  134.8851  156.3880 H   0  0  0  0  0  0  0  0  0  0  0  0  # atno 11005 bound_to 11000
  145.7864  140.9833  143.1072 LP  0  0  0  0  0  0  0  0  0  0  0  0  # atno 17320 bound_to 7965
  144.6844  139.9629  143.7480 LP  0  0  0  0  0  0  0  0  0  0  0  0  # atno 17321 bound_to 7965
  140.0750  143.5024  152.2560 LP  0  0  0  0  0  0  0  0  0  0  0  0  # atno 17342 bound_to 10162
  139.5969  144.7570  151.3264 LP  0  0  0  0  0  0  0  0  0  0  0  0  # atno 17343 bound_to 10162
  156.3918  130.7631  151.2633 LP  0  0  0  0  0  0  0  0  0  0  0  0  # atno 17370 bound_to 10713
  157.7506  131.0265  150.3967 LP  0  0  0  0  0  0  0  0  0  0  0  0  # atno 17371 bound_to 10713
  140.9352  133.7552  156.0076 LP  0  0  0  0  0  0  0  0  0  0  0  0  # atno 17394 bound_to 11000
  140.8284  134.3208  157.5358 LP  0  0  0  0  0  0  0  0  0  0  0  0  # atno 17395 bound_to 11000

$$$$
