AV-unprocessed.smi:634|AV-procd|sdf|3133|dock10
  -GOLD-   22720 0 53D 1   1.00000     0.00000
 Structure written by MMmdl.
 33 34  0  0  0  0  0  0  0  0  1 V2000
  143.5195  132.4684  149.4320 C   0  0  0  0  0  0  0  0  0  0  0  0
  144.4098  133.2912  150.2987 C   0  0  0  0  0  0  0  0  0  0  0  0
  145.5414  133.0035  151.0088 C   0  0  0  0  0  0  0  0  0  0  0  0
  145.8726  134.2510  151.6016 C   0  0  0  0  0  0  0  0  0  0  0  0
  147.0148  134.3808  152.4321 N   0  0  0  0  0  0  0  0  0  0  0  0
  147.4156  133.5510  153.4100 C   0  0  0  0  0  0  0  0  0  0  0  0
  146.8405  132.5119  153.7341 O   0  0  0  0  0  0  0  0  0  0  0  0
  148.5340  134.0060  153.9995 N   0  0  0  0  0  0  0  0  0  0  0  0
  149.2784  133.4144  155.1201 C   0  0  1  0  0  0  0  0  0  0  0  0
  149.7379  131.9835  154.7681 C   0  0  0  0  0  0  0  0  0  0  0  0
  150.5103  134.3156  155.3770 C   0  0  0  0  0  0  0  0  0  0  0  0
  150.0736  135.5988  156.0953 C   0  0  0  0  0  0  0  0  0  0  0  0
  148.6508  135.1210  157.1417 S   0  0  0  0  0  0  0  0  0  0  0  0
  149.0858  134.9952  158.5409 O   0  0  0  0  0  0  0  0  0  0  0  0
  147.4944  135.9544  156.7793 O   0  0  0  0  0  0  0  0  0  0  0  0
  148.4459  133.4463  156.4236 C   0  0  0  0  0  0  0  0  0  0  0  0
  145.0180  135.2120  151.2861 N   0  0  0  0  0  0  0  0  0  0  0  0
  144.0758  134.6016  150.4499 O   0  0  0  0  0  0  0  0  0  0  0  0
  143.9812  131.5088  149.1986 H   0  0  0  0  0  0  0  0  0  0  0  0
  143.3134  132.9802  148.4918 H   0  0  0  0  0  0  0  0  0  0  0  0
  142.5688  132.2753  149.9288 H   0  0  0  0  0  0  0  0  0  0  0  0
  146.0491  132.0537  151.0867 H   0  0  0  0  0  0  0  0  0  0  0  0
  147.5797  135.2016  152.2730 H   0  0  0  0  0  0  0  0  0  0  0  0
  148.9111  134.8716  153.6422 H   0  0  0  0  0  0  0  0  0  0  0  0
  150.3753  131.5696  155.5500 H   0  0  0  0  0  0  0  0  0  0  0  0
  150.3086  131.9686  153.8390 H   0  0  0  0  0  0  0  0  0  0  0  0
  148.8965  131.3009  154.6510 H   0  0  0  0  0  0  0  0  0  0  0  0
  151.2074  133.7871  156.0288 H   0  0  0  0  0  0  0  0  0  0  0  0
  151.0569  134.5389  154.4597 H   0  0  0  0  0  0  0  0  0  0  0  0
  150.8632  136.0345  156.7075 H   0  0  0  0  0  0  0  0  0  0  0  0
  149.7311  136.3484  155.3816 H   0  0  0  0  0  0  0  0  0  0  0  0
  147.3873  133.2220  156.2963 H   0  0  0  0  0  0  0  0  0  0  0  0
  148.8456  132.7364  157.1483 H   0  0  0  0  0  0  0  0  0  0  0  0
  1  2  1  0  0  0  0
  1 19  1  0  0  0  0
  1 20  1  0  0  0  0
  1 21  1  0  0  0  0
  2 18  1  0  0  0  0
  2  3  2  0  0  0  0
  3  4  1  0  0  0  0
  3 22  1  0  0  0  0
  4  5  1  0  0  0  0
  4 17  2  0  0  0  0
  5  6  1  0  0  0  0
  5 23  1  0  0  0  0
  6  7  2  0  0  0  0
  6  8  1  0  0  0  0
  8  9  1  0  0  0  0
  8 24  1  0  0  0  0
  9 16  1  0  0  0  0
  9 10  1  0  0  0  0
  9 11  1  0  0  0  0
 10 25  1  0  0  0  0
 10 26  1  0  0  0  0
 10 27  1  0  0  0  0
 11 12  1  0  0  0  0
 11 28  1  0  0  0  0
 11 29  1  0  0  0  0
 12 13  1  0  0  0  0
 12 30  1  0  0  0  0
 12 31  1  0  0  0  0
 13 14  2  0  0  0  0
 13 15  2  0  0  0  0
 13 16  1  0  0  0  0
 16 32  1  0  0  0  0
 16 33  1  0  0  0  0
 17 18  1  0  0  0  0
M  END
> <s_m_source_file>
AV-unprocessed.smi

> <i_m_source_file_index>
634

> <i_lp_mmshare_version>
43012

> <i_f3d_flags>
0

> <s_epik_input>
W0NIM11jMVtjSF1jKG5vMSlbTkhdQyg9TylbTkhdW0NAQF0yKFtDSDNdKVtDSDJdW0NIMl1TKD1PKSg9TylbQ0gyXTI=

> <s_epik_cmdline>
J2VwaWtfcHl0aG9uJywgJy1waCcsICc3LjAnLCAnLXRuJywgJzgnLCAnLW1hJywgJzIwMCcsICctbWV0YWxfYmluZGluZycsICctaW1hZScsICc8aW5maWxlLm1hZT4nLCAnLW9tYWUnLCAnPG91dGZpbGUubWFlPic=

> <r_lp_tautomer_probability>
1

> <r_epik_Ionization_Penalty>
3.87281e-05

> <r_epik_Ionization_Penalty_Charging>
0

> <r_epik_Ionization_Penalty_Neutral>
3.87281e-05

> <r_epik_State_Penalty>
-0

> <r_epik_Charging_Adjusted_Penalty>
0

> <i_epik_Tot_Q>
0

> <i_epik_Tot_abs_Q>
0

> <r_epik_Metal_State_Penalty>
0.0249287

> <b_epik_Metal_Only>
0

> <s_lp_Force_Field>
OPLS_2005

> <r_lp_Energy>
3.17223

> <b_lp_Chiralities_Consistent>
1

> <s_lp_Variant>
AV-unprocessed.smi:634-1

> <Gold.Version>
5.8.1

> <Gold.Id.Protein>
6NUR|6NUR_protein|mol2

> <Gold.PLP.Fitness>
32.0037

> <Gold.PLP.PLP>
-24.2828

> <Gold.PLP.part.hbond>
-2.9174

> <Gold.PLP.part.metal>
0.0000

> <Gold.PLP.part.buried>
-3.8238

> <Gold.PLP.part.nonpolar>
-17.4044

> <Gold.PLP.part.repulsive>
0.5538

> <Gold.PLP.ligand.clash>
0.0000

> <Gold.PLP.ligand.torsion>
0.3951

> <Gold.PLP.Chemscore.Hbond>
2.8320

> <Gold.PLP.Chemscore.CHOScore>
0.0000

> <Gold.PLP.Chemscore.Metal>
0.0000

> <Gold.Chemscore.Hbonds>
donor molecule, donor type, donor heavy atom, donor atom, acceptor molecule, acceptor atom, score
      L1  H     5    23       P1  7948  1.00
      L1  H     8    24       P1  7948  0.50
      P1  H  6896  6909       L1    14  1.00

> <Gold.PLP.Chemscore.Internal.Correction>
0.0151

> <Gold.Rescore>
     Score         DG    S(hbond)    S(metal)    S(lipo)     H(rot)  DE(clash)    DE(int)     intcor
     15.17     -16.63       2.46        0.00      47.03       1.00       0.03       1.43       ----

> <Gold.Chemscore.Fitness>
15.1706

> <Gold.Chemscore.DG>
-16.6338

> <Gold.Chemscore.ZeroCoef>
-5.4800

> <Gold.Chemscore.Hbond>
2.4584

> <Gold.Chemscore.Metal>
0.0000

> <Gold.Chemscore.Lipo>
47.0307

> <Gold.Chemscore.Internal_Hbond>
0.0000

> <Gold.Chemscore.DEClash>
0.0287

> <Gold.Chemscore.DEInternal>
1.4345

> <Gold.Chemscore.Rot>
1.0000

> <Gold.Chemscore.Internal.Correction>
   9.000000E+99

> <Gold.Chemscore.Hbonds>
donor molecule, donor type, donor heavy atom, donor atom, acceptor molecule, acceptor atom, score
      L1  H     5    23       P1  7948  0.98
      L1  H     8    24       P1  7948  0.19
      P1  H  6896  6909       L1    14  1.00

> <Gold.Chemscore.Hbond.Weighted>
-8.2112

> <Gold.Chemscore.Metal.Weighted>
-0.0000

> <Gold.Chemscore.Lipo.Weighted>
-5.5026

> <Gold.Chemscore.Internal_Hbond.Weighted>
0.0000

> <Gold.Chemscore.DEClash.Weighted>
0.0287

> <Gold.Chemscore.DEInternal.Weighted>
1.4345

> <Gold.Chemscore.Rot.Weighted>
2.5600

> <Gold.Chemscore.Internal.Correction.Weighted>
   9.000000E+99

> <Gold.Protein.RotatedTorsions>
[ 6907 6896 6895 6894 ] final   41.83 input  -60.11 | X-H torsion
[ 7974 7965 7964 7962 ] final  103.15 input  175.53 | X-H torsion
[ 8008 7997 7996 7995 ] final -152.30 input   59.86 | X-H torsion
[ 10167 10162 10161 10158 ] final  -34.71 input  -65.29 | X-H torsion
[ 10718 10713 10712 10709 ] final    1.24 input   66.30 | X-H torsion
[ 10763 10752 10751 10750 ] final -134.92 input  -60.55 | X-H torsion
[ 11005 11000 10999 10996 ] final  172.35 input  -57.11 | X-H torsion

> <Gold.Protein.ActiveResidues>
 VAL166  LYS551  ARG553  GLY616  TRP617  ASP618  TYR619  PRO620  LYS621  CYS622 
 ASP623  PHE694  ASN695  SER759  ASP760  ASP761  ALA762  ILE779  LEU786  VAL792 
 PHE793  MET794  SER795  GLU796  ALA797  LYS798  CYS799  TRP800  GLU811  SER814 

> <Gold.Protein.RotatedAtoms>
  152.2002  134.8595  160.0508 H   0  0  0  0  0  0  0  0  0  0  0  0  # atno 6907 bound_to 6896
  151.9451  133.3644  159.3987 H   0  0  0  0  0  0  0  0  0  0  0  0  # atno 6908 bound_to 6896
  150.6953  134.4323  159.5298 H   0  0  0  0  0  0  0  0  0  0  0  0  # atno 6909 bound_to 6896
  145.3497  139.2442  143.3565 H   0  0  0  0  0  0  0  0  0  0  0  0  # atno 7974 bound_to 7965
  155.6529  140.0714  157.2580 H   0  0  0  0  0  0  0  0  0  0  0  0  # atno 8008 bound_to 7997
  154.4158  140.1730  156.1744 H   0  0  0  0  0  0  0  0  0  0  0  0  # atno 8009 bound_to 7997
  155.9762  140.3358  155.6624 H   0  0  0  0  0  0  0  0  0  0  0  0  # atno 8010 bound_to 7997
  140.7180  143.3528  151.2120 H   0  0  0  0  0  0  0  0  0  0  0  0  # atno 10167 bound_to 10162
  156.8453  130.5535  149.5674 H   0  0  0  0  0  0  0  0  0  0  0  0  # atno 10718 bound_to 10713
  154.8711  135.3719  154.4813 H   0  0  0  0  0  0  0  0  0  0  0  0  # atno 10763 bound_to 10752
  153.5467  135.7025  153.5616 H   0  0  0  0  0  0  0  0  0  0  0  0  # atno 10764 bound_to 10752
  153.3753  135.4010  155.1782 H   0  0  0  0  0  0  0  0  0  0  0  0  # atno 10765 bound_to 10752
  140.3288  134.7375  157.4119 H   0  0  0  0  0  0  0  0  0  0  0  0  # atno 11005 bound_to 11000
  146.2973  140.4110  142.8717 LP  0  0  0  0  0  0  0  0  0  0  0  0  # atno 17320 bound_to 7965
  144.8727  140.7295  143.6036 LP  0  0  0  0  0  0  0  0  0  0  0  0  # atno 17321 bound_to 7965
  139.7063  143.9449  152.2928 LP  0  0  0  0  0  0  0  0  0  0  0  0  # atno 17342 bound_to 10162
  139.9159  144.6828  150.8512 LP  0  0  0  0  0  0  0  0  0  0  0  0  # atno 17343 bound_to 10162
  156.0858  130.5857  150.9645 LP  0  0  0  0  0  0  0  0  0  0  0  0  # atno 17370 bound_to 10713
  157.6333  131.0919  150.8398 LP  0  0  0  0  0  0  0  0  0  0  0  0  # atno 17371 bound_to 10713
  140.0878  134.5642  155.8474 LP  0  0  0  0  0  0  0  0  0  0  0  0  # atno 17394 bound_to 11000
  141.2068  133.6659  156.6268 LP  0  0  0  0  0  0  0  0  0  0  0  0  # atno 17395 bound_to 11000

$$$$
