AV-unprocessed.smi:197|AV-procd|sdf|1551|dock2
  -GOLD-   2262019413D 1   1.00000     0.00000
 Structure written by MMmdl.
 54 57  0  0  0  0  0  0  0  0  1 V2000
  151.8000  144.1227  157.9932 C   0  0  0  0  0  0  0  0  0  0  0  0
  151.2473  143.0227  157.2866 O   0  0  0  0  0  0  0  0  0  0  0  0
  151.9197  141.7903  157.5065 C   0  0  0  0  0  0  0  0  0  0  0  0
  151.4351  140.6945  156.5391 C   0  0  0  0  0  0  0  0  0  0  0  0
  149.8934  140.5980  156.4285 C   0  0  1  0  0  0  0  0  0  0  0  0
  149.3024  141.5530  155.3681 C   0  0  0  0  0  0  0  0  0  0  0  0
  149.6717  141.1246  154.0608 O   0  0  0  0  0  0  0  0  0  0  0  0
  149.1522  139.8345  153.7575 C   0  0  0  0  0  0  0  0  0  0  0  0
  149.7093  138.8024  154.7507 C   0  0  0  0  0  0  0  0  0  0  0  0
  149.4487  139.2341  156.1235 N   0  0  0  0  0  0  0  0  0  0  0  0
  149.5723  138.3156  157.1187 C   0  0  0  0  0  0  0  0  0  0  0  0
  150.7249  138.2570  157.8389 N   0  0  0  0  0  0  0  0  0  0  0  0
  150.8573  137.3791  158.8370 C   0  0  0  0  0  0  0  0  0  0  0  0
  149.9770  136.4796  159.2780 N   0  0  0  0  0  0  0  0  0  0  0  0
  148.8211  136.5244  158.5563 C   0  0  0  0  0  0  0  0  0  0  0  0
  148.5388  137.3991  157.4682 C   0  0  0  0  0  0  0  0  0  0  0  0
  147.2674  137.1343  156.9719 N   0  0  0  0  0  0  0  0  0  0  0  0
  146.8191  136.1730  157.7316 C   0  0  0  0  0  0  0  0  0  0  0  0
  147.6843  135.7513  158.7152 N   0  0  0  0  0  0  0  0  0  0  0  0
  147.4409  134.7060  159.6975 C   0  0  0  0  0  0  0  0  0  0  0  0
  146.8123  135.2338  161.0139 C   0  0  2  0  0  0  0  0  0  0  0  0
  145.5810  135.8571  160.6868 O   0  0  0  0  0  0  0  0  0  0  0  0
  147.6771  136.2598  161.7390 C   0  0  0  0  0  0  0  0  0  0  0  0
  147.2490  136.0999  163.1897 C   0  0  0  0  0  0  0  0  0  0  0  0
  147.0982  134.6968  163.3142 O   0  0  0  0  0  0  0  0  0  0  0  0
  146.5243  134.1763  162.1168 C   0  0  2  0  0  0  0  0  0  0  0  0
  147.1165  132.7748  161.8996 C   0  0  0  0  0  0  0  0  0  0  0  0
  151.1911  145.0087  157.8149 H   0  0  0  0  0  0  0  0  0  0  0  0
  152.8145  144.3508  157.6673 H   0  0  0  0  0  0  0  0  0  0  0  0
  151.8108  143.9370  159.0679 H   0  0  0  0  0  0  0  0  0  0  0  0
  153.0009  141.9228  157.4425 H   0  0  0  0  0  0  0  0  0  0  0  0
  151.7051  141.4959  158.5329 H   0  0  0  0  0  0  0  0  0  0  0  0
  151.8752  140.8587  155.5550 H   0  0  0  0  0  0  0  0  0  0  0  0
  151.8210  139.7359  156.8827 H   0  0  0  0  0  0  0  0  0  0  0  0
  149.4795  140.9005  157.3884 H   0  0  0  0  0  0  0  0  0  0  0  0
  148.2143  141.5813  155.4486 H   0  0  0  0  0  0  0  0  0  0  0  0
  149.6433  142.5761  155.5188 H   0  0  0  0  0  0  0  0  0  0  0  0
  148.0616  139.8543  153.7909 H   0  0  0  0  0  0  0  0  0  0  0  0
  149.4345  139.5665  152.7393 H   0  0  0  0  0  0  0  0  0  0  0  0
  149.2425  137.8342  154.5637 H   0  0  0  0  0  0  0  0  0  0  0  0
  150.7825  138.6785  154.6016 H   0  0  0  0  0  0  0  0  0  0  0  0
  151.8032  137.4028  159.3579 H   0  0  0  0  0  0  0  0  0  0  0  0
  145.8361  135.7448  157.5986 H   0  0  0  0  0  0  0  0  0  0  0  0
  146.7937  133.9562  159.2409 H   0  0  0  0  0  0  0  0  0  0  0  0
  148.3923  134.2124  159.8971 H   0  0  0  0  0  0  0  0  0  0  0  0
  144.9421  135.1827  160.5130 H   0  0  0  0  0  0  0  0  0  0  0  0
  148.7299  135.9890  161.6543 H   0  0  0  0  0  0  0  0  0  0  0  0
  147.5642  137.2783  161.3649 H   0  0  0  0  0  0  0  0  0  0  0  0
  147.9843  136.4896  163.8937 H   0  0  0  0  0  0  0  0  0  0  0  0
  146.2935  136.5922  163.3762 H   0  0  0  0  0  0  0  0  0  0  0  0
  145.4492  134.0740  162.2769 H   0  0  0  0  0  0  0  0  0  0  0  0
  146.7134  132.3052  161.0022 H   0  0  0  0  0  0  0  0  0  0  0  0
  146.8792  132.1237  162.7412 H   0  0  0  0  0  0  0  0  0  0  0  0
  148.2026  132.8086  161.8103 H   0  0  0  0  0  0  0  0  0  0  0  0
  1  2  1  0  0  0  0
  1 28  1  0  0  0  0
  1 29  1  0  0  0  0
  1 30  1  0  0  0  0
  2  3  1  0  0  0  0
  3  4  1  0  0  0  0
  3 31  1  0  0  0  0
  3 32  1  0  0  0  0
  4  5  1  0  0  0  0
  4 33  1  0  0  0  0
  4 34  1  0  0  0  0
  5 10  1  0  0  0  0
  5  6  1  0  0  0  0
  5 35  1  0  0  0  0
  6  7  1  0  0  0  0
  6 36  1  0  0  0  0
  6 37  1  0  0  0  0
  7  8  1  0  0  0  0
  8  9  1  0  0  0  0
  8 38  1  0  0  0  0
  8 39  1  0  0  0  0
  9 10  1  0  0  0  0
  9 40  1  0  0  0  0
  9 41  1  0  0  0  0
 10 11  1  0  0  0  0
 11 16  1  0  0  0  0
 11 12  2  0  0  0  0
 12 13  1  0  0  0  0
 13 14  2  0  0  0  0
 13 42  1  0  0  0  0
 14 15  1  0  0  0  0
 15 19  1  0  0  0  0
 15 16  2  0  0  0  0
 16 17  1  0  0  0  0
 17 18  2  0  0  0  0
 18 19  1  0  0  0  0
 18 43  1  0  0  0  0
 19 20  1  0  0  0  0
 20 21  1  0  0  0  0
 20 44  1  0  0  0  0
 20 45  1  0  0  0  0
 21 26  1  0  0  0  0
 21 22  1  0  0  0  0
 21 23  1  0  0  0  0
 22 46  1  0  0  0  0
 23 24  1  0  0  0  0
 23 47  1  0  0  0  0
 23 48  1  0  0  0  0
 24 25  1  0  0  0  0
 24 49  1  0  0  0  0
 24 50  1  0  0  0  0
 25 26  1  0  0  0  0
 26 27  1  0  0  0  0
 26 51  1  0  0  0  0
 27 52  1  0  0  0  0
 27 53  1  0  0  0  0
 27 54  1  0  0  0  0
M  END
> <s_m_source_file>
AV-unprocessed.smi

> <i_m_source_file_index>
197

> <i_lp_mmshare_version>
43012

> <i_f3d_flags>
0

> <s_epik_input>
W0NIM11PW0NIMl1bQ0gyXVtDQEBIXTFbQ0gyXU9bQ0gyXVtDSDJdTjFjKG5bY0hdbjIpYyhjMjMpbltjSF1uM1tDSDJdW0NAQF00KFtPSF0pW0NIMl1bQ0gyXU9bQ0BIXTRbQ0gzXQ==

> <s_epik_cmdline>
J2VwaWtfcHl0aG9uJywgJy1waCcsICc3LjAnLCAnLXRuJywgJzgnLCAnLW1hJywgJzIwMCcsICctbWV0YWxfYmluZGluZycsICctaW1hZScsICc8aW5maWxlLm1hZT4nLCAnLW9tYWUnLCAnPG91dGZpbGUubWFlPic=

> <r_lp_tautomer_probability>
1

> <r_epik_Ionization_Penalty>
0.000106218

> <r_epik_Ionization_Penalty_Charging>
0

> <r_epik_Ionization_Penalty_Neutral>
0.000106218

> <r_epik_State_Penalty>
-0

> <r_epik_Charging_Adjusted_Penalty>
0

> <i_epik_Tot_Q>
0

> <i_epik_Tot_abs_Q>
0

> <r_epik_Metal_State_Penalty>
-0

> <b_epik_Metal_Only>
0

> <s_lp_Force_Field>
OPLS_2005

> <r_lp_Energy>
41.9523

> <b_lp_Chiralities_Consistent>
1

> <s_lp_Variant>
AV-unprocessed.smi:197-8

> <Gold.Version>
5.8.1

> <Gold.Id.Protein>
6NUR|6NUR_protein|mol2

> <Gold.PLP.Fitness>
42.3592

> <Gold.PLP.PLP>
-39.1306

> <Gold.PLP.part.hbond>
-4.5717

> <Gold.PLP.part.metal>
0.0000

> <Gold.PLP.part.buried>
-2.2345

> <Gold.PLP.part.nonpolar>
-32.9919

> <Gold.PLP.part.repulsive>
0.4451

> <Gold.PLP.ligand.clash>
0.0000

> <Gold.PLP.ligand.torsion>
1.2840

> <Gold.PLP.Chemscore.Hbond>
1.7558

> <Gold.PLP.Chemscore.CHOScore>
0.0000

> <Gold.PLP.Chemscore.Metal>
0.0000

> <Gold.Chemscore.Hbonds>
donor molecule, donor type, donor heavy atom, donor atom, acceptor molecule, acceptor atom, score
      P1  H  6896  6908       L1    14  1.00
      P1  H  7989  7998       L1     7  0.40
      P1  H  8011  8017       L1     7  0.55

> <Gold.PLP.Chemscore.Internal.Correction>
0.5293

> <Gold.Rescore>
     Score         DG    S(hbond)    S(metal)    S(lipo)     H(rot)  DE(clash)    DE(int)     intcor
      9.35     -13.88       1.35        0.00      95.28       2.84       1.79       2.75       ----

> <Gold.Chemscore.Fitness>
9.3481

> <Gold.Chemscore.DG>
-13.8808

> <Gold.Chemscore.ZeroCoef>
-5.4800

> <Gold.Chemscore.Hbond>
1.3512

> <Gold.Chemscore.Metal>
0.0000

> <Gold.Chemscore.Lipo>
95.2771

> <Gold.Chemscore.Internal_Hbond>
0.0000

> <Gold.Chemscore.DEClash>
1.7866

> <Gold.Chemscore.DEInternal>
2.7462

> <Gold.Chemscore.Rot>
2.8358

> <Gold.Chemscore.Internal.Correction>
   9.000000E+99

> <Gold.Chemscore.Hbonds>
donor molecule, donor type, donor heavy atom, donor atom, acceptor molecule, acceptor atom, score
      P1  H  6896  6908       L1    14  0.79
      P1  H  7989  7998       L1     7  0.11
      P1  H  8011  8017       L1     7  0.47

> <Gold.Chemscore.Hbond.Weighted>
-4.5129

> <Gold.Chemscore.Metal.Weighted>
-0.0000

> <Gold.Chemscore.Lipo.Weighted>
-11.1474

> <Gold.Chemscore.Internal_Hbond.Weighted>
0.0000

> <Gold.Chemscore.DEClash.Weighted>
1.7866

> <Gold.Chemscore.DEInternal.Weighted>
2.7462

> <Gold.Chemscore.Rot.Weighted>
7.2596

> <Gold.Chemscore.Internal.Correction.Weighted>
   9.000000E+99

> <Gold.Protein.RotatedTorsions>
[ 6907 6896 6895 6894 ] final -179.72 input  -60.11 | X-H torsion
[ 7974 7965 7964 7962 ] final   41.49 input  175.53 | X-H torsion
[ 8008 7997 7996 7995 ] final -149.10 input   59.86 | X-H torsion
[ 10167 10162 10161 10158 ] final  -57.04 input  -65.29 | X-H torsion
[ 10718 10713 10712 10709 ] final   66.10 input   66.30 | X-H torsion
[ 10763 10752 10751 10750 ] final  -29.55 input  -60.55 | X-H torsion
[ 11005 11000 10999 10996 ] final    1.67 input  -57.11 | X-H torsion

> <Gold.Protein.ActiveResidues>
 VAL166  LYS551  ARG553  GLY616  TRP617  ASP618  TYR619  PRO620  LYS621  CYS622 
 ASP623  PHE694  ASN695  SER759  ASP760  ASP761  ALA762  ILE779  LEU786  VAL792 
 PHE793  MET794  SER795  GLU796  ALA797  LYS798  CYS799  TRP800  GLU811  SER814 

> <Gold.Protein.RotatedAtoms>
  151.6580  133.3318  159.3166 H   0  0  0  0  0  0  0  0  0  0  0  0  # atno 6907 bound_to 6896
  150.7928  134.6968  159.6537 H   0  0  0  0  0  0  0  0  0  0  0  0  # atno 6908 bound_to 6896
  152.4010  134.6290  160.0122 H   0  0  0  0  0  0  0  0  0  0  0  0  # atno 6909 bound_to 6896
  146.0819  139.5410  142.9531 H   0  0  0  0  0  0  0  0  0  0  0  0  # atno 7974 bound_to 7965
  155.6022  140.0663  157.2730 H   0  0  0  0  0  0  0  0  0  0  0  0  # atno 8008 bound_to 7997
  154.4276  140.1816  156.1232 H   0  0  0  0  0  0  0  0  0  0  0  0  # atno 8009 bound_to 7997
  156.0150  140.3322  155.6983 H   0  0  0  0  0  0  0  0  0  0  0  0  # atno 8010 bound_to 7997
  140.6282  143.2447  151.5310 H   0  0  0  0  0  0  0  0  0  0  0  0  # atno 10167 bound_to 10162
  157.6147  130.9249  150.0063 H   0  0  0  0  0  0  0  0  0  0  0  0  # atno 10718 bound_to 10713
  153.7664  135.6915  153.4915 H   0  0  0  0  0  0  0  0  0  0  0  0  # atno 10763 bound_to 10752
  153.1904  135.4473  155.0140 H   0  0  0  0  0  0  0  0  0  0  0  0  # atno 10764 bound_to 10752
  154.8134  135.3388  154.7176 H   0  0  0  0  0  0  0  0  0  0  0  0  # atno 10765 bound_to 10752
  140.6128  133.9733  155.8186 H   0  0  0  0  0  0  0  0  0  0  0  0  # atno 11005 bound_to 11000
  145.6202  141.0324  143.1919 LP  0  0  0  0  0  0  0  0  0  0  0  0  # atno 17320 bound_to 7965
  144.7299  139.7758  143.7351 LP  0  0  0  0  0  0  0  0  0  0  0  0  # atno 17321 bound_to 7965
  139.5499  144.2423  152.1511 LP  0  0  0  0  0  0  0  0  0  0  0  0  # atno 17342 bound_to 10162
  140.1659  144.4981  150.6606 LP  0  0  0  0  0  0  0  0  0  0  0  0  # atno 17343 bound_to 10162
  156.1265  130.3644  149.9802 LP  0  0  0  0  0  0  0  0  0  0  0  0  # atno 17370 bound_to 10713
  156.7871  130.9242  151.3646 LP  0  0  0  0  0  0  0  0  0  0  0  0  # atno 17371 bound_to 10713
  141.0796  134.0082  157.3406 LP  0  0  0  0  0  0  0  0  0  0  0  0  # atno 17394 bound_to 11000
  139.9185  135.0199  156.7974 LP  0  0  0  0  0  0  0  0  0  0  0  0  # atno 17395 bound_to 11000

$$$$
