AV-unprocessed.smi:3128|AV-procd|sdf|11918|dock5
  -GOLD-   2272017293D 1   1.00000     0.00000
 Structure written by MMmdl.
 40 40  0  0  0  0  0  0  0  0  2 V2000
  150.6774  140.7493  155.5199 C   0  0  0  0  0  0  0  0  0  0  0  0
  150.3400  139.2918  155.1577 C   0  0  0  0  0  0  0  0  0  0  0  0
  151.6128  138.5820  154.6569 C   0  0  0  0  0  0  0  0  0  0  0  0
  149.1666  139.1956  154.1398 C   0  0  2  0  0  0  0  0  0  0  0  0
  148.1358  140.3371  154.2609 C   0  0  0  0  0  0  0  0  0  0  0  0
  148.4939  137.8925  154.1701 N   0  0  0  0  0  0  0  0  0  0  0  0
  147.9087  137.2994  155.2247 C   0  0  0  0  0  0  0  0  0  0  0  0
  147.8491  137.8032  156.3465 O   0  0  0  0  0  0  0  0  0  0  0  0
  147.2881  135.9275  154.9607 C   0  0  0  0  0  0  0  0  0  0  0  0
  147.0545  135.6992  153.5212 N   0  3  0  0  0  0  0  0  0  0  0  0
  146.3048  134.4643  153.2161 C   0  0  0  0  0  0  0  0  0  0  0  0
  146.8142  133.7963  151.9288 C   0  0  0  0  0  0  0  0  0  0  0  0
  145.7361  133.2153  151.1486 N   0  0  0  0  0  0  0  0  0  0  0  0
  145.8212  132.3337  150.0916 C   0  0  0  0  0  0  0  0  0  0  0  0
  144.5458  132.0606  149.6872 C   0  0  0  0  0  0  0  0  0  0  0  0
  143.7382  132.8342  150.5668 C   0  0  0  0  0  0  0  0  0  0  0  0
  144.4538  133.5228  151.4416 N   0  0  0  0  0  0  0  0  0  0  0  0
  150.9373  141.3283  154.6331 H   0  0  0  0  0  0  0  0  0  0  0  0
  151.5245  140.7973  156.2048 H   0  0  0  0  0  0  0  0  0  0  0  0
  149.8444  141.2475  156.0150 H   0  0  0  0  0  0  0  0  0  0  0  0
  150.0379  138.7985  156.0819 H   0  0  0  0  0  0  0  0  0  0  0  0
  151.9537  139.0035  153.7108 H   0  0  0  0  0  0  0  0  0  0  0  0
  151.4533  137.5141  154.5087 H   0  0  0  0  0  0  0  0  0  0  0  0
  152.4261  138.6827  155.3761 H   0  0  0  0  0  0  0  0  0  0  0  0
  149.5966  139.2632  153.1397 H   0  0  0  0  0  0  0  0  0  0  0  0
  148.5734  141.3005  154.0012 H   0  0  0  0  0  0  0  0  0  0  0  0
  147.7373  140.4177  155.2724 H   0  0  0  0  0  0  0  0  0  0  0  0
  147.2960  140.1797  153.5834 H   0  0  0  0  0  0  0  0  0  0  0  0
  148.4785  137.3899  153.2944 H   0  0  0  0  0  0  0  0  0  0  0  0
  147.9545  135.1568  155.3497 H   0  0  0  0  0  0  0  0  0  0  0  0
  146.3411  135.8455  155.4965 H   0  0  0  0  0  0  0  0  0  0  0  0
  146.5333  136.4847  153.1571 H   0  0  0  0  0  0  0  0  0  0  0  0
  146.4086  133.7750  154.0548 H   0  0  0  0  0  0  0  0  0  0  0  0
  145.2425  134.6931  153.1200 H   0  0  0  0  0  0  0  0  0  0  0  0
  147.3595  134.5106  151.3097 H   0  0  0  0  0  0  0  0  0  0  0  0
  147.5175  133.0013  152.1802 H   0  0  0  0  0  0  0  0  0  0  0  0
  146.7704  131.9765  149.7198 H   0  0  0  0  0  0  0  0  0  0  0  0
  144.2362  131.4084  148.8839 H   0  0  0  0  0  0  0  0  0  0  0  0
  142.6614  132.9141  150.5967 H   0  0  0  0  0  0  0  0  0  0  0  0
  147.9477  135.6665  153.0506 H   0  0  0  0  0  0  0  0  0  0  0  0
  1  2  1  0  0  0  0
  1 18  1  0  0  0  0
  1 19  1  0  0  0  0
  1 20  1  0  0  0  0
  2  3  1  0  0  0  0
  2  4  1  0  0  0  0
  2 21  1  0  0  0  0
  3 22  1  0  0  0  0
  3 23  1  0  0  0  0
  3 24  1  0  0  0  0
  4  5  1  0  0  0  0
  4  6  1  0  0  0  0
  4 25  1  0  0  0  0
  5 26  1  0  0  0  0
  5 27  1  0  0  0  0
  5 28  1  0  0  0  0
  6  7  1  0  0  0  0
  6 29  1  0  0  0  0
  7  8  2  0  0  0  0
  7  9  1  0  0  0  0
  9 10  1  0  0  0  0
  9 30  1  0  0  0  0
  9 31  1  0  0  0  0
 10 11  1  0  0  0  0
 10 32  1  0  0  0  0
 10 40  1  0  0  0  0
 11 12  1  0  0  0  0
 11 33  1  0  0  0  0
 11 34  1  0  0  0  0
 12 13  1  0  0  0  0
 12 35  1  0  0  0  0
 12 36  1  0  0  0  0
 13 17  1  0  0  0  0
 13 14  1  0  0  0  0
 14 15  2  0  0  0  0
 14 37  1  0  0  0  0
 15 16  1  0  0  0  0
 15 38  1  0  0  0  0
 16 17  2  0  0  0  0
 16 39  1  0  0  0  0
M  CHG  1  10   1
M  END
> <s_m_source_file>
AV-unprocessed.smi

> <i_m_source_file_index>
3128

> <i_lp_mmshare_version>
43012

> <i_f3d_flags>
0

> <s_epik_input>
W0NIM11bQ0hdKFtDSDNdKVtDQEhdKFtDSDNdKVtOSF1DKD1PKVtDSDJdW05IXVtDSDJdW0NIMl1uMVtjSF1bY0hdW2NIXW4x

> <s_epik_cmdline>
J2VwaWtfcHl0aG9uJywgJy1waCcsICc3LjAnLCAnLXRuJywgJzgnLCAnLW1hJywgJzIwMCcsICctbWV0YWxfYmluZGluZycsICctaW1hZScsICc8aW5maWxlLm1hZT4nLCAnLW9tYWUnLCAnPG91dGZpbGUubWFlPic=

> <r_lp_tautomer_probability>
1

> <r_epik_Ionization_Penalty>
0.20724

> <r_epik_Ionization_Penalty_Charging>
0.207237

> <r_epik_Ionization_Penalty_Neutral>
3.20642e-06

> <r_epik_State_Penalty>
0.197613

> <r_epik_Charging_Adjusted_Penalty>
0.40485

> <i_epik_Tot_Q>
1

> <i_epik_Tot_abs_Q>
1

> <r_epik_Metal_State_Penalty>
0.197789

> <b_epik_Metal_Only>
0

> <s_lp_Force_Field>
OPLS_2005

> <r_lp_Energy>
3.68696

> <b_lp_Chiralities_Consistent>
1

> <s_lp_Variant>
AV-unprocessed.smi:3128-1

> <Gold.Version>
5.8.1

> <Gold.Id.Protein>
6NUR|6NUR_protein|mol2

> <Gold.PLP.Fitness>
41.7357

> <Gold.PLP.PLP>
-29.5505

> <Gold.PLP.part.hbond>
-1.9293

> <Gold.PLP.part.metal>
0.0000

> <Gold.PLP.part.buried>
-2.2415

> <Gold.PLP.part.nonpolar>
-25.7865

> <Gold.PLP.part.repulsive>
0.1287

> <Gold.PLP.ligand.clash>
0.0000

> <Gold.PLP.ligand.torsion>
1.5156

> <Gold.PLP.Chemscore.Hbond>
2.9840

> <Gold.PLP.Chemscore.CHOScore>
2.0000

> <Gold.PLP.Chemscore.Metal>
0.0000

> <Gold.Chemscore.Hbonds>
donor molecule, donor type, donor heavy atom, donor atom, acceptor molecule, acceptor atom, score
      L1  H     6    29       P1  7948  1.00
      L1  H    10    40       P1  7948  2.00
      L1  C    14    37       P1 10747  1.00
      L1  C    16    39       P1 10186  1.00

> <Gold.PLP.Chemscore.Internal.Correction>
0.2645

> <Gold.Rescore>
     Score         DG    S(hbond)    S(metal)    S(lipo)     H(rot)  DE(clash)    DE(int)     intcor
     13.62     -15.03       1.95        0.00      75.08       2.24       0.06       1.36       ----

> <Gold.Chemscore.Fitness>
13.6153

> <Gold.Chemscore.DG>
-15.0316

> <Gold.Chemscore.ZeroCoef>
-5.4800

> <Gold.Chemscore.Hbond>
1.9479

> <Gold.Chemscore.Metal>
0.0000

> <Gold.Chemscore.Lipo>
75.0774

> <Gold.Chemscore.Internal_Hbond>
0.0000

> <Gold.Chemscore.DEClash>
0.0582

> <Gold.Chemscore.DEInternal>
1.3580

> <Gold.Chemscore.Rot>
2.2416

> <Gold.Chemscore.Internal.Correction>
   9.000000E+99

> <Gold.Chemscore.Hbonds>
donor molecule, donor type, donor heavy atom, donor atom, acceptor molecule, acceptor atom, score
      L1  H     6    29       P1  7948  1.00
      L1  H    10    40       P1  7948  0.94

> <Gold.Chemscore.Hbond.Weighted>
-6.5060

> <Gold.Chemscore.Metal.Weighted>
-0.0000

> <Gold.Chemscore.Lipo.Weighted>
-8.7841

> <Gold.Chemscore.Internal_Hbond.Weighted>
0.0000

> <Gold.Chemscore.DEClash.Weighted>
0.0582

> <Gold.Chemscore.DEInternal.Weighted>
1.3580

> <Gold.Chemscore.Rot.Weighted>
5.7385

> <Gold.Chemscore.Internal.Correction.Weighted>
   9.000000E+99

> <Gold.Protein.RotatedTorsions>
[ 6907 6896 6895 6894 ] final -172.59 input  -60.11 | X-H torsion
[ 7974 7965 7964 7962 ] final   17.61 input  175.53 | X-H torsion
[ 8008 7997 7996 7995 ] final   18.33 input   59.86 | X-H torsion
[ 10167 10162 10161 10158 ] final  -77.03 input  -65.29 | X-H torsion
[ 10718 10713 10712 10709 ] final  -92.20 input   66.30 | X-H torsion
[ 10763 10752 10751 10750 ] final  -72.92 input  -60.55 | X-H torsion
[ 11005 11000 10999 10996 ] final   63.23 input  -57.11 | X-H torsion

> <Gold.Protein.ActiveResidues>
 VAL166  LYS551  ARG553  GLY616  TRP617  ASP618  TYR619  PRO620  LYS621  CYS622 
 ASP623  PHE694  ASN695  SER759  ASP760  ASP761  ALA762  ILE779  LEU786  VAL792 
 PHE793  MET794  SER795  GLU796  ALA797  LYS798  CYS799  TRP800  GLU811  SER814 

> <Gold.Protein.RotatedAtoms>
  151.5424  133.3430  159.2937 H   0  0  0  0  0  0  0  0  0  0  0  0  # atno 6907 bound_to 6896
  150.8527  134.7859  159.7032 H   0  0  0  0  0  0  0  0  0  0  0  0  # atno 6908 bound_to 6896
  152.4569  134.5280  159.9854 H   0  0  0  0  0  0  0  0  0  0  0  0  # atno 6909 bound_to 6896
  146.2213  139.8578  142.8610 H   0  0  0  0  0  0  0  0  0  0  0  0  # atno 7974 bound_to 7965
  154.9044  140.3005  155.5300 H   0  0  0  0  0  0  0  0  0  0  0  0  # atno 8008 bound_to 7997
  156.3017  140.2401  156.4011 H   0  0  0  0  0  0  0  0  0  0  0  0  # atno 8009 bound_to 7997
  154.8488  140.0410  157.1579 H   0  0  0  0  0  0  0  0  0  0  0  0  # atno 8010 bound_to 7997
  140.4805  143.2403  151.8065 H   0  0  0  0  0  0  0  0  0  0  0  0  # atno 10167 bound_to 10162
  156.0000  130.4978  150.5590 H   0  0  0  0  0  0  0  0  0  0  0  0  # atno 10718 bound_to 10713
  154.4523  135.5914  153.6200 H   0  0  0  0  0  0  0  0  0  0  0  0  # atno 10763 bound_to 10752
  152.9815  135.6024  154.3589 H   0  0  0  0  0  0  0  0  0  0  0  0  # atno 10764 bound_to 10752
  154.3451  135.2841  155.2380 H   0  0  0  0  0  0  0  0  0  0  0  0  # atno 10765 bound_to 10752
  140.0038  134.6400  155.9887 H   0  0  0  0  0  0  0  0  0  0  0  0  # atno 11005 bound_to 11000
  145.2735  141.0116  143.3758 LP  0  0  0  0  0  0  0  0  0  0  0  0  # atno 17320 bound_to 7965
  144.9205  139.4418  143.6543 LP  0  0  0  0  0  0  0  0  0  0  0  0  # atno 17321 bound_to 7965
  139.4833  144.4778  151.9345 LP  0  0  0  0  0  0  0  0  0  0  0  0  # atno 17342 bound_to 10162
  140.3864  144.2672  150.5903 LP  0  0  0  0  0  0  0  0  0  0  0  0  # atno 17343 bound_to 10162
  157.3502  131.0732  151.1719 LP  0  0  0  0  0  0  0  0  0  0  0  0  # atno 17370 bound_to 10713
  157.2539  130.6627  149.5943 LP  0  0  0  0  0  0  0  0  0  0  0  0  # atno 17371 bound_to 10713
  141.1662  133.6537  156.4488 LP  0  0  0  0  0  0  0  0  0  0  0  0  # atno 17394 bound_to 11000
  140.4678  134.6781  157.5115 LP  0  0  0  0  0  0  0  0  0  0  0  0  # atno 17395 bound_to 11000

$$$$
