AV-unprocessed.smi:994|AV-procd|sdf|4343|dock1
  -GOLD-   22720 2243D 1   1.00000     0.00000
 Structure written by MMmdl.
 37 38  0  0  0  0  0  0  0  0  2 V2000
  152.9059  139.7036  157.4729 O   0  0  0  0  0  0  0  0  0  0  0  0
  151.8838  139.9671  158.1078 C   0  0  0  0  0  0  0  0  0  0  0  0
  150.9281  139.0640  158.3803 N   0  0  0  0  0  0  0  0  0  0  0  0
  150.9166  137.6629  157.9595 C   0  0  2  0  0  0  0  0  0  0  0  0
  151.2576  137.5183  156.4595 C   0  0  0  0  0  0  0  0  0  0  0  0
  150.4898  138.4321  155.5363 C   0  0  0  0  0  0  0  0  0  0  0  0
  150.3026  138.3187  154.1739 C   0  0  0  0  0  0  0  0  0  0  0  0
  149.5564  139.4191  153.7917 N   0  0  0  0  0  0  0  0  0  0  0  0
  149.3241  140.1349  154.8925 C   0  0  0  0  0  0  0  0  0  0  0  0
  149.8533  139.5969  155.9830 N   0  0  0  0  0  0  0  0  0  0  0  0
  149.5825  137.0162  158.3435 C   0  0  0  0  0  0  0  0  0  0  0  0
  148.5526  137.4485  157.7793 O   0  0  0  0  0  0  0  0  0  0  0  0
  149.6115  136.1024  159.1970 O   0  5  0  0  0  0  0  0  0  0  0  0
  151.6388  141.3930  158.6168 C   0  0  0  0  0  0  0  0  0  0  0  0
  151.4600  142.3690  157.4339 C   0  0  0  0  0  0  0  0  0  0  0  0
  151.2346  143.8086  157.9234 C   0  0  0  0  0  0  0  0  0  0  0  0
  152.3766  144.2690  158.8431 C   0  0  0  0  0  0  0  0  0  0  0  0
  152.5633  143.3020  160.0229 C   0  0  0  0  0  0  0  0  0  0  0  0
  152.7898  141.8625  159.5321 C   0  0  0  0  0  0  0  0  0  0  0  0
  149.2527  139.6433  152.8549 H   0  0  0  0  0  0  0  0  0  0  0  0
  150.1301  139.3691  158.9184 H   0  0  0  0  0  0  0  0  0  0  0  0
  151.6862  137.1273  158.5193 H   0  0  0  0  0  0  0  0  0  0  0  0
  152.3184  137.7270  156.3145 H   0  0  0  0  0  0  0  0  0  0  0  0
  151.1063  136.4886  156.1324 H   0  0  0  0  0  0  0  0  0  0  0  0
  150.6403  137.5736  153.4688 H   0  0  0  0  0  0  0  0  0  0  0  0
  148.7634  141.0580  154.8964 H   0  0  0  0  0  0  0  0  0  0  0  0
  150.7170  141.3957  159.2019 H   0  0  0  0  0  0  0  0  0  0  0  0
  152.3395  142.3438  156.7882 H   0  0  0  0  0  0  0  0  0  0  0  0
  150.6163  142.0579  156.8160 H   0  0  0  0  0  0  0  0  0  0  0  0
  151.1495  144.4821  157.0702 H   0  0  0  0  0  0  0  0  0  0  0  0
  150.2867  143.8674  158.4597 H   0  0  0  0  0  0  0  0  0  0  0  0
  153.3034  144.3308  158.2712 H   0  0  0  0  0  0  0  0  0  0  0  0
  152.1740  145.2742  159.2138 H   0  0  0  0  0  0  0  0  0  0  0  0
  153.4057  143.6223  160.6365 H   0  0  0  0  0  0  0  0  0  0  0  0
  151.6826  143.3346  160.6655 H   0  0  0  0  0  0  0  0  0  0  0  0
  152.8821  141.1953  160.3902 H   0  0  0  0  0  0  0  0  0  0  0  0
  153.7405  141.8119  158.9987 H   0  0  0  0  0  0  0  0  0  0  0  0
  1  2  2  0  0  0  0
  2  3  1  0  0  0  0
  2 14  1  0  0  0  0
  3  4  1  0  0  0  0
  3 21  1  0  0  0  0
  4  5  1  0  0  0  0
  4 11  1  0  0  0  0
  4 22  1  0  0  0  0
  5  6  1  0  0  0  0
  5 23  1  0  0  0  0
  5 24  1  0  0  0  0
  6 10  1  0  0  0  0
  6  7  2  0  0  0  0
  7  8  1  0  0  0  0
  7 25  1  0  0  0  0
  8 20  1  0  0  0  0
  8  9  1  0  0  0  0
  9 10  2  0  0  0  0
  9 26  1  0  0  0  0
 11 12  2  0  0  0  0
 11 13  1  0  0  0  0
 14 19  1  0  0  0  0
 14 15  1  0  0  0  0
 14 27  1  0  0  0  0
 15 16  1  0  0  0  0
 15 28  1  0  0  0  0
 15 29  1  0  0  0  0
 16 17  1  0  0  0  0
 16 30  1  0  0  0  0
 16 31  1  0  0  0  0
 17 18  1  0  0  0  0
 17 32  1  0  0  0  0
 17 33  1  0  0  0  0
 18 19  1  0  0  0  0
 18 34  1  0  0  0  0
 18 35  1  0  0  0  0
 19 36  1  0  0  0  0
 19 37  1  0  0  0  0
M  CHG  1  13  -1
M  END
> <s_m_source_file>
AV-unprocessed.smi

> <i_m_source_file_index>
994

> <i_lp_mmshare_version>
43012

> <i_f3d_flags>
0

> <s_epik_input>
W0NIMl0xW0NIMl1bQ0gyXVtDSDJdW0NIMl1bQ0hdMUMoPU8pW05IXVtDQEBIXShDKD1PKVtPSF0pW0NIMl1jMltjSF1bbkhdW2NIXW4y

> <s_epik_cmdline>
J2VwaWtfcHl0aG9uJywgJy1waCcsICc3LjAnLCAnLXRuJywgJzgnLCAnLW1hJywgJzIwMCcsICctbWV0YWxfYmluZGluZycsICctaW1hZScsICc8aW5maWxlLm1hZT4nLCAnLW9tYWUnLCAnPG91dGZpbGUubWFlPic=

> <r_lp_tautomer_probability>
0.5

> <r_epik_Ionization_Penalty>
0.836077

> <r_epik_Ionization_Penalty_Charging>
0.836077

> <r_epik_Ionization_Penalty_Neutral>
7.85059e-08

> <r_epik_State_Penalty>
0.938582

> <r_epik_Charging_Adjusted_Penalty>
1.77466

> <i_epik_Tot_Q>
-1

> <i_epik_Tot_abs_Q>
1

> <r_epik_Metal_State_Penalty>
0.523638

> <b_epik_Metal_Only>
0

> <s_lp_Force_Field>
OPLS_2005

> <r_lp_Energy>
9.63069

> <b_lp_Chiralities_Consistent>
1

> <s_lp_Variant>
AV-unprocessed.smi:994-5

> <Gold.Version>
5.8.1

> <Gold.Id.Protein>
6NUR|6NUR_protein|mol2

> <Gold.PLP.Fitness>
47.8231

> <Gold.PLP.PLP>
-33.4018

> <Gold.PLP.part.hbond>
-3.0000

> <Gold.PLP.part.metal>
0.0000

> <Gold.PLP.part.buried>
-5.7514

> <Gold.PLP.part.nonpolar>
-25.7446

> <Gold.PLP.part.repulsive>
0.2580

> <Gold.PLP.ligand.clash>
0.0000

> <Gold.PLP.ligand.torsion>
0.5101

> <Gold.PLP.Chemscore.Hbond>
4.0000

> <Gold.PLP.Chemscore.CHOScore>
1.0816

> <Gold.PLP.Chemscore.Metal>
0.0000

> <Gold.Chemscore.Hbonds>
donor molecule, donor type, donor heavy atom, donor atom, acceptor molecule, acceptor atom, score
      L1  H     8    20       P1  7957  1.00
      P1  H  6896  6907       L1    13  2.00
      P1  H  7997  8008       L1     1  1.00
      L1  C     7    25       P1  7948  0.38
      L1  C     7    25       P1  7949  0.60

> <Gold.PLP.Chemscore.Internal.Correction>
0.1966

> <Gold.Rescore>
     Score         DG    S(hbond)    S(metal)    S(lipo)     H(rot)  DE(clash)    DE(int)     intcor
     14.61     -18.65       2.98        0.00      85.64       2.66       0.10       3.94       ----

> <Gold.Chemscore.Fitness>
14.6116

> <Gold.Chemscore.DG>
-18.6537

> <Gold.Chemscore.ZeroCoef>
-5.4800

> <Gold.Chemscore.Hbond>
2.9815

> <Gold.Chemscore.Metal>
0.0000

> <Gold.Chemscore.Lipo>
85.6427

> <Gold.Chemscore.Internal_Hbond>
0.0000

> <Gold.Chemscore.DEClash>
0.1036

> <Gold.Chemscore.DEInternal>
3.9385

> <Gold.Chemscore.Rot>
2.6581

> <Gold.Chemscore.Internal.Correction>
   9.000000E+99

> <Gold.Chemscore.Hbonds>
donor molecule, donor type, donor heavy atom, donor atom, acceptor molecule, acceptor atom, score
      L1  H     8    20       P1  7957  0.95
      P1  H  6896  6907       L1    13  0.98
      P1  H  7997  8008       L1     1  1.00

> <Gold.Chemscore.Hbond.Weighted>
-9.9583

> <Gold.Chemscore.Metal.Weighted>
-0.0000

> <Gold.Chemscore.Lipo.Weighted>
-10.0202

> <Gold.Chemscore.Internal_Hbond.Weighted>
0.0000

> <Gold.Chemscore.DEClash.Weighted>
0.1036

> <Gold.Chemscore.DEInternal.Weighted>
3.9385

> <Gold.Chemscore.Rot.Weighted>
6.8048

> <Gold.Chemscore.Internal.Correction.Weighted>
   9.000000E+99

> <Gold.Protein.RotatedTorsions>
[ 6907 6896 6895 6894 ] final  -69.36 input  -60.11 | X-H torsion
[ 7974 7965 7964 7962 ] final   35.36 input  175.53 | X-H torsion
[ 8008 7997 7996 7995 ] final  -73.40 input   59.86 | X-H torsion
[ 10167 10162 10161 10158 ] final  168.95 input  -65.29 | X-H torsion
[ 10718 10713 10712 10709 ] final  -88.83 input   66.30 | X-H torsion
[ 10763 10752 10751 10750 ] final  161.28 input  -60.55 | X-H torsion
[ 11005 11000 10999 10996 ] final  146.18 input  -57.11 | X-H torsion

> <Gold.Protein.ActiveResidues>
 VAL166  LYS551  ARG553  GLY616  TRP617  ASP618  TYR619  PRO620  LYS621  CYS622 
 ASP623  PHE694  ASN695  SER759  ASP760  ASP761  ALA762  ILE779  LEU786  VAL792 
 PHE793  MET794  SER795  GLU796  ALA797  LYS798  CYS799  TRP800  GLU811  SER814 

> <Gold.Protein.RotatedAtoms>
  150.7309  134.5608  159.5841 H   0  0  0  0  0  0  0  0  0  0  0  0  # atno 6907 bound_to 6896
  152.3072  134.7538  160.0354 H   0  0  0  0  0  0  0  0  0  0  0  0  # atno 6908 bound_to 6896
  151.8098  133.3345  159.3588 H   0  0  0  0  0  0  0  0  0  0  0  0  # atno 6909 bound_to 6896
  146.1288  139.6152  142.9240 H   0  0  0  0  0  0  0  0  0  0  0  0  # atno 7974 bound_to 7965
  154.5245  140.0780  156.8232 H   0  0  0  0  0  0  0  0  0  0  0  0  # atno 8008 bound_to 7997
  155.3506  140.3412  155.4221 H   0  0  0  0  0  0  0  0  0  0  0  0  # atno 8009 bound_to 7997
  156.1716  140.1622  156.8423 H   0  0  0  0  0  0  0  0  0  0  0  0  # atno 8010 bound_to 7997
  139.4980  144.3759  151.9675 H   0  0  0  0  0  0  0  0  0  0  0  0  # atno 10167 bound_to 10162
  155.9983  130.4850  150.5079 H   0  0  0  0  0  0  0  0  0  0  0  0  # atno 10718 bound_to 10713
  154.2604  135.2768  155.2780 H   0  0  0  0  0  0  0  0  0  0  0  0  # atno 10763 bound_to 10752
  154.5388  135.5708  153.6825 H   0  0  0  0  0  0  0  0  0  0  0  0  # atno 10764 bound_to 10752
  152.9963  135.6246  154.2755 H   0  0  0  0  0  0  0  0  0  0  0  0  # atno 10765 bound_to 10752
  140.0772  134.9118  157.1442 H   0  0  0  0  0  0  0  0  0  0  0  0  # atno 11005 bound_to 11000
  145.5306  141.0427  143.2385 LP  0  0  0  0  0  0  0  0  0  0  0  0  # atno 17320 bound_to 7965
  144.7669  139.6824  143.7211 LP  0  0  0  0  0  0  0  0  0  0  0  0  # atno 17321 bound_to 7965
  140.3195  144.3444  150.6013 LP  0  0  0  0  0  0  0  0  0  0  0  0  # atno 17342 bound_to 10162
  140.5734  143.2178  151.7558 LP  0  0  0  0  0  0  0  0  0  0  0  0  # atno 17343 bound_to 10162
  157.3055  131.0653  151.2038 LP  0  0  0  0  0  0  0  0  0  0  0  0  # atno 17370 bound_to 10713
  157.3002  130.6839  149.6160 LP  0  0  0  0  0  0  0  0  0  0  0  0  # atno 17371 bound_to 10713
  140.3540  134.2567  155.7195 LP  0  0  0  0  0  0  0  0  0  0  0  0  # atno 17394 bound_to 11000
  141.2034  133.7914  157.0343 LP  0  0  0  0  0  0  0  0  0  0  0  0  # atno 17395 bound_to 11000

$$$$
