AV-unprocessed.smi:500|AV-procd|sdf|2738|dock1
  -GOLD-   2262023193D 1   1.00000     0.00000
 Structure written by MMmdl.
 44 46  0  0  0  0  0  0  0  0  2 V2000
  150.2051  138.4289  154.2335 C   0  0  0  0  0  0  0  0  0  0  0  0
  149.8647  139.7454  154.9355 C   0  0  0  0  0  0  0  0  0  0  0  0
  151.0573  140.5003  155.0932 O   0  0  0  0  0  0  0  0  0  0  0  0
  151.0518  141.3508  156.2306 C   0  0  0  0  0  0  0  0  0  0  0  0
  150.6824  140.5772  157.5084 C   0  0  0  0  0  0  0  0  0  0  0  0
  151.4585  141.0367  158.6616 N   0  0  0  0  0  0  0  0  0  0  0  0
  152.2513  140.3391  159.5339 C   0  0  0  0  0  0  0  0  0  0  0  0
  152.4936  138.8390  159.4613 C   0  0  2  0  0  0  0  0  0  0  0  0
  151.1699  138.0729  159.3305 C   0  0  0  0  0  0  0  0  0  0  0  0
  153.2297  138.3246  160.6194 N   0  5  0  0  0  0  0  0  0  0  0  0
  153.4574  137.0021  160.8589 C   0  0  0  0  0  0  0  0  0  0  0  0
  153.4869  136.0520  160.0693 O   0  0  0  0  0  0  0  0  0  0  0  0
  153.7032  136.7228  162.2935 C   0  0  0  0  0  0  0  0  0  0  0  0
  153.6358  137.5591  163.3764 C   0  0  0  0  0  0  0  0  0  0  0  0
  153.9641  136.7797  164.5202 C   0  0  0  0  0  0  0  0  0  0  0  0
  154.2110  135.5198  164.0569 C   0  0  0  0  0  0  0  0  0  0  0  0
  154.0573  135.4667  162.7065 O   0  0  0  0  0  0  0  0  0  0  0  0
  152.8105  141.0768  160.4998 N   0  0  0  0  0  0  0  0  0  0  0  0
  152.3699  142.3532  160.2229 C   0  0  0  0  0  0  0  0  0  0  0  0
  152.6287  143.5757  160.8830 C   0  0  0  0  0  0  0  0  0  0  0  0
  152.0594  144.7761  160.4110 C   0  0  0  0  0  0  0  0  0  0  0  0
  151.2247  144.7700  159.2750 C   0  0  0  0  0  0  0  0  0  0  0  0
  150.9537  143.5617  158.6045 C   0  0  0  0  0  0  0  0  0  0  0  0
  151.5246  142.3647  159.0799 C   0  0  0  0  0  0  0  0  0  0  0  0
  149.3126  137.8179  154.0968 H   0  0  0  0  0  0  0  0  0  0  0  0
  150.9220  137.8494  154.8155 H   0  0  0  0  0  0  0  0  0  0  0  0
  150.6400  138.6115  153.2505 H   0  0  0  0  0  0  0  0  0  0  0  0
  149.1291  140.2942  154.3476 H   0  0  0  0  0  0  0  0  0  0  0  0
  149.4189  139.5405  155.9099 H   0  0  0  0  0  0  0  0  0  0  0  0
  152.0082  141.8637  156.3334 H   0  0  0  0  0  0  0  0  0  0  0  0
  150.3056  142.1268  156.0582 H   0  0  0  0  0  0  0  0  0  0  0  0
  149.6230  140.7170  157.7241 H   0  0  0  0  0  0  0  0  0  0  0  0
  150.8094  139.5025  157.3865 H   0  0  0  0  0  0  0  0  0  0  0  0
  153.0568  138.6383  158.5496 H   0  0  0  0  0  0  0  0  0  0  0  0
  150.6182  138.3995  158.4487 H   0  0  0  0  0  0  0  0  0  0  0  0
  150.5295  138.2312  160.1992 H   0  0  0  0  0  0  0  0  0  0  0  0
  151.3407  137.0003  159.2324 H   0  0  0  0  0  0  0  0  0  0  0  0
  153.3792  138.6078  163.3471 H   0  0  0  0  0  0  0  0  0  0  0  0
  154.0129  137.1004  165.5501 H   0  0  0  0  0  0  0  0  0  0  0  0
  154.4936  134.5887  164.5253 H   0  0  0  0  0  0  0  0  0  0  0  0
  153.2683  143.5878  161.7529 H   0  0  0  0  0  0  0  0  0  0  0  0
  152.2654  145.7050  160.9222 H   0  0  0  0  0  0  0  0  0  0  0  0
  150.7929  145.6936  158.9181 H   0  0  0  0  0  0  0  0  0  0  0  0
  150.3153  143.5561  157.7337 H   0  0  0  0  0  0  0  0  0  0  0  0
  1  2  1  0  0  0  0
  1 25  1  0  0  0  0
  1 26  1  0  0  0  0
  1 27  1  0  0  0  0
  2  3  1  0  0  0  0
  2 28  1  0  0  0  0
  2 29  1  0  0  0  0
  3  4  1  0  0  0  0
  4  5  1  0  0  0  0
  4 30  1  0  0  0  0
  4 31  1  0  0  0  0
  5  6  1  0  0  0  0
  5 32  1  0  0  0  0
  5 33  1  0  0  0  0
  6 24  1  0  0  0  0
  6  7  1  0  0  0  0
  7  8  1  0  0  0  0
  7 18  2  0  0  0  0
  8  9  1  0  0  0  0
  8 10  1  0  0  0  0
  8 34  1  0  0  0  0
  9 35  1  0  0  0  0
  9 36  1  0  0  0  0
  9 37  1  0  0  0  0
 10 11  1  0  0  0  0
 11 12  2  0  0  0  0
 11 13  1  0  0  0  0
 13 17  1  0  0  0  0
 13 14  2  0  0  0  0
 14 15  1  0  0  0  0
 14 38  1  0  0  0  0
 15 16  2  0  0  0  0
 15 39  1  0  0  0  0
 16 17  1  0  0  0  0
 16 40  1  0  0  0  0
 18 19  1  0  0  0  0
 19 24  2  0  0  0  0
 19 20  1  0  0  0  0
 20 21  2  0  0  0  0
 20 41  1  0  0  0  0
 21 22  1  0  0  0  0
 21 42  1  0  0  0  0
 22 23  2  0  0  0  0
 22 43  1  0  0  0  0
 23 24  1  0  0  0  0
 23 44  1  0  0  0  0
M  CHG  1  10  -1
M  END
> <s_m_source_file>
AV-unprocessed.smi

> <i_m_source_file_index>
500

> <i_lp_mmshare_version>
43012

> <i_f3d_flags>
0

> <s_epik_input>
W0NIM11bQ0gyXU9bQ0gyXVtDSDJdbihjKGMxMilbY0hdW2NIXVtjSF1bY0hdMiljKG4xKVtDQEhdKFtDSDNdKVtOSF1DKD1PKWMzW2NIXVtjSF1bY0hdbzM=

> <s_epik_cmdline>
J2VwaWtfcHl0aG9uJywgJy1waCcsICc3LjAnLCAnLXRuJywgJzgnLCAnLW1hJywgJzIwMCcsICctbWV0YWxfYmluZGluZycsICctaW1hZScsICc8aW5maWxlLm1hZT4nLCAnLW9tYWUnLCAnPG91dGZpbGUubWFlPic=

> <r_epik_Ionization_Penalty>
7.31223

> <r_epik_Ionization_Penalty_Charging>
6.43826

> <r_epik_Ionization_Penalty_Neutral>
0.873973

> <r_epik_State_Penalty>
6.5378

> <r_epik_Charging_Adjusted_Penalty>
12.9761

> <i_epik_Tot_Q>
-1

> <i_epik_Tot_abs_Q>
1

> <r_epik_Metal_State_Penalty>
2.55818

> <b_epik_Metal_Only>
1

> <s_lp_Force_Field>
OPLS_2005

> <r_lp_Energy>
15.486

> <b_lp_Chiralities_Consistent>
1

> <s_lp_Variant>
AV-unprocessed.smi:500-5

> <Gold.Version>
5.8.1

> <Gold.Id.Protein>
6NUR|6NUR_protein|mol2

> <Gold.PLP.Fitness>
56.5630

> <Gold.PLP.PLP>
-51.9986

> <Gold.PLP.part.hbond>
-1.9901

> <Gold.PLP.part.metal>
0.0000

> <Gold.PLP.part.buried>
-7.4946

> <Gold.PLP.part.nonpolar>
-41.7011

> <Gold.PLP.part.repulsive>
0.0565

> <Gold.PLP.ligand.clash>
0.0000

> <Gold.PLP.ligand.torsion>
0.8486

> <Gold.PLP.Chemscore.Hbond>
1.9920

> <Gold.PLP.Chemscore.CHOScore>
0.0000

> <Gold.PLP.Chemscore.Metal>
0.0000

> <Gold.Chemscore.Hbonds>
donor molecule, donor type, donor heavy atom, donor atom, acceptor molecule, acceptor atom, score
      P1  H  6896  6909       L1    12  1.00
      P1  H  7989  7998       L1     3  0.99

> <Gold.PLP.Chemscore.Internal.Correction>
0.2856

> <Gold.Rescore>
     Score         DG    S(hbond)    S(metal)    S(lipo)     H(rot)  DE(clash)    DE(int)     intcor
     21.88     -22.92       1.90        0.00     135.13       1.84       0.03       1.01       ----

> <Gold.Chemscore.Fitness>
21.8839

> <Gold.Chemscore.DG>
-22.9245

> <Gold.Chemscore.ZeroCoef>
-5.4800

> <Gold.Chemscore.Hbond>
1.8982

> <Gold.Chemscore.Metal>
0.0000

> <Gold.Chemscore.Lipo>
135.1313

> <Gold.Chemscore.Internal_Hbond>
0.0000

> <Gold.Chemscore.DEClash>
0.0303

> <Gold.Chemscore.DEInternal>
1.0103

> <Gold.Chemscore.Rot>
1.8382

> <Gold.Chemscore.Internal.Correction>
   9.000000E+99

> <Gold.Chemscore.Hbonds>
donor molecule, donor type, donor heavy atom, donor atom, acceptor molecule, acceptor atom, score
      P1  H  6896  6909       L1    12  1.00
      P1  H  7989  7998       L1     3  0.57

> <Gold.Chemscore.Hbond.Weighted>
-6.3400

> <Gold.Chemscore.Metal.Weighted>
-0.0000

> <Gold.Chemscore.Lipo.Weighted>
-15.8104

> <Gold.Chemscore.Internal_Hbond.Weighted>
0.0000

> <Gold.Chemscore.DEClash.Weighted>
0.0303

> <Gold.Chemscore.DEInternal.Weighted>
1.0103

> <Gold.Chemscore.Rot.Weighted>
4.7059

> <Gold.Chemscore.Internal.Correction.Weighted>
   9.000000E+99

> <Gold.Protein.RotatedTorsions>
[ 6907 6896 6895 6894 ] final  174.39 input  -60.11 | X-H torsion
[ 7974 7965 7964 7962 ] final  -80.12 input  175.53 | X-H torsion
[ 8008 7997 7996 7995 ] final    0.65 input   59.86 | X-H torsion
[ 10167 10162 10161 10158 ] final  -88.39 input  -65.29 | X-H torsion
[ 10718 10713 10712 10709 ] final  -97.80 input   66.30 | X-H torsion
[ 10763 10752 10751 10750 ] final -175.10 input  -60.55 | X-H torsion
[ 11005 11000 10999 10996 ] final  -81.30 input  -57.11 | X-H torsion

> <Gold.Protein.ActiveResidues>
 VAL166  LYS551  ARG553  GLY616  TRP617  ASP618  TYR619  PRO620  LYS621  CYS622 
 ASP623  PHE694  ASN695  SER759  ASP760  ASP761  ALA762  ILE779  LEU786  VAL792 
 PHE793  MET794  SER795  GLU796  ALA797  LYS798  CYS799  TRP800  GLU811  SER814 

> <Gold.Protein.RotatedAtoms>
  151.7531  133.3328  159.3396 H   0  0  0  0  0  0  0  0  0  0  0  0  # atno 6907 bound_to 6896
  150.7527  134.6174  159.6127 H   0  0  0  0  0  0  0  0  0  0  0  0  # atno 6908 bound_to 6896
  152.3455  134.7079  160.0303 H   0  0  0  0  0  0  0  0  0  0  0  0  # atno 6909 bound_to 6896
  145.5641  140.9477  143.1431 H   0  0  0  0  0  0  0  0  0  0  0  0  # atno 7974 bound_to 7965
  154.6706  140.2611  155.7011 H   0  0  0  0  0  0  0  0  0  0  0  0  # atno 8008 bound_to 7997
  156.2657  140.2830  156.1136 H   0  0  0  0  0  0  0  0  0  0  0  0  # atno 8009 bound_to 7997
  155.1174  140.0376  157.2731 H   0  0  0  0  0  0  0  0  0  0  0  0  # atno 8010 bound_to 7997
  140.3751  143.2775  151.9452 H   0  0  0  0  0  0  0  0  0  0  0  0  # atno 10167 bound_to 10162
  156.0092  130.5210  150.6428 H   0  0  0  0  0  0  0  0  0  0  0  0  # atno 10718 bound_to 10713
  154.5884  135.2842  155.0661 H   0  0  0  0  0  0  0  0  0  0  0  0  # atno 10763 bound_to 10752
  154.1971  135.6431  153.5080 H   0  0  0  0  0  0  0  0  0  0  0  0  # atno 10764 bound_to 10752
  153.0112  135.5460  154.6561 H   0  0  0  0  0  0  0  0  0  0  0  0  # atno 10765 bound_to 10752
  141.1667  133.7190  156.8402 H   0  0  0  0  0  0  0  0  0  0  0  0  # atno 11005 bound_to 11000
  144.7469  139.7297  143.7289 LP  0  0  0  0  0  0  0  0  0  0  0  0  # atno 17320 bound_to 7965
  146.1830  139.5032  142.9854 LP  0  0  0  0  0  0  0  0  0  0  0  0  # atno 17321 bound_to 7965
  139.4800  144.5870  151.7836 LP  0  0  0  0  0  0  0  0  0  0  0  0  # atno 17342 bound_to 10162
  140.4994  144.1192  150.5967 LP  0  0  0  0  0  0  0  0  0  0  0  0  # atno 17343 bound_to 10162
  157.4205  131.0836  151.1135 LP  0  0  0  0  0  0  0  0  0  0  0  0  # atno 17370 bound_to 10713
  157.1739  130.6279  149.5649 LP  0  0  0  0  0  0  0  0  0  0  0  0  # atno 17371 bound_to 10713
  140.1989  134.8912  157.3146 LP  0  0  0  0  0  0  0  0  0  0  0  0  # atno 17394 bound_to 11000
  140.2209  134.4024  155.7566 LP  0  0  0  0  0  0  0  0  0  0  0  0  # atno 17395 bound_to 11000

$$$$
