AV-unprocessed.smi:2526|AV-procd|sdf|9939|dock5
  -GOLD-   2272013583D 1   1.00000     0.00000
 Structure written by MMmdl.
 28 29  0  0  0  0  0  0  0  0  1 V2000
  152.5528  143.5986  160.6842 C   0  0  0  0  0  0  0  0  0  0  0  0
  152.0146  143.4967  159.3447 N   0  0  0  0  0  0  0  0  0  0  0  0
  151.6756  142.3642  158.6376 C   0  0  0  0  0  0  0  0  0  0  0  0
  151.2030  142.7623  157.4162 C   0  0  0  0  0  0  0  0  0  0  0  0
  150.6919  141.9275  156.2574 C   0  0  1  0  0  0  0  0  0  0  0  0
  151.7046  140.9568  155.8332 N   0  0  0  0  0  0  0  0  0  0  0  0
  151.7626  139.6554  156.1746 C   0  0  0  0  0  0  0  0  0  0  0  0
  152.7205  138.9537  155.8591 O   0  0  0  0  0  0  0  0  0  0  0  0
  150.5820  139.0217  156.9308 C   0  0  0  0  0  0  0  0  0  0  0  0
  149.5981  140.0383  157.5370 C   0  0  0  0  0  0  0  0  0  0  0  0
  149.3583  141.2055  156.5713 C   0  0  1  0  0  0  0  0  0  0  0  0
  148.3447  142.1070  157.0892 N   0  0  0  0  0  0  0  0  0  0  0  0
  151.3041  144.1825  157.4808 C   0  0  0  0  0  0  0  0  0  0  0  0
  151.7882  144.6181  158.6322 N   0  0  0  0  0  0  0  0  0  0  0  0
  152.6496  142.6060  161.1248 H   0  0  0  0  0  0  0  0  0  0  0  0
  151.8864  144.1979  161.3053 H   0  0  0  0  0  0  0  0  0  0  0  0
  153.5355  144.0700  160.6526 H   0  0  0  0  0  0  0  0  0  0  0  0
  151.7923  141.3765  159.0590 H   0  0  0  0  0  0  0  0  0  0  0  0
  150.5209  142.5779  155.3989 H   0  0  0  0  0  0  0  0  0  0  0  0
  152.4771  141.3261  155.2977 H   0  0  0  0  0  0  0  0  0  0  0  0
  150.0491  138.3900  156.2194 H   0  0  0  0  0  0  0  0  0  0  0  0
  150.9606  138.3588  157.7091 H   0  0  0  0  0  0  0  0  0  0  0  0
  148.6565  139.5369  157.7639 H   0  0  0  0  0  0  0  0  0  0  0  0
  149.9851  140.4049  158.4889 H   0  0  0  0  0  0  0  0  0  0  0  0
  148.9635  140.7946  155.6410 H   0  0  0  0  0  0  0  0  0  0  0  0
  148.4946  143.0361  156.7226 H   0  0  0  0  0  0  0  0  0  0  0  0
  147.4322  141.8135  156.7708 H   0  0  0  0  0  0  0  0  0  0  0  0
  151.0374  144.9069  156.7254 H   0  0  0  0  0  0  0  0  0  0  0  0
  1  2  1  0  0  0  0
  1 15  1  0  0  0  0
  1 16  1  0  0  0  0
  1 17  1  0  0  0  0
  2 14  1  0  0  0  0
  2  3  1  0  0  0  0
  3  4  2  0  0  0  0
  3 18  1  0  0  0  0
  4  5  1  0  0  0  0
  4 13  1  0  0  0  0
  5 11  1  0  0  0  0
  5  6  1  0  0  0  0
  5 19  1  0  0  0  0
  6  7  1  0  0  0  0
  6 20  1  0  0  0  0
  7  8  2  0  0  0  0
  7  9  1  0  0  0  0
  9 10  1  0  0  0  0
  9 21  1  0  0  0  0
  9 22  1  0  0  0  0
 10 11  1  0  0  0  0
 10 23  1  0  0  0  0
 10 24  1  0  0  0  0
 11 12  1  0  0  0  0
 11 25  1  0  0  0  0
 12 26  1  0  0  0  0
 12 27  1  0  0  0  0
 13 14  2  0  0  0  0
 13 28  1  0  0  0  0
M  END
> <s_m_source_file>
AV-unprocessed.smi

> <i_m_source_file_index>
2526

> <i_lp_mmshare_version>
43012

> <i_f3d_flags>
0

> <s_epik_input>
W0NIM11uMVtjSF1jKFtjSF1uMSlbQ0BASF0yW05IXUMoPU8pW0NIMl1bQ0gyXVtDQEhdMltOSDJd

> <s_epik_cmdline>
J2VwaWtfcHl0aG9uJywgJy1waCcsICc3LjAnLCAnLXRuJywgJzgnLCAnLW1hJywgJzIwMCcsICctbWV0YWxfYmluZGluZycsICctaW1hZScsICc8aW5maWxlLm1hZT4nLCAnLW9tYWUnLCAnPG91dGZpbGUubWFlPic=

> <r_lp_tautomer_probability>
1

> <r_epik_Ionization_Penalty>
2.50279

> <r_epik_Ionization_Penalty_Charging>
0

> <r_epik_Ionization_Penalty_Neutral>
2.50279

> <r_epik_State_Penalty>
2.66754

> <r_epik_Charging_Adjusted_Penalty>
2.66754

> <i_epik_Tot_Q>
0

> <i_epik_Tot_abs_Q>
0

> <r_epik_Metal_State_Penalty>
2.66721

> <b_epik_Metal_Only>
0

> <s_lp_Force_Field>
OPLS_2005

> <r_lp_Energy>
9.07018

> <b_lp_Chiralities_Consistent>
1

> <s_lp_Variant>
AV-unprocessed.smi:2526-6

> <Gold.Version>
5.8.1

> <Gold.Id.Protein>
6NUR|6NUR_protein|mol2

> <Gold.PLP.Fitness>
32.4529

> <Gold.PLP.PLP>
-24.2605

> <Gold.PLP.part.hbond>
-2.0000

> <Gold.PLP.part.metal>
0.0000

> <Gold.PLP.part.buried>
-1.5455

> <Gold.PLP.part.nonpolar>
-21.3341

> <Gold.PLP.part.repulsive>
0.2479

> <Gold.PLP.ligand.clash>
0.0000

> <Gold.PLP.ligand.torsion>
0.0696

> <Gold.PLP.Chemscore.Hbond>
2.0000

> <Gold.PLP.Chemscore.CHOScore>
0.7712

> <Gold.PLP.Chemscore.Metal>
0.0000

> <Gold.Chemscore.Hbonds>
donor molecule, donor type, donor heavy atom, donor atom, acceptor molecule, acceptor atom, score
      L1  H    12    26       P1  8028  1.00
      P1  H  7997  8008       L1     8  0.98
      L1  C    13    28       P1  8028  0.80

> <Gold.PLP.Chemscore.Internal.Correction>
0.0179

> <Gold.Rescore>
     Score         DG    S(hbond)    S(metal)    S(lipo)     H(rot)  DE(clash)    DE(int)     intcor
     14.17     -15.70       1.59        0.00      63.79       1.00       1.45       0.08       ----

> <Gold.Chemscore.Fitness>
14.1735

> <Gold.Chemscore.DG>
-15.7048

> <Gold.Chemscore.ZeroCoef>
-5.4800

> <Gold.Chemscore.Hbond>
1.5932

> <Gold.Chemscore.Metal>
0.0000

> <Gold.Chemscore.Lipo>
63.7899

> <Gold.Chemscore.Internal_Hbond>
0.0000

> <Gold.Chemscore.DEClash>
1.4484

> <Gold.Chemscore.DEInternal>
0.0829

> <Gold.Chemscore.Rot>
1.0000

> <Gold.Chemscore.Internal.Correction>
   9.000000E+99

> <Gold.Chemscore.Hbonds>
donor molecule, donor type, donor heavy atom, donor atom, acceptor molecule, acceptor atom, score
      L1  H    12    26       P1  8028  0.62
      P1  H  7997  8008       L1     8  0.41

> <Gold.Chemscore.Hbond.Weighted>
-5.3214

> <Gold.Chemscore.Metal.Weighted>
-0.0000

> <Gold.Chemscore.Lipo.Weighted>
-7.4634

> <Gold.Chemscore.Internal_Hbond.Weighted>
0.0000

> <Gold.Chemscore.DEClash.Weighted>
1.4484

> <Gold.Chemscore.DEInternal.Weighted>
0.0829

> <Gold.Chemscore.Rot.Weighted>
2.5600

> <Gold.Chemscore.Internal.Correction.Weighted>
   9.000000E+99

> <Gold.Protein.RotatedTorsions>
[ 6907 6896 6895 6894 ] final   68.73 input  -60.11 | X-H torsion
[ 7974 7965 7964 7962 ] final   76.24 input  175.53 | X-H torsion
[ 8008 7997 7996 7995 ] final  -36.92 input   59.86 | X-H torsion
[ 10167 10162 10161 10158 ] final  117.56 input  -65.29 | X-H torsion
[ 10718 10713 10712 10709 ] final  -81.50 input   66.30 | X-H torsion
[ 10763 10752 10751 10750 ] final -100.70 input  -60.55 | X-H torsion
[ 11005 11000 10999 10996 ] final  -96.88 input  -57.11 | X-H torsion

> <Gold.Protein.ActiveResidues>
 VAL166  LYS551  ARG553  GLY616  TRP617  ASP618  TYR619  PRO620  LYS621  CYS622 
 ASP623  PHE694  ASN695  SER759  ASP760  ASP761  ALA762  ILE779  LEU786  VAL792 
 PHE793  MET794  SER795  GLU796  ALA797  LYS798  CYS799  TRP800  GLU811  SER814 

> <Gold.Protein.RotatedAtoms>
  152.4640  134.5119  159.9756 H   0  0  0  0  0  0  0  0  0  0  0  0  # atno 6907 bound_to 6896
  151.5161  133.3469  159.2901 H   0  0  0  0  0  0  0  0  0  0  0  0  # atno 6908 bound_to 6896
  150.8615  134.7997  159.7149 H   0  0  0  0  0  0  0  0  0  0  0  0  # atno 6909 bound_to 6896
  145.7054  139.2596  143.1681 H   0  0  0  0  0  0  0  0  0  0  0  0  # atno 7974 bound_to 7965
  154.4063  140.1618  156.2453 H   0  0  0  0  0  0  0  0  0  0  0  0  # atno 8008 bound_to 7997
  155.9166  140.3424  155.6117 H   0  0  0  0  0  0  0  0  0  0  0  0  # atno 8009 bound_to 7997
  155.7272  140.0776  157.2295 H   0  0  0  0  0  0  0  0  0  0  0  0  # atno 8010 bound_to 7997
  139.6170  144.7094  151.2717 H   0  0  0  0  0  0  0  0  0  0  0  0  # atno 10167 bound_to 10162
  156.0049  130.4606  150.3962 H   0  0  0  0  0  0  0  0  0  0  0  0  # atno 10718 bound_to 10713
  154.7600  135.4925  153.9447 H   0  0  0  0  0  0  0  0  0  0  0  0  # atno 10763 bound_to 10752
  153.1240  135.6738  153.9295 H   0  0  0  0  0  0  0  0  0  0  0  0  # atno 10764 bound_to 10752
  153.9018  135.3109  155.3427 H   0  0  0  0  0  0  0  0  0  0  0  0  # atno 10765 bound_to 10752
  141.1397  133.8129  157.0630 H   0  0  0  0  0  0  0  0  0  0  0  0  # atno 11005 bound_to 11000
  146.0760  140.7816  142.9665 LP  0  0  0  0  0  0  0  0  0  0  0  0  # atno 17320 bound_to 7965
  144.6957  140.3416  143.7198 LP  0  0  0  0  0  0  0  0  0  0  0  0  # atno 17321 bound_to 7965
  140.7357  143.6728  150.8067 LP  0  0  0  0  0  0  0  0  0  0  0  0  # atno 17342 bound_to 10162
  140.0332  143.5422  152.2751 LP  0  0  0  0  0  0  0  0  0  0  0  0  # atno 17343 bound_to 10162
  157.2034  131.0443  151.2638 LP  0  0  0  0  0  0  0  0  0  0  0  0  # atno 17370 bound_to 10713
  157.3955  130.7305  149.6728 LP  0  0  0  0  0  0  0  0  0  0  0  0  # atno 17371 bound_to 10713
  140.0559  134.9781  157.1219 LP  0  0  0  0  0  0  0  0  0  0  0  0  # atno 17394 bound_to 11000
  140.3920  134.2174  155.7166 LP  0  0  0  0  0  0  0  0  0  0  0  0  # atno 17395 bound_to 11000

$$$$
