AV-unprocessed.smi:1994|AV-procd|sdf|8074|dock9
  -GOLD-   2272010283D 1   1.00000     0.00000
 Structure written by MMmdl.
 40 42  0  0  0  0  0  0  0  0  2 V2000
  148.5368  140.7977  155.5737 C   0  0  0  0  0  0  0  0  0  0  0  0
  149.5814  141.0888  156.5984 C   0  0  0  0  0  0  0  0  0  0  0  0
  150.0744  142.3190  156.9148 N   0  3  0  0  0  0  0  0  0  0  0  0
  151.0397  142.1978  157.9155 C   0  0  0  0  0  0  0  0  0  0  0  0
  151.8125  143.1615  158.5558 C   0  0  0  0  0  0  0  0  0  0  0  0
  152.7106  142.7009  159.5407 C   0  0  0  0  0  0  0  0  0  0  0  0
  152.8131  141.3307  159.8571 C   0  0  0  0  0  0  0  0  0  0  0  0
  152.0233  140.3627  159.2019 C   0  0  0  0  0  0  0  0  0  0  0  0
  151.1399  140.8256  158.2264 C   0  0  0  0  0  0  0  0  0  0  0  0
  150.2212  140.1804  157.3890 N   0  0  0  0  0  0  0  0  0  0  0  0
  150.0708  138.7176  157.4522 C   0  0  0  0  0  0  0  0  0  0  0  0
  149.8325  138.2040  158.8859 C   0  0  2  0  0  0  0  0  0  0  0  0
  150.8812  137.3378  159.2701 O   0  0  0  0  0  0  0  0  0  0  0  0
  148.5004  137.4534  159.0267 C   0  0  0  0  0  0  0  0  0  0  0  0
  148.1823  137.3428  160.4077 O   0  0  0  0  0  0  0  0  0  0  0  0
  147.6527  136.1551  160.8654 C   0  0  0  0  0  0  0  0  0  0  0  0
  147.5204  134.9857  160.0739 C   0  0  0  0  0  0  0  0  0  0  0  0
  146.9686  133.8116  160.6226 C   0  0  0  0  0  0  0  0  0  0  0  0
  146.5432  133.7901  161.9636 C   0  0  0  0  0  0  0  0  0  0  0  0
  146.6693  134.9457  162.7561 C   0  0  0  0  0  0  0  0  0  0  0  0
  147.2211  136.1203  162.2088 C   0  0  0  0  0  0  0  0  0  0  0  0
  147.3368  137.2264  162.9823 F   0  0  0  0  0  0  0  0  0  0  0  0
  148.1811  141.7207  155.1149 H   0  0  0  0  0  0  0  0  0  0  0  0
  147.6886  140.2901  156.0329 H   0  0  0  0  0  0  0  0  0  0  0  0
  148.9454  140.1568  154.7922 H   0  0  0  0  0  0  0  0  0  0  0  0
  151.7343  144.2119  158.3159 H   0  0  0  0  0  0  0  0  0  0  0  0
  153.3325  143.4127  160.0645 H   0  0  0  0  0  0  0  0  0  0  0  0
  153.5117  141.0152  160.6187 H   0  0  0  0  0  0  0  0  0  0  0  0
  152.1082  139.3168  159.4573 H   0  0  0  0  0  0  0  0  0  0  0  0
  149.2230  138.4562  156.8180 H   0  0  0  0  0  0  0  0  0  0  0  0
  150.9409  138.2418  157.0000 H   0  0  0  0  0  0  0  0  0  0  0  0
  149.8355  139.0451  159.5803 H   0  0  0  0  0  0  0  0  0  0  0  0
  151.6447  137.8601  159.4628 H   0  0  0  0  0  0  0  0  0  0  0  0
  147.7119  137.9811  158.4868 H   0  0  0  0  0  0  0  0  0  0  0  0
  148.5968  136.4545  158.5974 H   0  0  0  0  0  0  0  0  0  0  0  0
  147.8359  134.9624  159.0419 H   0  0  0  0  0  0  0  0  0  0  0  0
  146.8722  132.9253  160.0129 H   0  0  0  0  0  0  0  0  0  0  0  0
  146.1211  132.8892  162.3834 H   0  0  0  0  0  0  0  0  0  0  0  0
  146.3430  134.9320  163.7857 H   0  0  0  0  0  0  0  0  0  0  0  0
  149.7714  143.1788  156.4753 H   0  0  0  0  0  0  0  0  0  0  0  0
  1  2  1  0  0  0  0
  1 23  1  0  0  0  0
  1 24  1  0  0  0  0
  1 25  1  0  0  0  0
  2 10  1  0  0  0  0
  2  3  2  0  0  0  0
  3  4  1  0  0  0  0
  3 40  1  0  0  0  0
  4  9  2  0  0  0  0
  4  5  1  0  0  0  0
  5  6  2  0  0  0  0
  5 26  1  0  0  0  0
  6  7  1  0  0  0  0
  6 27  1  0  0  0  0
  7  8  2  0  0  0  0
  7 28  1  0  0  0  0
  8  9  1  0  0  0  0
  8 29  1  0  0  0  0
  9 10  1  0  0  0  0
 10 11  1  0  0  0  0
 11 12  1  0  0  0  0
 11 30  1  0  0  0  0
 11 31  1  0  0  0  0
 12 13  1  0  0  0  0
 12 14  1  0  0  0  0
 12 32  1  0  0  0  0
 13 33  1  0  0  0  0
 14 15  1  0  0  0  0
 14 34  1  0  0  0  0
 14 35  1  0  0  0  0
 15 16  1  0  0  0  0
 16 21  1  0  0  0  0
 16 17  2  0  0  0  0
 17 18  1  0  0  0  0
 17 36  1  0  0  0  0
 18 19  2  0  0  0  0
 18 37  1  0  0  0  0
 19 20  1  0  0  0  0
 19 38  1  0  0  0  0
 20 21  2  0  0  0  0
 20 39  1  0  0  0  0
 21 22  1  0  0  0  0
M  CHG  1   3   1
M  END
> <s_m_source_file>
AV-unprocessed.smi

> <i_m_source_file_index>
1994

> <i_lp_mmshare_version>
43012

> <i_f3d_flags>
0

> <s_epik_input>
W2NIXTFbY0hdW2NIXVtjSF1jKGMxMiluKGMobjIpW0NIM10pW0NIMl1bQ0BIXShbT0hdKVtDSDJdT2MzW2NIXVtjSF1bY0hdW2NIXWMzRg==

> <s_epik_cmdline>
J2VwaWtfcHl0aG9uJywgJy1waCcsICc3LjAnLCAnLXRuJywgJzgnLCAnLW1hJywgJzIwMCcsICctbWV0YWxfYmluZGluZycsICctaW1hZScsICc8aW5maWxlLm1hZT4nLCAnLW9tYWUnLCAnPG91dGZpbGUubWFlPic=

> <r_lp_tautomer_probability>
1

> <r_epik_Ionization_Penalty>
1.03916

> <r_epik_Ionization_Penalty_Charging>
1.03916

> <r_epik_Ionization_Penalty_Neutral>
2.3993e-06

> <r_epik_State_Penalty>
1.09101

> <r_epik_Charging_Adjusted_Penalty>
2.13018

> <i_epik_Tot_Q>
1

> <i_epik_Tot_abs_Q>
1

> <r_epik_Metal_State_Penalty>
5.08156

> <b_epik_Metal_Only>
0

> <s_lp_Force_Field>
OPLS_2005

> <r_lp_Energy>
18.7982

> <b_lp_Chiralities_Consistent>
1

> <s_lp_Variant>
AV-unprocessed.smi:1994-3

> <Gold.Version>
5.8.1

> <Gold.Id.Protein>
6NUR|6NUR_protein|mol2

> <Gold.PLP.Fitness>
54.7229

> <Gold.PLP.PLP>
-47.1576

> <Gold.PLP.part.hbond>
-3.3114

> <Gold.PLP.part.metal>
0.0000

> <Gold.PLP.part.buried>
-4.2931

> <Gold.PLP.part.nonpolar>
-39.7579

> <Gold.PLP.part.repulsive>
0.0205

> <Gold.PLP.ligand.clash>
0.0000

> <Gold.PLP.ligand.torsion>
1.2481

> <Gold.PLP.Chemscore.Hbond>
3.3448

> <Gold.PLP.Chemscore.CHOScore>
0.0000

> <Gold.PLP.Chemscore.Metal>
0.0000

> <Gold.Chemscore.Hbonds>
donor molecule, donor type, donor heavy atom, donor atom, acceptor molecule, acceptor atom, score
      L1  H     3    40       P1  8028  2.00
      P1  H  6896  6907       L1    13  0.28
      P1  H  6931  6943       L1    15  0.66
      P1  H  6934  6947       L1    15  0.64

> <Gold.PLP.Chemscore.Internal.Correction>
0.0270

> <Gold.Rescore>
     Score         DG    S(hbond)    S(metal)    S(lipo)     H(rot)  DE(clash)    DE(int)     intcor
     18.74     -20.41       2.32        0.00     111.12       2.27       0.51       1.16       ----

> <Gold.Chemscore.Fitness>
18.7398

> <Gold.Chemscore.DG>
-20.4102

> <Gold.Chemscore.ZeroCoef>
-5.4800

> <Gold.Chemscore.Hbond>
2.3179

> <Gold.Chemscore.Metal>
0.0000

> <Gold.Chemscore.Lipo>
111.1232

> <Gold.Chemscore.Internal_Hbond>
0.0000

> <Gold.Chemscore.DEClash>
0.5142

> <Gold.Chemscore.DEInternal>
1.1561

> <Gold.Chemscore.Rot>
2.2706

> <Gold.Chemscore.Internal.Correction>
   9.000000E+99

> <Gold.Chemscore.Hbonds>
donor molecule, donor type, donor heavy atom, donor atom, acceptor molecule, acceptor atom, score
      L1  H     3    40       P1  8028  0.99
      P1  H  6896  6907       L1    13  0.18
      P1  H  6931  6943       L1    15  0.46
      P1  H  6934  6947       L1    15  0.35

> <Gold.Chemscore.Hbond.Weighted>
-7.7416

> <Gold.Chemscore.Metal.Weighted>
-0.0000

> <Gold.Chemscore.Lipo.Weighted>
-13.0014

> <Gold.Chemscore.Internal_Hbond.Weighted>
0.0000

> <Gold.Chemscore.DEClash.Weighted>
0.5142

> <Gold.Chemscore.DEInternal.Weighted>
1.1561

> <Gold.Chemscore.Rot.Weighted>
5.8128

> <Gold.Chemscore.Internal.Correction.Weighted>
   9.000000E+99

> <Gold.Protein.RotatedTorsions>
[ 6907 6896 6895 6894 ] final  -15.50 input  -60.11 | X-H torsion
[ 7974 7965 7964 7962 ] final  124.77 input  175.53 | X-H torsion
[ 8008 7997 7996 7995 ] final  -29.11 input   59.86 | X-H torsion
[ 10167 10162 10161 10158 ] final  -57.76 input  -65.29 | X-H torsion
[ 10718 10713 10712 10709 ] final -144.22 input   66.30 | X-H torsion
[ 10763 10752 10751 10750 ] final  -76.20 input  -60.55 | X-H torsion
[ 11005 11000 10999 10996 ] final -107.30 input  -57.11 | X-H torsion

> <Gold.Protein.ActiveResidues>
 VAL166  LYS551  ARG553  GLY616  TRP617  ASP618  TYR619  PRO620  LYS621  CYS622 
 ASP623  PHE694  ASN695  SER759  ASP760  ASP761  ALA762  ILE779  LEU786  VAL792 
 PHE793  MET794  SER795  GLU796  ALA797  LYS798  CYS799  TRP800  GLU811  SER814 

> <Gold.Protein.RotatedAtoms>
  151.3230  135.0823  159.9311 H   0  0  0  0  0  0  0  0  0  0  0  0  # atno 6907 bound_to 6896
  152.5252  133.9620  159.7732 H   0  0  0  0  0  0  0  0  0  0  0  0  # atno 6908 bound_to 6896
  150.9944  133.6065  159.2733 H   0  0  0  0  0  0  0  0  0  0  0  0  # atno 6909 bound_to 6896
  145.0806  139.3660  143.4911 H   0  0  0  0  0  0  0  0  0  0  0  0  # atno 7974 bound_to 7965
  154.4303  140.1827  156.1196 H   0  0  0  0  0  0  0  0  0  0  0  0  # atno 8008 bound_to 7997
  156.0153  140.3346  155.6957 H   0  0  0  0  0  0  0  0  0  0  0  0  # atno 8009 bound_to 7997
  155.6053  140.0644  157.2712 H   0  0  0  0  0  0  0  0  0  0  0  0  # atno 8010 bound_to 7997
  140.6239  143.2430  151.5413 H   0  0  0  0  0  0  0  0  0  0  0  0  # atno 10167 bound_to 10162
  156.3675  130.7770  151.1947 H   0  0  0  0  0  0  0  0  0  0  0  0  # atno 10718 bound_to 10713
  154.4967  135.5805  153.6500 H   0  0  0  0  0  0  0  0  0  0  0  0  # atno 10763 bound_to 10752
  152.9871  135.6126  154.3055 H   0  0  0  0  0  0  0  0  0  0  0  0  # atno 10764 bound_to 10752
  154.2959  135.2847  155.2612 H   0  0  0  0  0  0  0  0  0  0  0  0  # atno 10765 bound_to 10752
  141.0961  133.8969  157.1959 H   0  0  0  0  0  0  0  0  0  0  0  0  # atno 11005 bound_to 11000
  146.3531  140.0594  142.8630 LP  0  0  0  0  0  0  0  0  0  0  0  0  # atno 17320 bound_to 7965
  145.1183  140.9447  143.4616 LP  0  0  0  0  0  0  0  0  0  0  0  0  # atno 17321 bound_to 7965
  139.5462  144.2514  152.1447 LP  0  0  0  0  0  0  0  0  0  0  0  0  # atno 17342 bound_to 10162
  140.1741  144.4908  150.6563 LP  0  0  0  0  0  0  0  0  0  0  0  0  # atno 17343 bound_to 10162
  157.7480  131.0382  150.4491 LP  0  0  0  0  0  0  0  0  0  0  0  0  # atno 17370 bound_to 10713
  156.4712  130.4053  149.6517 LP  0  0  0  0  0  0  0  0  0  0  0  0  # atno 17371 bound_to 10713
  139.9798  135.0102  156.9721 LP  0  0  0  0  0  0  0  0  0  0  0  0  # atno 17394 bound_to 11000
  140.5137  134.0977  155.7276 LP  0  0  0  0  0  0  0  0  0  0  0  0  # atno 17395 bound_to 11000

$$$$
