AV-unprocessed.smi:625|AV-procd|sdf|3103|dock1
  -GOLD-   22720 0 23D 1   1.00000     0.00000
 Structure written by MMmdl.
 49 51  0  0  0  0  0  0  0  0  1 V2000
  152.0420  144.6636  158.0043 C   0  0  0  0  0  0  0  0  0  0  0  0
  152.5656  143.4452  158.6024 N   0  0  0  0  0  0  0  0  0  0  0  0
  152.4088  143.0986  159.8920 C   0  0  0  0  0  0  0  0  0  0  0  0
  151.7982  143.8176  160.6838 O   0  0  0  0  0  0  0  0  0  0  0  0
  153.0115  141.8103  160.2466 C   0  0  0  0  0  0  0  0  0  0  0  0
  153.7420  141.6849  161.4928 C   0  0  0  0  0  0  0  0  0  0  0  0
  154.2746  140.5039  161.8641 C   0  0  0  0  0  0  0  0  0  0  0  0
  154.1417  139.3023  161.0348 C   0  0  0  0  0  0  0  0  0  0  0  0
  154.6065  138.2163  161.3809 O   0  0  0  0  0  0  0  0  0  0  0  0
  153.4649  139.4668  159.8584 N   0  0  0  0  0  0  0  0  0  0  0  0
  153.2118  138.3375  158.9500 C   0  0  0  0  0  0  0  0  0  0  0  0
  151.7212  137.9821  158.9284 C   0  0  0  0  0  0  0  0  0  0  0  0
  151.2556  137.2096  159.7662 O   0  0  0  0  0  0  0  0  0  0  0  0
  150.9867  138.5779  157.9760 N   0  0  0  0  0  0  0  0  0  0  0  0
  149.5316  138.5200  157.8553 C   0  0  2  0  0  0  0  0  0  0  0  0
  149.1162  137.0506  157.6790 C   0  0  0  0  0  0  0  0  0  0  0  0
  149.0632  139.4113  156.6758 C   0  0  1  0  0  0  0  0  0  0  0  0
  149.5368  140.8810  156.7882 C   0  0  0  0  0  0  0  0  0  0  0  0
  150.2336  141.1354  155.4397 C   0  0  2  0  0  0  0  0  0  0  0  0
  149.1837  141.1707  154.3143 C   0  0  0  0  0  0  0  0  0  0  0  0
  148.7772  139.6915  154.1870 C   0  0  0  0  0  0  0  0  0  0  0  0
  149.6205  139.0121  155.2823 C   0  0  1  0  0  0  0  0  0  0  0  0
  150.9221  139.7998  155.1942 C   0  0  0  0  0  0  0  0  0  0  0  0
  152.9116  140.7055  159.4765 C   0  0  0  0  0  0  0  0  0  0  0  0
  152.3164  144.7065  156.9504 H   0  0  0  0  0  0  0  0  0  0  0  0
  152.4481  145.5464  158.4994 H   0  0  0  0  0  0  0  0  0  0  0  0
  150.9539  144.6930  158.0737 H   0  0  0  0  0  0  0  0  0  0  0  0
  153.0736  142.8168  157.9971 H   0  0  0  0  0  0  0  0  0  0  0  0
  153.8677  142.5401  162.1414 H   0  0  0  0  0  0  0  0  0  0  0  0
  154.8125  140.4385  162.7985 H   0  0  0  0  0  0  0  0  0  0  0  0
  153.5531  138.5969  157.9461 H   0  0  0  0  0  0  0  0  0  0  0  0
  153.7795  137.4475  159.2249 H   0  0  0  0  0  0  0  0  0  0  0  0
  151.4670  139.1823  157.3250 H   0  0  0  0  0  0  0  0  0  0  0  0
  149.0680  138.8843  158.7732 H   0  0  0  0  0  0  0  0  0  0  0  0
  148.0330  136.9426  157.6274 H   0  0  0  0  0  0  0  0  0  0  0  0
  149.4615  136.4440  158.5170 H   0  0  0  0  0  0  0  0  0  0  0  0
  149.5353  136.6251  156.7664 H   0  0  0  0  0  0  0  0  0  0  0  0
  147.9729  139.3789  156.6452 H   0  0  0  0  0  0  0  0  0  0  0  0
  148.7107  141.5705  156.9658 H   0  0  0  0  0  0  0  0  0  0  0  0
  150.2531  141.0098  157.6006 H   0  0  0  0  0  0  0  0  0  0  0  0
  150.8969  142.0005  155.4473 H   0  0  0  0  0  0  0  0  0  0  0  0
  148.3388  141.8158  154.5578 H   0  0  0  0  0  0  0  0  0  0  0  0
  149.6222  141.5289  153.3819 H   0  0  0  0  0  0  0  0  0  0  0  0
  147.7069  139.5364  154.3253 H   0  0  0  0  0  0  0  0  0  0  0  0
  149.0435  139.3069  153.2020 H   0  0  0  0  0  0  0  0  0  0  0  0
  149.7280  137.9416  155.1156 H   0  0  0  0  0  0  0  0  0  0  0  0
  151.4029  139.7341  154.2166 H   0  0  0  0  0  0  0  0  0  0  0  0
  151.6456  139.5335  155.9662 H   0  0  0  0  0  0  0  0  0  0  0  0
  152.3891  140.6702  158.5310 H   0  0  0  0  0  0  0  0  0  0  0  0
  1  2  1  0  0  0  0
  1 25  1  0  0  0  0
  1 26  1  0  0  0  0
  1 27  1  0  0  0  0
  2  3  1  0  0  0  0
  2 28  1  0  0  0  0
  3  4  2  0  0  0  0
  3  5  1  0  0  0  0
  5 24  2  0  0  0  0
  5  6  1  0  0  0  0
  6  7  2  0  0  0  0
  6 29  1  0  0  0  0
  7  8  1  0  0  0  0
  7 30  1  0  0  0  0
  8  9  2  0  0  0  0
  8 10  1  0  0  0  0
 10 11  1  0  0  0  0
 10 24  1  0  0  0  0
 11 12  1  0  0  0  0
 11 31  1  0  0  0  0
 11 32  1  0  0  0  0
 12 13  2  0  0  0  0
 12 14  1  0  0  0  0
 14 15  1  0  0  0  0
 14 33  1  0  0  0  0
 15 16  1  0  0  0  0
 15 17  1  0  0  0  0
 15 34  1  0  0  0  0
 16 35  1  0  0  0  0
 16 36  1  0  0  0  0
 16 37  1  0  0  0  0
 17 22  1  0  0  0  0
 17 18  1  0  0  0  0
 17 38  1  0  0  0  0
 18 19  1  0  0  0  0
 18 39  1  0  0  0  0
 18 40  1  0  0  0  0
 19 23  1  0  0  0  0
 19 20  1  0  0  0  0
 19 41  1  0  0  0  0
 20 21  1  0  0  0  0
 20 42  1  0  0  0  0
 20 43  1  0  0  0  0
 21 22  1  0  0  0  0
 21 44  1  0  0  0  0
 21 45  1  0  0  0  0
 22 23  1  0  0  0  0
 22 46  1  0  0  0  0
 23 47  1  0  0  0  0
 23 48  1  0  0  0  0
 24 49  1  0  0  0  0
M  END
> <s_m_source_file>
AV-unprocessed.smi

> <i_m_source_file_index>
625

> <i_lp_mmshare_version>
43012

> <i_f3d_flags>
0

> <s_epik_input>
W0NIM11bTkhdQyg9TyljMVtjSF1bY0hdYyg9TyluKFtjSF0xKVtDSDJdQyg9TylbTkhdW0NASF0oW0NIM10pW0NASF0oW0NIMl1bQ0BIXTIzKVtDQEhdKFtDSDJdMylbQ0gyXVtDSDJdMg==

> <s_epik_cmdline>
J2VwaWtfcHl0aG9uJywgJy1waCcsICc3LjAnLCAnLXRuJywgJzgnLCAnLW1hJywgJzIwMCcsICctbWV0YWxfYmluZGluZycsICctaW1hZScsICc8aW5maWxlLm1hZT4nLCAnLW9tYWUnLCAnPG91dGZpbGUubWFlPic=

> <r_lp_tautomer_probability>
1

> <r_epik_Ionization_Penalty>
3.7129e-07

> <r_epik_Ionization_Penalty_Charging>
5.04114e-08

> <r_epik_Ionization_Penalty_Neutral>
3.20879e-07

> <r_epik_State_Penalty>
-0

> <r_epik_Charging_Adjusted_Penalty>
5.04114e-08

> <i_epik_Tot_Q>
0

> <i_epik_Tot_abs_Q>
0

> <r_epik_Metal_State_Penalty>
-0

> <b_epik_Metal_Only>
0

> <s_lp_Force_Field>
OPLS_2005

> <r_lp_Energy>
63.7952

> <b_lp_Chiralities_Consistent>
1

> <s_lp_Variant>
AV-unprocessed.smi:625-3

> <Gold.Version>
5.8.1

> <Gold.Id.Protein>
6NUR|6NUR_protein|mol2

> <Gold.PLP.Fitness>
45.5752

> <Gold.PLP.PLP>
-44.7746

> <Gold.PLP.part.hbond>
-0.9859

> <Gold.PLP.part.metal>
0.0000

> <Gold.PLP.part.buried>
-5.2042

> <Gold.PLP.part.nonpolar>
-38.2191

> <Gold.PLP.part.repulsive>
0.1847

> <Gold.PLP.ligand.clash>
0.0000

> <Gold.PLP.ligand.torsion>
1.1382

> <Gold.PLP.Chemscore.Hbond>
1.0000

> <Gold.PLP.Chemscore.CHOScore>
0.0000

> <Gold.PLP.Chemscore.Metal>
0.0000

> <Gold.Chemscore.Hbonds>
donor molecule, donor type, donor heavy atom, donor atom, acceptor molecule, acceptor atom, score
      P1  H  6896  6909       L1    13  0.93

> <Gold.PLP.Chemscore.Internal.Correction>
0.0769

> <Gold.Rescore>
     Score         DG    S(hbond)    S(metal)    S(lipo)     H(rot)  DE(clash)    DE(int)     intcor
     14.76     -16.45       0.99        0.00     101.91       1.67       0.26       1.42       ----

> <Gold.Chemscore.Fitness>
14.7649

> <Gold.Chemscore.DG>
-16.4457

> <Gold.Chemscore.ZeroCoef>
-5.4800

> <Gold.Chemscore.Hbond>
0.9937

> <Gold.Chemscore.Metal>
0.0000

> <Gold.Chemscore.Lipo>
101.9140

> <Gold.Chemscore.Internal_Hbond>
0.0000

> <Gold.Chemscore.DEClash>
0.2587

> <Gold.Chemscore.DEInternal>
1.4221

> <Gold.Chemscore.Rot>
1.6709

> <Gold.Chemscore.Internal.Correction>
   9.000000E+99

> <Gold.Chemscore.Hbonds>
donor molecule, donor type, donor heavy atom, donor atom, acceptor molecule, acceptor atom, score
      P1  H  6896  6909       L1    13  0.89

> <Gold.Chemscore.Hbond.Weighted>
-3.3191

> <Gold.Chemscore.Metal.Weighted>
-0.0000

> <Gold.Chemscore.Lipo.Weighted>
-11.9239

> <Gold.Chemscore.Internal_Hbond.Weighted>
0.0000

> <Gold.Chemscore.DEClash.Weighted>
0.2587

> <Gold.Chemscore.DEInternal.Weighted>
1.4221

> <Gold.Chemscore.Rot.Weighted>
4.2774

> <Gold.Chemscore.Internal.Correction.Weighted>
   9.000000E+99

> <Gold.Protein.RotatedTorsions>
[ 6907 6896 6895 6894 ] final  113.65 input  -60.11 | X-H torsion
[ 7974 7965 7964 7962 ] final   -2.59 input  175.53 | X-H torsion
[ 8008 7997 7996 7995 ] final -108.60 input   59.86 | X-H torsion
[ 10167 10162 10161 10158 ] final  141.75 input  -65.29 | X-H torsion
[ 10718 10713 10712 10709 ] final   38.38 input   66.30 | X-H torsion
[ 10763 10752 10751 10750 ] final   39.34 input  -60.55 | X-H torsion
[ 11005 11000 10999 10996 ] final  159.73 input  -57.11 | X-H torsion

> <Gold.Protein.ActiveResidues>
 VAL166  LYS551  ARG553  GLY616  TRP617  ASP618  TYR619  PRO620  LYS621  CYS622 
 ASP623  PHE694  ASN695  SER759  ASP760  ASP761  ALA762  ILE779  LEU786  VAL792 
 PHE793  MET794  SER795  GLU796  ALA797  LYS798  CYS799  TRP800  GLU811  SER814 

> <Gold.Protein.RotatedAtoms>
  152.4849  133.8346  159.7120 H   0  0  0  0  0  0  0  0  0  0  0  0  # atno 6907 bound_to 6896
  150.8927  133.7213  159.2907 H   0  0  0  0  0  0  0  0  0  0  0  0  # atno 6908 bound_to 6896
  151.4680  135.1047  159.9796 H   0  0  0  0  0  0  0  0  0  0  0  0  # atno 6909 bound_to 6896
  146.2402  140.1594  142.8333 H   0  0  0  0  0  0  0  0  0  0  0  0  # atno 7974 bound_to 7965
  154.9467  140.0401  157.2124 H   0  0  0  0  0  0  0  0  0  0  0  0  # atno 8008 bound_to 7997
  154.8017  140.2853  155.5895 H   0  0  0  0  0  0  0  0  0  0  0  0  # atno 8009 bound_to 7997
  156.2962  140.2554  156.2887 H   0  0  0  0  0  0  0  0  0  0  0  0  # atno 8010 bound_to 7997
  139.5012  144.6151  151.6182 H   0  0  0  0  0  0  0  0  0  0  0  0  # atno 10167 bound_to 10162
  157.3581  130.7634  149.7027 H   0  0  0  0  0  0  0  0  0  0  0  0  # atno 10718 bound_to 10713
  152.9970  135.6223  154.2449 H   0  0  0  0  0  0  0  0  0  0  0  0  # atno 10763 bound_to 10752
  154.2189  135.2796  155.2933 H   0  0  0  0  0  0  0  0  0  0  0  0  # atno 10764 bound_to 10752
  154.5545  135.5723  153.7010 H   0  0  0  0  0  0  0  0  0  0  0  0  # atno 10765 bound_to 10752
  140.1990  134.8352  157.2996 H   0  0  0  0  0  0  0  0  0  0  0  0  # atno 11005 bound_to 11000
  145.0102  140.8707  143.5229 LP  0  0  0  0  0  0  0  0  0  0  0  0  # atno 17320 bound_to 7965
  145.1626  139.2449  143.5383 LP  0  0  0  0  0  0  0  0  0  0  0  0  # atno 17321 bound_to 7965
  140.5837  143.9902  150.6283 LP  0  0  0  0  0  0  0  0  0  0  0  0  # atno 17342 bound_to 10162
  140.3059  143.3230  152.0926 LP  0  0  0  0  0  0  0  0  0  0  0  0  # atno 17343 bound_to 10162
  155.9732  130.4121  150.4017 LP  0  0  0  0  0  0  0  0  0  0  0  0  # atno 17370 bound_to 10713
  157.2090  131.0456  151.2609 LP  0  0  0  0  0  0  0  0  0  0  0  0  # atno 17371 bound_to 10713
  140.2075  134.4179  155.7630 LP  0  0  0  0  0  0  0  0  0  0  0  0  # atno 17394 bound_to 11000
  141.2227  133.7102  156.8285 LP  0  0  0  0  0  0  0  0  0  0  0  0  # atno 17395 bound_to 11000

$$$$
