AV-unprocessed.smi:633|AV-procd|sdf|3132|dock4
  -GOLD-   22720 0 53D 1   1.00000     0.00000
 Structure written by MMmdl.
 53 56  0  0  0  0  0  0  0  0  1 V2000
  152.0854  144.3135  157.6236 C   0  0  0  0  0  0  0  0  0  0  0  0
  151.2015  143.5299  158.6105 C   0  0  1  0  0  0  0  0  0  0  0  0
  150.4856  142.3244  157.9698 C   0  0  0  0  0  0  0  0  0  0  0  0
  151.4141  141.2175  157.7501 N   0  0  0  0  0  0  0  0  0  0  0  0
  150.9879  140.1464  156.9358 C   0  0  0  0  0  0  0  0  0  0  0  0
  151.5842  139.9356  155.6706 C   0  0  0  0  0  0  0  0  0  0  0  0
  151.1468  138.8618  154.8717 C   0  0  0  0  0  0  0  0  0  0  0  0
  150.1139  138.0253  155.3547 C   0  0  0  0  0  0  0  0  0  0  0  0
  149.6020  136.8983  154.6565 N   0  0  0  0  0  0  0  0  0  0  0  0
  149.1301  135.7450  155.1602 C   0  0  0  0  0  0  0  0  0  0  0  0
  149.1049  135.4505  156.3549 O   0  0  0  0  0  0  0  0  0  0  0  0
  148.7017  134.9321  154.1821 N   0  0  0  0  0  0  0  0  0  0  0  0
  148.1341  133.5940  154.3414 C   0  0  0  0  0  0  0  0  0  0  0  0
  149.1463  132.4711  154.1665 C   0  0  0  0  0  0  0  0  0  0  0  0
  148.8775  131.0839  154.7000 C   0  0  0  0  0  0  0  0  0  0  0  0
  149.9422  131.9480  155.3380 C   0  0  0  0  0  0  0  0  0  0  0  0
  146.8962  133.3468  153.4919 C   0  0  0  0  0  0  0  0  0  0  0  0
  146.6364  131.9983  152.8646 C   0  0  0  0  0  0  0  0  0  0  0  0
  146.9948  133.1819  151.9937 C   0  0  0  0  0  0  0  0  0  0  0  0
  149.5877  138.3089  156.6303 C   0  0  0  0  0  0  0  0  0  0  0  0
  150.0019  139.3386  157.3975 N   0  0  0  0  0  0  0  0  0  0  0  0
  152.1545  140.8424  158.9503 C   0  0  0  0  0  0  0  0  0  0  0  0
  152.8700  142.0690  159.5445 C   0  0  2  0  0  0  0  0  0  0  0  0
  153.5453  141.7433  160.8810 C   0  0  0  0  0  0  0  0  0  0  0  0
  151.9246  143.1140  159.7713 O   0  0  0  0  0  0  0  0  0  0  0  0
  151.4840  144.7323  156.8162 H   0  0  0  0  0  0  0  0  0  0  0  0
  152.8494  143.6869  157.1637 H   0  0  0  0  0  0  0  0  0  0  0  0
  152.5870  145.1420  158.1241 H   0  0  0  0  0  0  0  0  0  0  0  0
  150.4347  144.2208  158.9620 H   0  0  0  0  0  0  0  0  0  0  0  0
  149.6839  141.9835  158.6265 H   0  0  0  0  0  0  0  0  0  0  0  0
  150.0237  142.6296  157.0297 H   0  0  0  0  0  0  0  0  0  0  0  0
  152.3614  140.5878  155.3008 H   0  0  0  0  0  0  0  0  0  0  0  0
  151.6195  138.6977  153.9160 H   0  0  0  0  0  0  0  0  0  0  0  0
  149.6421  136.9598  153.6497 H   0  0  0  0  0  0  0  0  0  0  0  0
  148.7737  135.2710  153.2339 H   0  0  0  0  0  0  0  0  0  0  0  0
  147.8096  133.5618  155.3826 H   0  0  0  0  0  0  0  0  0  0  0  0
  149.6756  132.5040  153.2159 H   0  0  0  0  0  0  0  0  0  0  0  0
  147.9616  130.9220  155.2648 H   0  0  0  0  0  0  0  0  0  0  0  0
  149.2074  130.2417  154.0956 H   0  0  0  0  0  0  0  0  0  0  0  0
  150.9817  131.6817  155.1586 H   0  0  0  0  0  0  0  0  0  0  0  0
  149.7292  132.3613  156.3218 H   0  0  0  0  0  0  0  0  0  0  0  0
  146.0138  133.8804  153.8406 H   0  0  0  0  0  0  0  0  0  0  0  0
  147.3903  131.2245  152.9953 H   0  0  0  0  0  0  0  0  0  0  0  0
  145.6069  131.6472  152.8391 H   0  0  0  0  0  0  0  0  0  0  0  0
  146.2038  133.6192  151.3879 H   0  0  0  0  0  0  0  0  0  0  0  0
  147.9850  133.1876  151.5425 H   0  0  0  0  0  0  0  0  0  0  0  0
  148.8048  137.6938  157.0496 H   0  0  0  0  0  0  0  0  0  0  0  0
  151.4534  140.4288  159.6763 H   0  0  0  0  0  0  0  0  0  0  0  0
  152.8897  140.0656  158.7446 H   0  0  0  0  0  0  0  0  0  0  0  0
  153.6401  142.4132  158.8537 H   0  0  0  0  0  0  0  0  0  0  0  0
  154.2891  140.9549  160.7632 H   0  0  0  0  0  0  0  0  0  0  0  0
  152.8165  141.4084  161.6199 H   0  0  0  0  0  0  0  0  0  0  0  0
  154.0514  142.6202  161.2855 H   0  0  0  0  0  0  0  0  0  0  0  0
  1  2  1  0  0  0  0
  1 26  1  0  0  0  0
  1 27  1  0  0  0  0
  1 28  1  0  0  0  0
  2 25  1  0  0  0  0
  2  3  1  0  0  0  0
  2 29  1  0  0  0  0
  3  4  1  0  0  0  0
  3 30  1  0  0  0  0
  3 31  1  0  0  0  0
  4  5  1  0  0  0  0
  4 22  1  0  0  0  0
  5 21  1  0  0  0  0
  5  6  2  0  0  0  0
  6  7  1  0  0  0  0
  6 32  1  0  0  0  0
  7  8  2  0  0  0  0
  7 33  1  0  0  0  0
  8  9  1  0  0  0  0
  8 20  1  0  0  0  0
  9 10  1  0  0  0  0
  9 34  1  0  0  0  0
 10 11  2  0  0  0  0
 10 12  1  0  0  0  0
 12 13  1  0  0  0  0
 12 35  1  0  0  0  0
 13 14  1  0  0  0  0
 13 17  1  0  0  0  0
 13 36  1  0  0  0  0
 14 16  1  0  0  0  0
 14 15  1  0  0  0  0
 14 37  1  0  0  0  0
 15 16  1  0  0  0  0
 15 38  1  0  0  0  0
 15 39  1  0  0  0  0
 16 40  1  0  0  0  0
 16 41  1  0  0  0  0
 17 19  1  0  0  0  0
 17 18  1  0  0  0  0
 17 42  1  0  0  0  0
 18 19  1  0  0  0  0
 18 43  1  0  0  0  0
 18 44  1  0  0  0  0
 19 45  1  0  0  0  0
 19 46  1  0  0  0  0
 20 21  2  0  0  0  0
 20 47  1  0  0  0  0
 22 23  1  0  0  0  0
 22 48  1  0  0  0  0
 22 49  1  0  0  0  0
 23 24  1  0  0  0  0
 23 25  1  0  0  0  0
 23 50  1  0  0  0  0
 24 51  1  0  0  0  0
 24 52  1  0  0  0  0
 24 53  1  0  0  0  0
M  END
> <s_m_source_file>
AV-unprocessed.smi

> <i_m_source_file_index>
633

> <i_lp_mmshare_version>
43012

> <i_f3d_flags>
0

> <s_epik_input>
W0NIM11bQ0BASF0xW0NIMl1OKFtDSDJdW0NASF0oTzEpW0NIM10pYzJbY0hdW2NIXWMoW2NIXW4yKVtOSF1DKD1PKVtOSF1bQ0hdKFtDSF0zW0NIMl1bQ0gyXTMpW0NIXTRbQ0gyXVtDSDJdNA==

> <s_epik_cmdline>
J2VwaWtfcHl0aG9uJywgJy1waCcsICc3LjAnLCAnLXRuJywgJzgnLCAnLW1hJywgJzIwMCcsICctbWV0YWxfYmluZGluZycsICctaW1hZScsICc8aW5maWxlLm1hZT4nLCAnLW9tYWUnLCAnPG91dGZpbGUubWFlPic=

> <r_lp_tautomer_probability>
1

> <r_epik_Ionization_Penalty>
0.00291159

> <r_epik_Ionization_Penalty_Charging>
0

> <r_epik_Ionization_Penalty_Neutral>
0.00291159

> <r_epik_State_Penalty>
0.00200877

> <r_epik_Charging_Adjusted_Penalty>
0.00200877

> <i_epik_Tot_Q>
0

> <i_epik_Tot_abs_Q>
0

> <r_epik_Metal_State_Penalty>
-0

> <b_epik_Metal_Only>
0

> <s_lp_Force_Field>
OPLS_2005

> <r_lp_Energy>
43.3159

> <b_lp_Chiralities_Consistent>
1

> <s_lp_Variant>
AV-unprocessed.smi:633-3

> <Gold.Version>
5.8.1

> <Gold.Id.Protein>
6NUR|6NUR_protein|mol2

> <Gold.PLP.Fitness>
50.3757

> <Gold.PLP.PLP>
-45.6415

> <Gold.PLP.part.hbond>
-2.0000

> <Gold.PLP.part.metal>
0.0000

> <Gold.PLP.part.buried>
-6.0675

> <Gold.PLP.part.nonpolar>
-38.7351

> <Gold.PLP.part.repulsive>
0.0555

> <Gold.PLP.ligand.clash>
0.0000

> <Gold.PLP.ligand.torsion>
1.8234

> <Gold.PLP.Chemscore.Hbond>
1.9600

> <Gold.PLP.Chemscore.CHOScore>
0.0000

> <Gold.PLP.Chemscore.Metal>
0.0000

> <Gold.Chemscore.Hbonds>
donor molecule, donor type, donor heavy atom, donor atom, acceptor molecule, acceptor atom, score
      L1  H     9    34       P1  7948  0.96
      L1  H    12    35       P1  7948  1.00

> <Gold.PLP.Chemscore.Internal.Correction>
2.5010

> <Gold.Rescore>
     Score         DG    S(hbond)    S(metal)    S(lipo)     H(rot)  DE(clash)    DE(int)     intcor
     18.51     -21.63       1.81        0.00     116.97       1.40       0.03       3.09       ----

> <Gold.Chemscore.Fitness>
18.5136

> <Gold.Chemscore.DG>
-21.6320

> <Gold.Chemscore.ZeroCoef>
-5.4800

> <Gold.Chemscore.Hbond>
1.8131

> <Gold.Chemscore.Metal>
0.0000

> <Gold.Chemscore.Lipo>
116.9736

> <Gold.Chemscore.Internal_Hbond>
0.0000

> <Gold.Chemscore.DEClash>
0.0251

> <Gold.Chemscore.DEInternal>
3.0933

> <Gold.Chemscore.Rot>
1.4022

> <Gold.Chemscore.Internal.Correction>
   9.000000E+99

> <Gold.Chemscore.Hbonds>
donor molecule, donor type, donor heavy atom, donor atom, acceptor molecule, acceptor atom, score
      L1  H     9    34       P1  7948  0.65
      L1  H    12    35       P1  7948  0.70

> <Gold.Chemscore.Hbond.Weighted>
-6.0557

> <Gold.Chemscore.Metal.Weighted>
-0.0000

> <Gold.Chemscore.Lipo.Weighted>
-13.6859

> <Gold.Chemscore.Internal_Hbond.Weighted>
0.0000

> <Gold.Chemscore.DEClash.Weighted>
0.0251

> <Gold.Chemscore.DEInternal.Weighted>
3.0933

> <Gold.Chemscore.Rot.Weighted>
3.5897

> <Gold.Chemscore.Internal.Correction.Weighted>
   9.000000E+99

> <Gold.Protein.RotatedTorsions>
[ 6907 6896 6895 6894 ] final  121.47 input  -60.11 | X-H torsion
[ 7974 7965 7964 7962 ] final  107.03 input  175.53 | X-H torsion
[ 8008 7997 7996 7995 ] final -130.47 input   59.86 | X-H torsion
[ 10167 10162 10161 10158 ] final  -46.76 input  -65.29 | X-H torsion
[ 10718 10713 10712 10709 ] final   75.41 input   66.30 | X-H torsion
[ 10763 10752 10751 10750 ] final  150.70 input  -60.55 | X-H torsion
[ 11005 11000 10999 10996 ] final -175.29 input  -57.11 | X-H torsion

> <Gold.Protein.ActiveResidues>
 VAL166  LYS551  ARG553  GLY616  TRP617  ASP618  TYR619  PRO620  LYS621  CYS622 
 ASP623  PHE694  ASN695  SER759  ASP760  ASP761  ALA762  ILE779  LEU786  VAL792 
 PHE793  MET794  SER795  GLU796  ALA797  LYS798  CYS799  TRP800  GLU811  SER814 

> <Gold.Protein.RotatedAtoms>
  152.4319  133.7293  159.6577 H   0  0  0  0  0  0  0  0  0  0  0  0  # atno 6907 bound_to 6896
  150.8199  133.8260  159.3149 H   0  0  0  0  0  0  0  0  0  0  0  0  # atno 6908 bound_to 6896
  151.5945  135.1053  160.0098 H   0  0  0  0  0  0  0  0  0  0  0  0  # atno 6909 bound_to 6896
  145.2989  139.2576  143.3825 H   0  0  0  0  0  0  0  0  0  0  0  0  # atno 7974 bound_to 7965
  155.2963  140.0450  157.3026 H   0  0  0  0  0  0  0  0  0  0  0  0  # atno 8008 bound_to 7997
  154.5512  140.2318  155.8449 H   0  0  0  0  0  0  0  0  0  0  0  0  # atno 8009 bound_to 7997
  156.1968  140.3036  155.9451 H   0  0  0  0  0  0  0  0  0  0  0  0  # atno 8010 bound_to 7997
  140.6804  143.2816  151.3828 H   0  0  0  0  0  0  0  0  0  0  0  0  # atno 10167 bound_to 10162
  157.6633  130.9725  150.1350 H   0  0  0  0  0  0  0  0  0  0  0  0  # atno 10718 bound_to 10713
  154.0918  135.2852  155.3270 H   0  0  0  0  0  0  0  0  0  0  0  0  # atno 10763 bound_to 10752
  154.6615  135.5333  153.8027 H   0  0  0  0  0  0  0  0  0  0  0  0  # atno 10764 bound_to 10752
  153.0410  135.6535  154.1087 H   0  0  0  0  0  0  0  0  0  0  0  0  # atno 10765 bound_to 10752
  140.4650  134.6219  157.4858 H   0  0  0  0  0  0  0  0  0  0  0  0  # atno 11005 bound_to 11000
  146.3159  140.3498  142.8655 LP  0  0  0  0  0  0  0  0  0  0  0  0  # atno 17320 bound_to 7965
  144.9110  140.7757  143.5807 LP  0  0  0  0  0  0  0  0  0  0  0  0  # atno 17321 bound_to 7965
  139.6123  144.1074  152.2311 LP  0  0  0  0  0  0  0  0  0  0  0  0  # atno 17342 bound_to 10162
  140.0492  144.5946  150.7350 LP  0  0  0  0  0  0  0  0  0  0  0  0  # atno 17343 bound_to 10162
  156.2187  130.3672  149.8582 LP  0  0  0  0  0  0  0  0  0  0  0  0  # atno 17370 bound_to 10713
  156.6441  130.8717  151.3519 LP  0  0  0  0  0  0  0  0  0  0  0  0  # atno 17371 bound_to 10713
  139.9921  134.6969  155.9672 LP  0  0  0  0  0  0  0  0  0  0  0  0  # atno 17394 bound_to 11000
  141.1604  133.6539  156.4298 LP  0  0  0  0  0  0  0  0  0  0  0  0  # atno 17395 bound_to 11000

$$$$
