AV-unprocessed.smi:1377|AV-procd|sdf|5594|dock6
  -GOLD-   22720 5193D 1   1.00000     0.00000
 Structure written by MMmdl.
 29 30  0  0  0  0  0  0  0  0  1 V2000
  146.9715  142.7512  155.7504 N   0  0  0  0  0  0  0  0  0  0  0  0
  146.8852  141.8930  154.7304 C   0  0  0  0  0  0  0  0  0  0  0  0
  145.8904  141.1958  154.5422 O   0  0  0  0  0  0  0  0  0  0  0  0
  148.0866  141.8039  153.7870 C   0  0  0  0  0  0  0  0  0  0  0  0
  149.2970  141.3193  154.5313 C   0  0  0  0  0  0  0  0  0  0  0  0
  150.0286  140.1849  154.2707 C   0  0  0  0  0  0  0  0  0  0  0  0
  151.3632  139.9977  155.3763 S   0  0  0  0  0  0  0  0  0  0  0  0
  150.8641  141.4832  156.1701 C   0  0  0  0  0  0  0  0  0  0  0  0
  151.5672  142.0144  157.2828 N   0  0  0  0  0  0  0  0  0  0  0  0
  152.4433  141.3894  158.0913 C   0  0  0  0  0  0  0  0  0  0  0  0
  152.7879  140.2129  157.9699 O   0  0  0  0  0  0  0  0  0  0  0  0
  153.0228  142.2500  159.2226 C   0  0  0  0  0  0  0  0  0  0  0  0
  152.4948  141.9006  160.6251 C   0  0  0  0  0  0  0  0  0  0  0  0
  152.3369  143.3995  160.8969 C   0  0  0  0  0  0  0  0  0  0  0  0
  152.3609  143.6306  159.3833 C   0  0  0  0  0  0  0  0  0  0  0  0
  149.7816  142.0474  155.6230 N   0  0  0  0  0  0  0  0  0  0  0  0
  146.1994  142.8399  156.3954 H   0  0  0  0  0  0  0  0  0  0  0  0
  147.8047  143.3077  155.8741 H   0  0  0  0  0  0  0  0  0  0  0  0
  147.8402  141.1302  152.9649 H   0  0  0  0  0  0  0  0  0  0  0  0
  148.2781  142.7785  153.3360 H   0  0  0  0  0  0  0  0  0  0  0  0
  149.8660  139.4532  153.4933 H   0  0  0  0  0  0  0  0  0  0  0  0
  151.3834  142.9852  157.4894 H   0  0  0  0  0  0  0  0  0  0  0  0
  154.1122  142.3211  159.2031 H   0  0  0  0  0  0  0  0  0  0  0  0
  151.5412  141.3693  160.6278 H   0  0  0  0  0  0  0  0  0  0  0  0
  153.2239  141.4087  161.2693 H   0  0  0  0  0  0  0  0  0  0  0  0
  151.4020  143.6777  161.3840 H   0  0  0  0  0  0  0  0  0  0  0  0
  153.2024  143.8297  161.4030 H   0  0  0  0  0  0  0  0  0  0  0  0
  152.9873  144.4675  159.0732 H   0  0  0  0  0  0  0  0  0  0  0  0
  151.3601  143.7049  158.9540 H   0  0  0  0  0  0  0  0  0  0  0  0
  1  2  1  0  0  0  0
  1 17  1  0  0  0  0
  1 18  1  0  0  0  0
  2  3  2  0  0  0  0
  2  4  1  0  0  0  0
  4  5  1  0  0  0  0
  4 19  1  0  0  0  0
  4 20  1  0  0  0  0
  5 16  1  0  0  0  0
  5  6  2  0  0  0  0
  6  7  1  0  0  0  0
  6 21  1  0  0  0  0
  7  8  1  0  0  0  0
  8  9  1  0  0  0  0
  8 16  2  0  0  0  0
  9 10  1  0  0  0  0
  9 22  1  0  0  0  0
 10 11  2  0  0  0  0
 10 12  1  0  0  0  0
 12 15  1  0  0  0  0
 12 13  1  0  0  0  0
 12 23  1  0  0  0  0
 13 14  1  0  0  0  0
 13 24  1  0  0  0  0
 13 25  1  0  0  0  0
 14 15  1  0  0  0  0
 14 26  1  0  0  0  0
 14 27  1  0  0  0  0
 15 28  1  0  0  0  0
 15 29  1  0  0  0  0
M  END
> <s_m_source_file>
AV-unprocessed.smi

> <i_m_source_file_index>
1377

> <i_lp_mmshare_version>
43012

> <i_f3d_flags>
0

> <s_epik_input>
W05IMl1DKD1PKVtDSDJdYzFbY0hdc2MobjEpW05IXUMoPU8pW0NIXTJbQ0gyXVtDSDJdW0NIMl0y

> <s_epik_cmdline>
J2VwaWtfcHl0aG9uJywgJy1waCcsICc3LjAnLCAnLXRuJywgJzgnLCAnLW1hJywgJzIwMCcsICctbWV0YWxfYmluZGluZycsICctaW1hZScsICc8aW5maWxlLm1hZT4nLCAnLW9tYWUnLCAnPG91dGZpbGUubWFlPic=

> <r_lp_tautomer_probability>
1

> <r_epik_Ionization_Penalty>
0.000217978

> <r_epik_Ionization_Penalty_Charging>
0

> <r_epik_Ionization_Penalty_Neutral>
0.000217978

> <r_epik_State_Penalty>
-0

> <r_epik_Charging_Adjusted_Penalty>
0

> <i_epik_Tot_Q>
0

> <i_epik_Tot_abs_Q>
0

> <r_epik_Metal_State_Penalty>
0.13268

> <b_epik_Metal_Only>
0

> <s_lp_Force_Field>
OPLS_2005

> <r_lp_Energy>
11.3529

> <b_lp_Chiralities_Consistent>
1

> <s_lp_Variant>
AV-unprocessed.smi:1377-1

> <Gold.Version>
5.8.1

> <Gold.Id.Protein>
6NUR|6NUR_protein|mol2

> <Gold.PLP.Fitness>
39.9637

> <Gold.PLP.PLP>
-32.3147

> <Gold.PLP.part.hbond>
-2.0000

> <Gold.PLP.part.metal>
0.0000

> <Gold.PLP.part.buried>
1.4990

> <Gold.PLP.part.nonpolar>
-30.0208

> <Gold.PLP.part.repulsive>
1.5497

> <Gold.PLP.ligand.clash>
0.0000

> <Gold.PLP.ligand.torsion>
0.2790

> <Gold.PLP.Chemscore.Hbond>
2.0000

> <Gold.PLP.Chemscore.CHOScore>
0.6019

> <Gold.PLP.Chemscore.Metal>
0.0000

> <Gold.Chemscore.Hbonds>
donor molecule, donor type, donor heavy atom, donor atom, acceptor molecule, acceptor atom, score
      L1  H     1    18       P1  8028  0.95
      P1  H  7997  8008       L1    11  0.98
      L1  C     6    21       P1  7957  0.87

> <Gold.PLP.Chemscore.Internal.Correction>
0.4015

> <Gold.Rescore>
     Score         DG    S(hbond)    S(metal)    S(lipo)     H(rot)  DE(clash)    DE(int)     intcor
     10.77     -13.49       1.18        0.00      76.87       1.92       0.05       2.66       ----

> <Gold.Chemscore.Fitness>
10.7715

> <Gold.Chemscore.DG>
-13.4859

> <Gold.Chemscore.ZeroCoef>
-5.4800

> <Gold.Chemscore.Hbond>
1.1789

> <Gold.Chemscore.Metal>
0.0000

> <Gold.Chemscore.Lipo>
76.8689

> <Gold.Chemscore.Internal_Hbond>
0.0000

> <Gold.Chemscore.DEClash>
0.0516

> <Gold.Chemscore.DEInternal>
2.6628

> <Gold.Chemscore.Rot>
1.9239

> <Gold.Chemscore.Internal.Correction>
   9.000000E+99

> <Gold.Chemscore.Hbonds>
donor molecule, donor type, donor heavy atom, donor atom, acceptor molecule, acceptor atom, score
      L1  H     1    18       P1  8028  0.21
      P1  H  7997  8008       L1    11  0.69

> <Gold.Chemscore.Hbond.Weighted>
-3.9375

> <Gold.Chemscore.Metal.Weighted>
-0.0000

> <Gold.Chemscore.Lipo.Weighted>
-8.9937

> <Gold.Chemscore.Internal_Hbond.Weighted>
0.0000

> <Gold.Chemscore.DEClash.Weighted>
0.0516

> <Gold.Chemscore.DEInternal.Weighted>
2.6628

> <Gold.Chemscore.Rot.Weighted>
4.9253

> <Gold.Chemscore.Internal.Correction.Weighted>
   9.000000E+99

> <Gold.Protein.RotatedTorsions>
[ 6907 6896 6895 6894 ] final  110.98 input  -60.11 | X-H torsion
[ 7974 7965 7964 7962 ] final  156.98 input  175.53 | X-H torsion
[ 8008 7997 7996 7995 ] final  -80.90 input   59.86 | X-H torsion
[ 10167 10162 10161 10158 ] final -117.88 input  -65.29 | X-H torsion
[ 10718 10713 10712 10709 ] final -119.62 input   66.30 | X-H torsion
[ 10763 10752 10751 10750 ] final -100.09 input  -60.55 | X-H torsion
[ 11005 11000 10999 10996 ] final  109.57 input  -57.11 | X-H torsion

> <Gold.Protein.ActiveResidues>
 VAL166  LYS551  ARG553  GLY616  TRP617  ASP618  TYR619  PRO620  LYS621  CYS622 
 ASP623  PHE694  ASN695  SER759  ASP760  ASP761  ALA762  ILE779  LEU786  VAL792 
 PHE793  MET794  SER795  GLU796  ALA797  LYS798  CYS799  TRP800  GLU811  SER814 

> <Gold.Protein.RotatedAtoms>
  152.4992  133.8723  159.7304 H   0  0  0  0  0  0  0  0  0  0  0  0  # atno 6907 bound_to 6896
  150.9206  133.6876  159.2839 H   0  0  0  0  0  0  0  0  0  0  0  0  # atno 6908 bound_to 6896
  151.4254  135.1007  159.9679 H   0  0  0  0  0  0  0  0  0  0  0  0  # atno 6909 bound_to 6896
  144.7930  139.7278  143.6213 H   0  0  0  0  0  0  0  0  0  0  0  0  # atno 7974 bound_to 7965
  154.5929  140.0656  156.9264 H   0  0  0  0  0  0  0  0  0  0  0  0  # atno 8008 bound_to 7997
  155.2263  140.3334  155.4290 H   0  0  0  0  0  0  0  0  0  0  0  0  # atno 8009 bound_to 7997
  156.2268  140.1823  156.7327 H   0  0  0  0  0  0  0  0  0  0  0  0  # atno 8010 bound_to 7997
  140.0636  143.4944  152.2018 H   0  0  0  0  0  0  0  0  0  0  0  0  # atno 10167 bound_to 10162
  156.1195  130.6312  150.9439 H   0  0  0  0  0  0  0  0  0  0  0  0  # atno 10718 bound_to 10713
  154.7551  135.4948  153.9359 H   0  0  0  0  0  0  0  0  0  0  0  0  # atno 10763 bound_to 10752
  153.1186  135.6726  153.9382 H   0  0  0  0  0  0  0  0  0  0  0  0  # atno 10764 bound_to 10752
  153.9121  135.3098  155.3427 H   0  0  0  0  0  0  0  0  0  0  0  0  # atno 10765 bound_to 10752
  139.8864  134.9461  156.6146 H   0  0  0  0  0  0  0  0  0  0  0  0  # atno 11005 bound_to 11000
  146.2189  139.5600  142.9631 LP  0  0  0  0  0  0  0  0  0  0  0  0  # atno 17320 bound_to 7965
  145.5745  141.0390  143.2156 LP  0  0  0  0  0  0  0  0  0  0  0  0  # atno 17321 bound_to 7965
  139.5879  144.7538  151.3474 LP  0  0  0  0  0  0  0  0  0  0  0  0  # atno 17342 bound_to 10162
  140.7160  143.7265  150.7656 LP  0  0  0  0  0  0  0  0  0  0  0  0  # atno 17343 bound_to 10162
  157.6378  131.0914  150.8312 LP  0  0  0  0  0  0  0  0  0  0  0  0  # atno 17370 bound_to 10713
  156.8411  130.5048  149.5321 LP  0  0  0  0  0  0  0  0  0  0  0  0  # atno 17371 bound_to 10713
  140.7786  133.8679  155.8549 LP  0  0  0  0  0  0  0  0  0  0  0  0  # atno 17394 bound_to 11000
  140.9780  134.1443  157.4519 LP  0  0  0  0  0  0  0  0  0  0  0  0  # atno 17395 bound_to 11000

$$$$
