AV-unprocessed.smi:1486|AV-procd|sdf|6006|dock4
  -GOLD-   22720 6103D 1   1.00000     0.00000
 Structure written by MMmdl.
 39 40  0  0  0  0  0  0  0  0  1 V2000
  150.8840  135.1948  155.3409 C   0  0  0  0  0  0  0  0  0  0  0  0
  151.6687  136.0633  154.5426 O   0  0  0  0  0  0  0  0  0  0  0  0
  151.2365  137.4123  154.6217 C   0  0  0  0  0  0  0  0  0  0  0  0
  151.2105  137.8557  156.0923 C   0  0  1  0  0  0  0  0  0  0  0  0
  152.5974  137.7309  156.7431 C   0  0  0  0  0  0  0  0  0  0  0  0
  150.7390  139.2350  156.1812 N   0  0  0  0  0  0  0  0  0  0  0  0
  151.3369  140.2971  155.6184 C   0  0  0  0  0  0  0  0  0  0  0  0
  152.3714  140.2223  154.9553 O   0  0  0  0  0  0  0  0  0  0  0  0
  150.6628  141.6528  155.8311 C   0  0  0  0  0  0  0  0  0  0  0  0
  151.2530  142.3452  157.0257 C   0  0  0  0  0  0  0  0  0  0  0  0
  151.1780  143.6846  157.3228 C   0  0  0  0  0  0  0  0  0  0  0  0
  152.0053  144.0735  158.8053 S   0  0  0  0  0  0  0  0  0  0  0  0
  152.4412  142.3699  158.9695 C   0  0  0  0  0  0  0  0  0  0  0  0
  153.2130  141.7921  160.0216 N   0  0  0  0  0  0  0  0  0  0  0  0
  153.2853  142.4016  161.3462 C   0  0  0  0  0  0  0  0  0  0  0  0
  153.9948  141.3797  162.2411 C   0  0  0  0  0  0  0  0  0  0  0  0
  154.6450  140.3861  161.2807 C   0  0  0  0  0  0  0  0  0  0  0  0
  153.9671  140.6804  159.9526 C   0  0  0  0  0  0  0  0  0  0  0  0
  154.1328  139.9550  158.9730 O   0  0  0  0  0  0  0  0  0  0  0  0
  151.9767  141.6101  157.9711 N   0  0  0  0  0  0  0  0  0  0  0  0
  151.2538  134.1740  155.2448 H   0  0  0  0  0  0  0  0  0  0  0  0
  149.8399  135.2051  155.0256 H   0  0  0  0  0  0  0  0  0  0  0  0
  150.9343  135.4739  156.3941 H   0  0  0  0  0  0  0  0  0  0  0  0
  151.9245  138.0443  154.0575 H   0  0  0  0  0  0  0  0  0  0  0  0
  150.2484  137.5223  154.1714 H   0  0  0  0  0  0  0  0  0  0  0  0
  150.5191  137.2019  156.6273 H   0  0  0  0  0  0  0  0  0  0  0  0
  152.9617  136.7046  156.6943 H   0  0  0  0  0  0  0  0  0  0  0  0
  152.5690  138.0174  157.7950 H   0  0  0  0  0  0  0  0  0  0  0  0
  153.3287  138.3679  156.2443 H   0  0  0  0  0  0  0  0  0  0  0  0
  149.8946  139.3933  156.7118 H   0  0  0  0  0  0  0  0  0  0  0  0
  150.7727  142.2584  154.9302 H   0  0  0  0  0  0  0  0  0  0  0  0
  149.5916  141.5020  155.9699 H   0  0  0  0  0  0  0  0  0  0  0  0
  150.6827  144.4627  156.7608 H   0  0  0  0  0  0  0  0  0  0  0  0
  153.8617  143.3257  161.2829 H   0  0  0  0  0  0  0  0  0  0  0  0
  152.2948  142.6446  161.7332 H   0  0  0  0  0  0  0  0  0  0  0  0
  154.7238  141.8528  162.8998 H   0  0  0  0  0  0  0  0  0  0  0  0
  153.2683  140.8635  162.8703 H   0  0  0  0  0  0  0  0  0  0  0  0
  155.7164  140.5667  161.1870 H   0  0  0  0  0  0  0  0  0  0  0  0
  154.4895  139.3520  161.5895 H   0  0  0  0  0  0  0  0  0  0  0  0
  1  2  1  0  0  0  0
  1 21  1  0  0  0  0
  1 22  1  0  0  0  0
  1 23  1  0  0  0  0
  2  3  1  0  0  0  0
  3  4  1  0  0  0  0
  3 24  1  0  0  0  0
  3 25  1  0  0  0  0
  4  5  1  0  0  0  0
  4  6  1  0  0  0  0
  4 26  1  0  0  0  0
  5 27  1  0  0  0  0
  5 28  1  0  0  0  0
  5 29  1  0  0  0  0
  6  7  1  0  0  0  0
  6 30  1  0  0  0  0
  7  8  2  0  0  0  0
  7  9  1  0  0  0  0
  9 10  1  0  0  0  0
  9 31  1  0  0  0  0
  9 32  1  0  0  0  0
 10 20  1  0  0  0  0
 10 11  2  0  0  0  0
 11 12  1  0  0  0  0
 11 33  1  0  0  0  0
 12 13  1  0  0  0  0
 13 14  1  0  0  0  0
 13 20  2  0  0  0  0
 14 18  1  0  0  0  0
 14 15  1  0  0  0  0
 15 16  1  0  0  0  0
 15 34  1  0  0  0  0
 15 35  1  0  0  0  0
 16 17  1  0  0  0  0
 16 36  1  0  0  0  0
 16 37  1  0  0  0  0
 17 18  1  0  0  0  0
 17 38  1  0  0  0  0
 17 39  1  0  0  0  0
 18 19  2  0  0  0  0
M  END
> <s_m_source_file>
AV-unprocessed.smi

> <i_m_source_file_index>
1486

> <i_lp_mmshare_version>
43012

> <i_f3d_flags>
0

> <s_epik_input>
W0NIM11PW0NIMl1bQ0BIXShbQ0gzXSlbTkhdQyg9TylbQ0gyXWMxW2NIXXNjKG4xKU4yW0NIMl1bQ0gyXVtDSDJdQzI9Tw==

> <s_epik_cmdline>
J2VwaWtfcHl0aG9uJywgJy1waCcsICc3LjAnLCAnLXRuJywgJzgnLCAnLW1hJywgJzIwMCcsICctbWV0YWxfYmluZGluZycsICctaW1hZScsICc8aW5maWxlLm1hZT4nLCAnLW9tYWUnLCAnPG91dGZpbGUubWFlPic=

> <r_lp_tautomer_probability>
1

> <r_epik_Ionization_Penalty>
3.00988e-05

> <r_epik_Ionization_Penalty_Charging>
0

> <r_epik_Ionization_Penalty_Neutral>
3.00988e-05

> <r_epik_State_Penalty>
-0

> <r_epik_Charging_Adjusted_Penalty>
0

> <i_epik_Tot_Q>
0

> <i_epik_Tot_abs_Q>
0

> <r_epik_Metal_State_Penalty>
-0

> <b_epik_Metal_Only>
0

> <s_lp_Force_Field>
OPLS_2005

> <r_lp_Energy>
17.9426

> <b_lp_Chiralities_Consistent>
1

> <s_lp_Variant>
AV-unprocessed.smi:1486-2

> <Gold.Version>
5.8.1

> <Gold.Id.Protein>
6NUR|6NUR_protein|mol2

> <Gold.PLP.Fitness>
50.8713

> <Gold.PLP.PLP>
-41.4037

> <Gold.PLP.part.hbond>
-3.0000

> <Gold.PLP.part.metal>
0.0000

> <Gold.PLP.part.buried>
-1.2992

> <Gold.PLP.part.nonpolar>
-36.2161

> <Gold.PLP.part.repulsive>
0.2391

> <Gold.PLP.ligand.clash>
0.0000

> <Gold.PLP.ligand.torsion>
0.9105

> <Gold.PLP.Chemscore.Hbond>
2.7200

> <Gold.PLP.Chemscore.CHOScore>
1.0000

> <Gold.PLP.Chemscore.Metal>
0.0000

> <Gold.Chemscore.Hbonds>
donor molecule, donor type, donor heavy atom, donor atom, acceptor molecule, acceptor atom, score
      P1  H  7989  7998       L1     8  0.45
      P1  H  7997  8008       L1    19  1.00
      P1  H  7997  8009       L1     8  0.17
      P1  H 10752 10763       L1     2  0.54
      L1  C    11    33       P1  8028  1.00

> <Gold.PLP.Chemscore.Internal.Correction>
0.1286

> <Gold.Rescore>
     Score         DG    S(hbond)    S(metal)    S(lipo)     H(rot)  DE(clash)    DE(int)     intcor
     16.25     -19.47       2.66        0.00      85.91       1.94       0.03       3.19       ----

> <Gold.Chemscore.Fitness>
16.2479

> <Gold.Chemscore.DG>
-19.4658

> <Gold.Chemscore.ZeroCoef>
-5.4800

> <Gold.Chemscore.Hbond>
2.6628

> <Gold.Chemscore.Metal>
0.0000

> <Gold.Chemscore.Lipo>
85.9084

> <Gold.Chemscore.Internal_Hbond>
0.0000

> <Gold.Chemscore.DEClash>
0.0263

> <Gold.Chemscore.DEInternal>
3.1916

> <Gold.Chemscore.Rot>
1.9373

> <Gold.Chemscore.Internal.Correction>
   9.000000E+99

> <Gold.Chemscore.Hbonds>
donor molecule, donor type, donor heavy atom, donor atom, acceptor molecule, acceptor atom, score
      P1  H  7989  7998       L1     8  0.07
      P1  H  7997  8008       L1    19  0.95
      P1  H  7997  8009       L1     8  0.17
      P1  H 10752 10763       L1     2  0.46

> <Gold.Chemscore.Hbond.Weighted>
-8.8939

> <Gold.Chemscore.Metal.Weighted>
-0.0000

> <Gold.Chemscore.Lipo.Weighted>
-10.0513

> <Gold.Chemscore.Internal_Hbond.Weighted>
0.0000

> <Gold.Chemscore.DEClash.Weighted>
0.0263

> <Gold.Chemscore.DEInternal.Weighted>
3.1916

> <Gold.Chemscore.Rot.Weighted>
4.9594

> <Gold.Chemscore.Internal.Correction.Weighted>
   9.000000E+99

> <Gold.Protein.RotatedTorsions>
[ 6907 6896 6895 6894 ] final   -4.08 input  -60.11 | X-H torsion
[ 7974 7965 7964 7962 ] final   41.61 input  175.53 | X-H torsion
[ 8008 7997 7996 7995 ] final -117.74 input   59.86 | X-H torsion
[ 10167 10162 10161 10158 ] final  147.89 input  -65.29 | X-H torsion
[ 10718 10713 10712 10709 ] final -113.45 input   66.30 | X-H torsion
[ 10763 10752 10751 10750 ] final   43.63 input  -60.55 | X-H torsion
[ 11005 11000 10999 10996 ] final  144.37 input  -57.11 | X-H torsion

> <Gold.Protein.ActiveResidues>
 VAL166  LYS551  ARG553  GLY616  TRP617  ASP618  TYR619  PRO620  LYS621  CYS622 
 ASP623  PHE694  ASN695  SER759  ASP760  ASP761  ALA762  ILE779  LEU786  VAL792 
 PHE793  MET794  SER795  GLU796  ALA797  LYS798  CYS799  TRP800  GLU811  SER814 

> <Gold.Protein.RotatedAtoms>
  151.5035  135.1062  159.9834 H   0  0  0  0  0  0  0  0  0  0  0  0  # atno 6907 bound_to 6896
  152.4692  133.7986  159.6951 H   0  0  0  0  0  0  0  0  0  0  0  0  # atno 6908 bound_to 6896
  150.8691  133.7468  159.2993 H   0  0  0  0  0  0  0  0  0  0  0  0  # atno 6909 bound_to 6896
  146.0809  139.5396  142.9537 H   0  0  0  0  0  0  0  0  0  0  0  0  # atno 7974 bound_to 7965
  155.0886  140.0395  157.2661 H   0  0  0  0  0  0  0  0  0  0  0  0  # atno 8008 bound_to 7997
  154.6850  140.2641  155.6845 H   0  0  0  0  0  0  0  0  0  0  0  0  # atno 8009 bound_to 7997
  156.2708  140.2771  156.1408 H   0  0  0  0  0  0  0  0  0  0  0  0  # atno 8010 bound_to 7997
  139.4883  144.5721  151.7034 H   0  0  0  0  0  0  0  0  0  0  0  0  # atno 10167 bound_to 10162
  156.0767  130.5974  150.8644 H   0  0  0  0  0  0  0  0  0  0  0  0  # atno 10718 bound_to 10713
  152.9857  135.6095  154.3143 H   0  0  0  0  0  0  0  0  0  0  0  0  # atno 10763 bound_to 10752
  154.2856  135.2776  155.2679 H   0  0  0  0  0  0  0  0  0  0  0  0  # atno 10764 bound_to 10752
  154.4998  135.5870  153.6579 H   0  0  0  0  0  0  0  0  0  0  0  0  # atno 10765 bound_to 10752
  140.0627  134.9195  157.1212 H   0  0  0  0  0  0  0  0  0  0  0  0  # atno 11005 bound_to 11000
  145.6219  141.0321  143.1910 LP  0  0  0  0  0  0  0  0  0  0  0  0  # atno 17320 bound_to 7965
  144.7293  139.7777  143.7353 LP  0  0  0  0  0  0  0  0  0  0  0  0  # atno 17321 bound_to 7965
  140.5310  144.0730  150.6054 LP  0  0  0  0  0  0  0  0  0  0  0  0  # atno 17342 bound_to 10162
  140.3720  143.2849  152.0268 LP  0  0  0  0  0  0  0  0  0  0  0  0  # atno 17343 bound_to 10162
  157.5866  131.0945  150.9186 LP  0  0  0  0  0  0  0  0  0  0  0  0  # atno 17370 bound_to 10713
  156.9371  130.5371  149.5279 LP  0  0  0  0  0  0  0  0  0  0  0  0  # atno 17371 bound_to 10713
  140.3745  134.2354  155.7175 LP  0  0  0  0  0  0  0  0  0  0  0  0  # atno 17394 bound_to 11000
  141.1980  133.8046  157.0603 LP  0  0  0  0  0  0  0  0  0  0  0  0  # atno 17395 bound_to 11000

$$$$
