AV-unprocessed.smi:3237|AV-procd|sdf|12367|dock6
  -GOLD-   2272018223D 1   1.00000     0.00000
 Structure written by MMmdl.
 36 38  0  0  0  0  0  0  0  0  3 V2000
  152.6532  137.9047  158.4440 C   0  0  0  0  0  0  0  0  0  0  0  0
  152.3035  138.4639  157.1072 C   0  0  0  0  0  0  0  0  0  0  0  0
  151.1111  138.7046  156.4860 C   0  0  0  0  0  0  0  0  0  0  0  0
  151.5020  139.2496  155.2326 C   0  0  0  0  0  0  0  0  0  0  0  0
  150.6737  139.6410  154.2518 N   0  5  0  0  0  0  0  0  0  0  0  0
  149.4507  140.1332  154.5520 C   0  0  0  0  0  0  0  0  0  0  0  0
  149.0088  140.3607  155.6805 O   0  0  0  0  0  0  0  0  0  0  0  0
  148.6879  140.3741  153.4766 N   0  0  0  0  0  0  0  0  0  0  0  0
  147.3273  140.8987  153.5066 C   0  0  2  0  0  0  0  0  0  0  0  0
  147.2078  142.3170  154.0706 C   0  0  0  0  0  0  0  0  0  0  0  0
  145.8053  142.3639  154.6983 C   0  0  0  0  0  0  0  0  0  0  0  0
  145.2802  140.9784  154.6803 N   0  3  2  0  0  0  0  0  0  0  0  0
  144.4735  140.6182  155.8652 C   0  0  0  0  0  0  0  0  0  0  0  0
  143.4057  139.5895  155.5795 C   0  0  0  0  0  0  0  0  0  0  0  0
  143.0284  141.0438  155.7626 C   0  0  0  0  0  0  0  0  0  0  0  0
  146.4325  140.0924  154.4416 C   0  0  0  0  0  0  0  0  0  0  0  0
  152.8159  139.3182  155.0983 N   0  0  0  0  0  0  0  0  0  0  0  0
  153.3375  138.8236  156.2998 O   0  0  0  0  0  0  0  0  0  0  0  0
  152.0687  137.0085  158.6518 H   0  0  0  0  0  0  0  0  0  0  0  0
  152.4493  138.6314  159.2304 H   0  0  0  0  0  0  0  0  0  0  0  0
  153.7088  137.6377  158.4949 H   0  0  0  0  0  0  0  0  0  0  0  0
  150.1174  138.5238  156.8674 H   0  0  0  0  0  0  0  0  0  0  0  0
  149.0879  140.1754  152.5711 H   0  0  0  0  0  0  0  0  0  0  0  0
  146.9009  140.8700  152.5019 H   0  0  0  0  0  0  0  0  0  0  0  0
  147.9592  142.4830  154.8443 H   0  0  0  0  0  0  0  0  0  0  0  0
  147.3490  143.0796  153.3041 H   0  0  0  0  0  0  0  0  0  0  0  0
  145.8624  142.7553  155.7151 H   0  0  0  0  0  0  0  0  0  0  0  0
  145.1339  143.0094  154.1314 H   0  0  0  0  0  0  0  0  0  0  0  0
  144.9858  140.6337  156.8256 H   0  0  0  0  0  0  0  0  0  0  0  0
  143.3442  139.1765  154.5741 H   0  0  0  0  0  0  0  0  0  0  0  0
  143.1436  138.9021  156.3812 H   0  0  0  0  0  0  0  0  0  0  0  0
  142.5187  141.3147  156.6850 H   0  0  0  0  0  0  0  0  0  0  0  0
  142.7156  141.5976  154.8790 H   0  0  0  0  0  0  0  0  0  0  0  0
  146.1243  139.1398  154.0094 H   0  0  0  0  0  0  0  0  0  0  0  0
  146.9453  139.8904  155.3842 H   0  0  0  0  0  0  0  0  0  0  0  0
  144.6890  140.9049  153.8648 H   0  0  0  0  0  0  0  0  0  0  0  0
  1  2  1  0  0  0  0
  1 19  1  0  0  0  0
  1 20  1  0  0  0  0
  1 21  1  0  0  0  0
  2 18  1  0  0  0  0
  2  3  2  0  0  0  0
  3  4  1  0  0  0  0
  3 22  1  0  0  0  0
  4  5  1  0  0  0  0
  4 17  2  0  0  0  0
  5  6  1  0  0  0  0
  6  7  2  0  0  0  0
  6  8  1  0  0  0  0
  8  9  1  0  0  0  0
  8 23  1  0  0  0  0
  9 16  1  0  0  0  0
  9 10  1  0  0  0  0
  9 24  1  0  0  0  0
 10 11  1  0  0  0  0
 10 25  1  0  0  0  0
 10 26  1  0  0  0  0
 11 12  1  0  0  0  0
 11 27  1  0  0  0  0
 11 28  1  0  0  0  0
 12 13  1  0  0  0  0
 12 16  1  0  0  0  0
 12 36  1  0  0  0  0
 13 15  1  0  0  0  0
 13 14  1  0  0  0  0
 13 29  1  0  0  0  0
 14 15  1  0  0  0  0
 14 30  1  0  0  0  0
 14 31  1  0  0  0  0
 15 32  1  0  0  0  0
 15 33  1  0  0  0  0
 16 34  1  0  0  0  0
 16 35  1  0  0  0  0
 17 18  1  0  0  0  0
M  CHG  1   5  -1
M  CHG  1  12   1
M  END
> <s_m_source_file>
AV-unprocessed.smi

> <i_m_source_file_index>
3237

> <i_lp_mmshare_version>
43012

> <i_f3d_flags>
0

> <s_epik_input>
W0NIM11jMVtjSF1jKG5vMSlbTkhdQyg9TylbTkhdW0NAQEhdMltDSDJdW0NIMl1OKFtDSDJdMilbQ0hdM1tDSDJdW0NIMl0z

> <s_epik_cmdline>
J2VwaWtfcHl0aG9uJywgJy1waCcsICc3LjAnLCAnLXRuJywgJzgnLCAnLW1hJywgJzIwMCcsICctbWV0YWxfYmluZGluZycsICctaW1hZScsICc8aW5maWxlLm1hZT4nLCAnLW9tYWUnLCAnPG91dGZpbGUubWFlPic=

> <r_epik_Ionization_Penalty>
6.08472

> <r_epik_Ionization_Penalty_Charging>
6.08464

> <r_epik_Ionization_Penalty_Neutral>
8.41751e-05

> <r_epik_State_Penalty>
6.08438

> <r_epik_Charging_Adjusted_Penalty>
12.169

> <i_epik_Tot_Q>
0

> <i_epik_Tot_abs_Q>
2

> <r_epik_Metal_State_Penalty>
2.0369

> <b_epik_Metal_Only>
1

> <s_lp_Force_Field>
OPLS_2005

> <r_lp_Energy>
23.7168

> <b_lp_Chiralities_Consistent>
1

> <s_lp_Variant>
AV-unprocessed.smi:3237-5

> <Gold.Version>
5.8.1

> <Gold.Id.Protein>
6NUR|6NUR_protein|mol2

> <Gold.PLP.Fitness>
41.2336

> <Gold.PLP.PLP>
-26.7490

> <Gold.PLP.part.hbond>
-5.2501

> <Gold.PLP.part.metal>
0.0000

> <Gold.PLP.part.buried>
-5.7522

> <Gold.PLP.part.nonpolar>
-17.1278

> <Gold.PLP.part.repulsive>
0.3513

> <Gold.PLP.ligand.clash>
0.0000

> <Gold.PLP.ligand.torsion>
0.8678

> <Gold.PLP.Chemscore.Hbond>
4.9833

> <Gold.PLP.Chemscore.CHOScore>
0.0000

> <Gold.PLP.Chemscore.Metal>
0.0000

> <Gold.Chemscore.Hbonds>
donor molecule, donor type, donor heavy atom, donor atom, acceptor molecule, acceptor atom, score
      L1  H     8    23       P1  7957  0.94
      L1  H    12    36       P1 10175  2.00
      P1  H  7989  7998       L1     5  1.00
      P1  H  7997  8008       L1    18  0.82

> <Gold.PLP.Chemscore.Internal.Correction>
1.2703

> <Gold.Rescore>
     Score         DG    S(hbond)    S(metal)    S(lipo)     H(rot)  DE(clash)    DE(int)     intcor
     12.52     -16.12       2.84        0.00      37.17       1.25       0.03       3.57       ----

> <Gold.Chemscore.Fitness>
12.5199

> <Gold.Chemscore.DG>
-16.1242

> <Gold.Chemscore.ZeroCoef>
-5.4800

> <Gold.Chemscore.Hbond>
2.8403

> <Gold.Chemscore.Metal>
0.0000

> <Gold.Chemscore.Lipo>
37.1663

> <Gold.Chemscore.Internal_Hbond>
0.0000

> <Gold.Chemscore.DEClash>
0.0318

> <Gold.Chemscore.DEInternal>
3.5725

> <Gold.Chemscore.Rot>
1.2464

> <Gold.Chemscore.Internal.Correction>
   9.000000E+99

> <Gold.Chemscore.Hbonds>
donor molecule, donor type, donor heavy atom, donor atom, acceptor molecule, acceptor atom, score
      L1  H     8    23       P1  7957  0.90
      L1  H    12    36       P1 10175  0.91
      P1  H  7989  7998       L1     5  0.22
      P1  H  7997  8008       L1    18  0.13

> <Gold.Chemscore.Hbond.Weighted>
-9.4866

> <Gold.Chemscore.Metal.Weighted>
-0.0000

> <Gold.Chemscore.Lipo.Weighted>
-4.3485

> <Gold.Chemscore.Internal_Hbond.Weighted>
0.0000

> <Gold.Chemscore.DEClash.Weighted>
0.0318

> <Gold.Chemscore.DEInternal.Weighted>
3.5725

> <Gold.Chemscore.Rot.Weighted>
3.1909

> <Gold.Chemscore.Internal.Correction.Weighted>
   9.000000E+99

> <Gold.Protein.RotatedTorsions>
[ 6907 6896 6895 6894 ] final  121.60 input  -60.11 | X-H torsion
[ 7974 7965 7964 7962 ] final  -48.29 input  175.53 | X-H torsion
[ 8008 7997 7996 7995 ] final  -58.74 input   59.86 | X-H torsion
[ 10167 10162 10161 10158 ] final  -87.73 input  -65.29 | X-H torsion
[ 10718 10713 10712 10709 ] final   66.47 input   66.30 | X-H torsion
[ 10763 10752 10751 10750 ] final -171.06 input  -60.55 | X-H torsion
[ 11005 11000 10999 10996 ] final   27.20 input  -57.11 | X-H torsion

> <Gold.Protein.ActiveResidues>
 VAL166  LYS551  ARG553  GLY616  TRP617  ASP618  TYR619  PRO620  LYS621  CYS622 
 ASP623  PHE694  ASN695  SER759  ASP760  ASP761  ALA762  ILE779  LEU786  VAL792 
 PHE793  MET794  SER795  GLU796  ALA797  LYS798  CYS799  TRP800  GLU811  SER814 

> <Gold.Protein.RotatedAtoms>
  152.4309  133.7276  159.6568 H   0  0  0  0  0  0  0  0  0  0  0  0  # atno 6907 bound_to 6896
  150.8188  133.8278  159.3154 H   0  0  0  0  0  0  0  0  0  0  0  0  # atno 6908 bound_to 6896
  151.5967  135.1052  160.0102 H   0  0  0  0  0  0  0  0  0  0  0  0  # atno 6909 bound_to 6896
  145.9527  140.7556  142.9496 H   0  0  0  0  0  0  0  0  0  0  0  0  # atno 7974 bound_to 7965
  154.4321  140.1077  156.6004 H   0  0  0  0  0  0  0  0  0  0  0  0  # atno 8008 bound_to 7997
  155.5917  140.3492  155.4549 H   0  0  0  0  0  0  0  0  0  0  0  0  # atno 8009 bound_to 7997
  156.0241  140.1246  157.0316 H   0  0  0  0  0  0  0  0  0  0  0  0  # atno 8010 bound_to 7997
  140.3816  143.2746  151.9376 H   0  0  0  0  0  0  0  0  0  0  0  0  # atno 10167 bound_to 10162
  157.6171  130.9270  150.0114 H   0  0  0  0  0  0  0  0  0  0  0  0  # atno 10718 bound_to 10713
  154.6346  135.2891  155.0175 H   0  0  0  0  0  0  0  0  0  0  0  0  # atno 10763 bound_to 10752
  154.1324  135.6531  153.4928 H   0  0  0  0  0  0  0  0  0  0  0  0  # atno 10764 bound_to 10752
  153.0296  135.5313  154.7188 H   0  0  0  0  0  0  0  0  0  0  0  0  # atno 10765 bound_to 10752
  140.3288  134.2461  155.7705 H   0  0  0  0  0  0  0  0  0  0  0  0  # atno 11005 bound_to 11000
  144.6799  140.2462  143.7337 LP  0  0  0  0  0  0  0  0  0  0  0  0  # atno 17320 bound_to 7965
  145.8148  139.2018  143.1972 LP  0  0  0  0  0  0  0  0  0  0  0  0  # atno 17321 bound_to 7965
  139.4795  144.5813  151.7928 LP  0  0  0  0  0  0  0  0  0  0  0  0  # atno 17342 bound_to 10162
  140.4931  144.1280  150.5954 LP  0  0  0  0  0  0  0  0  0  0  0  0  # atno 17343 bound_to 10162
  156.1298  130.3643  149.9750 LP  0  0  0  0  0  0  0  0  0  0  0  0  # atno 17370 bound_to 10713
  156.7813  130.9222  151.3646 LP  0  0  0  0  0  0  0  0  0  0  0  0  # atno 17371 bound_to 10713
  141.2068  133.7822  157.0153 LP  0  0  0  0  0  0  0  0  0  0  0  0  # atno 17394 bound_to 11000
  140.0878  134.9610  157.1728 LP  0  0  0  0  0  0  0  0  0  0  0  0  # atno 17395 bound_to 11000

$$$$
