AV-unprocessed.smi:897|AV-procd|sdf|4081|dock2
  -GOLD-   22720 1573D 1   1.00000     0.00000
 Structure written by MMmdl.
 35 37  0  0  0  0  0  0  0  0  1 V2000
  152.6509  143.7936  159.0339 C   0  0  0  0  0  0  0  0  0  0  0  0
  152.7246  142.3004  159.2743 C   0  0  0  0  0  0  0  0  0  0  0  0
  153.6488  141.7581  160.1864 C   0  0  0  0  0  0  0  0  0  0  0  0
  153.6758  140.3611  160.3719 C   0  0  0  0  0  0  0  0  0  0  0  0
  154.6690  139.7643  161.3579 C   0  0  0  0  0  0  0  0  0  0  0  0
  152.7717  139.5571  159.6294 C   0  0  0  0  0  0  0  0  0  0  0  0
  152.7705  138.1039  159.7867 C   0  0  0  0  0  0  0  0  0  0  0  0
  152.7691  136.9537  159.9117 N   0  0  0  0  0  0  0  0  0  0  0  0
  151.8773  140.2009  158.7299 C   0  0  0  0  0  0  0  0  0  0  0  0
  150.9592  139.4476  157.9745 N   0  0  0  0  0  0  0  0  0  0  0  0
  150.4218  139.9501  156.7134 C   0  0  2  0  0  0  0  0  0  0  0  0
  149.5601  138.9202  155.9792 C   0  0  0  0  0  0  0  0  0  0  0  0
  150.2186  138.8877  154.5925 C   0  0  2  0  0  0  0  0  0  0  0  0
  151.5516  138.1289  154.6193 C   0  0  0  0  0  0  0  0  0  0  0  0
  152.4541  139.1138  155.3601 C   0  0  0  0  0  0  0  0  0  0  0  0
  151.4883  140.2762  155.6480 C   0  0  1  0  0  0  0  0  0  0  0  0
  150.6839  140.2225  154.4819 O   0  0  0  0  0  0  0  0  0  0  0  0
  151.8617  141.5450  158.5660 N   0  0  0  0  0  0  0  0  0  0  0  0
  153.2777  144.3386  159.7402 H   0  0  0  0  0  0  0  0  0  0  0  0
  151.6259  144.1478  159.1469 H   0  0  0  0  0  0  0  0  0  0  0  0
  152.9877  144.0303  158.0245 H   0  0  0  0  0  0  0  0  0  0  0  0
  154.3226  142.4017  160.7331 H   0  0  0  0  0  0  0  0  0  0  0  0
  155.3409  139.0699  160.8526 H   0  0  0  0  0  0  0  0  0  0  0  0
  154.1460  139.2269  162.1498 H   0  0  0  0  0  0  0  0  0  0  0  0
  155.2790  140.5380  161.8252 H   0  0  0  0  0  0  0  0  0  0  0  0
  150.8955  138.4548  158.1486 H   0  0  0  0  0  0  0  0  0  0  0  0
  149.8131  140.8351  156.9055 H   0  0  0  0  0  0  0  0  0  0  0  0
  149.5527  137.9356  156.4495 H   0  0  0  0  0  0  0  0  0  0  0  0
  148.5294  139.2700  155.9131 H   0  0  0  0  0  0  0  0  0  0  0  0
  149.5484  138.5755  153.7912 H   0  0  0  0  0  0  0  0  0  0  0  0
  151.4718  137.1650  155.1230 H   0  0  0  0  0  0  0  0  0  0  0  0
  151.9220  137.9575  153.6080 H   0  0  0  0  0  0  0  0  0  0  0  0
  152.8980  138.6907  156.2614 H   0  0  0  0  0  0  0  0  0  0  0  0
  153.2661  139.4442  154.7114 H   0  0  0  0  0  0  0  0  0  0  0  0
  151.9862  141.2344  155.7982 H   0  0  0  0  0  0  0  0  0  0  0  0
  1  2  1  0  0  0  0
  1 19  1  0  0  0  0
  1 20  1  0  0  0  0
  1 21  1  0  0  0  0
  2 18  1  0  0  0  0
  2  3  2  0  0  0  0
  3  4  1  0  0  0  0
  3 22  1  0  0  0  0
  4  5  1  0  0  0  0
  4  6  2  0  0  0  0
  5 23  1  0  0  0  0
  5 24  1  0  0  0  0
  5 25  1  0  0  0  0
  6  7  1  0  0  0  0
  6  9  1  0  0  0  0
  7  8  3  0  0  0  0
  9 10  1  0  0  0  0
  9 18  2  0  0  0  0
 10 11  1  0  0  0  0
 10 26  1  0  0  0  0
 11 16  1  0  0  0  0
 11 12  1  0  0  0  0
 11 27  1  0  0  0  0
 12 13  1  0  0  0  0
 12 28  1  0  0  0  0
 12 29  1  0  0  0  0
 13 17  1  0  0  0  0
 13 14  1  0  0  0  0
 13 30  1  0  0  0  0
 14 15  1  0  0  0  0
 14 31  1  0  0  0  0
 14 32  1  0  0  0  0
 15 16  1  0  0  0  0
 15 33  1  0  0  0  0
 15 34  1  0  0  0  0
 16 17  1  0  0  0  0
 16 35  1  0  0  0  0
M  END
> <s_m_source_file>
AV-unprocessed.smi

> <i_m_source_file_index>
897

> <i_lp_mmshare_version>
43012

> <i_f3d_flags>
0

> <s_epik_input>
W0NIM11jMVtjSF1jKFtDSDNdKWMoQyNOKWMobjEpW05IXVtDQEhdKFtDSDJdW0NAQEhdMjMpW0NAQEhdKE8zKVtDSDJdW0NIMl0y

> <s_epik_cmdline>
J2VwaWtfcHl0aG9uJywgJy1waCcsICc3LjAnLCAnLXRuJywgJzgnLCAnLW1hJywgJzIwMCcsICctbWV0YWxfYmluZGluZycsICctaW1hZScsICc8aW5maWxlLm1hZT4nLCAnLW9tYWUnLCAnPG91dGZpbGUubWFlPic=

> <r_lp_tautomer_probability>
1

> <r_epik_Ionization_Penalty>
0.000502654

> <r_epik_Ionization_Penalty_Charging>
0

> <r_epik_Ionization_Penalty_Neutral>
0.000502654

> <r_epik_State_Penalty>
-0

> <r_epik_Charging_Adjusted_Penalty>
0

> <i_epik_Tot_Q>
0

> <i_epik_Tot_abs_Q>
0

> <r_epik_Metal_State_Penalty>
-0

> <b_epik_Metal_Only>
0

> <s_lp_Force_Field>
OPLS_2005

> <r_lp_Energy>
43.9229

> <b_lp_Chiralities_Consistent>
1

> <s_lp_Variant>
AV-unprocessed.smi:897-3

> <Gold.Version>
5.8.1

> <Gold.Id.Protein>
6NUR|6NUR_protein|mol2

> <Gold.PLP.Fitness>
42.8483

> <Gold.PLP.PLP>
-37.1943

> <Gold.PLP.part.hbond>
-1.9120

> <Gold.PLP.part.metal>
0.0000

> <Gold.PLP.part.buried>
-4.3091

> <Gold.PLP.part.nonpolar>
-32.2161

> <Gold.PLP.part.repulsive>
0.1820

> <Gold.PLP.ligand.clash>
0.0000

> <Gold.PLP.ligand.torsion>
0.1518

> <Gold.PLP.Chemscore.Hbond>
1.9825

> <Gold.PLP.Chemscore.CHOScore>
0.0000

> <Gold.PLP.Chemscore.Metal>
0.0000

> <Gold.Chemscore.Hbonds>
donor molecule, donor type, donor heavy atom, donor atom, acceptor molecule, acceptor atom, score
      P1  H  6896  6907       L1     8  0.98
      P1  H  7989  7998       L1    17  0.94

> <Gold.PLP.Chemscore.Internal.Correction>
0.0101

> <Gold.Rescore>
     Score         DG    S(hbond)    S(metal)    S(lipo)     H(rot)  DE(clash)    DE(int)     intcor
     19.67     -19.93       1.89        0.00      91.41       1.00       0.11       0.15       ----

> <Gold.Chemscore.Fitness>
19.6738

> <Gold.Chemscore.DG>
-19.9335

> <Gold.Chemscore.ZeroCoef>
-5.4800

> <Gold.Chemscore.Hbond>
1.8919

> <Gold.Chemscore.Metal>
0.0000

> <Gold.Chemscore.Lipo>
91.4082

> <Gold.Chemscore.Internal_Hbond>
0.0000

> <Gold.Chemscore.DEClash>
0.1077

> <Gold.Chemscore.DEInternal>
0.1520

> <Gold.Chemscore.Rot>
1.0000

> <Gold.Chemscore.Internal.Correction>
   9.000000E+99

> <Gold.Chemscore.Hbonds>
donor molecule, donor type, donor heavy atom, donor atom, acceptor molecule, acceptor atom, score
      P1  H  6896  6907       L1     8  0.91
      P1  H  7989  7998       L1    17  0.23

> <Gold.Chemscore.Hbond.Weighted>
-6.3188

> <Gold.Chemscore.Metal.Weighted>
-0.0000

> <Gold.Chemscore.Lipo.Weighted>
-10.6948

> <Gold.Chemscore.Internal_Hbond.Weighted>
0.0000

> <Gold.Chemscore.DEClash.Weighted>
0.1077

> <Gold.Chemscore.DEInternal.Weighted>
0.1520

> <Gold.Chemscore.Rot.Weighted>
2.5600

> <Gold.Chemscore.Internal.Correction.Weighted>
   9.000000E+99

> <Gold.Protein.RotatedTorsions>
[ 6907 6896 6895 6894 ] final   17.93 input  -60.11 | X-H torsion
[ 7974 7965 7964 7962 ] final -168.40 input  175.53 | X-H torsion
[ 8008 7997 7996 7995 ] final -148.68 input   59.86 | X-H torsion
[ 10167 10162 10161 10158 ] final  -30.04 input  -65.29 | X-H torsion
[ 10718 10713 10712 10709 ] final -136.29 input   66.30 | X-H torsion
[ 10763 10752 10751 10750 ] final   80.46 input  -60.55 | X-H torsion
[ 11005 11000 10999 10996 ] final  -97.37 input  -57.11 | X-H torsion

> <Gold.Protein.ActiveResidues>
 VAL166  LYS551  ARG553  GLY616  TRP617  ASP618  TYR619  PRO620  LYS621  CYS622 
 ASP623  PHE694  ASN695  SER759  ASP760  ASP761  ALA762  ILE779  LEU786  VAL792 
 PHE793  MET794  SER795  GLU796  ALA797  LYS798  CYS799  TRP800  GLU811  SER814 

> <Gold.Protein.RotatedAtoms>
  151.8573  135.0537  160.0465 H   0  0  0  0  0  0  0  0  0  0  0  0  # atno 6907 bound_to 6896
  152.2690  133.5361  159.5436 H   0  0  0  0  0  0  0  0  0  0  0  0  # atno 6908 bound_to 6896
  150.7144  134.0640  159.3883 H   0  0  0  0  0  0  0  0  0  0  0  0  # atno 6909 bound_to 6896
  144.7204  140.2376  143.6296 H   0  0  0  0  0  0  0  0  0  0  0  0  # atno 7974 bound_to 7965
  155.5956  140.0657  157.2747 H   0  0  0  0  0  0  0  0  0  0  0  0  # atno 8008 bound_to 7997
  154.4293  140.1827  156.1166 H   0  0  0  0  0  0  0  0  0  0  0  0  # atno 8009 bound_to 7997
  156.0199  140.3318  155.7031 H   0  0  0  0  0  0  0  0  0  0  0  0  # atno 8010 bound_to 7997
  140.7254  143.3880  151.1480 H   0  0  0  0  0  0  0  0  0  0  0  0  # atno 10167 bound_to 10162
  156.2754  130.7290  151.1270 H   0  0  0  0  0  0  0  0  0  0  0  0  # atno 10718 bound_to 10713
  153.1035  135.4802  154.8910 H   0  0  0  0  0  0  0  0  0  0  0  0  # atno 10763 bound_to 10752
  154.7405  135.3081  154.8739 H   0  0  0  0  0  0  0  0  0  0  0  0  # atno 10764 bound_to 10752
  153.9348  135.6840  153.4798 H   0  0  0  0  0  0  0  0  0  0  0  0  # atno 10765 bound_to 10752
  141.1381  133.8166  157.0697 H   0  0  0  0  0  0  0  0  0  0  0  0  # atno 11005 bound_to 11000
  145.8351  139.2103  143.1860 LP  0  0  0  0  0  0  0  0  0  0  0  0  # atno 17320 bound_to 7965
  146.0396  140.8178  142.9835 LP  0  0  0  0  0  0  0  0  0  0  0  0  # atno 17321 bound_to 7965
  139.7480  143.8822  152.3069 LP  0  0  0  0  0  0  0  0  0  0  0  0  # atno 17342 bound_to 10162
  139.8666  144.7090  150.9037 LP  0  0  0  0  0  0  0  0  0  0  0  0  # atno 17343 bound_to 10162
  157.7297  131.0622  150.5759 LP  0  0  0  0  0  0  0  0  0  0  0  0  # atno 17370 bound_to 10713
  156.5860  130.4316  149.5957 LP  0  0  0  0  0  0  0  0  0  0  0  0  # atno 17371 bound_to 10713
  140.0519  134.9801  157.1152 LP  0  0  0  0  0  0  0  0  0  0  0  0  # atno 17394 bound_to 11000
  140.3977  134.2116  155.7164 LP  0  0  0  0  0  0  0  0  0  0  0  0  # atno 17395 bound_to 11000

$$$$
