AV-unprocessed.smi:198|AV-procd|sdf|1552|dock6
  -GOLD-   2262019423D 1   1.00000     0.00000
 Structure written by MMmdl.
 59 63  0  0  0  0  0  0  0  0  2 V2000
  151.7357  145.0347  158.7412 C   0  0  0  0  0  0  0  0  0  0  0  0
  151.6909  143.5568  158.7467 N   0  3  1  0  0  0  0  0  0  0  0  0
  151.4901  142.9918  157.3902 C   0  0  0  0  0  0  0  0  0  0  0  0
  151.3357  141.4631  157.4431 C   0  0  0  0  0  0  0  0  0  0  0  0
  152.5582  140.8019  158.1232 C   0  0  1  0  0  0  0  0  0  0  0  0
  152.7174  141.4274  159.5305 C   0  0  1  0  0  0  0  0  0  0  0  0
  153.8933  140.7864  160.2852 C   0  0  0  0  0  0  0  0  0  0  0  0
  153.6968  139.2674  160.3603 C   0  0  0  0  0  0  0  0  0  0  0  0
  153.5237  138.6747  158.9547 C   0  0  0  0  0  0  0  0  0  0  0  0
  152.4450  139.3379  158.2216 N   0  0  0  0  0  0  0  0  0  0  0  0
  152.1787  138.6600  157.0794 C   0  0  0  0  0  0  0  0  0  0  0  0
  152.8962  138.9074  155.9513 N   0  0  0  0  0  0  0  0  0  0  0  0
  152.6335  138.2275  154.8312 C   0  0  0  0  0  0  0  0  0  0  0  0
  151.7212  137.2747  154.6282 N   0  0  0  0  0  0  0  0  0  0  0  0
  151.0094  137.0134  155.7630 C   0  0  0  0  0  0  0  0  0  0  0  0
  151.1777  137.6548  157.0219 C   0  0  0  0  0  0  0  0  0  0  0  0
  150.2831  137.1360  157.9479 N   0  0  0  0  0  0  0  0  0  0  0  0
  149.6186  136.2375  157.2737 C   0  0  0  0  0  0  0  0  0  0  0  0
  149.9873  136.0965  155.9535 N   0  0  0  0  0  0  0  0  0  0  0  0
  149.4085  135.1903  155.0011 C   0  0  0  0  0  0  0  0  0  0  0  0
  148.4309  134.0923  155.4259 C   0  0  0  0  0  0  0  0  0  0  0  0
  148.9696  133.1880  154.2926 C   0  0  0  0  0  0  0  0  0  0  0  0
  149.1532  131.7129  154.6902 C   0  0  0  0  0  0  0  0  0  0  0  0
  149.9571  131.5704  155.8433 O   0  0  0  0  0  0  0  0  0  0  0  0
  148.1440  133.2676  152.9907 C   0  0  0  0  0  0  0  0  0  0  0  0
  147.3860  134.4569  152.9069 O   0  0  0  0  0  0  0  0  0  0  0  0
  150.2355  134.0743  154.3625 C   0  0  0  0  0  0  0  0  0  0  0  0
  152.8626  142.9574  159.4311 C   0  0  0  0  0  0  0  0  0  0  0  0
  152.5902  145.3987  158.1693 H   0  0  0  0  0  0  0  0  0  0  0  0
  151.8141  145.4218  159.7577 H   0  0  0  0  0  0  0  0  0  0  0  0
  150.8274  145.4456  158.2994 H   0  0  0  0  0  0  0  0  0  0  0  0
  150.5989  143.4316  156.9407 H   0  0  0  0  0  0  0  0  0  0  0  0
  152.3335  143.2614  156.7524 H   0  0  0  0  0  0  0  0  0  0  0  0
  150.4247  141.2046  157.9851 H   0  0  0  0  0  0  0  0  0  0  0  0
  151.2003  141.0955  156.4262 H   0  0  0  0  0  0  0  0  0  0  0  0
  153.4522  141.0311  157.5403 H   0  0  0  0  0  0  0  0  0  0  0  0
  151.8111  141.2173  160.1017 H   0  0  0  0  0  0  0  0  0  0  0  0
  154.8326  141.0134  159.7792 H   0  0  0  0  0  0  0  0  0  0  0  0
  153.9697  141.2001  161.2912 H   0  0  0  0  0  0  0  0  0  0  0  0
  154.5471  138.8026  160.8598 H   0  0  0  0  0  0  0  0  0  0  0  0
  152.8180  139.0387  160.9646 H   0  0  0  0  0  0  0  0  0  0  0  0
  154.4541  138.7782  158.3940 H   0  0  0  0  0  0  0  0  0  0  0  0
  153.3222  137.6055  159.0376 H   0  0  0  0  0  0  0  0  0  0  0  0
  153.2402  138.4831  153.9749 H   0  0  0  0  0  0  0  0  0  0  0  0
  148.8329  135.6501  157.7265 H   0  0  0  0  0  0  0  0  0  0  0  0
  148.9576  135.8072  154.2217 H   0  0  0  0  0  0  0  0  0  0  0  0
  148.6377  133.7001  156.4226 H   0  0  0  0  0  0  0  0  0  0  0  0
  147.3800  134.3679  155.3328 H   0  0  0  0  0  0  0  0  0  0  0  0
  148.1906  131.2497  154.9091 H   0  0  0  0  0  0  0  0  0  0  0  0
  149.5931  131.1348  153.8771 H   0  0  0  0  0  0  0  0  0  0  0  0
  150.8443  131.8107  155.6242 H   0  0  0  0  0  0  0  0  0  0  0  0
  148.7875  133.2013  152.1128 H   0  0  0  0  0  0  0  0  0  0  0  0
  147.4472  132.4324  152.9160 H   0  0  0  0  0  0  0  0  0  0  0  0
  147.9341  135.1394  152.5513 H   0  0  0  0  0  0  0  0  0  0  0  0
  150.6718  134.3345  153.3979 H   0  0  0  0  0  0  0  0  0  0  0  0
  150.9956  133.6708  155.0332 H   0  0  0  0  0  0  0  0  0  0  0  0
  153.7763  143.2197  158.8948 H   0  0  0  0  0  0  0  0  0  0  0  0
  152.9484  143.3823  160.4321 H   0  0  0  0  0  0  0  0  0  0  0  0
  150.8789  143.2967  159.2885 H   0  0  0  0  0  0  0  0  0  0  0  0
  1  2  1  0  0  0  0
  1 29  1  0  0  0  0
  1 30  1  0  0  0  0
  1 31  1  0  0  0  0
  2 28  1  0  0  0  0
  2  3  1  0  0  0  0
  2 59  1  0  0  0  0
  3  4  1  0  0  0  0
  3 32  1  0  0  0  0
  3 33  1  0  0  0  0
  4  5  1  0  0  0  0
  4 34  1  0  0  0  0
  4 35  1  0  0  0  0
  5 10  1  0  0  0  0
  5  6  1  0  0  0  0
  5 36  1  0  0  0  0
  6  7  1  0  0  0  0
  6 28  1  0  0  0  0
  6 37  1  0  0  0  0
  7  8  1  0  0  0  0
  7 38  1  0  0  0  0
  7 39  1  0  0  0  0
  8  9  1  0  0  0  0
  8 40  1  0  0  0  0
  8 41  1  0  0  0  0
  9 10  1  0  0  0  0
  9 42  1  0  0  0  0
  9 43  1  0  0  0  0
 10 11  1  0  0  0  0
 11 16  1  0  0  0  0
 11 12  2  0  0  0  0
 12 13  1  0  0  0  0
 13 14  2  0  0  0  0
 13 44  1  0  0  0  0
 14 15  1  0  0  0  0
 15 19  1  0  0  0  0
 15 16  2  0  0  0  0
 16 17  1  0  0  0  0
 17 18  2  0  0  0  0
 18 19  1  0  0  0  0
 18 45  1  0  0  0  0
 19 20  1  0  0  0  0
 20 27  1  0  0  0  0
 20 21  1  0  0  0  0
 20 46  1  0  0  0  0
 21 22  1  0  0  0  0
 21 47  1  0  0  0  0
 21 48  1  0  0  0  0
 22 23  1  0  0  0  0
 22 25  1  0  0  0  0
 22 27  1  0  0  0  0
 23 24  1  0  0  0  0
 23 49  1  0  0  0  0
 23 50  1  0  0  0  0
 24 51  1  0  0  0  0
 25 26  1  0  0  0  0
 25 52  1  0  0  0  0
 25 53  1  0  0  0  0
 26 54  1  0  0  0  0
 27 55  1  0  0  0  0
 27 56  1  0  0  0  0
 28 57  1  0  0  0  0
 28 58  1  0  0  0  0
M  CHG  1   2   1
M  END
> <s_m_source_file>
AV-unprocessed.smi

> <i_m_source_file_index>
198

> <i_lp_mmshare_version>
43012

> <i_f3d_flags>
0

> <s_epik_input>
W0NIMl0xW0NIMl1OKFtDSDNdKVtDSDJdW0NAQEhdKFtDQEhdMTIpW0NIMl1bQ0gyXVtDSDJdTjJjKG5bY0hdbjMpYyhjMzQpbltjSF1uNFtDSF0oW0NIMl01KVtDSDJdQzUoW0NIMl1bT0hdKVtDSDJdW09IXQ==

> <s_epik_cmdline>
J2VwaWtfcHl0aG9uJywgJy1waCcsICc3LjAnLCAnLXRuJywgJzgnLCAnLW1hJywgJzIwMCcsICctbWV0YWxfYmluZGluZycsICctaW1hZScsICc8aW5maWxlLm1hZT4nLCAnLW9tYWUnLCAnPG91dGZpbGUubWFlPic=

> <r_lp_tautomer_probability>
1

> <r_epik_Ionization_Penalty>
0.00239938

> <r_epik_Ionization_Penalty_Charging>
0.00138697

> <r_epik_Ionization_Penalty_Neutral>
0.00101241

> <r_epik_State_Penalty>
-0

> <r_epik_Charging_Adjusted_Penalty>
0.00138697

> <i_epik_Tot_Q>
1

> <i_epik_Tot_abs_Q>
1

> <r_epik_Metal_State_Penalty>
-0

> <b_epik_Metal_Only>
0

> <s_lp_Force_Field>
OPLS_2005

> <r_lp_Energy>
56.2866

> <b_lp_Chiralities_Consistent>
1

> <s_lp_Variant>
AV-unprocessed.smi:198-1

> <Gold.Version>
5.8.1

> <Gold.Id.Protein>
6NUR|6NUR_protein|mol2

> <Gold.PLP.Fitness>
51.8678

> <Gold.PLP.PLP>
-44.7807

> <Gold.PLP.part.hbond>
-3.0000

> <Gold.PLP.part.metal>
0.0000

> <Gold.PLP.part.buried>
-8.3766

> <Gold.PLP.part.nonpolar>
-33.8191

> <Gold.PLP.part.repulsive>
0.1767

> <Gold.PLP.ligand.clash>
0.0000

> <Gold.PLP.ligand.torsion>
1.1826

> <Gold.PLP.Chemscore.Hbond>
2.9350

> <Gold.PLP.Chemscore.CHOScore>
0.0000

> <Gold.PLP.Chemscore.Metal>
0.0000

> <Gold.Chemscore.Hbonds>
donor molecule, donor type, donor heavy atom, donor atom, acceptor molecule, acceptor atom, score
      L1  H    26    54       P1  7948  1.00
      P1  H  7997  8008       L1    12  1.00
      P1  H 10752 10764       L1    14  0.92

> <Gold.PLP.Chemscore.Internal.Correction>
0.6473

> <Gold.Rescore>
     Score         DG    S(hbond)    S(metal)    S(lipo)     H(rot)  DE(clash)    DE(int)     intcor
     14.91     -17.21       1.95        0.00     112.02       3.08       0.08       2.22       ----

> <Gold.Chemscore.Fitness>
14.9075

> <Gold.Chemscore.DG>
-17.2129

> <Gold.Chemscore.ZeroCoef>
-5.4800

> <Gold.Chemscore.Hbond>
1.9483

> <Gold.Chemscore.Metal>
0.0000

> <Gold.Chemscore.Lipo>
112.0153

> <Gold.Chemscore.Internal_Hbond>
0.0000

> <Gold.Chemscore.DEClash>
0.0825

> <Gold.Chemscore.DEInternal>
2.2229

> <Gold.Chemscore.Rot>
3.0781

> <Gold.Chemscore.Internal.Correction>
   9.000000E+99

> <Gold.Chemscore.Hbonds>
donor molecule, donor type, donor heavy atom, donor atom, acceptor molecule, acceptor atom, score
      L1  H    26    54       P1  7948  0.96
      P1  H  7997  8008       L1    12  0.78
      P1  H 10752 10764       L1    14  0.15

> <Gold.Chemscore.Hbond.Weighted>
-6.5072

> <Gold.Chemscore.Metal.Weighted>
-0.0000

> <Gold.Chemscore.Lipo.Weighted>
-13.1058

> <Gold.Chemscore.Internal_Hbond.Weighted>
0.0000

> <Gold.Chemscore.DEClash.Weighted>
0.0825

> <Gold.Chemscore.DEInternal.Weighted>
2.2229

> <Gold.Chemscore.Rot.Weighted>
7.8800

> <Gold.Chemscore.Internal.Correction.Weighted>
   9.000000E+99

> <Gold.Protein.RotatedTorsions>
[ 6907 6896 6895 6894 ] final  158.52 input  -60.11 | X-H torsion
[ 7974 7965 7964 7962 ] final   85.87 input  175.53 | X-H torsion
[ 8008 7997 7996 7995 ] final  -41.49 input   59.86 | X-H torsion
[ 10167 10162 10161 10158 ] final -145.65 input  -65.29 | X-H torsion
[ 10718 10713 10712 10709 ] final    6.37 input   66.30 | X-H torsion
[ 10763 10752 10751 10750 ] final  -81.82 input  -60.55 | X-H torsion
[ 11005 11000 10999 10996 ] final   37.25 input  -57.11 | X-H torsion

> <Gold.Protein.ActiveResidues>
 VAL166  LYS551  ARG553  GLY616  TRP617  ASP618  TYR619  PRO620  LYS621  CYS622 
 ASP623  PHE694  ASN695  SER759  ASP760  ASP761  ALA762  ILE779  LEU786  VAL792 
 PHE793  MET794  SER795  GLU796  ALA797  LYS798  CYS799  TRP800  GLU811  SER814 

> <Gold.Protein.RotatedAtoms>
  151.9992  133.3819  159.4174 H   0  0  0  0  0  0  0  0  0  0  0  0  # atno 6907 bound_to 6896
  150.6912  134.3853  159.5061 H   0  0  0  0  0  0  0  0  0  0  0  0  # atno 6908 bound_to 6896
  152.1597  134.8921  160.0593 H   0  0  0  0  0  0  0  0  0  0  0  0  # atno 6909 bound_to 6896
  145.5798  139.2323  143.2359 H   0  0  0  0  0  0  0  0  0  0  0  0  # atno 7974 bound_to 7965
  154.4004  140.1498  156.3199 H   0  0  0  0  0  0  0  0  0  0  0  0  # atno 8008 bound_to 7997
  155.8539  140.3456  155.5690 H   0  0  0  0  0  0  0  0  0  0  0  0  # atno 8009 bound_to 7997
  155.7954  140.0862  157.1977 H   0  0  0  0  0  0  0  0  0  0  0  0  # atno 8010 bound_to 7997
  139.7786  143.8134  152.2635 H   0  0  0  0  0  0  0  0  0  0  0  0  # atno 10167 bound_to 10162
  156.9211  130.5791  149.5648 H   0  0  0  0  0  0  0  0  0  0  0  0  # atno 10718 bound_to 10713
  154.5683  135.5613  153.7071 H   0  0  0  0  0  0  0  0  0  0  0  0  # atno 10763 bound_to 10752
  153.0040  135.6290  154.2150 H   0  0  0  0  0  0  0  0  0  0  0  0  # atno 10764 bound_to 10752
  154.2089  135.2874  155.2945 H   0  0  0  0  0  0  0  0  0  0  0  0  # atno 10765 bound_to 10752
  140.2244  134.3602  155.7991 H   0  0  0  0  0  0  0  0  0  0  0  0  # atno 11005 bound_to 11000
  146.1725  140.6624  142.9227 LP  0  0  0  0  0  0  0  0  0  0  0  0  # atno 17320 bound_to 7965
  144.7399  140.4914  143.6876 LP  0  0  0  0  0  0  0  0  0  0  0  0  # atno 17321 bound_to 7965
  139.8190  144.7304  150.9598 LP  0  0  0  0  0  0  0  0  0  0  0  0  # atno 17342 bound_to 10162
  140.7817  143.4177  151.0890 LP  0  0  0  0  0  0  0  0  0  0  0  0  # atno 17343 bound_to 10162
  156.0490  130.5562  150.8947 LP  0  0  0  0  0  0  0  0  0  0  0  0  # atno 17370 bound_to 10713
  157.5907  131.0944  150.9124 LP  0  0  0  0  0  0  0  0  0  0  0  0  # atno 17371 bound_to 10713
  141.2221  133.7211  156.8629 LP  0  0  0  0  0  0  0  0  0  0  0  0  # atno 17394 bound_to 11000
  140.1816  134.9029  157.2955 LP  0  0  0  0  0  0  0  0  0  0  0  0  # atno 17395 bound_to 11000

$$$$
