AV-unprocessed.smi:189|AV-procd|sdf|1477|dock2
  -GOLD-   2262019293D 1   1.00000     0.00000
 Structure written by MMmdl.
 53 57  0  0  0  0  0  0  0  0  1 V2000
  152.4196  139.1101  159.5491 C   0  0  0  0  0  0  0  0  0  0  0  0
  153.1404  140.4556  159.3216 C   0  0  2  0  0  0  0  0  0  0  0  0
  153.1706  141.2927  160.6241 C   0  0  0  0  0  0  0  0  0  0  0  0
  152.8139  142.6999  160.1554 C   0  0  2  0  0  0  0  0  0  0  0  0
  152.1850  143.6753  161.1577 C   0  0  0  0  0  0  0  0  0  0  0  0
  151.8461  144.9932  160.4295 C   0  0  0  0  0  0  0  0  0  0  0  0
  150.9863  144.7633  159.1655 C   0  0  0  0  0  0  0  0  0  0  0  0
  151.5955  143.7065  158.2195 C   0  0  0  0  0  0  0  0  0  0  0  0
  151.8524  142.4117  159.0123 C   0  0  1  0  0  0  0  0  0  0  0  0
  152.5101  141.3191  158.3116 N   0  0  0  0  0  0  0  0  0  0  0  0
  151.9865  140.7544  157.1945 C   0  0  0  0  0  0  0  0  0  0  0  0
  152.7216  139.8688  156.4720 N   0  0  0  0  0  0  0  0  0  0  0  0
  152.2207  139.3299  155.3565 C   0  0  0  0  0  0  0  0  0  0  0  0
  151.0303  139.5383  154.7903 N   0  0  0  0  0  0  0  0  0  0  0  0
  150.2887  140.4270  155.5118 C   0  0  0  0  0  0  0  0  0  0  0  0
  150.6856  141.0736  156.7157 C   0  0  0  0  0  0  0  0  0  0  0  0
  149.6665  141.9040  157.1661 N   0  0  0  0  0  0  0  0  0  0  0  0
  148.7239  141.7623  156.2747 C   0  0  0  0  0  0  0  0  0  0  0  0
  149.0177  140.9026  155.2401 N   0  0  0  0  0  0  0  0  0  0  0  0
  148.1590  140.5639  154.1153 C   0  0  0  0  0  0  0  0  0  0  0  0
  146.8685  139.8036  154.5145 C   0  0  1  0  0  0  0  0  0  0  0  0
  146.1879  139.3978  153.3407 O   0  0  0  0  0  0  0  0  0  0  0  0
  147.1111  138.5815  155.4009 C   0  0  0  0  0  0  0  0  0  0  0  0
  146.9110  139.1413  156.8007 C   0  0  0  0  0  0  0  0  0  0  0  0
  145.7959  139.9980  156.6273 O   0  0  0  0  0  0  0  0  0  0  0  0
  145.9418  140.6776  155.3847 C   0  0  0  0  0  0  0  0  0  0  0  0
  152.8846  138.5566  160.3650 H   0  0  0  0  0  0  0  0  0  0  0  0
  152.4605  138.4705  158.6674 H   0  0  0  0  0  0  0  0  0  0  0  0
  151.3699  139.2594  159.8048 H   0  0  0  0  0  0  0  0  0  0  0  0
  154.1654  140.2686  159.0005 H   0  0  0  0  0  0  0  0  0  0  0  0
  152.4167  140.9401  161.3298 H   0  0  0  0  0  0  0  0  0  0  0  0
  154.1381  141.2525  161.1250 H   0  0  0  0  0  0  0  0  0  0  0  0
  153.7224  143.1532  159.7523 H   0  0  0  0  0  0  0  0  0  0  0  0
  151.2807  143.2428  161.5882 H   0  0  0  0  0  0  0  0  0  0  0  0
  152.8701  143.8654  161.9842 H   0  0  0  0  0  0  0  0  0  0  0  0
  151.3324  145.6727  161.1102 H   0  0  0  0  0  0  0  0  0  0  0  0
  152.7731  145.4917  160.1429 H   0  0  0  0  0  0  0  0  0  0  0  0
  149.9894  144.4391  159.4669 H   0  0  0  0  0  0  0  0  0  0  0  0
  150.8525  145.7049  158.6324 H   0  0  0  0  0  0  0  0  0  0  0  0
  150.9189  143.5330  157.3836 H   0  0  0  0  0  0  0  0  0  0  0  0
  152.5283  144.0794  157.7948 H   0  0  0  0  0  0  0  0  0  0  0  0
  150.9069  142.0382  159.4107 H   0  0  0  0  0  0  0  0  0  0  0  0
  152.8682  138.6351  154.8424 H   0  0  0  0  0  0  0  0  0  0  0  0
  147.7833  142.2891  156.3445 H   0  0  0  0  0  0  0  0  0  0  0  0
  147.9033  141.4871  153.5938 H   0  0  0  0  0  0  0  0  0  0  0  0
  148.7429  139.9704  153.4102 H   0  0  0  0  0  0  0  0  0  0  0  0
  145.4152  139.9331  153.2432 H   0  0  0  0  0  0  0  0  0  0  0  0
  146.3525  137.8180  155.2206 H   0  0  0  0  0  0  0  0  0  0  0  0
  148.0829  138.1079  155.2696 H   0  0  0  0  0  0  0  0  0  0  0  0
  146.7141  138.3670  157.5424 H   0  0  0  0  0  0  0  0  0  0  0  0
  147.7793  139.7192  157.1213 H   0  0  0  0  0  0  0  0  0  0  0  0
  146.3764  141.6608  155.5692 H   0  0  0  0  0  0  0  0  0  0  0  0
  144.9595  140.8357  154.9375 H   0  0  0  0  0  0  0  0  0  0  0  0
  1  2  1  0  0  0  0
  1 27  1  0  0  0  0
  1 28  1  0  0  0  0
  1 29  1  0  0  0  0
  2 10  1  0  0  0  0
  2  3  1  0  0  0  0
  2 30  1  0  0  0  0
  3  4  1  0  0  0  0
  3 31  1  0  0  0  0
  3 32  1  0  0  0  0
  4  9  1  0  0  0  0
  4  5  1  0  0  0  0
  4 33  1  0  0  0  0
  5  6  1  0  0  0  0
  5 34  1  0  0  0  0
  5 35  1  0  0  0  0
  6  7  1  0  0  0  0
  6 36  1  0  0  0  0
  6 37  1  0  0  0  0
  7  8  1  0  0  0  0
  7 38  1  0  0  0  0
  7 39  1  0  0  0  0
  8  9  1  0  0  0  0
  8 40  1  0  0  0  0
  8 41  1  0  0  0  0
  9 10  1  0  0  0  0
  9 42  1  0  0  0  0
 10 11  1  0  0  0  0
 11 16  1  0  0  0  0
 11 12  2  0  0  0  0
 12 13  1  0  0  0  0
 13 14  2  0  0  0  0
 13 43  1  0  0  0  0
 14 15  1  0  0  0  0
 15 19  1  0  0  0  0
 15 16  2  0  0  0  0
 16 17  1  0  0  0  0
 17 18  2  0  0  0  0
 18 19  1  0  0  0  0
 18 44  1  0  0  0  0
 19 20  1  0  0  0  0
 20 21  1  0  0  0  0
 20 45  1  0  0  0  0
 20 46  1  0  0  0  0
 21 26  1  0  0  0  0
 21 22  1  0  0  0  0
 21 23  1  0  0  0  0
 22 47  1  0  0  0  0
 23 24  1  0  0  0  0
 23 48  1  0  0  0  0
 23 49  1  0  0  0  0
 24 25  1  0  0  0  0
 24 50  1  0  0  0  0
 24 51  1  0  0  0  0
 25 26  1  0  0  0  0
 26 52  1  0  0  0  0
 26 53  1  0  0  0  0
M  END
> <s_m_source_file>
AV-unprocessed.smi

> <i_m_source_file_index>
189

> <i_lp_mmshare_version>
43012

> <i_f3d_flags>
0

> <s_epik_input>
W0NIMl0xW0NIMl1bQ0gyXVtDSDJdW0NASF0oW0NASF0xMilOKFtDQEhdKFtDSDNdKVtDSDJdMiljKG5bY0hdbjMpYyhjMzQpbltjSF1uNFtDSDJdW0NAQF01KFtPSF0pW0NIMl1bQ0gyXU9bQ0gyXTU=

> <s_epik_cmdline>
J2VwaWtfcHl0aG9uJywgJy1waCcsICc3LjAnLCAnLXRuJywgJzgnLCAnLW1hJywgJzIwMCcsICctbWV0YWxfYmluZGluZycsICctaW1hZScsICc8aW5maWxlLm1hZT4nLCAnLW9tYWUnLCAnPG91dGZpbGUubWFlPic=

> <r_lp_tautomer_probability>
1

> <r_epik_Ionization_Penalty>
0.00594261

> <r_epik_Ionization_Penalty_Charging>
0

> <r_epik_Ionization_Penalty_Neutral>
0.00594261

> <r_epik_State_Penalty>
0.00429776

> <r_epik_Charging_Adjusted_Penalty>
0.00429776

> <i_epik_Tot_Q>
0

> <i_epik_Tot_abs_Q>
0

> <r_epik_Metal_State_Penalty>
-0

> <b_epik_Metal_Only>
0

> <s_lp_Force_Field>
OPLS_2005

> <r_lp_Energy>
58.8903

> <b_lp_Chiralities_Consistent>
1

> <s_lp_Variant>
AV-unprocessed.smi:189-3

> <Gold.Version>
5.8.1

> <Gold.Id.Protein>
6NUR|6NUR_protein|mol2

> <Gold.PLP.Fitness>
55.3110

> <Gold.PLP.PLP>
-46.5261

> <Gold.PLP.part.hbond>
-3.0000

> <Gold.PLP.part.metal>
0.0000

> <Gold.PLP.part.buried>
-1.5730

> <Gold.PLP.part.nonpolar>
-41.1812

> <Gold.PLP.part.repulsive>
0.2353

> <Gold.PLP.ligand.clash>
0.0000

> <Gold.PLP.ligand.torsion>
0.2515

> <Gold.PLP.Chemscore.Hbond>
2.6300

> <Gold.PLP.Chemscore.CHOScore>
0.3393

> <Gold.PLP.Chemscore.Metal>
0.0000

> <Gold.Chemscore.Hbonds>
donor molecule, donor type, donor heavy atom, donor atom, acceptor molecule, acceptor atom, score
      L1  H    22    47       P1 10175  1.00
      P1  H  7989  7998       L1    14  0.60
      P1  H  7997  8010       L1    12  1.00
      L1  C    18    44       P1  8028  0.14

> <Gold.PLP.Chemscore.Internal.Correction>
0.3801

> <Gold.Rescore>
     Score         DG    S(hbond)    S(metal)    S(lipo)     H(rot)  DE(clash)    DE(int)     intcor
     17.21     -19.59       1.84        0.00     112.56       2.03       0.10       2.28       ----

> <Gold.Chemscore.Fitness>
17.2058

> <Gold.Chemscore.DG>
-19.5851

> <Gold.Chemscore.ZeroCoef>
-5.4800

> <Gold.Chemscore.Hbond>
1.8359

> <Gold.Chemscore.Metal>
0.0000

> <Gold.Chemscore.Lipo>
112.5558

> <Gold.Chemscore.Internal_Hbond>
0.0000

> <Gold.Chemscore.DEClash>
0.0961

> <Gold.Chemscore.DEInternal>
2.2832

> <Gold.Chemscore.Rot>
2.0297

> <Gold.Chemscore.Internal.Correction>
   9.000000E+99

> <Gold.Chemscore.Hbonds>
donor molecule, donor type, donor heavy atom, donor atom, acceptor molecule, acceptor atom, score
      L1  H    22    47       P1 10175  0.96
      P1  H  7989  7998       L1    14  0.01
      P1  H  7997  8010       L1    12  0.84

> <Gold.Chemscore.Hbond.Weighted>
-6.1321

> <Gold.Chemscore.Metal.Weighted>
-0.0000

> <Gold.Chemscore.Lipo.Weighted>
-13.1690

> <Gold.Chemscore.Internal_Hbond.Weighted>
0.0000

> <Gold.Chemscore.DEClash.Weighted>
0.0961

> <Gold.Chemscore.DEInternal.Weighted>
2.2832

> <Gold.Chemscore.Rot.Weighted>
5.1960

> <Gold.Chemscore.Internal.Correction.Weighted>
   9.000000E+99

> <Gold.Protein.RotatedTorsions>
[ 6907 6896 6895 6894 ] final -178.55 input  -60.11 | X-H torsion
[ 7974 7965 7964 7962 ] final  -80.49 input  175.53 | X-H torsion
[ 8008 7997 7996 7995 ] final   63.51 input   59.86 | X-H torsion
[ 10167 10162 10161 10158 ] final  -17.34 input  -65.29 | X-H torsion
[ 10718 10713 10712 10709 ] final  -95.97 input   66.30 | X-H torsion
[ 10763 10752 10751 10750 ] final -168.08 input  -60.55 | X-H torsion
[ 11005 11000 10999 10996 ] final -122.67 input  -57.11 | X-H torsion

> <Gold.Protein.ActiveResidues>
 VAL166  LYS551  ARG553  GLY616  TRP617  ASP618  TYR619  PRO620  LYS621  CYS622 
 ASP623  PHE694  ASN695  SER759  ASP760  ASP761  ALA762  ILE779  LEU786  VAL792 
 PHE793  MET794  SER795  GLU796  ALA797  LYS798  CYS799  TRP800  GLU811  SER814 

> <Gold.Protein.RotatedAtoms>
  151.6390  133.3327  159.3125 H   0  0  0  0  0  0  0  0  0  0  0  0  # atno 6907 bound_to 6896
  150.8017  134.7119  159.6618 H   0  0  0  0  0  0  0  0  0  0  0  0  # atno 6908 bound_to 6896
  152.4110  134.6129  160.0082 H   0  0  0  0  0  0  0  0  0  0  0  0  # atno 6909 bound_to 6896
  145.5592  140.9484  143.1456 H   0  0  0  0  0  0  0  0  0  0  0  0  # atno 7974 bound_to 7965
  155.6313  140.3496  155.4684 H   0  0  0  0  0  0  0  0  0  0  0  0  # atno 8008 bound_to 7997
  156.0001  140.1211  157.0579 H   0  0  0  0  0  0  0  0  0  0  0  0  # atno 8009 bound_to 7997
  154.4246  140.1102  156.5671 H   0  0  0  0  0  0  0  0  0  0  0  0  # atno 8010 bound_to 7997
  140.7246  143.5025  150.9851 H   0  0  0  0  0  0  0  0  0  0  0  0  # atno 10167 bound_to 10162
  156.0053  130.5131  150.6156 H   0  0  0  0  0  0  0  0  0  0  0  0  # atno 10718 bound_to 10713
  154.6666  135.2933  154.9797 H   0  0  0  0  0  0  0  0  0  0  0  0  # atno 10763 bound_to 10752
  154.0839  135.6600  153.4846 H   0  0  0  0  0  0  0  0  0  0  0  0  # atno 10764 bound_to 10752
  153.0461  135.5204  154.7642 H   0  0  0  0  0  0  0  0  0  0  0  0  # atno 10765 bound_to 10752
  140.9977  134.0447  157.3576 H   0  0  0  0  0  0  0  0  0  0  0  0  # atno 11005 bound_to 11000
  144.7491  139.7241  143.7280 LP  0  0  0  0  0  0  0  0  0  0  0  0  # atno 17320 bound_to 7965
  146.1863  139.5079  142.9834 LP  0  0  0  0  0  0  0  0  0  0  0  0  # atno 17321 bound_to 7965
  139.8735  143.7162  152.3164 LP  0  0  0  0  0  0  0  0  0  0  0  0  # atno 17342 bound_to 10162
  139.7419  144.7557  151.0639 LP  0  0  0  0  0  0  0  0  0  0  0  0  # atno 17343 bound_to 10162
  157.3981  131.0806  151.1333 LP  0  0  0  0  0  0  0  0  0  0  0  0  # atno 17370 bound_to 10713
  157.2004  130.6392  149.5736 LP  0  0  0  0  0  0  0  0  0  0  0  0  # atno 17371 bound_to 10713
  139.9023  135.0169  156.7326 LP  0  0  0  0  0  0  0  0  0  0  0  0  # atno 17394 bound_to 11000
  140.6939  133.9366  155.7983 LP  0  0  0  0  0  0  0  0  0  0  0  0  # atno 17395 bound_to 11000

$$$$
