AV-unprocessed.smi:48|AV-procd|sdf|447|dock3
  -GOLD-   2262016313D 1   1.00000     0.00000
 Structure written by MMmdl.
 30 32  0  0  0  0  0  0  0  0  1 V2000
  148.7023  137.3499  157.0653 O   0  0  0  0  0  0  0  0  0  0  0  0
  147.6839  137.7909  156.1929 C   0  0  0  0  0  0  0  0  0  0  0  0
  148.1065  139.0988  155.5069 C   0  0  1  0  0  0  0  0  0  0  0  0
  148.4437  140.0703  156.4895 O   0  0  0  0  0  0  0  0  0  0  0  0
  149.2815  141.0306  155.9251 C   0  0  1  0  0  0  0  0  0  0  0  0
  150.3207  141.3834  156.9386 N   0  0  0  0  0  0  0  0  0  0  0  0
  150.6324  142.6119  157.3997 C   0  0  0  0  0  0  0  0  0  0  0  0
  151.5964  142.6979  158.3154 N   0  0  0  0  0  0  0  0  0  0  0  0
  151.9459  141.3671  158.4742 C   0  0  0  0  0  0  0  0  0  0  0  0
  152.9018  140.7170  159.2920 C   0  0  0  0  0  0  0  0  0  0  0  0
  153.9171  141.6164  160.3586 Cl  0  0  0  0  0  0  0  0  0  0  0  0
  153.0031  139.3683  159.2183 N   0  0  0  0  0  0  0  0  0  0  0  0
  152.2032  138.6954  158.3822 C   0  0  0  0  0  0  0  0  0  0  0  0
  151.2641  139.1683  157.5549 N   0  0  0  0  0  0  0  0  0  0  0  0
  151.1637  140.5283  157.6302 C   0  0  0  0  0  0  0  0  0  0  0  0
  149.9181  140.4200  154.6646 C   0  0  2  0  0  0  0  0  0  0  0  0
  149.4874  141.1048  153.5023 O   0  0  0  0  0  0  0  0  0  0  0  0
  149.4078  138.9798  154.7120 C   0  0  2  0  0  0  0  0  0  0  0  0
  149.2219  138.4018  153.4332 O   0  0  0  0  0  0  0  0  0  0  0  0
  147.3142  139.4892  154.8647 H   0  0  0  0  0  0  0  0  0  0  0  0
  148.7379  141.9587  155.7396 H   0  0  0  0  0  0  0  0  0  0  0  0
  151.0074  140.4596  154.7102 H   0  0  0  0  0  0  0  0  0  0  0  0
  150.1187  138.3663  155.2659 H   0  0  0  0  0  0  0  0  0  0  0  0
  148.6335  137.8321  157.8751 H   0  0  0  0  0  0  0  0  0  0  0  0
  147.4468  137.0176  155.4615 H   0  0  0  0  0  0  0  0  0  0  0  0
  146.7884  137.9546  156.7930 H   0  0  0  0  0  0  0  0  0  0  0  0
  150.1244  143.4954  157.0413 H   0  0  0  0  0  0  0  0  0  0  0  0
  152.3348  137.6235  158.3724 H   0  0  0  0  0  0  0  0  0  0  0  0
  149.3387  140.4718  152.8168 H   0  0  0  0  0  0  0  0  0  0  0  0
  149.3924  139.0618  152.7788 H   0  0  0  0  0  0  0  0  0  0  0  0
  1  2  1  0  0  0  0
  1 24  1  0  0  0  0
  2  3  1  0  0  0  0
  2 25  1  0  0  0  0
  2 26  1  0  0  0  0
  3 20  1  0  0  0  0
  3 18  1  0  0  0  0
  3  4  1  0  0  0  0
  4  5  1  0  0  0  0
  5 21  1  0  0  0  0
  5  6  1  0  0  0  0
  5 16  1  0  0  0  0
  6 15  1  0  0  0  0
  6  7  1  0  0  0  0
  7  8  2  0  0  0  0
  7 27  1  0  0  0  0
  8  9  1  0  0  0  0
  9 15  2  0  0  0  0
  9 10  1  0  0  0  0
 10 11  1  0  0  0  0
 10 12  2  0  0  0  0
 12 13  1  0  0  0  0
 13 14  2  0  0  0  0
 13 28  1  0  0  0  0
 14 15  1  0  0  0  0
 16 22  1  0  0  0  0
 16 17  1  0  0  0  0
 16 18  1  0  0  0  0
 17 29  1  0  0  0  0
 18 23  1  0  0  0  0
 18 19  1  0  0  0  0
 19 30  1  0  0  0  0
M  END
> <s_m_source_file>
AV-unprocessed.smi

> <i_m_source_file_index>
48

> <i_lp_mmshare_version>
43012

> <i_f3d_flags>
0

> <s_epik_input>
W09IXVtDSDJdW0NASF0xT1tDQEhdKFtDQEhdKFtPSF0pW0NAQEhdMVtPSF0pbihbY0hdbjIpYyhjMjMpbltjSF1uYzNDbA==

> <s_epik_cmdline>
J2VwaWtfcHl0aG9uJywgJy1waCcsICc3LjAnLCAnLXRuJywgJzgnLCAnLW1hJywgJzIwMCcsICctbWV0YWxfYmluZGluZycsICctaW1hZScsICc8aW5maWxlLm1hZT4nLCAnLW9tYWUnLCAnPG91dGZpbGUubWFlPic=

> <r_lp_tautomer_probability>
1

> <r_epik_Ionization_Penalty>
3.45505e-06

> <r_epik_Ionization_Penalty_Charging>
0

> <r_epik_Ionization_Penalty_Neutral>
3.45505e-06

> <r_epik_State_Penalty>
-0

> <r_epik_Charging_Adjusted_Penalty>
0

> <i_epik_Tot_Q>
0

> <i_epik_Tot_abs_Q>
0

> <r_epik_Metal_State_Penalty>
-0

> <b_epik_Metal_Only>
0

> <s_epik_Chemistry_Notes>
This compound contains an acetal/aminal-like group ( X-CH(R)-Y where X, Y are N, S, or O) that may be acid/base labile, releasing an aldehyde.

> <s_lp_Force_Field>
OPLS_2005

> <r_lp_Energy>
36.5243

> <b_lp_Chiralities_Consistent>
1

> <s_lp_Variant>
AV-unprocessed.smi:48-1

> <Gold.Version>
5.8.1

> <Gold.Id.Protein>
6NUR|6NUR_protein|mol2

> <Gold.PLP.Fitness>
38.1375

> <Gold.PLP.PLP>
-27.5211

> <Gold.PLP.part.hbond>
-5.0000

> <Gold.PLP.part.metal>
0.0000

> <Gold.PLP.part.buried>
-2.6433

> <Gold.PLP.part.nonpolar>
-19.3389

> <Gold.PLP.part.repulsive>
0.0469

> <Gold.PLP.ligand.clash>
0.0000

> <Gold.PLP.ligand.torsion>
0.0667

> <Gold.PLP.Chemscore.Hbond>
2.5780

> <Gold.PLP.Chemscore.CHOScore>
1.0000

> <Gold.PLP.Chemscore.Metal>
0.0000

> <Gold.Chemscore.Hbonds>
donor molecule, donor type, donor heavy atom, donor atom, acceptor molecule, acceptor atom, score
      L1  H    17    29       P1  7957  0.93
      L1  H    19    30       P1  7957  1.00
      P1  H  8011  8017       L1    17  0.60
      L1  C     7    27       P1  8028  1.00

> <Gold.PLP.Chemscore.Internal.Correction>
0.0159

> <Gold.Rescore>
     Score         DG    S(hbond)    S(metal)    S(lipo)     H(rot)  DE(clash)    DE(int)     intcor
      7.18      -7.20       1.97        0.00      41.75       3.80       0.02       0.01       ----

> <Gold.Chemscore.Fitness>
7.1789

> <Gold.Chemscore.DG>
-7.2046

> <Gold.Chemscore.ZeroCoef>
-5.4800

> <Gold.Chemscore.Hbond>
1.9676

> <Gold.Chemscore.Metal>
0.0000

> <Gold.Chemscore.Lipo>
41.7536

> <Gold.Chemscore.Internal_Hbond>
0.0000

> <Gold.Chemscore.DEClash>
0.0174

> <Gold.Chemscore.DEInternal>
0.0083

> <Gold.Chemscore.Rot>
3.8017

> <Gold.Chemscore.Internal.Correction>
   9.000000E+99

> <Gold.Chemscore.Hbonds>
donor molecule, donor type, donor heavy atom, donor atom, acceptor molecule, acceptor atom, score
      L1  H    17    29       P1  7957  0.90
      L1  H    19    30       P1  7957  0.99
      P1  H  8011  8017       L1    17  0.04

> <Gold.Chemscore.Hbond.Weighted>
-6.5718

> <Gold.Chemscore.Metal.Weighted>
-0.0000

> <Gold.Chemscore.Lipo.Weighted>
-4.8852

> <Gold.Chemscore.Internal_Hbond.Weighted>
0.0000

> <Gold.Chemscore.DEClash.Weighted>
0.0174

> <Gold.Chemscore.DEInternal.Weighted>
0.0083

> <Gold.Chemscore.Rot.Weighted>
9.7324

> <Gold.Chemscore.Internal.Correction.Weighted>
   9.000000E+99

> <Gold.Protein.RotatedTorsions>
[ 6907 6896 6895 6894 ] final  -27.67 input  -60.11 | X-H torsion
[ 7974 7965 7964 7962 ] final   88.56 input  175.53 | X-H torsion
[ 8008 7997 7996 7995 ] final    9.64 input   59.86 | X-H torsion
[ 10167 10162 10161 10158 ] final -113.01 input  -65.29 | X-H torsion
[ 10718 10713 10712 10709 ] final  110.44 input   66.30 | X-H torsion
[ 10763 10752 10751 10750 ] final  -31.25 input  -60.55 | X-H torsion
[ 11005 11000 10999 10996 ] final -117.06 input  -57.11 | X-H torsion

> <Gold.Protein.ActiveResidues>
 VAL166  LYS551  ARG553  GLY616  TRP617  ASP618  TYR619  PRO620  LYS621  CYS622 
 ASP623  PHE694  ASN695  SER759  ASP760  ASP761  ALA762  ILE779  LEU786  VAL792 
 PHE793  MET794  SER795  GLU796  ALA797  LYS798  CYS799  TRP800  GLU811  SER814 

> <Gold.Protein.RotatedAtoms>
  151.1436  135.0192  159.8636 H   0  0  0  0  0  0  0  0  0  0  0  0  # atno 6907 bound_to 6896
  152.5452  134.1470  159.8513 H   0  0  0  0  0  0  0  0  0  0  0  0  # atno 6908 bound_to 6896
  151.1548  133.4838  159.2627 H   0  0  0  0  0  0  0  0  0  0  0  0  # atno 6909 bound_to 6896
  145.5440  139.2290  143.2550 H   0  0  0  0  0  0  0  0  0  0  0  0  # atno 7974 bound_to 7965
  154.7827  140.2821  155.6052 H   0  0  0  0  0  0  0  0  0  0  0  0  # atno 8008 bound_to 7997
  156.2952  140.2620  156.2584 H   0  0  0  0  0  0  0  0  0  0  0  0  # atno 8009 bound_to 7997
  154.9765  140.0375  157.2248 H   0  0  0  0  0  0  0  0  0  0  0  0  # atno 8010 bound_to 7997
  140.1165  143.4481  152.1719 H   0  0  0  0  0  0  0  0  0  0  0  0  # atno 10167 bound_to 10162
  157.6494  131.0933  150.6602 H   0  0  0  0  0  0  0  0  0  0  0  0  # atno 10718 bound_to 10713
  153.7942  135.6895  153.4866 H   0  0  0  0  0  0  0  0  0  0  0  0  # atno 10763 bound_to 10752
  153.1730  135.4535  154.9926 H   0  0  0  0  0  0  0  0  0  0  0  0  # atno 10764 bound_to 10752
  154.8032  135.3346  154.7436 H   0  0  0  0  0  0  0  0  0  0  0  0  # atno 10765 bound_to 10752
  141.0380  133.9880  157.3040 H   0  0  0  0  0  0  0  0  0  0  0  0  # atno 11005 bound_to 11000
  146.1962  140.6261  142.9123 LP  0  0  0  0  0  0  0  0  0  0  0  0  # atno 17320 bound_to 7965
  144.7562  140.5314  143.6767 LP  0  0  0  0  0  0  0  0  0  0  0  0  # atno 17321 bound_to 7965
  139.5591  144.7394  151.4206 LP  0  0  0  0  0  0  0  0  0  0  0  0  # atno 17342 bound_to 10162
  140.6896  143.7892  150.7236 LP  0  0  0  0  0  0  0  0  0  0  0  0  # atno 17343 bound_to 10162
  156.6915  130.4596  149.5598 LP  0  0  0  0  0  0  0  0  0  0  0  0  # atno 17370 bound_to 10713
  156.1858  130.6528  151.1005 LP  0  0  0  0  0  0  0  0  0  0  0  0  # atno 17371 bound_to 10713
  139.9255  135.0201  156.8217 LP  0  0  0  0  0  0  0  0  0  0  0  0  # atno 17394 bound_to 11000
  140.6287  133.9926  155.7651 LP  0  0  0  0  0  0  0  0  0  0  0  0  # atno 17395 bound_to 11000

$$$$
