AV-unprocessed.smi:157|AV-procd|sdf|1309|dock5
  -GOLD-   2262019 03D 1   1.00000     0.00000
 Structure written by MMmdl.
 36 38  0  0  0  0  0  0  0  0  2 V2000
  149.9369  138.5834  153.4801 O   0  0  0  0  0  0  0  0  0  0  0  0
  151.0618  137.9918  154.0937 C   0  0  0  0  0  0  0  0  0  0  0  0
  151.5888  138.9072  155.2083 C   0  0  1  0  0  0  0  0  0  0  0  0
  150.5297  139.2396  156.1017 O   0  0  0  0  0  0  0  0  0  0  0  0
  151.0402  139.5178  157.3726 C   0  0  2  0  0  0  0  0  0  0  0  0
  150.9130  140.9858  157.6333 N   0  0  0  0  0  0  0  0  0  0  0  0
  150.2547  141.8901  156.8764 C   0  0  0  0  0  0  0  0  0  0  0  0
  150.3080  143.1282  157.3373 N   0  3  0  0  0  0  0  0  0  0  0  0
  151.0549  143.0826  158.4953 C   0  0  0  0  0  0  0  0  0  0  0  0
  151.4300  141.7464  158.6562 C   0  0  0  0  0  0  0  0  0  0  0  0
  152.2055  141.1437  159.6584 N   0  0  0  0  0  0  0  0  0  0  0  0
  152.9437  141.8174  160.4796 C   0  0  0  0  0  0  0  0  0  0  0  0
  153.0679  143.1898  160.6196 N   0  0  0  0  0  0  0  0  0  0  0  0
  151.9307  144.0920  160.6578 C   0  0  0  0  0  0  0  0  0  0  0  0
  151.2892  144.3320  159.2851 C   0  0  1  0  0  0  0  0  0  0  0  0
  152.0666  145.2800  158.5832 O   0  0  0  0  0  0  0  0  0  0  0  0
  152.5179  139.1135  157.3688 C   0  0  0  0  0  0  0  0  0  0  0  0
  152.5944  138.2294  156.1404 C   0  0  2  0  0  0  0  0  0  0  0  0
  153.9025  138.2142  155.6068 O   0  0  0  0  0  0  0  0  0  0  0  0
  152.0236  139.8216  154.7991 H   0  0  0  0  0  0  0  0  0  0  0  0
  150.4414  139.0307  158.1431 H   0  0  0  0  0  0  0  0  0  0  0  0
  150.3200  144.8035  159.4517 H   0  0  0  0  0  0  0  0  0  0  0  0
  152.2737  137.2155  156.3847 H   0  0  0  0  0  0  0  0  0  0  0  0
  149.5595  137.9586  152.8796 H   0  0  0  0  0  0  0  0  0  0  0  0
  150.8112  137.0021  154.4764 H   0  0  0  0  0  0  0  0  0  0  0  0
  151.8230  137.8590  153.3244 H   0  0  0  0  0  0  0  0  0  0  0  0
  149.7292  141.6243  155.9767 H   0  0  0  0  0  0  0  0  0  0  0  0
  153.5720  141.2763  161.1886 H   0  0  0  0  0  0  0  0  0  0  0  0
  153.8456  143.5532  161.1522 H   0  0  0  0  0  0  0  0  0  0  0  0
  151.1870  143.6525  161.3244 H   0  0  0  0  0  0  0  0  0  0  0  0
  152.2275  145.0360  161.1163 H   0  0  0  0  0  0  0  0  0  0  0  0
  152.7843  145.5524  159.1340 H   0  0  0  0  0  0  0  0  0  0  0  0
  153.1459  139.9994  157.2539 H   0  0  0  0  0  0  0  0  0  0  0  0
  152.7904  138.6038  158.2935 H   0  0  0  0  0  0  0  0  0  0  0  0
  154.0316  137.4016  155.1420 H   0  0  0  0  0  0  0  0  0  0  0  0
  149.8762  143.9435  156.9210 H   0  0  0  0  0  0  0  0  0  0  0  0
  1  2  1  0  0  0  0
  1 24  1  0  0  0  0
  2  3  1  0  0  0  0
  2 25  1  0  0  0  0
  2 26  1  0  0  0  0
  3 20  1  0  0  0  0
  3 18  1  0  0  0  0
  3  4  1  0  0  0  0
  4  5  1  0  0  0  0
  5 21  1  0  0  0  0
  5  6  1  0  0  0  0
  5 17  1  0  0  0  0
  6 10  1  0  0  0  0
  6  7  1  0  0  0  0
  7  8  2  0  0  0  0
  7 27  1  0  0  0  0
  8  9  1  0  0  0  0
  8 36  1  0  0  0  0
  9 15  1  0  0  0  0
  9 10  2  0  0  0  0
 10 11  1  0  0  0  0
 11 12  2  0  0  0  0
 12 13  1  0  0  0  0
 12 28  1  0  0  0  0
 13 14  1  0  0  0  0
 13 29  1  0  0  0  0
 14 15  1  0  0  0  0
 14 30  1  0  0  0  0
 14 31  1  0  0  0  0
 15 22  1  0  0  0  0
 15 16  1  0  0  0  0
 16 32  1  0  0  0  0
 17 18  1  0  0  0  0
 17 33  1  0  0  0  0
 17 34  1  0  0  0  0
 18 23  1  0  0  0  0
 18 19  1  0  0  0  0
 19 35  1  0  0  0  0
M  CHG  1   8   1
M  END
> <s_m_source_file>
AV-unprocessed.smi

> <i_m_source_file_index>
157

> <i_lp_mmshare_version>
43012

> <i_f3d_flags>
0

> <s_epik_input>
W09IXVtDSDJdW0NASF0xT1tDQEhdKFtDSDJdW0NAQEhdMVtPSF0pbihbY0hdbjIpYyhjMjMpTj1bQ0hdW05IXVtDSDJdW0NASF0zW09IXQ==

> <s_epik_cmdline>
J2VwaWtfcHl0aG9uJywgJy1waCcsICc3LjAnLCAnLXRuJywgJzgnLCAnLW1hJywgJzIwMCcsICctbWV0YWxfYmluZGluZycsICctaW1hZScsICc8aW5maWxlLm1hZT4nLCAnLW9tYWUnLCAnPG91dGZpbGUubWFlPic=

> <r_epik_Ionization_Penalty>
1.68594

> <r_epik_Ionization_Penalty_Charging>
0

> <r_epik_Ionization_Penalty_Neutral>
1.68594

> <r_epik_State_Penalty>
1.79006

> <r_epik_Charging_Adjusted_Penalty>
1.79006

> <i_epik_Tot_Q>
1

> <i_epik_Tot_abs_Q>
1

> <r_epik_Metal_State_Penalty>
5.85324

> <b_epik_Metal_Only>
0

> <s_epik_Chemistry_Notes>
This compound has an imine and may undergo hydrolysis. This compound contains an acetal/aminal-like group ( X-CH(R)-Y where X, Y are N, S, or O) that may be acid/base labile, releasing an aldehyde.

> <s_lp_Force_Field>
OPLS_2005

> <r_lp_Energy>
51.4634

> <b_lp_Chiralities_Consistent>
1

> <s_lp_Variant>
AV-unprocessed.smi:157-19

> <Gold.Version>
5.8.1

> <Gold.Id.Protein>
6NUR|6NUR_protein|mol2

> <Gold.PLP.Fitness>
45.7902

> <Gold.PLP.PLP>
-35.5808

> <Gold.PLP.part.hbond>
-4.3586

> <Gold.PLP.part.metal>
0.0000

> <Gold.PLP.part.buried>
-5.4847

> <Gold.PLP.part.nonpolar>
-25.6868

> <Gold.PLP.part.repulsive>
0.0355

> <Gold.PLP.ligand.clash>
0.0000

> <Gold.PLP.ligand.torsion>
0.1724

> <Gold.PLP.Chemscore.Hbond>
3.5119

> <Gold.PLP.Chemscore.CHOScore>
0.0000

> <Gold.PLP.Chemscore.Metal>
0.0000

> <Gold.Chemscore.Hbonds>
donor molecule, donor type, donor heavy atom, donor atom, acceptor molecule, acceptor atom, score
      L1  H     1    24       P1  7948  0.94
      L1  H     8    36       P1  8028  2.00
      P1  H  7997  8009       L1    19  0.53

> <Gold.PLP.Chemscore.Internal.Correction>
0.0185

> <Gold.Rescore>
     Score         DG    S(hbond)    S(metal)    S(lipo)     H(rot)  DE(clash)    DE(int)     intcor
      9.45      -9.48       1.96        0.00      58.59       3.67       0.00       0.03       ----

> <Gold.Chemscore.Fitness>
9.4505

> <Gold.Chemscore.DG>
-9.4809

> <Gold.Chemscore.ZeroCoef>
-5.4800

> <Gold.Chemscore.Hbond>
1.9553

> <Gold.Chemscore.Metal>
0.0000

> <Gold.Chemscore.Lipo>
58.5888

> <Gold.Chemscore.Internal_Hbond>
0.0000

> <Gold.Chemscore.DEClash>
0.0036

> <Gold.Chemscore.DEInternal>
0.0267

> <Gold.Chemscore.Rot>
3.6659

> <Gold.Chemscore.Internal.Correction>
   9.000000E+99

> <Gold.Chemscore.Hbonds>
donor molecule, donor type, donor heavy atom, donor atom, acceptor molecule, acceptor atom, score
      L1  H     1    24       P1  7948  0.71
      L1  H     8    36       P1  8028  0.91
      P1  H  7997  8009       L1    19  0.15

> <Gold.Chemscore.Hbond.Weighted>
-6.5308

> <Gold.Chemscore.Metal.Weighted>
-0.0000

> <Gold.Chemscore.Lipo.Weighted>
-6.8549

> <Gold.Chemscore.Internal_Hbond.Weighted>
0.0000

> <Gold.Chemscore.DEClash.Weighted>
0.0036

> <Gold.Chemscore.DEInternal.Weighted>
0.0267

> <Gold.Chemscore.Rot.Weighted>
9.3848

> <Gold.Chemscore.Internal.Correction.Weighted>
   9.000000E+99

> <Gold.Protein.RotatedTorsions>
[ 6907 6896 6895 6894 ] final   21.39 input  -60.11 | X-H torsion
[ 7974 7965 7964 7962 ] final -116.97 input  175.53 | X-H torsion
[ 8008 7997 7996 7995 ] final -137.59 input   59.86 | X-H torsion
[ 10167 10162 10161 10158 ] final  -89.20 input  -65.29 | X-H torsion
[ 10718 10713 10712 10709 ] final   53.56 input   66.30 | X-H torsion
[ 10763 10752 10751 10750 ] final  104.41 input  -60.55 | X-H torsion
[ 11005 11000 10999 10996 ] final    9.64 input  -57.11 | X-H torsion

> <Gold.Protein.ActiveResidues>
 VAL166  LYS551  ARG553  GLY616  TRP617  ASP618  TYR619  PRO620  LYS621  CYS622 
 ASP623  PHE694  ASN695  SER759  ASP760  ASP761  ALA762  ILE779  LEU786  VAL792 
 PHE793  MET794  SER795  GLU796  ALA797  LYS798  CYS799  TRP800  GLU811  SER814 

> <Gold.Protein.RotatedAtoms>
  151.9111  135.0338  160.0514 H   0  0  0  0  0  0  0  0  0  0  0  0  # atno 6907 bound_to 6896
  152.2279  133.5030  159.5207 H   0  0  0  0  0  0  0  0  0  0  0  0  # atno 6908 bound_to 6896
  150.7017  134.1173  159.4064 H   0  0  0  0  0  0  0  0  0  0  0  0  # atno 6909 bound_to 6896
  145.0906  140.8487  143.3985 H   0  0  0  0  0  0  0  0  0  0  0  0  # atno 7974 bound_to 7965
  155.4144  140.0514  157.3030 H   0  0  0  0  0  0  0  0  0  0  0  0  # atno 8008 bound_to 7997
  154.4931  140.2128  155.9464 H   0  0  0  0  0  0  0  0  0  0  0  0  # atno 8009 bound_to 7997
  156.1369  140.3161  155.8440 H   0  0  0  0  0  0  0  0  0  0  0  0  # atno 8010 bound_to 7997
  140.3672  143.2812  151.9544 H   0  0  0  0  0  0  0  0  0  0  0  0  # atno 10167 bound_to 10162
  157.5178  130.8544  149.8519 H   0  0  0  0  0  0  0  0  0  0  0  0  # atno 10718 bound_to 10713
  153.3656  135.3944  155.1751 H   0  0  0  0  0  0  0  0  0  0  0  0  # atno 10763 bound_to 10752
  154.8686  135.3690  154.5043 H   0  0  0  0  0  0  0  0  0  0  0  0  # atno 10764 bound_to 10752
  153.5507  135.7083  153.5653 H   0  0  0  0  0  0  0  0  0  0  0  0  # atno 10765 bound_to 10752
  140.5234  134.0536  155.7851 H   0  0  0  0  0  0  0  0  0  0  0  0  # atno 11005 bound_to 11000
  145.1070  139.2783  143.5657 LP  0  0  0  0  0  0  0  0  0  0  0  0  # atno 17320 bound_to 7965
  146.3531  140.0655  142.8626 LP  0  0  0  0  0  0  0  0  0  0  0  0  # atno 17321 bound_to 7965
  139.4807  144.5940  151.7723 LP  0  0  0  0  0  0  0  0  0  0  0  0  # atno 17342 bound_to 10162
  140.5069  144.1084  150.5985 LP  0  0  0  0  0  0  0  0  0  0  0  0  # atno 17343 bound_to 10162
  156.0332  130.3758  150.1630 LP  0  0  0  0  0  0  0  0  0  0  0  0  # atno 17370 bound_to 10713
  156.9818  130.9866  151.3435 LP  0  0  0  0  0  0  0  0  0  0  0  0  # atno 17371 bound_to 10713
  141.1321  133.9284  157.2512 LP  0  0  0  0  0  0  0  0  0  0  0  0  # atno 17394 bound_to 11000
  139.9593  135.0158  156.9216 LP  0  0  0  0  0  0  0  0  0  0  0  0  # atno 17395 bound_to 11000

$$$$
