AV-unprocessed.smi:157|AV-procd|sdf|1301|dock4
  -GOLD-   2262018593D 1   1.00000     0.00000
 Structure written by MMmdl.
 35 37  0  0  0  0  0  0  0  0  1 V2000
  148.5665  138.6171  153.6864 O   0  0  0  0  0  0  0  0  0  0  0  0
  148.8303  138.1946  155.0073 C   0  0  0  0  0  0  0  0  0  0  0  0
  150.2120  138.6957  155.4608 C   0  0  1  0  0  0  0  0  0  0  0  0
  150.5632  138.1573  156.7292 O   0  0  0  0  0  0  0  0  0  0  0  0
  151.9425  138.2731  156.9223 C   0  0  2  0  0  0  0  0  0  0  0  0
  152.2167  139.4654  157.7939 N   0  0  0  0  0  0  0  0  0  0  0  0
  152.8293  139.4757  158.9867 C   0  0  0  0  0  0  0  0  0  0  0  0
  152.9446  140.6726  159.5364 N   0  0  0  0  0  0  0  0  0  0  0  0
  152.3523  141.5269  158.6088 C   0  0  0  0  0  0  0  0  0  0  0  0
  151.8985  140.7988  157.5187 C   0  0  0  0  0  0  0  0  0  0  0  0
  151.2656  141.0855  156.3240 N   0  0  0  0  0  0  0  0  0  0  0  0
  150.6505  142.2212  156.2196 C   0  0  0  0  0  0  0  0  0  0  0  0
  150.5877  143.2895  157.1028 N   0  0  0  0  0  0  0  0  0  0  0  0
  151.7594  143.8646  157.7413 C   0  0  0  0  0  0  0  0  0  0  0  0
  152.3224  143.0034  158.8788 C   0  0  1  0  0  0  0  0  0  0  0  0
  151.5393  143.1942  160.0394 O   0  0  0  0  0  0  0  0  0  0  0  0
  152.5830  138.4742  155.5373 C   0  0  0  0  0  0  0  0  0  0  0  0
  151.4116  138.3223  154.5815 C   0  0  1  0  0  0  0  0  0  0  0  0
  151.3285  136.9937  154.1019 O   0  0  0  0  0  0  0  0  0  0  0  0
  150.1796  139.7820  155.5634 H   0  0  0  0  0  0  0  0  0  0  0  0
  152.3318  137.4206  157.4800 H   0  0  0  0  0  0  0  0  0  0  0  0
  153.3268  143.3567  159.1145 H   0  0  0  0  0  0  0  0  0  0  0  0
  151.5025  138.9895  153.7238 H   0  0  0  0  0  0  0  0  0  0  0  0
  148.3740  137.8554  153.1610 H   0  0  0  0  0  0  0  0  0  0  0  0
  148.0573  138.6035  155.6584 H   0  0  0  0  0  0  0  0  0  0  0  0
  148.7545  137.1090  155.0701 H   0  0  0  0  0  0  0  0  0  0  0  0
  153.2054  138.5862  159.4698 H   0  0  0  0  0  0  0  0  0  0  0  0
  150.0833  142.4212  155.3094 H   0  0  0  0  0  0  0  0  0  0  0  0
  149.8680  143.9845  156.9662 H   0  0  0  0  0  0  0  0  0  0  0  0
  152.5255  143.9735  156.9721 H   0  0  0  0  0  0  0  0  0  0  0  0
  151.5348  144.8724  158.0915 H   0  0  0  0  0  0  0  0  0  0  0  0
  151.3886  142.3489  160.4350 H   0  0  0  0  0  0  0  0  0  0  0  0
  153.0058  139.4773  155.4621 H   0  0  0  0  0  0  0  0  0  0  0  0
  153.3822  137.7511  155.3689 H   0  0  0  0  0  0  0  0  0  0  0  0
  150.9543  137.0131  153.2342 H   0  0  0  0  0  0  0  0  0  0  0  0
  1  2  1  0  0  0  0
  1 24  1  0  0  0  0
  2  3  1  0  0  0  0
  2 25  1  0  0  0  0
  2 26  1  0  0  0  0
  3 20  1  0  0  0  0
  3 18  1  0  0  0  0
  3  4  1  0  0  0  0
  4  5  1  0  0  0  0
  5 21  1  0  0  0  0
  5  6  1  0  0  0  0
  5 17  1  0  0  0  0
  6 10  1  0  0  0  0
  6  7  1  0  0  0  0
  7  8  2  0  0  0  0
  7 27  1  0  0  0  0
  8  9  1  0  0  0  0
  9 15  1  0  0  0  0
  9 10  2  0  0  0  0
 10 11  1  0  0  0  0
 11 12  2  0  0  0  0
 12 13  1  0  0  0  0
 12 28  1  0  0  0  0
 13 14  1  0  0  0  0
 13 29  1  0  0  0  0
 14 15  1  0  0  0  0
 14 30  1  0  0  0  0
 14 31  1  0  0  0  0
 15 22  1  0  0  0  0
 15 16  1  0  0  0  0
 16 32  1  0  0  0  0
 17 18  1  0  0  0  0
 17 33  1  0  0  0  0
 17 34  1  0  0  0  0
 18 23  1  0  0  0  0
 18 19  1  0  0  0  0
 19 35  1  0  0  0  0
M  END
> <s_m_source_file>
AV-unprocessed.smi

> <i_m_source_file_index>
157

> <i_lp_mmshare_version>
43012

> <i_f3d_flags>
0

> <s_epik_input>
W09IXVtDSDJdW0NASF0xT1tDQEhdKFtDSDJdW0NAQEhdMVtPSF0pbihbY0hdbjIpYyhjMjMpTj1bQ0hdW05IXVtDSDJdW0NASF0zW09IXQ==

> <s_epik_cmdline>
J2VwaWtfcHl0aG9uJywgJy1waCcsICc3LjAnLCAnLXRuJywgJzgnLCAnLW1hJywgJzIwMCcsICctbWV0YWxfYmluZGluZycsICctaW1hZScsICc8aW5maWxlLm1hZT4nLCAnLW9tYWUnLCAnPG91dGZpbGUubWFlPic=

> <r_lp_tautomer_probability>
1

> <r_epik_Ionization_Penalty>
0.0357149

> <r_epik_Ionization_Penalty_Charging>
0.0355056

> <r_epik_Ionization_Penalty_Neutral>
0.000209255

> <r_epik_State_Penalty>
0.0296046

> <r_epik_Charging_Adjusted_Penalty>
0.0651102

> <i_epik_Tot_Q>
0

> <i_epik_Tot_abs_Q>
0

> <r_epik_Metal_State_Penalty>
3.03559e-05

> <b_epik_Metal_Only>
0

> <s_epik_Chemistry_Notes>
This compound has an imine and may undergo hydrolysis. This compound contains an acetal/aminal-like group ( X-CH(R)-Y where X, Y are N, S, or O) that may be acid/base labile, releasing an aldehyde.

> <s_lp_Force_Field>
OPLS_2005

> <r_lp_Energy>
44.137

> <b_lp_Chiralities_Consistent>
1

> <s_lp_Variant>
AV-unprocessed.smi:157-11

> <Gold.Version>
5.8.1

> <Gold.Id.Protein>
6NUR|6NUR_protein|mol2

> <Gold.PLP.Fitness>
45.8429

> <Gold.PLP.PLP>
-33.7912

> <Gold.PLP.part.hbond>
-5.9210

> <Gold.PLP.part.metal>
0.0000

> <Gold.PLP.part.buried>
-5.2079

> <Gold.PLP.part.nonpolar>
-22.5185

> <Gold.PLP.part.repulsive>
0.0353

> <Gold.PLP.ligand.clash>
0.0000

> <Gold.PLP.ligand.torsion>
0.0268

> <Gold.PLP.Chemscore.Hbond>
3.6640

> <Gold.PLP.Chemscore.CHOScore>
0.3681

> <Gold.PLP.Chemscore.Metal>
0.0000

> <Gold.Chemscore.Hbonds>
donor molecule, donor type, donor heavy atom, donor atom, acceptor molecule, acceptor atom, score
      L1  H     1    24       P1  7948  0.71
      L1  H    13    29       P1  8028  0.83
      L1  H    19    35       P1  7949  0.71
      P1  H 10752 10765       L1    19  0.84
      L1  C    12    28       P1  8028  0.43

> <Gold.PLP.Chemscore.Internal.Correction>
0.0089

> <Gold.Rescore>
     Score         DG    S(hbond)    S(metal)    S(lipo)     H(rot)  DE(clash)    DE(int)     intcor
     12.29     -15.38       3.68        0.00      59.04       3.64       0.48       2.61       ----

> <Gold.Chemscore.Fitness>
12.2934

> <Gold.Chemscore.DG>
-15.3809

> <Gold.Chemscore.ZeroCoef>
-5.4800

> <Gold.Chemscore.Hbond>
3.6834

> <Gold.Chemscore.Metal>
0.0000

> <Gold.Chemscore.Lipo>
59.0352

> <Gold.Chemscore.Internal_Hbond>
0.0000

> <Gold.Chemscore.DEClash>
0.4757

> <Gold.Chemscore.DEInternal>
2.6117

> <Gold.Chemscore.Rot>
3.6362

> <Gold.Chemscore.Internal.Correction>
   9.000000E+99

> <Gold.Chemscore.Hbonds>
donor molecule, donor type, donor heavy atom, donor atom, acceptor molecule, acceptor atom, score
      L1  H     1    24       P1  7948  0.68
      L1  H    13    29       P1  8028  0.77
      L1  H    19    35       P1  7949  0.15
      P1  H 10752 10765       L1    19  0.64

> <Gold.Chemscore.Hbond.Weighted>
-12.3025

> <Gold.Chemscore.Metal.Weighted>
-0.0000

> <Gold.Chemscore.Lipo.Weighted>
-6.9071

> <Gold.Chemscore.Internal_Hbond.Weighted>
0.0000

> <Gold.Chemscore.DEClash.Weighted>
0.4757

> <Gold.Chemscore.DEInternal.Weighted>
2.6117

> <Gold.Chemscore.Rot.Weighted>
9.3087

> <Gold.Chemscore.Internal.Correction.Weighted>
   9.000000E+99

> <Gold.Protein.RotatedTorsions>
[ 6907 6896 6895 6894 ] final   43.46 input  -60.11 | X-H torsion
[ 7974 7965 7964 7962 ] final  -74.83 input  175.53 | X-H torsion
[ 8008 7997 7996 7995 ] final  -51.54 input   59.86 | X-H torsion
[ 10167 10162 10161 10158 ] final   78.96 input  -65.29 | X-H torsion
[ 10718 10713 10712 10709 ] final  105.67 input   66.30 | X-H torsion
[ 10763 10752 10751 10750 ] final  156.98 input  -60.55 | X-H torsion
[ 11005 11000 10999 10996 ] final  110.30 input  -57.11 | X-H torsion

> <Gold.Protein.ActiveResidues>
 VAL166  LYS551  ARG553  GLY616  TRP617  ASP618  TYR619  PRO620  LYS621  CYS622 
 ASP623  PHE694  ASN695  SER759  ASP760  ASP761  ALA762  ILE779  LEU786  VAL792 
 PHE793  MET794  SER795  GLU796  ALA797  LYS798  CYS799  TRP800  GLU811  SER814 

> <Gold.Protein.RotatedAtoms>
  152.2205  134.8417  160.0486 H   0  0  0  0  0  0  0  0  0  0  0  0  # atno 6907 bound_to 6896
  151.9202  133.3578  159.3902 H   0  0  0  0  0  0  0  0  0  0  0  0  # atno 6908 bound_to 6896
  150.6999  134.4567  159.5406 H   0  0  0  0  0  0  0  0  0  0  0  0  # atno 6909 bound_to 6896
  145.6340  140.9330  143.1072 H   0  0  0  0  0  0  0  0  0  0  0  0  # atno 7974 bound_to 7965
  154.4085  140.1245  156.4846 H   0  0  0  0  0  0  0  0  0  0  0  0  # atno 8008 bound_to 7997
  155.7051  140.3494  155.4930 H   0  0  0  0  0  0  0  0  0  0  0  0  # atno 8009 bound_to 7997
  155.9351  140.1077  157.1091 H   0  0  0  0  0  0  0  0  0  0  0  0  # atno 8010 bound_to 7997
  139.9653  144.5932  150.8034 H   0  0  0  0  0  0  0  0  0  0  0  0  # atno 10167 bound_to 10162
  157.6697  131.0833  150.5892 H   0  0  0  0  0  0  0  0  0  0  0  0  # atno 10718 bound_to 10713
  154.1930  135.2794  155.3015 H   0  0  0  0  0  0  0  0  0  0  0  0  # atno 10763 bound_to 10752
  154.5914  135.5558  153.7285 H   0  0  0  0  0  0  0  0  0  0  0  0  # atno 10764 bound_to 10752
  153.0107  135.6369  154.2069 H   0  0  0  0  0  0  0  0  0  0  0  0  # atno 10765 bound_to 10752
  139.8879  134.9480  156.6257 H   0  0  0  0  0  0  0  0  0  0  0  0  # atno 11005 bound_to 11000
  144.7183  139.8120  143.7391 LP  0  0  0  0  0  0  0  0  0  0  0  0  # atno 17320 bound_to 7965
  146.1334  139.4374  143.0154 LP  0  0  0  0  0  0  0  0  0  0  0  0  # atno 17321 bound_to 7965
  140.7540  143.3018  151.3061 LP  0  0  0  0  0  0  0  0  0  0  0  0  # atno 17342 bound_to 10162
  139.6522  144.0341  152.2634 LP  0  0  0  0  0  0  0  0  0  0  0  0  # atno 17343 bound_to 10162
  156.6193  130.4401  149.5828 LP  0  0  0  0  0  0  0  0  0  0  0  0  # atno 17370 bound_to 10713
  156.2369  130.6828  151.1518 LP  0  0  0  0  0  0  0  0  0  0  0  0  # atno 17371 bound_to 10713
  140.7705  133.8742  155.8488 LP  0  0  0  0  0  0  0  0  0  0  0  0  # atno 17394 bound_to 11000
  140.9846  134.1360  157.4464 LP  0  0  0  0  0  0  0  0  0  0  0  0  # atno 17395 bound_to 11000

$$$$
