AV-unprocessed.smi:1897|AV-procd|sdf|7688|dock8
  -GOLD-   22720 9423D 1   1.00000     0.00000
 Structure written by MMmdl.
 39 41  0  0  0  0  0  0  0  0  2 V2000
  150.9856  140.8069  156.3336 C   0  0  0  0  0  0  0  0  0  0  0  0
  149.8613  140.0200  155.7522 C   0  0  0  0  0  0  0  0  0  0  0  0
  148.6154  140.0688  156.2391 N   0  0  0  0  0  0  0  0  0  0  0  0
  147.7458  139.2456  155.5395 N   0  0  0  0  0  0  0  0  0  0  0  0
  148.3582  138.6059  154.5321 C   0  0  0  0  0  0  0  0  0  0  0  0
  147.7174  137.6767  153.6620 N   0  0  0  0  0  0  0  0  0  0  0  0
  146.4115  137.3886  153.4797 C   0  0  0  0  0  0  0  0  0  0  0  0
  145.5363  137.9666  154.1214 O   0  0  0  0  0  0  0  0  0  0  0  0
  146.1387  136.4434  152.5645 N   0  0  0  0  0  0  0  0  0  0  0  0
  144.8067  136.0085  152.1513 C   0  0  2  0  0  0  0  0  0  0  0  0
  143.8893  135.6863  153.3472 C   0  0  0  0  0  0  0  0  0  0  0  0
  143.1729  134.3900  152.9541 C   0  0  0  0  0  0  0  0  0  0  0  0
  144.1733  133.6963  152.1348 N   0  3  1  0  0  0  0  0  0  0  0  0
  143.7509  132.5091  151.3641 C   0  0  0  0  0  0  0  0  0  0  0  0
  145.0037  131.8631  150.7349 C   0  0  0  0  0  0  0  0  0  0  0  0
  145.8446  132.8796  149.9297 C   0  0  0  0  0  0  0  0  0  0  0  0
  146.1448  134.1521  150.7509 C   0  0  0  0  0  0  0  0  0  0  0  0
  144.8216  134.7197  151.2967 C   0  0  2  0  0  0  0  0  0  0  0  0
  150.0742  138.9434  154.3771 S   0  0  0  0  0  0  0  0  0  0  0  0
  150.6102  141.7067  156.8219 H   0  0  0  0  0  0  0  0  0  0  0  0
  151.6829  141.1024  155.5494 H   0  0  0  0  0  0  0  0  0  0  0  0
  151.5191  140.2045  157.0692 H   0  0  0  0  0  0  0  0  0  0  0  0
  148.3532  137.0750  153.1584 H   0  0  0  0  0  0  0  0  0  0  0  0
  146.9223  136.0156  152.0916 H   0  0  0  0  0  0  0  0  0  0  0  0
  144.3336  136.8016  151.5686 H   0  0  0  0  0  0  0  0  0  0  0  0
  144.4844  135.5089  154.2447 H   0  0  0  0  0  0  0  0  0  0  0  0
  143.1923  136.4946  153.5710 H   0  0  0  0  0  0  0  0  0  0  0  0
  142.8690  133.7972  153.8175 H   0  0  0  0  0  0  0  0  0  0  0  0
  142.2887  134.6057  152.3521 H   0  0  0  0  0  0  0  0  0  0  0  0
  143.2527  131.7990  152.0253 H   0  0  0  0  0  0  0  0  0  0  0  0
  143.0325  132.7966  150.5950 H   0  0  0  0  0  0  0  0  0  0  0  0
  145.6226  131.4396  151.5272 H   0  0  0  0  0  0  0  0  0  0  0  0
  144.7131  131.0289  150.0956 H   0  0  0  0  0  0  0  0  0  0  0  0
  146.7756  132.4179  149.5997 H   0  0  0  0  0  0  0  0  0  0  0  0
  145.3021  133.1558  149.0244 H   0  0  0  0  0  0  0  0  0  0  0  0
  146.8254  133.9150  151.5700 H   0  0  0  0  0  0  0  0  0  0  0  0
  146.6468  134.8880  150.1221 H   0  0  0  0  0  0  0  0  0  0  0  0
  144.1639  134.9098  150.4454 H   0  0  0  0  0  0  0  0  0  0  0  0
  144.8798  133.3806  152.7838 H   0  0  0  0  0  0  0  0  0  0  0  0
  1  2  1  0  0  0  0
  1 20  1  0  0  0  0
  1 21  1  0  0  0  0
  1 22  1  0  0  0  0
  2 19  1  0  0  0  0
  2  3  2  0  0  0  0
  3  4  1  0  0  0  0
  4  5  2  0  0  0  0
  5  6  1  0  0  0  0
  5 19  1  0  0  0  0
  6  7  1  0  0  0  0
  6 23  1  0  0  0  0
  7  8  2  0  0  0  0
  7  9  1  0  0  0  0
  9 10  1  0  0  0  0
  9 24  1  0  0  0  0
 10 18  1  0  0  0  0
 10 11  1  0  0  0  0
 10 25  1  0  0  0  0
 11 12  1  0  0  0  0
 11 26  1  0  0  0  0
 11 27  1  0  0  0  0
 12 13  1  0  0  0  0
 12 28  1  0  0  0  0
 12 29  1  0  0  0  0
 13 18  1  0  0  0  0
 13 14  1  0  0  0  0
 13 39  1  0  0  0  0
 14 15  1  0  0  0  0
 14 30  1  0  0  0  0
 14 31  1  0  0  0  0
 15 16  1  0  0  0  0
 15 32  1  0  0  0  0
 15 33  1  0  0  0  0
 16 17  1  0  0  0  0
 16 34  1  0  0  0  0
 16 35  1  0  0  0  0
 17 18  1  0  0  0  0
 17 36  1  0  0  0  0
 17 37  1  0  0  0  0
 18 38  1  0  0  0  0
M  CHG  1  13   1
M  END
> <s_m_source_file>
AV-unprocessed.smi

> <i_m_source_file_index>
1897

> <i_lp_mmshare_version>
43012

> <i_f3d_flags>
0

> <s_epik_input>
W0NIM11jMW5uYyhzMSlbTkhdQyg9TylbTkhdW0NASF0oW0NIMl1bQ0gyXTIpW0NAQEhdKE4yMylbQ0gyXVtDSDJdW0NIMl1bQ0gyXTM=

> <s_epik_cmdline>
J2VwaWtfcHl0aG9uJywgJy1waCcsICc3LjAnLCAnLXRuJywgJzgnLCAnLW1hJywgJzIwMCcsICctbWV0YWxfYmluZGluZycsICctaW1hZScsICc8aW5maWxlLm1hZT4nLCAnLW9tYWUnLCAnPG91dGZpbGUubWFlPic=

> <r_lp_tautomer_probability>
1

> <r_epik_Ionization_Penalty>
0.00228891

> <r_epik_Ionization_Penalty_Charging>
0.00107044

> <r_epik_Ionization_Penalty_Neutral>
0.00121847

> <r_epik_State_Penalty>
-0

> <r_epik_Charging_Adjusted_Penalty>
0.00107044

> <i_epik_Tot_Q>
1

> <i_epik_Tot_abs_Q>
1

> <r_epik_Metal_State_Penalty>
0.304057

> <b_epik_Metal_Only>
0

> <s_lp_Force_Field>
OPLS_2005

> <r_lp_Energy>
42.5593

> <b_lp_Chiralities_Consistent>
1

> <s_lp_Variant>
AV-unprocessed.smi:1897-5

> <Gold.Version>
5.8.1

> <Gold.Id.Protein>
6NUR|6NUR_protein|mol2

> <Gold.PLP.Fitness>
36.1492

> <Gold.PLP.PLP>
-31.1246

> <Gold.PLP.part.hbond>
-1.8477

> <Gold.PLP.part.metal>
0.0000

> <Gold.PLP.part.buried>
-3.2142

> <Gold.PLP.part.nonpolar>
-25.8791

> <Gold.PLP.part.repulsive>
1.1772

> <Gold.PLP.ligand.clash>
0.0000

> <Gold.PLP.ligand.torsion>
0.1402

> <Gold.PLP.Chemscore.Hbond>
1.7680

> <Gold.PLP.Chemscore.CHOScore>
0.0000

> <Gold.PLP.Chemscore.Metal>
0.0000

> <Gold.Chemscore.Hbonds>
donor molecule, donor type, donor heavy atom, donor atom, acceptor molecule, acceptor atom, score
      L1  H     6    23       P1  7948  1.00
      L1  H     9    24       P1  7948  0.82

> <Gold.PLP.Chemscore.Internal.Correction>
0.0011

> <Gold.Rescore>
     Score         DG    S(hbond)    S(metal)    S(lipo)     H(rot)  DE(clash)    DE(int)     intcor
     14.63     -17.67       1.90        0.00      71.96       1.00       0.03       3.01       ----

> <Gold.Chemscore.Fitness>
14.6252

> <Gold.Chemscore.DG>
-17.6748

> <Gold.Chemscore.ZeroCoef>
-5.4800

> <Gold.Chemscore.Hbond>
1.8967

> <Gold.Chemscore.Metal>
0.0000

> <Gold.Chemscore.Lipo>
71.9638

> <Gold.Chemscore.Internal_Hbond>
0.0000

> <Gold.Chemscore.DEClash>
0.0347

> <Gold.Chemscore.DEInternal>
3.0149

> <Gold.Chemscore.Rot>
1.0000

> <Gold.Chemscore.Internal.Correction>
   9.000000E+99

> <Gold.Chemscore.Hbonds>
donor molecule, donor type, donor heavy atom, donor atom, acceptor molecule, acceptor atom, score
      L1  H     6    23       P1  7948  0.99
      L1  H     9    24       P1  7948  0.77

> <Gold.Chemscore.Hbond.Weighted>
-6.3351

> <Gold.Chemscore.Metal.Weighted>
-0.0000

> <Gold.Chemscore.Lipo.Weighted>
-8.4198

> <Gold.Chemscore.Internal_Hbond.Weighted>
0.0000

> <Gold.Chemscore.DEClash.Weighted>
0.0347

> <Gold.Chemscore.DEInternal.Weighted>
3.0149

> <Gold.Chemscore.Rot.Weighted>
2.5600

> <Gold.Chemscore.Internal.Correction.Weighted>
   9.000000E+99

> <Gold.Protein.RotatedTorsions>
[ 6907 6896 6895 6894 ] final -126.68 input  -60.11 | X-H torsion
[ 7974 7965 7964 7962 ] final   59.50 input  175.53 | X-H torsion
[ 8008 7997 7996 7995 ] final   96.51 input   59.86 | X-H torsion
[ 10167 10162 10161 10158 ] final  -83.08 input  -65.29 | X-H torsion
[ 10718 10713 10712 10709 ] final  -28.04 input   66.30 | X-H torsion
[ 10763 10752 10751 10750 ] final  -72.80 input  -60.55 | X-H torsion
[ 11005 11000 10999 10996 ] final   -8.62 input  -57.11 | X-H torsion

> <Gold.Protein.ActiveResidues>
 VAL166  LYS551  ARG553  GLY616  TRP617  ASP618  TYR619  PRO620  LYS621  CYS622 
 ASP623  PHE694  ASN695  SER759  ASP760  ASP761  ALA762  ILE779  LEU786  VAL792 
 PHE793  MET794  SER795  GLU796  ALA797  LYS798  CYS799  TRP800  GLU811  SER814 

> <Gold.Protein.RotatedAtoms>
  150.8994  133.7138  159.2882 H   0  0  0  0  0  0  0  0  0  0  0  0  # atno 6907 bound_to 6896
  151.4662  135.1041  159.9748 H   0  0  0  0  0  0  0  0  0  0  0  0  # atno 6908 bound_to 6896
  152.4868  133.8345  159.7176 H   0  0  0  0  0  0  0  0  0  0  0  0  # atno 6909 bound_to 6896
  145.9065  139.3621  143.0561 H   0  0  0  0  0  0  0  0  0  0  0  0  # atno 7974 bound_to 7965
  156.0804  140.3271  155.7686 H   0  0  0  0  0  0  0  0  0  0  0  0  # atno 8008 bound_to 7997
  155.5162  140.0581  157.2932 H   0  0  0  0  0  0  0  0  0  0  0  0  # atno 8009 bound_to 7997
  154.4579  140.1952  156.0345 H   0  0  0  0  0  0  0  0  0  0  0  0  # atno 8010 bound_to 7997
  140.4260  143.2566  151.8825 H   0  0  0  0  0  0  0  0  0  0  0  0  # atno 10167 bound_to 10162
  156.4304  130.4444  149.7121 H   0  0  0  0  0  0  0  0  0  0  0  0  # atno 10718 bound_to 10713
  154.4507  135.5918  153.6190 H   0  0  0  0  0  0  0  0  0  0  0  0  # atno 10763 bound_to 10752
  152.9813  135.6020  154.3608 H   0  0  0  0  0  0  0  0  0  0  0  0  # atno 10764 bound_to 10752
  154.3469  135.2841  155.2372 H   0  0  0  0  0  0  0  0  0  0  0  0  # atno 10765 bound_to 10752
  140.7254  133.8793  155.8852 H   0  0  0  0  0  0  0  0  0  0  0  0  # atno 11005 bound_to 11000
  145.8726  140.9411  143.0643 LP  0  0  0  0  0  0  0  0  0  0  0  0  # atno 17320 bound_to 7965
  144.6739  140.0674  143.7474 LP  0  0  0  0  0  0  0  0  0  0  0  0  # atno 17321 bound_to 7965
  139.4783  144.5386  151.8561 LP  0  0  0  0  0  0  0  0  0  0  0  0  # atno 17342 bound_to 10162
  140.4481  144.1893  150.5895 LP  0  0  0  0  0  0  0  0  0  0  0  0  # atno 17343 bound_to 10162
  156.4027  130.7682  151.2691 LP  0  0  0  0  0  0  0  0  0  0  0  0  # atno 17370 bound_to 10713
  157.7508  131.0235  150.3837 LP  0  0  0  0  0  0  0  0  0  0  0  0  # atno 17371 bound_to 10713
  140.9967  134.1206  157.4357 LP  0  0  0  0  0  0  0  0  0  0  0  0  # atno 17394 bound_to 11000
  139.8838  135.0056  156.6327 LP  0  0  0  0  0  0  0  0  0  0  0  0  # atno 17395 bound_to 11000

$$$$
