AV-unprocessed.smi:1512|AV-procd|sdf|6102|dock2
  -GOLD-   22720 6233D 1   1.00000     0.00000
 Structure written by MMmdl.
 44 46  0  0  0  0  0  0  0  0  3 V2000
  150.2562  141.4626  157.2973 C   0  0  0  0  0  0  0  0  0  0  0  0
  149.6544  142.5379  158.2188 C   0  0  2  0  0  0  0  0  0  0  0  0
  148.3307  142.9211  157.7319 N   0  0  0  0  0  0  0  0  0  0  0  0
  147.1692  142.6968  158.3650 C   0  0  0  0  0  0  0  0  0  0  0  0
  147.0918  142.1116  159.4463 O   0  0  0  0  0  0  0  0  0  0  0  0
  145.9106  143.2070  157.6476 C   0  0  0  0  0  0  0  0  0  0  0  0
  144.9802  143.9318  158.5306 N   0  0  0  0  0  0  0  0  0  0  0  0
  144.7928  145.3015  158.2668 C   0  0  0  0  0  0  0  0  0  0  0  0
  143.9638  146.0574  159.0003 C   0  0  0  0  0  0  0  0  0  0  0  0
  143.2541  145.4325  160.0894 C   0  0  0  0  0  0  0  0  0  0  0  0
  143.4159  144.1169  160.3611 C   0  0  0  0  0  0  0  0  0  0  0  0
  142.6766  143.5560  161.4689 N   0  3  0  0  0  0  0  0  0  0  0  0
  141.8667  144.2634  162.0603 O   0  0  0  0  0  0  0  0  0  0  0  0
  142.8755  142.3832  161.7722 O   0  5  0  0  0  0  0  0  0  0  0  0
  144.3232  143.2848  159.5432 C   0  0  0  0  0  0  0  0  0  0  0  0
  144.4842  142.0787  159.7393 O   0  0  0  0  0  0  0  0  0  0  0  0
  150.5457  143.7989  158.3133 C   0  0  1  0  0  0  0  0  0  0  0  0
  150.3121  144.6646  159.5731 C   0  0  0  0  0  0  0  0  0  0  0  0
  151.7383  144.8904  160.1088 C   0  0  1  0  0  0  0  0  0  0  0  0
  152.2451  143.5882  160.7550 C   0  0  0  0  0  0  0  0  0  0  0  0
  152.5050  142.6856  159.5354 C   0  0  0  0  0  0  0  0  0  0  0  0
  152.0786  143.5777  158.3511 C   0  0  2  0  0  0  0  0  0  0  0  0
  152.5601  144.9453  158.8262 C   0  0  0  0  0  0  0  0  0  0  0  0
  151.2240  141.1219  157.6650 H   0  0  0  0  0  0  0  0  0  0  0  0
  150.3984  141.8420  156.2850 H   0  0  0  0  0  0  0  0  0  0  0  0
  149.6100  140.5863  157.2364 H   0  0  0  0  0  0  0  0  0  0  0  0
  149.5353  142.1143  159.2166 H   0  0  0  0  0  0  0  0  0  0  0  0
  148.2986  143.4062  156.8468 H   0  0  0  0  0  0  0  0  0  0  0  0
  146.2103  143.8423  156.8119 H   0  0  0  0  0  0  0  0  0  0  0  0
  145.4111  142.3527  157.1884 H   0  0  0  0  0  0  0  0  0  0  0  0
  145.3551  145.6914  157.4306 H   0  0  0  0  0  0  0  0  0  0  0  0
  143.8283  147.1061  158.7800 H   0  0  0  0  0  0  0  0  0  0  0  0
  142.5932  146.0373  160.6936 H   0  0  0  0  0  0  0  0  0  0  0  0
  150.3317  144.4174  157.4393 H   0  0  0  0  0  0  0  0  0  0  0  0
  149.8400  145.6101  159.3040 H   0  0  0  0  0  0  0  0  0  0  0  0
  149.6765  144.1785  160.3147 H   0  0  0  0  0  0  0  0  0  0  0  0
  151.8298  145.7636  160.7555 H   0  0  0  0  0  0  0  0  0  0  0  0
  153.1695  143.7611  161.3073 H   0  0  0  0  0  0  0  0  0  0  0  0
  151.5186  143.1574  161.4450 H   0  0  0  0  0  0  0  0  0  0  0  0
  153.5670  142.4464  159.4652 H   0  0  0  0  0  0  0  0  0  0  0  0
  151.9668  141.7400  159.5848 H   0  0  0  0  0  0  0  0  0  0  0  0
  152.4984  143.2628  157.3954 H   0  0  0  0  0  0  0  0  0  0  0  0
  152.2738  145.7633  158.1627 H   0  0  0  0  0  0  0  0  0  0  0  0
  153.6363  144.9898  159.0037 H   0  0  0  0  0  0  0  0  0  0  0  0
  1  2  1  0  0  0  0
  1 24  1  0  0  0  0
  1 25  1  0  0  0  0
  1 26  1  0  0  0  0
  2  3  1  0  0  0  0
  2 17  1  0  0  0  0
  2 27  1  0  0  0  0
  3  4  1  0  0  0  0
  3 28  1  0  0  0  0
  4  5  2  0  0  0  0
  4  6  1  0  0  0  0
  6  7  1  0  0  0  0
  6 29  1  0  0  0  0
  6 30  1  0  0  0  0
  7 15  1  0  0  0  0
  7  8  1  0  0  0  0
  8  9  2  0  0  0  0
  8 31  1  0  0  0  0
  9 10  1  0  0  0  0
  9 32  1  0  0  0  0
 10 11  2  0  0  0  0
 10 33  1  0  0  0  0
 11 12  1  0  0  0  0
 11 15  1  0  0  0  0
 12 13  2  0  0  0  0
 12 14  1  0  0  0  0
 15 16  2  0  0  0  0
 17 22  1  0  0  0  0
 17 18  1  0  0  0  0
 17 34  1  0  0  0  0
 18 19  1  0  0  0  0
 18 35  1  0  0  0  0
 18 36  1  0  0  0  0
 19 23  1  0  0  0  0
 19 20  1  0  0  0  0
 19 37  1  0  0  0  0
 20 21  1  0  0  0  0
 20 38  1  0  0  0  0
 20 39  1  0  0  0  0
 21 22  1  0  0  0  0
 21 40  1  0  0  0  0
 21 41  1  0  0  0  0
 22 23  1  0  0  0  0
 22 42  1  0  0  0  0
 23 43  1  0  0  0  0
 23 44  1  0  0  0  0
M  CHG  1  12   1
M  CHG  1  14  -1
M  END
> <s_m_source_file>
AV-unprocessed.smi

> <i_m_source_file_index>
1512

> <i_lp_mmshare_version>
43012

> <i_f3d_flags>
0

> <s_epik_input>
W0NIMl0xW0NIMl1bQ0BIXShbQ0gyXTIpW0NAQEhdKFtDSDJdW0NAQEhdMTIpW0NASF0oW0NIM10pW05IXUMoPU8pW0NIMl1uM1tjSF1bY0hdW2NIXWMoW04rXSg9TylbTy1dKWMzPU8=

> <s_epik_cmdline>
J2VwaWtfcHl0aG9uJywgJy1waCcsICc3LjAnLCAnLXRuJywgJzgnLCAnLW1hJywgJzIwMCcsICctbWV0YWxfYmluZGluZycsICctaW1hZScsICc8aW5maWxlLm1hZT4nLCAnLW9tYWUnLCAnPG91dGZpbGUubWFlPic=

> <r_lp_tautomer_probability>
1

> <r_epik_Ionization_Penalty>
2.17697e-08

> <r_epik_Ionization_Penalty_Charging>
1.42735e-10

> <r_epik_Ionization_Penalty_Neutral>
2.16269e-08

> <r_epik_State_Penalty>
-0

> <r_epik_Charging_Adjusted_Penalty>
1.42735e-10

> <i_epik_Tot_Q>
0

> <i_epik_Tot_abs_Q>
2

> <r_epik_Metal_State_Penalty>
-0

> <b_epik_Metal_Only>
0

> <s_lp_Force_Field>
OPLS_2005

> <r_lp_Energy>
64.3295

> <b_lp_Chiralities_Consistent>
1

> <s_lp_Variant>
AV-unprocessed.smi:1512-3

> <Gold.Version>
5.8.1

> <Gold.Id.Protein>
6NUR|6NUR_protein|mol2

> <Gold.PLP.Fitness>
46.1675

> <Gold.PLP.PLP>
-39.9613

> <Gold.PLP.part.hbond>
-5.5655

> <Gold.PLP.part.metal>
0.0000

> <Gold.PLP.part.buried>
-4.4787

> <Gold.PLP.part.nonpolar>
-30.5303

> <Gold.PLP.part.repulsive>
0.1554

> <Gold.PLP.ligand.clash>
0.0000

> <Gold.PLP.ligand.torsion>
0.6312

> <Gold.PLP.Chemscore.Hbond>
1.6360

> <Gold.PLP.Chemscore.CHOScore>
0.8453

> <Gold.PLP.Chemscore.Metal>
0.0000

> <Gold.Chemscore.Hbonds>
donor molecule, donor type, donor heavy atom, donor atom, acceptor molecule, acceptor atom, score
      L1  H     3    28       P1  8028  0.85
      P1  H  6934  6946       L1     5  0.72
      L1  C     8    31       P1  8029  0.97

> <Gold.PLP.Chemscore.Internal.Correction>
0.0247

> <Gold.Rescore>
     Score         DG    S(hbond)    S(metal)    S(lipo)     H(rot)  DE(clash)    DE(int)     intcor
     13.01     -17.69       1.31        0.00     105.26       1.75       0.26       4.42       ----

> <Gold.Chemscore.Fitness>
13.0130

> <Gold.Chemscore.DG>
-17.6939

> <Gold.Chemscore.ZeroCoef>
-5.4800

> <Gold.Chemscore.Hbond>
1.3088

> <Gold.Chemscore.Metal>
0.0000

> <Gold.Chemscore.Lipo>
105.2630

> <Gold.Chemscore.Internal_Hbond>
0.0000

> <Gold.Chemscore.DEClash>
0.2578

> <Gold.Chemscore.DEInternal>
4.4232

> <Gold.Chemscore.Rot>
1.7474

> <Gold.Chemscore.Internal.Correction>
   9.000000E+99

> <Gold.Chemscore.Hbonds>
donor molecule, donor type, donor heavy atom, donor atom, acceptor molecule, acceptor atom, score
      L1  H     3    28       P1  8028  0.14
      P1  H  6933  6944       L1     5  0.03
      P1  H  6934  6946       L1     5  0.72

> <Gold.Chemscore.Hbond.Weighted>
-4.3715

> <Gold.Chemscore.Metal.Weighted>
-0.0000

> <Gold.Chemscore.Lipo.Weighted>
-12.3158

> <Gold.Chemscore.Internal_Hbond.Weighted>
0.0000

> <Gold.Chemscore.DEClash.Weighted>
0.2578

> <Gold.Chemscore.DEInternal.Weighted>
4.4232

> <Gold.Chemscore.Rot.Weighted>
4.4733

> <Gold.Chemscore.Internal.Correction.Weighted>
   9.000000E+99

> <Gold.Protein.RotatedTorsions>
[ 6907 6896 6895 6894 ] final   37.87 input  -60.11 | X-H torsion
[ 7974 7965 7964 7962 ] final   -2.26 input  175.53 | X-H torsion
[ 8008 7997 7996 7995 ] final -104.59 input   59.86 | X-H torsion
[ 10167 10162 10161 10158 ] final   34.60 input  -65.29 | X-H torsion
[ 10718 10713 10712 10709 ] final   44.84 input   66.30 | X-H torsion
[ 10763 10752 10751 10750 ] final  -82.31 input  -60.55 | X-H torsion
[ 11005 11000 10999 10996 ] final  -52.10 input  -57.11 | X-H torsion

> <Gold.Protein.ActiveResidues>
 VAL166  LYS551  ARG553  GLY616  TRP617  ASP618  TYR619  PRO620  LYS621  CYS622 
 ASP623  PHE694  ASN695  SER759  ASP760  ASP761  ALA762  ILE779  LEU786  VAL792 
 PHE793  MET794  SER795  GLU796  ALA797  LYS798  CYS799  TRP800  GLU811  SER814 

> <Gold.Protein.RotatedAtoms>
  152.1489  134.9004  160.0549 H   0  0  0  0  0  0  0  0  0  0  0  0  # atno 6907 bound_to 6896
  152.0043  133.3832  159.4202 H   0  0  0  0  0  0  0  0  0  0  0  0  # atno 6908 bound_to 6896
  150.6873  134.3722  159.5041 H   0  0  0  0  0  0  0  0  0  0  0  0  # atno 6909 bound_to 6896
  146.2407  140.1543  142.8333 H   0  0  0  0  0  0  0  0  0  0  0  0  # atno 7974 bound_to 7965
  154.8875  140.0417  157.1819 H   0  0  0  0  0  0  0  0  0  0  0  0  # atno 8008 bound_to 7997
  154.8575  140.2939  155.5538 H   0  0  0  0  0  0  0  0  0  0  0  0  # atno 8009 bound_to 7997
  156.2997  140.2453  156.3544 H   0  0  0  0  0  0  0  0  0  0  0  0  # atno 8010 bound_to 7997
  140.4300  144.1338  150.6158 H   0  0  0  0  0  0  0  0  0  0  0  0  # atno 10167 bound_to 10162
  157.4312  130.8026  149.7604 H   0  0  0  0  0  0  0  0  0  0  0  0  # atno 10718 bound_to 10713
  154.5742  135.5596  153.7123 H   0  0  0  0  0  0  0  0  0  0  0  0  # atno 10763 bound_to 10752
  153.0059  135.6304  154.2072 H   0  0  0  0  0  0  0  0  0  0  0  0  # atno 10764 bound_to 10752
  154.2012  135.2878  155.2970 H   0  0  0  0  0  0  0  0  0  0  0  0  # atno 10765 bound_to 10752
  141.0906  133.6633  156.3974 H   0  0  0  0  0  0  0  0  0  0  0  0  # atno 11005 bound_to 11000
  145.0141  140.8739  143.5206 LP  0  0  0  0  0  0  0  0  0  0  0  0  # atno 17320 bound_to 7965
  145.1582  139.2474  143.5405 LP  0  0  0  0  0  0  0  0  0  0  0  0  # atno 17321 bound_to 7965
  140.4438  143.2515  151.9438 LP  0  0  0  0  0  0  0  0  0  0  0  0  # atno 17342 bound_to 10162
  139.4784  144.5629  151.8211 LP  0  0  0  0  0  0  0  0  0  0  0  0  # atno 17343 bound_to 10162
  155.9914  130.3938  150.2987 LP  0  0  0  0  0  0  0  0  0  0  0  0  # atno 17370 bound_to 10713
  157.1144  131.0230  151.3035 LP  0  0  0  0  0  0  0  0  0  0  0  0  # atno 17371 bound_to 10713
  140.5260  134.6258  157.5334 LP  0  0  0  0  0  0  0  0  0  0  0  0  # atno 17394 bound_to 11000
  139.9732  134.7259  156.0001 LP  0  0  0  0  0  0  0  0  0  0  0  0  # atno 17395 bound_to 11000

$$$$
