AV-unprocessed.smi:276|AV-procd|sdf|2076|dock10
  -GOLD-   2262021343D 1   1.00000     0.00000
 Structure written by MMmdl.
 57 61  0  0  0  0  0  0  0  0  1 V2000
  142.7134  135.6875  162.5194 C   0  0  0  0  0  0  0  0  0  0  0  0
  143.8936  135.0100  162.1256 O   0  0  0  0  0  0  0  0  0  0  0  0
  145.0086  135.8790  162.0075 C   0  0  2  0  0  0  0  0  0  0  0  0
  145.0884  136.6258  160.6713 C   0  0  0  0  0  0  0  0  0  0  0  0
  146.6066  136.4135  160.7339 C   0  0  2  0  0  0  0  0  0  0  0  0
  147.2037  136.1740  159.4175 N   0  0  0  0  0  0  0  0  0  0  0  0
  146.3352  135.5550  158.4243 C   0  0  0  0  0  0  0  0  0  0  0  0
  147.8776  137.2106  158.8700 C   0  0  0  0  0  0  0  0  0  0  0  0
  147.1582  138.0827  158.1201 N   0  0  0  0  0  0  0  0  0  0  0  0
  147.7649  139.1134  157.5243 C   0  0  0  0  0  0  0  0  0  0  0  0
  149.0555  139.4522  157.5525 N   0  0  0  0  0  0  0  0  0  0  0  0
  149.7757  138.5922  158.3278 C   0  0  0  0  0  0  0  0  0  0  0  0
  149.2711  137.4604  159.0279 C   0  0  0  0  0  0  0  0  0  0  0  0
  150.3011  136.8406  159.7264 N   0  0  0  0  0  0  0  0  0  0  0  0
  151.3572  137.5489  159.4345 C   0  0  0  0  0  0  0  0  0  0  0  0
  151.1323  138.6136  158.5923 N   0  0  0  0  0  0  0  0  0  0  0  0
  152.1192  139.5510  158.0906 C   0  0  0  0  0  0  0  0  0  0  0  0
  152.8496  140.3154  159.2151 C   0  0  1  0  0  0  0  0  0  0  0  0
  154.2144  139.9543  159.1459 O   0  0  0  0  0  0  0  0  0  0  0  0
  152.7218  141.8529  159.1268 C   0  0  2  0  0  0  0  0  0  0  0  0
  152.9971  142.5908  160.4371 C   0  0  0  0  0  0  0  0  0  0  0  0
  152.3288  143.9338  160.2128 C   0  0  0  0  0  0  0  0  0  0  0  0
  151.2307  143.6222  159.1936 C   0  0  0  0  0  0  0  0  0  0  0  0
  151.3794  142.2440  158.8714 O   0  0  0  0  0  0  0  0  0  0  0  0
  146.3159  135.1655  161.6115 C   0  0  0  0  0  0  0  0  0  0  0  0
  147.2958  134.6900  162.6921 C   0  0  0  0  0  0  0  0  0  0  0  0
  147.5570  133.4248  161.8689 C   0  0  0  0  0  0  0  0  0  0  0  0
  146.2927  133.7260  161.0570 C   0  0  0  0  0  0  0  0  0  0  0  0
  141.8918  134.9757  162.5959 H   0  0  0  0  0  0  0  0  0  0  0  0
  142.4306  136.4495  161.7921 H   0  0  0  0  0  0  0  0  0  0  0  0
  142.8391  136.1624  163.4933 H   0  0  0  0  0  0  0  0  0  0  0  0
  145.1471  136.5337  162.8710 H   0  0  0  0  0  0  0  0  0  0  0  0
  144.6055  136.0853  159.8546 H   0  0  0  0  0  0  0  0  0  0  0  0
  144.7702  137.6677  160.7119 H   0  0  0  0  0  0  0  0  0  0  0  0
  147.0819  137.2142  161.3021 H   0  0  0  0  0  0  0  0  0  0  0  0
  145.4965  136.2098  158.1839 H   0  0  0  0  0  0  0  0  0  0  0  0
  145.9338  134.6127  158.7973 H   0  0  0  0  0  0  0  0  0  0  0  0
  146.8783  135.3390  157.5031 H   0  0  0  0  0  0  0  0  0  0  0  0
  147.1255  139.7550  156.9362 H   0  0  0  0  0  0  0  0  0  0  0  0
  152.3370  137.3057  159.8190 H   0  0  0  0  0  0  0  0  0  0  0  0
  152.8353  138.9965  157.4824 H   0  0  0  0  0  0  0  0  0  0  0  0
  151.6177  140.2514  157.4210 H   0  0  0  0  0  0  0  0  0  0  0  0
  152.4749  139.9831  160.1840 H   0  0  0  0  0  0  0  0  0  0  0  0
  154.4363  139.4731  159.9285 H   0  0  0  0  0  0  0  0  0  0  0  0
  153.3672  142.2465  158.3391 H   0  0  0  0  0  0  0  0  0  0  0  0
  152.5174  142.0731  161.2691 H   0  0  0  0  0  0  0  0  0  0  0  0
  154.0606  142.6810  160.6608 H   0  0  0  0  0  0  0  0  0  0  0  0
  151.9354  144.3560  161.1380 H   0  0  0  0  0  0  0  0  0  0  0  0
  153.0389  144.6467  159.7911 H   0  0  0  0  0  0  0  0  0  0  0  0
  150.2345  143.8072  159.5956 H   0  0  0  0  0  0  0  0  0  0  0  0
  151.3514  144.2267  158.2939 H   0  0  0  0  0  0  0  0  0  0  0  0
  148.1697  135.3257  162.8308 H   0  0  0  0  0  0  0  0  0  0  0  0
  146.8028  134.4760  163.6413 H   0  0  0  0  0  0  0  0  0  0  0  0
  148.4723  133.4830  161.2800 H   0  0  0  0  0  0  0  0  0  0  0  0
  147.5127  132.4991  162.4431 H   0  0  0  0  0  0  0  0  0  0  0  0
  145.4411  133.1416  161.4065 H   0  0  0  0  0  0  0  0  0  0  0  0
  146.4120  133.6325  159.9783 H   0  0  0  0  0  0  0  0  0  0  0  0
  1  2  1  0  0  0  0
  1 29  1  0  0  0  0
  1 30  1  0  0  0  0
  1 31  1  0  0  0  0
  2  3  1  0  0  0  0
  3 25  1  0  0  0  0
  3  4  1  0  0  0  0
  3 32  1  0  0  0  0
  4  5  1  0  0  0  0
  4 33  1  0  0  0  0
  4 34  1  0  0  0  0
  5  6  1  0  0  0  0
  5 25  1  0  0  0  0
  5 35  1  0  0  0  0
  6  7  1  0  0  0  0
  6  8  1  0  0  0  0
  7 36  1  0  0  0  0
  7 37  1  0  0  0  0
  7 38  1  0  0  0  0
  8 13  1  0  0  0  0
  8  9  2  0  0  0  0
  9 10  1  0  0  0  0
 10 11  2  0  0  0  0
 10 39  1  0  0  0  0
 11 12  1  0  0  0  0
 12 16  1  0  0  0  0
 12 13  2  0  0  0  0
 13 14  1  0  0  0  0
 14 15  2  0  0  0  0
 15 16  1  0  0  0  0
 15 40  1  0  0  0  0
 16 17  1  0  0  0  0
 17 18  1  0  0  0  0
 17 41  1  0  0  0  0
 17 42  1  0  0  0  0
 18 19  1  0  0  0  0
 18 20  1  0  0  0  0
 18 43  1  0  0  0  0
 19 44  1  0  0  0  0
 20 24  1  0  0  0  0
 20 21  1  0  0  0  0
 20 45  1  0  0  0  0
 21 22  1  0  0  0  0
 21 46  1  0  0  0  0
 21 47  1  0  0  0  0
 22 23  1  0  0  0  0
 22 48  1  0  0  0  0
 22 49  1  0  0  0  0
 23 24  1  0  0  0  0
 23 50  1  0  0  0  0
 23 51  1  0  0  0  0
 25 28  1  0  0  0  0
 25 26  1  0  0  0  0
 26 27  1  0  0  0  0
 26 52  1  0  0  0  0
 26 53  1  0  0  0  0
 27 28  1  0  0  0  0
 27 54  1  0  0  0  0
 27 55  1  0  0  0  0
 28 56  1  0  0  0  0
 28 57  1  0  0  0  0
M  END
> <s_m_source_file>
AV-unprocessed.smi

> <i_m_source_file_index>
276

> <i_lp_mmshare_version>
43012

> <i_f3d_flags>
0

> <s_epik_input>
W0NIMl0xW0NIMl1bQ0gyXUMxMltDQEhdKE9bQ0gzXSlbQ0gyXVtDQEhdMk4oW0NIM10pYyhuW2NIXW4zKWMoYzM0KW5bY0hdbjRbQ0gyXVtDQEhdKFtPSF0pW0NAQEhdNVtDSDJdW0NIMl1bQ0gyXU81

> <s_epik_cmdline>
J2VwaWtfcHl0aG9uJywgJy1waCcsICc3LjAnLCAnLXRuJywgJzgnLCAnLW1hJywgJzIwMCcsICctbWV0YWxfYmluZGluZycsICctaW1hZScsICc8aW5maWxlLm1hZT4nLCAnLW9tYWUnLCAnPG91dGZpbGUubWFlPic=

> <r_lp_tautomer_probability>
1

> <r_epik_Ionization_Penalty>
0.00204117

> <r_epik_Ionization_Penalty_Charging>
0

> <r_epik_Ionization_Penalty_Neutral>
0.00204117

> <r_epik_State_Penalty>
0.00127401

> <r_epik_Charging_Adjusted_Penalty>
0.00127401

> <i_epik_Tot_Q>
0

> <i_epik_Tot_abs_Q>
0

> <r_epik_Metal_State_Penalty>
-0

> <b_epik_Metal_Only>
0

> <s_lp_Force_Field>
OPLS_2005

> <r_lp_Energy>
54.0539

> <b_lp_Chiralities_Consistent>
1

> <s_lp_Variant>
AV-unprocessed.smi:276-7

> <Gold.Version>
5.8.1

> <Gold.Id.Protein>
6NUR|6NUR_protein|mol2

> <Gold.PLP.Fitness>
45.7335

> <Gold.PLP.PLP>
-43.7489

> <Gold.PLP.part.hbond>
-2.0604

> <Gold.PLP.part.metal>
0.0000

> <Gold.PLP.part.buried>
-6.8947

> <Gold.PLP.part.nonpolar>
-34.8027

> <Gold.PLP.part.repulsive>
0.0480

> <Gold.PLP.ligand.clash>
0.0000

> <Gold.PLP.ligand.torsion>
2.3510

> <Gold.PLP.Chemscore.Hbond>
2.0000

> <Gold.PLP.Chemscore.CHOScore>
0.0000

> <Gold.PLP.Chemscore.Metal>
0.0000

> <Gold.Chemscore.Hbonds>
donor molecule, donor type, donor heavy atom, donor atom, acceptor molecule, acceptor atom, score
      P1  H  6896  6909       L1    14  1.00
      P1  H  7997  8010       L1    19  1.00

> <Gold.PLP.Chemscore.Internal.Correction>
0.6865

> <Gold.Rescore>
     Score         DG    S(hbond)    S(metal)    S(lipo)     H(rot)  DE(clash)    DE(int)     intcor
     14.65     -17.00       1.64        0.00     111.16       2.72       0.09       2.26       ----

> <Gold.Chemscore.Fitness>
14.6455

> <Gold.Chemscore.DG>
-16.9969

> <Gold.Chemscore.ZeroCoef>
-5.4800

> <Gold.Chemscore.Hbond>
1.6369

> <Gold.Chemscore.Metal>
0.0000

> <Gold.Chemscore.Lipo>
111.1583

> <Gold.Chemscore.Internal_Hbond>
0.0000

> <Gold.Chemscore.DEClash>
0.0917

> <Gold.Chemscore.DEInternal>
2.2597

> <Gold.Chemscore.Rot>
2.7172

> <Gold.Chemscore.Internal.Correction>
   9.000000E+99

> <Gold.Chemscore.Hbonds>
donor molecule, donor type, donor heavy atom, donor atom, acceptor molecule, acceptor atom, score
      P1  H  6896  6909       L1    14  0.34
      P1  H  7997  8010       L1    19  0.84

> <Gold.Chemscore.Hbond.Weighted>
-5.4673

> <Gold.Chemscore.Metal.Weighted>
-0.0000

> <Gold.Chemscore.Lipo.Weighted>
-13.0055

> <Gold.Chemscore.Internal_Hbond.Weighted>
0.0000

> <Gold.Chemscore.DEClash.Weighted>
0.0917

> <Gold.Chemscore.DEInternal.Weighted>
2.2597

> <Gold.Chemscore.Rot.Weighted>
6.9560

> <Gold.Chemscore.Internal.Correction.Weighted>
   9.000000E+99

> <Gold.Protein.RotatedTorsions>
[ 6907 6896 6895 6894 ] final   85.74 input  -60.11 | X-H torsion
[ 7974 7965 7964 7962 ] final   91.06 input  175.53 | X-H torsion
[ 8008 7997 7996 7995 ] final    5.75 input   59.86 | X-H torsion
[ 10167 10162 10161 10158 ] final  149.49 input  -65.29 | X-H torsion
[ 10718 10713 10712 10709 ] final -140.96 input   66.30 | X-H torsion
[ 10763 10752 10751 10750 ] final   19.91 input  -60.55 | X-H torsion
[ 11005 11000 10999 10996 ] final  -29.69 input  -57.11 | X-H torsion

> <Gold.Protein.ActiveResidues>
 VAL166  LYS551  ARG553  GLY616  TRP617  ASP618  TYR619  PRO620  LYS621  CYS622 
 ASP623  PHE694  ASN695  SER759  ASP760  ASP761  ALA762  ILE779  LEU786  VAL792 
 PHE793  MET794  SER795  GLU796  ALA797  LYS798  CYS799  TRP800  GLU811  SER814 

> <Gold.Protein.RotatedAtoms>
  152.5381  134.2539  159.8909 H   0  0  0  0  0  0  0  0  0  0  0  0  # atno 6907 bound_to 6896
  151.2502  133.4347  159.2618 H   0  0  0  0  0  0  0  0  0  0  0  0  # atno 6908 bound_to 6896
  151.0546  134.9710  159.8285 H   0  0  0  0  0  0  0  0  0  0  0  0  # atno 6909 bound_to 6896
  145.5106  139.2277  143.2726 H   0  0  0  0  0  0  0  0  0  0  0  0  # atno 7974 bound_to 7965
  154.7324  140.2733  155.6445 H   0  0  0  0  0  0  0  0  0  0  0  0  # atno 8008 bound_to 7997
  156.2853  140.2713  156.1953 H   0  0  0  0  0  0  0  0  0  0  0  0  # atno 8009 bound_to 7997
  155.0365  140.0371  157.2483 H   0  0  0  0  0  0  0  0  0  0  0  0  # atno 8010 bound_to 7997
  139.4861  144.5597  151.7252 H   0  0  0  0  0  0  0  0  0  0  0  0  # atno 10167 bound_to 10162
  156.3285  130.7573  151.1686 H   0  0  0  0  0  0  0  0  0  0  0  0  # atno 10718 bound_to 10713
  153.1121  135.6699  153.9481 H   0  0  0  0  0  0  0  0  0  0  0  0  # atno 10763 bound_to 10752
  153.9021  135.3034  155.3450 H   0  0  0  0  0  0  0  0  0  0  0  0  # atno 10764 bound_to 10752
  154.7540  135.5020  153.9419 H   0  0  0  0  0  0  0  0  0  0  0  0  # atno 10765 bound_to 10752
  140.9318  133.7333  156.0948 H   0  0  0  0  0  0  0  0  0  0  0  0  # atno 11005 bound_to 11000
  146.2169  140.5913  142.9035 LP  0  0  0  0  0  0  0  0  0  0  0  0  # atno 17320 bound_to 7965
  144.7729  140.5677  143.6658 LP  0  0  0  0  0  0  0  0  0  0  0  0  # atno 17321 bound_to 7965
  140.5165  144.0945  150.6010 LP  0  0  0  0  0  0  0  0  0  0  0  0  # atno 17342 bound_to 10162
  140.3888  143.2763  152.0084 LP  0  0  0  0  0  0  0  0  0  0  0  0  # atno 17343 bound_to 10162
  157.7426  131.0488  150.5014 LP  0  0  0  0  0  0  0  0  0  0  0  0  # atno 17370 bound_to 10713
  156.5176  130.4154  149.6268 LP  0  0  0  0  0  0  0  0  0  0  0  0  # atno 17371 bound_to 10713
  140.7852  134.3680  157.5478 LP  0  0  0  0  0  0  0  0  0  0  0  0  # atno 17394 bound_to 11000
  139.8798  134.9106  156.3018 LP  0  0  0  0  0  0  0  0  0  0  0  0  # atno 17395 bound_to 11000

$$$$
