AV-unprocessed.smi:2044|AV-procd|sdf|8305|dock3
  -GOLD-   2272010573D 1   1.00000     0.00000
 Structure written by MMmdl.
 39 40  0  0  0  0  0  0  0  0  3 V2000
  150.8671  140.7334  156.5577 C   0  0  0  0  0  0  0  0  0  0  0  0
  151.2960  139.5357  155.7808 C   0  0  0  0  0  0  0  0  0  0  0  0
  150.6087  138.6155  155.0414 C   0  0  0  0  0  0  0  0  0  0  0  0
  151.6316  137.7471  154.5714 C   0  0  0  0  0  0  0  0  0  0  0  0
  151.4531  136.6631  153.8012 N   0  5  0  0  0  0  0  0  0  0  0  0
  151.1078  135.4810  154.3597 C   0  0  0  0  0  0  0  0  0  0  0  0
  151.7986  134.8029  155.1237 O   0  0  0  0  0  0  0  0  0  0  0  0
  149.8892  135.0528  153.9985 N   0  0  0  0  0  0  0  0  0  0  0  0
  149.2403  133.8180  154.4327 C   0  0  0  0  0  0  0  0  0  0  0  0
  148.7669  132.9330  153.2502 C   0  0  1  0  0  0  0  0  0  0  0  0
  148.5087  131.4782  153.7149 C   0  0  0  0  0  0  0  0  0  0  0  0
  147.5801  133.5668  152.5871 N   0  3  0  0  0  0  0  0  0  0  0  0
  147.0183  132.7258  151.4950 C   0  0  0  0  0  0  0  0  0  0  0  0
  145.8737  133.4519  150.7706 C   0  0  0  0  0  0  0  0  0  0  0  0
  144.8594  133.7892  151.7052 O   0  0  0  0  0  0  0  0  0  0  0  0
  145.3457  134.6737  152.7035 C   0  0  0  0  0  0  0  0  0  0  0  0
  146.4814  134.0010  153.4938 C   0  0  0  0  0  0  0  0  0  0  0  0
  152.8317  138.1001  155.0006 N   0  0  0  0  0  0  0  0  0  0  0  0
  152.6259  139.2503  155.7718 O   0  0  0  0  0  0  0  0  0  0  0  0
  150.2067  140.4452  157.3753 H   0  0  0  0  0  0  0  0  0  0  0  0
  150.3299  141.4345  155.9190 H   0  0  0  0  0  0  0  0  0  0  0  0
  151.7249  141.2544  156.9837 H   0  0  0  0  0  0  0  0  0  0  0  0
  149.5448  138.5710  154.8622 H   0  0  0  0  0  0  0  0  0  0  0  0
  149.3652  135.6444  153.3699 H   0  0  0  0  0  0  0  0  0  0  0  0
  149.8920  133.2425  155.0920 H   0  0  0  0  0  0  0  0  0  0  0  0
  148.4003  134.1302  155.0501 H   0  0  0  0  0  0  0  0  0  0  0  0
  149.5709  132.8827  152.5137 H   0  0  0  0  0  0  0  0  0  0  0  0
  149.3897  131.0420  154.1841 H   0  0  0  0  0  0  0  0  0  0  0  0
  148.2709  130.8161  152.8827 H   0  0  0  0  0  0  0  0  0  0  0  0
  147.6945  131.4288  154.4385 H   0  0  0  0  0  0  0  0  0  0  0  0
  147.7811  132.4696  150.7625 H   0  0  0  0  0  0  0  0  0  0  0  0
  146.6523  131.7856  151.9103 H   0  0  0  0  0  0  0  0  0  0  0  0
  146.2366  134.3476  150.2636 H   0  0  0  0  0  0  0  0  0  0  0  0
  145.4446  132.8052  150.0050 H   0  0  0  0  0  0  0  0  0  0  0  0
  145.6877  135.6043  152.2471 H   0  0  0  0  0  0  0  0  0  0  0  0
  144.5254  134.9325  153.3734 H   0  0  0  0  0  0  0  0  0  0  0  0
  146.0973  133.1409  154.0446 H   0  0  0  0  0  0  0  0  0  0  0  0
  146.8420  134.7258  154.2232 H   0  0  0  0  0  0  0  0  0  0  0  0
  147.9259  134.4128  152.1568 H   0  0  0  0  0  0  0  0  0  0  0  0
  1  2  1  0  0  0  0
  1 20  1  0  0  0  0
  1 21  1  0  0  0  0
  1 22  1  0  0  0  0
  2 19  1  0  0  0  0
  2  3  2  0  0  0  0
  3  4  1  0  0  0  0
  3 23  1  0  0  0  0
  4  5  1  0  0  0  0
  4 18  2  0  0  0  0
  5  6  1  0  0  0  0
  6  7  2  0  0  0  0
  6  8  1  0  0  0  0
  8  9  1  0  0  0  0
  8 24  1  0  0  0  0
  9 10  1  0  0  0  0
  9 25  1  0  0  0  0
  9 26  1  0  0  0  0
 10 11  1  0  0  0  0
 10 12  1  0  0  0  0
 10 27  1  0  0  0  0
 11 28  1  0  0  0  0
 11 29  1  0  0  0  0
 11 30  1  0  0  0  0
 12 17  1  0  0  0  0
 12 13  1  0  0  0  0
 12 39  1  0  0  0  0
 13 14  1  0  0  0  0
 13 31  1  0  0  0  0
 13 32  1  0  0  0  0
 14 15  1  0  0  0  0
 14 33  1  0  0  0  0
 14 34  1  0  0  0  0
 15 16  1  0  0  0  0
 16 17  1  0  0  0  0
 16 35  1  0  0  0  0
 16 36  1  0  0  0  0
 17 37  1  0  0  0  0
 17 38  1  0  0  0  0
 18 19  1  0  0  0  0
M  CHG  1   5  -1
M  CHG  1  12   1
M  END
> <s_m_source_file>
AV-unprocessed.smi

> <i_m_source_file_index>
2044

> <i_lp_mmshare_version>
43012

> <i_f3d_flags>
0

> <s_epik_input>
W0NIM11jMVtjSF1jKG5vMSlbTkhdQyg9TylbTkhdW0NIMl1bQ0BIXShbQ0gzXSlOMltDSDJdW0NIMl1PW0NIMl1bQ0gyXTI=

> <s_epik_cmdline>
J2VwaWtfcHl0aG9uJywgJy1waCcsICc3LjAnLCAnLXRuJywgJzgnLCAnLW1hJywgJzIwMCcsICctbWV0YWxfYmluZGluZycsICctaW1hZScsICc8aW5maWxlLm1hZT4nLCAnLW9tYWUnLCAnPG91dGZpbGUubWFlPic=

> <r_epik_Ionization_Penalty>
6.73014

> <r_epik_Ionization_Penalty_Charging>
6.73004

> <r_epik_Ionization_Penalty_Neutral>
9.51297e-05

> <r_epik_State_Penalty>
6.93052

> <r_epik_Charging_Adjusted_Penalty>
13.6606

> <i_epik_Tot_Q>
0

> <i_epik_Tot_abs_Q>
2

> <r_epik_Metal_State_Penalty>
2.86736

> <b_epik_Metal_Only>
1

> <s_lp_Force_Field>
OPLS_2005

> <r_lp_Energy>
8.75772

> <b_lp_Chiralities_Consistent>
1

> <s_lp_Variant>
AV-unprocessed.smi:2044-8

> <Gold.Version>
5.8.1

> <Gold.Id.Protein>
6NUR|6NUR_protein|mol2

> <Gold.PLP.Fitness>
44.5158

> <Gold.PLP.PLP>
-29.6308

> <Gold.PLP.part.hbond>
-4.0000

> <Gold.PLP.part.metal>
0.0000

> <Gold.PLP.part.buried>
-3.2217

> <Gold.PLP.part.nonpolar>
-21.8786

> <Gold.PLP.part.repulsive>
1.3980

> <Gold.PLP.ligand.clash>
0.0000

> <Gold.PLP.ligand.torsion>
1.6001

> <Gold.PLP.Chemscore.Hbond>
6.0000

> <Gold.PLP.Chemscore.CHOScore>
0.0000

> <Gold.PLP.Chemscore.Metal>
0.0000

> <Gold.Chemscore.Hbonds>
donor molecule, donor type, donor heavy atom, donor atom, acceptor molecule, acceptor atom, score
      L1  H     8    24       P1  7948  1.00
      L1  H    12    39       P1  7948  1.89
      P1  H  7997  8008       L1    19  1.00

> <Gold.PLP.Chemscore.Internal.Correction>
0.0852

> <Gold.Rescore>
     Score         DG    S(hbond)    S(metal)    S(lipo)     H(rot)  DE(clash)    DE(int)     intcor
     15.88     -17.78       3.13        0.00      50.55       1.59       0.26       1.63       ----

> <Gold.Chemscore.Fitness>
15.8801

> <Gold.Chemscore.DG>
-17.7751

> <Gold.Chemscore.ZeroCoef>
-5.4800

> <Gold.Chemscore.Hbond>
3.1313

> <Gold.Chemscore.Metal>
0.0000

> <Gold.Chemscore.Lipo>
50.5519

> <Gold.Chemscore.Internal_Hbond>
0.0000

> <Gold.Chemscore.DEClash>
0.2627

> <Gold.Chemscore.DEInternal>
1.6322

> <Gold.Chemscore.Rot>
1.5930

> <Gold.Chemscore.Internal.Correction>
   9.000000E+99

> <Gold.Chemscore.Hbonds>
donor molecule, donor type, donor heavy atom, donor atom, acceptor molecule, acceptor atom, score
      L1  H     8    24       P1  7948  0.29
      L1  H    12    39       P1  7948  0.23
      P1  H  7997  8008       L1    19  0.79

> <Gold.Chemscore.Hbond.Weighted>
-10.4585

> <Gold.Chemscore.Metal.Weighted>
-0.0000

> <Gold.Chemscore.Lipo.Weighted>
-5.9146

> <Gold.Chemscore.Internal_Hbond.Weighted>
0.0000

> <Gold.Chemscore.DEClash.Weighted>
0.2627

> <Gold.Chemscore.DEInternal.Weighted>
1.6322

> <Gold.Chemscore.Rot.Weighted>
4.0781

> <Gold.Chemscore.Internal.Correction.Weighted>
   9.000000E+99

> <Gold.Protein.RotatedTorsions>
[ 6907 6896 6895 6894 ] final -167.79 input  -60.11 | X-H torsion
[ 7974 7965 7964 7962 ] final  -64.33 input  175.53 | X-H torsion
[ 8008 7997 7996 7995 ] final  -39.21 input   59.86 | X-H torsion
[ 10167 10162 10161 10158 ] final   40.70 input  -65.29 | X-H torsion
[ 10718 10713 10712 10709 ] final  105.94 input   66.30 | X-H torsion
[ 10763 10752 10751 10750 ] final  153.35 input  -60.55 | X-H torsion
[ 11005 11000 10999 10996 ] final  -20.24 input  -57.11 | X-H torsion

> <Gold.Protein.ActiveResidues>
 VAL166  LYS551  ARG553  GLY616  TRP617  ASP618  TYR619  PRO620  LYS621  CYS622 
 ASP623  PHE694  ASN695  SER759  ASP760  ASP761  ALA762  ILE779  LEU786  VAL792 
 PHE793  MET794  SER795  GLU796  ALA797  LYS798  CYS799  TRP800  GLU811  SER814 

> <Gold.Protein.RotatedAtoms>
  151.4651  133.3583  159.2814 H   0  0  0  0  0  0  0  0  0  0  0  0  # atno 6907 bound_to 6896
  150.8998  134.8412  159.7363 H   0  0  0  0  0  0  0  0  0  0  0  0  # atno 6908 bound_to 6896
  152.4873  134.4571  159.9645 H   0  0  0  0  0  0  0  0  0  0  0  0  # atno 6909 bound_to 6896
  145.7680  140.8827  143.0395 H   0  0  0  0  0  0  0  0  0  0  0  0  # atno 7974 bound_to 7965
  154.4026  140.1557  156.2826 H   0  0  0  0  0  0  0  0  0  0  0  0  # atno 8008 bound_to 7997
  155.8856  140.3441  155.5897 H   0  0  0  0  0  0  0  0  0  0  0  0  # atno 8009 bound_to 7997
  155.7617  140.0818  157.2142 H   0  0  0  0  0  0  0  0  0  0  0  0  # atno 8010 bound_to 7997
  140.3716  144.2098  150.6133 H   0  0  0  0  0  0  0  0  0  0  0  0  # atno 10167 bound_to 10162
  157.6687  131.0839  150.5932 H   0  0  0  0  0  0  0  0  0  0  0  0  # atno 10718 bound_to 10713
  154.1348  135.2824  155.3176 H   0  0  0  0  0  0  0  0  0  0  0  0  # atno 10763 bound_to 10752
  154.6329  135.5429  153.7704 H   0  0  0  0  0  0  0  0  0  0  0  0  # atno 10764 bound_to 10752
  153.0269  135.6467  154.1497 H   0  0  0  0  0  0  0  0  0  0  0  0  # atno 10765 bound_to 10752
  140.8445  133.7902  155.9897 H   0  0  0  0  0  0  0  0  0  0  0  0  # atno 11005 bound_to 11000
  144.6818  139.9816  143.7483 LP  0  0  0  0  0  0  0  0  0  0  0  0  # atno 17320 bound_to 7965
  146.0198  139.3241  143.0820 LP  0  0  0  0  0  0  0  0  0  0  0  0  # atno 17321 bound_to 7965
  140.5028  143.2313  151.8653 LP  0  0  0  0  0  0  0  0  0  0  0  0  # atno 17342 bound_to 10162
  139.4803  144.5040  151.9022 LP  0  0  0  0  0  0  0  0  0  0  0  0  # atno 17343 bound_to 10162
  156.6232  130.4411  149.5814 LP  0  0  0  0  0  0  0  0  0  0  0  0  # atno 17370 bound_to 10713
  156.2339  130.6811  151.1491 LP  0  0  0  0  0  0  0  0  0  0  0  0  # atno 17371 bound_to 10713
  140.8858  134.2555  157.5120 LP  0  0  0  0  0  0  0  0  0  0  0  0  # atno 17394 bound_to 11000
  139.8703  134.9637  156.4472 LP  0  0  0  0  0  0  0  0  0  0  0  0  # atno 17395 bound_to 11000

$$$$
