AV-unprocessed.smi:227|AV-procd|sdf|1737|dock7
  -GOLD-   2262020233D 1   1.00000     0.00000
 Structure written by MMmdl.
 54 58  0  0  0  0  0  0  0  0  1 V2000
  151.4401  139.6849  154.8113 O   0  0  0  0  0  0  0  0  0  0  0  0
  151.6864  140.4741  155.9569 C   0  0  0  0  0  0  0  0  0  0  0  0
  151.0378  139.8565  157.2203 C   0  0  2  0  0  0  0  0  0  0  0  0
  149.5556  139.4633  157.0016 C   0  0  0  0  0  0  0  0  0  0  0  0
  149.0703  138.5030  157.9778 N   0  0  0  0  0  0  0  0  0  0  0  0
  149.8173  137.8659  158.9408 C   0  0  0  0  0  0  0  0  0  0  0  0
  149.1529  137.0388  159.7003 N   0  0  0  0  0  0  0  0  0  0  0  0
  147.8472  137.1072  159.2259 C   0  0  0  0  0  0  0  0  0  0  0  0
  146.6207  136.4746  159.5827 C   0  0  0  0  0  0  0  0  0  0  0  0
  146.5056  135.5623  160.5858 N   0  0  0  0  0  0  0  0  0  0  0  0
  147.6590  135.1719  161.3826 C   0  0  1  0  0  0  0  0  0  0  0  0
  147.9032  136.3782  162.3138 C   0  0  0  0  0  0  0  0  0  0  0  0
  146.4670  136.8724  162.5462 C   0  0  0  0  0  0  0  0  0  0  0  0
  145.6573  135.8407  161.7348 C   0  0  2  0  0  0  0  0  0  0  0  0
  145.6568  134.4942  162.4927 C   0  0  1  0  0  0  0  0  0  0  0  0
  144.5846  133.5094  161.9911 C   0  0  0  0  0  0  0  0  0  0  0  0
  144.9106  132.1902  162.3735 O   0  0  0  0  0  0  0  0  0  0  0  0
  147.0930  134.0069  162.2107 C   0  0  0  0  0  0  0  0  0  0  0  0
  145.5091  136.8377  158.8886 N   0  0  0  0  0  0  0  0  0  0  0  0
  145.5883  137.7306  157.8987 C   0  0  0  0  0  0  0  0  0  0  0  0
  146.6610  138.3814  157.4476 N   0  0  0  0  0  0  0  0  0  0  0  0
  147.7780  138.0387  158.1501 C   0  0  0  0  0  0  0  0  0  0  0  0
  151.2122  140.7596  158.4676 C   0  0  1  0  0  0  0  0  0  0  0  0
  152.6517  141.0006  158.8867 C   0  0  0  0  0  0  0  0  0  0  0  0
  152.5228  142.2303  159.7779 C   0  0  0  0  0  0  0  0  0  0  0  0
  151.4597  142.9937  159.2206 O   0  0  0  0  0  0  0  0  0  0  0  0
  150.7297  142.2034  158.2868 C   0  0  0  0  0  0  0  0  0  0  0  0
  150.5474  139.3764  154.8439 H   0  0  0  0  0  0  0  0  0  0  0  0
  152.7638  140.5836  156.0813 H   0  0  0  0  0  0  0  0  0  0  0  0
  151.3042  141.4784  155.7762 H   0  0  0  0  0  0  0  0  0  0  0  0
  151.5801  138.9307  157.4179 H   0  0  0  0  0  0  0  0  0  0  0  0
  148.9130  140.3419  157.0596 H   0  0  0  0  0  0  0  0  0  0  0  0
  149.4177  139.0479  156.0026 H   0  0  0  0  0  0  0  0  0  0  0  0
  150.8781  138.0325  159.0596 H   0  0  0  0  0  0  0  0  0  0  0  0
  148.5387  134.8832  160.8062 H   0  0  0  0  0  0  0  0  0  0  0  0
  148.4101  136.0982  163.2378 H   0  0  0  0  0  0  0  0  0  0  0  0
  148.4992  137.1478  161.8219 H   0  0  0  0  0  0  0  0  0  0  0  0
  146.1897  136.8957  163.6006 H   0  0  0  0  0  0  0  0  0  0  0  0
  146.3359  137.8766  162.1407 H   0  0  0  0  0  0  0  0  0  0  0  0
  144.6511  136.1870  161.5068 H   0  0  0  0  0  0  0  0  0  0  0  0
  145.5147  134.6529  163.5629 H   0  0  0  0  0  0  0  0  0  0  0  0
  143.5998  133.7652  162.3837 H   0  0  0  0  0  0  0  0  0  0  0  0
  144.5185  133.5449  160.9034 H   0  0  0  0  0  0  0  0  0  0  0  0
  144.5837  131.5975  161.7138 H   0  0  0  0  0  0  0  0  0  0  0  0
  147.0931  133.0877  161.6228 H   0  0  0  0  0  0  0  0  0  0  0  0
  147.6631  133.8209  163.1213 H   0  0  0  0  0  0  0  0  0  0  0  0
  144.6589  137.9560  157.3968 H   0  0  0  0  0  0  0  0  0  0  0  0
  150.6813  140.3202  159.3141 H   0  0  0  0  0  0  0  0  0  0  0  0
  153.0967  140.1540  159.4104 H   0  0  0  0  0  0  0  0  0  0  0  0
  153.2704  141.2305  158.0179 H   0  0  0  0  0  0  0  0  0  0  0  0
  152.2459  141.9375  160.7915 H   0  0  0  0  0  0  0  0  0  0  0  0
  153.4462  142.8073  159.8316 H   0  0  0  0  0  0  0  0  0  0  0  0
  150.9584  142.5662  157.2839 H   0  0  0  0  0  0  0  0  0  0  0  0
  149.6558  142.3055  158.4446 H   0  0  0  0  0  0  0  0  0  0  0  0
  1  2  1  0  0  0  0
  1 28  1  0  0  0  0
  2  3  1  0  0  0  0
  2 29  1  0  0  0  0
  2 30  1  0  0  0  0
  3  4  1  0  0  0  0
  3 23  1  0  0  0  0
  3 31  1  0  0  0  0
  4  5  1  0  0  0  0
  4 32  1  0  0  0  0
  4 33  1  0  0  0  0
  5 22  1  0  0  0  0
  5  6  1  0  0  0  0
  6  7  2  0  0  0  0
  6 34  1  0  0  0  0
  7  8  1  0  0  0  0
  8 22  2  0  0  0  0
  8  9  1  0  0  0  0
  9 10  1  0  0  0  0
  9 19  2  0  0  0  0
 10 14  1  0  0  0  0
 10 11  1  0  0  0  0
 11 18  1  0  0  0  0
 11 12  1  0  0  0  0
 11 35  1  0  0  0  0
 12 13  1  0  0  0  0
 12 36  1  0  0  0  0
 12 37  1  0  0  0  0
 13 14  1  0  0  0  0
 13 38  1  0  0  0  0
 13 39  1  0  0  0  0
 14 15  1  0  0  0  0
 14 40  1  0  0  0  0
 15 16  1  0  0  0  0
 15 18  1  0  0  0  0
 15 41  1  0  0  0  0
 16 17  1  0  0  0  0
 16 42  1  0  0  0  0
 16 43  1  0  0  0  0
 17 44  1  0  0  0  0
 18 45  1  0  0  0  0
 18 46  1  0  0  0  0
 19 20  1  0  0  0  0
 20 21  2  0  0  0  0
 20 47  1  0  0  0  0
 21 22  1  0  0  0  0
 23 27  1  0  0  0  0
 23 24  1  0  0  0  0
 23 48  1  0  0  0  0
 24 25  1  0  0  0  0
 24 49  1  0  0  0  0
 24 50  1  0  0  0  0
 25 26  1  0  0  0  0
 25 51  1  0  0  0  0
 25 52  1  0  0  0  0
 26 27  1  0  0  0  0
 27 53  1  0  0  0  0
 27 54  1  0  0  0  0
M  END
> <s_m_source_file>
AV-unprocessed.smi

> <i_m_source_file_index>
227

> <i_lp_mmshare_version>
43012

> <i_f3d_flags>
0

> <s_epik_input>
W0NIMl0xT1tDSDJdW0NIMl1bQ0BIXTFbQ0BIXShbQ0gyXVtPSF0pW0NIMl1uKFtjSF1uMiljKGMyMyluW2NIXW5jM04oW0NASF00NSlbQ0BASF0oW0NIMl1bQ0gyXTQpW0NASF0oW0NIMl01KVtDSDJdW09IXQ==

> <s_epik_cmdline>
J2VwaWtfcHl0aG9uJywgJy1waCcsICc3LjAnLCAnLXRuJywgJzgnLCAnLW1hJywgJzIwMCcsICctbWV0YWxfYmluZGluZycsICctaW1hZScsICc8aW5maWxlLm1hZT4nLCAnLW9tYWUnLCAnPG91dGZpbGUubWFlPic=

> <r_lp_tautomer_probability>
1

> <r_epik_Ionization_Penalty>
0.0055791

> <r_epik_Ionization_Penalty_Charging>
0

> <r_epik_Ionization_Penalty_Neutral>
0.0055791

> <r_epik_State_Penalty>
0.00401299

> <r_epik_Charging_Adjusted_Penalty>
0.00401299

> <i_epik_Tot_Q>
0

> <i_epik_Tot_abs_Q>
0

> <r_epik_Metal_State_Penalty>
-0

> <b_epik_Metal_Only>
0

> <s_lp_Force_Field>
OPLS_2005

> <r_lp_Energy>
87.9703

> <b_lp_Chiralities_Consistent>
1

> <s_lp_Variant>
AV-unprocessed.smi:227-11

> <Gold.Version>
5.8.1

> <Gold.Id.Protein>
6NUR|6NUR_protein|mol2

> <Gold.PLP.Fitness>
44.4772

> <Gold.PLP.PLP>
-42.1304

> <Gold.PLP.part.hbond>
-2.4593

> <Gold.PLP.part.metal>
0.0000

> <Gold.PLP.part.buried>
-6.9981

> <Gold.PLP.part.nonpolar>
-32.3766

> <Gold.PLP.part.repulsive>
0.0021

> <Gold.PLP.ligand.clash>
0.0000

> <Gold.PLP.ligand.torsion>
0.4264

> <Gold.PLP.Chemscore.Hbond>
1.0000

> <Gold.PLP.Chemscore.CHOScore>
0.0000

> <Gold.PLP.Chemscore.Metal>
0.0000

> <Gold.Chemscore.Hbonds>
donor molecule, donor type, donor heavy atom, donor atom, acceptor molecule, acceptor atom, score
      P1  H  7989  7998       L1     1  1.00

> <Gold.PLP.Chemscore.Internal.Correction>
0.1995

> <Gold.Rescore>
     Score         DG    S(hbond)    S(metal)    S(lipo)     H(rot)  DE(clash)    DE(int)     intcor
      9.75     -11.61       0.96        0.00     103.99       3.61       0.11       1.75       ----

> <Gold.Chemscore.Fitness>
9.7453

> <Gold.Chemscore.DG>
-11.6051

> <Gold.Chemscore.ZeroCoef>
-5.4800

> <Gold.Chemscore.Hbond>
0.9560

> <Gold.Chemscore.Metal>
0.0000

> <Gold.Chemscore.Lipo>
103.9859

> <Gold.Chemscore.Internal_Hbond>
0.0000

> <Gold.Chemscore.DEClash>
0.1117

> <Gold.Chemscore.DEInternal>
1.7481

> <Gold.Chemscore.Rot>
3.6071

> <Gold.Chemscore.Internal.Correction>
   9.000000E+99

> <Gold.Chemscore.Hbonds>
donor molecule, donor type, donor heavy atom, donor atom, acceptor molecule, acceptor atom, score
      P1  H  7989  7998       L1     1  0.27

> <Gold.Chemscore.Hbond.Weighted>
-3.1929

> <Gold.Chemscore.Metal.Weighted>
-0.0000

> <Gold.Chemscore.Lipo.Weighted>
-12.1664

> <Gold.Chemscore.Internal_Hbond.Weighted>
0.0000

> <Gold.Chemscore.DEClash.Weighted>
0.1117

> <Gold.Chemscore.DEInternal.Weighted>
1.7481

> <Gold.Chemscore.Rot.Weighted>
9.2342

> <Gold.Chemscore.Internal.Correction.Weighted>
   9.000000E+99

> <Gold.Protein.RotatedTorsions>
[ 6907 6896 6895 6894 ] final  -98.70 input  -60.11 | X-H torsion
[ 7974 7965 7964 7962 ] final   78.45 input  175.53 | X-H torsion
[ 8008 7997 7996 7995 ] final -132.14 input   59.86 | X-H torsion
[ 10167 10162 10161 10158 ] final  -26.77 input  -65.29 | X-H torsion
[ 10718 10713 10712 10709 ] final  170.90 input   66.30 | X-H torsion
[ 10763 10752 10751 10750 ] final  -12.70 input  -60.55 | X-H torsion
[ 11005 11000 10999 10996 ] final  -92.69 input  -57.11 | X-H torsion

> <Gold.Protein.ActiveResidues>
 VAL166  LYS551  ARG553  GLY616  TRP617  ASP618  TYR619  PRO620  LYS621  CYS622 
 ASP623  PHE694  ASN695  SER759  ASP760  ASP761  ALA762  ILE779  LEU786  VAL792 
 PHE793  MET794  SER795  GLU796  ALA797  LYS798  CYS799  TRP800  GLU811  SER814 

> <Gold.Protein.RotatedAtoms>
  150.7055  134.1154  159.4014 H   0  0  0  0  0  0  0  0  0  0  0  0  # atno 6907 bound_to 6896
  151.9140  135.0324  160.0526 H   0  0  0  0  0  0  0  0  0  0  0  0  # atno 6908 bound_to 6896
  152.2312  133.5024  159.5253 H   0  0  0  0  0  0  0  0  0  0  0  0  # atno 6909 bound_to 6896
  145.6770  139.2513  143.1835 H   0  0  0  0  0  0  0  0  0  0  0  0  # atno 7974 bound_to 7965
  155.3240  140.0463  157.3040 H   0  0  0  0  0  0  0  0  0  0  0  0  # atno 8008 bound_to 7997
  154.5364  140.2274  155.8680 H   0  0  0  0  0  0  0  0  0  0  0  0  # atno 8009 bound_to 7997
  156.1839  140.3067  155.9208 H   0  0  0  0  0  0  0  0  0  0  0  0  # atno 8010 bound_to 7997
  140.7281  143.4150  151.1044 H   0  0  0  0  0  0  0  0  0  0  0  0  # atno 10167 bound_to 10162
  157.0014  131.0177  151.2829 H   0  0  0  0  0  0  0  0  0  0  0  0  # atno 10718 bound_to 10713
  153.5023  135.7017  153.5825 H   0  0  0  0  0  0  0  0  0  0  0  0  # atno 10763 bound_to 10752
  153.3951  135.3886  155.1950 H   0  0  0  0  0  0  0  0  0  0  0  0  # atno 10764 bound_to 10752
  154.8710  135.3868  154.4495 H   0  0  0  0  0  0  0  0  0  0  0  0  # atno 10765 bound_to 10752
  141.1516  133.7838  157.0056 H   0  0  0  0  0  0  0  0  0  0  0  0  # atno 11005 bound_to 11000
  146.0996  140.7559  142.9555 LP  0  0  0  0  0  0  0  0  0  0  0  0  # atno 17320 bound_to 7965
  144.7038  140.3767  143.7134 LP  0  0  0  0  0  0  0  0  0  0  0  0  # atno 17321 bound_to 7965
  139.7788  143.8386  152.3134 LP  0  0  0  0  0  0  0  0  0  0  0  0  # atno 17342 bound_to 10162
  139.8330  144.7245  150.9427 LP  0  0  0  0  0  0  0  0  0  0  0  0  # atno 17343 bound_to 10162
  157.5387  130.8106  149.8003 LP  0  0  0  0  0  0  0  0  0  0  0  0  # atno 17370 bound_to 10713
  156.0169  130.3810  150.2081 LP  0  0  0  0  0  0  0  0  0  0  0  0  # atno 17371 bound_to 10713
  140.0911  134.9591  157.1778 LP  0  0  0  0  0  0  0  0  0  0  0  0  # atno 17394 bound_to 11000
  140.3444  134.2668  155.7207 LP  0  0  0  0  0  0  0  0  0  0  0  0  # atno 17395 bound_to 11000

$$$$
