AV-unprocessed.smi:1990|AV-procd|sdf|8063|dock3
  -GOLD-   2272010263D 1   1.00000     0.00000
 Structure written by MMmdl.
 46 47  0  0  0  0  0  0  0  0  1 V2000
  152.2597  144.5304  157.3060 C   0  0  0  0  0  0  0  0  0  0  0  0
  151.1168  144.0798  158.2335 C   0  0  2  0  0  0  0  0  0  0  0  0
  151.5743  143.7953  159.6778 C   0  0  0  0  0  0  0  0  0  0  0  0
  152.2880  142.5240  159.7622 N   0  0  0  0  0  0  0  0  0  0  0  0
  153.0048  142.2997  160.9579 C   0  0  0  0  0  0  0  0  0  0  0  0
  152.8939  143.2092  162.0358 C   0  0  0  0  0  0  0  0  0  0  0  0
  153.6173  142.9689  163.2197 C   0  0  0  0  0  0  0  0  0  0  0  0
  154.4470  141.8257  163.2963 C   0  0  0  0  0  0  0  0  0  0  0  0
  155.2156  141.4577  164.4342 N   0  0  0  0  0  0  0  0  0  0  0  0
  155.3099  142.0699  165.6297 C   0  0  0  0  0  0  0  0  0  0  0  0
  154.7525  143.1286  165.9174 O   0  0  0  0  0  0  0  0  0  0  0  0
  156.2114  141.3769  166.6613 C   0  0  1  0  0  0  0  0  0  0  0  0
  155.7467  139.9414  166.9592 C   0  0  0  0  0  0  0  0  0  0  0  0
  157.9657  141.3602  166.0607 S   0  0  0  0  0  0  0  0  0  0  0  0
  158.3998  139.5697  166.0857 C   0  0  0  0  0  0  0  0  0  0  0  0
  157.9710  141.8138  164.6616 O   0  0  0  0  0  0  0  0  0  0  0  0
  158.8154  142.0486  167.0445 O   0  0  0  0  0  0  0  0  0  0  0  0
  154.4862  140.9744  162.1743 C   0  0  0  0  0  0  0  0  0  0  0  0
  153.7947  141.2011  161.0384 N   0  0  0  0  0  0  0  0  0  0  0  0
  151.5427  141.4073  159.1875 C   0  0  0  0  0  0  0  0  0  0  0  0
  151.1279  141.7257  157.7401 C   0  0  1  0  0  0  0  0  0  0  0  0
  150.2296  140.6334  157.1504 C   0  0  0  0  0  0  0  0  0  0  0  0
  150.4060  142.9562  157.7086 O   0  0  0  0  0  0  0  0  0  0  0  0
  152.6966  145.4649  157.6586 H   0  0  0  0  0  0  0  0  0  0  0  0
  151.8948  144.6997  156.2929 H   0  0  0  0  0  0  0  0  0  0  0  0
  153.0651  143.7981  157.2545 H   0  0  0  0  0  0  0  0  0  0  0  0
  150.4003  144.9007  158.2699 H   0  0  0  0  0  0  0  0  0  0  0  0
  152.1757  144.6298  160.0358 H   0  0  0  0  0  0  0  0  0  0  0  0
  150.7030  143.7378  160.3316 H   0  0  0  0  0  0  0  0  0  0  0  0
  152.2747  144.0910  161.9664 H   0  0  0  0  0  0  0  0  0  0  0  0
  153.5096  143.6612  164.0394 H   0  0  0  0  0  0  0  0  0  0  0  0
  155.7945  140.6396  164.3124 H   0  0  0  0  0  0  0  0  0  0  0  0
  156.1964  141.9448  167.5924 H   0  0  0  0  0  0  0  0  0  0  0  0
  154.7054  139.9202  167.2825 H   0  0  0  0  0  0  0  0  0  0  0  0
  156.3457  139.4972  167.7543 H   0  0  0  0  0  0  0  0  0  0  0  0
  155.8393  139.2994  166.0823 H   0  0  0  0  0  0  0  0  0  0  0  0
  159.3861  139.4337  165.6430 H   0  0  0  0  0  0  0  0  0  0  0  0
  157.6660  139.0064  165.5100 H   0  0  0  0  0  0  0  0  0  0  0  0
  158.4195  139.2056  167.1124 H   0  0  0  0  0  0  0  0  0  0  0  0
  155.0943  140.0813  162.1848 H   0  0  0  0  0  0  0  0  0  0  0  0
  152.1515  140.5023  159.1953 H   0  0  0  0  0  0  0  0  0  0  0  0
  150.6609  141.2127  159.7997 H   0  0  0  0  0  0  0  0  0  0  0  0
  152.0169  141.8045  157.1140 H   0  0  0  0  0  0  0  0  0  0  0  0
  150.7376  139.6689  157.1440 H   0  0  0  0  0  0  0  0  0  0  0  0
  149.9524  140.8699  156.1229 H   0  0  0  0  0  0  0  0  0  0  0  0
  149.3105  140.5244  157.7268 H   0  0  0  0  0  0  0  0  0  0  0  0
  1  2  1  0  0  0  0
  1 24  1  0  0  0  0
  1 25  1  0  0  0  0
  1 26  1  0  0  0  0
  2 23  1  0  0  0  0
  2  3  1  0  0  0  0
  2 27  1  0  0  0  0
  3  4  1  0  0  0  0
  3 28  1  0  0  0  0
  3 29  1  0  0  0  0
  4  5  1  0  0  0  0
  4 20  1  0  0  0  0
  5 19  1  0  0  0  0
  5  6  2  0  0  0  0
  6  7  1  0  0  0  0
  6 30  1  0  0  0  0
  7  8  2  0  0  0  0
  7 31  1  0  0  0  0
  8  9  1  0  0  0  0
  8 18  1  0  0  0  0
  9 10  1  0  0  0  0
  9 32  1  0  0  0  0
 10 11  2  0  0  0  0
 10 12  1  0  0  0  0
 12 13  1  0  0  0  0
 12 14  1  0  0  0  0
 12 33  1  0  0  0  0
 13 34  1  0  0  0  0
 13 35  1  0  0  0  0
 13 36  1  0  0  0  0
 14 15  1  0  0  0  0
 14 16  2  0  0  0  0
 14 17  2  0  0  0  0
 15 37  1  0  0  0  0
 15 38  1  0  0  0  0
 15 39  1  0  0  0  0
 18 19  2  0  0  0  0
 18 40  1  0  0  0  0
 20 21  1  0  0  0  0
 20 41  1  0  0  0  0
 20 42  1  0  0  0  0
 21 22  1  0  0  0  0
 21 23  1  0  0  0  0
 21 43  1  0  0  0  0
 22 44  1  0  0  0  0
 22 45  1  0  0  0  0
 22 46  1  0  0  0  0
M  END
> <s_m_source_file>
AV-unprocessed.smi

> <i_m_source_file_index>
1990

> <i_lp_mmshare_version>
43012

> <i_f3d_flags>
0

> <s_epik_input>
W0NIM11bQ0BASF0xW0NIMl1OKFtDSDJdW0NASF0oTzEpW0NIM10pYzJbY0hdW2NIXWMoW2NIXW4yKVtOSF1DKD1PKVtDQEhdKFtDSDNdKVMoPU8pKD1PKVtDSDNd

> <s_epik_cmdline>
J2VwaWtfcHl0aG9uJywgJy1waCcsICc3LjAnLCAnLXRuJywgJzgnLCAnLW1hJywgJzIwMCcsICctbWV0YWxfYmluZGluZycsICctaW1hZScsICc8aW5maWxlLm1hZT4nLCAnLW9tYWUnLCAnPG91dGZpbGUubWFlPic=

> <r_lp_tautomer_probability>
1

> <r_epik_Ionization_Penalty>
0.000334888

> <r_epik_Ionization_Penalty_Charging>
0

> <r_epik_Ionization_Penalty_Neutral>
0.000334888

> <r_epik_State_Penalty>
0.000200905

> <r_epik_Charging_Adjusted_Penalty>
0.000200905

> <i_epik_Tot_Q>
0

> <i_epik_Tot_abs_Q>
0

> <r_epik_Metal_State_Penalty>
-0

> <b_epik_Metal_Only>
0

> <s_lp_Force_Field>
OPLS_2005

> <r_lp_Energy>
21.5475

> <b_lp_Chiralities_Consistent>
1

> <s_lp_Variant>
AV-unprocessed.smi:1990-3

> <Gold.Version>
5.8.1

> <Gold.Id.Protein>
6NUR|6NUR_protein|mol2

> <Gold.PLP.Fitness>
40.7528

> <Gold.PLP.PLP>
-40.8365

> <Gold.PLP.part.hbond>
-2.4958

> <Gold.PLP.part.metal>
0.0000

> <Gold.PLP.part.buried>
-4.0017

> <Gold.PLP.part.nonpolar>
-34.3843

> <Gold.PLP.part.repulsive>
0.2828

> <Gold.PLP.ligand.clash>
0.0000

> <Gold.PLP.ligand.torsion>
0.2858

> <Gold.PLP.Chemscore.Hbond>
0.0000

> <Gold.PLP.Chemscore.CHOScore>
0.0000

> <Gold.PLP.Chemscore.Metal>
0.0000

> <Gold.PLP.Chemscore.Internal.Correction>
0.4879

> <Gold.Rescore>
     Score         DG    S(hbond)    S(metal)    S(lipo)     H(rot)  DE(clash)    DE(int)     intcor
     10.92     -14.54       0.00        0.00     110.68       1.52       1.57       2.06       ----

> <Gold.Chemscore.Fitness>
10.9183

> <Gold.Chemscore.DG>
-14.5441

> <Gold.Chemscore.ZeroCoef>
-5.4800

> <Gold.Chemscore.Hbond>
0.0000

> <Gold.Chemscore.Metal>
0.0000

> <Gold.Chemscore.Lipo>
110.6786

> <Gold.Chemscore.Internal_Hbond>
0.0000

> <Gold.Chemscore.DEClash>
1.5699

> <Gold.Chemscore.DEInternal>
2.0559

> <Gold.Chemscore.Rot>
1.5177

> <Gold.Chemscore.Internal.Correction>
   9.000000E+99

> <Gold.Chemscore.Hbond.Weighted>
-0.0000

> <Gold.Chemscore.Metal.Weighted>
-0.0000

> <Gold.Chemscore.Lipo.Weighted>
-12.9494

> <Gold.Chemscore.Internal_Hbond.Weighted>
0.0000

> <Gold.Chemscore.DEClash.Weighted>
1.5699

> <Gold.Chemscore.DEInternal.Weighted>
2.0559

> <Gold.Chemscore.Rot.Weighted>
3.8853

> <Gold.Chemscore.Internal.Correction.Weighted>
   9.000000E+99

> <Gold.Protein.RotatedTorsions>
[ 6907 6896 6895 6894 ] final  -37.45 input  -60.11 | X-H torsion
[ 7974 7965 7964 7962 ] final -100.80 input  175.53 | X-H torsion
[ 8008 7997 7996 7995 ] final  -26.36 input   59.86 | X-H torsion
[ 10167 10162 10161 10158 ] final  170.44 input  -65.29 | X-H torsion
[ 10718 10713 10712 10709 ] final  164.14 input   66.30 | X-H torsion
[ 10763 10752 10751 10750 ] final  -47.16 input  -60.55 | X-H torsion
[ 11005 11000 10999 10996 ] final -179.19 input  -57.11 | X-H torsion

> <Gold.Protein.ActiveResidues>
 VAL166  LYS551  ARG553  GLY616  TRP617  ASP618  TYR619  PRO620  LYS621  CYS622 
 ASP623  PHE694  ASN695  SER759  ASP760  ASP761  ALA762  ILE779  LEU786  VAL792 
 PHE793  MET794  SER795  GLU796  ALA797  LYS798  CYS799  TRP800  GLU811  SER814 

> <Gold.Protein.RotatedAtoms>
  151.0146  134.9423  159.8025 H   0  0  0  0  0  0  0  0  0  0  0  0  # atno 6907 bound_to 6896
  152.5311  134.2984  159.9079 H   0  0  0  0  0  0  0  0  0  0  0  0  # atno 6908 bound_to 6896
  151.2990  133.4089  159.2672 H   0  0  0  0  0  0  0  0  0  0  0  0  # atno 6909 bound_to 6896
  145.2899  140.9350  143.2884 H   0  0  0  0  0  0  0  0  0  0  0  0  # atno 7974 bound_to 7965
  154.4429  140.1901  156.0764 H   0  0  0  0  0  0  0  0  0  0  0  0  # atno 8008 bound_to 7997
  156.0472  140.3313  155.7283 H   0  0  0  0  0  0  0  0  0  0  0  0  # atno 8009 bound_to 7997
  155.5611  140.0604  157.2819 H   0  0  0  0  0  0  0  0  0  0  0  0  # atno 8010 bound_to 7997
  139.5018  144.3596  151.9838 H   0  0  0  0  0  0  0  0  0  0  0  0  # atno 10167 bound_to 10162
  157.0985  131.0436  151.2508 H   0  0  0  0  0  0  0  0  0  0  0  0  # atno 10718 bound_to 10713
  154.0568  135.6623  153.4807 H   0  0  0  0  0  0  0  0  0  0  0  0  # atno 10763 bound_to 10752
  153.0442  135.5125  154.7697 H   0  0  0  0  0  0  0  0  0  0  0  0  # atno 10764 bound_to 10752
  154.6721  135.3031  154.9694 H   0  0  0  0  0  0  0  0  0  0  0  0  # atno 10765 bound_to 10752
  140.4213  134.6603  157.4665 H   0  0  0  0  0  0  0  0  0  0  0  0  # atno 11005 bound_to 11000
  144.9181  139.4445  143.6554 LP  0  0  0  0  0  0  0  0  0  0  0  0  # atno 17320 bound_to 7965
  146.3188  139.8027  142.8962 LP  0  0  0  0  0  0  0  0  0  0  0  0  # atno 17321 bound_to 7965
  140.3033  144.3622  150.6054 LP  0  0  0  0  0  0  0  0  0  0  0  0  # atno 17342 bound_to 10162
  140.5857  143.2170  151.7347 LP  0  0  0  0  0  0  0  0  0  0  0  0  # atno 17343 bound_to 10162
  157.4661  130.7681  149.7280 LP  0  0  0  0  0  0  0  0  0  0  0  0  # atno 17370 bound_to 10713
  155.9879  130.3963  150.3141 LP  0  0  0  0  0  0  0  0  0  0  0  0  # atno 17371 bound_to 10713
  140.0198  134.6564  155.9256 LP  0  0  0  0  0  0  0  0  0  0  0  0  # atno 17394 bound_to 11000
  141.1783  133.6543  156.4915 LP  0  0  0  0  0  0  0  0  0  0  0  0  # atno 17395 bound_to 11000

$$$$
