AV-unprocessed.smi:280|AV-procd|sdf|2099|dock8
  -GOLD-   2262021383D 1   1.00000     0.00000
 Structure written by MMmdl.
 59 62  0  0  0  0  0  0  0  0  2 V2000
  148.8875  137.2667  155.5855 C   0  0  0  0  0  0  0  0  0  0  0  0
  149.0793  137.7885  154.1441 C   0  0  2  0  0  0  0  0  0  0  0  0
  149.8527  139.1242  154.1148 C   0  0  0  0  0  0  0  0  0  0  0  0
  149.0093  140.2307  154.5684 N   0  0  0  0  0  0  0  0  0  0  0  0
  149.1484  140.6704  155.8493 C   0  0  0  0  0  0  0  0  0  0  0  0
  148.0094  140.9016  156.5535 N   0  0  0  0  0  0  0  0  0  0  0  0
  148.0616  141.3307  157.8166 C   0  0  0  0  0  0  0  0  0  0  0  0
  149.1343  141.5917  158.5627 N   0  0  0  0  0  0  0  0  0  0  0  0
  150.2855  141.3656  157.8687 C   0  0  0  0  0  0  0  0  0  0  0  0
  150.3866  140.9102  156.5212 C   0  0  0  0  0  0  0  0  0  0  0  0
  151.7292  140.8230  156.1668 N   0  0  0  0  0  0  0  0  0  0  0  0
  152.3775  141.1850  157.2390 C   0  0  0  0  0  0  0  0  0  0  0  0
  151.5875  141.5167  158.3144 N   0  0  0  0  0  0  0  0  0  0  0  0
  152.0369  141.9512  159.6281 C   0  0  0  0  0  0  0  0  0  0  0  0
  151.9160  143.4691  159.8858 C   0  0  0  0  0  0  0  0  0  0  0  0
  152.3078  143.8069  161.3366 C   0  0  0  0  0  0  0  0  0  0  0  0
  151.9174  142.7950  162.2440 O   0  0  0  0  0  0  0  0  0  0  0  0
  152.4788  144.3960  158.7966 C   0  0  0  0  0  0  0  0  0  0  0  0
  151.1686  144.6470  158.2474 O   0  0  0  0  0  0  0  0  0  0  0  0
  150.5745  144.0580  159.4230 C   0  0  0  0  0  0  0  0  0  0  0  0
  147.7474  140.3696  153.8493 C   0  0  0  0  0  0  0  0  0  0  0  0
  146.9542  139.0494  153.8625 C   0  0  0  0  0  0  0  0  0  0  0  0
  147.7986  137.9196  153.3871 N   0  3  2  0  0  0  0  0  0  0  0  0
  147.0577  136.6410  153.2065 C   0  0  0  0  0  0  0  0  0  0  0  0
  146.0670  136.6713  152.0168 C   0  0  0  0  0  0  0  0  0  0  0  0
  146.3614  137.8249  151.0402 C   0  0  0  0  0  0  0  0  0  0  0  0
  146.0990  135.3257  151.2728 C   0  0  0  0  0  0  0  0  0  0  0  0
  144.7479  136.8242  152.4999 O   0  0  0  0  0  0  0  0  0  0  0  0
  149.8488  137.1803  156.0925 H   0  0  0  0  0  0  0  0  0  0  0  0
  148.4271  136.2795  155.6061 H   0  0  0  0  0  0  0  0  0  0  0  0
  148.2667  137.9307  156.1865 H   0  0  0  0  0  0  0  0  0  0  0  0
  149.6916  137.0568  153.6151 H   0  0  0  0  0  0  0  0  0  0  0  0
  150.7750  139.0335  154.6885 H   0  0  0  0  0  0  0  0  0  0  0  0
  150.1602  139.3420  153.0915 H   0  0  0  0  0  0  0  0  0  0  0  0
  147.1073  141.4855  158.2987 H   0  0  0  0  0  0  0  0  0  0  0  0
  153.4564  141.2214  157.2714 H   0  0  0  0  0  0  0  0  0  0  0  0
  151.4617  141.3959  160.3704 H   0  0  0  0  0  0  0  0  0  0  0  0
  153.0699  141.6271  159.7606 H   0  0  0  0  0  0  0  0  0  0  0  0
  153.3881  143.9199  161.4301 H   0  0  0  0  0  0  0  0  0  0  0  0
  151.8734  144.7556  161.6525 H   0  0  0  0  0  0  0  0  0  0  0  0
  151.5747  143.2064  163.0228 H   0  0  0  0  0  0  0  0  0  0  0  0
  152.9344  145.3090  159.1834 H   0  0  0  0  0  0  0  0  0  0  0  0
  153.1407  143.9066  158.0833 H   0  0  0  0  0  0  0  0  0  0  0  0
  149.8197  143.3092  159.1792 H   0  0  0  0  0  0  0  0  0  0  0  0
  150.1614  144.8179  160.0882 H   0  0  0  0  0  0  0  0  0  0  0  0
  147.1515  141.1978  154.2306 H   0  0  0  0  0  0  0  0  0  0  0  0
  147.9841  140.6336  152.8179 H   0  0  0  0  0  0  0  0  0  0  0  0
  146.5838  138.8316  154.8637 H   0  0  0  0  0  0  0  0  0  0  0  0
  146.0749  139.1617  153.2305 H   0  0  0  0  0  0  0  0  0  0  0  0
  147.7689  135.8378  153.0098 H   0  0  0  0  0  0  0  0  0  0  0  0
  146.5523  136.3667  154.1342 H   0  0  0  0  0  0  0  0  0  0  0  0
  147.3755  137.7564  150.6452 H   0  0  0  0  0  0  0  0  0  0  0  0
  146.2584  138.7993  151.5184 H   0  0  0  0  0  0  0  0  0  0  0  0
  145.6776  137.8087  150.1906 H   0  0  0  0  0  0  0  0  0  0  0  0
  147.0871  135.1294  150.8547 H   0  0  0  0  0  0  0  0  0  0  0  0
  145.3856  135.3077  150.4476 H   0  0  0  0  0  0  0  0  0  0  0  0
  145.8530  134.4964  151.9373 H   0  0  0  0  0  0  0  0  0  0  0  0
  144.6142  137.7311  152.7319 H   0  0  0  0  0  0  0  0  0  0  0  0
  148.0851  138.1810  152.4544 H   0  0  0  0  0  0  0  0  0  0  0  0
  1  2  1  0  0  0  0
  1 29  1  0  0  0  0
  1 30  1  0  0  0  0
  1 31  1  0  0  0  0
  2 23  1  0  0  0  0
  2  3  1  0  0  0  0
  2 32  1  0  0  0  0
  3  4  1  0  0  0  0
  3 33  1  0  0  0  0
  3 34  1  0  0  0  0
  4  5  1  0  0  0  0
  4 21  1  0  0  0  0
  5 10  1  0  0  0  0
  5  6  2  0  0  0  0
  6  7  1  0  0  0  0
  7  8  2  0  0  0  0
  7 35  1  0  0  0  0
  8  9  1  0  0  0  0
  9 13  1  0  0  0  0
  9 10  2  0  0  0  0
 10 11  1  0  0  0  0
 11 12  2  0  0  0  0
 12 13  1  0  0  0  0
 12 36  1  0  0  0  0
 13 14  1  0  0  0  0
 14 15  1  0  0  0  0
 14 37  1  0  0  0  0
 14 38  1  0  0  0  0
 15 20  1  0  0  0  0
 15 16  1  0  0  0  0
 15 18  1  0  0  0  0
 16 17  1  0  0  0  0
 16 39  1  0  0  0  0
 16 40  1  0  0  0  0
 17 41  1  0  0  0  0
 18 19  1  0  0  0  0
 18 42  1  0  0  0  0
 18 43  1  0  0  0  0
 19 20  1  0  0  0  0
 20 44  1  0  0  0  0
 20 45  1  0  0  0  0
 21 22  1  0  0  0  0
 21 46  1  0  0  0  0
 21 47  1  0  0  0  0
 22 23  1  0  0  0  0
 22 48  1  0  0  0  0
 22 49  1  0  0  0  0
 23 24  1  0  0  0  0
 23 59  1  0  0  0  0
 24 25  1  0  0  0  0
 24 50  1  0  0  0  0
 24 51  1  0  0  0  0
 25 26  1  0  0  0  0
 25 27  1  0  0  0  0
 25 28  1  0  0  0  0
 26 52  1  0  0  0  0
 26 53  1  0  0  0  0
 26 54  1  0  0  0  0
 27 55  1  0  0  0  0
 27 56  1  0  0  0  0
 27 57  1  0  0  0  0
 28 58  1  0  0  0  0
M  CHG  1  23   1
M  END
> <s_m_source_file>
AV-unprocessed.smi

> <i_m_source_file_index>
280

> <i_lp_mmshare_version>
43012

> <i_f3d_flags>
0

> <s_epik_input>
W0NIM11DKFtDSDNdKShbT0hdKVtDSDJdTjFbQ0gyXVtDSDJdTihbQ0gyXVtDQEhdMVtDSDNdKWMobltjSF1uMiljKGMyMyluW2NIXW4zW0NIMl1DNChbQ0gyXVtPSF0pW0NIMl1PW0NIMl00

> <s_epik_cmdline>
J2VwaWtfcHl0aG9uJywgJy1waCcsICc3LjAnLCAnLXRuJywgJzgnLCAnLW1hJywgJzIwMCcsICctbWV0YWxfYmluZGluZycsICctaW1hZScsICc8aW5maWxlLm1hZT4nLCAnLW9tYWUnLCAnPG91dGZpbGUubWFlPic=

> <r_lp_tautomer_probability>
1

> <r_epik_Ionization_Penalty>
0.00179402

> <r_epik_Ionization_Penalty_Charging>
0.00173996

> <r_epik_Ionization_Penalty_Neutral>
5.40607e-05

> <r_epik_State_Penalty>
-0

> <r_epik_Charging_Adjusted_Penalty>
0.00173996

> <i_epik_Tot_Q>
1

> <i_epik_Tot_abs_Q>
1

> <r_epik_Metal_State_Penalty>
-0

> <b_epik_Metal_Only>
0

> <s_lp_Force_Field>
OPLS_2005

> <r_lp_Energy>
53.0384

> <b_lp_Chiralities_Consistent>
1

> <s_lp_Variant>
AV-unprocessed.smi:280-3

> <Gold.Version>
5.8.1

> <Gold.Id.Protein>
6NUR|6NUR_protein|mol2

> <Gold.PLP.Fitness>
48.0551

> <Gold.PLP.PLP>
-45.2880

> <Gold.PLP.part.hbond>
-5.2481

> <Gold.PLP.part.metal>
0.0000

> <Gold.PLP.part.buried>
-2.6577

> <Gold.PLP.part.nonpolar>
-39.2303

> <Gold.PLP.part.repulsive>
0.2709

> <Gold.PLP.ligand.clash>
0.0000

> <Gold.PLP.ligand.torsion>
2.1635

> <Gold.PLP.Chemscore.Hbond>
2.0394

> <Gold.PLP.Chemscore.CHOScore>
0.0000

> <Gold.PLP.Chemscore.Metal>
0.0000

> <Gold.Chemscore.Hbonds>
donor molecule, donor type, donor heavy atom, donor atom, acceptor molecule, acceptor atom, score
      P1  H  6933  6945       L1    17  0.15

> <Gold.PLP.Chemscore.Internal.Correction>
0.9758

> <Gold.Rescore>
     Score         DG    S(hbond)    S(metal)    S(lipo)     H(rot)  DE(clash)    DE(int)     intcor
      9.82     -14.37       1.60        0.00     102.65       3.30       2.72       1.84       ----

> <Gold.Chemscore.Fitness>
9.8168

> <Gold.Chemscore.DG>
-14.3736

> <Gold.Chemscore.ZeroCoef>
-5.4800

> <Gold.Chemscore.Hbond>
1.5955

> <Gold.Chemscore.Metal>
0.0000

> <Gold.Chemscore.Lipo>
102.6512

> <Gold.Chemscore.Internal_Hbond>
0.0000

> <Gold.Chemscore.DEClash>
2.7154

> <Gold.Chemscore.DEInternal>
1.8415

> <Gold.Chemscore.Rot>
3.2991

> <Gold.Chemscore.Internal.Correction>
   9.000000E+99

> <Gold.Chemscore.Hbonds>
donor molecule, donor type, donor heavy atom, donor atom, acceptor molecule, acceptor atom, score
      L1  H    23    59       P1  7948  0.03

> <Gold.Chemscore.Hbond.Weighted>
-5.3290

> <Gold.Chemscore.Metal.Weighted>
-0.0000

> <Gold.Chemscore.Lipo.Weighted>
-12.0102

> <Gold.Chemscore.Internal_Hbond.Weighted>
0.0000

> <Gold.Chemscore.DEClash.Weighted>
2.7154

> <Gold.Chemscore.DEInternal.Weighted>
1.8415

> <Gold.Chemscore.Rot.Weighted>
8.4456

> <Gold.Chemscore.Internal.Correction.Weighted>
   9.000000E+99

> <Gold.Protein.RotatedTorsions>
[ 6907 6896 6895 6894 ] final   27.42 input  -60.11 | X-H torsion
[ 7974 7965 7964 7962 ] final   56.76 input  175.53 | X-H torsion
[ 8008 7997 7996 7995 ] final   71.19 input   59.86 | X-H torsion
[ 10167 10162 10161 10158 ] final   88.49 input  -65.29 | X-H torsion
[ 10718 10713 10712 10709 ] final   57.83 input   66.30 | X-H torsion
[ 10763 10752 10751 10750 ] final  -39.86 input  -60.55 | X-H torsion
[ 11005 11000 10999 10996 ] final   41.20 input  -57.11 | X-H torsion

> <Gold.Protein.ActiveResidues>
 VAL166  LYS551  ARG553  GLY616  TRP617  ASP618  TYR619  PRO620  LYS621  CYS622 
 ASP623  PHE694  ASN695  SER759  ASP760  ASP761  ALA762  ILE779  LEU786  VAL792 
 PHE793  MET794  SER795  GLU796  ALA797  LYS798  CYS799  TRP800  GLU811  SER814 

> <Gold.Protein.RotatedAtoms>
  152.0020  134.9923  160.0565 H   0  0  0  0  0  0  0  0  0  0  0  0  # atno 6907 bound_to 6896
  152.1510  133.4517  159.4822 H   0  0  0  0  0  0  0  0  0  0  0  0  # atno 6908 bound_to 6896
  150.6875  134.2107  159.4401 H   0  0  0  0  0  0  0  0  0  0  0  0  # atno 6909 bound_to 6896
  145.9364  139.3851  143.0390 H   0  0  0  0  0  0  0  0  0  0  0  0  # atno 7974 bound_to 7965
  155.7502  140.3488  155.5146 H   0  0  0  0  0  0  0  0  0  0  0  0  # atno 8008 bound_to 7997
  155.9012  140.1034  157.1370 H   0  0  0  0  0  0  0  0  0  0  0  0  # atno 8009 bound_to 7997
  154.4044  140.1286  156.4425 H   0  0  0  0  0  0  0  0  0  0  0  0  # atno 8010 bound_to 7997
  139.8667  144.6515  150.8995 H   0  0  0  0  0  0  0  0  0  0  0  0  # atno 10167 bound_to 10162
  157.5547  130.8791  149.9017 H   0  0  0  0  0  0  0  0  0  0  0  0  # atno 10718 bound_to 10713
  153.9365  135.6766  153.4745 H   0  0  0  0  0  0  0  0  0  0  0  0  # atno 10763 bound_to 10752
  153.0953  135.4854  154.8764 H   0  0  0  0  0  0  0  0  0  0  0  0  # atno 10764 bound_to 10752
  154.7400  135.3158  154.8702 H   0  0  0  0  0  0  0  0  0  0  0  0  # atno 10765 bound_to 10752
  140.1857  134.4049  155.8174 H   0  0  0  0  0  0  0  0  0  0  0  0  # atno 11005 bound_to 11000
  145.8358  140.9607  143.0825 LP  0  0  0  0  0  0  0  0  0  0  0  0  # atno 17320 bound_to 7965
  144.6772  140.0221  143.7483 LP  0  0  0  0  0  0  0  0  0  0  0  0  # atno 17321 bound_to 7965
  140.7767  143.3698  151.1671 LP  0  0  0  0  0  0  0  0  0  0  0  0  # atno 17342 bound_to 10162
  139.7322  143.9055  152.3023 LP  0  0  0  0  0  0  0  0  0  0  0  0  # atno 17343 bound_to 10162
  156.0608  130.3700  150.0987 LP  0  0  0  0  0  0  0  0  0  0  0  0  # atno 17370 bound_to 10713
  156.9157  130.9666  151.3556 LP  0  0  0  0  0  0  0  0  0  0  0  0  # atno 17371 bound_to 10713
  141.2225  133.7022  156.8008 LP  0  0  0  0  0  0  0  0  0  0  0  0  # atno 17394 bound_to 11000
  140.2216  134.8752  157.3383 LP  0  0  0  0  0  0  0  0  0  0  0  0  # atno 17395 bound_to 11000

$$$$
