AV-unprocessed.smi:794|AV-procd|sdf|3756|dock2
  -GOLD-   22720 1193D 1   1.00000     0.00000
 Structure written by MMmdl.
 41 43  0  0  0  0  0  0  0  0  1 V2000
  142.7647  143.2093  161.7741 C   0  0  0  0  0  0  0  0  0  0  0  0
  143.4886  144.1400  160.8504 C   0  0  0  0  0  0  0  0  0  0  0  0
  144.8631  143.9826  160.6490 N   0  0  0  0  0  0  0  0  0  0  0  0
  145.3577  144.8890  159.8001 C   0  0  0  0  0  0  0  0  0  0  0  0
  146.7215  144.9654  159.4140 N   0  0  0  0  0  0  0  0  0  0  0  0
  147.7133  144.1012  159.6916 C   0  0  0  0  0  0  0  0  0  0  0  0
  147.5914  143.0667  160.3483 O   0  0  0  0  0  0  0  0  0  0  0  0
  148.8726  144.5088  159.1561 N   0  0  0  0  0  0  0  0  0  0  0  0
  150.1423  143.7902  159.2399 C   0  0  2  0  0  0  0  0  0  0  0  0
  151.0839  144.4703  160.2583 C   0  0  1  0  0  0  0  0  0  0  0  0
  152.2190  143.4920  160.6101 C   0  0  0  0  0  0  0  0  0  0  0  0
  153.0661  143.4898  159.3236 C   0  0  0  0  0  0  0  0  0  0  0  0
  152.3010  144.4651  158.4025 C   0  0  2  0  0  0  0  0  0  0  0  0
  151.8205  145.5025  159.4093 C   0  0  0  0  0  0  0  0  0  0  0  0
  150.9554  143.8711  157.9216 C   0  0  1  0  0  0  0  0  0  0  0  0
  151.0698  142.5444  157.1464 C   0  0  0  0  0  0  0  0  0  0  0  0
  149.8148  142.1862  156.6094 O   0  0  0  0  0  0  0  0  0  0  0  0
  144.1539  146.0092  159.1867 S   0  0  0  0  0  0  0  0  0  0  0  0
  142.9445  145.1842  160.1387 C   0  0  0  0  0  0  0  0  0  0  0  0
  141.5199  145.6288  160.1206 C   0  0  0  0  0  0  0  0  0  0  0  0
  142.2504  143.7601  162.5617 H   0  0  0  0  0  0  0  0  0  0  0  0
  143.4459  142.5072  162.2560 H   0  0  0  0  0  0  0  0  0  0  0  0
  142.0177  142.6258  161.2359 H   0  0  0  0  0  0  0  0  0  0  0  0
  146.9699  145.7705  158.8583 H   0  0  0  0  0  0  0  0  0  0  0  0
  148.8769  145.3739  158.6359 H   0  0  0  0  0  0  0  0  0  0  0  0
  149.9631  142.7558  159.5398 H   0  0  0  0  0  0  0  0  0  0  0  0
  150.5754  144.8710  161.1361 H   0  0  0  0  0  0  0  0  0  0  0  0
  152.8043  143.8622  161.4528 H   0  0  0  0  0  0  0  0  0  0  0  0
  151.8511  142.4987  160.8703 H   0  0  0  0  0  0  0  0  0  0  0  0
  154.0669  143.8703  159.5325 H   0  0  0  0  0  0  0  0  0  0  0  0
  153.1829  142.4942  158.8973 H   0  0  0  0  0  0  0  0  0  0  0  0
  152.9109  144.8679  157.5933 H   0  0  0  0  0  0  0  0  0  0  0  0
  151.1635  146.2584  158.9758 H   0  0  0  0  0  0  0  0  0  0  0  0
  152.6330  146.0008  159.9416 H   0  0  0  0  0  0  0  0  0  0  0  0
  150.5050  144.6099  157.2551 H   0  0  0  0  0  0  0  0  0  0  0  0
  151.7778  142.6457  156.3236 H   0  0  0  0  0  0  0  0  0  0  0  0
  151.4235  141.7347  157.7845 H   0  0  0  0  0  0  0  0  0  0  0  0
  149.9528  141.7523  155.7813 H   0  0  0  0  0  0  0  0  0  0  0  0
  140.8655  144.8170  159.8025 H   0  0  0  0  0  0  0  0  0  0  0  0
  141.3748  146.4649  159.4363 H   0  0  0  0  0  0  0  0  0  0  0  0
  141.2033  145.9483  161.1135 H   0  0  0  0  0  0  0  0  0  0  0  0
  1  2  1  0  0  0  0
  1 21  1  0  0  0  0
  1 22  1  0  0  0  0
  1 23  1  0  0  0  0
  2 19  2  0  0  0  0
  2  3  1  0  0  0  0
  3  4  2  0  0  0  0
  4  5  1  0  0  0  0
  4 18  1  0  0  0  0
  5  6  1  0  0  0  0
  5 24  1  0  0  0  0
  6  7  2  0  0  0  0
  6  8  1  0  0  0  0
  8  9  1  0  0  0  0
  8 25  1  0  0  0  0
  9 15  1  0  0  0  0
  9 10  1  0  0  0  0
  9 26  1  0  0  0  0
 10 14  1  0  0  0  0
 10 11  1  0  0  0  0
 10 27  1  0  0  0  0
 11 12  1  0  0  0  0
 11 28  1  0  0  0  0
 11 29  1  0  0  0  0
 12 13  1  0  0  0  0
 12 30  1  0  0  0  0
 12 31  1  0  0  0  0
 13 14  1  0  0  0  0
 13 15  1  0  0  0  0
 13 32  1  0  0  0  0
 14 33  1  0  0  0  0
 14 34  1  0  0  0  0
 15 16  1  0  0  0  0
 15 35  1  0  0  0  0
 16 17  1  0  0  0  0
 16 36  1  0  0  0  0
 16 37  1  0  0  0  0
 17 38  1  0  0  0  0
 18 19  1  0  0  0  0
 19 20  1  0  0  0  0
 20 39  1  0  0  0  0
 20 40  1  0  0  0  0
 20 41  1  0  0  0  0
M  END
> <s_m_source_file>
AV-unprocessed.smi

> <i_m_source_file_index>
794

> <i_lp_mmshare_version>
43012

> <i_f3d_flags>
0

> <s_epik_input>
W0NIM11jMW5jKHNjMVtDSDNdKVtOSF1DKD1PKVtOSF1bQ0BIXShbQ0BASF0yMylbQ0BIXShbQ0gyXVtPSF0pW0NAQEhdKFtDSDJdMylbQ0gyXVtDSDJdMg==

> <s_epik_cmdline>
J2VwaWtfcHl0aG9uJywgJy1waCcsICc3LjAnLCAnLXRuJywgJzgnLCAnLW1hJywgJzIwMCcsICctbWV0YWxfYmluZGluZycsICctaW1hZScsICc8aW5maWxlLm1hZT4nLCAnLW9tYWUnLCAnPG91dGZpbGUubWFlPic=

> <r_lp_tautomer_probability>
0.999

> <r_epik_Ionization_Penalty>
0.000713029

> <r_epik_Ionization_Penalty_Charging>
0

> <r_epik_Ionization_Penalty_Neutral>
0.000713029

> <r_epik_State_Penalty>
0.000177984

> <r_epik_Charging_Adjusted_Penalty>
0.000177984

> <i_epik_Tot_Q>
0

> <i_epik_Tot_abs_Q>
0

> <r_epik_Metal_State_Penalty>
-0

> <b_epik_Metal_Only>
0

> <s_lp_Force_Field>
OPLS_2005

> <r_lp_Energy>
47.5891

> <b_lp_Chiralities_Consistent>
1

> <s_lp_Variant>
AV-unprocessed.smi:794-1

> <Gold.Version>
5.8.1

> <Gold.Id.Protein>
6NUR|6NUR_protein|mol2

> <Gold.PLP.Fitness>
46.4706

> <Gold.PLP.PLP>
-40.4918

> <Gold.PLP.part.hbond>
-4.4867

> <Gold.PLP.part.metal>
0.0000

> <Gold.PLP.part.buried>
-1.6509

> <Gold.PLP.part.nonpolar>
-35.2668

> <Gold.PLP.part.repulsive>
0.3785

> <Gold.PLP.ligand.clash>
0.0000

> <Gold.PLP.ligand.torsion>
0.2969

> <Gold.PLP.Chemscore.Hbond>
2.1840

> <Gold.PLP.Chemscore.CHOScore>
0.0000

> <Gold.PLP.Chemscore.Metal>
0.0000

> <Gold.Chemscore.Hbonds>
donor molecule, donor type, donor heavy atom, donor atom, acceptor molecule, acceptor atom, score
      L1  H     5    24       P1  8029  0.67
      L1  H     8    25       P1  8029  0.66
      P1  H  6933  6944       L1     7  1.00
      P1  H  6934  6946       L1     7  0.15

> <Gold.PLP.Chemscore.Internal.Correction>
0.0206

> <Gold.Rescore>
     Score         DG    S(hbond)    S(metal)    S(lipo)     H(rot)  DE(clash)    DE(int)     intcor
     22.34     -23.86       2.83        0.00     115.14       1.78       0.07       1.45       ----

> <Gold.Chemscore.Fitness>
22.3367

> <Gold.Chemscore.DG>
-23.8553

> <Gold.Chemscore.ZeroCoef>
-5.4800

> <Gold.Chemscore.Hbond>
2.8324

> <Gold.Chemscore.Metal>
0.0000

> <Gold.Chemscore.Lipo>
115.1392

> <Gold.Chemscore.Internal_Hbond>
0.0000

> <Gold.Chemscore.DEClash>
0.0698

> <Gold.Chemscore.DEInternal>
1.4488

> <Gold.Chemscore.Rot>
1.7798

> <Gold.Chemscore.Internal.Correction>
   9.000000E+99

> <Gold.Chemscore.Hbonds>
donor molecule, donor type, donor heavy atom, donor atom, acceptor molecule, acceptor atom, score
      L1  H     5    24       P1  8029  0.68
      L1  H     8    25       P1  8029  0.66
      P1  H  6933  6944       L1     7  0.94
      P1  H  6934  6946       L1     7  0.16

> <Gold.Chemscore.Hbond.Weighted>
-9.4602

> <Gold.Chemscore.Metal.Weighted>
-0.0000

> <Gold.Chemscore.Lipo.Weighted>
-13.4713

> <Gold.Chemscore.Internal_Hbond.Weighted>
0.0000

> <Gold.Chemscore.DEClash.Weighted>
0.0698

> <Gold.Chemscore.DEInternal.Weighted>
1.4488

> <Gold.Chemscore.Rot.Weighted>
4.5562

> <Gold.Chemscore.Internal.Correction.Weighted>
   9.000000E+99

> <Gold.Protein.RotatedTorsions>
[ 6907 6896 6895 6894 ] final -169.97 input  -60.11 | X-H torsion
[ 7974 7965 7964 7962 ] final  -42.86 input  175.53 | X-H torsion
[ 8008 7997 7996 7995 ] final -114.55 input   59.86 | X-H torsion
[ 10167 10162 10161 10158 ] final -156.15 input  -65.29 | X-H torsion
[ 10718 10713 10712 10709 ] final  -36.46 input   66.30 | X-H torsion
[ 10763 10752 10751 10750 ] final   -7.99 input  -60.55 | X-H torsion
[ 11005 11000 10999 10996 ] final -114.27 input  -57.11 | X-H torsion

> <Gold.Protein.ActiveResidues>
 VAL166  LYS551  ARG553  GLY616  TRP617  ASP618  TYR619  PRO620  LYS621  CYS622 
 ASP623  PHE694  ASN695  SER759  ASP760  ASP761  ALA762  ILE779  LEU786  VAL792 
 PHE793  MET794  SER795  GLU796  ALA797  LYS798  CYS799  TRP800  GLU811  SER814 

> <Gold.Protein.RotatedAtoms>
  151.5002  133.3506  159.2867 H   0  0  0  0  0  0  0  0  0  0  0  0  # atno 6907 bound_to 6896
  150.8778  134.8166  159.7213 H   0  0  0  0  0  0  0  0  0  0  0  0  # atno 6908 bound_to 6896
  152.4742  134.4895  159.9742 H   0  0  0  0  0  0  0  0  0  0  0  0  # atno 6909 bound_to 6896
  146.0075  140.7003  142.9240 H   0  0  0  0  0  0  0  0  0  0  0  0  # atno 7974 bound_to 7965
  155.0381  140.0392  157.2499 H   0  0  0  0  0  0  0  0  0  0  0  0  # atno 8008 bound_to 7997
  154.7240  140.2717  155.6492 H   0  0  0  0  0  0  0  0  0  0  0  0  # atno 8009 bound_to 7997
  156.2824  140.2697  156.1920 H   0  0  0  0  0  0  0  0  0  0  0  0  # atno 8010 bound_to 7997
  139.6874  143.9478  152.2368 H   0  0  0  0  0  0  0  0  0  0  0  0  # atno 10167 bound_to 10162
  156.3266  130.4273  149.7911 H   0  0  0  0  0  0  0  0  0  0  0  0  # atno 10718 bound_to 10713
  153.4341  135.7012  153.6211 H   0  0  0  0  0  0  0  0  0  0  0  0  # atno 10763 bound_to 10752
  153.4613  135.3735  155.2340 H   0  0  0  0  0  0  0  0  0  0  0  0  # atno 10764 bound_to 10752
  154.8726  135.4020  154.3730 H   0  0  0  0  0  0  0  0  0  0  0  0  # atno 10765 bound_to 10752
  141.0562  133.9609  157.2750 H   0  0  0  0  0  0  0  0  0  0  0  0  # atno 11005 bound_to 11000
  144.6941  140.3340  143.7211 LP  0  0  0  0  0  0  0  0  0  0  0  0  # atno 17320 bound_to 7965
  145.7394  139.1759  143.2385 LP  0  0  0  0  0  0  0  0  0  0  0  0  # atno 17321 bound_to 7965
  139.9285  144.6756  150.8387 LP  0  0  0  0  0  0  0  0  0  0  0  0  # atno 17342 bound_to 10162
  140.7672  143.3325  151.2379 LP  0  0  0  0  0  0  0  0  0  0  0  0  # atno 17343 bound_to 10162
  156.5199  130.8210  151.3200 LP  0  0  0  0  0  0  0  0  0  0  0  0  # atno 17370 bound_to 10713
  157.7422  130.9886  150.2502 LP  0  0  0  0  0  0  0  0  0  0  0  0  # atno 17371 bound_to 10713
  139.9392  135.0193  156.8654 LP  0  0  0  0  0  0  0  0  0  0  0  0  # atno 17394 bound_to 11000
  140.5959  134.0217  155.7518 LP  0  0  0  0  0  0  0  0  0  0  0  0  # atno 17395 bound_to 11000

$$$$
