AV-unprocessed.smi:148|AV-procd|sdf|1203|dock8
  -GOLD-   2262018363D 1   1.00000     0.00000
 Structure written by MMmdl.
 63 67  0  0  0  0  0  0  0  0  1 V2000
  149.4616  133.8072  158.2420 O   0  0  0  0  0  0  0  0  0  0  0  0
  149.3811  133.1415  156.9982 C   0  0  0  0  0  0  0  0  0  0  0  0
  149.5732  134.1229  155.8164 C   0  0  1  0  0  0  0  0  0  0  0  0
  150.9925  134.7511  155.9008 C   0  0  0  0  0  0  0  0  0  0  0  0
  151.0400  136.1258  156.3707 N   0  0  0  0  0  0  0  0  0  0  0  0
  150.3904  136.6385  157.4721 C   0  0  0  0  0  0  0  0  0  0  0  0
  150.5489  137.9191  157.6688 N   0  0  0  0  0  0  0  0  0  0  0  0
  151.3571  138.3212  156.6139 C   0  0  0  0  0  0  0  0  0  0  0  0
  151.8946  139.5701  156.2064 C   0  0  0  0  0  0  0  0  0  0  0  0
  151.6026  140.7167  156.8604 N   0  0  0  0  0  0  0  0  0  0  0  0
  152.3384  140.7199  158.1281 C   0  0  0  0  0  0  0  0  0  0  0  0
  152.3029  142.0936  158.8014 C   0  0  0  0  0  0  0  0  0  0  0  0
  150.8521  142.5297  158.9977 C   0  0  0  0  0  0  0  0  0  0  0  0
  150.1253  142.5261  157.6479 C   0  0  0  0  0  0  0  0  0  0  0  0
  150.1896  141.1517  156.9209 C   0  0  1  0  0  0  0  0  0  0  0  0
  149.4985  141.2498  155.5150 C   0  0  2  0  0  0  0  0  0  0  0  0
  148.1540  142.0065  155.5224 C   0  0  0  0  0  0  0  0  0  0  0  0
  147.4057  141.5230  154.2879 C   0  0  0  0  0  0  0  0  0  0  0  0
  147.7058  140.0312  154.2733 C   0  0  0  0  0  0  0  0  0  0  0  0
  149.1334  139.9028  154.8290 C   0  0  1  0  0  0  0  0  0  0  0  0
  150.0077  139.6445  153.7502 O   0  0  0  0  0  0  0  0  0  0  0  0
  152.6498  139.6012  155.0763 N   0  0  0  0  0  0  0  0  0  0  0  0
  152.8799  138.4715  154.3993 C   0  0  0  0  0  0  0  0  0  0  0  0
  152.4430  137.2366  154.6593 N   0  0  0  0  0  0  0  0  0  0  0  0
  151.6766  137.2082  155.7875 C   0  0  0  0  0  0  0  0  0  0  0  0
  149.2951  133.4308  154.4486 C   0  0  2  0  0  0  0  0  0  0  0  0
  147.8232  133.3423  154.0495 C   0  0  0  0  0  0  0  0  0  0  0  0
  147.6950  132.0354  153.2625 C   0  0  0  0  0  0  0  0  0  0  0  0
  149.0019  131.4849  153.2250 O   0  0  0  0  0  0  0  0  0  0  0  0
  149.6968  131.9550  154.3655 C   0  0  0  0  0  0  0  0  0  0  0  0
  148.5947  133.8525  158.6157 H   0  0  0  0  0  0  0  0  0  0  0  0
  150.1244  132.3443  156.9656 H   0  0  0  0  0  0  0  0  0  0  0  0
  148.4007  132.6676  156.9691 H   0  0  0  0  0  0  0  0  0  0  0  0
  148.8345  134.9154  155.9428 H   0  0  0  0  0  0  0  0  0  0  0  0
  151.6257  134.1715  156.5729 H   0  0  0  0  0  0  0  0  0  0  0  0
  151.4721  134.7061  154.9219 H   0  0  0  0  0  0  0  0  0  0  0  0
  149.7887  136.0289  158.1303 H   0  0  0  0  0  0  0  0  0  0  0  0
  151.9087  139.9746  158.7995 H   0  0  0  0  0  0  0  0  0  0  0  0
  153.3779  140.4324  157.9601 H   0  0  0  0  0  0  0  0  0  0  0  0
  152.8195  142.0556  159.7607 H   0  0  0  0  0  0  0  0  0  0  0  0
  152.8326  142.8225  158.1866 H   0  0  0  0  0  0  0  0  0  0  0  0
  150.3499  141.8543  159.6917 H   0  0  0  0  0  0  0  0  0  0  0  0
  150.8148  143.5242  159.4434 H   0  0  0  0  0  0  0  0  0  0  0  0
  149.0950  142.8261  157.8338 H   0  0  0  0  0  0  0  0  0  0  0  0
  150.5608  143.2960  157.0091 H   0  0  0  0  0  0  0  0  0  0  0  0
  149.6414  140.4305  157.5288 H   0  0  0  0  0  0  0  0  0  0  0  0
  150.1583  141.8168  154.8546 H   0  0  0  0  0  0  0  0  0  0  0  0
  147.5725  141.7383  156.4058 H   0  0  0  0  0  0  0  0  0  0  0  0
  148.2815  143.0895  155.5207 H   0  0  0  0  0  0  0  0  0  0  0  0
  146.3375  141.7377  154.3301 H   0  0  0  0  0  0  0  0  0  0  0  0
  147.8129  141.9975  153.3938 H   0  0  0  0  0  0  0  0  0  0  0  0
  147.0131  139.5228  154.9453 H   0  0  0  0  0  0  0  0  0  0  0  0
  147.5772  139.5881  153.2844 H   0  0  0  0  0  0  0  0  0  0  0  0
  149.1663  139.0672  155.5269 H   0  0  0  0  0  0  0  0  0  0  0  0
  149.5269  139.7483  152.9434 H   0  0  0  0  0  0  0  0  0  0  0  0
  153.4963  138.5723  153.5182 H   0  0  0  0  0  0  0  0  0  0  0  0
  149.8360  133.9609  153.6629 H   0  0  0  0  0  0  0  0  0  0  0  0
  147.1835  133.2957  154.9312 H   0  0  0  0  0  0  0  0  0  0  0  0
  147.5096  134.1971  153.4509 H   0  0  0  0  0  0  0  0  0  0  0  0
  147.0209  131.3450  153.7712 H   0  0  0  0  0  0  0  0  0  0  0  0
  147.3194  132.1949  152.2516 H   0  0  0  0  0  0  0  0  0  0  0  0
  150.7710  131.8127  154.2451 H   0  0  0  0  0  0  0  0  0  0  0  0
  149.3685  131.4021  155.2476 H   0  0  0  0  0  0  0  0  0  0  0  0
  1  2  1  0  0  0  0
  1 31  1  0  0  0  0
  2  3  1  0  0  0  0
  2 32  1  0  0  0  0
  2 33  1  0  0  0  0
  3  4  1  0  0  0  0
  3 26  1  0  0  0  0
  3 34  1  0  0  0  0
  4  5  1  0  0  0  0
  4 35  1  0  0  0  0
  4 36  1  0  0  0  0
  5 25  1  0  0  0  0
  5  6  1  0  0  0  0
  6  7  2  0  0  0  0
  6 37  1  0  0  0  0
  7  8  1  0  0  0  0
  8 25  2  0  0  0  0
  8  9  1  0  0  0  0
  9 10  1  0  0  0  0
  9 22  2  0  0  0  0
 10 15  1  0  0  0  0
 10 11  1  0  0  0  0
 11 12  1  0  0  0  0
 11 38  1  0  0  0  0
 11 39  1  0  0  0  0
 12 13  1  0  0  0  0
 12 40  1  0  0  0  0
 12 41  1  0  0  0  0
 13 14  1  0  0  0  0
 13 42  1  0  0  0  0
 13 43  1  0  0  0  0
 14 15  1  0  0  0  0
 14 44  1  0  0  0  0
 14 45  1  0  0  0  0
 15 16  1  0  0  0  0
 15 46  1  0  0  0  0
 16 20  1  0  0  0  0
 16 17  1  0  0  0  0
 16 47  1  0  0  0  0
 17 18  1  0  0  0  0
 17 48  1  0  0  0  0
 17 49  1  0  0  0  0
 18 19  1  0  0  0  0
 18 50  1  0  0  0  0
 18 51  1  0  0  0  0
 19 20  1  0  0  0  0
 19 52  1  0  0  0  0
 19 53  1  0  0  0  0
 20 21  1  0  0  0  0
 20 54  1  0  0  0  0
 21 55  1  0  0  0  0
 22 23  1  0  0  0  0
 23 24  2  0  0  0  0
 23 56  1  0  0  0  0
 24 25  1  0  0  0  0
 26 30  1  0  0  0  0
 26 27  1  0  0  0  0
 26 57  1  0  0  0  0
 27 28  1  0  0  0  0
 27 58  1  0  0  0  0
 27 59  1  0  0  0  0
 28 29  1  0  0  0  0
 28 60  1  0  0  0  0
 28 61  1  0  0  0  0
 29 30  1  0  0  0  0
 30 62  1  0  0  0  0
 30 63  1  0  0  0  0
M  END
> <s_m_source_file>
AV-unprocessed.smi

> <i_m_source_file_index>
148

> <i_lp_mmshare_version>
43012

> <i_f3d_flags>
0

> <s_epik_input>
W0NIMl0xT1tDSDJdW0NIMl1bQ0BIXTFbQ0BIXShbQ0gyXVtPSF0pW0NIMl1uKFtjSF1uMiljKGMyMyluW2NIXW5jM040W0NIMl1bQ0gyXVtDSDJdW0NIMl1bQ0BIXTRbQ0BASF01W0NIMl1bQ0gyXVtDSDJdW0NASF01W09IXQ==

> <s_epik_cmdline>
J2VwaWtfcHl0aG9uJywgJy1waCcsICc3LjAnLCAnLXRuJywgJzgnLCAnLW1hJywgJzIwMCcsICctbWV0YWxfYmluZGluZycsICctaW1hZScsICc8aW5maWxlLm1hZT4nLCAnLW9tYWUnLCAnPG91dGZpbGUubWFlPic=

> <r_lp_tautomer_probability>
1

> <r_epik_Ionization_Penalty>
0.00556303

> <r_epik_Ionization_Penalty_Charging>
0

> <r_epik_Ionization_Penalty_Neutral>
0.00556303

> <r_epik_State_Penalty>
0.00401767

> <r_epik_Charging_Adjusted_Penalty>
0.00401767

> <i_epik_Tot_Q>
0

> <i_epik_Tot_abs_Q>
0

> <r_epik_Metal_State_Penalty>
-0

> <b_epik_Metal_Only>
0

> <s_lp_Force_Field>
OPLS_2005

> <r_lp_Energy>
69.6021

> <b_lp_Chiralities_Consistent>
1

> <s_lp_Variant>
AV-unprocessed.smi:148-2

> <Gold.Version>
5.8.1

> <Gold.Id.Protein>
6NUR|6NUR_protein|mol2

> <Gold.PLP.Fitness>
54.2379

> <Gold.PLP.PLP>
-43.8034

> <Gold.PLP.part.hbond>
-5.9019

> <Gold.PLP.part.metal>
0.0000

> <Gold.PLP.part.buried>
-2.0907

> <Gold.PLP.part.nonpolar>
-37.9363

> <Gold.PLP.part.repulsive>
0.9554

> <Gold.PLP.ligand.clash>
0.0000

> <Gold.PLP.ligand.torsion>
1.7265

> <Gold.PLP.Chemscore.Hbond>
4.5040

> <Gold.PLP.Chemscore.CHOScore>
0.0000

> <Gold.PLP.Chemscore.Metal>
0.0000

> <Gold.Chemscore.Hbonds>
donor molecule, donor type, donor heavy atom, donor atom, acceptor molecule, acceptor atom, score
      L1  H    21    55       P1  7957  0.93
      P1  H  6896  6909       L1     1  1.00
      P1  H  7989  7998       L1    21  0.87
      P1  H  7997  8009       L1    22  0.89
      P1  H 10752 10765       L1    24  0.67

> <Gold.PLP.Chemscore.Internal.Correction>
0.3756

> <Gold.Rescore>
     Score         DG    S(hbond)    S(metal)    S(lipo)     H(rot)  DE(clash)    DE(int)     intcor
     16.77     -21.34       3.47        0.00     108.99       3.32       1.94       2.62       ----

> <Gold.Chemscore.Fitness>
16.7693

> <Gold.Chemscore.DG>
-21.3368

> <Gold.Chemscore.ZeroCoef>
-5.4800

> <Gold.Chemscore.Hbond>
3.4744

> <Gold.Chemscore.Metal>
0.0000

> <Gold.Chemscore.Lipo>
108.9937

> <Gold.Chemscore.Internal_Hbond>
0.0000

> <Gold.Chemscore.DEClash>
1.9438

> <Gold.Chemscore.DEInternal>
2.6237

> <Gold.Chemscore.Rot>
3.3203

> <Gold.Chemscore.Internal.Correction>
   9.000000E+99

> <Gold.Chemscore.Hbonds>
donor molecule, donor type, donor heavy atom, donor atom, acceptor molecule, acceptor atom, score
      L1  H    21    55       P1  7957  0.90
      P1  H  6896  6909       L1     1  0.94
      P1  H  7989  7998       L1    21  0.27
      P1  H  7997  8009       L1    22  0.16
      P1  H 10752 10765       L1    24  0.41

> <Gold.Chemscore.Hbond.Weighted>
-11.6045

> <Gold.Chemscore.Metal.Weighted>
-0.0000

> <Gold.Chemscore.Lipo.Weighted>
-12.7523

> <Gold.Chemscore.Internal_Hbond.Weighted>
0.0000

> <Gold.Chemscore.DEClash.Weighted>
1.9438

> <Gold.Chemscore.DEInternal.Weighted>
2.6237

> <Gold.Chemscore.Rot.Weighted>
8.5000

> <Gold.Chemscore.Internal.Correction.Weighted>
   9.000000E+99

> <Gold.Protein.RotatedTorsions>
[ 6907 6896 6895 6894 ] final    6.78 input  -60.11 | X-H torsion
[ 7974 7965 7964 7962 ] final    5.74 input  175.53 | X-H torsion
[ 8008 7997 7996 7995 ] final -130.54 input   59.86 | X-H torsion
[ 10167 10162 10161 10158 ] final -126.21 input  -65.29 | X-H torsion
[ 10718 10713 10712 10709 ] final  -60.75 input   66.30 | X-H torsion
[ 10763 10752 10751 10750 ] final  167.28 input  -60.55 | X-H torsion
[ 11005 11000 10999 10996 ] final  146.10 input  -57.11 | X-H torsion

> <Gold.Protein.ActiveResidues>
 VAL166  LYS551  ARG553  GLY616  TRP617  ASP618  TYR619  PRO620  LYS621  CYS622 
 ASP623  PHE694  ASN695  SER759  ASP760  ASP761  ALA762  ILE779  LEU786  VAL792 
 PHE793  MET794  SER795  GLU796  ALA797  LYS798  CYS799  TRP800  GLU811  SER814 

> <Gold.Protein.RotatedAtoms>
  151.6792  135.0964  160.0212 H   0  0  0  0  0  0  0  0  0  0  0  0  # atno 6907 bound_to 6896
  152.3845  133.6588  159.6196 H   0  0  0  0  0  0  0  0  0  0  0  0  # atno 6908 bound_to 6896
  150.7774  133.8974  159.3372 H   0  0  0  0  0  0  0  0  0  0  0  0  # atno 6909 bound_to 6896
  146.2439  140.0339  142.8387 H   0  0  0  0  0  0  0  0  0  0  0  0  # atno 7974 bound_to 7965
  155.2974  140.0451  157.3027 H   0  0  0  0  0  0  0  0  0  0  0  0  # atno 8008 bound_to 7997
  154.5506  140.2316  155.8458 H   0  0  0  0  0  0  0  0  0  0  0  0  # atno 8009 bound_to 7997
  156.1963  140.3037  155.9442 H   0  0  0  0  0  0  0  0  0  0  0  0  # atno 8010 bound_to 7997
  139.9739  143.5815  152.2403 H   0  0  0  0  0  0  0  0  0  0  0  0  # atno 10167 bound_to 10162
  156.0968  130.4192  150.0898 H   0  0  0  0  0  0  0  0  0  0  0  0  # atno 10718 bound_to 10713
  154.3515  135.2753  155.2369 H   0  0  0  0  0  0  0  0  0  0  0  0  # atno 10763 bound_to 10752
  154.4597  135.5910  153.6250 H   0  0  0  0  0  0  0  0  0  0  0  0  # atno 10764 bound_to 10752
  152.9849  135.6062  154.3726 H   0  0  0  0  0  0  0  0  0  0  0  0  # atno 10765 bound_to 10752
  140.0765  134.9121  157.1432 H   0  0  0  0  0  0  0  0  0  0  0  0  # atno 11005 bound_to 11000
  145.1130  140.9417  143.4645 LP  0  0  0  0  0  0  0  0  0  0  0  0  # atno 17320 bound_to 7965
  145.0557  139.3146  143.5906 LP  0  0  0  0  0  0  0  0  0  0  0  0  # atno 17321 bound_to 7965
  139.6460  144.7658  151.2243 LP  0  0  0  0  0  0  0  0  0  0  0  0  # atno 17342 bound_to 10162
  140.7512  143.6238  150.8488 LP  0  0  0  0  0  0  0  0  0  0  0  0  # atno 17343 bound_to 10162
  156.8895  130.9584  151.3590 LP  0  0  0  0  0  0  0  0  0  0  0  0  # atno 17370 bound_to 10713
  157.6131  130.8598  149.8984 LP  0  0  0  0  0  0  0  0  0  0  0  0  # atno 17371 bound_to 10713
  140.3549  134.2557  155.7194 LP  0  0  0  0  0  0  0  0  0  0  0  0  # atno 17394 bound_to 11000
  141.2031  133.7920  157.0354 LP  0  0  0  0  0  0  0  0  0  0  0  0  # atno 17395 bound_to 11000

$$$$
