AV-unprocessed.smi:862|AV-procd|sdf|3976|dock4
  -GOLD-   22720 1453D 1   1.00000     0.00000
 Structure written by MMmdl.
 44 46  0  0  0  0  0  0  0  0  2 V2000
  143.6129  134.5201  154.1436 N   0  0  0  0  0  0  0  0  0  0  0  0
  144.1180  134.7032  152.9197 C   0  0  0  0  0  0  0  0  0  0  0  0
  144.4268  133.7458  152.2127 O   0  0  0  0  0  0  0  0  0  0  0  0
  144.2126  135.9965  152.5200 N   0  0  0  0  0  0  0  0  0  0  0  0
  144.1097  137.1816  153.3876 C   0  0  0  0  0  0  0  0  0  0  0  0
  145.5209  137.7577  153.6060 C   0  0  0  0  0  0  0  0  0  0  0  0
  146.1989  138.1026  152.2631 C   0  0  0  0  0  0  0  0  0  0  0  0
  147.5971  138.5256  152.5009 N   0  3  0  0  0  0  0  0  0  0  0  0
  147.8260  139.3881  153.6829 C   0  0  2  0  0  0  0  0  0  0  0  0
  147.3346  140.8277  153.5043 C   0  0  0  0  0  0  0  0  0  0  0  0
  148.1433  141.6564  154.5110 C   0  0  0  0  0  0  0  0  0  0  0  0
  149.3871  140.8246  154.8623 C   0  0  0  0  0  0  0  0  0  0  0  0
  149.3199  139.5734  153.9739 C   0  0  1  0  0  0  0  0  0  0  0  0
  149.9412  138.4026  154.5739 N   0  0  0  0  0  0  0  0  0  0  0  0
  149.6230  137.7942  155.7833 C   0  0  0  0  0  0  0  0  0  0  0  0
  150.4727  136.7205  155.9214 C   0  0  0  0  0  0  0  0  0  0  0  0
  151.3150  136.6458  154.8154 N   0  0  0  0  0  0  0  0  0  0  0  0
  150.9443  137.6738  154.0641 C   0  0  0  0  0  0  0  0  0  0  0  0
  146.1304  136.9001  151.2941 C   0  0  0  0  0  0  0  0  0  0  0  0
  144.6935  136.3592  151.1815 C   0  0  0  0  0  0  0  0  0  0  0  0
  143.5033  133.5826  154.5026 H   0  0  0  0  0  0  0  0  0  0  0  0
  143.3332  135.3146  154.7000 H   0  0  0  0  0  0  0  0  0  0  0  0
  143.4735  137.9249  152.9046 H   0  0  0  0  0  0  0  0  0  0  0  0
  143.6407  136.9829  154.3512 H   0  0  0  0  0  0  0  0  0  0  0  0
  145.4635  138.6473  154.2344 H   0  0  0  0  0  0  0  0  0  0  0  0
  146.1247  137.0316  154.1527 H   0  0  0  0  0  0  0  0  0  0  0  0
  145.6448  138.9351  151.8259 H   0  0  0  0  0  0  0  0  0  0  0  0
  148.1319  137.6833  152.6580 H   0  0  0  0  0  0  0  0  0  0  0  0
  147.3382  138.9490  154.5549 H   0  0  0  0  0  0  0  0  0  0  0  0
  147.5549  141.1755  152.4938 H   0  0  0  0  0  0  0  0  0  0  0  0
  146.2605  140.9261  153.6639 H   0  0  0  0  0  0  0  0  0  0  0  0
  148.4101  142.6283  154.0942 H   0  0  0  0  0  0  0  0  0  0  0  0
  147.5552  141.8402  155.4109 H   0  0  0  0  0  0  0  0  0  0  0  0
  150.3105  141.3811  154.6979 H   0  0  0  0  0  0  0  0  0  0  0  0
  149.3539  140.5619  155.9206 H   0  0  0  0  0  0  0  0  0  0  0  0
  149.8360  139.7955  153.0375 H   0  0  0  0  0  0  0  0  0  0  0  0
  148.8424  138.1646  156.4316 H   0  0  0  0  0  0  0  0  0  0  0  0
  150.5420  136.0020  156.7249 H   0  0  0  0  0  0  0  0  0  0  0  0
  151.4128  137.8985  153.1171 H   0  0  0  0  0  0  0  0  0  0  0  0
  146.4864  137.1797  150.3037 H   0  0  0  0  0  0  0  0  0  0  0  0
  146.7883  136.1032  151.6443 H   0  0  0  0  0  0  0  0  0  0  0  0
  144.6626  135.5206  150.4841 H   0  0  0  0  0  0  0  0  0  0  0  0
  144.0374  137.1194  150.7551 H   0  0  0  0  0  0  0  0  0  0  0  0
  147.9566  138.9768  151.6718 H   0  0  0  0  0  0  0  0  0  0  0  0
  1  2  1  0  0  0  0
  1 21  1  0  0  0  0
  1 22  1  0  0  0  0
  2  3  2  0  0  0  0
  2  4  1  0  0  0  0
  4 20  1  0  0  0  0
  4  5  1  0  0  0  0
  5  6  1  0  0  0  0
  5 23  1  0  0  0  0
  5 24  1  0  0  0  0
  6  7  1  0  0  0  0
  6 25  1  0  0  0  0
  6 26  1  0  0  0  0
  7  8  1  0  0  0  0
  7 19  1  0  0  0  0
  7 27  1  0  0  0  0
  8  9  1  0  0  0  0
  8 28  1  0  0  0  0
  8 44  1  0  0  0  0
  9 13  1  0  0  0  0
  9 10  1  0  0  0  0
  9 29  1  0  0  0  0
 10 11  1  0  0  0  0
 10 30  1  0  0  0  0
 10 31  1  0  0  0  0
 11 12  1  0  0  0  0
 11 32  1  0  0  0  0
 11 33  1  0  0  0  0
 12 13  1  0  0  0  0
 12 34  1  0  0  0  0
 12 35  1  0  0  0  0
 13 14  1  0  0  0  0
 13 36  1  0  0  0  0
 14 18  1  0  0  0  0
 14 15  1  0  0  0  0
 15 16  2  0  0  0  0
 15 37  1  0  0  0  0
 16 17  1  0  0  0  0
 16 38  1  0  0  0  0
 17 18  2  0  0  0  0
 18 39  1  0  0  0  0
 19 20  1  0  0  0  0
 19 40  1  0  0  0  0
 19 41  1  0  0  0  0
 20 42  1  0  0  0  0
 20 43  1  0  0  0  0
M  CHG  1   8   1
M  END
> <s_m_source_file>
AV-unprocessed.smi

> <i_m_source_file_index>
862

> <i_lp_mmshare_version>
43012

> <i_f3d_flags>
0

> <s_epik_input>
W05IMl1DKD1PKU4xW0NIMl1bQ0gyXVtDSF0oW0NIMl1bQ0gyXTEpW05IXVtDQEBIXTJbQ0gyXVtDSDJdW0NIMl1bQ0BIXTJuM1tjSF1bY0hdbltjSF0z

> <s_epik_cmdline>
J2VwaWtfcHl0aG9uJywgJy1waCcsICc3LjAnLCAnLXRuJywgJzgnLCAnLW1hJywgJzIwMCcsICctbWV0YWxfYmluZGluZycsICctaW1hZScsICc8aW5maWxlLm1hZT4nLCAnLW9tYWUnLCAnPG91dGZpbGUubWFlPic=

> <r_lp_tautomer_probability>
1

> <r_epik_Ionization_Penalty>
0.0731506

> <r_epik_Ionization_Penalty_Charging>
0.0731

> <r_epik_Ionization_Penalty_Neutral>
5.05966e-05

> <r_epik_State_Penalty>
0.128895

> <r_epik_Charging_Adjusted_Penalty>
0.201995

> <i_epik_Tot_Q>
1

> <i_epik_Tot_abs_Q>
1

> <r_epik_Metal_State_Penalty>
0.113934

> <b_epik_Metal_Only>
0

> <s_lp_Force_Field>
OPLS_2005

> <r_lp_Energy>
56.1174

> <b_lp_Chiralities_Consistent>
1

> <s_lp_Variant>
AV-unprocessed.smi:862-1

> <Gold.Version>
5.8.1

> <Gold.Id.Protein>
6NUR|6NUR_protein|mol2

> <Gold.PLP.Fitness>
45.2304

> <Gold.PLP.PLP>
-30.2062

> <Gold.PLP.part.hbond>
-4.0000

> <Gold.PLP.part.metal>
0.0000

> <Gold.PLP.part.buried>
4.7715

> <Gold.PLP.part.nonpolar>
-32.4774

> <Gold.PLP.part.repulsive>
0.3187

> <Gold.PLP.ligand.clash>
0.0000

> <Gold.PLP.ligand.torsion>
0.2800

> <Gold.PLP.Chemscore.Hbond>
4.5920

> <Gold.PLP.Chemscore.CHOScore>
0.5851

> <Gold.PLP.Chemscore.Metal>
0.0000

> <Gold.Chemscore.Hbonds>
donor molecule, donor type, donor heavy atom, donor atom, acceptor molecule, acceptor atom, score
      L1  H     1    21       P1 10957  1.00
      L1  H     8    28       P1  7948  1.79
      L1  H     8    44       P1  7957  0.77
      P1  H 10752 10764       L1    17  1.00
      L1  C    18    39       P1  7949  0.64

> <Gold.PLP.Chemscore.Internal.Correction>
0.0530

> <Gold.Rescore>
     Score         DG    S(hbond)    S(metal)    S(lipo)     H(rot)  DE(clash)    DE(int)     intcor
     18.46     -21.61       3.69        0.00      68.51       1.64       2.80       0.35       ----

> <Gold.Chemscore.Fitness>
18.4627

> <Gold.Chemscore.DG>
-21.6139

> <Gold.Chemscore.ZeroCoef>
-5.4800

> <Gold.Chemscore.Hbond>
3.6883

> <Gold.Chemscore.Metal>
0.0000

> <Gold.Chemscore.Lipo>
68.5143

> <Gold.Chemscore.Internal_Hbond>
0.0000

> <Gold.Chemscore.DEClash>
2.8018

> <Gold.Chemscore.DEInternal>
0.3494

> <Gold.Chemscore.Rot>
1.6411

> <Gold.Chemscore.Internal.Correction>
   9.000000E+99

> <Gold.Chemscore.Hbonds>
donor molecule, donor type, donor heavy atom, donor atom, acceptor molecule, acceptor atom, score
      L1  H     1    21       P1 10957  0.94
      L1  H     8    28       P1  7948  0.88
      L1  H     8    44       P1  7957  0.68
      P1  H 10752 10764       L1    17  0.99

> <Gold.Chemscore.Hbond.Weighted>
-12.3191

> <Gold.Chemscore.Metal.Weighted>
-0.0000

> <Gold.Chemscore.Lipo.Weighted>
-8.0162

> <Gold.Chemscore.Internal_Hbond.Weighted>
0.0000

> <Gold.Chemscore.DEClash.Weighted>
2.8018

> <Gold.Chemscore.DEInternal.Weighted>
0.3494

> <Gold.Chemscore.Rot.Weighted>
4.2013

> <Gold.Chemscore.Internal.Correction.Weighted>
   9.000000E+99

> <Gold.Protein.RotatedTorsions>
[ 6907 6896 6895 6894 ] final   47.18 input  -60.11 | X-H torsion
[ 7974 7965 7964 7962 ] final   50.66 input  175.53 | X-H torsion
[ 8008 7997 7996 7995 ] final -169.87 input   59.86 | X-H torsion
[ 10167 10162 10161 10158 ] final -110.80 input  -65.29 | X-H torsion
[ 10718 10713 10712 10709 ] final -127.94 input   66.30 | X-H torsion
[ 10763 10752 10751 10750 ] final  -59.51 input  -60.55 | X-H torsion
[ 11005 11000 10999 10996 ] final  -43.55 input  -57.11 | X-H torsion

> <Gold.Protein.ActiveResidues>
 VAL166  LYS551  ARG553  GLY616  TRP617  ASP618  TYR619  PRO620  LYS621  CYS622 
 ASP623  PHE694  ASN695  SER759  ASP760  ASP761  ALA762  ILE779  LEU786  VAL792 
 PHE793  MET794  SER795  GLU796  ALA797  LYS798  CYS799  TRP800  GLU811  SER814 

> <Gold.Protein.RotatedAtoms>
  152.2650  134.7994  160.0423 H   0  0  0  0  0  0  0  0  0  0  0  0  # atno 6907 bound_to 6896
  151.8626  133.3455  159.3717 H   0  0  0  0  0  0  0  0  0  0  0  0  # atno 6908 bound_to 6896
  150.7130  134.5118  159.5655 H   0  0  0  0  0  0  0  0  0  0  0  0  # atno 6909 bound_to 6896
  145.9990  139.4419  143.0027 H   0  0  0  0  0  0  0  0  0  0  0  0  # atno 7974 bound_to 7965
  155.9108  140.1057  157.1281 H   0  0  0  0  0  0  0  0  0  0  0  0  # atno 8008 bound_to 7997
  154.4039  140.1274  156.4619 H   0  0  0  0  0  0  0  0  0  0  0  0  # atno 8009 bound_to 7997
  155.7312  140.3468  155.5063 H   0  0  0  0  0  0  0  0  0  0  0  0  # atno 8010 bound_to 7997
  140.1405  143.4283  152.1565 H   0  0  0  0  0  0  0  0  0  0  0  0  # atno 10167 bound_to 10162
  156.1904  130.6791  151.0417 H   0  0  0  0  0  0  0  0  0  0  0  0  # atno 10718 bound_to 10713
  154.2548  135.6319  153.5253 H   0  0  0  0  0  0  0  0  0  0  0  0  # atno 10763 bound_to 10752
  152.9906  135.5573  154.5768 H   0  0  0  0  0  0  0  0  0  0  0  0  # atno 10764 bound_to 10752
  154.5304  135.2888  155.1160 H   0  0  0  0  0  0  0  0  0  0  0  0  # atno 10765 bound_to 10752
  141.0391  133.6787  156.2749 H   0  0  0  0  0  0  0  0  0  0  0  0  # atno 11005 bound_to 11000
  145.7516  140.9970  143.1247 LP  0  0  0  0  0  0  0  0  0  0  0  0  # atno 17320 bound_to 7965
  144.6913  139.9221  143.7468 LP  0  0  0  0  0  0  0  0  0  0  0  0  # atno 17321 bound_to 7965
  139.5474  144.7310  151.4540 LP  0  0  0  0  0  0  0  0  0  0  0  0  # atno 17342 bound_to 10162
  140.6763  143.8182  150.7063 LP  0  0  0  0  0  0  0  0  0  0  0  0  # atno 17343 bound_to 10162
  157.6925  131.0805  150.7065 LP  0  0  0  0  0  0  0  0  0  0  0  0  # atno 17370 bound_to 10713
  156.7122  130.4655  149.5544 LP  0  0  0  0  0  0  0  0  0  0  0  0  # atno 17371 bound_to 10713
  140.6267  134.5306  157.5554 LP  0  0  0  0  0  0  0  0  0  0  0  0  # atno 17394 bound_to 11000
  139.9263  134.8050  156.1060 LP  0  0  0  0  0  0  0  0  0  0  0  0  # atno 17395 bound_to 11000

$$$$
