AV-unprocessed.smi:2346|AV-procd|sdf|9368|dock6
  -GOLD-   2272012593D 1   1.00000     0.00000
 Structure written by MMmdl.
 45 47  0  0  0  0  0  0  0  0  2 V2000
  154.5703  135.5479  162.1055 C   0  0  0  0  0  0  0  0  0  0  0  0
  154.2136  136.7265  161.3980 O   0  0  0  0  0  0  0  0  0  0  0  0
  154.5633  137.9471  161.9385 C   0  0  0  0  0  0  0  0  0  0  0  0
  155.1448  138.0990  163.2230 C   0  0  0  0  0  0  0  0  0  0  0  0
  155.4738  139.3776  163.7135 C   0  0  0  0  0  0  0  0  0  0  0  0
  156.0692  139.5214  165.0316 C   0  0  0  0  0  0  0  0  0  0  0  0
  156.5432  139.6362  166.0807 N   0  0  0  0  0  0  0  0  0  0  0  0
  155.2246  140.5153  162.9243 C   0  0  0  0  0  0  0  0  0  0  0  0
  154.6501  140.3746  161.6483 C   0  0  0  0  0  0  0  0  0  0  0  0
  154.3155  139.0916  161.1460 C   0  0  0  0  0  0  0  0  0  0  0  0
  153.7490  138.8799  159.9058 O   0  0  0  0  0  0  0  0  0  0  0  0
  153.4781  140.0047  159.0828 C   0  0  0  0  0  0  0  0  0  0  0  0
  151.9856  139.9987  158.7328 C   0  0  0  0  0  0  0  0  0  0  0  0
  151.5271  141.3139  158.2630 N   0  0  0  0  0  0  0  0  0  0  0  0
  150.8442  141.6675  157.1341 C   0  0  0  0  0  0  0  0  0  0  0  0
  150.3477  140.7630  156.0479 C   0  0  1  0  0  0  0  0  0  0  0  0
  149.4924  141.5412  155.0395 C   0  0  0  0  0  0  0  0  0  0  0  0
  151.4077  140.1407  155.3523 O   0  0  0  0  0  0  0  0  0  0  0  0
  150.6601  143.0179  157.1840 N   0  3  0  0  0  0  0  0  0  0  0  0
  151.2255  143.5325  158.3503 C   0  0  0  0  0  0  0  0  0  0  0  0
  151.2884  144.8357  158.8335 C   0  0  0  0  0  0  0  0  0  0  0  0
  151.9346  145.0199  160.0733 C   0  0  0  0  0  0  0  0  0  0  0  0
  152.4858  143.9329  160.7823 C   0  0  0  0  0  0  0  0  0  0  0  0
  152.4166  142.6159  160.2811 C   0  0  0  0  0  0  0  0  0  0  0  0
  151.7789  142.4426  159.0526 C   0  0  0  0  0  0  0  0  0  0  0  0
  154.2027  134.6780  161.5618 H   0  0  0  0  0  0  0  0  0  0  0  0
  154.1208  135.5277  163.0993 H   0  0  0  0  0  0  0  0  0  0  0  0
  155.6527  135.4475  162.1948 H   0  0  0  0  0  0  0  0  0  0  0  0
  155.3467  137.2425  163.8489 H   0  0  0  0  0  0  0  0  0  0  0  0
  155.4718  141.5012  163.2915 H   0  0  0  0  0  0  0  0  0  0  0  0
  154.4757  141.2711  161.0734 H   0  0  0  0  0  0  0  0  0  0  0  0
  153.7280  140.9253  159.6116 H   0  0  0  0  0  0  0  0  0  0  0  0
  154.0750  139.9591  158.1706 H   0  0  0  0  0  0  0  0  0  0  0  0
  151.7648  139.2497  157.9721 H   0  0  0  0  0  0  0  0  0  0  0  0
  151.3940  139.7243  159.6056 H   0  0  0  0  0  0  0  0  0  0  0  0
  149.7429  139.9704  156.4866 H   0  0  0  0  0  0  0  0  0  0  0  0
  148.6367  142.0082  155.5275 H   0  0  0  0  0  0  0  0  0  0  0  0
  149.1062  140.8826  154.2610 H   0  0  0  0  0  0  0  0  0  0  0  0
  150.0679  142.3298  154.5531 H   0  0  0  0  0  0  0  0  0  0  0  0
  151.7213  139.4147  155.8700 H   0  0  0  0  0  0  0  0  0  0  0  0
  150.8644  145.6693  158.2928 H   0  0  0  0  0  0  0  0  0  0  0  0
  152.0072  146.0142  160.4896 H   0  0  0  0  0  0  0  0  0  0  0  0
  152.9719  144.1125  161.7303 H   0  0  0  0  0  0  0  0  0  0  0  0
  152.8401  141.7912  160.8351 H   0  0  0  0  0  0  0  0  0  0  0  0
  150.1769  143.5440  156.4671 H   0  0  0  0  0  0  0  0  0  0  0  0
  1  2  1  0  0  0  0
  1 26  1  0  0  0  0
  1 27  1  0  0  0  0
  1 28  1  0  0  0  0
  2  3  1  0  0  0  0
  3 10  1  0  0  0  0
  3  4  2  0  0  0  0
  4  5  1  0  0  0  0
  4 29  1  0  0  0  0
  5  6  1  0  0  0  0
  5  8  2  0  0  0  0
  6  7  3  0  0  0  0
  8  9  1  0  0  0  0
  8 30  1  0  0  0  0
  9 10  2  0  0  0  0
  9 31  1  0  0  0  0
 10 11  1  0  0  0  0
 11 12  1  0  0  0  0
 12 13  1  0  0  0  0
 12 32  1  0  0  0  0
 12 33  1  0  0  0  0
 13 14  1  0  0  0  0
 13 34  1  0  0  0  0
 13 35  1  0  0  0  0
 14 25  1  0  0  0  0
 14 15  1  0  0  0  0
 15 16  1  0  0  0  0
 15 19  2  0  0  0  0
 16 17  1  0  0  0  0
 16 18  1  0  0  0  0
 16 36  1  0  0  0  0
 17 37  1  0  0  0  0
 17 38  1  0  0  0  0
 17 39  1  0  0  0  0
 18 40  1  0  0  0  0
 19 20  1  0  0  0  0
 19 45  1  0  0  0  0
 20 25  2  0  0  0  0
 20 21  1  0  0  0  0
 21 22  2  0  0  0  0
 21 41  1  0  0  0  0
 22 23  1  0  0  0  0
 22 42  1  0  0  0  0
 23 24  2  0  0  0  0
 23 43  1  0  0  0  0
 24 25  1  0  0  0  0
 24 44  1  0  0  0  0
M  CHG  1  19   1
M  END
> <s_m_source_file>
AV-unprocessed.smi

> <i_m_source_file_index>
2346

> <i_lp_mmshare_version>
43012

> <i_f3d_flags>
0

> <s_epik_input>
W0NIM11PYzFbY0hdYyhDI04pW2NIXVtjSF1jMU9bQ0gyXVtDSDJdbihjKG4yKVtDQEhdKFtDSDNdKVtPSF0pYyhjMjMpW2NIXVtjSF1bY0hdW2NIXTM=

> <s_epik_cmdline>
J2VwaWtfcHl0aG9uJywgJy1waCcsICc3LjAnLCAnLXRuJywgJzgnLCAnLW1hJywgJzIwMCcsICctbWV0YWxfYmluZGluZycsICctaW1hZScsICc8aW5maWxlLm1hZT4nLCAnLW9tYWUnLCAnPG91dGZpbGUubWFlPic=

> <r_epik_Ionization_Penalty>
1.58928

> <r_epik_Ionization_Penalty_Charging>
1.58925

> <r_epik_Ionization_Penalty_Neutral>
2.92192e-05

> <r_epik_State_Penalty>
1.68649

> <r_epik_Charging_Adjusted_Penalty>
3.27574

> <i_epik_Tot_Q>
1

> <i_epik_Tot_abs_Q>
1

> <r_epik_Metal_State_Penalty>
5.74385

> <b_epik_Metal_Only>
0

> <s_lp_Force_Field>
OPLS_2005

> <r_lp_Energy>
24.4742

> <b_lp_Chiralities_Consistent>
1

> <s_lp_Variant>
AV-unprocessed.smi:2346-4

> <Gold.Version>
5.8.1

> <Gold.Id.Protein>
6NUR|6NUR_protein|mol2

> <Gold.PLP.Fitness>
57.8521

> <Gold.PLP.PLP>
-49.9549

> <Gold.PLP.part.hbond>
-2.0000

> <Gold.PLP.part.metal>
0.0000

> <Gold.PLP.part.buried>
-5.2401

> <Gold.PLP.part.nonpolar>
-42.3910

> <Gold.PLP.part.repulsive>
0.0254

> <Gold.PLP.ligand.clash>
0.0000

> <Gold.PLP.ligand.torsion>
0.5957

> <Gold.PLP.Chemscore.Hbond>
3.0000

> <Gold.PLP.Chemscore.CHOScore>
0.0000

> <Gold.PLP.Chemscore.Metal>
0.0000

> <Gold.Chemscore.Hbonds>
donor molecule, donor type, donor heavy atom, donor atom, acceptor molecule, acceptor atom, score
      L1  H    19    45       P1  8028  2.00
      P1  H  7989  7998       L1    18  1.00

> <Gold.PLP.Chemscore.Internal.Correction>
0.0885

> <Gold.Rescore>
     Score         DG    S(hbond)    S(metal)    S(lipo)     H(rot)  DE(clash)    DE(int)     intcor
     20.83     -21.37       1.93        0.00     138.74       2.65       0.01       0.54       ----

> <Gold.Chemscore.Fitness>
20.8274

> <Gold.Chemscore.DG>
-21.3745

> <Gold.Chemscore.ZeroCoef>
-5.4800

> <Gold.Chemscore.Hbond>
1.9273

> <Gold.Chemscore.Metal>
0.0000

> <Gold.Chemscore.Lipo>
138.7448

> <Gold.Chemscore.Internal_Hbond>
0.0000

> <Gold.Chemscore.DEClash>
0.0117

> <Gold.Chemscore.DEInternal>
0.5355

> <Gold.Chemscore.Rot>
2.6467

> <Gold.Chemscore.Internal.Correction>
   9.000000E+99

> <Gold.Chemscore.Hbonds>
donor molecule, donor type, donor heavy atom, donor atom, acceptor molecule, acceptor atom, score
      L1  H    19    45       P1  8028  0.99
      P1  H  7989  7998       L1    18  0.78

> <Gold.Chemscore.Hbond.Weighted>
-6.4370

> <Gold.Chemscore.Metal.Weighted>
-0.0000

> <Gold.Chemscore.Lipo.Weighted>
-16.2331

> <Gold.Chemscore.Internal_Hbond.Weighted>
0.0000

> <Gold.Chemscore.DEClash.Weighted>
0.0117

> <Gold.Chemscore.DEInternal.Weighted>
0.5355

> <Gold.Chemscore.Rot.Weighted>
6.7756

> <Gold.Chemscore.Internal.Correction.Weighted>
   9.000000E+99

> <Gold.Protein.RotatedTorsions>
[ 6907 6896 6895 6894 ] final  132.28 input  -60.11 | X-H torsion
[ 7974 7965 7964 7962 ] final  115.22 input  175.53 | X-H torsion
[ 8008 7997 7996 7995 ] final  160.86 input   59.86 | X-H torsion
[ 10167 10162 10161 10158 ] final  -47.78 input  -65.29 | X-H torsion
[ 10718 10713 10712 10709 ] final   59.26 input   66.30 | X-H torsion
[ 10763 10752 10751 10750 ] final -160.43 input  -60.55 | X-H torsion
[ 11005 11000 10999 10996 ] final   48.88 input  -57.11 | X-H torsion

> <Gold.Protein.ActiveResidues>
 VAL166  LYS551  ARG553  GLY616  TRP617  ASP618  TYR619  PRO620  LYS621  CYS622 
 ASP623  PHE694  ASN695  SER759  ASP760  ASP761  ALA762  ILE779  LEU786  VAL792 
 PHE793  MET794  SER795  GLU796  ALA797  LYS798  CYS799  TRP800  GLU811  SER814 

> <Gold.Protein.RotatedAtoms>
  152.3340  133.5990  159.5829 H   0  0  0  0  0  0  0  0  0  0  0  0  # atno 6907 bound_to 6896
  150.7439  133.9825  159.3589 H   0  0  0  0  0  0  0  0  0  0  0  0  # atno 6908 bound_to 6896
  151.7697  135.0790  160.0409 H   0  0  0  0  0  0  0  0  0  0  0  0  # atno 6909 bound_to 6896
  145.1947  139.2982  143.4350 H   0  0  0  0  0  0  0  0  0  0  0  0  # atno 7974 bound_to 7965
  156.2143  140.1793  156.7623 H   0  0  0  0  0  0  0  0  0  0  0  0  # atno 8008 bound_to 7997
  154.5769  140.0673  156.9076 H   0  0  0  0  0  0  0  0  0  0  0  0  # atno 8009 bound_to 7997
  155.2572  140.3333  155.4279 H   0  0  0  0  0  0  0  0  0  0  0  0  # atno 8010 bound_to 7997
  140.6760  143.2769  151.3976 H   0  0  0  0  0  0  0  0  0  0  0  0  # atno 10167 bound_to 10162
  157.5661  130.8872  149.9190 H   0  0  0  0  0  0  0  0  0  0  0  0  # atno 10718 bound_to 10713
  154.7391  135.3064  154.8760 H   0  0  0  0  0  0  0  0  0  0  0  0  # atno 10763 bound_to 10752
  153.9580  135.6756  153.4749 H   0  0  0  0  0  0  0  0  0  0  0  0  # atno 10764 bound_to 10752
  153.0991  135.4921  154.8757 H   0  0  0  0  0  0  0  0  0  0  0  0  # atno 10765 bound_to 10752
  140.1152  134.4902  155.8644 H   0  0  0  0  0  0  0  0  0  0  0  0  # atno 11005 bound_to 11000
  146.3429  140.2171  142.8591 LP  0  0  0  0  0  0  0  0  0  0  0  0  # atno 17320 bound_to 7965
  145.0007  140.8629  143.5283 LP  0  0  0  0  0  0  0  0  0  0  0  0  # atno 17321 bound_to 7965
  139.6053  144.1210  152.2242 LP  0  0  0  0  0  0  0  0  0  0  0  0  # atno 17342 bound_to 10162
  140.0607  144.5859  150.7265 LP  0  0  0  0  0  0  0  0  0  0  0  0  # atno 17343 bound_to 10162
  156.0710  130.3685  150.0777 LP  0  0  0  0  0  0  0  0  0  0  0  0  # atno 17370 bound_to 10713
  156.8935  130.9596  151.3585 LP  0  0  0  0  0  0  0  0  0  0  0  0  # atno 17371 bound_to 10713
  141.2139  133.6741  156.6782 LP  0  0  0  0  0  0  0  0  0  0  0  0  # atno 17394 bound_to 11000
  140.3038  134.8142  157.4120 LP  0  0  0  0  0  0  0  0  0  0  0  0  # atno 17395 bound_to 11000

$$$$
