AV-unprocessed.smi:798|AV-procd|sdf|3771|dock8
  -GOLD-   22720 1203D 1   1.00000     0.00000
 Structure written by MMmdl.
 34 36  0  0  0  0  0  0  0  0  1 V2000
  149.6664  140.6006  157.3027 O   0  0  0  0  0  0  0  0  0  0  0  0
  149.5558  141.6922  156.7438 C   0  0  0  0  0  0  0  0  0  0  0  0
  148.9781  141.8984  155.5473 N   0  0  0  0  0  0  0  0  0  0  0  0
  148.4058  140.9393  154.6701 C   0  0  0  0  0  0  0  0  0  0  0  0
  147.4241  141.2196  153.7985 N   0  0  0  0  0  0  0  0  0  0  0  0
  147.0437  140.1020  153.0670 N   0  0  0  0  0  0  0  0  0  0  0  0
  147.7529  139.0244  153.4142 C   0  0  0  0  0  0  0  0  0  0  0  0
  148.9558  139.2695  154.6688 S   0  0  0  0  0  0  0  0  0  0  0  0
  150.0074  142.8395  157.2694 N   0  0  0  0  0  0  0  0  0  0  0  0
  150.6980  142.9581  158.5513 C   0  0  2  0  0  0  0  0  0  0  0  0
  151.1165  144.4224  158.8094 C   0  0  1  0  0  0  0  0  0  0  0  0
  151.4593  144.5821  160.3016 C   0  0  0  0  0  0  0  0  0  0  0  0
  152.8026  143.8371  160.4153 C   0  0  0  0  0  0  0  0  0  0  0  0
  153.0444  143.3348  158.9753 C   0  0  2  0  0  0  0  0  0  0  0  0
  152.4980  144.5032  158.1649 C   0  0  0  0  0  0  0  0  0  0  0  0
  152.0565  142.2107  158.5748 C   0  0  1  0  0  0  0  0  0  0  0  0
  152.0666  140.9478  159.4579 C   0  0  0  0  0  0  0  0  0  0  0  0
  153.3590  140.3803  159.4897 O   0  0  0  0  0  0  0  0  0  0  0  0
  148.9532  142.8530  155.2201 H   0  0  0  0  0  0  0  0  0  0  0  0
  147.5653  138.0784  152.9284 H   0  0  0  0  0  0  0  0  0  0  0  0
  149.8737  143.6914  156.7448 H   0  0  0  0  0  0  0  0  0  0  0  0
  150.0325  142.6145  159.3459 H   0  0  0  0  0  0  0  0  0  0  0  0
  150.3963  145.1607  158.4540 H   0  0  0  0  0  0  0  0  0  0  0  0
  151.5812  145.6340  160.5627 H   0  0  0  0  0  0  0  0  0  0  0  0
  150.6927  144.1632  160.9547 H   0  0  0  0  0  0  0  0  0  0  0  0
  153.5913  144.5300  160.7119 H   0  0  0  0  0  0  0  0  0  0  0  0
  152.7827  143.0394  161.1564 H   0  0  0  0  0  0  0  0  0  0  0  0
  154.0869  143.0908  158.7686 H   0  0  0  0  0  0  0  0  0  0  0  0
  152.4878  144.3197  157.0890 H   0  0  0  0  0  0  0  0  0  0  0  0
  153.0131  145.4457  158.3592 H   0  0  0  0  0  0  0  0  0  0  0  0
  152.3119  141.9000  157.5593 H   0  0  0  0  0  0  0  0  0  0  0  0
  151.7317  141.1550  160.4734 H   0  0  0  0  0  0  0  0  0  0  0  0
  151.3804  140.2052  159.0502 H   0  0  0  0  0  0  0  0  0  0  0  0
  153.5045  140.0142  160.3487 H   0  0  0  0  0  0  0  0  0  0  0  0
  1  2  2  0  0  0  0
  2  3  1  0  0  0  0
  2  9  1  0  0  0  0
  3  4  1  0  0  0  0
  3 19  1  0  0  0  0
  4  8  1  0  0  0  0
  4  5  2  0  0  0  0
  5  6  1  0  0  0  0
  6  7  2  0  0  0  0
  7  8  1  0  0  0  0
  7 20  1  0  0  0  0
  9 10  1  0  0  0  0
  9 21  1  0  0  0  0
 10 16  1  0  0  0  0
 10 11  1  0  0  0  0
 10 22  1  0  0  0  0
 11 15  1  0  0  0  0
 11 12  1  0  0  0  0
 11 23  1  0  0  0  0
 12 13  1  0  0  0  0
 12 24  1  0  0  0  0
 12 25  1  0  0  0  0
 13 14  1  0  0  0  0
 13 26  1  0  0  0  0
 13 27  1  0  0  0  0
 14 15  1  0  0  0  0
 14 16  1  0  0  0  0
 14 28  1  0  0  0  0
 15 29  1  0  0  0  0
 15 30  1  0  0  0  0
 16 17  1  0  0  0  0
 16 31  1  0  0  0  0
 17 18  1  0  0  0  0
 17 32  1  0  0  0  0
 17 33  1  0  0  0  0
 18 34  1  0  0  0  0
M  END
> <s_m_source_file>
AV-unprocessed.smi

> <i_m_source_file_index>
798

> <i_lp_mmshare_version>
43012

> <i_f3d_flags>
0

> <s_epik_input>
W0NIMl0xW0NIMl1bQ0BASF0oW0NIMl0yKVtDQEBIXShbQ0gyXVtPSF0pW0NAQEhdKFtDQEhdMTIpW05IXUMoPU8pW05IXWMzbm5bY0hdczM=

> <s_epik_cmdline>
J2VwaWtfcHl0aG9uJywgJy1waCcsICc3LjAnLCAnLXRuJywgJzgnLCAnLW1hJywgJzIwMCcsICctbWV0YWxfYmluZGluZycsICctaW1hZScsICc8aW5maWxlLm1hZT4nLCAnLW9tYWUnLCAnPG91dGZpbGUubWFlPic=

> <r_lp_tautomer_probability>
1

> <r_epik_Ionization_Penalty>
0.000329046

> <r_epik_Ionization_Penalty_Charging>
0

> <r_epik_Ionization_Penalty_Neutral>
0.000329046

> <r_epik_State_Penalty>
-0

> <r_epik_Charging_Adjusted_Penalty>
0

> <i_epik_Tot_Q>
0

> <i_epik_Tot_abs_Q>
0

> <r_epik_Metal_State_Penalty>
0.173433

> <b_epik_Metal_Only>
0

> <s_lp_Force_Field>
OPLS_2005

> <r_lp_Energy>
48.5099

> <b_lp_Chiralities_Consistent>
1

> <s_lp_Variant>
AV-unprocessed.smi:798-3

> <Gold.Version>
5.8.1

> <Gold.Id.Protein>
6NUR|6NUR_protein|mol2

> <Gold.PLP.Fitness>
43.1536

> <Gold.PLP.PLP>
-34.5509

> <Gold.PLP.part.hbond>
-2.0000

> <Gold.PLP.part.metal>
0.0000

> <Gold.PLP.part.buried>
-5.6836

> <Gold.PLP.part.nonpolar>
-27.5833

> <Gold.PLP.part.repulsive>
0.5499

> <Gold.PLP.ligand.clash>
0.0000

> <Gold.PLP.ligand.torsion>
0.1714

> <Gold.PLP.Chemscore.Hbond>
1.9760

> <Gold.PLP.Chemscore.CHOScore>
1.0000

> <Gold.PLP.Chemscore.Metal>
0.0000

> <Gold.Chemscore.Hbonds>
donor molecule, donor type, donor heavy atom, donor atom, acceptor molecule, acceptor atom, score
      L1  H     3    19       P1  8028  0.98
      L1  H     9    21       P1  8028  1.00
      L1  C     7    20       P1  7948  1.00

> <Gold.PLP.Chemscore.Internal.Correction>
0.0176

> <Gold.Rescore>
     Score         DG    S(hbond)    S(metal)    S(lipo)     H(rot)  DE(clash)    DE(int)     intcor
     17.13     -18.43       1.92        0.00      98.40       1.94       0.07       1.24       ----

> <Gold.Chemscore.Fitness>
17.1252

> <Gold.Chemscore.DG>
-18.4307

> <Gold.Chemscore.ZeroCoef>
-5.4800

> <Gold.Chemscore.Hbond>
1.9206

> <Gold.Chemscore.Metal>
0.0000

> <Gold.Chemscore.Lipo>
98.4015

> <Gold.Chemscore.Internal_Hbond>
0.0000

> <Gold.Chemscore.DEClash>
0.0670

> <Gold.Chemscore.DEInternal>
1.2386

> <Gold.Chemscore.Rot>
1.9442

> <Gold.Chemscore.Internal.Correction>
   9.000000E+99

> <Gold.Chemscore.Hbonds>
donor molecule, donor type, donor heavy atom, donor atom, acceptor molecule, acceptor atom, score
      L1  H     3    19       P1  8028  0.93
      L1  H     9    21       P1  8028  0.96

> <Gold.Chemscore.Hbond.Weighted>
-6.4148

> <Gold.Chemscore.Metal.Weighted>
-0.0000

> <Gold.Chemscore.Lipo.Weighted>
-11.5130

> <Gold.Chemscore.Internal_Hbond.Weighted>
0.0000

> <Gold.Chemscore.DEClash.Weighted>
0.0670

> <Gold.Chemscore.DEInternal.Weighted>
1.2386

> <Gold.Chemscore.Rot.Weighted>
4.9771

> <Gold.Chemscore.Internal.Correction.Weighted>
   9.000000E+99

> <Gold.Protein.RotatedTorsions>
[ 6907 6896 6895 6894 ] final    2.49 input  -60.11 | X-H torsion
[ 7974 7965 7964 7962 ] final   72.12 input  175.53 | X-H torsion
[ 8008 7997 7996 7995 ] final -125.41 input   59.86 | X-H torsion
[ 10167 10162 10161 10158 ] final   67.93 input  -65.29 | X-H torsion
[ 10718 10713 10712 10709 ] final   -8.13 input   66.30 | X-H torsion
[ 10763 10752 10751 10750 ] final  -33.52 input  -60.55 | X-H torsion
[ 11005 11000 10999 10996 ] final   65.71 input  -57.11 | X-H torsion

> <Gold.Protein.ActiveResidues>
 VAL166  LYS551  ARG553  GLY616  TRP617  ASP618  TYR619  PRO620  LYS621  CYS622 
 ASP623  PHE694  ASN695  SER759  ASP760  ASP761  ALA762  ILE779  LEU786  VAL792 
 PHE793  MET794  SER795  GLU796  ALA797  LYS798  CYS799  TRP800  GLU811  SER814 

> <Gold.Protein.RotatedAtoms>
  151.6096  135.1041  160.0078 H   0  0  0  0  0  0  0  0  0  0  0  0  # atno 6907 bound_to 6896
  152.4215  133.7120  159.6495 H   0  0  0  0  0  0  0  0  0  0  0  0  # atno 6908 bound_to 6896
  150.8103  133.8362  159.3207 H   0  0  0  0  0  0  0  0  0  0  0  0  # atno 6909 bound_to 6896
  145.7574  139.2786  143.1396 H   0  0  0  0  0  0  0  0  0  0  0  0  # atno 7974 bound_to 7965
  155.2128  140.0419  157.2936 H   0  0  0  0  0  0  0  0  0  0  0  0  # atno 8008 bound_to 7997
  154.6000  140.2449  155.7776 H   0  0  0  0  0  0  0  0  0  0  0  0  # atno 8009 bound_to 7997
  156.2315  140.2936  156.0210 H   0  0  0  0  0  0  0  0  0  0  0  0  # atno 8010 bound_to 7997
  140.0842  144.5045  150.7142 H   0  0  0  0  0  0  0  0  0  0  0  0  # atno 10167 bound_to 10162
  156.7072  130.5111  149.5901 H   0  0  0  0  0  0  0  0  0  0  0  0  # atno 10718 bound_to 10713
  153.8316  135.6865  153.4814 H   0  0  0  0  0  0  0  0  0  0  0  0  # atno 10763 bound_to 10752
  153.1508  135.4619  154.9631 H   0  0  0  0  0  0  0  0  0  0  0  0  # atno 10764 bound_to 10752
  154.7884  135.3293  154.7778 H   0  0  0  0  0  0  0  0  0  0  0  0  # atno 10765 bound_to 10752
  139.9877  134.6641  156.0146 H   0  0  0  0  0  0  0  0  0  0  0  0  # atno 11005 bound_to 11000
  146.0298  140.8269  142.9882 LP  0  0  0  0  0  0  0  0  0  0  0  0  # atno 17320 bound_to 7965
  144.6837  140.2751  143.7300 LP  0  0  0  0  0  0  0  0  0  0  0  0  # atno 17321 bound_to 7965
  140.7062  143.2470  151.4719 LP  0  0  0  0  0  0  0  0  0  0  0  0  # atno 17342 bound_to 10162
  139.5762  144.1814  152.1906 LP  0  0  0  0  0  0  0  0  0  0  0  0  # atno 17343 bound_to 10162
  156.1687  130.6422  151.0810 LP  0  0  0  0  0  0  0  0  0  0  0  0  # atno 17370 bound_to 10713
  157.6950  131.0797  150.6995 LP  0  0  0  0  0  0  0  0  0  0  0  0  # atno 17371 bound_to 10713
  141.1539  133.6545  156.4100 LP  0  0  0  0  0  0  0  0  0  0  0  0  # atno 17394 bound_to 11000
  140.4969  134.6522  157.5233 LP  0  0  0  0  0  0  0  0  0  0  0  0  # atno 17395 bound_to 11000

$$$$
