AV-unprocessed.smi:845|AV-procd|sdf|3931|dock8
  -GOLD-   22720 1393D 1   1.00000     0.00000
 Structure written by MMmdl.
 42 43  0  0  0  0  0  0  0  0  3 V2000
  150.0255  134.0775  155.5431 C   0  0  0  0  0  0  0  0  0  0  0  0
  149.5916  135.4681  155.0475 C   0  0  0  0  0  0  0  0  0  0  0  0
  150.2481  136.5748  155.8911 C   0  0  0  0  0  0  0  0  0  0  0  0
  148.0443  135.5797  154.9197 C   0  0  2  0  0  0  0  0  0  0  0  0
  147.2450  135.1415  156.1762 C   0  0  0  0  0  0  0  0  0  0  0  0
  147.8128  135.6842  157.4078 N   0  0  0  0  0  0  0  0  0  0  0  0
  148.4970  135.0060  158.3405 C   0  0  0  0  0  0  0  0  0  0  0  0
  148.6803  133.7932  158.2150 O   0  0  0  0  0  0  0  0  0  0  0  0
  148.9343  135.7809  159.3580 N   0  5  0  0  0  0  0  0  0  0  0  0
  148.2713  135.7914  160.5257 C   0  0  0  0  0  0  0  0  0  0  0  0
  148.1785  136.8775  161.3019 N   0  0  0  0  0  0  0  0  0  0  0  0
  147.4394  136.6652  162.4671 C   0  0  0  0  0  0  0  0  0  0  0  0
  146.9513  135.3900  162.5765 C   0  0  0  0  0  0  0  0  0  0  0  0
  147.4075  134.4121  161.2109 S   0  0  0  0  0  0  0  0  0  0  0  0
  147.5628  134.9452  153.6526 N   0  3  0  0  0  0  0  0  0  0  0  0
  147.7499  133.4753  153.5289 C   0  0  0  0  0  0  0  0  0  0  0  0
  147.3690  133.0146  152.1134 C   0  0  0  0  0  0  0  0  0  0  0  0
  146.0177  133.3727  151.8497 O   0  0  0  0  0  0  0  0  0  0  0  0
  145.8188  134.7804  151.8977 C   0  0  0  0  0  0  0  0  0  0  0  0
  146.1708  135.3139  153.2974 C   0  0  0  0  0  0  0  0  0  0  0  0
  149.6919  133.8907  156.5640 H   0  0  0  0  0  0  0  0  0  0  0  0
  151.1115  133.9802  155.5291 H   0  0  0  0  0  0  0  0  0  0  0  0
  149.6204  133.2879  154.9094 H   0  0  0  0  0  0  0  0  0  0  0  0
  150.0088  135.5585  154.0446 H   0  0  0  0  0  0  0  0  0  0  0  0
  150.0010  136.4757  156.9479 H   0  0  0  0  0  0  0  0  0  0  0  0
  149.9447  137.5684  155.5641 H   0  0  0  0  0  0  0  0  0  0  0  0
  151.3343  136.5276  155.8090 H   0  0  0  0  0  0  0  0  0  0  0  0
  147.8556  136.6507  154.8283 H   0  0  0  0  0  0  0  0  0  0  0  0
  146.2236  135.5167  156.1077 H   0  0  0  0  0  0  0  0  0  0  0  0
  147.1631  134.0562  156.2402 H   0  0  0  0  0  0  0  0  0  0  0  0
  147.6897  136.6739  157.5650 H   0  0  0  0  0  0  0  0  0  0  0  0
  147.3101  137.4797  163.1643 H   0  0  0  0  0  0  0  0  0  0  0  0
  146.3541  134.9687  163.3708 H   0  0  0  0  0  0  0  0  0  0  0  0
  148.7807  133.1947  153.7388 H   0  0  0  0  0  0  0  0  0  0  0  0
  147.1225  132.9518  154.2515 H   0  0  0  0  0  0  0  0  0  0  0  0
  148.0311  133.4560  151.3666 H   0  0  0  0  0  0  0  0  0  0  0  0
  147.4701  131.9324  152.0305 H   0  0  0  0  0  0  0  0  0  0  0  0
  146.4245  135.2691  151.1331 H   0  0  0  0  0  0  0  0  0  0  0  0
  144.7765  134.9980  151.6642 H   0  0  0  0  0  0  0  0  0  0  0  0
  145.4828  134.9101  154.0418 H   0  0  0  0  0  0  0  0  0  0  0  0
  146.0554  136.3985  153.3054 H   0  0  0  0  0  0  0  0  0  0  0  0
  148.1339  135.3581  152.9292 H   0  0  0  0  0  0  0  0  0  0  0  0
  1  2  1  0  0  0  0
  1 21  1  0  0  0  0
  1 22  1  0  0  0  0
  1 23  1  0  0  0  0
  2  3  1  0  0  0  0
  2  4  1  0  0  0  0
  2 24  1  0  0  0  0
  3 25  1  0  0  0  0
  3 26  1  0  0  0  0
  3 27  1  0  0  0  0
  4  5  1  0  0  0  0
  4 15  1  0  0  0  0
  4 28  1  0  0  0  0
  5  6  1  0  0  0  0
  5 29  1  0  0  0  0
  5 30  1  0  0  0  0
  6  7  1  0  0  0  0
  6 31  1  0  0  0  0
  7  8  2  0  0  0  0
  7  9  1  0  0  0  0
  9 10  1  0  0  0  0
 10 14  1  0  0  0  0
 10 11  2  0  0  0  0
 11 12  1  0  0  0  0
 12 13  2  0  0  0  0
 12 32  1  0  0  0  0
 13 14  1  0  0  0  0
 13 33  1  0  0  0  0
 15 20  1  0  0  0  0
 15 16  1  0  0  0  0
 15 42  1  0  0  0  0
 16 17  1  0  0  0  0
 16 34  1  0  0  0  0
 16 35  1  0  0  0  0
 17 18  1  0  0  0  0
 17 36  1  0  0  0  0
 17 37  1  0  0  0  0
 18 19  1  0  0  0  0
 19 20  1  0  0  0  0
 19 38  1  0  0  0  0
 19 39  1  0  0  0  0
 20 40  1  0  0  0  0
 20 41  1  0  0  0  0
M  CHG  1   9  -1
M  CHG  1  15   1
M  END
> <s_m_source_file>
AV-unprocessed.smi

> <i_m_source_file_index>
845

> <i_lp_mmshare_version>
43012

> <i_f3d_flags>
0

> <s_epik_input>
W0NIMl0xW0NIMl1PW0NIMl1bQ0gyXU4xW0NASF0oW0NIXShbQ0gzXSlbQ0gzXSlbQ0gyXVtOSF1DKD1PKVtOSF1jMm5bY0hdW2NIXXMy

> <s_epik_cmdline>
J2VwaWtfcHl0aG9uJywgJy1waCcsICc3LjAnLCAnLXRuJywgJzgnLCAnLW1hJywgJzIwMCcsICctbWV0YWxfYmluZGluZycsICctaW1hZScsICc8aW5maWxlLm1hZT4nLCAnLW9tYWUnLCAnPG91dGZpbGUubWFlPic=

> <r_lp_tautomer_probability>
0.999

> <r_epik_Ionization_Penalty>
7.97104

> <r_epik_Ionization_Penalty_Charging>
6.58021

> <r_epik_Ionization_Penalty_Neutral>
1.39083

> <r_epik_State_Penalty>
6.69807

> <r_epik_Charging_Adjusted_Penalty>
13.2783

> <i_epik_Tot_Q>
0

> <i_epik_Tot_abs_Q>
2

> <r_epik_Metal_State_Penalty>
2.62985

> <b_epik_Metal_Only>
1

> <s_lp_Force_Field>
OPLS_2005

> <r_lp_Energy>
16.3382

> <b_lp_Chiralities_Consistent>
1

> <s_lp_Variant>
AV-unprocessed.smi:845-5

> <Gold.Version>
5.8.1

> <Gold.Id.Protein>
6NUR|6NUR_protein|mol2

> <Gold.PLP.Fitness>
42.3619

> <Gold.PLP.PLP>
-29.8513

> <Gold.PLP.part.hbond>
-3.4649

> <Gold.PLP.part.metal>
0.0000

> <Gold.PLP.part.buried>
-4.3366

> <Gold.PLP.part.nonpolar>
-22.9236

> <Gold.PLP.part.repulsive>
0.1481

> <Gold.PLP.ligand.clash>
0.0000

> <Gold.PLP.ligand.torsion>
1.4822

> <Gold.PLP.Chemscore.Hbond>
5.0000

> <Gold.PLP.Chemscore.CHOScore>
0.0000

> <Gold.PLP.Chemscore.Metal>
0.0000

> <Gold.Chemscore.Hbonds>
donor molecule, donor type, donor heavy atom, donor atom, acceptor molecule, acceptor atom, score
      L1  H    15    42       P1  7948  2.00
      P1  H  6896  6908       L1     9  1.43
      P1  H  6931  6943       L1    11  0.75
      P1  H  6934  6947       L1    11  0.05

> <Gold.PLP.Chemscore.Internal.Correction>
0.4751

> <Gold.Rescore>
     Score         DG    S(hbond)    S(metal)    S(lipo)     H(rot)  DE(clash)    DE(int)     intcor
     11.54     -14.06       1.85        0.00      58.97       1.76       0.01       2.51       ----

> <Gold.Chemscore.Fitness>
11.5432

> <Gold.Chemscore.DG>
-14.0614

> <Gold.Chemscore.ZeroCoef>
-5.4800

> <Gold.Chemscore.Hbond>
1.8542

> <Gold.Chemscore.Metal>
0.0000

> <Gold.Chemscore.Lipo>
58.9732

> <Gold.Chemscore.Internal_Hbond>
0.0000

> <Gold.Chemscore.DEClash>
0.0089

> <Gold.Chemscore.DEInternal>
2.5093

> <Gold.Chemscore.Rot>
1.7623

> <Gold.Chemscore.Internal.Correction>
   9.000000E+99

> <Gold.Chemscore.Hbonds>
donor molecule, donor type, donor heavy atom, donor atom, acceptor molecule, acceptor atom, score
      L1  H    15    42       P1  7948  0.97
      P1  H  6896  6908       L1     9  0.11
      P1  H  6931  6943       L1    11  0.09
      P1  H  6934  6947       L1    11  0.01

> <Gold.Chemscore.Hbond.Weighted>
-6.1930

> <Gold.Chemscore.Metal.Weighted>
-0.0000

> <Gold.Chemscore.Lipo.Weighted>
-6.8999

> <Gold.Chemscore.Internal_Hbond.Weighted>
0.0000

> <Gold.Chemscore.DEClash.Weighted>
0.0089

> <Gold.Chemscore.DEInternal.Weighted>
2.5093

> <Gold.Chemscore.Rot.Weighted>
4.5116

> <Gold.Chemscore.Internal.Correction.Weighted>
   9.000000E+99

> <Gold.Protein.RotatedTorsions>
[ 6907 6896 6895 6894 ] final -167.87 input  -60.11 | X-H torsion
[ 7974 7965 7964 7962 ] final   15.95 input  175.53 | X-H torsion
[ 8008 7997 7996 7995 ] final  168.12 input   59.86 | X-H torsion
[ 10167 10162 10161 10158 ] final  -68.79 input  -65.29 | X-H torsion
[ 10718 10713 10712 10709 ] final    7.93 input   66.30 | X-H torsion
[ 10763 10752 10751 10750 ] final  -71.81 input  -60.55 | X-H torsion
[ 11005 11000 10999 10996 ] final  133.21 input  -57.11 | X-H torsion

> <Gold.Protein.ActiveResidues>
 VAL166  LYS551  ARG553  GLY616  TRP617  ASP618  TYR619  PRO620  LYS621  CYS622 
 ASP623  PHE694  ASN695  SER759  ASP760  ASP761  ALA762  ILE779  LEU786  VAL792 
 PHE793  MET794  SER795  GLU796  ALA797  LYS798  CYS799  TRP800  GLU811  SER814 

> <Gold.Protein.RotatedAtoms>
  151.4665  133.3579  159.2816 H   0  0  0  0  0  0  0  0  0  0  0  0  # atno 6907 bound_to 6896
  150.8990  134.8402  159.7357 H   0  0  0  0  0  0  0  0  0  0  0  0  # atno 6908 bound_to 6896
  152.4868  134.4583  159.9649 H   0  0  0  0  0  0  0  0  0  0  0  0  # atno 6909 bound_to 6896
  146.2264  139.8820  142.8569 H   0  0  0  0  0  0  0  0  0  0  0  0  # atno 7974 bound_to 7965
  156.1574  140.1599  156.8669 H   0  0  0  0  0  0  0  0  0  0  0  0  # atno 8008 bound_to 7997
  154.5128  140.0797  156.8059 H   0  0  0  0  0  0  0  0  0  0  0  0  # atno 8009 bound_to 7997
  155.3775  140.3403  155.4248 H   0  0  0  0  0  0  0  0  0  0  0  0  # atno 8010 bound_to 7997
  140.5480  143.2312  151.6965 H   0  0  0  0  0  0  0  0  0  0  0  0  # atno 10167 bound_to 10162
  156.9442  130.5873  149.5654 H   0  0  0  0  0  0  0  0  0  0  0  0  # atno 10718 bound_to 10713
  154.4369  135.5950  153.6104 H   0  0  0  0  0  0  0  0  0  0  0  0  # atno 10763 bound_to 10752
  152.9802  135.5988  154.3770 H   0  0  0  0  0  0  0  0  0  0  0  0  # atno 10764 bound_to 10752
  154.3615  135.2841  155.2296 H   0  0  0  0  0  0  0  0  0  0  0  0  # atno 10765 bound_to 10752
  139.9838  134.9539  156.9692 H   0  0  0  0  0  0  0  0  0  0  0  0  # atno 11005 bound_to 11000
  145.2503  141.0041  143.3885 LP  0  0  0  0  0  0  0  0  0  0  0  0  # atno 17320 bound_to 7965
  144.9380  139.4222  143.6463 LP  0  0  0  0  0  0  0  0  0  0  0  0  # atno 17321 bound_to 7965
  139.5015  144.3863  152.0325 LP  0  0  0  0  0  0  0  0  0  0  0  0  # atno 17342 bound_to 10162
  140.2978  144.3681  150.6069 LP  0  0  0  0  0  0  0  0  0  0  0  0  # atno 17343 bound_to 10162
  156.0391  130.5475  150.8726 LP  0  0  0  0  0  0  0  0  0  0  0  0  # atno 17370 bound_to 10713
  157.5765  131.0946  150.9338 LP  0  0  0  0  0  0  0  0  0  0  0  0  # atno 17371 bound_to 10713
  140.5044  134.1065  155.7257 LP  0  0  0  0  0  0  0  0  0  0  0  0  # atno 17394 bound_to 11000
  141.1506  133.8976  157.2108 LP  0  0  0  0  0  0  0  0  0  0  0  0  # atno 17395 bound_to 11000

$$$$
