AV-unprocessed.smi:265|AV-procd|sdf|2019|dock1
  -GOLD-   2262021223D 1   1.00000     0.00000
 Structure written by MMmdl.
 52 56  0  0  0  0  0  0  0  0  1 V2000
  145.3655  132.8862  152.9152 C   0  0  0  0  0  0  0  0  0  0  0  0
  145.3185  132.1047  151.5927 C   0  0  2  0  0  0  0  0  0  0  0  0
  146.5675  132.2918  150.9323 O   0  0  0  0  0  0  0  0  0  0  0  0
  146.3614  132.2097  149.5337 C   0  0  0  0  0  0  0  0  0  0  0  0
  145.0536  132.9650  149.3543 C   0  0  0  0  0  0  0  0  0  0  0  0
  144.2309  132.5271  150.5639 C   0  0  1  0  0  0  0  0  0  0  0  0
  143.5081  131.3638  150.1978 O   0  0  0  0  0  0  0  0  0  0  0  0
  143.2118  133.5959  151.0396 C   0  0  0  0  0  0  0  0  0  0  0  0
  143.8362  134.8084  151.5480 N   0  0  0  0  0  0  0  0  0  0  0  0
  144.8097  135.5611  150.9286 C   0  0  0  0  0  0  0  0  0  0  0  0
  145.2109  136.6112  151.5923 N   0  0  0  0  0  0  0  0  0  0  0  0
  144.4651  136.5715  152.7629 C   0  0  0  0  0  0  0  0  0  0  0  0
  144.4018  137.3912  153.9195 C   0  0  0  0  0  0  0  0  0  0  0  0
  145.1662  138.4960  154.0546 N   0  0  0  0  0  0  0  0  0  0  0  0
  144.9561  139.1803  155.3258 C   0  0  0  0  0  0  0  0  0  0  0  0
  145.6356  140.5585  155.3165 C   0  0  0  0  0  0  0  0  0  0  0  0
  147.1220  140.4624  154.9309 C   0  0  1  0  0  0  0  0  0  0  0  0
  147.8585  139.8163  155.9613 O   0  0  0  0  0  0  0  0  0  0  0  0
  149.2738  139.8500  155.7661 C   0  0  0  0  0  0  0  0  0  0  0  0
  149.6806  139.4090  154.3476 C   0  0  0  0  0  0  0  0  0  0  0  0
  150.8488  139.1110  154.1098 O   0  0  0  0  0  0  0  0  0  0  0  0
  148.7380  139.4051  153.3915 N   0  0  0  0  0  0  0  0  0  0  0  0
  147.3194  139.6452  153.6349 C   0  0  1  0  0  0  0  0  0  0  0  0
  146.5685  138.2995  153.6990 C   0  0  0  0  0  0  0  0  0  0  0  0
  143.5328  137.0403  154.9038 N   0  0  0  0  0  0  0  0  0  0  0  0
  142.7729  135.9494  154.7630 C   0  0  0  0  0  0  0  0  0  0  0  0
  142.7264  135.0897  153.7423 N   0  0  0  0  0  0  0  0  0  0  0  0
  143.5975  135.4443  152.7540 C   0  0  0  0  0  0  0  0  0  0  0  0
  147.5128  141.4739  154.8030 H   0  0  0  0  0  0  0  0  0  0  0  0
  146.9295  140.2217  152.7951 H   0  0  0  0  0  0  0  0  0  0  0  0
  144.4413  132.7684  153.4811 H   0  0  0  0  0  0  0  0  0  0  0  0
  145.5311  133.9504  152.7471 H   0  0  0  0  0  0  0  0  0  0  0  0
  146.1794  132.5260  153.5445 H   0  0  0  0  0  0  0  0  0  0  0  0
  145.2285  131.0419  151.8259 H   0  0  0  0  0  0  0  0  0  0  0  0
  147.1870  132.6543  148.9778 H   0  0  0  0  0  0  0  0  0  0  0  0
  146.2600  131.1658  149.2331 H   0  0  0  0  0  0  0  0  0  0  0  0
  145.2606  134.0345  149.4096 H   0  0  0  0  0  0  0  0  0  0  0  0
  144.5714  132.7691  148.3954 H   0  0  0  0  0  0  0  0  0  0  0  0
  143.2010  130.9413  150.9854 H   0  0  0  0  0  0  0  0  0  0  0  0
  142.5447  133.8739  150.2226 H   0  0  0  0  0  0  0  0  0  0  0  0
  142.5789  133.1953  151.8317 H   0  0  0  0  0  0  0  0  0  0  0  0
  145.2148  135.3069  149.9601 H   0  0  0  0  0  0  0  0  0  0  0  0
  143.8880  139.2966  155.5151 H   0  0  0  0  0  0  0  0  0  0  0  0
  145.3600  138.5720  156.1367 H   0  0  0  0  0  0  0  0  0  0  0  0
  145.1231  141.2014  154.5999 H   0  0  0  0  0  0  0  0  0  0  0  0
  145.5290  141.0369  156.2905 H   0  0  0  0  0  0  0  0  0  0  0  0
  149.6399  140.8627  155.9386 H   0  0  0  0  0  0  0  0  0  0  0  0
  149.7503  139.2042  156.5041 H   0  0  0  0  0  0  0  0  0  0  0  0
  149.0103  139.1511  152.4531 H   0  0  0  0  0  0  0  0  0  0  0  0
  147.0377  137.6464  154.4367 H   0  0  0  0  0  0  0  0  0  0  0  0
  146.6345  137.7910  152.7360 H   0  0  0  0  0  0  0  0  0  0  0  0
  142.1061  135.7348  155.5852 H   0  0  0  0  0  0  0  0  0  0  0  0
  1  2  1  0  0  0  0
  1 31  1  0  0  0  0
  1 32  1  0  0  0  0
  1 33  1  0  0  0  0
  2  6  1  0  0  0  0
  2  3  1  0  0  0  0
  2 34  1  0  0  0  0
  3  4  1  0  0  0  0
  4  5  1  0  0  0  0
  4 35  1  0  0  0  0
  4 36  1  0  0  0  0
  5  6  1  0  0  0  0
  5 37  1  0  0  0  0
  5 38  1  0  0  0  0
  6  7  1  0  0  0  0
  6  8  1  0  0  0  0
  7 39  1  0  0  0  0
  8  9  1  0  0  0  0
  8 40  1  0  0  0  0
  8 41  1  0  0  0  0
  9 28  1  0  0  0  0
  9 10  1  0  0  0  0
 10 11  2  0  0  0  0
 10 42  1  0  0  0  0
 11 12  1  0  0  0  0
 12 28  2  0  0  0  0
 12 13  1  0  0  0  0
 13 14  1  0  0  0  0
 13 25  2  0  0  0  0
 14 24  1  0  0  0  0
 14 15  1  0  0  0  0
 15 16  1  0  0  0  0
 15 43  1  0  0  0  0
 15 44  1  0  0  0  0
 16 17  1  0  0  0  0
 16 45  1  0  0  0  0
 16 46  1  0  0  0  0
 17 29  1  0  0  0  0
 17 23  1  0  0  0  0
 17 18  1  0  0  0  0
 18 19  1  0  0  0  0
 19 20  1  0  0  0  0
 19 47  1  0  0  0  0
 19 48  1  0  0  0  0
 20 21  2  0  0  0  0
 20 22  1  0  0  0  0
 22 23  1  0  0  0  0
 22 49  1  0  0  0  0
 23 30  1  0  0  0  0
 23 24  1  0  0  0  0
 24 50  1  0  0  0  0
 24 51  1  0  0  0  0
 25 26  1  0  0  0  0
 26 27  2  0  0  0  0
 26 52  1  0  0  0  0
 27 28  1  0  0  0  0
M  END
> <s_m_source_file>
AV-unprocessed.smi

> <i_m_source_file_index>
265

> <i_lp_mmshare_version>
43012

> <i_f3d_flags>
0

> <s_epik_input>
W0NIMl0xW0NIMl1PW0NAQEhdKFtDSDNdKVtDQEBdMShbT0hdKVtDSDJdbihbY0hdbjIpYyhjMjMpbltjSF1uYzNOKFtDSDJdW0NIMl00KVtDSDJdW0NAQEhdKFtDQEhdNDUpW05IXUMoPU8pW0NIMl1PNQ==

> <s_epik_cmdline>
J2VwaWtfcHl0aG9uJywgJy1waCcsICc3LjAnLCAnLXRuJywgJzgnLCAnLW1hJywgJzIwMCcsICctbWV0YWxfYmluZGluZycsICctaW1hZScsICc8aW5maWxlLm1hZT4nLCAnLW9tYWUnLCAnPG91dGZpbGUubWFlPic=

> <r_lp_tautomer_probability>
1

> <r_epik_Ionization_Penalty>
0.00221504

> <r_epik_Ionization_Penalty_Charging>
0

> <r_epik_Ionization_Penalty_Neutral>
0.00221504

> <r_epik_State_Penalty>
-0

> <r_epik_Charging_Adjusted_Penalty>
0

> <i_epik_Tot_Q>
0

> <i_epik_Tot_abs_Q>
0

> <r_epik_Metal_State_Penalty>
-0

> <b_epik_Metal_Only>
0

> <s_lp_Force_Field>
OPLS_2005

> <r_lp_Energy>
45.6992

> <b_lp_Chiralities_Consistent>
1

> <s_lp_Variant>
AV-unprocessed.smi:265-5

> <Gold.Version>
5.8.1

> <Gold.Id.Protein>
6NUR|6NUR_protein|mol2

> <Gold.PLP.Fitness>
37.3937

> <Gold.PLP.PLP>
-27.2428

> <Gold.PLP.part.hbond>
-3.8434

> <Gold.PLP.part.metal>
0.0000

> <Gold.PLP.part.buried>
-0.5670

> <Gold.PLP.part.nonpolar>
-26.2383

> <Gold.PLP.part.repulsive>
4.7310

> <Gold.PLP.ligand.clash>
0.0000

> <Gold.PLP.ligand.torsion>
0.2651

> <Gold.PLP.Chemscore.Hbond>
2.5520

> <Gold.PLP.Chemscore.CHOScore>
0.9479

> <Gold.PLP.Chemscore.Metal>
0.0000

> <Gold.Chemscore.Hbonds>
donor molecule, donor type, donor heavy atom, donor atom, acceptor molecule, acceptor atom, score
      L1  H    22    49       P1  7957  0.67
      P1  H  7989  7998       L1    21  1.00
      P1  H 10785 10796       L1     7  0.88
      L1  C    10    42       P1  7921  0.97

> <Gold.PLP.Chemscore.Internal.Correction>
0.1815

> <Gold.Rescore>
     Score         DG    S(hbond)    S(metal)    S(lipo)     H(rot)  DE(clash)    DE(int)     intcor
      5.42     -11.36       1.23        0.00      64.15       2.25       1.95       3.98       ----

> <Gold.Chemscore.Fitness>
5.4243

> <Gold.Chemscore.DG>
-11.3576

> <Gold.Chemscore.ZeroCoef>
-5.4800

> <Gold.Chemscore.Hbond>
1.2337

> <Gold.Chemscore.Metal>
0.0000

> <Gold.Chemscore.Lipo>
64.1458

> <Gold.Chemscore.Internal_Hbond>
0.0000

> <Gold.Chemscore.DEClash>
1.9514

> <Gold.Chemscore.DEInternal>
3.9819

> <Gold.Chemscore.Rot>
2.2453

> <Gold.Chemscore.Internal.Correction>
   9.000000E+99

> <Gold.Chemscore.Hbonds>
donor molecule, donor type, donor heavy atom, donor atom, acceptor molecule, acceptor atom, score
      L1  H    22    49       P1  7957  0.68
      P1  H  7989  7998       L1    21  0.37
      P1  H 10785 10796       L1     7  0.48

> <Gold.Chemscore.Hbond.Weighted>
-4.1204

> <Gold.Chemscore.Metal.Weighted>
-0.0000

> <Gold.Chemscore.Lipo.Weighted>
-7.5051

> <Gold.Chemscore.Internal_Hbond.Weighted>
0.0000

> <Gold.Chemscore.DEClash.Weighted>
1.9514

> <Gold.Chemscore.DEInternal.Weighted>
3.9819

> <Gold.Chemscore.Rot.Weighted>
5.7479

> <Gold.Chemscore.Internal.Correction.Weighted>
   9.000000E+99

> <Gold.Protein.RotatedTorsions>
[ 6907 6896 6895 6894 ] final -145.02 input  -60.11 | X-H torsion
[ 7974 7965 7964 7962 ] final -109.96 input  175.53 | X-H torsion
[ 8008 7997 7996 7995 ] final -147.92 input   59.86 | X-H torsion
[ 10167 10162 10161 10158 ] final -127.74 input  -65.29 | X-H torsion
[ 10718 10713 10712 10709 ] final -152.54 input   66.30 | X-H torsion
[ 10763 10752 10751 10750 ] final -161.72 input  -60.55 | X-H torsion
[ 11005 11000 10999 10996 ] final   90.23 input  -57.11 | X-H torsion

> <Gold.Protein.ActiveResidues>
 VAL166  LYS551  ARG553  GLY616  TRP617  ASP618  TYR619  PRO620  LYS621  CYS622 
 ASP623  PHE694  ASN695  SER759  ASP760  ASP761  ALA762  ILE779  LEU786  VAL792 
 PHE793  MET794  SER795  GLU796  ALA797  LYS798  CYS799  TRP800  GLU811  SER814 

> <Gold.Protein.RotatedAtoms>
  151.1220  133.5097  159.2601 H   0  0  0  0  0  0  0  0  0  0  0  0  # atno 6907 bound_to 6896
  151.1851  135.0378  159.8819 H   0  0  0  0  0  0  0  0  0  0  0  0  # atno 6908 bound_to 6896
  152.5456  134.1067  159.8394 H   0  0  0  0  0  0  0  0  0  0  0  0  # atno 6909 bound_to 6896
  145.1741  140.8940  143.3518 H   0  0  0  0  0  0  0  0  0  0  0  0  # atno 7974 bound_to 7965
  155.5833  140.0645  157.2777 H   0  0  0  0  0  0  0  0  0  0  0  0  # atno 8008 bound_to 7997
  154.4326  140.1848  156.1046 H   0  0  0  0  0  0  0  0  0  0  0  0  # atno 8009 bound_to 7997
  156.0288  140.3308  155.7121 H   0  0  0  0  0  0  0  0  0  0  0  0  # atno 8010 bound_to 7997
  139.9577  143.5985  152.2455 H   0  0  0  0  0  0  0  0  0  0  0  0  # atno 10167 bound_to 10162
  156.4739  130.8271  151.2500 H   0  0  0  0  0  0  0  0  0  0  0  0  # atno 10718 bound_to 10713
  154.7279  135.3040  154.8941 H   0  0  0  0  0  0  0  0  0  0  0  0  # atno 10763 bound_to 10752
  153.9793  135.6732  153.4753 H   0  0  0  0  0  0  0  0  0  0  0  0  # atno 10764 bound_to 10752
  153.0891  135.4968  154.8575 H   0  0  0  0  0  0  0  0  0  0  0  0  # atno 10765 bound_to 10752
  139.8860  134.8600  156.3254 H   0  0  0  0  0  0  0  0  0  0  0  0  # atno 11005 bound_to 11000
  145.0202  139.3431  143.6076 LP  0  0  0  0  0  0  0  0  0  0  0  0  # atno 17320 bound_to 7965
  146.3464  139.9500  142.8730 LP  0  0  0  0  0  0  0  0  0  0  0  0  # atno 17321 bound_to 7965
  139.6578  144.7662  151.2021 LP  0  0  0  0  0  0  0  0  0  0  0  0  # atno 17342 bound_to 10162
  140.7563  143.6057  150.8655 LP  0  0  0  0  0  0  0  0  0  0  0  0  # atno 17343 bound_to 10162
  157.7489  131.0067  150.3162 LP  0  0  0  0  0  0  0  0  0  0  0  0  # atno 17370 bound_to 10713
  156.3590  130.3844  149.7266 LP  0  0  0  0  0  0  0  0  0  0  0  0  # atno 17371 bound_to 10713
  140.9758  133.7298  156.0600 LP  0  0  0  0  0  0  0  0  0  0  0  0  # atno 17394 bound_to 11000
  140.7812  134.3723  157.5487 LP  0  0  0  0  0  0  0  0  0  0  0  0  # atno 17395 bound_to 11000

$$$$
