AV-unprocessed.smi:3341|AV-procd|sdf|12885|dock2
  -GOLD-   2272019293D 1   1.00000     0.00000
 Structure written by MMmdl.
 46 47  0  0  0  0  0  0  0  0  2 V2000
  150.2119  140.6493  157.0592 C   0  0  0  0  0  0  0  0  0  0  0  0
  150.4765  141.0285  155.5973 C   0  0  0  0  0  0  0  0  0  0  0  0
  149.2735  140.9411  154.7929 N   0  0  0  0  0  0  0  0  0  0  0  0
  148.5053  139.8256  154.5243 C   0  0  0  0  0  0  0  0  0  0  0  0
  147.4863  140.2627  153.7258 C   0  0  0  0  0  0  0  0  0  0  0  0
  146.4144  139.5320  153.1535 N   0  0  0  0  0  0  0  0  0  0  0  0
  146.3639  138.2118  152.9133 C   0  0  0  0  0  0  0  0  0  0  0  0
  147.2588  137.4080  153.1754 O   0  0  0  0  0  0  0  0  0  0  0  0
  145.1993  137.8622  152.3493 N   0  0  0  0  0  0  0  0  0  0  0  0
  144.8324  136.5052  151.9615 C   0  0  0  0  0  0  0  0  0  0  0  0
  145.6893  136.0025  150.7835 C   0  0  0  0  0  0  0  0  0  0  0  0
  145.4057  134.5862  150.4399 N   0  3  1  0  0  0  0  0  0  0  0  0
  146.2908  133.6435  151.1720 C   0  0  0  0  0  0  0  0  0  0  0  0
  146.0864  132.1997  150.6872 C   0  0  0  0  0  0  0  0  0  0  0  0
  144.6151  131.7798  150.8095 C   0  0  0  0  0  0  0  0  0  0  0  0
  143.6871  132.7858  150.1042 C   0  0  2  0  0  0  0  0  0  0  0  0
  143.7416  132.6752  148.5702 C   0  0  0  0  0  0  0  0  0  0  0  0
  143.9710  134.2205  150.5956 C   0  0  0  0  0  0  0  0  0  0  0  0
  147.7013  141.6545  153.5507 C   0  0  0  0  0  0  0  0  0  0  0  0
  148.7827  142.0577  154.2001 N   0  0  0  0  0  0  0  0  0  0  0  0
  151.1273  140.7120  157.6476 H   0  0  0  0  0  0  0  0  0  0  0  0
  149.8340  139.6295  157.1387 H   0  0  0  0  0  0  0  0  0  0  0  0
  149.4781  141.3157  157.5137 H   0  0  0  0  0  0  0  0  0  0  0  0
  150.8697  142.0440  155.5332 H   0  0  0  0  0  0  0  0  0  0  0  0
  151.2315  140.3687  155.1682 H   0  0  0  0  0  0  0  0  0  0  0  0
  148.7530  138.8507  154.9173 H   0  0  0  0  0  0  0  0  0  0  0  0
  145.6014  140.0739  152.8993 H   0  0  0  0  0  0  0  0  0  0  0  0
  144.5214  138.5885  152.1682 H   0  0  0  0  0  0  0  0  0  0  0  0
  144.9656  135.8740  152.8390 H   0  0  0  0  0  0  0  0  0  0  0  0
  143.7717  136.4637  151.7077 H   0  0  0  0  0  0  0  0  0  0  0  0
  145.4749  136.6267  149.9148 H   0  0  0  0  0  0  0  0  0  0  0  0
  146.7526  136.1265  150.9946 H   0  0  0  0  0  0  0  0  0  0  0  0
  147.3346  133.9223  151.0222 H   0  0  0  0  0  0  0  0  0  0  0  0
  146.0935  133.7146  152.2429 H   0  0  0  0  0  0  0  0  0  0  0  0
  146.4160  132.1088  149.6517 H   0  0  0  0  0  0  0  0  0  0  0  0
  146.7137  131.5218  151.2668 H   0  0  0  0  0  0  0  0  0  0  0  0
  144.4717  130.7767  150.4064 H   0  0  0  0  0  0  0  0  0  0  0  0
  144.3477  131.7248  151.8658 H   0  0  0  0  0  0  0  0  0  0  0  0
  142.6642  132.5387  150.3921 H   0  0  0  0  0  0  0  0  0  0  0  0
  144.7261  132.9290  148.1771 H   0  0  0  0  0  0  0  0  0  0  0  0
  143.0197  133.3468  148.1043 H   0  0  0  0  0  0  0  0  0  0  0  0
  143.5041  131.6630  148.2417 H   0  0  0  0  0  0  0  0  0  0  0  0
  143.6953  134.3094  151.6477 H   0  0  0  0  0  0  0  0  0  0  0  0
  143.3339  134.9168  150.0515 H   0  0  0  0  0  0  0  0  0  0  0  0
  147.1219  142.3704  152.9867 H   0  0  0  0  0  0  0  0  0  0  0  0
  145.6333  134.4794  149.4616 H   0  0  0  0  0  0  0  0  0  0  0  0
  1  2  1  0  0  0  0
  1 21  1  0  0  0  0
  1 22  1  0  0  0  0
  1 23  1  0  0  0  0
  2  3  1  0  0  0  0
  2 24  1  0  0  0  0
  2 25  1  0  0  0  0
  3 20  1  0  0  0  0
  3  4  1  0  0  0  0
  4  5  2  0  0  0  0
  4 26  1  0  0  0  0
  5  6  1  0  0  0  0
  5 19  1  0  0  0  0
  6  7  1  0  0  0  0
  6 27  1  0  0  0  0
  7  8  2  0  0  0  0
  7  9  1  0  0  0  0
  9 10  1  0  0  0  0
  9 28  1  0  0  0  0
 10 11  1  0  0  0  0
 10 29  1  0  0  0  0
 10 30  1  0  0  0  0
 11 12  1  0  0  0  0
 11 31  1  0  0  0  0
 11 32  1  0  0  0  0
 12 18  1  0  0  0  0
 12 13  1  0  0  0  0
 12 46  1  0  0  0  0
 13 14  1  0  0  0  0
 13 33  1  0  0  0  0
 13 34  1  0  0  0  0
 14 15  1  0  0  0  0
 14 35  1  0  0  0  0
 14 36  1  0  0  0  0
 15 16  1  0  0  0  0
 15 37  1  0  0  0  0
 15 38  1  0  0  0  0
 16 17  1  0  0  0  0
 16 18  1  0  0  0  0
 16 39  1  0  0  0  0
 17 40  1  0  0  0  0
 17 41  1  0  0  0  0
 17 42  1  0  0  0  0
 18 43  1  0  0  0  0
 18 44  1  0  0  0  0
 19 20  2  0  0  0  0
 19 45  1  0  0  0  0
M  CHG  1  12   1
M  END
> <s_m_source_file>
AV-unprocessed.smi

> <i_m_source_file_index>
3341

> <i_lp_mmshare_version>
43012

> <i_f3d_flags>
0

> <s_epik_input>
W0NIM11bQ0gyXW4xW2NIXWMoW2NIXW4xKVtOSF1DKD1PKVtOSF1bQ0gyXVtDSDJdTjJbQ0gyXVtDSDJdW0NIMl1bQ0BASF0oW0NIM10pW0NIMl0y

> <s_epik_cmdline>
J2VwaWtfcHl0aG9uJywgJy1waCcsICc3LjAnLCAnLXRuJywgJzgnLCAnLW1hJywgJzIwMCcsICctbWV0YWxfYmluZGluZycsICctaW1hZScsICc8aW5maWxlLm1hZT4nLCAnLW9tYWUnLCAnPG91dGZpbGUubWFlPic=

> <r_lp_tautomer_probability>
1

> <r_epik_Ionization_Penalty>
0.00203389

> <r_epik_Ionization_Penalty_Charging>
0.00188267

> <r_epik_Ionization_Penalty_Neutral>
0.000151224

> <r_epik_State_Penalty>
0.0012808

> <r_epik_Charging_Adjusted_Penalty>
0.00316346

> <i_epik_Tot_Q>
1

> <i_epik_Tot_abs_Q>
1

> <r_epik_Metal_State_Penalty>
-0

> <b_epik_Metal_Only>
0

> <s_lp_Force_Field>
OPLS_2005

> <r_lp_Energy>
23.1635

> <b_lp_Chiralities_Consistent>
1

> <s_lp_Variant>
AV-unprocessed.smi:3341-3

> <Gold.Version>
5.8.1

> <Gold.Id.Protein>
6NUR|6NUR_protein|mol2

> <Gold.PLP.Fitness>
45.6947

> <Gold.PLP.PLP>
-37.2042

> <Gold.PLP.part.hbond>
-5.0000

> <Gold.PLP.part.metal>
0.0000

> <Gold.PLP.part.buried>
-4.2587

> <Gold.PLP.part.nonpolar>
-32.8909

> <Gold.PLP.part.repulsive>
5.5480

> <Gold.PLP.ligand.clash>
0.0000

> <Gold.PLP.ligand.torsion>
0.4788

> <Gold.PLP.Chemscore.Hbond>
3.1310

> <Gold.PLP.Chemscore.CHOScore>
0.0000

> <Gold.PLP.Chemscore.Metal>
0.0000

> <Gold.Chemscore.Hbonds>
donor molecule, donor type, donor heavy atom, donor atom, acceptor molecule, acceptor atom, score
      L1  H     6    27       P1 10175  1.00
      L1  H     9    28       P1 10175  0.93
      L1  H    12    46       P1  7921  1.00
      P1  H  8011  8017       L1    20  0.14

> <Gold.PLP.Chemscore.Internal.Correction>
0.0550

> <Gold.Rescore>
     Score         DG    S(hbond)    S(metal)    S(lipo)     H(rot)  DE(clash)    DE(int)     intcor
     18.57     -22.66       2.87        0.00      99.75       1.59       2.80       1.29       ----

> <Gold.Chemscore.Fitness>
18.5667

> <Gold.Chemscore.DG>
-22.6640

> <Gold.Chemscore.ZeroCoef>
-5.4800

> <Gold.Chemscore.Hbond>
2.8702

> <Gold.Chemscore.Metal>
0.0000

> <Gold.Chemscore.Lipo>
99.7457

> <Gold.Chemscore.Internal_Hbond>
0.0000

> <Gold.Chemscore.DEClash>
2.8047

> <Gold.Chemscore.DEInternal>
1.2926

> <Gold.Chemscore.Rot>
1.5909

> <Gold.Chemscore.Internal.Correction>
   9.000000E+99

> <Gold.Chemscore.Hbonds>
donor molecule, donor type, donor heavy atom, donor atom, acceptor molecule, acceptor atom, score
      L1  H     6    27       P1 10175  0.94
      L1  H     9    28       P1 10175  0.87
      L1  H    12    46       P1  7921  0.88
      P1  H  8011  8017       L1    20  0.01

> <Gold.Chemscore.Hbond.Weighted>
-9.5865

> <Gold.Chemscore.Metal.Weighted>
-0.0000

> <Gold.Chemscore.Lipo.Weighted>
-11.6702

> <Gold.Chemscore.Internal_Hbond.Weighted>
0.0000

> <Gold.Chemscore.DEClash.Weighted>
2.8047

> <Gold.Chemscore.DEInternal.Weighted>
1.2926

> <Gold.Chemscore.Rot.Weighted>
4.0728

> <Gold.Chemscore.Internal.Correction.Weighted>
   9.000000E+99

> <Gold.Protein.RotatedTorsions>
[ 6907 6896 6895 6894 ] final  177.62 input  -60.11 | X-H torsion
[ 7974 7965 7964 7962 ] final  -22.23 input  175.53 | X-H torsion
[ 8008 7997 7996 7995 ] final -129.25 input   59.86 | X-H torsion
[ 10167 10162 10161 10158 ] final -123.94 input  -65.29 | X-H torsion
[ 10718 10713 10712 10709 ] final  -24.05 input   66.30 | X-H torsion
[ 10763 10752 10751 10750 ] final  -40.88 input  -60.55 | X-H torsion
[ 11005 11000 10999 10996 ] final  179.53 input  -57.11 | X-H torsion

> <Gold.Protein.ActiveResidues>
 VAL166  LYS551  ARG553  GLY616  TRP617  ASP618  TYR619  PRO620  LYS621  CYS622 
 ASP623  PHE694  ASN695  SER759  ASP760  ASP761  ALA762  ILE779  LEU786  VAL792 
 PHE793  MET794  SER795  GLU796  ALA797  LYS798  CYS799  TRP800  GLU811  SER814 

> <Gold.Protein.RotatedAtoms>
  151.7010  133.3311  159.3266 H   0  0  0  0  0  0  0  0  0  0  0  0  # atno 6907 bound_to 6896
  150.7736  134.6615  159.6352 H   0  0  0  0  0  0  0  0  0  0  0  0  # atno 6908 bound_to 6896
  152.3769  134.6652  160.0208 H   0  0  0  0  0  0  0  0  0  0  0  0  # atno 6909 bound_to 6896
  146.1687  140.4450  142.8541 H   0  0  0  0  0  0  0  0  0  0  0  0  # atno 7974 bound_to 7965
  155.2761  140.0442  157.3011 H   0  0  0  0  0  0  0  0  0  0  0  0  # atno 8008 bound_to 7997
  154.5625  140.2350  155.8282 H   0  0  0  0  0  0  0  0  0  0  0  0  # atno 8009 bound_to 7997
  156.2058  140.3013  155.9632 H   0  0  0  0  0  0  0  0  0  0  0  0  # atno 8010 bound_to 7997
  139.9981  143.5569  152.2314 H   0  0  0  0  0  0  0  0  0  0  0  0  # atno 10167 bound_to 10162
  156.4828  130.4549  149.6801 H   0  0  0  0  0  0  0  0  0  0  0  0  # atno 10718 bound_to 10713
  153.9532  135.6748  153.4744 H   0  0  0  0  0  0  0  0  0  0  0  0  # atno 10763 bound_to 10752
  153.0874  135.4892  154.8620 H   0  0  0  0  0  0  0  0  0  0  0  0  # atno 10764 bound_to 10752
  154.7314  135.3139  154.8845 H   0  0  0  0  0  0  0  0  0  0  0  0  # atno 10765 bound_to 10752
  140.4072  134.6724  157.4594 H   0  0  0  0  0  0  0  0  0  0  0  0  # atno 11005 bound_to 11000
  144.8131  140.6421  143.6402 LP  0  0  0  0  0  0  0  0  0  0  0  0  # atno 17320 bound_to 7965
  145.4397  139.1537  143.3977 LP  0  0  0  0  0  0  0  0  0  0  0  0  # atno 17321 bound_to 7965
  139.6291  144.7641  151.2574 LP  0  0  0  0  0  0  0  0  0  0  0  0  # atno 17342 bound_to 10162
  140.7429  143.6511  150.8248 LP  0  0  0  0  0  0  0  0  0  0  0  0  # atno 17343 bound_to 10162
  156.3504  130.7429  151.2388 LP  0  0  0  0  0  0  0  0  0  0  0  0  # atno 17370 bound_to 10713
  157.7481  131.0378  150.4475 LP  0  0  0  0  0  0  0  0  0  0  0  0  # atno 17371 bound_to 10713
  140.0293  134.6430  155.9128 LP  0  0  0  0  0  0  0  0  0  0  0  0  # atno 17394 bound_to 11000
  141.1835  133.6551  156.5117 LP  0  0  0  0  0  0  0  0  0  0  0  0  # atno 17395 bound_to 11000

$$$$
