AV-unprocessed.smi:2902|AV-procd|sdf|11155|dock7
  -GOLD-   2272016 43D 1   1.00000     0.00000
 Structure written by MMmdl.
 47 48  0  0  0  0  0  0  0  0  1 V2000
  152.1990  139.1619  155.7120 C   0  0  0  0  0  0  0  0  0  0  0  0
  151.7395  138.5358  154.3863 C   0  0  0  0  0  0  0  0  0  0  0  0
  150.2773  138.0467  154.3973 C   0  0  2  0  0  0  0  0  0  0  0  0
  149.4909  139.0788  154.9853 O   0  0  0  0  0  0  0  0  0  0  0  0
  149.7005  140.3924  154.4712 C   0  0  0  0  0  0  0  0  0  0  0  0
  150.1006  141.3081  155.6282 C   0  0  0  0  0  0  0  0  0  0  0  0
  148.7868  141.7017  156.3156 C   0  0  0  0  0  0  0  0  0  0  0  0
  147.6657  141.4290  155.3004 C   0  0  0  0  0  0  0  0  0  0  0  0
  148.3569  140.9617  154.0154 C   0  0  0  0  0  0  0  0  0  0  0  0
  150.0987  136.7437  155.1960 C   0  0  0  0  0  0  0  0  0  0  0  0
  150.3575  136.7128  156.3991 O   0  0  0  0  0  0  0  0  0  0  0  0
  149.6440  135.6860  154.5069 N   0  0  0  0  0  0  0  0  0  0  0  0
  149.3891  134.3466  155.0368 C   0  0  2  0  0  0  0  0  0  0  0  0
  150.5935  133.9063  155.8856 C   0  0  0  0  0  0  0  0  0  0  0  0
  149.0365  133.3475  153.9027 C   0  0  1  0  0  0  0  0  0  0  0  0
  149.4980  131.9075  154.1977 C   0  0  0  0  0  0  0  0  0  0  0  0
  147.6275  133.3924  153.5245 N   0  0  0  0  0  0  0  0  0  0  0  0
  147.0415  133.9346  152.4548 C   0  0  0  0  0  0  0  0  0  0  0  0
  145.7213  133.8144  152.4449 N   0  0  0  0  0  0  0  0  0  0  0  0
  145.5443  133.1454  153.6224 C   0  0  0  0  0  0  0  0  0  0  0  0
  146.6522  132.8731  154.3114 N   0  0  0  0  0  0  0  0  0  0  0  0
  153.2521  139.4393  155.6627 H   0  0  0  0  0  0  0  0  0  0  0  0
  152.0785  138.4621  156.5391 H   0  0  0  0  0  0  0  0  0  0  0  0
  151.6337  140.0633  155.9493 H   0  0  0  0  0  0  0  0  0  0  0  0
  151.8913  139.2494  153.5753 H   0  0  0  0  0  0  0  0  0  0  0  0
  152.3890  137.6894  154.1613 H   0  0  0  0  0  0  0  0  0  0  0  0
  149.9562  137.9021  153.3636 H   0  0  0  0  0  0  0  0  0  0  0  0
  150.4434  140.4207  153.6724 H   0  0  0  0  0  0  0  0  0  0  0  0
  150.8098  140.8386  156.3107 H   0  0  0  0  0  0  0  0  0  0  0  0
  150.5777  142.2032  155.2270 H   0  0  0  0  0  0  0  0  0  0  0  0
  148.6309  141.0970  157.2101 H   0  0  0  0  0  0  0  0  0  0  0  0
  148.8052  142.7466  156.6279 H   0  0  0  0  0  0  0  0  0  0  0  0
  147.0148  140.6392  155.6780 H   0  0  0  0  0  0  0  0  0  0  0  0
  147.0442  142.3077  155.1261 H   0  0  0  0  0  0  0  0  0  0  0  0
  148.5312  141.8210  153.3670 H   0  0  0  0  0  0  0  0  0  0  0  0
  147.7615  140.2419  153.4526 H   0  0  0  0  0  0  0  0  0  0  0  0
  149.4457  135.8219  153.5259 H   0  0  0  0  0  0  0  0  0  0  0  0
  148.5284  134.3793  155.7067 H   0  0  0  0  0  0  0  0  0  0  0  0
  150.4395  132.9078  156.2957 H   0  0  0  0  0  0  0  0  0  0  0  0
  150.7461  134.5853  156.7253 H   0  0  0  0  0  0  0  0  0  0  0  0
  151.5161  133.8907  155.3046 H   0  0  0  0  0  0  0  0  0  0  0  0
  149.5941  133.6696  153.0218 H   0  0  0  0  0  0  0  0  0  0  0  0
  150.5659  131.8767  154.4151 H   0  0  0  0  0  0  0  0  0  0  0  0
  149.3175  131.2566  153.3418 H   0  0  0  0  0  0  0  0  0  0  0  0
  148.9763  131.4776  155.0518 H   0  0  0  0  0  0  0  0  0  0  0  0
  147.5916  134.4320  151.6696 H   0  0  0  0  0  0  0  0  0  0  0  0
  144.5696  132.8539  153.9854 H   0  0  0  0  0  0  0  0  0  0  0  0
  1  2  1  0  0  0  0
  1 22  1  0  0  0  0
  1 23  1  0  0  0  0
  1 24  1  0  0  0  0
  2  3  1  0  0  0  0
  2 25  1  0  0  0  0
  2 26  1  0  0  0  0
  3  4  1  0  0  0  0
  3 10  1  0  0  0  0
  3 27  1  0  0  0  0
  4  5  1  0  0  0  0
  5  9  1  0  0  0  0
  5  6  1  0  0  0  0
  5 28  1  0  0  0  0
  6  7  1  0  0  0  0
  6 29  1  0  0  0  0
  6 30  1  0  0  0  0
  7  8  1  0  0  0  0
  7 31  1  0  0  0  0
  7 32  1  0  0  0  0
  8  9  1  0  0  0  0
  8 33  1  0  0  0  0
  8 34  1  0  0  0  0
  9 35  1  0  0  0  0
  9 36  1  0  0  0  0
 10 11  2  0  0  0  0
 10 12  1  0  0  0  0
 12 13  1  0  0  0  0
 12 37  1  0  0  0  0
 13 14  1  0  0  0  0
 13 15  1  0  0  0  0
 13 38  1  0  0  0  0
 14 39  1  0  0  0  0
 14 40  1  0  0  0  0
 14 41  1  0  0  0  0
 15 16  1  0  0  0  0
 15 17  1  0  0  0  0
 15 42  1  0  0  0  0
 16 43  1  0  0  0  0
 16 44  1  0  0  0  0
 16 45  1  0  0  0  0
 17 21  1  0  0  0  0
 17 18  1  0  0  0  0
 18 19  2  0  0  0  0
 18 46  1  0  0  0  0
 19 20  1  0  0  0  0
 20 21  2  0  0  0  0
 20 47  1  0  0  0  0
M  END
> <s_m_source_file>
AV-unprocessed.smi

> <i_m_source_file_index>
2902

> <i_lp_mmshare_version>
43012

> <i_f3d_flags>
0

> <s_epik_input>
W0NIMl0xW0NIMl1bQ0gyXVtDSDJdW0NIXTFPW0NAQEhdKFtDSDJdW0NIM10pQyg9TylbTkhdW0NASF0oW0NIM10pW0NASF0oW0NIM10pbjJbY0hdbltjSF1uMg==

> <s_epik_cmdline>
J2VwaWtfcHl0aG9uJywgJy1waCcsICc3LjAnLCAnLXRuJywgJzgnLCAnLW1hJywgJzIwMCcsICctbWV0YWxfYmluZGluZycsICctaW1hZScsICc8aW5maWxlLm1hZT4nLCAnLW9tYWUnLCAnPG91dGZpbGUubWFlPic=

> <r_lp_tautomer_probability>
1

> <r_epik_Ionization_Penalty>
6.95617e-05

> <r_epik_Ionization_Penalty_Charging>
0

> <r_epik_Ionization_Penalty_Neutral>
6.95617e-05

> <r_epik_State_Penalty>
-0

> <r_epik_Charging_Adjusted_Penalty>
0

> <i_epik_Tot_Q>
0

> <i_epik_Tot_abs_Q>
0

> <r_epik_Metal_State_Penalty>
-0

> <b_epik_Metal_Only>
0

> <s_lp_Force_Field>
OPLS_2005

> <r_lp_Energy>
29.711

> <b_lp_Chiralities_Consistent>
1

> <s_lp_Variant>
AV-unprocessed.smi:2902-5

> <Gold.Version>
5.8.1

> <Gold.Id.Protein>
6NUR|6NUR_protein|mol2

> <Gold.PLP.Fitness>
38.8444

> <Gold.PLP.PLP>
-33.4671

> <Gold.PLP.part.hbond>
-1.0000

> <Gold.PLP.part.metal>
0.0000

> <Gold.PLP.part.buried>
-1.3428

> <Gold.PLP.part.nonpolar>
-31.4540

> <Gold.PLP.part.repulsive>
0.2924

> <Gold.PLP.ligand.clash>
0.0000

> <Gold.PLP.ligand.torsion>
1.9362

> <Gold.PLP.Chemscore.Hbond>
1.0000

> <Gold.PLP.Chemscore.CHOScore>
1.9624

> <Gold.PLP.Chemscore.Metal>
0.0000

> <Gold.Chemscore.Hbonds>
donor molecule, donor type, donor heavy atom, donor atom, acceptor molecule, acceptor atom, score
      L1  H    12    37       P1  7948  1.00
      L1  C    18    46       P1  7948  0.94
      L1  C    20    47       P1 10957  1.00

> <Gold.PLP.Chemscore.Internal.Correction>
0.3625

> <Gold.Rescore>
     Score         DG    S(hbond)    S(metal)    S(lipo)     H(rot)  DE(clash)    DE(int)     intcor
      7.16     -10.54       0.92        0.00      75.86       2.69       0.40       2.98       ----

> <Gold.Chemscore.Fitness>
7.1570

> <Gold.Chemscore.DG>
-10.5359

> <Gold.Chemscore.ZeroCoef>
-5.4800

> <Gold.Chemscore.Hbond>
0.9207

> <Gold.Chemscore.Metal>
0.0000

> <Gold.Chemscore.Lipo>
75.8640

> <Gold.Chemscore.Internal_Hbond>
0.0000

> <Gold.Chemscore.DEClash>
0.3962

> <Gold.Chemscore.DEInternal>
2.9828

> <Gold.Chemscore.Rot>
2.6935

> <Gold.Chemscore.Internal.Correction>
   9.000000E+99

> <Gold.Chemscore.Hbonds>
donor molecule, donor type, donor heavy atom, donor atom, acceptor molecule, acceptor atom, score
      L1  H    12    37       P1  7948  0.40

> <Gold.Chemscore.Hbond.Weighted>
-3.0752

> <Gold.Chemscore.Metal.Weighted>
-0.0000

> <Gold.Chemscore.Lipo.Weighted>
-8.8761

> <Gold.Chemscore.Internal_Hbond.Weighted>
0.0000

> <Gold.Chemscore.DEClash.Weighted>
0.3962

> <Gold.Chemscore.DEInternal.Weighted>
2.9828

> <Gold.Chemscore.Rot.Weighted>
6.8954

> <Gold.Chemscore.Internal.Correction.Weighted>
   9.000000E+99

> <Gold.Protein.RotatedTorsions>
[ 6907 6896 6895 6894 ] final   -2.32 input  -60.11 | X-H torsion
[ 7974 7965 7964 7962 ] final  150.25 input  175.53 | X-H torsion
[ 8008 7997 7996 7995 ] final   80.06 input   59.86 | X-H torsion
[ 10167 10162 10161 10158 ] final   60.59 input  -65.29 | X-H torsion
[ 10718 10713 10712 10709 ] final  -23.20 input   66.30 | X-H torsion
[ 10763 10752 10751 10750 ] final   42.18 input  -60.55 | X-H torsion
[ 11005 11000 10999 10996 ] final -115.07 input  -57.11 | X-H torsion

> <Gold.Protein.ActiveResidues>
 VAL166  LYS551  ARG553  GLY616  TRP617  ASP618  TYR619  PRO620  LYS621  CYS622 
 ASP623  PHE694  ASN695  SER759  ASP760  ASP761  ALA762  ILE779  LEU786  VAL792 
 PHE793  MET794  SER795  GLU796  ALA797  LYS798  CYS799  TRP800  GLU811  SER814 

> <Gold.Protein.RotatedAtoms>
  151.5318  135.1068  159.9904 H   0  0  0  0  0  0  0  0  0  0  0  0  # atno 6907 bound_to 6896
  152.4575  133.7748  159.6829 H   0  0  0  0  0  0  0  0  0  0  0  0  # atno 6908 bound_to 6896
  150.8524  133.7702  159.3046 H   0  0  0  0  0  0  0  0  0  0  0  0  # atno 6909 bound_to 6896
  144.8378  139.6384  143.6030 H   0  0  0  0  0  0  0  0  0  0  0  0  # atno 7974 bound_to 7965
  155.8782  140.3445  155.5869 H   0  0  0  0  0  0  0  0  0  0  0  0  # atno 8008 bound_to 7997
  155.7750  140.0850  157.2108 H   0  0  0  0  0  0  0  0  0  0  0  0  # atno 8009 bound_to 7997
  154.4022  140.1511  156.2973 H   0  0  0  0  0  0  0  0  0  0  0  0  # atno 8010 bound_to 7997
  140.1639  144.4343  150.6695 H   0  0  0  0  0  0  0  0  0  0  0  0  # atno 10167 bound_to 10162
  156.4942  130.4573  149.6738 H   0  0  0  0  0  0  0  0  0  0  0  0  # atno 10718 bound_to 10713
  152.9889  135.6139  154.2907 H   0  0  0  0  0  0  0  0  0  0  0  0  # atno 10763 bound_to 10752
  154.2632  135.2781  155.2771 H   0  0  0  0  0  0  0  0  0  0  0  0  # atno 10764 bound_to 10752
  154.5187  135.5821  153.6720 H   0  0  0  0  0  0  0  0  0  0  0  0  # atno 10765 bound_to 10752
  141.0511  133.9685  157.2834 H   0  0  0  0  0  0  0  0  0  0  0  0  # atno 11005 bound_to 11000
  146.2675  139.6554  142.9319 LP  0  0  0  0  0  0  0  0  0  0  0  0  # atno 17320 bound_to 7965
  145.4758  141.0437  143.2673 LP  0  0  0  0  0  0  0  0  0  0  0  0  # atno 17321 bound_to 7965
  140.6625  143.2257  151.5821 LP  0  0  0  0  0  0  0  0  0  0  0  0  # atno 17342 bound_to 10162
  139.5368  144.2757  152.1269 LP  0  0  0  0  0  0  0  0  0  0  0  0  # atno 17343 bound_to 10162
  156.3396  130.7375  151.2318 LP  0  0  0  0  0  0  0  0  0  0  0  0  # atno 17370 bound_to 10713
  157.7470  131.0407  150.4612 LP  0  0  0  0  0  0  0  0  0  0  0  0  # atno 17371 bound_to 10713
  139.9351  135.0197  156.8530 LP  0  0  0  0  0  0  0  0  0  0  0  0  # atno 17394 bound_to 11000
  140.6053  134.0134  155.7554 LP  0  0  0  0  0  0  0  0  0  0  0  0  # atno 17395 bound_to 11000

$$$$
