AV-unprocessed.smi:2784|AV-procd|sdf|10743|dock9
  -GOLD-   2272015183D 1   1.00000     0.00000
 Structure written by MMmdl.
 30 31  0  0  0  0  0  0  0  0  2 V2000
  149.1718  144.5795  159.8341 C   0  0  0  0  0  0  0  0  0  0  0  0
  150.0936  143.5828  159.4246 O   0  0  0  0  0  0  0  0  0  0  0  0
  151.3829  144.0933  159.0966 C   0  0  1  0  0  0  0  0  0  0  0  0
  151.8917  144.9361  160.2709 C   0  0  0  0  0  0  0  0  0  0  0  0
  152.4480  143.9082  161.2523 C   0  0  0  0  0  0  0  0  0  0  0  0
  153.0811  142.8284  160.3704 C   0  0  0  0  0  0  0  0  0  0  0  0
  152.4034  142.9366  158.9900 C   0  0  1  0  0  0  0  0  0  0  0  0
  151.7960  141.6664  158.5953 N   0  0  0  0  0  0  0  0  0  0  0  0
  151.1001  141.4487  157.4701 C   0  0  0  0  0  0  0  0  0  0  0  0
  150.9323  142.3673  156.6644 O   0  0  0  0  0  0  0  0  0  0  0  0
  150.6387  140.1833  157.3509 N   0  5  0  0  0  0  0  0  0  0  0  0
  150.0623  139.7873  156.2047 C   0  0  0  0  0  0  0  0  0  0  0  0
  149.7427  138.5356  155.8713 N   0  0  0  0  0  0  0  0  0  0  0  0
  149.1683  138.6138  154.6121 C   0  0  0  0  0  0  0  0  0  0  0  0
  149.1586  139.9291  154.2360 C   0  0  0  0  0  0  0  0  0  0  0  0
  149.7168  140.6794  155.2335 O   0  0  0  0  0  0  0  0  0  0  0  0
  148.2184  144.1136  160.0822 H   0  0  0  0  0  0  0  0  0  0  0  0
  148.9930  145.2987  159.0337 H   0  0  0  0  0  0  0  0  0  0  0  0
  149.5227  145.1167  160.7151 H   0  0  0  0  0  0  0  0  0  0  0  0
  151.3499  144.6601  158.1642 H   0  0  0  0  0  0  0  0  0  0  0  0
  152.6986  145.5861  159.9301 H   0  0  0  0  0  0  0  0  0  0  0  0
  151.1260  145.5701  160.7176 H   0  0  0  0  0  0  0  0  0  0  0  0
  153.1567  144.3420  161.9580 H   0  0  0  0  0  0  0  0  0  0  0  0
  151.6287  143.4756  161.8283 H   0  0  0  0  0  0  0  0  0  0  0  0
  154.1508  143.0134  160.2663 H   0  0  0  0  0  0  0  0  0  0  0  0
  152.9711  141.8415  160.8224 H   0  0  0  0  0  0  0  0  0  0  0  0
  153.1707  143.2049  158.2613 H   0  0  0  0  0  0  0  0  0  0  0  0
  151.9040  140.8909  159.2320 H   0  0  0  0  0  0  0  0  0  0  0  0
  148.8143  137.7372  154.0903 H   0  0  0  0  0  0  0  0  0  0  0  0
  148.8166  140.4595  153.3601 H   0  0  0  0  0  0  0  0  0  0  0  0
  1  2  1  0  0  0  0
  1 17  1  0  0  0  0
  1 18  1  0  0  0  0
  1 19  1  0  0  0  0
  2  3  1  0  0  0  0
  3  7  1  0  0  0  0
  3  4  1  0  0  0  0
  3 20  1  0  0  0  0
  4  5  1  0  0  0  0
  4 21  1  0  0  0  0
  4 22  1  0  0  0  0
  5  6  1  0  0  0  0
  5 23  1  0  0  0  0
  5 24  1  0  0  0  0
  6  7  1  0  0  0  0
  6 25  1  0  0  0  0
  6 26  1  0  0  0  0
  7  8  1  0  0  0  0
  7 27  1  0  0  0  0
  8 28  1  0  0  0  0
  8  9  1  0  0  0  0
  9 11  1  0  0  0  0
  9 10  2  0  0  0  0
 11 12  1  0  0  0  0
 12 16  1  0  0  0  0
 12 13  2  0  0  0  0
 13 14  1  0  0  0  0
 14 29  1  0  0  0  0
 14 15  2  0  0  0  0
 15 30  1  0  0  0  0
 15 16  1  0  0  0  0
M  CHG  1  11  -1
M  END
> <s_m_source_file>
AV-unprocessed.smi

> <i_m_source_file_index>
2784

> <i_lp_mmshare_version>
43012

> <i_f3d_flags>
0

> <s_epik_input>
W0NIM11PW0NAQEhdMVtDSDJdW0NIMl1bQ0gyXVtDQEhdMVtOSF1DKD1PKVtOSF1jMm5bY0hdW2NIXW8y

> <s_epik_cmdline>
J2VwaWtfcHl0aG9uJywgJy1waCcsICc3LjAnLCAnLXRuJywgJzgnLCAnLW1hJywgJzIwMCcsICctbWV0YWxfYmluZGluZycsICctaW1hZScsICc8aW5maWxlLm1hZT4nLCAnLW9tYWUnLCAnPG91dGZpbGUubWFlPic=

> <r_lp_tautomer_probability>
0.107061

> <r_epik_Ionization_Penalty>
10.8857

> <r_epik_Ionization_Penalty_Charging>
7.67908

> <r_epik_Ionization_Penalty_Neutral>
3.20665

> <r_epik_State_Penalty>
5.80296

> <r_epik_Charging_Adjusted_Penalty>
13.482

> <i_epik_Tot_Q>
-1

> <i_epik_Tot_abs_Q>
1

> <r_epik_Metal_State_Penalty>
1.73217

> <b_epik_Metal_Only>
1

> <s_lp_Force_Field>
OPLS_2005

> <r_lp_Energy>
16.6072

> <b_lp_Chiralities_Consistent>
1

> <s_lp_Variant>
AV-unprocessed.smi:2784-18

> <Gold.Version>
5.8.1

> <Gold.Id.Protein>
6NUR|6NUR_protein|mol2

> <Gold.PLP.Fitness>
35.0532

> <Gold.PLP.PLP>
-29.2431

> <Gold.PLP.part.hbond>
-1.1486

> <Gold.PLP.part.metal>
0.0000

> <Gold.PLP.part.buried>
-1.7114

> <Gold.PLP.part.nonpolar>
-26.1863

> <Gold.PLP.part.repulsive>
0.3913

> <Gold.PLP.ligand.clash>
0.0000

> <Gold.PLP.ligand.torsion>
0.1012

> <Gold.PLP.Chemscore.Hbond>
0.0000

> <Gold.PLP.Chemscore.CHOScore>
1.9995

> <Gold.PLP.Chemscore.Metal>
0.0000

> <Gold.Chemscore.Hbonds>
donor molecule, donor type, donor heavy atom, donor atom, acceptor molecule, acceptor atom, score
      L1  C    14    29       P1  7948  0.63
      L1  C    15    30       P1  7957  0.89

> <Gold.PLP.Chemscore.Internal.Correction>
0.0140

> <Gold.Rescore>
     Score         DG    S(hbond)    S(metal)    S(lipo)     H(rot)  DE(clash)    DE(int)     intcor
      9.20     -10.99       0.00        0.00      75.75       1.31       0.01       1.78       ----

> <Gold.Chemscore.Fitness>
9.2025

> <Gold.Chemscore.DG>
-10.9882

> <Gold.Chemscore.ZeroCoef>
-5.4800

> <Gold.Chemscore.Hbond>
0.0000

> <Gold.Chemscore.Metal>
0.0000

> <Gold.Chemscore.Lipo>
75.7539

> <Gold.Chemscore.Internal_Hbond>
0.0000

> <Gold.Chemscore.DEClash>
0.0084

> <Gold.Chemscore.DEInternal>
1.7773

> <Gold.Chemscore.Rot>
1.3106

> <Gold.Chemscore.Internal.Correction>
   9.000000E+99

> <Gold.Chemscore.Hbond.Weighted>
-0.0000

> <Gold.Chemscore.Metal.Weighted>
-0.0000

> <Gold.Chemscore.Lipo.Weighted>
-8.8632

> <Gold.Chemscore.Internal_Hbond.Weighted>
0.0000

> <Gold.Chemscore.DEClash.Weighted>
0.0084

> <Gold.Chemscore.DEInternal.Weighted>
1.7773

> <Gold.Chemscore.Rot.Weighted>
3.3550

> <Gold.Chemscore.Internal.Correction.Weighted>
   9.000000E+99

> <Gold.Protein.RotatedTorsions>
[ 6907 6896 6895 6894 ] final   62.84 input  -60.11 | X-H torsion
[ 7974 7965 7964 7962 ] final  -36.96 input  175.53 | X-H torsion
[ 8008 7997 7996 7995 ] final  139.60 input   59.86 | X-H torsion
[ 10167 10162 10161 10158 ] final -175.45 input  -65.29 | X-H torsion
[ 10718 10713 10712 10709 ] final   71.87 input   66.30 | X-H torsion
[ 10763 10752 10751 10750 ] final  160.34 input  -60.55 | X-H torsion
[ 11005 11000 10999 10996 ] final  -93.61 input  -57.11 | X-H torsion

> <Gold.Protein.ActiveResidues>
 VAL166  LYS551  ARG553  GLY616  TRP617  ASP618  TYR619  PRO620  LYS621  CYS622 
 ASP623  PHE694  ASN695  SER759  ASP760  ASP761  ALA762  ILE779  LEU786  VAL792 
 PHE793  MET794  SER795  GLU796  ALA797  LYS798  CYS799  TRP800  GLU811  SER814 

> <Gold.Protein.RotatedAtoms>
  152.4205  134.5964  159.9987 H   0  0  0  0  0  0  0  0  0  0  0  0  # atno 6907 bound_to 6896
  151.6115  133.3341  159.3076 H   0  0  0  0  0  0  0  0  0  0  0  0  # atno 6908 bound_to 6896
  150.8093  134.7276  159.6739 H   0  0  0  0  0  0  0  0  0  0  0  0  # atno 6909 bound_to 6896
  146.0616  140.6340  142.8994 H   0  0  0  0  0  0  0  0  0  0  0  0  # atno 7974 bound_to 7965
  156.2988  140.2363  156.4264 H   0  0  0  0  0  0  0  0  0  0  0  0  # atno 8008 bound_to 7997
  154.8309  140.0433  157.1496 H   0  0  0  0  0  0  0  0  0  0  0  0  # atno 8009 bound_to 7997
  154.9209  140.3003  155.5220 H   0  0  0  0  0  0  0  0  0  0  0  0  # atno 8010 bound_to 7997
  139.5580  144.1940  152.1192 H   0  0  0  0  0  0  0  0  0  0  0  0  # atno 10167 bound_to 10162
  157.6473  130.9550  150.0849 H   0  0  0  0  0  0  0  0  0  0  0  0  # atno 10718 bound_to 10713
  154.2459  135.2773  155.2835 H   0  0  0  0  0  0  0  0  0  0  0  0  # atno 10763 bound_to 10752
  154.5506  135.5676  153.6922 H   0  0  0  0  0  0  0  0  0  0  0  0  # atno 10764 bound_to 10752
  152.9990  135.6273  154.2605 H   0  0  0  0  0  0  0  0  0  0  0  0  # atno 10765 bound_to 10752
  141.1493  133.7899  157.0183 H   0  0  0  0  0  0  0  0  0  0  0  0  # atno 11005 bound_to 11000
  144.7178  140.4270  143.7031 LP  0  0  0  0  0  0  0  0  0  0  0  0  # atno 17320 bound_to 7965
  145.6550  139.1571  143.2840 LP  0  0  0  0  0  0  0  0  0  0  0  0  # atno 17321 bound_to 7965
  140.1448  144.5169  150.6722 LP  0  0  0  0  0  0  0  0  0  0  0  0  # atno 17342 bound_to 10162
  140.6856  143.2348  151.5269 LP  0  0  0  0  0  0  0  0  0  0  0  0  # atno 17343 bound_to 10162
  156.1815  130.3650  149.9029 LP  0  0  0  0  0  0  0  0  0  0  0  0  # atno 17370 bound_to 10713
  156.6980  130.8922  151.3596 LP  0  0  0  0  0  0  0  0  0  0  0  0  # atno 17371 bound_to 10713
  140.0832  134.9636  157.1659 LP  0  0  0  0  0  0  0  0  0  0  0  0  # atno 17394 bound_to 11000
  140.3547  134.2560  155.7194 LP  0  0  0  0  0  0  0  0  0  0  0  0  # atno 17395 bound_to 11000

$$$$
