AV-unprocessed.smi:107|AV-procd|sdf|1013|dock5
  -GOLD-   2262018 13D 1   1.00000     0.00000
 Structure written by MMmdl.
 31 32  0  0  0  0  0  0  0  0  1 V2000
  151.7745  144.6969  158.2317 C   0  0  0  0  0  0  0  0  0  0  0  0
  151.5712  143.1932  158.3150 C   0  0  0  0  0  0  0  0  0  0  0  0
  150.8375  142.5066  157.4022 C   0  0  0  0  0  0  0  0  0  0  0  0
  150.6341  141.1346  157.4499 N   0  0  0  0  0  0  0  0  0  0  0  0
  149.8022  140.4319  156.4008 C   0  0  2  0  0  0  0  0  0  0  0  0
  150.3907  140.6459  155.0022 C   0  0  0  0  0  0  0  0  0  0  0  0
  149.1470  140.8369  154.1568 C   0  0  1  0  0  0  0  0  0  0  0  0
  148.6539  139.5889  153.7064 O   0  0  0  0  0  0  0  0  0  0  0  0
  148.1898  141.5229  155.1422 C   0  0  1  0  0  0  0  0  0  0  0  0
  146.6842  141.4025  154.8495 C   0  0  0  0  0  0  0  0  0  0  0  0
  146.4607  141.3124  153.4584 O   0  0  0  0  0  0  0  0  0  0  0  0
  148.5092  140.9642  156.4146 O   0  0  0  0  0  0  0  0  0  0  0  0
  151.2301  140.3840  158.4850 C   0  0  0  0  0  0  0  0  0  0  0  0
  151.1202  139.1622  158.5790 O   0  0  0  0  0  0  0  0  0  0  0  0
  151.9805  141.0886  159.4249 N   0  0  0  0  0  0  0  0  0  0  0  0
  152.1991  142.4685  159.4230 C   0  0  0  0  0  0  0  0  0  0  0  0
  152.8805  142.9769  160.3117 O   0  0  0  0  0  0  0  0  0  0  0  0
  152.4060  140.5556  160.1695 H   0  0  0  0  0  0  0  0  0  0  0  0
  151.2617  145.1272  157.3710 H   0  0  0  0  0  0  0  0  0  0  0  0
  152.8353  144.9332  158.1415 H   0  0  0  0  0  0  0  0  0  0  0  0
  151.3894  145.1842  159.1282 H   0  0  0  0  0  0  0  0  0  0  0  0
  150.3922  143.0629  156.5915 H   0  0  0  0  0  0  0  0  0  0  0  0
  149.7222  139.3798  156.6775 H   0  0  0  0  0  0  0  0  0  0  0  0
  150.9901  141.5575  154.9908 H   0  0  0  0  0  0  0  0  0  0  0  0
  151.0205  139.8081  154.7007 H   0  0  0  0  0  0  0  0  0  0  0  0
  149.3430  141.4618  153.2851 H   0  0  0  0  0  0  0  0  0  0  0  0
  148.8753  139.4921  152.7924 H   0  0  0  0  0  0  0  0  0  0  0  0
  148.4533  142.5805  155.1902 H   0  0  0  0  0  0  0  0  0  0  0  0
  146.2446  140.5402  155.3511 H   0  0  0  0  0  0  0  0  0  0  0  0
  146.1631  142.2847  155.2222 H   0  0  0  0  0  0  0  0  0  0  0  0
  145.5741  141.0177  153.3152 H   0  0  0  0  0  0  0  0  0  0  0  0
  1  2  1  0  0  0  0
  1 19  1  0  0  0  0
  1 20  1  0  0  0  0
  1 21  1  0  0  0  0
  2 16  1  0  0  0  0
  2  3  2  0  0  0  0
  3  4  1  0  0  0  0
  3 22  1  0  0  0  0
  4  5  1  0  0  0  0
  4 13  1  0  0  0  0
  5 12  1  0  0  0  0
  5  6  1  0  0  0  0
  5 23  1  0  0  0  0
  6  7  1  0  0  0  0
  6 24  1  0  0  0  0
  6 25  1  0  0  0  0
  7  8  1  0  0  0  0
  7  9  1  0  0  0  0
  7 26  1  0  0  0  0
  8 27  1  0  0  0  0
  9 10  1  0  0  0  0
  9 12  1  0  0  0  0
  9 28  1  0  0  0  0
 10 11  1  0  0  0  0
 10 29  1  0  0  0  0
 10 30  1  0  0  0  0
 11 31  1  0  0  0  0
 13 14  2  0  0  0  0
 13 15  1  0  0  0  0
 15 18  1  0  0  0  0
 15 16  1  0  0  0  0
 16 17  2  0  0  0  0
M  END
> <s_m_source_file>
AV-unprocessed.smi

> <i_m_source_file_index>
107

> <i_lp_mmshare_version>
43012

> <i_f3d_flags>
0

> <s_epik_input>
Tz1jMVtuSF1jKD1PKW4oW2NIXWMxW0NIM10pW0NAQEhdMltDSDJdW0NAQEhdKFtPSF0pW0NASF0oTzIpW0NIMl1bT0hd

> <s_epik_cmdline>
J2VwaWtfcHl0aG9uJywgJy1waCcsICc3LjAnLCAnLXRuJywgJzgnLCAnLW1hJywgJzIwMCcsICctbWV0YWxfYmluZGluZycsICctaW1hZScsICc8aW5maWxlLm1hZT4nLCAnLW9tYWUnLCAnPG91dGZpbGUubWFlPic=

> <r_lp_tautomer_probability>
0.999537

> <r_epik_Ionization_Penalty>
0.00121888

> <r_epik_Ionization_Penalty_Charging>
0.00121876

> <r_epik_Ionization_Penalty_Neutral>
1.19946e-07

> <r_epik_State_Penalty>
0.000805124

> <r_epik_Charging_Adjusted_Penalty>
0.00202389

> <i_epik_Tot_Q>
0

> <i_epik_Tot_abs_Q>
0

> <r_epik_Metal_State_Penalty>
0.662472

> <b_epik_Metal_Only>
0

> <s_epik_Chemistry_Notes>
This compound contains an acetal/aminal-like group ( X-CH(R)-Y where X, Y are N, S, or O) that may be acid/base labile, releasing an aldehyde.

> <s_lp_Force_Field>
OPLS_2005

> <r_lp_Energy>
27.6975

> <b_lp_Chiralities_Consistent>
1

> <s_lp_Variant>
AV-unprocessed.smi:107-1

> <Gold.Version>
5.8.1

> <Gold.Id.Protein>
6NUR|6NUR_protein|mol2

> <Gold.PLP.Fitness>
37.0071

> <Gold.PLP.PLP>
-29.6529

> <Gold.PLP.part.hbond>
-1.8870

> <Gold.PLP.part.metal>
0.0000

> <Gold.PLP.part.buried>
-2.0507

> <Gold.PLP.part.nonpolar>
-25.5314

> <Gold.PLP.part.repulsive>
0.2017

> <Gold.PLP.ligand.clash>
0.0000

> <Gold.PLP.ligand.torsion>
0.3601

> <Gold.PLP.Chemscore.Hbond>
1.6908

> <Gold.PLP.Chemscore.CHOScore>
1.0000

> <Gold.PLP.Chemscore.Metal>
0.0000

> <Gold.Chemscore.Hbonds>
donor molecule, donor type, donor heavy atom, donor atom, acceptor molecule, acceptor atom, score
      L1  H     8    27       P1  7957  1.00
      L1  H    11    31       P1 10175  0.76
      L1  C     3    22       P1  8028  1.00

> <Gold.PLP.Chemscore.Internal.Correction>
0.0021

> <Gold.Rescore>
     Score         DG    S(hbond)    S(metal)    S(lipo)     H(rot)  DE(clash)    DE(int)     intcor
      9.12     -11.06       1.79        0.00      56.24       2.73       1.23       0.71       ----

> <Gold.Chemscore.Fitness>
9.1218

> <Gold.Chemscore.DG>
-11.0631

> <Gold.Chemscore.ZeroCoef>
-5.4800

> <Gold.Chemscore.Hbond>
1.7903

> <Gold.Chemscore.Metal>
0.0000

> <Gold.Chemscore.Lipo>
56.2417

> <Gold.Chemscore.Internal_Hbond>
0.0000

> <Gold.Chemscore.DEClash>
1.2309

> <Gold.Chemscore.DEInternal>
0.7103

> <Gold.Chemscore.Rot>
2.7253

> <Gold.Chemscore.Internal.Correction>
   9.000000E+99

> <Gold.Chemscore.Hbonds>
donor molecule, donor type, donor heavy atom, donor atom, acceptor molecule, acceptor atom, score
      L1  H     8    27       P1  7957  0.98
      L1  H    11    31       P1 10175  0.37

> <Gold.Chemscore.Hbond.Weighted>
-5.9796

> <Gold.Chemscore.Metal.Weighted>
-0.0000

> <Gold.Chemscore.Lipo.Weighted>
-6.5803

> <Gold.Chemscore.Internal_Hbond.Weighted>
0.0000

> <Gold.Chemscore.DEClash.Weighted>
1.2309

> <Gold.Chemscore.DEInternal.Weighted>
0.7103

> <Gold.Chemscore.Rot.Weighted>
6.9769

> <Gold.Chemscore.Internal.Correction.Weighted>
   9.000000E+99

> <Gold.Protein.RotatedTorsions>
[ 6907 6896 6895 6894 ] final  -12.07 input  -60.11 | X-H torsion
[ 7974 7965 7964 7962 ] final  141.75 input  175.53 | X-H torsion
[ 8008 7997 7996 7995 ] final -160.92 input   59.86 | X-H torsion
[ 10167 10162 10161 10158 ] final   88.03 input  -65.29 | X-H torsion
[ 10718 10713 10712 10709 ] final  -21.69 input   66.30 | X-H torsion
[ 10763 10752 10751 10750 ] final  162.76 input  -60.55 | X-H torsion
[ 11005 11000 10999 10996 ] final   19.10 input  -57.11 | X-H torsion

> <Gold.Protein.ActiveResidues>
 VAL166  LYS551  ARG553  GLY616  TRP617  ASP618  TYR619  PRO620  LYS621  CYS622 
 ASP623  PHE694  ASN695  SER759  ASP760  ASP761  ALA762  ILE779  LEU786  VAL792 
 PHE793  MET794  SER795  GLU796  ALA797  LYS798  CYS799  TRP800  GLU811  SER814 

> <Gold.Protein.RotatedAtoms>
  151.3763  135.0931  159.9481 H   0  0  0  0  0  0  0  0  0  0  0  0  # atno 6907 bound_to 6896
  152.5121  133.9116  159.7501 H   0  0  0  0  0  0  0  0  0  0  0  0  # atno 6908 bound_to 6896
  150.9540  133.6463  159.2795 H   0  0  0  0  0  0  0  0  0  0  0  0  # atno 6909 bound_to 6896
  144.9068  139.5347  143.5727 H   0  0  0  0  0  0  0  0  0  0  0  0  # atno 7974 bound_to 7965
  155.7846  140.0870  157.2041 H   0  0  0  0  0  0  0  0  0  0  0  0  # atno 8008 bound_to 7997
  154.3988  140.1501  156.3150 H   0  0  0  0  0  0  0  0  0  0  0  0  # atno 8009 bound_to 7997
  155.8619  140.3430  155.5765 H   0  0  0  0  0  0  0  0  0  0  0  0  # atno 8010 bound_to 7997
  139.8713  144.6491  150.8946 H   0  0  0  0  0  0  0  0  0  0  0  0  # atno 10167 bound_to 10162
  156.5148  130.4618  149.6629 H   0  0  0  0  0  0  0  0  0  0  0  0  # atno 10718 bound_to 10713
  154.2834  135.2762  155.2687 H   0  0  0  0  0  0  0  0  0  0  0  0  # atno 10763 bound_to 10752
  154.5198  135.5759  153.6675 H   0  0  0  0  0  0  0  0  0  0  0  0  # atno 10764 bound_to 10752
  152.9925  135.6201  154.2994 H   0  0  0  0  0  0  0  0  0  0  0  0  # atno 10765 bound_to 10752
  140.4174  134.1554  155.7670 H   0  0  0  0  0  0  0  0  0  0  0  0  # atno 11005 bound_to 11000
  146.3138  139.7843  142.8999 LP  0  0  0  0  0  0  0  0  0  0  0  0  # atno 17320 bound_to 7965
  145.3522  141.0309  143.3332 LP  0  0  0  0  0  0  0  0  0  0  0  0  # atno 17321 bound_to 7965
  140.7760  143.3661  151.1736 LP  0  0  0  0  0  0  0  0  0  0  0  0  # atno 17342 bound_to 10162
  139.7281  143.9116  152.3010 LP  0  0  0  0  0  0  0  0  0  0  0  0  # atno 17343 bound_to 10162
  156.3206  130.7278  151.2189 LP  0  0  0  0  0  0  0  0  0  0  0  0  # atno 17370 bound_to 10713
  157.7445  131.0457  150.4854 LP  0  0  0  0  0  0  0  0  0  0  0  0  # atno 17371 bound_to 10713
  141.1797  133.8439  157.1299 LP  0  0  0  0  0  0  0  0  0  0  0  0  # atno 17394 bound_to 11000
  140.0224  134.9939  157.0619 LP  0  0  0  0  0  0  0  0  0  0  0  0  # atno 17395 bound_to 11000

$$$$
