AV-unprocessed.smi:769|AV-procd|sdf|3676|dock4
  -GOLD-   22720 1 83D 1   1.00000     0.00000
 Structure written by MMmdl.
 50 52  0  0  0  0  0  0  0  0  2 V2000
  146.9046  138.6891  155.1647 O   0  0  0  0  0  0  0  0  0  0  0  0
  146.1681  139.1130  154.2743 C   0  0  0  0  0  0  0  0  0  0  0  0
  146.2554  140.3534  153.7728 N   0  0  0  0  0  0  0  0  0  0  0  0
  147.2256  141.3571  154.1934 C   0  0  0  0  0  0  0  0  0  0  0  0
  148.6613  140.7968  154.1599 C   0  0  0  0  0  0  0  0  0  0  0  0
  149.0519  140.1902  155.4315 N   0  0  0  0  0  0  0  0  0  0  0  0
  149.0461  141.1781  156.5188 C   0  0  0  0  0  0  0  0  0  0  0  0
  149.4940  140.5196  157.8377 C   0  0  0  0  0  0  0  0  0  0  0  0
  150.8452  139.9808  157.6589 N   0  0  0  0  0  0  0  0  0  0  0  0
  151.9699  140.4146  158.2776 C   0  0  0  0  0  0  0  0  0  0  0  0
  153.0720  139.9104  158.0569 O   0  0  0  0  0  0  0  0  0  0  0  0
  151.8719  141.6087  159.2480 C   0  0  0  0  0  0  0  0  0  0  0  0
  151.6463  142.9928  158.6049 C   0  0  0  0  0  0  0  0  0  0  0  0
  152.6906  143.5592  159.5709 C   0  0  0  0  0  0  0  0  0  0  0  0
  153.2330  142.1366  159.7338 C   0  0  0  0  0  0  0  0  0  0  0  0
  150.8454  138.9588  156.6090 C   0  0  0  0  0  0  0  0  0  0  0  0
  150.3925  139.6114  155.2880 C   0  0  0  0  0  0  0  0  0  0  0  0
  145.1727  138.4213  153.6923 N   0  0  0  0  0  0  0  0  0  0  0  0
  144.7579  137.0830  153.9350 C   0  0  0  0  0  0  0  0  0  0  0  0
  143.7019  136.5756  153.1454 C   0  0  0  0  0  0  0  0  0  0  0  0
  143.2629  135.2498  153.3378 C   0  0  0  0  0  0  0  0  0  0  0  0
  143.8585  134.4726  154.2673 N   0  3  0  0  0  0  0  0  0  0  0  0
  144.8795  134.9073  155.0363 C   0  0  0  0  0  0  0  0  0  0  0  0
  145.3620  136.2239  154.8889 C   0  0  0  0  0  0  0  0  0  0  0  0
  145.6089  140.6239  153.0459 H   0  0  0  0  0  0  0  0  0  0  0  0
  147.1195  142.2379  153.5598 H   0  0  0  0  0  0  0  0  0  0  0  0
  146.9714  141.6686  155.2068 H   0  0  0  0  0  0  0  0  0  0  0  0
  148.7067  140.0348  153.3802 H   0  0  0  0  0  0  0  0  0  0  0  0
  149.3771  141.5716  153.8802 H   0  0  0  0  0  0  0  0  0  0  0  0
  149.7029  142.0141  156.2725 H   0  0  0  0  0  0  0  0  0  0  0  0
  148.0455  141.5852  156.6560 H   0  0  0  0  0  0  0  0  0  0  0  0
  149.4123  141.2357  158.6529 H   0  0  0  0  0  0  0  0  0  0  0  0
  148.8157  139.7062  158.1003 H   0  0  0  0  0  0  0  0  0  0  0  0
  151.1629  141.4460  160.0617 H   0  0  0  0  0  0  0  0  0  0  0  0
  151.9632  143.0791  157.5645 H   0  0  0  0  0  0  0  0  0  0  0  0
  150.6448  143.3985  158.7492 H   0  0  0  0  0  0  0  0  0  0  0  0
  153.3900  144.2663  159.1241 H   0  0  0  0  0  0  0  0  0  0  0  0
  152.2484  143.9501  160.4886 H   0  0  0  0  0  0  0  0  0  0  0  0
  153.4819  141.8722  160.7620 H   0  0  0  0  0  0  0  0  0  0  0  0
  154.0582  141.9165  159.0537 H   0  0  0  0  0  0  0  0  0  0  0  0
  151.8234  138.4969  156.4690 H   0  0  0  0  0  0  0  0  0  0  0  0
  150.1687  138.1489  156.8860 H   0  0  0  0  0  0  0  0  0  0  0  0
  150.3842  138.8602  154.4974 H   0  0  0  0  0  0  0  0  0  0  0  0
  151.1034  140.3838  154.9895 H   0  0  0  0  0  0  0  0  0  0  0  0
  144.6099  138.9347  153.0299 H   0  0  0  0  0  0  0  0  0  0  0  0
  143.2251  137.1965  152.4006 H   0  0  0  0  0  0  0  0  0  0  0  0
  142.4599  134.7908  152.7794 H   0  0  0  0  0  0  0  0  0  0  0  0
  145.2825  134.1916  155.7383 H   0  0  0  0  0  0  0  0  0  0  0  0
  146.1916  136.5410  155.5018 H   0  0  0  0  0  0  0  0  0  0  0  0
  143.5268  133.5154  154.3906 H   0  0  0  0  0  0  0  0  0  0  0  0
  1  2  2  0  0  0  0
  2  3  1  0  0  0  0
  2 18  1  0  0  0  0
  3  4  1  0  0  0  0
  3 25  1  0  0  0  0
  4  5  1  0  0  0  0
  4 26  1  0  0  0  0
  4 27  1  0  0  0  0
  5  6  1  0  0  0  0
  5 28  1  0  0  0  0
  5 29  1  0  0  0  0
  6 17  1  0  0  0  0
  6  7  1  0  0  0  0
  7  8  1  0  0  0  0
  7 30  1  0  0  0  0
  7 31  1  0  0  0  0
  8  9  1  0  0  0  0
  8 32  1  0  0  0  0
  8 33  1  0  0  0  0
  9 10  1  0  0  0  0
  9 16  1  0  0  0  0
 10 11  2  0  0  0  0
 10 12  1  0  0  0  0
 12 15  1  0  0  0  0
 12 13  1  0  0  0  0
 12 34  1  0  0  0  0
 13 14  1  0  0  0  0
 13 35  1  0  0  0  0
 13 36  1  0  0  0  0
 14 15  1  0  0  0  0
 14 37  1  0  0  0  0
 14 38  1  0  0  0  0
 15 39  1  0  0  0  0
 15 40  1  0  0  0  0
 16 17  1  0  0  0  0
 16 41  1  0  0  0  0
 16 42  1  0  0  0  0
 17 43  1  0  0  0  0
 17 44  1  0  0  0  0
 18 19  1  0  0  0  0
 18 45  1  0  0  0  0
 19 24  1  0  0  0  0
 19 20  2  0  0  0  0
 20 21  1  0  0  0  0
 20 46  1  0  0  0  0
 21 22  2  0  0  0  0
 21 47  1  0  0  0  0
 22 23  1  0  0  0  0
 22 50  1  0  0  0  0
 23 24  2  0  0  0  0
 23 48  1  0  0  0  0
 24 49  1  0  0  0  0
M  CHG  1  22   1
M  END
> <s_m_source_file>
AV-unprocessed.smi

> <i_m_source_file_index>
769

> <i_lp_mmshare_version>
43012

> <i_f3d_flags>
0

> <s_epik_input>
W2NIXTFbY0hdbltjSF1bY0hdYzFbTkhdQyg9TylbTkhdW0NIMl1bQ0gyXU4yW0NIMl1bQ0gyXU4oW0NIMl1bQ0gyXTIpQyg9TylbQ0hdM1tDSDJdW0NIMl1bQ0gyXTM=

> <s_epik_cmdline>
J2VwaWtfcHl0aG9uJywgJy1waCcsICc3LjAnLCAnLXRuJywgJzgnLCAnLW1hJywgJzIwMCcsICctbWV0YWxfYmluZGluZycsICctaW1hZScsICc8aW5maWxlLm1hZT4nLCAnLW9tYWUnLCAnPG91dGZpbGUubWFlPic=

> <r_epik_Ionization_Penalty>
1.23972

> <r_epik_Ionization_Penalty_Charging>
0.991409

> <r_epik_Ionization_Penalty_Neutral>
0.248308

> <r_epik_State_Penalty>
1.32283

> <r_epik_Charging_Adjusted_Penalty>
2.31424

> <i_epik_Tot_Q>
1

> <i_epik_Tot_abs_Q>
1

> <r_epik_Metal_State_Penalty>
1.42026

> <b_epik_Metal_Only>
0

> <s_lp_Force_Field>
OPLS_2005

> <r_lp_Energy>
53.8523

> <b_lp_Chiralities_Consistent>
1

> <s_lp_Variant>
AV-unprocessed.smi:769-3

> <Gold.Version>
5.8.1

> <Gold.Id.Protein>
6NUR|6NUR_protein|mol2

> <Gold.PLP.Fitness>
48.8828

> <Gold.PLP.PLP>
-34.6756

> <Gold.PLP.part.hbond>
-3.9896

> <Gold.PLP.part.metal>
0.0000

> <Gold.PLP.part.buried>
-5.2974

> <Gold.PLP.part.nonpolar>
-26.4192

> <Gold.PLP.part.repulsive>
0.1001

> <Gold.PLP.ligand.clash>
0.0000

> <Gold.PLP.ligand.torsion>
0.4474

> <Gold.PLP.Chemscore.Hbond>
4.8800

> <Gold.PLP.Chemscore.CHOScore>
0.0000

> <Gold.PLP.Chemscore.Metal>
0.0000

> <Gold.Chemscore.Hbonds>
donor molecule, donor type, donor heavy atom, donor atom, acceptor molecule, acceptor atom, score
      L1  H     3    25       P1 10175  0.88
      L1  H    18    45       P1 10175  1.00
      L1  H    22    50       P1 10957  2.00
      P1  H  7997  8009       L1    11  1.00

> <Gold.PLP.Chemscore.Internal.Correction>
0.4620

> <Gold.Rescore>
     Score         DG    S(hbond)    S(metal)    S(lipo)     H(rot)  DE(clash)    DE(int)     intcor
     19.13     -23.56       3.80        0.00      83.75       1.72       0.00       4.43       ----

> <Gold.Chemscore.Fitness>
19.1277

> <Gold.Chemscore.DG>
-23.5610

> <Gold.Chemscore.ZeroCoef>
-5.4800

> <Gold.Chemscore.Hbond>
3.8006

> <Gold.Chemscore.Metal>
0.0000

> <Gold.Chemscore.Lipo>
83.7486

> <Gold.Chemscore.Internal_Hbond>
0.0000

> <Gold.Chemscore.DEClash>
0.0009

> <Gold.Chemscore.DEInternal>
4.4324

> <Gold.Chemscore.Rot>
1.7233

> <Gold.Chemscore.Internal.Correction>
   9.000000E+99

> <Gold.Chemscore.Hbonds>
donor molecule, donor type, donor heavy atom, donor atom, acceptor molecule, acceptor atom, score
      L1  H     3    25       P1 10175  0.65
      L1  H    18    45       P1 10175  0.97
      L1  H    22    50       P1 10957  0.97
      P1  H  7997  8009       L1    11  0.95

> <Gold.Chemscore.Hbond.Weighted>
-12.6941

> <Gold.Chemscore.Metal.Weighted>
-0.0000

> <Gold.Chemscore.Lipo.Weighted>
-9.7986

> <Gold.Chemscore.Internal_Hbond.Weighted>
0.0000

> <Gold.Chemscore.DEClash.Weighted>
0.0009

> <Gold.Chemscore.DEInternal.Weighted>
4.4324

> <Gold.Chemscore.Rot.Weighted>
4.4116

> <Gold.Chemscore.Internal.Correction.Weighted>
   9.000000E+99

> <Gold.Protein.RotatedTorsions>
[ 6907 6896 6895 6894 ] final -123.65 input  -60.11 | X-H torsion
[ 7974 7965 7964 7962 ] final   76.35 input  175.53 | X-H torsion
[ 8008 7997 7996 7995 ] final  171.70 input   59.86 | X-H torsion
[ 10167 10162 10161 10158 ] final  118.06 input  -65.29 | X-H torsion
[ 10718 10713 10712 10709 ] final   73.85 input   66.30 | X-H torsion
[ 10763 10752 10751 10750 ] final -176.82 input  -60.55 | X-H torsion
[ 11005 11000 10999 10996 ] final   15.04 input  -57.11 | X-H torsion

> <Gold.Protein.ActiveResidues>
 VAL166  LYS551  ARG553  GLY616  TRP617  ASP618  TYR619  PRO620  LYS621  CYS622 
 ASP623  PHE694  ASN695  SER759  ASP760  ASP761  ALA762  ILE779  LEU786  VAL792 
 PHE793  MET794  SER795  GLU796  ALA797  LYS798  CYS799  TRP800  GLU811  SER814 

> <Gold.Protein.RotatedAtoms>
  150.8691  133.7531  159.2966 H   0  0  0  0  0  0  0  0  0  0  0  0  # atno 6907 bound_to 6896
  151.5148  135.1064  159.9873 H   0  0  0  0  0  0  0  0  0  0  0  0  # atno 6908 bound_to 6896
  152.4682  133.7926  159.6966 H   0  0  0  0  0  0  0  0  0  0  0  0  # atno 6909 bound_to 6896
  145.7040  139.2592  143.1689 H   0  0  0  0  0  0  0  0  0  0  0  0  # atno 7974 bound_to 7965
  156.1246  140.1505  156.9155 H   0  0  0  0  0  0  0  0  0  0  0  0  # atno 8008 bound_to 7997
  154.4862  140.0864  156.7532 H   0  0  0  0  0  0  0  0  0  0  0  0  # atno 8009 bound_to 7997
  155.4366  140.3429  155.4288 H   0  0  0  0  0  0  0  0  0  0  0  0  # atno 8010 bound_to 7997
  139.6137  144.7087  151.2787 H   0  0  0  0  0  0  0  0  0  0  0  0  # atno 10167 bound_to 10162
  157.6566  130.9649  150.1128 H   0  0  0  0  0  0  0  0  0  0  0  0  # atno 10718 bound_to 10713
  154.5677  135.2825  155.0857 H   0  0  0  0  0  0  0  0  0  0  0  0  # atno 10763 bound_to 10752
  154.2242  135.6386  153.5158 H   0  0  0  0  0  0  0  0  0  0  0  0  # atno 10764 bound_to 10752
  153.0048  135.5521  154.6291 H   0  0  0  0  0  0  0  0  0  0  0  0  # atno 10765 bound_to 10752
  140.4627  134.1111  155.7719 H   0  0  0  0  0  0  0  0  0  0  0  0  # atno 11005 bound_to 11000
  146.0772  140.7804  142.9659 LP  0  0  0  0  0  0  0  0  0  0  0  0  # atno 17320 bound_to 7965
  144.6960  140.3433  143.7195 LP  0  0  0  0  0  0  0  0  0  0  0  0  # atno 17321 bound_to 7965
  140.7336  143.6789  150.8018 LP  0  0  0  0  0  0  0  0  0  0  0  0  # atno 17342 bound_to 10162
  140.0388  143.5367  152.2727 LP  0  0  0  0  0  0  0  0  0  0  0  0  # atno 17343 bound_to 10162
  156.2020  130.3661  149.8776 LP  0  0  0  0  0  0  0  0  0  0  0  0  # atno 17370 bound_to 10713
  156.6678  130.8808  151.3557 LP  0  0  0  0  0  0  0  0  0  0  0  0  # atno 17371 bound_to 10713
  141.1614  133.8786  157.1838 LP  0  0  0  0  0  0  0  0  0  0  0  0  # atno 17394 bound_to 11000
  139.9935  135.0055  157.0029 LP  0  0  0  0  0  0  0  0  0  0  0  0  # atno 17395 bound_to 11000

$$$$
