AV-unprocessed.smi:3274|AV-procd|sdf|12528|dock7
  -GOLD-   2272018443D 1   1.00000     0.00000
 Structure written by MMmdl.
 43 44  0  0  0  0  0  0  0  0  2 V2000
  153.0328  140.7889  159.8149 C   0  0  0  0  0  0  0  0  0  0  0  0
  152.5177  142.2000  160.0407 C   0  0  0  0  0  0  0  0  0  0  0  0
  152.5884  142.7487  161.2686 C   0  0  0  0  0  0  0  0  0  0  0  0
  152.1730  144.1646  161.5950 C   0  0  0  0  0  0  0  0  0  0  0  0
  152.1410  145.0327  160.3349 C   0  0  0  0  0  0  0  0  0  0  0  0
  151.3531  144.3521  159.2037 C   0  0  1  0  0  0  0  0  0  0  0  0
  151.2670  145.3058  157.9957 C   0  0  0  0  0  0  0  0  0  0  0  0
  151.9458  142.9592  158.8256 C   0  0  2  0  0  0  0  0  0  0  0  0
  150.8988  142.1258  158.0403 C   0  0  0  0  0  0  0  0  0  0  0  0
  150.7269  142.5914  156.6464 N   0  3  0  0  0  0  0  0  0  0  0  0
  150.3056  141.5556  155.6741 C   0  0  1  0  0  0  0  0  0  0  0  0
  151.3204  140.4013  155.6135 C   0  0  0  0  0  0  0  0  0  0  0  0
  148.9029  141.0275  156.0321 C   0  0  0  0  0  0  0  0  0  0  0  0
  147.8738  141.5525  155.1529 N   0  0  0  0  0  0  0  0  0  0  0  0
  147.6997  141.4109  153.8378 C   0  0  0  0  0  0  0  0  0  0  0  0
  146.6392  142.0519  153.3673 N   0  0  0  0  0  0  0  0  0  0  0  0
  146.1670  142.5972  154.5276 C   0  0  0  0  0  0  0  0  0  0  0  0
  146.8744  142.3327  155.6265 N   0  0  0  0  0  0  0  0  0  0  0  0
  153.7300  140.7675  158.9773 H   0  0  0  0  0  0  0  0  0  0  0  0
  152.2113  140.1021  159.6129 H   0  0  0  0  0  0  0  0  0  0  0  0
  153.5608  140.4129  160.6919 H   0  0  0  0  0  0  0  0  0  0  0  0
  152.9752  142.1708  162.0958 H   0  0  0  0  0  0  0  0  0  0  0  0
  151.1945  144.1400  162.0756 H   0  0  0  0  0  0  0  0  0  0  0  0
  152.8744  144.5864  162.3156 H   0  0  0  0  0  0  0  0  0  0  0  0
  151.7044  146.0027  160.5762 H   0  0  0  0  0  0  0  0  0  0  0  0
  153.1614  145.2285  160.0019 H   0  0  0  0  0  0  0  0  0  0  0  0
  150.3387  144.1973  159.5757 H   0  0  0  0  0  0  0  0  0  0  0  0
  152.2520  145.4869  157.5643 H   0  0  0  0  0  0  0  0  0  0  0  0
  150.8577  146.2723  158.2916 H   0  0  0  0  0  0  0  0  0  0  0  0
  150.6251  144.9221  157.2043 H   0  0  0  0  0  0  0  0  0  0  0  0
  152.7991  143.1414  158.1702 H   0  0  0  0  0  0  0  0  0  0  0  0
  151.1909  141.0746  158.0483 H   0  0  0  0  0  0  0  0  0  0  0  0
  149.9244  142.1744  158.5211 H   0  0  0  0  0  0  0  0  0  0  0  0
  150.0641  143.3533  156.6287 H   0  0  0  0  0  0  0  0  0  0  0  0
  150.2479  142.0165  154.6865 H   0  0  0  0  0  0  0  0  0  0  0  0
  150.9830  139.6209  154.9308 H   0  0  0  0  0  0  0  0  0  0  0  0
  151.4617  139.9441  156.5936 H   0  0  0  0  0  0  0  0  0  0  0  0
  152.2944  140.7358  155.2566 H   0  0  0  0  0  0  0  0  0  0  0  0
  148.8800  139.9395  155.9563 H   0  0  0  0  0  0  0  0  0  0  0  0
  148.6501  141.2723  157.0654 H   0  0  0  0  0  0  0  0  0  0  0  0
  148.3642  140.8337  153.2116 H   0  0  0  0  0  0  0  0  0  0  0  0
  145.2803  143.2134  154.5624 H   0  0  0  0  0  0  0  0  0  0  0  0
  151.6224  142.9438  156.3381 H   0  0  0  0  0  0  0  0  0  0  0  0
  1  2  1  0  0  0  0
  1 19  1  0  0  0  0
  1 20  1  0  0  0  0
  1 21  1  0  0  0  0
  2  8  1  0  0  0  0
  2  3  2  0  0  0  0
  3  4  1  0  0  0  0
  3 22  1  0  0  0  0
  4  5  1  0  0  0  0
  4 23  1  0  0  0  0
  4 24  1  0  0  0  0
  5  6  1  0  0  0  0
  5 25  1  0  0  0  0
  5 26  1  0  0  0  0
  6  7  1  0  0  0  0
  6  8  1  0  0  0  0
  6 27  1  0  0  0  0
  7 28  1  0  0  0  0
  7 29  1  0  0  0  0
  7 30  1  0  0  0  0
  8  9  1  0  0  0  0
  8 31  1  0  0  0  0
  9 10  1  0  0  0  0
  9 32  1  0  0  0  0
  9 33  1  0  0  0  0
 10 11  1  0  0  0  0
 10 34  1  0  0  0  0
 10 43  1  0  0  0  0
 11 12  1  0  0  0  0
 11 13  1  0  0  0  0
 11 35  1  0  0  0  0
 12 36  1  0  0  0  0
 12 37  1  0  0  0  0
 12 38  1  0  0  0  0
 13 14  1  0  0  0  0
 13 39  1  0  0  0  0
 13 40  1  0  0  0  0
 14 18  1  0  0  0  0
 14 15  1  0  0  0  0
 15 16  2  0  0  0  0
 15 41  1  0  0  0  0
 16 17  1  0  0  0  0
 17 18  2  0  0  0  0
 17 42  1  0  0  0  0
M  CHG  1  10   1
M  END
> <s_m_source_file>
AV-unprocessed.smi

> <i_m_source_file_index>
3274

> <i_lp_mmshare_version>
43012

> <i_f3d_flags>
0

> <s_epik_input>
W0NIM11DMT1bQ0hdW0NIMl1bQ0gyXVtDQEBIXShbQ0gzXSlbQ0BIXTFbQ0gyXVtOSF1bQ0BIXShbQ0gzXSlbQ0gyXW4yW2NIXW5bY0hdbjI=

> <s_epik_cmdline>
J2VwaWtfcHl0aG9uJywgJy1waCcsICc3LjAnLCAnLXRuJywgJzgnLCAnLW1hJywgJzIwMCcsICctbWV0YWxfYmluZGluZycsICctaW1hZScsICc8aW5maWxlLm1hZT4nLCAnLW9tYWUnLCAnPG91dGZpbGUubWFlPic=

> <r_lp_tautomer_probability>
1

> <r_epik_Ionization_Penalty>
0.0017527

> <r_epik_Ionization_Penalty_Charging>
0.00175191

> <r_epik_Ionization_Penalty_Neutral>
7.94565e-07

> <r_epik_State_Penalty>
0.00118605

> <r_epik_Charging_Adjusted_Penalty>
0.00293796

> <i_epik_Tot_Q>
1

> <i_epik_Tot_abs_Q>
1

> <r_epik_Metal_State_Penalty>
-0

> <b_epik_Metal_Only>
0

> <s_lp_Force_Field>
OPLS_2005

> <r_lp_Energy>
17.2451

> <b_lp_Chiralities_Consistent>
1

> <s_lp_Variant>
AV-unprocessed.smi:3274-7

> <Gold.Version>
5.8.1

> <Gold.Id.Protein>
6NUR|6NUR_protein|mol2

> <Gold.PLP.Fitness>
49.0597

> <Gold.PLP.PLP>
-42.1371

> <Gold.PLP.part.hbond>
-1.0000

> <Gold.PLP.part.metal>
0.0000

> <Gold.PLP.part.buried>
-3.0462

> <Gold.PLP.part.nonpolar>
-36.9166

> <Gold.PLP.part.repulsive>
0.5694

> <Gold.PLP.ligand.clash>
0.0000

> <Gold.PLP.ligand.torsion>
0.9972

> <Gold.PLP.Chemscore.Hbond>
1.9500

> <Gold.PLP.Chemscore.CHOScore>
1.0000

> <Gold.PLP.Chemscore.Metal>
0.0000

> <Gold.Chemscore.Hbonds>
donor molecule, donor type, donor heavy atom, donor atom, acceptor molecule, acceptor atom, score
      L1  H    10    34       P1  8028  1.95
      L1  C    15    41       P1  7957  1.00

> <Gold.PLP.Chemscore.Internal.Correction>
0.0670

> <Gold.Rescore>
     Score         DG    S(hbond)    S(metal)    S(lipo)     H(rot)  DE(clash)    DE(int)     intcor
     13.64     -16.23       0.92        0.00     117.36       2.36       1.53       1.06       ----

> <Gold.Chemscore.Fitness>
13.6400

> <Gold.Chemscore.DG>
-16.2284

> <Gold.Chemscore.ZeroCoef>
-5.4800

> <Gold.Chemscore.Hbond>
0.9169

> <Gold.Chemscore.Metal>
0.0000

> <Gold.Chemscore.Lipo>
117.3626

> <Gold.Chemscore.Internal_Hbond>
0.0000

> <Gold.Chemscore.DEClash>
1.5254

> <Gold.Chemscore.DEInternal>
1.0630

> <Gold.Chemscore.Rot>
2.3615

> <Gold.Chemscore.Internal.Correction>
   9.000000E+99

> <Gold.Chemscore.Hbonds>
donor molecule, donor type, donor heavy atom, donor atom, acceptor molecule, acceptor atom, score
      L1  H    10    34       P1  8028  0.88

> <Gold.Chemscore.Hbond.Weighted>
-3.0624

> <Gold.Chemscore.Metal.Weighted>
-0.0000

> <Gold.Chemscore.Lipo.Weighted>
-13.7314

> <Gold.Chemscore.Internal_Hbond.Weighted>
0.0000

> <Gold.Chemscore.DEClash.Weighted>
1.5254

> <Gold.Chemscore.DEInternal.Weighted>
1.0630

> <Gold.Chemscore.Rot.Weighted>
6.0454

> <Gold.Chemscore.Internal.Correction.Weighted>
   9.000000E+99

> <Gold.Protein.RotatedTorsions>
[ 6907 6896 6895 6894 ] final -110.95 input  -60.11 | X-H torsion
[ 7974 7965 7964 7962 ] final  165.58 input  175.53 | X-H torsion
[ 8008 7997 7996 7995 ] final  -58.08 input   59.86 | X-H torsion
[ 10167 10162 10161 10158 ] final -176.05 input  -65.29 | X-H torsion
[ 10718 10713 10712 10709 ] final  158.65 input   66.30 | X-H torsion
[ 10763 10752 10751 10750 ] final  -85.20 input  -60.55 | X-H torsion
[ 11005 11000 10999 10996 ] final  -33.80 input  -57.11 | X-H torsion

> <Gold.Protein.ActiveResidues>
 VAL166  LYS551  ARG553  GLY616  TRP617  ASP618  TYR619  PRO620  LYS621  CYS622 
 ASP623  PHE694  ASN695  SER759  ASP760  ASP761  ALA762  ILE779  LEU786  VAL792 
 PHE793  MET794  SER795  GLU796  ALA797  LYS798  CYS799  TRP800  GLU811  SER814 

> <Gold.Protein.RotatedAtoms>
  150.7658  133.9307  159.3425 H   0  0  0  0  0  0  0  0  0  0  0  0  # atno 6907 bound_to 6896
  151.7205  135.0893  160.0293 H   0  0  0  0  0  0  0  0  0  0  0  0  # atno 6908 bound_to 6896
  152.3653  133.6311  159.6081 H   0  0  0  0  0  0  0  0  0  0  0  0  # atno 6909 bound_to 6896
  144.7497  139.8490  143.6370 H   0  0  0  0  0  0  0  0  0  0  0  0  # atno 7974 bound_to 7965
  154.4294  140.1092  156.5901 H   0  0  0  0  0  0  0  0  0  0  0  0  # atno 8008 bound_to 7997
  155.6021  140.3493  155.4578 H   0  0  0  0  0  0  0  0  0  0  0  0  # atno 8009 bound_to 7997
  156.0165  140.1230  157.0391 H   0  0  0  0  0  0  0  0  0  0  0  0  # atno 8010 bound_to 7997
  139.5549  144.2014  152.1142 H   0  0  0  0  0  0  0  0  0  0  0  0  # atno 10167 bound_to 10162
  157.1750  131.0619  151.2162 H   0  0  0  0  0  0  0  0  0  0  0  0  # atno 10718 bound_to 10713
  154.6083  135.5493  153.7446 H   0  0  0  0  0  0  0  0  0  0  0  0  # atno 10763 bound_to 10752
  153.0184  135.6383  154.1615 H   0  0  0  0  0  0  0  0  0  0  0  0  # atno 10764 bound_to 10752
  154.1553  135.2900  155.3104 H   0  0  0  0  0  0  0  0  0  0  0  0  # atno 10765 bound_to 10752
  140.9665  133.7134  156.1453 H   0  0  0  0  0  0  0  0  0  0  0  0  # atno 11005 bound_to 11000
  146.1429  139.4490  143.0097 LP  0  0  0  0  0  0  0  0  0  0  0  0  # atno 17320 bound_to 7965
  145.6990  141.0141  143.1514 LP  0  0  0  0  0  0  0  0  0  0  0  0  # atno 17321 bound_to 7965
  140.1517  144.5109  150.6684 LP  0  0  0  0  0  0  0  0  0  0  0  0  # atno 17342 bound_to 10162
  140.6820  143.2331  151.5360 LP  0  0  0  0  0  0  0  0  0  0  0  0  # atno 17343 bound_to 10162
  157.4007  130.7331  149.6765 LP  0  0  0  0  0  0  0  0  0  0  0  0  # atno 17370 bound_to 10713
  155.9732  130.4121  150.4017 LP  0  0  0  0  0  0  0  0  0  0  0  0  # atno 17371 bound_to 10713
  140.7392  134.4169  157.5557 LP  0  0  0  0  0  0  0  0  0  0  0  0  # atno 17394 bound_to 11000
  139.8896  134.8825  156.2411 LP  0  0  0  0  0  0  0  0  0  0  0  0  # atno 17395 bound_to 11000

$$$$
