AV-unprocessed.smi:72|AV-procd|sdf|735|dock3
  -GOLD-   2262017 63D 1   1.00000     0.00000
 Structure written by MMmdl.
 28 29  0  0  0  0  0  0  0  0  2 V2000
  154.1867  138.0667  154.9074 N   0  0  0  0  0  0  0  0  0  0  0  0
  152.9561  138.3413  154.8927 C   0  0  0  0  0  0  0  0  0  0  0  0
  152.0301  137.4734  154.1977 N   0  0  0  0  0  0  0  0  0  0  0  0
  150.7714  137.7884  154.2230 C   0  0  0  0  0  0  0  0  0  0  0  0
  150.2887  138.9645  154.9335 N   0  0  0  0  0  0  0  0  0  0  0  0
  148.8161  139.3228  154.9450 C   0  0  2  0  0  0  0  0  0  0  0  0
  148.0864  138.2714  154.3927 O   0  0  0  0  0  0  0  0  0  0  0  0
  146.9263  138.8037  153.7725 C   0  0  2  0  0  0  0  0  0  0  0  0
  146.3619  137.7955  152.7596 C   0  0  0  0  0  0  0  0  0  0  0  0
  145.0869  138.2100  152.3175 O   0  0  0  0  0  0  0  0  0  0  0  0
  147.4567  140.0879  153.1263 C   0  0  1  0  0  0  0  0  0  0  0  0
  146.4129  141.0266  152.9613 O   0  0  0  0  0  0  0  0  0  0  0  0
  148.4836  140.5963  154.1336 C   0  0  2  0  0  0  0  0  0  0  0  0
  149.5888  141.1746  153.4626 O   0  0  0  0  0  0  0  0  0  0  0  0
  151.2225  139.8154  155.5811 C   0  0  0  0  0  0  0  0  0  0  0  0
  150.7982  140.8308  156.1332 O   0  0  0  0  0  0  0  0  0  0  0  0
  152.5426  139.4796  155.5498 N   0  5  0  0  0  0  0  0  0  0  0  0
  148.5229  139.4041  155.9929 H   0  0  0  0  0  0  0  0  0  0  0  0
  146.1905  139.0495  154.5416 H   0  0  0  0  0  0  0  0  0  0  0  0
  147.9279  139.8612  152.1682 H   0  0  0  0  0  0  0  0  0  0  0  0
  148.0523  141.3242  154.8226 H   0  0  0  0  0  0  0  0  0  0  0  0
  154.7307  138.7451  155.4202 H   0  0  0  0  0  0  0  0  0  0  0  0
  150.0039  137.2034  153.7149 H   0  0  0  0  0  0  0  0  0  0  0  0
  147.0086  137.7439  151.8832 H   0  0  0  0  0  0  0  0  0  0  0  0
  146.3113  136.7923  153.1842 H   0  0  0  0  0  0  0  0  0  0  0  0
  144.9766  139.1235  152.5330 H   0  0  0  0  0  0  0  0  0  0  0  0
  145.5913  140.5595  152.9706 H   0  0  0  0  0  0  0  0  0  0  0  0
  149.4855  141.0233  152.5350 H   0  0  0  0  0  0  0  0  0  0  0  0
  1  2  2  0  0  0  0
  1 22  1  0  0  0  0
  2 17  1  0  0  0  0
  2  3  1  0  0  0  0
  3  4  2  0  0  0  0
  4  5  1  0  0  0  0
  4 23  1  0  0  0  0
  5  6  1  0  0  0  0
  5 15  1  0  0  0  0
  6 18  1  0  0  0  0
  6 13  1  0  0  0  0
  6  7  1  0  0  0  0
  7  8  1  0  0  0  0
  8 19  1  0  0  0  0
  8  9  1  0  0  0  0
  8 11  1  0  0  0  0
  9 10  1  0  0  0  0
  9 24  1  0  0  0  0
  9 25  1  0  0  0  0
 10 26  1  0  0  0  0
 11 20  1  0  0  0  0
 11 12  1  0  0  0  0
 11 13  1  0  0  0  0
 12 27  1  0  0  0  0
 13 21  1  0  0  0  0
 13 14  1  0  0  0  0
 14 28  1  0  0  0  0
 15 16  2  0  0  0  0
 15 17  1  0  0  0  0
M  CHG  1  17  -1
M  END
> <s_m_source_file>
AV-unprocessed.smi

> <i_m_source_file_index>
72

> <i_lp_mmshare_version>
43012

> <i_f3d_flags>
0

> <s_epik_input>
W05IMl1jMW5bY0hdbihjKD1PKW4xKVtDQEBIXTJPW0NASF0oW0NIMl1bT0hdKVtDQEBIXShbT0hdKVtDQEhdMltPSF0=

> <s_epik_cmdline>
J2VwaWtfcHl0aG9uJywgJy1waCcsICc3LjAnLCAnLXRuJywgJzgnLCAnLW1hJywgJzIwMCcsICctbWV0YWxfYmluZGluZycsICctaW1hZScsICc8aW5maWxlLm1hZT4nLCAnLW9tYWUnLCAnPG91dGZpbGUubWFlPic=

> <r_lp_tautomer_probability>
7.17554e-07

> <r_epik_Ionization_Penalty>
12.8705

> <r_epik_Ionization_Penalty_Charging>
5.64144

> <r_epik_Ionization_Penalty_Neutral>
7.22905

> <r_epik_State_Penalty>
3.30104

> <r_epik_Charging_Adjusted_Penalty>
8.94249

> <i_epik_Tot_Q>
-1

> <i_epik_Tot_abs_Q>
1

> <r_epik_Metal_State_Penalty>
0.529074

> <b_epik_Metal_Only>
1

> <s_epik_Chemistry_Notes>
This compound contains an acetal/aminal-like group ( X-CH(R)-Y where X, Y are N, S, or O) that may be acid/base labile, releasing an aldehyde.

> <s_lp_Force_Field>
OPLS_2005

> <r_lp_Energy>
36.8699

> <b_lp_Chiralities_Consistent>
1

> <s_lp_Variant>
AV-unprocessed.smi:72-73

> <Gold.Version>
5.8.1

> <Gold.Id.Protein>
6NUR|6NUR_protein|mol2

> <Gold.PLP.Fitness>
49.2266

> <Gold.PLP.PLP>
-28.9850

> <Gold.PLP.part.hbond>
-9.9787

> <Gold.PLP.part.metal>
0.0000

> <Gold.PLP.part.buried>
-0.0256

> <Gold.PLP.part.nonpolar>
-20.5328

> <Gold.PLP.part.repulsive>
0.3579

> <Gold.PLP.ligand.clash>
0.0000

> <Gold.PLP.ligand.torsion>
0.2276

> <Gold.PLP.Chemscore.Hbond>
5.7707

> <Gold.PLP.Chemscore.CHOScore>
1.0185

> <Gold.PLP.Chemscore.Metal>
0.0000

> <Gold.Chemscore.Hbonds>
donor molecule, donor type, donor heavy atom, donor atom, acceptor molecule, acceptor atom, score
      L1  H    10    26       P1 10175  0.78
      L1  H    12    27       P1 10175  0.96
      L1  H    14    28       P1  7957  1.00
      P1  H  7989  7998       L1    14  0.13
      P1  H  7997  8008       L1    17  1.88
      P1  H 10752 10765       L1     3  0.91
      L1  C     4    23       P1  7948  1.00
      L1  C     4    23       P1  7949  0.01

> <Gold.PLP.Chemscore.Internal.Correction>
0.3292

> <Gold.Rescore>
     Score         DG    S(hbond)    S(metal)    S(lipo)     H(rot)  DE(clash)    DE(int)     intcor
      6.84      -7.54       2.91        0.00      23.10       4.04       0.25       0.45       ----

> <Gold.Chemscore.Fitness>
6.8407

> <Gold.Chemscore.DG>
-7.5441

> <Gold.Chemscore.ZeroCoef>
-5.4800

> <Gold.Chemscore.Hbond>
2.9057

> <Gold.Chemscore.Metal>
0.0000

> <Gold.Chemscore.Lipo>
23.0951

> <Gold.Chemscore.Internal_Hbond>
0.0000

> <Gold.Chemscore.DEClash>
0.2538

> <Gold.Chemscore.DEInternal>
0.4496

> <Gold.Chemscore.Rot>
4.0403

> <Gold.Chemscore.Internal.Correction>
   9.000000E+99

> <Gold.Chemscore.Hbonds>
donor molecule, donor type, donor heavy atom, donor atom, acceptor molecule, acceptor atom, score
      L1  H    10    26       P1 10175  0.78
      L1  H    12    27       P1 10175  0.71
      L1  H    14    28       P1  7957  0.97
      P1  H  7989  7998       L1    14  0.02
      P1  H  7997  8008       L1    17  0.20
      P1  H 10752 10765       L1     3  0.34

> <Gold.Chemscore.Hbond.Weighted>
-9.7050

> <Gold.Chemscore.Metal.Weighted>
-0.0000

> <Gold.Chemscore.Lipo.Weighted>
-2.7021

> <Gold.Chemscore.Internal_Hbond.Weighted>
0.0000

> <Gold.Chemscore.DEClash.Weighted>
0.2538

> <Gold.Chemscore.DEInternal.Weighted>
0.4496

> <Gold.Chemscore.Rot.Weighted>
10.3431

> <Gold.Chemscore.Internal.Correction.Weighted>
   9.000000E+99

> <Gold.Protein.RotatedTorsions>
[ 6907 6896 6895 6894 ] final  -35.79 input  -60.11 | X-H torsion
[ 7974 7965 7964 7962 ] final   88.52 input  175.53 | X-H torsion
[ 8008 7997 7996 7995 ] final  -36.80 input   59.86 | X-H torsion
[ 10167 10162 10161 10158 ] final -141.58 input  -65.29 | X-H torsion
[ 10718 10713 10712 10709 ] final   63.95 input   66.30 | X-H torsion
[ 10763 10752 10751 10750 ] final  154.21 input  -60.55 | X-H torsion
[ 11005 11000 10999 10996 ] final  121.73 input  -57.11 | X-H torsion

> <Gold.Protein.ActiveResidues>
 VAL166  LYS551  ARG553  GLY616  TRP617  ASP618  TYR619  PRO620  LYS621  CYS622 
 ASP623  PHE694  ASN695  SER759  ASP760  ASP761  ALA762  ILE779  LEU786  VAL792 
 PHE793  MET794  SER795  GLU796  ALA797  LYS798  CYS799  TRP800  GLU811  SER814 

> <Gold.Protein.RotatedAtoms>
  151.0353  134.9568  159.8132 H   0  0  0  0  0  0  0  0  0  0  0  0  # atno 6907 bound_to 6896
  152.5354  134.2727  159.8988 H   0  0  0  0  0  0  0  0  0  0  0  0  # atno 6908 bound_to 6896
  151.2738  133.4200  159.2657 H   0  0  0  0  0  0  0  0  0  0  0  0  # atno 6909 bound_to 6896
  145.5446  139.2291  143.2546 H   0  0  0  0  0  0  0  0  0  0  0  0  # atno 7974 bound_to 7965
  154.4065  140.1621  156.2434 H   0  0  0  0  0  0  0  0  0  0  0  0  # atno 8008 bound_to 7997
  155.9182  140.3423  155.6129 H   0  0  0  0  0  0  0  0  0  0  0  0  # atno 8009 bound_to 7997
  155.7254  140.0773  157.2303 H   0  0  0  0  0  0  0  0  0  0  0  0  # atno 8010 bound_to 7997
  139.8171  143.7624  152.2665 H   0  0  0  0  0  0  0  0  0  0  0  0  # atno 10167 bound_to 10162
  157.6006  130.9133  149.9782 H   0  0  0  0  0  0  0  0  0  0  0  0  # atno 10718 bound_to 10713
  154.1487  135.2816  155.3141 H   0  0  0  0  0  0  0  0  0  0  0  0  # atno 10763 bound_to 10752
  154.6233  135.5460  153.7603 H   0  0  0  0  0  0  0  0  0  0  0  0  # atno 10764 bound_to 10752
  153.0228  135.6444  154.1632 H   0  0  0  0  0  0  0  0  0  0  0  0  # atno 10765 bound_to 10752
  139.9238  134.9639  156.8002 H   0  0  0  0  0  0  0  0  0  0  0  0  # atno 11005 bound_to 11000
  146.1958  140.6267  142.9125 LP  0  0  0  0  0  0  0  0  0  0  0  0  # atno 17320 bound_to 7965
  144.7560  140.5307  143.6769 LP  0  0  0  0  0  0  0  0  0  0  0  0  # atno 17321 bound_to 7965
  139.7791  144.7451  151.0114 LP  0  0  0  0  0  0  0  0  0  0  0  0  # atno 17342 bound_to 10162
  140.7815  143.4561  151.0343 LP  0  0  0  0  0  0  0  0  0  0  0  0  # atno 17343 bound_to 10162
  156.1079  130.3651  150.0101 LP  0  0  0  0  0  0  0  0  0  0  0  0  # atno 17370 bound_to 10713
  156.8205  130.9357  151.3641 LP  0  0  0  0  0  0  0  0  0  0  0  0  # atno 17371 bound_to 10713
  140.6396  133.9831  155.7701 LP  0  0  0  0  0  0  0  0  0  0  0  0  # atno 17394 bound_to 11000
  141.0780  134.0105  157.3429 LP  0  0  0  0  0  0  0  0  0  0  0  0  # atno 17395 bound_to 11000

$$$$
