AV-unprocessed.smi:1613|AV-procd|sdf|6479|dock3
  -GOLD-   22720 7143D 1   1.00000     0.00000
 Structure written by MMmdl.
 53 55  0  0  0  0  0  0  0  0  2 V2000
  153.0025  139.3639  156.8642 O   0  0  0  0  0  0  0  0  0  0  0  0
  151.8313  139.3163  157.2368 C   0  0  0  0  0  0  0  0  0  0  0  0
  151.4226  140.0073  158.5500 C   0  0  0  0  0  0  0  0  0  0  0  0
  151.7887  141.4350  158.6288 N   0  0  0  0  0  0  0  0  0  0  0  0
  152.6397  141.8298  159.6751 C   0  0  0  0  0  0  0  0  0  0  0  0
  152.9942  143.1141  159.8265 C   0  0  0  0  0  0  0  0  0  0  0  0
  152.4465  144.0627  158.8481 C   0  0  0  0  0  0  0  0  0  0  0  0
  151.6719  143.7060  157.8931 N   0  0  0  0  0  0  0  0  0  0  0  0
  151.3033  142.3573  157.7337 C   0  0  0  0  0  0  0  0  0  0  0  0
  150.5515  142.0101  156.8228 O   0  0  0  0  0  0  0  0  0  0  0  0
  150.8652  138.7050  156.5331 N   0  0  0  0  0  0  0  0  0  0  0  0
  150.9970  138.0988  155.2119 C   0  0  2  0  0  0  0  0  0  0  0  0
  150.2500  138.9205  154.1421 C   0  0  0  0  0  0  0  0  0  0  0  0
  148.7298  138.9155  154.3848 C   0  0  0  0  0  0  0  0  0  0  0  0
  148.2010  137.5287  154.4497 N   0  3  2  0  0  0  0  0  0  0  0  0
  146.7170  137.4399  154.5096 C   0  0  0  0  0  0  0  0  0  0  0  0
  146.0764  136.4307  153.5184 C   0  0  0  0  0  0  0  0  0  0  0  0
  145.8494  137.0811  152.1377 C   0  0  0  0  0  0  0  0  0  0  0  0
  145.2223  136.0959  151.1381 C   0  0  0  0  0  0  0  0  0  0  0  0
  143.9018  135.5247  151.6743 C   0  0  0  0  0  0  0  0  0  0  0  0
  144.0999  134.8782  153.0528 C   0  0  0  0  0  0  0  0  0  0  0  0
  144.7373  135.8644  154.0453 C   0  0  0  0  0  0  0  0  0  0  0  0
  148.8901  136.6890  155.4662 C   0  0  0  0  0  0  0  0  0  0  0  0
  150.4144  136.6751  155.2388 C   0  0  0  0  0  0  0  0  0  0  0  0
  150.3459  139.8838  158.6749 H   0  0  0  0  0  0  0  0  0  0  0  0
  151.8696  139.4626  159.3838 H   0  0  0  0  0  0  0  0  0  0  0  0
  152.9712  141.0387  160.3320 H   0  0  0  0  0  0  0  0  0  0  0  0
  153.6414  143.4844  160.6076 H   0  0  0  0  0  0  0  0  0  0  0  0
  152.7448  145.1048  158.9888 H   0  0  0  0  0  0  0  0  0  0  0  0
  149.9388  138.7082  156.9350 H   0  0  0  0  0  0  0  0  0  0  0  0
  152.0570  138.0445  154.9575 H   0  0  0  0  0  0  0  0  0  0  0  0
  150.6191  139.9464  154.1176 H   0  0  0  0  0  0  0  0  0  0  0  0
  150.4586  138.5028  153.1563 H   0  0  0  0  0  0  0  0  0  0  0  0
  148.5066  139.4447  155.3111 H   0  0  0  0  0  0  0  0  0  0  0  0
  148.2313  139.4568  153.5803 H   0  0  0  0  0  0  0  0  0  0  0  0
  146.4208  137.2026  155.5321 H   0  0  0  0  0  0  0  0  0  0  0  0
  146.3274  138.4429  154.3298 H   0  0  0  0  0  0  0  0  0  0  0  0
  146.7543  135.5932  153.3594 H   0  0  0  0  0  0  0  0  0  0  0  0
  145.2039  137.9543  152.2418 H   0  0  0  0  0  0  0  0  0  0  0  0
  146.7966  137.4433  151.7364 H   0  0  0  0  0  0  0  0  0  0  0  0
  145.0502  136.5940  150.1833 H   0  0  0  0  0  0  0  0  0  0  0  0
  145.9198  135.2816  150.9395 H   0  0  0  0  0  0  0  0  0  0  0  0
  143.1611  136.3220  151.7473 H   0  0  0  0  0  0  0  0  0  0  0  0
  143.5004  134.7925  150.9733 H   0  0  0  0  0  0  0  0  0  0  0  0
  143.1417  134.5299  153.4396 H   0  0  0  0  0  0  0  0  0  0  0  0
  144.7302  133.9946  152.9552 H   0  0  0  0  0  0  0  0  0  0  0  0
  144.8782  135.3620  155.0011 H   0  0  0  0  0  0  0  0  0  0  0  0
  144.0401  136.6823  154.2326 H   0  0  0  0  0  0  0  0  0  0  0  0
  148.6696  137.0498  156.4709 H   0  0  0  0  0  0  0  0  0  0  0  0
  148.5103  135.6682  155.4126 H   0  0  0  0  0  0  0  0  0  0  0  0
  150.6338  136.1771  154.2935 H   0  0  0  0  0  0  0  0  0  0  0  0
  150.9016  136.0820  156.0139 H   0  0  0  0  0  0  0  0  0  0  0  0
  148.4465  137.1134  153.5622 H   0  0  0  0  0  0  0  0  0  0  0  0
  1  2  2  0  0  0  0
  2  3  1  0  0  0  0
  2 11  1  0  0  0  0
  3  4  1  0  0  0  0
  3 25  1  0  0  0  0
  3 26  1  0  0  0  0
  4  9  1  0  0  0  0
  4  5  1  0  0  0  0
  5  6  2  0  0  0  0
  5 27  1  0  0  0  0
  6  7  1  0  0  0  0
  6 28  1  0  0  0  0
  7  8  2  0  0  0  0
  7 29  1  0  0  0  0
  8  9  1  0  0  0  0
  9 10  2  0  0  0  0
 11 12  1  0  0  0  0
 11 30  1  0  0  0  0
 12 24  1  0  0  0  0
 12 13  1  0  0  0  0
 12 31  1  0  0  0  0
 13 14  1  0  0  0  0
 13 32  1  0  0  0  0
 13 33  1  0  0  0  0
 14 15  1  0  0  0  0
 14 34  1  0  0  0  0
 14 35  1  0  0  0  0
 15 16  1  0  0  0  0
 15 23  1  0  0  0  0
 15 53  1  0  0  0  0
 16 17  1  0  0  0  0
 16 36  1  0  0  0  0
 16 37  1  0  0  0  0
 17 22  1  0  0  0  0
 17 18  1  0  0  0  0
 17 38  1  0  0  0  0
 18 19  1  0  0  0  0
 18 39  1  0  0  0  0
 18 40  1  0  0  0  0
 19 20  1  0  0  0  0
 19 41  1  0  0  0  0
 19 42  1  0  0  0  0
 20 21  1  0  0  0  0
 20 43  1  0  0  0  0
 20 44  1  0  0  0  0
 21 22  1  0  0  0  0
 21 45  1  0  0  0  0
 21 46  1  0  0  0  0
 22 47  1  0  0  0  0
 22 48  1  0  0  0  0
 23 24  1  0  0  0  0
 23 49  1  0  0  0  0
 23 50  1  0  0  0  0
 24 51  1  0  0  0  0
 24 52  1  0  0  0  0
M  CHG  1  15   1
M  END
> <s_m_source_file>
AV-unprocessed.smi

> <i_m_source_file_index>
1613

> <i_lp_mmshare_version>
43012

> <i_f3d_flags>
0

> <s_epik_input>
Tz1jMW5bY0hdW2NIXVtjSF1uMVtDSDJdQyg9TylbTkhdW0NIXTJbQ0gyXVtDSDJdTihbQ0gyXVtDSDJdMilbQ0gyXVtDSF0zW0NIMl1bQ0gyXVtDSDJdW0NIMl1bQ0gyXTM=

> <s_epik_cmdline>
J2VwaWtfcHl0aG9uJywgJy1waCcsICc3LjAnLCAnLXRuJywgJzgnLCAnLW1hJywgJzIwMCcsICctbWV0YWxfYmluZGluZycsICctaW1hZScsICc8aW5maWxlLm1hZT4nLCAnLW9tYWUnLCAnPG91dGZpbGUubWFlPic=

> <r_lp_tautomer_probability>
1

> <r_epik_Ionization_Penalty>
0.00530026

> <r_epik_Ionization_Penalty_Charging>
0.00529416

> <r_epik_Ionization_Penalty_Neutral>
6.10215e-06

> <r_epik_State_Penalty>
0.00386377

> <r_epik_Charging_Adjusted_Penalty>
0.00915793

> <i_epik_Tot_Q>
1

> <i_epik_Tot_abs_Q>
1

> <r_epik_Metal_State_Penalty>
-0

> <b_epik_Metal_Only>
0

> <s_lp_Force_Field>
OPLS_2005

> <r_lp_Energy>
26.8521

> <b_lp_Chiralities_Consistent>
1

> <s_lp_Variant>
AV-unprocessed.smi:1613-2

> <Gold.Version>
5.8.1

> <Gold.Id.Protein>
6NUR|6NUR_protein|mol2

> <Gold.PLP.Fitness>
46.6867

> <Gold.PLP.PLP>
-39.6442

> <Gold.PLP.part.hbond>
-2.0000

> <Gold.PLP.part.metal>
0.0000

> <Gold.PLP.part.buried>
-4.9470

> <Gold.PLP.part.nonpolar>
-33.3894

> <Gold.PLP.part.repulsive>
0.2478

> <Gold.PLP.ligand.clash>
0.0000

> <Gold.PLP.ligand.torsion>
1.0244

> <Gold.PLP.Chemscore.Hbond>
3.0000

> <Gold.PLP.Chemscore.CHOScore>
0.0000

> <Gold.PLP.Chemscore.Metal>
0.0000

> <Gold.Chemscore.Hbonds>
donor molecule, donor type, donor heavy atom, donor atom, acceptor molecule, acceptor atom, score
      L1  H    15    53       P1  7948  2.00
      P1  H  7997  8010       L1     1  1.00

> <Gold.PLP.Chemscore.Internal.Correction>
0.0913

> <Gold.Rescore>
     Score         DG    S(hbond)    S(metal)    S(lipo)     H(rot)  DE(clash)    DE(int)     intcor
     17.61     -18.69       2.00        0.00      96.20       1.84       0.12       0.96       ----

> <Gold.Chemscore.Fitness>
17.6123

> <Gold.Chemscore.DG>
-18.6911

> <Gold.Chemscore.ZeroCoef>
-5.4800

> <Gold.Chemscore.Hbond>
1.9972

> <Gold.Chemscore.Metal>
0.0000

> <Gold.Chemscore.Lipo>
96.1969

> <Gold.Chemscore.Internal_Hbond>
0.0000

> <Gold.Chemscore.DEClash>
0.1170

> <Gold.Chemscore.DEInternal>
0.9619

> <Gold.Chemscore.Rot>
1.8417

> <Gold.Chemscore.Internal.Correction>
   9.000000E+99

> <Gold.Chemscore.Hbonds>
donor molecule, donor type, donor heavy atom, donor atom, acceptor molecule, acceptor atom, score
      L1  H    15    53       P1  7948  0.98
      P1  H  7997  8010       L1     1  0.97

> <Gold.Chemscore.Hbond.Weighted>
-6.6707

> <Gold.Chemscore.Metal.Weighted>
-0.0000

> <Gold.Chemscore.Lipo.Weighted>
-11.2550

> <Gold.Chemscore.Internal_Hbond.Weighted>
0.0000

> <Gold.Chemscore.DEClash.Weighted>
0.1170

> <Gold.Chemscore.DEInternal.Weighted>
0.9619

> <Gold.Chemscore.Rot.Weighted>
4.7147

> <Gold.Chemscore.Internal.Correction.Weighted>
   9.000000E+99

> <Gold.Protein.RotatedTorsions>
[ 6907 6896 6895 6894 ] final  149.88 input  -60.11 | X-H torsion
[ 7974 7965 7964 7962 ] final   33.02 input  175.53 | X-H torsion
[ 8008 7997 7996 7995 ] final   65.29 input   59.86 | X-H torsion
[ 10167 10162 10161 10158 ] final  153.05 input  -65.29 | X-H torsion
[ 10718 10713 10712 10709 ] final   87.81 input   66.30 | X-H torsion
[ 10763 10752 10751 10750 ] final   -7.12 input  -60.55 | X-H torsion
[ 11005 11000 10999 10996 ] final -146.65 input  -57.11 | X-H torsion

> <Gold.Protein.ActiveResidues>
 VAL166  LYS551  ARG553  GLY616  TRP617  ASP618  TYR619  PRO620  LYS621  CYS622 
 ASP623  PHE694  ASN695  SER759  ASP760  ASP761  ALA762  ILE779  LEU786  VAL792 
 PHE793  MET794  SER795  GLU796  ALA797  LYS798  CYS799  TRP800  GLU811  SER814 

> <Gold.Protein.RotatedAtoms>
  152.1220  133.4358  159.4679 H   0  0  0  0  0  0  0  0  0  0  0  0  # atno 6907 bound_to 6896
  150.6872  134.2524  159.4525 H   0  0  0  0  0  0  0  0  0  0  0  0  # atno 6908 bound_to 6896
  152.0401  134.9716  160.0624 H   0  0  0  0  0  0  0  0  0  0  0  0  # atno 6909 bound_to 6896
  146.1448  139.6451  142.9138 H   0  0  0  0  0  0  0  0  0  0  0  0  # atno 7974 bound_to 7965
  155.6594  140.3497  155.4777 H   0  0  0  0  0  0  0  0  0  0  0  0  # atno 8008 bound_to 7997
  155.9781  140.1169  157.0774 H   0  0  0  0  0  0  0  0  0  0  0  0  # atno 8009 bound_to 7997
  154.4184  140.1143  156.5384 H   0  0  0  0  0  0  0  0  0  0  0  0  # atno 8010 bound_to 7997
  139.4829  144.5306  151.7729 H   0  0  0  0  0  0  0  0  0  0  0  0  # atno 10167 bound_to 10162
  157.6943  131.0270  150.3179 H   0  0  0  0  0  0  0  0  0  0  0  0  # atno 10718 bound_to 10713
  153.4219  135.7010  153.6288 H   0  0  0  0  0  0  0  0  0  0  0  0  # atno 10763 bound_to 10752
  153.4739  135.3708  155.2406 H   0  0  0  0  0  0  0  0  0  0  0  0  # atno 10764 bound_to 10752
  154.8722  135.4049  154.3589 H   0  0  0  0  0  0  0  0  0  0  0  0  # atno 10765 bound_to 10752
  140.7798  134.3092  157.5049 H   0  0  0  0  0  0  0  0  0  0  0  0  # atno 11005 bound_to 11000
  145.4962  141.0438  143.2565 LP  0  0  0  0  0  0  0  0  0  0  0  0  # atno 17320 bound_to 7965
  144.7834  139.6478  143.7144 LP  0  0  0  0  0  0  0  0  0  0  0  0  # atno 17321 bound_to 7965
  140.4832  144.1419  150.5936 LP  0  0  0  0  0  0  0  0  0  0  0  0  # atno 17342 bound_to 10162
  140.4255  143.2592  151.9662 LP  0  0  0  0  0  0  0  0  0  0  0  0  # atno 17343 bound_to 10162
  156.3671  130.3857  149.7205 LP  0  0  0  0  0  0  0  0  0  0  0  0  # atno 17370 bound_to 10713
  156.4632  130.7961  151.2981 LP  0  0  0  0  0  0  0  0  0  0  0  0  # atno 17371 bound_to 10713
  139.8744  134.9311  156.3520 LP  0  0  0  0  0  0  0  0  0  0  0  0  # atno 17394 bound_to 11000
  140.9493  133.7461  156.0251 LP  0  0  0  0  0  0  0  0  0  0  0  0  # atno 17395 bound_to 11000

$$$$
