AV-unprocessed.smi:1586|AV-procd|sdf|6374|dock6
  -GOLD-   22720 7 03D 1   1.00000     0.00000
 Structure written by MMmdl.
 47 48  0  0  0  0  0  0  0  0  2 V2000
  144.5277  143.9774  155.0083 C   0  0  0  0  0  0  0  0  0  0  0  0
  144.6267  142.5755  155.6264 C   0  0  0  0  0  0  0  0  0  0  0  0
  145.2973  141.6025  154.7287 N   0  3  0  0  0  0  0  0  0  0  0  0
  145.6043  140.3235  155.4134 C   0  0  0  0  0  0  0  0  0  0  0  0
  146.2480  139.3242  154.4296 C   0  0  0  0  0  0  0  0  0  0  0  0
  147.4939  139.8490  153.8540 N   0  0  0  0  0  0  0  0  0  0  0  0
  148.6236  139.9779  154.8009 C   0  0  1  0  0  0  0  0  0  0  0  0
  149.4448  138.6724  154.8823 C   0  0  0  0  0  0  0  0  0  0  0  0
  149.5592  141.1560  154.4345 C   0  0  0  0  0  0  0  0  0  0  0  0
  149.7725  142.0512  155.5664 N   0  0  0  0  0  0  0  0  0  0  0  0
  150.3876  141.7053  156.7042 C   0  0  0  0  0  0  0  0  0  0  0  0
  150.8318  140.5771  156.9163 O   0  0  0  0  0  0  0  0  0  0  0  0
  150.4431  142.7404  157.5589 N   0  0  0  0  0  0  0  0  0  0  0  0
  151.0351  142.7901  158.8469 C   0  0  0  0  0  0  0  0  0  0  0  0
  152.1779  142.0565  159.2795 C   0  0  0  0  0  0  0  0  0  0  0  0
  152.3327  142.4668  160.5736 C   0  0  0  0  0  0  0  0  0  0  0  0
  153.3178  142.1204  161.6368 C   0  0  0  0  0  0  0  0  0  0  0  0
  151.3729  143.3728  160.9018 O   0  0  0  0  0  0  0  0  0  0  0  0
  150.5477  143.5754  159.7896 N   0  0  0  0  0  0  0  0  0  0  0  0
  147.1374  141.0798  153.1341 C   0  0  0  0  0  0  0  0  0  0  0  0
  146.5141  142.1395  154.0684 C   0  0  0  0  0  0  0  0  0  0  0  0
  143.9479  144.6385  155.6527 H   0  0  0  0  0  0  0  0  0  0  0  0
  144.0318  143.9468  154.0375 H   0  0  0  0  0  0  0  0  0  0  0  0
  145.5069  144.4361  154.8740 H   0  0  0  0  0  0  0  0  0  0  0  0
  145.1399  142.6145  156.5886 H   0  0  0  0  0  0  0  0  0  0  0  0
  143.6127  142.2289  155.8312 H   0  0  0  0  0  0  0  0  0  0  0  0
  146.2481  140.5012  156.2758 H   0  0  0  0  0  0  0  0  0  0  0  0
  144.6796  139.8935  155.7996 H   0  0  0  0  0  0  0  0  0  0  0  0
  146.4102  138.3609  154.9105 H   0  0  0  0  0  0  0  0  0  0  0  0
  145.5494  139.1195  153.6170 H   0  0  0  0  0  0  0  0  0  0  0  0
  148.2364  140.1763  155.7993 H   0  0  0  0  0  0  0  0  0  0  0  0
  150.3531  138.8197  155.4672 H   0  0  0  0  0  0  0  0  0  0  0  0
  149.7460  138.3218  153.8944 H   0  0  0  0  0  0  0  0  0  0  0  0
  148.8942  137.8712  155.3743 H   0  0  0  0  0  0  0  0  0  0  0  0
  150.5192  140.8059  154.0556 H   0  0  0  0  0  0  0  0  0  0  0  0
  149.1167  141.7222  153.6130 H   0  0  0  0  0  0  0  0  0  0  0  0
  149.4311  142.9965  155.4707 H   0  0  0  0  0  0  0  0  0  0  0  0
  150.0111  143.5992  157.2513 H   0  0  0  0  0  0  0  0  0  0  0  0
  152.7925  141.3481  158.7453 H   0  0  0  0  0  0  0  0  0  0  0  0
  153.9009  141.2427  161.3573 H   0  0  0  0  0  0  0  0  0  0  0  0
  152.8124  141.9039  162.5782 H   0  0  0  0  0  0  0  0  0  0  0  0
  154.0093  142.9460  161.8052 H   0  0  0  0  0  0  0  0  0  0  0  0
  147.9959  141.4916  152.6065 H   0  0  0  0  0  0  0  0  0  0  0  0
  146.4204  140.8266  152.3517 H   0  0  0  0  0  0  0  0  0  0  0  0
  146.2532  143.0139  153.4735 H   0  0  0  0  0  0  0  0  0  0  0  0
  147.2332  142.4778  154.8152 H   0  0  0  0  0  0  0  0  0  0  0  0
  144.6393  141.3776  153.9961 H   0  0  0  0  0  0  0  0  0  0  0  0
  1  2  1  0  0  0  0
  1 22  1  0  0  0  0
  1 23  1  0  0  0  0
  1 24  1  0  0  0  0
  2  3  1  0  0  0  0
  2 25  1  0  0  0  0
  2 26  1  0  0  0  0
  3 21  1  0  0  0  0
  3  4  1  0  0  0  0
  3 47  1  0  0  0  0
  4  5  1  0  0  0  0
  4 27  1  0  0  0  0
  4 28  1  0  0  0  0
  5  6  1  0  0  0  0
  5 29  1  0  0  0  0
  5 30  1  0  0  0  0
  6  7  1  0  0  0  0
  6 20  1  0  0  0  0
  7  8  1  0  0  0  0
  7  9  1  0  0  0  0
  7 31  1  0  0  0  0
  8 32  1  0  0  0  0
  8 33  1  0  0  0  0
  8 34  1  0  0  0  0
  9 10  1  0  0  0  0
  9 35  1  0  0  0  0
  9 36  1  0  0  0  0
 10 11  1  0  0  0  0
 10 37  1  0  0  0  0
 11 12  2  0  0  0  0
 11 13  1  0  0  0  0
 13 14  1  0  0  0  0
 13 38  1  0  0  0  0
 14 19  2  0  0  0  0
 14 15  1  0  0  0  0
 15 16  2  0  0  0  0
 15 39  1  0  0  0  0
 16 17  1  0  0  0  0
 16 18  1  0  0  0  0
 17 40  1  0  0  0  0
 17 41  1  0  0  0  0
 17 42  1  0  0  0  0
 18 19  1  0  0  0  0
 20 21  1  0  0  0  0
 20 43  1  0  0  0  0
 20 44  1  0  0  0  0
 21 45  1  0  0  0  0
 21 46  1  0  0  0  0
M  CHG  1   3   1
M  END
> <s_m_source_file>
AV-unprocessed.smi

> <i_m_source_file_index>
1586

> <i_lp_mmshare_version>
43012

> <i_f3d_flags>
0

> <s_epik_input>
W0NIM11bQ0gyXU4xW0NIMl1bQ0gyXU4oW0NIMl1bQ0gyXTEpW0NASF0oW0NIM10pW0NIMl1bTkhdQyg9TylbTkhdYzJbY0hdYyhbQ0gzXSlvbjI=

> <s_epik_cmdline>
J2VwaWtfcHl0aG9uJywgJy1waCcsICc3LjAnLCAnLXRuJywgJzgnLCAnLW1hJywgJzIwMCcsICctbWV0YWxfYmluZGluZycsICctaW1hZScsICc8aW5maWxlLm1hZT4nLCAnLW9tYWUnLCAnPG91dGZpbGUubWFlPic=

> <r_epik_Ionization_Penalty>
0.0459786

> <r_epik_Ionization_Penalty_Charging>
0.0453654

> <r_epik_Ionization_Penalty_Neutral>
0.000613264

> <r_epik_State_Penalty>
0.163057

> <r_epik_Charging_Adjusted_Penalty>
0.208422

> <i_epik_Tot_Q>
1

> <i_epik_Tot_abs_Q>
1

> <r_epik_Metal_State_Penalty>
0.17399

> <b_epik_Metal_Only>
0

> <s_lp_Force_Field>
OPLS_2005

> <r_lp_Energy>
25.6668

> <b_lp_Chiralities_Consistent>
1

> <s_lp_Variant>
AV-unprocessed.smi:1586-2

> <Gold.Version>
5.8.1

> <Gold.Id.Protein>
6NUR|6NUR_protein|mol2

> <Gold.PLP.Fitness>
43.7842

> <Gold.PLP.PLP>
-35.4299

> <Gold.PLP.part.hbond>
-3.4965

> <Gold.PLP.part.metal>
0.0000

> <Gold.PLP.part.buried>
-6.0634

> <Gold.PLP.part.nonpolar>
-26.2969

> <Gold.PLP.part.repulsive>
0.6182

> <Gold.PLP.ligand.clash>
0.0049

> <Gold.PLP.ligand.torsion>
1.8326

> <Gold.PLP.Chemscore.Hbond>
3.9920

> <Gold.PLP.Chemscore.CHOScore>
0.0000

> <Gold.PLP.Chemscore.Metal>
0.0000

> <Gold.Chemscore.Hbonds>
donor molecule, donor type, donor heavy atom, donor atom, acceptor molecule, acceptor atom, score
      L1  H     3    47       P1 10175  2.00
      L1  H    10    37       P1  8028  1.00
      L1  H    13    38       P1  8028  0.48

> <Gold.PLP.Chemscore.Internal.Correction>
0.0483

> <Gold.Rescore>
     Score         DG    S(hbond)    S(metal)    S(lipo)     H(rot)  DE(clash)    DE(int)     intcor
     16.82     -19.34       2.89        0.00      74.37       1.76       0.19       2.33       ----

> <Gold.Chemscore.Fitness>
16.8160

> <Gold.Chemscore.DG>
-19.3353

> <Gold.Chemscore.ZeroCoef>
-5.4800

> <Gold.Chemscore.Hbond>
2.8949

> <Gold.Chemscore.Metal>
0.0000

> <Gold.Chemscore.Lipo>
74.3713

> <Gold.Chemscore.Internal_Hbond>
0.0000

> <Gold.Chemscore.DEClash>
0.1894

> <Gold.Chemscore.DEInternal>
2.3299

> <Gold.Chemscore.Rot>
1.7637

> <Gold.Chemscore.Internal.Correction>
   9.000000E+99

> <Gold.Chemscore.Hbonds>
donor molecule, donor type, donor heavy atom, donor atom, acceptor molecule, acceptor atom, score
      L1  H     3    47       P1 10175  0.39
      L1  H    10    37       P1  8028  1.00
      L1  H    13    38       P1  8028  0.45

> <Gold.Chemscore.Hbond.Weighted>
-9.6688

> <Gold.Chemscore.Metal.Weighted>
-0.0000

> <Gold.Chemscore.Lipo.Weighted>
-8.7014

> <Gold.Chemscore.Internal_Hbond.Weighted>
0.0000

> <Gold.Chemscore.DEClash.Weighted>
0.1894

> <Gold.Chemscore.DEInternal.Weighted>
2.3299

> <Gold.Chemscore.Rot.Weighted>
4.5150

> <Gold.Chemscore.Internal.Correction.Weighted>
   9.000000E+99

> <Gold.Protein.RotatedTorsions>
[ 6907 6896 6895 6894 ] final  179.43 input  -60.11 | X-H torsion
[ 7974 7965 7964 7962 ] final  135.86 input  175.53 | X-H torsion
[ 8008 7997 7996 7995 ] final -114.84 input   59.86 | X-H torsion
[ 10167 10162 10161 10158 ] final  111.22 input  -65.29 | X-H torsion
[ 10718 10713 10712 10709 ] final   67.44 input   66.30 | X-H torsion
[ 10763 10752 10751 10750 ] final -117.26 input  -60.55 | X-H torsion
[ 11005 11000 10999 10996 ] final   79.81 input  -57.11 | X-H torsion

> <Gold.Protein.ActiveResidues>
 VAL166  LYS551  ARG553  GLY616  TRP617  ASP618  TYR619  PRO620  LYS621  CYS622 
 ASP623  PHE694  ASN695  SER759  ASP760  ASP761  ALA762  ILE779  LEU786  VAL792 
 PHE793  MET794  SER795  GLU796  ALA797  LYS798  CYS799  TRP800  GLU811  SER814 

> <Gold.Protein.RotatedAtoms>
  151.6717  133.3314  159.3197 H   0  0  0  0  0  0  0  0  0  0  0  0  # atno 6907 bound_to 6896
  150.7864  134.6856  159.6478 H   0  0  0  0  0  0  0  0  0  0  0  0  # atno 6908 bound_to 6896
  152.3935  134.6407  160.0150 H   0  0  0  0  0  0  0  0  0  0  0  0  # atno 6909 bound_to 6896
  144.9622  139.4698  143.5474 H   0  0  0  0  0  0  0  0  0  0  0  0  # atno 7974 bound_to 7965
  155.0426  140.0392  157.2515 H   0  0  0  0  0  0  0  0  0  0  0  0  # atno 8008 bound_to 7997
  154.7204  140.2710  155.6523 H   0  0  0  0  0  0  0  0  0  0  0  0  # atno 8009 bound_to 7997
  156.2815  140.2704  156.1873 H   0  0  0  0  0  0  0  0  0  0  0  0  # atno 8010 bound_to 7997
  139.6628  144.7128  151.1833 H   0  0  0  0  0  0  0  0  0  0  0  0  # atno 10167 bound_to 10162
  157.6230  130.9321  150.0243 H   0  0  0  0  0  0  0  0  0  0  0  0  # atno 10718 bound_to 10713
  154.8549  135.4316  154.1952 H   0  0  0  0  0  0  0  0  0  0  0  0  # atno 10763 bound_to 10752
  153.3011  135.6969  153.7208 H   0  0  0  0  0  0  0  0  0  0  0  0  # atno 10764 bound_to 10752
  153.6337  135.3480  155.3024 H   0  0  0  0  0  0  0  0  0  0  0  0  # atno 10765 bound_to 10752
  139.9158  134.7872  156.1828 H   0  0  0  0  0  0  0  0  0  0  0  0  # atno 11005 bound_to 11000
  146.3356  139.8779  142.8829 LP  0  0  0  0  0  0  0  0  0  0  0  0  # atno 17320 bound_to 7965
  145.2683  141.0100  143.3786 LP  0  0  0  0  0  0  0  0  0  0  0  0  # atno 17321 bound_to 7965
  140.7587  143.5967  150.8741 LP  0  0  0  0  0  0  0  0  0  0  0  0  # atno 17342 bound_to 10162
  139.9626  143.6146  152.2998 LP  0  0  0  0  0  0  0  0  0  0  0  0  # atno 17343 bound_to 10162
  156.1386  130.3642  149.9617 LP  0  0  0  0  0  0  0  0  0  0  0  0  # atno 17370 bound_to 10713
  156.7663  130.9169  151.3643 LP  0  0  0  0  0  0  0  0  0  0  0  0  # atno 17371 bound_to 10713
  141.0632  133.6832  156.1993 LP  0  0  0  0  0  0  0  0  0  0  0  0  # atno 17394 bound_to 11000
  140.6628  134.4950  157.5584 LP  0  0  0  0  0  0  0  0  0  0  0  0  # atno 17395 bound_to 11000

$$$$
