AV-unprocessed.smi:3088|AV-procd|sdf|11769|dock1
  -GOLD-   2272017153D 1   1.00000     0.00000
 Structure written by MMmdl.
 30 31  0  0  0  0  0  0  0  0  3 V2000
  146.5877  140.3761  152.8685 N   0  3  0  0  0  0  0  0  0  0  0  0
  147.1910  140.6751  154.1787 C   0  0  0  0  0  0  0  0  0  0  0  0
  148.3316  141.6954  154.0524 C   0  0  0  0  0  0  0  0  0  0  0  0
  149.4729  141.3936  154.9777 C   0  0  0  0  0  0  0  0  0  0  0  0
  150.1482  140.1974  154.9845 C   0  0  0  0  0  0  0  0  0  0  0  0
  151.4209  140.1580  156.1688 S   0  0  0  0  0  0  0  0  0  0  0  0
  151.0188  141.7766  156.6608 C   0  0  0  0  0  0  0  0  0  0  0  0
  151.6304  142.5009  157.6138 N   0  0  0  0  0  0  0  0  0  0  0  0
  151.6976  142.0016  158.9771 C   0  0  0  0  0  0  0  0  0  0  0  0
  152.2033  143.1866  159.7983 C   0  0  0  0  0  0  0  0  0  0  0  0
  151.6124  144.3906  159.0651 C   0  0  0  0  0  0  0  0  0  0  0  0
  151.5931  143.9580  157.5945 C   0  0  0  0  0  0  0  0  0  0  0  0
  149.9976  142.2590  155.9347 N   0  3  0  0  0  0  0  0  0  0  0  0
  146.7976  139.4224  152.6097 H   0  0  0  0  0  0  0  0  0  0  0  0
  146.9632  141.0023  152.1706 H   0  0  0  0  0  0  0  0  0  0  0  0
  146.4137  141.0556  154.8422 H   0  0  0  0  0  0  0  0  0  0  0  0
  147.5593  139.7448  154.6126 H   0  0  0  0  0  0  0  0  0  0  0  0
  148.6918  141.7112  153.0230 H   0  0  0  0  0  0  0  0  0  0  0  0
  147.9455  142.6971  154.2477 H   0  0  0  0  0  0  0  0  0  0  0  0
  149.9744  139.3325  154.3610 H   0  0  0  0  0  0  0  0  0  0  0  0
  150.7019  141.7044  159.3097 H   0  0  0  0  0  0  0  0  0  0  0  0
  152.3622  141.1409  159.0597 H   0  0  0  0  0  0  0  0  0  0  0  0
  151.9061  143.1346  160.8460 H   0  0  0  0  0  0  0  0  0  0  0  0
  153.2927  143.2286  159.7575 H   0  0  0  0  0  0  0  0  0  0  0  0
  150.5913  144.5598  159.4097 H   0  0  0  0  0  0  0  0  0  0  0  0
  152.1766  145.3091  159.2293 H   0  0  0  0  0  0  0  0  0  0  0  0
  152.4794  144.3227  157.0746 H   0  0  0  0  0  0  0  0  0  0  0  0
  150.7124  144.3503  157.0844 H   0  0  0  0  0  0  0  0  0  0  0  0
  145.5862  140.4949  152.9220 H   0  0  0  0  0  0  0  0  0  0  0  0
  149.6323  143.1918  156.0797 H   0  0  0  0  0  0  0  0  0  0  0  0
  1  2  1  0  0  0  0
  1 14  1  0  0  0  0
  1 15  1  0  0  0  0
  1 29  1  0  0  0  0
  2  3  1  0  0  0  0
  2 16  1  0  0  0  0
  2 17  1  0  0  0  0
  3  4  1  0  0  0  0
  3 18  1  0  0  0  0
  3 19  1  0  0  0  0
  4 13  1  0  0  0  0
  4  5  2  0  0  0  0
  5  6  1  0  0  0  0
  5 20  1  0  0  0  0
  6  7  1  0  0  0  0
  7  8  1  0  0  0  0
  7 13  2  0  0  0  0
  8 12  1  0  0  0  0
  8  9  1  0  0  0  0
  9 10  1  0  0  0  0
  9 21  1  0  0  0  0
  9 22  1  0  0  0  0
 10 11  1  0  0  0  0
 10 23  1  0  0  0  0
 10 24  1  0  0  0  0
 11 12  1  0  0  0  0
 11 25  1  0  0  0  0
 11 26  1  0  0  0  0
 12 27  1  0  0  0  0
 12 28  1  0  0  0  0
 13 30  1  0  0  0  0
M  CHG  1   1   1
M  CHG  1  13   1
M  END
> <s_m_source_file>
AV-unprocessed.smi

> <i_m_source_file_index>
3088

> <i_lp_mmshare_version>
43012

> <i_f3d_flags>
0

> <s_epik_input>
W05IMl1bQ0gyXVtDSDJdYzFbY0hdc2MobjEpTjJbQ0gyXVtDSDJdW0NIMl1bQ0gyXTI=

> <s_epik_cmdline>
J2VwaWtfcHl0aG9uJywgJy1waCcsICc3LjAnLCAnLXRuJywgJzgnLCAnLW1hJywgJzIwMCcsICctbWV0YWxfYmluZGluZycsICctaW1hZScsICc8aW5maWxlLm1hZT4nLCAnLW9tYWUnLCAnPG91dGZpbGUubWFlPic=

> <r_lp_tautomer_probability>
1

> <r_epik_Ionization_Penalty>
2.98301

> <r_epik_Ionization_Penalty_Charging>
2.98301

> <r_epik_Ionization_Penalty_Neutral>
1.48168e-07

> <r_epik_State_Penalty>
2.62742

> <r_epik_Charging_Adjusted_Penalty>
5.61042

> <i_epik_Tot_Q>
2

> <i_epik_Tot_abs_Q>
2

> <r_epik_Metal_State_Penalty>
6.71243

> <b_epik_Metal_Only>
0

> <s_lp_Force_Field>
OPLS_2005

> <r_lp_Energy>
37.3398

> <b_lp_Chiralities_Consistent>
1

> <s_lp_Variant>
AV-unprocessed.smi:3088-2

> <Gold.Version>
5.8.1

> <Gold.Id.Protein>
6NUR|6NUR_protein|mol2

> <Gold.PLP.Fitness>
44.2891

> <Gold.PLP.PLP>
-33.9081

> <Gold.PLP.part.hbond>
-2.0000

> <Gold.PLP.part.metal>
0.0000

> <Gold.PLP.part.buried>
-3.2661

> <Gold.PLP.part.nonpolar>
-28.5405

> <Gold.PLP.part.repulsive>
0.1444

> <Gold.PLP.ligand.clash>
0.0000

> <Gold.PLP.ligand.torsion>
0.9364

> <Gold.PLP.Chemscore.Hbond>
4.0000

> <Gold.PLP.Chemscore.CHOScore>
0.0000

> <Gold.PLP.Chemscore.Metal>
0.0000

> <Gold.Chemscore.Hbonds>
donor molecule, donor type, donor heavy atom, donor atom, acceptor molecule, acceptor atom, score
      L1  H     1    29       P1 10175  2.00
      L1  H    13    30       P1  8028  2.00

> <Gold.PLP.Chemscore.Internal.Correction>
0.2537

> <Gold.Rescore>
     Score         DG    S(hbond)    S(metal)    S(lipo)     H(rot)  DE(clash)    DE(int)     intcor
     17.02     -18.02       1.98        0.00      79.86       1.34       0.10       0.90       ----

> <Gold.Chemscore.Fitness>
17.0171

> <Gold.Chemscore.DG>
-18.0185

> <Gold.Chemscore.ZeroCoef>
-5.4800

> <Gold.Chemscore.Hbond>
1.9809

> <Gold.Chemscore.Metal>
0.0000

> <Gold.Chemscore.Lipo>
79.8565

> <Gold.Chemscore.Internal_Hbond>
0.0000

> <Gold.Chemscore.DEClash>
0.0998

> <Gold.Chemscore.DEInternal>
0.9016

> <Gold.Chemscore.Rot>
1.3363

> <Gold.Chemscore.Internal.Correction>
   9.000000E+99

> <Gold.Chemscore.Hbonds>
donor molecule, donor type, donor heavy atom, donor atom, acceptor molecule, acceptor atom, score
      L1  H     1    29       P1 10175  0.81
      L1  H    13    30       P1  8028  0.99

> <Gold.Chemscore.Hbond.Weighted>
-6.6163

> <Gold.Chemscore.Metal.Weighted>
-0.0000

> <Gold.Chemscore.Lipo.Weighted>
-9.3432

> <Gold.Chemscore.Internal_Hbond.Weighted>
0.0000

> <Gold.Chemscore.DEClash.Weighted>
0.0998

> <Gold.Chemscore.DEInternal.Weighted>
0.9016

> <Gold.Chemscore.Rot.Weighted>
3.4210

> <Gold.Chemscore.Internal.Correction.Weighted>
   9.000000E+99

> <Gold.Protein.RotatedTorsions>
[ 6907 6896 6895 6894 ] final  -80.90 input  -60.11 | X-H torsion
[ 7974 7965 7964 7962 ] final  138.10 input  175.53 | X-H torsion
[ 8008 7997 7996 7995 ] final   17.42 input   59.86 | X-H torsion
[ 10167 10162 10161 10158 ] final  -10.48 input  -65.29 | X-H torsion
[ 10718 10713 10712 10709 ] final   89.99 input   66.30 | X-H torsion
[ 10763 10752 10751 10750 ] final   22.46 input  -60.55 | X-H torsion
[ 11005 11000 10999 10996 ] final  -29.48 input  -57.11 | X-H torsion

> <Gold.Protein.ActiveResidues>
 VAL166  LYS551  ARG553  GLY616  TRP617  ASP618  TYR619  PRO620  LYS621  CYS622 
 ASP623  PHE694  ASN695  SER759  ASP760  ASP761  ALA762  ILE779  LEU786  VAL792 
 PHE793  MET794  SER795  GLU796  ALA797  LYS798  CYS799  TRP800  GLU811  SER814 

> <Gold.Protein.RotatedAtoms>
  150.6921  134.3900  159.5071 H   0  0  0  0  0  0  0  0  0  0  0  0  # atno 6907 bound_to 6896
  152.1689  134.8847  160.0545 H   0  0  0  0  0  0  0  0  0  0  0  0  # atno 6908 bound_to 6896
  151.9881  133.3746  159.4170 H   0  0  0  0  0  0  0  0  0  0  0  0  # atno 6909 bound_to 6896
  144.9404  139.4938  143.5574 H   0  0  0  0  0  0  0  0  0  0  0  0  # atno 7974 bound_to 7965
  154.8912  140.2987  155.5370 H   0  0  0  0  0  0  0  0  0  0  0  0  # atno 8008 bound_to 7997
  156.3021  140.2424  156.3862 H   0  0  0  0  0  0  0  0  0  0  0  0  # atno 8009 bound_to 7997
  154.8617  140.0405  157.1658 H   0  0  0  0  0  0  0  0  0  0  0  0  # atno 8010 bound_to 7997
  140.7115  143.5744  150.9059 H   0  0  0  0  0  0  0  0  0  0  0  0  # atno 10167 bound_to 10162
  157.6957  131.0354  150.3509 H   0  0  0  0  0  0  0  0  0  0  0  0  # atno 10718 bound_to 10713
  153.0913  135.6647  153.9848 H   0  0  0  0  0  0  0  0  0  0  0  0  # atno 10763 bound_to 10752
  153.9444  135.2990  155.3443 H   0  0  0  0  0  0  0  0  0  0  0  0  # atno 10764 bound_to 10752
  154.7328  135.5115  153.9065 H   0  0  0  0  0  0  0  0  0  0  0  0  # atno 10765 bound_to 10752
  140.9300  133.7344  156.0923 H   0  0  0  0  0  0  0  0  0  0  0  0  # atno 11005 bound_to 11000
  146.3283  139.8419  142.8889 LP  0  0  0  0  0  0  0  0  0  0  0  0  # atno 17320 bound_to 7965
  145.3000  141.0191  143.3614 LP  0  0  0  0  0  0  0  0  0  0  0  0  # atno 17321 bound_to 7965
  139.9470  143.6316  152.3039 LP  0  0  0  0  0  0  0  0  0  0  0  0  # atno 17342 bound_to 10162
  139.6821  144.7654  151.1589 LP  0  0  0  0  0  0  0  0  0  0  0  0  # atno 17343 bound_to 10162
  156.3957  130.3906  149.6996 LP  0  0  0  0  0  0  0  0  0  0  0  0  # atno 17370 bound_to 10713
  156.4331  130.7824  151.2845 LP  0  0  0  0  0  0  0  0  0  0  0  0  # atno 17371 bound_to 10713
  140.7875  134.3656  157.5473 LP  0  0  0  0  0  0  0  0  0  0  0  0  # atno 17394 bound_to 11000
  139.8794  134.9119  156.3049 LP  0  0  0  0  0  0  0  0  0  0  0  0  # atno 17395 bound_to 11000

$$$$
