AV-unprocessed.smi:1412|AV-procd|sdf|5743|dock6
  -GOLD-   22720 5383D 1   1.00000     0.00000
 Structure written by MMmdl.
 42 43  0  0  0  0  0  0  0  0  2 V2000
  146.4220  142.3711  154.1312 C   0  0  0  0  0  0  0  0  0  0  0  0
  146.1886  140.9690  154.7210 C   0  0  0  0  0  0  0  0  0  0  0  0
  147.0329  139.8147  154.0991 C   0  0  2  0  0  0  0  0  0  0  0  0
  147.0789  139.9907  152.5587 C   0  0  0  0  0  0  0  0  0  0  0  0
  146.3444  138.4455  154.3973 C   0  0  0  0  0  0  0  0  0  0  0  0
  146.6575  137.3956  153.4259 N   0  0  0  0  0  0  0  0  0  0  0  0
  145.7779  136.5306  152.9007 C   0  0  0  0  0  0  0  0  0  0  0  0
  144.5751  136.5451  153.1613 O   0  0  0  0  0  0  0  0  0  0  0  0
  146.3839  135.6658  152.0679 N   0  0  0  0  0  0  0  0  0  0  0  0
  145.7999  134.6044  151.3263 C   0  0  0  0  0  0  0  0  0  0  0  0
  144.4978  134.5496  151.0053 N   0  0  0  0  0  0  0  0  0  0  0  0
  144.1896  133.4070  150.2787 N   0  0  0  0  0  0  0  0  0  0  0  0
  145.2696  132.6463  150.0796 C   0  0  0  0  0  0  0  0  0  0  0  0
  146.7706  133.2535  150.7572 S   0  0  0  0  0  0  0  0  0  0  0  0
  148.4399  139.8193  154.6469 N   0  3  0  0  0  0  0  0  0  0  0  0
  149.3860  138.8365  154.0458 C   0  0  0  0  0  0  0  0  0  0  0  0
  150.7094  138.8147  154.8297 C   0  0  0  0  0  0  0  0  0  0  0  0
  151.2771  140.1169  154.8564 O   0  0  0  0  0  0  0  0  0  0  0  0
  150.4233  141.0511  155.5014 C   0  0  0  0  0  0  0  0  0  0  0  0
  149.0989  141.1537  154.7283 C   0  0  0  0  0  0  0  0  0  0  0  0
  145.7905  143.1027  154.6355 H   0  0  0  0  0  0  0  0  0  0  0  0
  146.1758  142.4135  153.0708 H   0  0  0  0  0  0  0  0  0  0  0  0
  147.4534  142.7002  154.2547 H   0  0  0  0  0  0  0  0  0  0  0  0
  146.3758  141.0315  155.7924 H   0  0  0  0  0  0  0  0  0  0  0  0
  145.1259  140.7516  154.6178 H   0  0  0  0  0  0  0  0  0  0  0  0
  146.1254  139.7404  152.0931 H   0  0  0  0  0  0  0  0  0  0  0  0
  147.8319  139.3480  152.1016 H   0  0  0  0  0  0  0  0  0  0  0  0
  147.3006  141.0179  152.2685 H   0  0  0  0  0  0  0  0  0  0  0  0
  146.6492  138.0754  155.3763 H   0  0  0  0  0  0  0  0  0  0  0  0
  145.2626  138.5627  154.4749 H   0  0  0  0  0  0  0  0  0  0  0  0
  147.6275  137.2983  153.1630 H   0  0  0  0  0  0  0  0  0  0  0  0
  147.3819  135.7692  151.9590 H   0  0  0  0  0  0  0  0  0  0  0  0
  145.1816  131.7211  149.5295 H   0  0  0  0  0  0  0  0  0  0  0  0
  148.9818  137.8263  154.0571 H   0  0  0  0  0  0  0  0  0  0  0  0
  149.5862  139.0920  153.0052 H   0  0  0  0  0  0  0  0  0  0  0  0
  150.5533  138.4510  155.8467 H   0  0  0  0  0  0  0  0  0  0  0  0
  151.4151  138.1335  154.3538 H   0  0  0  0  0  0  0  0  0  0  0  0
  150.2497  140.7547  156.5373 H   0  0  0  0  0  0  0  0  0  0  0  0
  150.9194  142.0215  155.5269 H   0  0  0  0  0  0  0  0  0  0  0  0
  149.2996  141.5387  153.7284 H   0  0  0  0  0  0  0  0  0  0  0  0
  148.4679  141.8842  155.2313 H   0  0  0  0  0  0  0  0  0  0  0  0
  148.3311  139.5196  155.6053 H   0  0  0  0  0  0  0  0  0  0  0  0
  1  2  1  0  0  0  0
  1 21  1  0  0  0  0
  1 22  1  0  0  0  0
  1 23  1  0  0  0  0
  2  3  1  0  0  0  0
  2 24  1  0  0  0  0
  2 25  1  0  0  0  0
  3  4  1  0  0  0  0
  3  5  1  0  0  0  0
  3 15  1  0  0  0  0
  4 26  1  0  0  0  0
  4 27  1  0  0  0  0
  4 28  1  0  0  0  0
  5  6  1  0  0  0  0
  5 29  1  0  0  0  0
  5 30  1  0  0  0  0
  6  7  1  0  0  0  0
  6 31  1  0  0  0  0
  7  8  2  0  0  0  0
  7  9  1  0  0  0  0
  9 10  1  0  0  0  0
  9 32  1  0  0  0  0
 10 14  1  0  0  0  0
 10 11  2  0  0  0  0
 11 12  1  0  0  0  0
 12 13  2  0  0  0  0
 13 14  1  0  0  0  0
 13 33  1  0  0  0  0
 15 20  1  0  0  0  0
 15 16  1  0  0  0  0
 15 42  1  0  0  0  0
 16 17  1  0  0  0  0
 16 34  1  0  0  0  0
 16 35  1  0  0  0  0
 17 18  1  0  0  0  0
 17 36  1  0  0  0  0
 17 37  1  0  0  0  0
 18 19  1  0  0  0  0
 19 20  1  0  0  0  0
 19 38  1  0  0  0  0
 19 39  1  0  0  0  0
 20 40  1  0  0  0  0
 20 41  1  0  0  0  0
M  CHG  1  15   1
M  END
> <s_m_source_file>
AV-unprocessed.smi

> <i_m_source_file_index>
1412

> <i_lp_mmshare_version>
43012

> <i_f3d_flags>
0

> <s_epik_input>
W0NIMl0xW0NIMl1PW0NIMl1bQ0gyXU4xW0NAQF0oW0NIM10pKFtDSDJdW0NIM10pW0NIMl1bTkhdQyg9TylbTkhdYzJubltjSF1zMg==

> <s_epik_cmdline>
J2VwaWtfcHl0aG9uJywgJy1waCcsICc3LjAnLCAnLXRuJywgJzgnLCAnLW1hJywgJzIwMCcsICctbWV0YWxfYmluZGluZycsICctaW1hZScsICc8aW5maWxlLm1hZT4nLCAnLW9tYWUnLCAnPG91dGZpbGUubWFlPic=

> <r_lp_tautomer_probability>
1

> <r_epik_Ionization_Penalty>
0.554649

> <r_epik_Ionization_Penalty_Charging>
0.553838

> <r_epik_Ionization_Penalty_Neutral>
0.000811527

> <r_epik_State_Penalty>
0.564424

> <r_epik_Charging_Adjusted_Penalty>
1.11826

> <i_epik_Tot_Q>
1

> <i_epik_Tot_abs_Q>
1

> <r_epik_Metal_State_Penalty>
0.786249

> <b_epik_Metal_Only>
0

> <s_lp_Force_Field>
OPLS_2005

> <r_lp_Energy>
32.8849

> <b_lp_Chiralities_Consistent>
1

> <s_lp_Variant>
AV-unprocessed.smi:1412-4

> <Gold.Version>
5.8.1

> <Gold.Id.Protein>
6NUR|6NUR_protein|mol2

> <Gold.PLP.Fitness>
37.1429

> <Gold.PLP.PLP>
-31.2540

> <Gold.PLP.part.hbond>
-3.0000

> <Gold.PLP.part.metal>
0.0000

> <Gold.PLP.part.buried>
-3.3882

> <Gold.PLP.part.nonpolar>
-25.7609

> <Gold.PLP.part.repulsive>
0.6521

> <Gold.PLP.ligand.clash>
0.0000

> <Gold.PLP.ligand.torsion>
1.0758

> <Gold.PLP.Chemscore.Hbond>
2.6292

> <Gold.PLP.Chemscore.CHOScore>
0.0000

> <Gold.PLP.Chemscore.Metal>
0.0000

> <Gold.Chemscore.Hbonds>
donor molecule, donor type, donor heavy atom, donor atom, acceptor molecule, acceptor atom, score
      L1  H     6    31       P1  7948  0.63
      L1  H     9    32       P1  7948  1.00
      P1  H  7989  7998       L1    18  1.00

> <Gold.PLP.Chemscore.Internal.Correction>
0.1528

> <Gold.Rescore>
     Score         DG    S(hbond)    S(metal)    S(lipo)     H(rot)  DE(clash)    DE(int)     intcor
     13.54     -17.21       2.43        0.00      72.76       1.91       1.09       2.58       ----

> <Gold.Chemscore.Fitness>
13.5368

> <Gold.Chemscore.DG>
-17.2102

> <Gold.Chemscore.ZeroCoef>
-5.4800

> <Gold.Chemscore.Hbond>
2.4304

> <Gold.Chemscore.Metal>
0.0000

> <Gold.Chemscore.Lipo>
72.7571

> <Gold.Chemscore.Internal_Hbond>
0.0000

> <Gold.Chemscore.DEClash>
1.0900

> <Gold.Chemscore.DEInternal>
2.5834

> <Gold.Chemscore.Rot>
1.9140

> <Gold.Chemscore.Internal.Correction>
   9.000000E+99

> <Gold.Chemscore.Hbonds>
donor molecule, donor type, donor heavy atom, donor atom, acceptor molecule, acceptor atom, score
      L1  H     6    31       P1  7948  0.62
      L1  H     9    32       P1  7948  0.99
      P1  H  7989  7998       L1    18  0.33

> <Gold.Chemscore.Hbond.Weighted>
-8.1174

> <Gold.Chemscore.Metal.Weighted>
-0.0000

> <Gold.Chemscore.Lipo.Weighted>
-8.5126

> <Gold.Chemscore.Internal_Hbond.Weighted>
0.0000

> <Gold.Chemscore.DEClash.Weighted>
1.0900

> <Gold.Chemscore.DEInternal.Weighted>
2.5834

> <Gold.Chemscore.Rot.Weighted>
4.8998

> <Gold.Chemscore.Internal.Correction.Weighted>
   9.000000E+99

> <Gold.Protein.RotatedTorsions>
[ 6907 6896 6895 6894 ] final  115.60 input  -60.11 | X-H torsion
[ 7974 7965 7964 7962 ] final -148.68 input  175.53 | X-H torsion
[ 8008 7997 7996 7995 ] final -145.21 input   59.86 | X-H torsion
[ 10167 10162 10161 10158 ] final  -85.61 input  -65.29 | X-H torsion
[ 10718 10713 10712 10709 ] final  140.82 input   66.30 | X-H torsion
[ 10763 10752 10751 10750 ] final  -91.31 input  -60.55 | X-H torsion
[ 11005 11000 10999 10996 ] final    0.73 input  -57.11 | X-H torsion

> <Gold.Protein.ActiveResidues>
 VAL166  LYS551  ARG553  GLY616  TRP617  ASP618  TYR619  PRO620  LYS621  CYS622 
 ASP623  PHE694  ASN695  SER759  ASP760  ASP761  ALA762  ILE779  LEU786  VAL792 
 PHE793  MET794  SER795  GLU796  ALA797  LYS798  CYS799  TRP800  GLU811  SER814 

> <Gold.Protein.RotatedAtoms>
  152.4731  133.8076  159.6985 H   0  0  0  0  0  0  0  0  0  0  0  0  # atno 6907 bound_to 6896
  150.8732  133.7466  159.2961 H   0  0  0  0  0  0  0  0  0  0  0  0  # atno 6908 bound_to 6896
  151.4994  135.1064  159.9877 H   0  0  0  0  0  0  0  0  0  0  0  0  # atno 6909 bound_to 6896
  144.8014  140.5164  143.5704 H   0  0  0  0  0  0  0  0  0  0  0  0  # atno 7974 bound_to 7965
  155.5395  140.0607  157.2873 H   0  0  0  0  0  0  0  0  0  0  0  0  # atno 8008 bound_to 7997
  154.4457  140.1921  156.0620 H   0  0  0  0  0  0  0  0  0  0  0  0  # atno 8009 bound_to 7997
  156.0595  140.3274  155.7448 H   0  0  0  0  0  0  0  0  0  0  0  0  # atno 8010 bound_to 7997
  140.4020  143.2658  151.9129 H   0  0  0  0  0  0  0  0  0  0  0  0  # atno 10167 bound_to 10162
  157.3989  131.1014  151.0571 H   0  0  0  0  0  0  0  0  0  0  0  0  # atno 10718 bound_to 10713
  154.6747  135.5272  153.8184 H   0  0  0  0  0  0  0  0  0  0  0  0  # atno 10763 bound_to 10752
  153.0524  135.6537  154.0669 H   0  0  0  0  0  0  0  0  0  0  0  0  # atno 10764 bound_to 10752
  154.0564  135.2965  155.3312 H   0  0  0  0  0  0  0  0  0  0  0  0  # atno 10765 bound_to 10752
  140.6233  133.9641  155.8236 H   0  0  0  0  0  0  0  0  0  0  0  0  # atno 11005 bound_to 11000
  145.5544  139.1477  143.3376 LP  0  0  0  0  0  0  0  0  0  0  0  0  # atno 17320 bound_to 7965
  146.2296  140.5682  142.8981 LP  0  0  0  0  0  0  0  0  0  0  0  0  # atno 17321 bound_to 7965
  139.4784  144.5623  151.8219 LP  0  0  0  0  0  0  0  0  0  0  0  0  # atno 17342 bound_to 10162
  140.4729  144.1561  150.5920 LP  0  0  0  0  0  0  0  0  0  0  0  0  # atno 17343 bound_to 10162
  157.1578  130.6212  149.5601 LP  0  0  0  0  0  0  0  0  0  0  0  0  # atno 17370 bound_to 10713
  155.9818  130.4827  150.6846 LP  0  0  0  0  0  0  0  0  0  0  0  0  # atno 17371 bound_to 10713
  141.0727  134.0181  157.3503 LP  0  0  0  0  0  0  0  0  0  0  0  0  # atno 17394 bound_to 11000
  139.9144  135.0195  156.7824 LP  0  0  0  0  0  0  0  0  0  0  0  0  # atno 17395 bound_to 11000

$$$$
