AV-unprocessed.smi:1999|AV-procd|sdf|8099|dock1
  -GOLD-   2272010323D 1   1.00000     0.00000
 Structure written by MMmdl.
 38 39  0  0  0  0  0  0  0  0  3 V2000
  152.8839  138.3131  160.3431 C   0  0  0  0  0  0  0  0  0  0  0  0
  152.2206  137.5925  159.2197 C   0  0  0  0  0  0  0  0  0  0  0  0
  151.1846  136.7685  159.3972 N   0  0  0  0  0  0  0  0  0  0  0  0
  150.7423  136.2207  158.2021 N   0  0  0  0  0  0  0  0  0  0  0  0
  151.4402  136.6458  157.1389 C   0  0  0  0  0  0  0  0  0  0  0  0
  151.1668  136.2379  155.8888 N   0  5  0  0  0  0  0  0  0  0  0  0
  150.3500  135.1804  155.6914 C   0  0  0  0  0  0  0  0  0  0  0  0
  149.8753  134.4531  156.5665 O   0  0  0  0  0  0  0  0  0  0  0  0
  150.0973  134.9292  154.3977 N   0  0  0  0  0  0  0  0  0  0  0  0
  149.3507  133.7912  153.8575 C   0  0  1  0  0  0  0  0  0  0  0  0
  149.8073  132.5052  154.5594 C   0  0  0  0  0  0  0  0  0  0  0  0
  147.8293  134.0138  154.0152 C   0  0  0  0  0  0  0  0  0  0  0  0
  147.1889  134.4802  152.7598 N   0  3  0  0  0  0  0  0  0  0  0  0
  146.9026  133.3907  151.7971 C   0  0  0  0  0  0  0  0  0  0  0  0
  146.3557  133.9808  150.4872 C   0  0  0  0  0  0  0  0  0  0  0  0
  145.1871  134.7448  150.7628 O   0  0  0  0  0  0  0  0  0  0  0  0
  145.4565  135.8371  151.6343 C   0  0  0  0  0  0  0  0  0  0  0  0
  145.9823  135.3090  152.9801 C   0  0  0  0  0  0  0  0  0  0  0  0
  152.7377  137.7658  157.5508 S   0  0  0  0  0  0  0  0  0  0  0  0
  152.5227  139.3406  160.3897 H   0  0  0  0  0  0  0  0  0  0  0  0
  153.9636  138.3271  160.1941 H   0  0  0  0  0  0  0  0  0  0  0  0
  152.6699  137.8221  161.2930 H   0  0  0  0  0  0  0  0  0  0  0  0
  150.4990  135.5652  153.7240 H   0  0  0  0  0  0  0  0  0  0  0  0
  149.5840  133.6727  152.7986 H   0  0  0  0  0  0  0  0  0  0  0  0
  149.2868  131.6346  154.1596 H   0  0  0  0  0  0  0  0  0  0  0  0
  149.6129  132.5456  155.6318 H   0  0  0  0  0  0  0  0  0  0  0  0
  150.8766  132.3412  154.4209 H   0  0  0  0  0  0  0  0  0  0  0  0
  147.3358  133.1085  154.3720 H   0  0  0  0  0  0  0  0  0  0  0  0
  147.6784  134.7669  154.7902 H   0  0  0  0  0  0  0  0  0  0  0  0
  147.8072  132.8189  151.5909 H   0  0  0  0  0  0  0  0  0  0  0  0
  146.1781  132.6984  152.2281 H   0  0  0  0  0  0  0  0  0  0  0  0
  147.1069  134.6024  149.9967 H   0  0  0  0  0  0  0  0  0  0  0  0
  146.1002  133.1807  149.7923 H   0  0  0  0  0  0  0  0  0  0  0  0
  146.1780  136.5145  151.1744 H   0  0  0  0  0  0  0  0  0  0  0  0
  144.5381  136.4043  151.7853 H   0  0  0  0  0  0  0  0  0  0  0  0
  145.2151  134.7176  153.4822 H   0  0  0  0  0  0  0  0  0  0  0  0
  146.2227  136.1495  153.6323 H   0  0  0  0  0  0  0  0  0  0  0  0
  147.8652  135.0880  152.3176 H   0  0  0  0  0  0  0  0  0  0  0  0
  1  2  1  0  0  0  0
  1 20  1  0  0  0  0
  1 21  1  0  0  0  0
  1 22  1  0  0  0  0
  2 19  1  0  0  0  0
  2  3  2  0  0  0  0
  3  4  1  0  0  0  0
  4  5  2  0  0  0  0
  5  6  1  0  0  0  0
  5 19  1  0  0  0  0
  6  7  1  0  0  0  0
  7  8  2  0  0  0  0
  7  9  1  0  0  0  0
  9 10  1  0  0  0  0
  9 23  1  0  0  0  0
 10 11  1  0  0  0  0
 10 12  1  0  0  0  0
 10 24  1  0  0  0  0
 11 25  1  0  0  0  0
 11 26  1  0  0  0  0
 11 27  1  0  0  0  0
 12 13  1  0  0  0  0
 12 28  1  0  0  0  0
 12 29  1  0  0  0  0
 13 18  1  0  0  0  0
 13 14  1  0  0  0  0
 13 38  1  0  0  0  0
 14 15  1  0  0  0  0
 14 30  1  0  0  0  0
 14 31  1  0  0  0  0
 15 16  1  0  0  0  0
 15 32  1  0  0  0  0
 15 33  1  0  0  0  0
 16 17  1  0  0  0  0
 17 18  1  0  0  0  0
 17 34  1  0  0  0  0
 17 35  1  0  0  0  0
 18 36  1  0  0  0  0
 18 37  1  0  0  0  0
M  CHG  1   6  -1
M  CHG  1  13   1
M  END
> <s_m_source_file>
AV-unprocessed.smi

> <i_m_source_file_index>
1999

> <i_lp_mmshare_version>
43012

> <i_f3d_flags>
0

> <s_epik_input>
W0NIM11jMW5uYyhzMSlbTkhdQyg9TylbTkhdW0NASF0oW0NIM10pW0NIMl1OMltDSDJdW0NIMl1PW0NIMl1bQ0gyXTI=

> <s_epik_cmdline>
J2VwaWtfcHl0aG9uJywgJy1waCcsICc3LjAnLCAnLXRuJywgJzgnLCAnLW1hJywgJzIwMCcsICctbWV0YWxfYmluZGluZycsICctaW1hZScsICc8aW5maWxlLm1hZT4nLCAnLW9tYWUnLCAnPG91dGZpbGUubWFlPic=

> <r_lp_tautomer_probability>
1

> <r_epik_Ionization_Penalty>
3.39984

> <r_epik_Ionization_Penalty_Charging>
3.28696

> <r_epik_Ionization_Penalty_Neutral>
0.11288

> <r_epik_State_Penalty>
3.47917

> <r_epik_Charging_Adjusted_Penalty>
6.76613

> <i_epik_Tot_Q>
0

> <i_epik_Tot_abs_Q>
2

> <r_epik_Metal_State_Penalty>
1.13142

> <b_epik_Metal_Only>
1

> <s_lp_Force_Field>
OPLS_2005

> <r_lp_Energy>
12.2925

> <b_lp_Chiralities_Consistent>
1

> <s_lp_Variant>
AV-unprocessed.smi:1999-8

> <Gold.Version>
5.8.1

> <Gold.Id.Protein>
6NUR|6NUR_protein|mol2

> <Gold.PLP.Fitness>
38.6712

> <Gold.PLP.PLP>
-26.6503

> <Gold.PLP.part.hbond>
-5.0788

> <Gold.PLP.part.metal>
0.0000

> <Gold.PLP.part.buried>
-3.0571

> <Gold.PLP.part.nonpolar>
-19.0625

> <Gold.PLP.part.repulsive>
0.3101

> <Gold.PLP.ligand.clash>
0.0000

> <Gold.PLP.ligand.torsion>
1.1189

> <Gold.PLP.Chemscore.Hbond>
4.7018

> <Gold.PLP.Chemscore.CHOScore>
0.0000

> <Gold.PLP.Chemscore.Metal>
0.0000

> <Gold.Chemscore.Hbonds>
donor molecule, donor type, donor heavy atom, donor atom, acceptor molecule, acceptor atom, score
      L1  H     9    23       P1  7949  0.05
      L1  H    13    38       P1  7948  2.00
      P1  H  6896  6907       L1     3  0.50
      P1  H 10752 10765       L1     6  0.94

> <Gold.PLP.Chemscore.Internal.Correction>
0.1533

> <Gold.Rescore>
     Score         DG    S(hbond)    S(metal)    S(lipo)     H(rot)  DE(clash)    DE(int)     intcor
      9.43     -13.06       1.83        0.00      47.70       1.60       0.06       3.58       ----

> <Gold.Chemscore.Fitness>
9.4281

> <Gold.Chemscore.DG>
-13.0622

> <Gold.Chemscore.ZeroCoef>
-5.4800

> <Gold.Chemscore.Hbond>
1.8284

> <Gold.Chemscore.Metal>
0.0000

> <Gold.Chemscore.Lipo>
47.6967

> <Gold.Chemscore.Internal_Hbond>
0.0000

> <Gold.Chemscore.DEClash>
0.0557

> <Gold.Chemscore.DEInternal>
3.5785

> <Gold.Chemscore.Rot>
1.6036

> <Gold.Chemscore.Internal.Correction>
   9.000000E+99

> <Gold.Chemscore.Hbonds>
donor molecule, donor type, donor heavy atom, donor atom, acceptor molecule, acceptor atom, score
      L1  H    13    38       P1  7948  0.92
      P1  H  6896  6907       L1     3  0.02
      P1  H 10752 10765       L1     6  0.10

> <Gold.Chemscore.Hbond.Weighted>
-6.1070

> <Gold.Chemscore.Metal.Weighted>
-0.0000

> <Gold.Chemscore.Lipo.Weighted>
-5.5805

> <Gold.Chemscore.Internal_Hbond.Weighted>
0.0000

> <Gold.Chemscore.DEClash.Weighted>
0.0557

> <Gold.Chemscore.DEInternal.Weighted>
3.5785

> <Gold.Chemscore.Rot.Weighted>
4.1053

> <Gold.Chemscore.Internal.Correction.Weighted>
   9.000000E+99

> <Gold.Protein.RotatedTorsions>
[ 6907 6896 6895 6894 ] final    2.27 input  -60.11 | X-H torsion
[ 7974 7965 7964 7962 ] final  -25.37 input  175.53 | X-H torsion
[ 8008 7997 7996 7995 ] final  -89.33 input   59.86 | X-H torsion
[ 10167 10162 10161 10158 ] final  -23.72 input  -65.29 | X-H torsion
[ 10718 10713 10712 10709 ] final  110.09 input   66.30 | X-H torsion
[ 10763 10752 10751 10750 ] final -172.12 input  -60.55 | X-H torsion
[ 11005 11000 10999 10996 ] final  140.19 input  -57.11 | X-H torsion

> <Gold.Protein.ActiveResidues>
 VAL166  LYS551  ARG553  GLY616  TRP617  ASP618  TYR619  PRO620  LYS621  CYS622 
 ASP623  PHE694  ASN695  SER759  ASP760  ASP761  ALA762  ILE779  LEU786  VAL792 
 PHE793  MET794  SER795  GLU796  ALA797  LYS798  CYS799  TRP800  GLU811  SER814 

> <Gold.Protein.RotatedAtoms>
  151.6061  135.1044  160.0070 H   0  0  0  0  0  0  0  0  0  0  0  0  # atno 6907 bound_to 6896
  152.4232  133.7148  159.6510 H   0  0  0  0  0  0  0  0  0  0  0  0  # atno 6908 bound_to 6896
  150.8120  133.8331  159.3199 H   0  0  0  0  0  0  0  0  0  0  0  0  # atno 6909 bound_to 6896
  146.1495  140.4877  142.8617 H   0  0  0  0  0  0  0  0  0  0  0  0  # atno 7974 bound_to 7965
  154.6853  140.0543  157.0308 H   0  0  0  0  0  0  0  0  0  0  0  0  # atno 8008 bound_to 7997
  155.0893  140.3217  155.4559 H   0  0  0  0  0  0  0  0  0  0  0  0  # atno 8009 bound_to 7997
  156.2709  140.2051  156.6020 H   0  0  0  0  0  0  0  0  0  0  0  0  # atno 8010 bound_to 7997
  140.7288  143.4418  151.0646 H   0  0  0  0  0  0  0  0  0  0  0  0  # atno 10167 bound_to 10162
  157.6511  131.0926  150.6550 H   0  0  0  0  0  0  0  0  0  0  0  0  # atno 10718 bound_to 10713
  154.6228  135.2877  155.0306 H   0  0  0  0  0  0  0  0  0  0  0  0  # atno 10763 bound_to 10752
  154.1495  135.6506  153.4964 H   0  0  0  0  0  0  0  0  0  0  0  0  # atno 10764 bound_to 10752
  153.0244  135.5352  154.7025 H   0  0  0  0  0  0  0  0  0  0  0  0  # atno 10765 bound_to 10752
  140.0309  134.9352  157.0660 H   0  0  0  0  0  0  0  0  0  0  0  0  # atno 11005 bound_to 11000
  144.7887  140.5988  143.6556 LP  0  0  0  0  0  0  0  0  0  0  0  0  # atno 17320 bound_to 7965
  145.4857  139.1492  143.3737 LP  0  0  0  0  0  0  0  0  0  0  0  0  # atno 17321 bound_to 7965
  139.8086  143.7983  152.3169 LP  0  0  0  0  0  0  0  0  0  0  0  0  # atno 17342 bound_to 10162
  139.8025  144.7368  150.9806 LP  0  0  0  0  0  0  0  0  0  0  0  0  # atno 17343 bound_to 10162
  156.6862  130.4581  149.5613 LP  0  0  0  0  0  0  0  0  0  0  0  0  # atno 17370 bound_to 10713
  156.1894  130.6550  151.1044 LP  0  0  0  0  0  0  0  0  0  0  0  0  # atno 17371 bound_to 10713
  140.4227  134.1863  155.7165 LP  0  0  0  0  0  0  0  0  0  0  0  0  # atno 17394 bound_to 11000
  141.1830  133.8373  157.1189 LP  0  0  0  0  0  0  0  0  0  0  0  0  # atno 17395 bound_to 11000

$$$$
