AV-unprocessed.smi:363|AV-procd|sdf|2423|dock10
  -GOLD-   2262022363D 1   1.00000     0.00000
 Structure written by MMmdl.
 39 40  0  0  0  0  0  0  0  0  1 V2000
  144.4184  144.1404  154.3803 C   0  0  0  0  0  0  0  0  0  0  0  0
  145.5580  143.3105  154.9587 C   0  0  0  0  0  0  0  0  0  0  0  0
  146.4205  142.6089  154.0366 C   0  0  0  0  0  0  0  0  0  0  0  0
  147.4149  141.8218  154.4771 C   0  0  0  0  0  0  0  0  0  0  0  0
  148.3077  141.0734  153.4928 C   0  0  0  0  0  0  0  0  0  0  0  0
  147.6572  141.6773  155.8712 N   0  0  0  0  0  0  0  0  0  0  0  0
  148.7608  140.8033  156.3345 C   0  0  0  0  0  0  0  0  0  0  0  0
  150.1521  141.3934  156.0031 C   0  0  2  0  0  0  0  0  0  0  0  0
  150.8974  140.4409  155.2710 O   0  0  0  0  0  0  0  0  0  0  0  0
  150.8905  141.7995  157.2698 C   0  0  0  0  0  0  0  0  0  0  0  0
  151.2717  143.1445  157.4654 C   0  0  0  0  0  0  0  0  0  0  0  0
  151.9517  143.5267  158.6382 C   0  0  0  0  0  0  0  0  0  0  0  0
  152.2531  142.5668  159.6235 C   0  0  0  0  0  0  0  0  0  0  0  0
  153.0872  143.0356  161.0593 Cl  0  0  0  0  0  0  0  0  0  0  0  0
  151.8726  141.2241  159.4355 C   0  0  0  0  0  0  0  0  0  0  0  0
  151.1927  140.8416  158.2629 C   0  0  0  0  0  0  0  0  0  0  0  0
  146.9078  142.3356  156.8131 C   0  0  0  0  0  0  0  0  0  0  0  0
  147.1878  142.2382  158.0123 O   0  0  0  0  0  0  0  0  0  0  0  0
  145.7863  143.1645  156.2916 C   0  0  0  0  0  0  0  0  0  0  0  0
  144.9480  143.8481  157.2959 C   0  0  0  0  0  0  0  0  0  0  0  0
  145.5745  144.7898  158.0147 N   0  0  0  0  0  0  0  0  0  0  0  0
  143.7802  143.5578  157.5508 O   0  0  0  0  0  0  0  0  0  0  0  0
  144.2987  143.9547  153.3128 H   0  0  0  0  0  0  0  0  0  0  0  0
  144.6152  145.2047  154.5119 H   0  0  0  0  0  0  0  0  0  0  0  0
  143.4703  143.8966  154.8607 H   0  0  0  0  0  0  0  0  0  0  0  0
  146.2546  142.7120  152.9739 H   0  0  0  0  0  0  0  0  0  0  0  0
  147.8714  141.0833  152.4935 H   0  0  0  0  0  0  0  0  0  0  0  0
  148.4415  140.0275  153.7631 H   0  0  0  0  0  0  0  0  0  0  0  0
  149.2858  141.5506  153.4262 H   0  0  0  0  0  0  0  0  0  0  0  0
  148.6724  140.6540  157.4095 H   0  0  0  0  0  0  0  0  0  0  0  0
  148.6828  139.7822  155.9565 H   0  0  0  0  0  0  0  0  0  0  0  0
  150.0441  142.2742  155.3694 H   0  0  0  0  0  0  0  0  0  0  0  0
  150.9273  139.6379  155.7683 H   0  0  0  0  0  0  0  0  0  0  0  0
  151.0446  143.8899  156.7172 H   0  0  0  0  0  0  0  0  0  0  0  0
  152.2416  144.5574  158.7804 H   0  0  0  0  0  0  0  0  0  0  0  0
  152.1008  140.4856  160.1900 H   0  0  0  0  0  0  0  0  0  0  0  0
  150.9027  139.8097  158.1282 H   0  0  0  0  0  0  0  0  0  0  0  0
  145.0742  145.2920  158.7338 H   0  0  0  0  0  0  0  0  0  0  0  0
  146.5511  144.9823  157.8450 H   0  0  0  0  0  0  0  0  0  0  0  0
  1  2  1  0  0  0  0
  1 23  1  0  0  0  0
  1 24  1  0  0  0  0
  1 25  1  0  0  0  0
  2 19  2  0  0  0  0
  2  3  1  0  0  0  0
  3  4  2  0  0  0  0
  3 26  1  0  0  0  0
  4  5  1  0  0  0  0
  4  6  1  0  0  0  0
  5 27  1  0  0  0  0
  5 28  1  0  0  0  0
  5 29  1  0  0  0  0
  6  7  1  0  0  0  0
  6 17  1  0  0  0  0
  7  8  1  0  0  0  0
  7 30  1  0  0  0  0
  7 31  1  0  0  0  0
  8  9  1  0  0  0  0
  8 10  1  0  0  0  0
  8 32  1  0  0  0  0
  9 33  1  0  0  0  0
 10 16  1  0  0  0  0
 10 11  2  0  0  0  0
 11 12  1  0  0  0  0
 11 34  1  0  0  0  0
 12 13  2  0  0  0  0
 12 35  1  0  0  0  0
 13 14  1  0  0  0  0
 13 15  1  0  0  0  0
 15 16  2  0  0  0  0
 15 36  1  0  0  0  0
 16 37  1  0  0  0  0
 17 18  2  0  0  0  0
 17 19  1  0  0  0  0
 19 20  1  0  0  0  0
 20 21  1  0  0  0  0
 20 22  2  0  0  0  0
 21 38  1  0  0  0  0
 21 39  1  0  0  0  0
M  END
> <s_m_source_file>
AV-unprocessed.smi

> <i_m_source_file_index>
363

> <i_lp_mmshare_version>
43012

> <i_f3d_flags>
0

> <s_epik_input>
W0NIM11jMVtjSF1jKFtDSDNdKW4oYyg9TyljMUMoPU8pW05IMl0pW0NIMl1bQ0BIXShbT0hdKWMyW2NIXVtjSF1jKENsKVtjSF1bY0hdMg==

> <s_epik_cmdline>
J2VwaWtfcHl0aG9uJywgJy1waCcsICc3LjAnLCAnLXRuJywgJzgnLCAnLW1hJywgJzIwMCcsICctbWV0YWxfYmluZGluZycsICctaW1hZScsICc8aW5maWxlLm1hZT4nLCAnLW9tYWUnLCAnPG91dGZpbGUubWFlPic=

> <r_lp_tautomer_probability>
1

> <r_epik_Ionization_Penalty>
3.91973e-07

> <r_epik_Ionization_Penalty_Charging>
1.35363e-07

> <r_epik_Ionization_Penalty_Neutral>
2.5661e-07

> <r_epik_State_Penalty>
-0

> <r_epik_Charging_Adjusted_Penalty>
1.35363e-07

> <i_epik_Tot_Q>
0

> <i_epik_Tot_abs_Q>
0

> <r_epik_Metal_State_Penalty>
-0

> <b_epik_Metal_Only>
0

> <s_lp_Force_Field>
OPLS_2005

> <r_lp_Energy>
39.7948

> <b_lp_Chiralities_Consistent>
1

> <s_lp_Variant>
AV-unprocessed.smi:363-1

> <Gold.Version>
5.8.1

> <Gold.Id.Protein>
6NUR|6NUR_protein|mol2

> <Gold.PLP.Fitness>
44.0832

> <Gold.PLP.PLP>
-41.9490

> <Gold.PLP.part.hbond>
-2.0000

> <Gold.PLP.part.metal>
0.0000

> <Gold.PLP.part.buried>
-3.5189

> <Gold.PLP.part.nonpolar>
-35.8798

> <Gold.PLP.part.repulsive>
0.1290

> <Gold.PLP.ligand.clash>
0.0000

> <Gold.PLP.ligand.torsion>
2.1093

> <Gold.PLP.Chemscore.Hbond>
2.0000

> <Gold.PLP.Chemscore.CHOScore>
0.0000

> <Gold.PLP.Chemscore.Metal>
0.0000

> <Gold.Chemscore.Hbonds>
donor molecule, donor type, donor heavy atom, donor atom, acceptor molecule, acceptor atom, score
      L1  H    21    39       P1  8029  1.00
      P1  H  7989  7998       L1     9  1.00

> <Gold.PLP.Chemscore.Internal.Correction>
0.3528

> <Gold.Rescore>
     Score         DG    S(hbond)    S(metal)    S(lipo)     H(rot)  DE(clash)    DE(int)     intcor
     17.01     -19.34       1.84        0.00     108.48       1.95       0.21       2.12       ----

> <Gold.Chemscore.Fitness>
17.0129

> <Gold.Chemscore.DG>
-19.3377

> <Gold.Chemscore.ZeroCoef>
-5.4800

> <Gold.Chemscore.Hbond>
1.8432

> <Gold.Chemscore.Metal>
0.0000

> <Gold.Chemscore.Lipo>
108.4810

> <Gold.Chemscore.Internal_Hbond>
0.0000

> <Gold.Chemscore.DEClash>
0.2082

> <Gold.Chemscore.DEInternal>
2.1166

> <Gold.Chemscore.Rot>
1.9495

> <Gold.Chemscore.Internal.Correction>
   9.000000E+99

> <Gold.Chemscore.Hbonds>
donor molecule, donor type, donor heavy atom, donor atom, acceptor molecule, acceptor atom, score
      L1  H    21    39       P1  8029  0.58
      P1  H  7989  7998       L1     9  0.93

> <Gold.Chemscore.Hbond.Weighted>
-6.1563

> <Gold.Chemscore.Metal.Weighted>
-0.0000

> <Gold.Chemscore.Lipo.Weighted>
-12.6923

> <Gold.Chemscore.Internal_Hbond.Weighted>
0.0000

> <Gold.Chemscore.DEClash.Weighted>
0.2082

> <Gold.Chemscore.DEInternal.Weighted>
2.1166

> <Gold.Chemscore.Rot.Weighted>
4.9908

> <Gold.Chemscore.Internal.Correction.Weighted>
   9.000000E+99

> <Gold.Protein.RotatedTorsions>
[ 6907 6896 6895 6894 ] final  145.16 input  -60.11 | X-H torsion
[ 7974 7965 7964 7962 ] final -113.53 input  175.53 | X-H torsion
[ 8008 7997 7996 7995 ] final   70.40 input   59.86 | X-H torsion
[ 10167 10162 10161 10158 ] final   79.70 input  -65.29 | X-H torsion
[ 10718 10713 10712 10709 ] final   94.46 input   66.30 | X-H torsion
[ 10763 10752 10751 10750 ] final  -38.64 input  -60.55 | X-H torsion
[ 11005 11000 10999 10996 ] final -156.65 input  -57.11 | X-H torsion

> <Gold.Protein.ActiveResidues>
 VAL166  LYS551  ARG553  GLY616  TRP617  ASP618  TYR619  PRO620  LYS621  CYS622 
 ASP623  PHE694  ASN695  SER759  ASP760  ASP761  ALA762  ILE779  LEU786  VAL792 
 PHE793  MET794  SER795  GLU796  ALA797  LYS798  CYS799  TRP800  GLU811  SER814 

> <Gold.Protein.RotatedAtoms>
  152.1844  133.4729  159.4974 H   0  0  0  0  0  0  0  0  0  0  0  0  # atno 6907 bound_to 6896
  150.6940  134.1793  159.4251 H   0  0  0  0  0  0  0  0  0  0  0  0  # atno 6908 bound_to 6896
  151.9705  135.0079  160.0603 H   0  0  0  0  0  0  0  0  0  0  0  0  # atno 6909 bound_to 6896
  145.1309  140.8724  143.3758 H   0  0  0  0  0  0  0  0  0  0  0  0  # atno 7974 bound_to 7965
  155.7382  140.3491  155.5091 H   0  0  0  0  0  0  0  0  0  0  0  0  # atno 8008 bound_to 7997
  155.9119  140.1052  157.1294 H   0  0  0  0  0  0  0  0  0  0  0  0  # atno 8009 bound_to 7997
  154.4057  140.1266  156.4555 H   0  0  0  0  0  0  0  0  0  0  0  0  # atno 8010 bound_to 7997
  139.9575  144.5984  150.8103 H   0  0  0  0  0  0  0  0  0  0  0  0  # atno 10167 bound_to 10162
  157.6947  131.0513  150.4190 H   0  0  0  0  0  0  0  0  0  0  0  0  # atno 10718 bound_to 10713
  153.9162  135.6787  153.4749 H   0  0  0  0  0  0  0  0  0  0  0  0  # atno 10763 bound_to 10752
  153.1052  135.4809  154.8936 H   0  0  0  0  0  0  0  0  0  0  0  0  # atno 10764 bound_to 10752
  154.7502  135.3183  154.8528 H   0  0  0  0  0  0  0  0  0  0  0  0  # atno 10765 bound_to 10752
  140.6733  134.4224  157.5230 H   0  0  0  0  0  0  0  0  0  0  0  0  # atno 11005 bound_to 11000
  145.0636  139.3086  143.5867 LP  0  0  0  0  0  0  0  0  0  0  0  0  # atno 17320 bound_to 7965
  146.3514  140.0087  142.8669 LP  0  0  0  0  0  0  0  0  0  0  0  0  # atno 17321 bound_to 7965
  140.7564  143.3064  151.2951 LP  0  0  0  0  0  0  0  0  0  0  0  0  # atno 17342 bound_to 10162
  139.6580  144.0241  152.2673 LP  0  0  0  0  0  0  0  0  0  0  0  0  # atno 17343 bound_to 10162
  156.4567  130.4023  149.6601 LP  0  0  0  0  0  0  0  0  0  0  0  0  # atno 17370 bound_to 10713
  156.3731  130.7541  151.2526 LP  0  0  0  0  0  0  0  0  0  0  0  0  # atno 17371 bound_to 10713
  139.8975  134.8636  156.2043 LP  0  0  0  0  0  0  0  0  0  0  0  0  # atno 17394 bound_to 11000
  141.0375  133.6955  156.1538 LP  0  0  0  0  0  0  0  0  0  0  0  0  # atno 17395 bound_to 11000

$$$$
