AV-unprocessed.smi:3140|AV-procd|sdf|11961|dock1
  -GOLD-   2272017363D 1   1.00000     0.00000
 Structure written by MMmdl.
 37 38  0  0  0  0  0  0  0  0  1 V2000
  151.3412  139.1659  154.9632 C   0  0  0  0  0  0  0  0  0  0  0  0
  151.0887  140.3151  155.9552 C   0  0  1  0  0  0  0  0  0  0  0  0
  149.5948  140.4020  156.3280 C   0  0  0  0  0  0  0  0  0  0  0  0
  148.7481  140.6602  155.1757 N   0  0  0  0  0  0  0  0  0  0  0  0
  147.9594  141.7633  154.9254 C   0  0  0  0  0  0  0  0  0  0  0  0
  147.3469  141.5613  153.7218 C   0  0  0  0  0  0  0  0  0  0  0  0
  147.8334  140.2908  153.3049 C   0  0  0  0  0  0  0  0  0  0  0  0
  148.6742  139.7553  154.1752 N   0  0  0  0  0  0  0  0  0  0  0  0
  151.8693  140.1085  157.1708 N   0  0  0  0  0  0  0  0  0  0  0  0
  151.5056  141.0358  158.2309 C   0  0  0  0  0  0  0  0  0  0  0  0
  152.7791  141.5338  158.9302 C   0  0  0  0  0  0  0  0  0  0  0  0
  152.5387  142.7852  159.6423 N   0  0  0  0  0  0  0  0  0  0  0  0
  152.7808  142.8839  161.0718 C   0  0  0  0  0  0  0  0  0  0  0  0
  152.2279  144.2585  161.4748 C   0  0  0  0  0  0  0  0  0  0  0  0
  152.0146  145.0229  160.1635 C   0  0  0  0  0  0  0  0  0  0  0  0
  152.1358  143.9417  159.1029 C   0  0  0  0  0  0  0  0  0  0  0  0
  151.8885  144.1419  157.9144 O   0  0  0  0  0  0  0  0  0  0  0  0
  150.7272  139.2838  154.0701 H   0  0  0  0  0  0  0  0  0  0  0  0
  151.0974  138.1986  155.4042 H   0  0  0  0  0  0  0  0  0  0  0  0
  152.3787  139.1305  154.6322 H   0  0  0  0  0  0  0  0  0  0  0  0
  151.3816  141.2583  155.4919 H   0  0  0  0  0  0  0  0  0  0  0  0
  149.2672  139.4602  156.7696 H   0  0  0  0  0  0  0  0  0  0  0  0
  149.4256  141.1720  157.0832 H   0  0  0  0  0  0  0  0  0  0  0  0
  147.8994  142.5891  155.6187 H   0  0  0  0  0  0  0  0  0  0  0  0
  146.6572  142.2207  153.2162 H   0  0  0  0  0  0  0  0  0  0  0  0
  147.6036  139.7464  152.4007 H   0  0  0  0  0  0  0  0  0  0  0  0
  152.8569  140.1677  156.9671 H   0  0  0  0  0  0  0  0  0  0  0  0
  150.9513  141.8793  157.8208 H   0  0  0  0  0  0  0  0  0  0  0  0
  150.8570  140.5339  158.9500 H   0  0  0  0  0  0  0  0  0  0  0  0
  153.1388  140.7815  159.6341 H   0  0  0  0  0  0  0  0  0  0  0  0
  153.5788  141.6832  158.2024 H   0  0  0  0  0  0  0  0  0  0  0  0
  152.2909  142.0747  161.6151 H   0  0  0  0  0  0  0  0  0  0  0  0
  153.8535  142.8229  161.2598 H   0  0  0  0  0  0  0  0  0  0  0  0
  151.2755  144.1415  161.9935 H   0  0  0  0  0  0  0  0  0  0  0  0
  152.9053  144.7842  162.1485 H   0  0  0  0  0  0  0  0  0  0  0  0
  151.0409  145.5121  160.1249 H   0  0  0  0  0  0  0  0  0  0  0  0
  152.7911  145.7724  160.0083 H   0  0  0  0  0  0  0  0  0  0  0  0
  1  2  1  0  0  0  0
  1 18  1  0  0  0  0
  1 19  1  0  0  0  0
  1 20  1  0  0  0  0
  2  3  1  0  0  0  0
  2  9  1  0  0  0  0
  2 21  1  0  0  0  0
  3  4  1  0  0  0  0
  3 22  1  0  0  0  0
  3 23  1  0  0  0  0
  4  8  1  0  0  0  0
  4  5  1  0  0  0  0
  5  6  2  0  0  0  0
  5 24  1  0  0  0  0
  6  7  1  0  0  0  0
  6 25  1  0  0  0  0
  7  8  2  0  0  0  0
  7 26  1  0  0  0  0
  9 10  1  0  0  0  0
  9 27  1  0  0  0  0
 10 11  1  0  0  0  0
 10 28  1  0  0  0  0
 10 29  1  0  0  0  0
 11 12  1  0  0  0  0
 11 30  1  0  0  0  0
 11 31  1  0  0  0  0
 12 16  1  0  0  0  0
 12 13  1  0  0  0  0
 13 14  1  0  0  0  0
 13 32  1  0  0  0  0
 13 33  1  0  0  0  0
 14 15  1  0  0  0  0
 14 34  1  0  0  0  0
 14 35  1  0  0  0  0
 15 16  1  0  0  0  0
 15 36  1  0  0  0  0
 15 37  1  0  0  0  0
 16 17  2  0  0  0  0
M  END
> <s_m_source_file>
AV-unprocessed.smi

> <i_m_source_file_index>
3140

> <i_lp_mmshare_version>
43012

> <i_f3d_flags>
0

> <s_epik_input>
bjFbY0hdW2NIXVtjSF1uMVtDSDJdW0NAQEhdKFtDSDNdKVtOSF1bQ0gyXVtDSDJdTjJbQ0gyXVtDSDJdW0NIMl1DMj1P

> <s_epik_cmdline>
J2VwaWtfcHl0aG9uJywgJy1waCcsICc3LjAnLCAnLXRuJywgJzgnLCAnLW1hJywgJzIwMCcsICctbWV0YWxfYmluZGluZycsICctaW1hZScsICc8aW5maWxlLm1hZT4nLCAnLW9tYWUnLCAnPG91dGZpbGUubWFlPic=

> <r_lp_tautomer_probability>
1

> <r_epik_Ionization_Penalty>
2.53587

> <r_epik_Ionization_Penalty_Charging>
0

> <r_epik_Ionization_Penalty_Neutral>
2.53587

> <r_epik_State_Penalty>
2.70334

> <r_epik_Charging_Adjusted_Penalty>
2.70334

> <i_epik_Tot_Q>
0

> <i_epik_Tot_abs_Q>
0

> <r_epik_Metal_State_Penalty>
2.7033

> <b_epik_Metal_Only>
0

> <s_lp_Force_Field>
OPLS_2005

> <r_lp_Energy>
20.5339

> <b_lp_Chiralities_Consistent>
1

> <s_lp_Variant>
AV-unprocessed.smi:3140-4

> <Gold.Version>
5.8.1

> <Gold.Id.Protein>
6NUR|6NUR_protein|mol2

> <Gold.PLP.Fitness>
44.0880

> <Gold.PLP.PLP>
-40.4417

> <Gold.PLP.part.hbond>
0.0000

> <Gold.PLP.part.metal>
0.0000

> <Gold.PLP.part.buried>
-1.8848

> <Gold.PLP.part.nonpolar>
-38.4735

> <Gold.PLP.part.repulsive>
0.3517

> <Gold.PLP.ligand.clash>
0.0000

> <Gold.PLP.ligand.torsion>
0.4688

> <Gold.PLP.Chemscore.Hbond>
0.0000

> <Gold.PLP.Chemscore.CHOScore>
1.4797

> <Gold.PLP.Chemscore.Metal>
0.0000

> <Gold.Chemscore.Hbonds>
donor molecule, donor type, donor heavy atom, donor atom, acceptor molecule, acceptor atom, score
      L1  C     5    24       P1  8028  1.00
      L1  C     7    26       P1  7957  0.45

> <Gold.PLP.Chemscore.Internal.Correction>
0.1448

> <Gold.Rescore>
     Score         DG    S(hbond)    S(metal)    S(lipo)     H(rot)  DE(clash)    DE(int)     intcor
      9.26     -11.06       0.00        0.00      90.88       1.97       0.05       1.76       ----

> <Gold.Chemscore.Fitness>
9.2593

> <Gold.Chemscore.DG>
-11.0637

> <Gold.Chemscore.ZeroCoef>
-5.4800

> <Gold.Chemscore.Hbond>
0.0000

> <Gold.Chemscore.Metal>
0.0000

> <Gold.Chemscore.Lipo>
90.8752

> <Gold.Chemscore.Internal_Hbond>
0.0000

> <Gold.Chemscore.DEClash>
0.0466

> <Gold.Chemscore.DEInternal>
1.7578

> <Gold.Chemscore.Rot>
1.9722

> <Gold.Chemscore.Internal.Correction>
   9.000000E+99

> <Gold.Chemscore.Hbond.Weighted>
-0.0000

> <Gold.Chemscore.Metal.Weighted>
-0.0000

> <Gold.Chemscore.Lipo.Weighted>
-10.6324

> <Gold.Chemscore.Internal_Hbond.Weighted>
0.0000

> <Gold.Chemscore.DEClash.Weighted>
0.0466

> <Gold.Chemscore.DEInternal.Weighted>
1.7578

> <Gold.Chemscore.Rot.Weighted>
5.0487

> <Gold.Chemscore.Internal.Correction.Weighted>
   9.000000E+99

> <Gold.Protein.RotatedTorsions>
[ 6907 6896 6895 6894 ] final  166.69 input  -60.11 | X-H torsion
[ 7974 7965 7964 7962 ] final    5.42 input  175.53 | X-H torsion
[ 8008 7997 7996 7995 ] final  -65.35 input   59.86 | X-H torsion
[ 10167 10162 10161 10158 ] final  118.84 input  -65.29 | X-H torsion
[ 10718 10713 10712 10709 ] final   26.64 input   66.30 | X-H torsion
[ 10763 10752 10751 10750 ] final   76.10 input  -60.55 | X-H torsion
[ 11005 11000 10999 10996 ] final -105.67 input  -57.11 | X-H torsion

> <Gold.Protein.ActiveResidues>
 VAL166  LYS551  ARG553  GLY616  TRP617  ASP618  TYR619  PRO620  LYS621  CYS622 
 ASP623  PHE694  ASN695  SER759  ASP760  ASP761  ALA762  ILE779  LEU786  VAL792 
 PHE793  MET794  SER795  GLU796  ALA797  LYS798  CYS799  TRP800  GLU811  SER814 

> <Gold.Protein.RotatedAtoms>
  151.8750  133.3483  159.3747 H   0  0  0  0  0  0  0  0  0  0  0  0  # atno 6907 bound_to 6896
  150.7142  134.5075  159.5600 H   0  0  0  0  0  0  0  0  0  0  0  0  # atno 6908 bound_to 6896
  152.2615  134.8029  160.0480 H   0  0  0  0  0  0  0  0  0  0  0  0  # atno 6909 bound_to 6896
  146.2440  140.0386  142.8384 H   0  0  0  0  0  0  0  0  0  0  0  0  # atno 7974 bound_to 7965
  154.4667  140.0935  156.7038 H   0  0  0  0  0  0  0  0  0  0  0  0  # atno 8008 bound_to 7997
  155.4839  140.3468  155.4326 H   0  0  0  0  0  0  0  0  0  0  0  0  # atno 8009 bound_to 7997
  156.0968  140.1411  156.9509 H   0  0  0  0  0  0  0  0  0  0  0  0  # atno 8010 bound_to 7997
  139.6085  144.7076  151.2899 H   0  0  0  0  0  0  0  0  0  0  0  0  # atno 10167 bound_to 10162
  157.2095  130.6927  149.6222 H   0  0  0  0  0  0  0  0  0  0  0  0  # atno 10718 bound_to 10713
  153.0701  135.4964  154.8287 H   0  0  0  0  0  0  0  0  0  0  0  0  # atno 10763 bound_to 10752
  154.7010  135.3002  154.9342 H   0  0  0  0  0  0  0  0  0  0  0  0  # atno 10764 bound_to 10752
  154.0066  135.6759  153.4815 H   0  0  0  0  0  0  0  0  0  0  0  0  # atno 10765 bound_to 10752
  141.1042  133.8828  157.1763 H   0  0  0  0  0  0  0  0  0  0  0  0  # atno 11005 bound_to 11000
  145.1089  140.9393  143.4668 LP  0  0  0  0  0  0  0  0  0  0  0  0  # atno 17320 bound_to 7965
  145.0596  139.3116  143.5887 LP  0  0  0  0  0  0  0  0  0  0  0  0  # atno 17321 bound_to 7965
  140.7302  143.6887  150.7940 LP  0  0  0  0  0  0  0  0  0  0  0  0  # atno 17342 bound_to 10162
  140.0477  143.5282  152.2688 LP  0  0  0  0  0  0  0  0  0  0  0  0  # atno 17343 bound_to 10162
  155.9692  130.4556  150.5892 LP  0  0  0  0  0  0  0  0  0  0  0  0  # atno 17370 bound_to 10713
  157.3686  131.0762  151.1577 LP  0  0  0  0  0  0  0  0  0  0  0  0  # atno 17371 bound_to 10713
  139.9905  135.0066  156.9964 LP  0  0  0  0  0  0  0  0  0  0  0  0  # atno 17394 bound_to 11000
  140.4945  134.1159  155.7239 LP  0  0  0  0  0  0  0  0  0  0  0  0  # atno 17395 bound_to 11000

$$$$
