AV-unprocessed.smi:1843|AV-procd|sdf|7502|dock9
  -GOLD-   22720 9203D 1   1.00000     0.00000
 Structure written by MMmdl.
 37 39  0  0  0  0  0  0  0  0  1 V2000
  146.6859  138.0656  155.1867 O   0  0  0  0  0  0  0  0  0  0  0  0
  147.2834  137.5094  154.2650 C   0  0  0  0  0  0  0  0  0  0  0  0
  148.5472  137.7700  153.8871 N   0  0  0  0  0  0  0  0  0  0  0  0
  149.4560  138.7088  154.4432 C   0  0  0  0  0  0  0  0  0  0  0  0
  150.7327  138.8299  154.0545 N   0  0  0  0  0  0  0  0  0  0  0  0
  151.3968  139.8235  154.7602 N   0  0  0  0  0  0  0  0  0  0  0  0
  150.6067  140.4241  155.6579 C   0  0  0  0  0  0  0  0  0  0  0  0
  151.0947  141.5278  156.5360 C   0  0  0  0  0  0  0  0  0  0  0  0
  151.3353  141.3166  158.0150 C   0  0  0  0  0  0  0  0  0  0  0  0
  150.1792  142.1672  157.5547 C   0  0  0  0  0  0  0  0  0  0  0  0
  148.9582  139.8082  155.7175 S   0  0  0  0  0  0  0  0  0  0  0  0
  146.7368  136.5515  153.5023 N   0  0  0  0  0  0  0  0  0  0  0  0
  145.3814  136.0247  153.6514 C   0  0  2  0  0  0  0  0  0  0  0  0
  145.1098  134.9314  152.6002 C   0  0  0  0  0  0  0  0  0  0  0  0
  143.6937  134.3537  152.7551 C   0  0  0  0  0  0  0  0  0  0  0  0
  142.6276  135.4585  152.6839 C   0  0  0  0  0  0  0  0  0  0  0  0
  142.8937  136.5678  153.7183 C   0  0  0  0  0  0  0  0  0  0  0  0
  144.3166  137.1481  153.5991 C   0  0  2  0  0  0  0  0  0  0  0  0
  144.4163  137.8823  152.3925 O   0  0  0  0  0  0  0  0  0  0  0  0
  148.9037  137.2301  153.1125 H   0  0  0  0  0  0  0  0  0  0  0  0
  151.7858  142.1718  155.9956 H   0  0  0  0  0  0  0  0  0  0  0  0
  151.0968  140.3451  158.4434 H   0  0  0  0  0  0  0  0  0  0  0  0
  152.1869  141.8257  158.4615 H   0  0  0  0  0  0  0  0  0  0  0  0
  150.2582  143.2434  157.6946 H   0  0  0  0  0  0  0  0  0  0  0  0
  149.1782  141.7548  157.6644 H   0  0  0  0  0  0  0  0  0  0  0  0
  147.2986  136.1501  152.7659 H   0  0  0  0  0  0  0  0  0  0  0  0
  145.3163  135.5472  154.6314 H   0  0  0  0  0  0  0  0  0  0  0  0
  145.2304  135.3377  151.5951 H   0  0  0  0  0  0  0  0  0  0  0  0
  145.8425  134.1295  152.6980 H   0  0  0  0  0  0  0  0  0  0  0  0
  143.5096  133.6095  151.9797 H   0  0  0  0  0  0  0  0  0  0  0  0
  143.6153  133.8316  153.7096 H   0  0  0  0  0  0  0  0  0  0  0  0
  142.6131  135.8864  151.6809 H   0  0  0  0  0  0  0  0  0  0  0  0
  141.6386  135.0301  152.8479 H   0  0  0  0  0  0  0  0  0  0  0  0
  142.1518  137.3608  153.6162 H   0  0  0  0  0  0  0  0  0  0  0  0
  142.7608  136.1566  154.7199 H   0  0  0  0  0  0  0  0  0  0  0  0
  144.4800  137.8487  154.4189 H   0  0  0  0  0  0  0  0  0  0  0  0
  144.1536  138.7736  152.5644 H   0  0  0  0  0  0  0  0  0  0  0  0
  1  2  2  0  0  0  0
  2  3  1  0  0  0  0
  2 12  1  0  0  0  0
  3  4  1  0  0  0  0
  3 20  1  0  0  0  0
  4 11  1  0  0  0  0
  4  5  2  0  0  0  0
  5  6  1  0  0  0  0
  6  7  2  0  0  0  0
  7  8  1  0  0  0  0
  7 11  1  0  0  0  0
  8 10  1  0  0  0  0
  8  9  1  0  0  0  0
  8 21  1  0  0  0  0
  9 10  1  0  0  0  0
  9 22  1  0  0  0  0
  9 23  1  0  0  0  0
 10 24  1  0  0  0  0
 10 25  1  0  0  0  0
 12 13  1  0  0  0  0
 12 26  1  0  0  0  0
 13 18  1  0  0  0  0
 13 14  1  0  0  0  0
 13 27  1  0  0  0  0
 14 15  1  0  0  0  0
 14 28  1  0  0  0  0
 14 29  1  0  0  0  0
 15 16  1  0  0  0  0
 15 30  1  0  0  0  0
 15 31  1  0  0  0  0
 16 17  1  0  0  0  0
 16 32  1  0  0  0  0
 16 33  1  0  0  0  0
 17 18  1  0  0  0  0
 17 34  1  0  0  0  0
 17 35  1  0  0  0  0
 18 19  1  0  0  0  0
 18 36  1  0  0  0  0
 19 37  1  0  0  0  0
M  END
> <s_m_source_file>
AV-unprocessed.smi

> <i_m_source_file_index>
1843

> <i_lp_mmshare_version>
43012

> <i_f3d_flags>
0

> <s_epik_input>
W09IXVtDQEBIXTFbQ0gyXVtDSDJdW0NIMl1bQ0gyXVtDQEhdMVtOSF1DKD1PKVtOSF1jMm5uYyhzMilbQ0hdM1tDSDJdW0NIMl0z

> <s_epik_cmdline>
J2VwaWtfcHl0aG9uJywgJy1waCcsICc3LjAnLCAnLXRuJywgJzgnLCAnLW1hJywgJzIwMCcsICctbWV0YWxfYmluZGluZycsICctaW1hZScsICc8aW5maWxlLm1hZT4nLCAnLW9tYWUnLCAnPG91dGZpbGUubWFlPic=

> <r_lp_tautomer_probability>
1

> <r_epik_Ionization_Penalty>
0.000257313

> <r_epik_Ionization_Penalty_Charging>
0

> <r_epik_Ionization_Penalty_Neutral>
0.000257313

> <r_epik_State_Penalty>
-0

> <r_epik_Charging_Adjusted_Penalty>
0

> <i_epik_Tot_Q>
0

> <i_epik_Tot_abs_Q>
0

> <r_epik_Metal_State_Penalty>
0.147479

> <b_epik_Metal_Only>
0

> <s_lp_Force_Field>
OPLS_2005

> <r_lp_Energy>
10.7354

> <b_lp_Chiralities_Consistent>
1

> <s_lp_Variant>
AV-unprocessed.smi:1843-3

> <Gold.Version>
5.8.1

> <Gold.Id.Protein>
6NUR|6NUR_protein|mol2

> <Gold.PLP.Fitness>
36.5188

> <Gold.PLP.PLP>
-25.0480

> <Gold.PLP.part.hbond>
-5.4044

> <Gold.PLP.part.metal>
0.0000

> <Gold.PLP.part.buried>
-4.4261

> <Gold.PLP.part.nonpolar>
-15.8119

> <Gold.PLP.part.repulsive>
0.3372

> <Gold.PLP.ligand.clash>
0.0000

> <Gold.PLP.ligand.torsion>
0.1516

> <Gold.PLP.Chemscore.Hbond>
3.8780

> <Gold.PLP.Chemscore.CHOScore>
0.0000

> <Gold.PLP.Chemscore.Metal>
0.0000

> <Gold.Chemscore.Hbonds>
donor molecule, donor type, donor heavy atom, donor atom, acceptor molecule, acceptor atom, score
      L1  H     3    20       P1  7948  1.00
      L1  H    12    26       P1  7948  0.93
      L1  H    19    37       P1 10175  1.00
      P1  H  7989  7998       L1     6  0.90

> <Gold.PLP.Chemscore.Internal.Correction>
0.1400

> <Gold.Rescore>
     Score         DG    S(hbond)    S(metal)    S(lipo)     H(rot)  DE(clash)    DE(int)     intcor
     15.34     -16.85       2.97        0.00      50.37       1.74       0.11       1.40       ----

> <Gold.Chemscore.Fitness>
15.3431

> <Gold.Chemscore.DG>
-16.8484

> <Gold.Chemscore.ZeroCoef>
-5.4800

> <Gold.Chemscore.Hbond>
2.9733

> <Gold.Chemscore.Metal>
0.0000

> <Gold.Chemscore.Lipo>
50.3680

> <Gold.Chemscore.Internal_Hbond>
0.0000

> <Gold.Chemscore.DEClash>
0.1089

> <Gold.Chemscore.DEInternal>
1.3964

> <Gold.Chemscore.Rot>
1.7404

> <Gold.Chemscore.Internal.Correction>
   9.000000E+99

> <Gold.Chemscore.Hbonds>
donor molecule, donor type, donor heavy atom, donor atom, acceptor molecule, acceptor atom, score
      L1  H     3    20       P1  7948  0.98
      L1  H    12    26       P1  7948  0.89
      L1  H    19    37       P1 10175  1.00
      P1  H  7989  7998       L1     6  0.12

> <Gold.Chemscore.Hbond.Weighted>
-9.9308

> <Gold.Chemscore.Metal.Weighted>
-0.0000

> <Gold.Chemscore.Lipo.Weighted>
-5.8931

> <Gold.Chemscore.Internal_Hbond.Weighted>
0.0000

> <Gold.Chemscore.DEClash.Weighted>
0.1089

> <Gold.Chemscore.DEInternal.Weighted>
1.3964

> <Gold.Chemscore.Rot.Weighted>
4.4555

> <Gold.Chemscore.Internal.Correction.Weighted>
   9.000000E+99

> <Gold.Protein.RotatedTorsions>
[ 6907 6896 6895 6894 ] final  -67.83 input  -60.11 | X-H torsion
[ 7974 7965 7964 7962 ] final  125.69 input  175.53 | X-H torsion
[ 8008 7997 7996 7995 ] final  124.69 input   59.86 | X-H torsion
[ 10167 10162 10161 10158 ] final  -64.55 input  -65.29 | X-H torsion
[ 10718 10713 10712 10709 ] final  169.37 input   66.30 | X-H torsion
[ 10763 10752 10751 10750 ] final   95.64 input  -60.55 | X-H torsion
[ 11005 11000 10999 10996 ] final  120.46 input  -57.11 | X-H torsion

> <Gold.Protein.ActiveResidues>
 VAL166  LYS551  ARG553  GLY616  TRP617  ASP618  TYR619  PRO620  LYS621  CYS622 
 ASP623  PHE694  ASN695  SER759  ASP760  ASP761  ALA762  ILE779  LEU786  VAL792 
 PHE793  MET794  SER795  GLU796  ALA797  LYS798  CYS799  TRP800  GLU811  SER814 

> <Gold.Protein.RotatedAtoms>
  150.7388  134.5825  159.5945 H   0  0  0  0  0  0  0  0  0  0  0  0  # atno 6907 bound_to 6896
  152.3235  134.7347  160.0317 H   0  0  0  0  0  0  0  0  0  0  0  0  # atno 6908 bound_to 6896
  151.7855  133.3318  159.3520 H   0  0  0  0  0  0  0  0  0  0  0  0  # atno 6909 bound_to 6896
  145.0702  139.3736  143.4961 H   0  0  0  0  0  0  0  0  0  0  0  0  # atno 7974 bound_to 7965
  156.2810  140.2734  156.1828 H   0  0  0  0  0  0  0  0  0  0  0  0  # atno 8008 bound_to 7997
  155.0538  140.0386  157.2571 H   0  0  0  0  0  0  0  0  0  0  0  0  # atno 8009 bound_to 7997
  154.7173  140.2681  155.6579 H   0  0  0  0  0  0  0  0  0  0  0  0  # atno 8010 bound_to 7997
  140.5793  143.2325  151.6377 H   0  0  0  0  0  0  0  0  0  0  0  0  # atno 10167 bound_to 10162
  157.0236  131.0239  151.2767 H   0  0  0  0  0  0  0  0  0  0  0  0  # atno 10718 bound_to 10713
  153.2555  135.4247  155.0841 H   0  0  0  0  0  0  0  0  0  0  0  0  # atno 10763 bound_to 10752
  154.8399  135.3436  154.6451 H   0  0  0  0  0  0  0  0  0  0  0  0  # atno 10764 bound_to 10752
  153.6872  135.7035  153.5157 H   0  0  0  0  0  0  0  0  0  0  0  0  # atno 10765 bound_to 10752
  139.9186  134.9635  156.7811 H   0  0  0  0  0  0  0  0  0  0  0  0  # atno 11005 bound_to 11000
  146.3528  140.0443  142.8640 LP  0  0  0  0  0  0  0  0  0  0  0  0  # atno 17320 bound_to 7965
  145.1302  140.9513  143.4549 LP  0  0  0  0  0  0  0  0  0  0  0  0  # atno 17321 bound_to 7965
  139.5160  144.3360  152.0784 LP  0  0  0  0  0  0  0  0  0  0  0  0  # atno 17342 bound_to 10162
  140.2507  144.4171  150.6223 LP  0  0  0  0  0  0  0  0  0  0  0  0  # atno 17343 bound_to 10162
  157.5231  130.8011  149.7831 LP  0  0  0  0  0  0  0  0  0  0  0  0  # atno 17370 bound_to 10713
  156.0094  130.3840  150.2318 LP  0  0  0  0  0  0  0  0  0  0  0  0  # atno 17371 bound_to 10713
  140.6543  133.9702  155.7771 LP  0  0  0  0  0  0  0  0  0  0  0  0  # atno 17394 bound_to 11000
  141.0686  134.0239  157.3558 LP  0  0  0  0  0  0  0  0  0  0  0  0  # atno 17395 bound_to 11000

$$$$
