AV-unprocessed.smi:3057|AV-procd|sdf|11661|dock3
  -GOLD-   2272017 63D 1   1.00000     0.00000
 Structure written by MMmdl.
 40 42  0  0  0  0  0  0  0  0  1 V2000
  148.1331  133.1172  160.0302 C   0  0  0  0  0  0  0  0  0  0  0  0
  147.0144  134.0758  160.4812 C   0  0  1  0  0  0  0  0  0  0  0  0
  146.4904  133.7109  161.8822 C   0  0  0  0  0  0  0  0  0  0  0  0
  147.2780  134.6201  162.8370 C   0  0  0  0  0  0  0  0  0  0  0  0
  147.6898  135.7679  161.9295 C   0  0  0  0  0  0  0  0  0  0  0  0
  148.0649  136.8612  162.3498 O   0  0  0  0  0  0  0  0  0  0  0  0
  147.5138  135.4277  160.6464 N   0  0  0  0  0  0  0  0  0  0  0  0
  147.4407  136.3362  159.4995 C   0  0  1  0  0  0  0  0  0  0  0  0
  148.8516  136.6827  158.9944 C   0  0  0  0  0  0  0  0  0  0  0  0
  149.6038  135.8060  158.5669 O   0  0  0  0  0  0  0  0  0  0  0  0
  149.1904  137.9787  159.0422 N   0  0  0  0  0  0  0  0  0  0  0  0
  150.4769  138.5161  158.6197 C   0  0  0  0  0  0  0  0  0  0  0  0
  150.2799  139.6295  157.5813 C   0  0  0  0  0  0  0  0  0  0  0  0
  150.7903  140.9721  158.0699 C   0  0  0  0  0  0  0  0  0  0  0  0
  151.6228  141.0563  159.2064 C   0  0  0  0  0  0  0  0  0  0  0  0
  152.0682  142.3271  159.6190 C   0  0  0  0  0  0  0  0  0  0  0  0
  151.6654  143.4587  158.8842 C   0  0  0  0  0  0  0  0  0  0  0  0
  150.8307  143.2686  157.7649 C   0  0  0  0  0  0  0  0  0  0  0  0
  150.3990  142.0545  157.3601 N   0  0  0  0  0  0  0  0  0  0  0  0
  146.6501  135.5880  158.3970 C   0  0  0  0  0  0  0  0  0  0  0  0
  145.7446  134.2454  159.2158 S   0  0  0  0  0  0  0  0  0  0  0  0
  148.9603  133.1060  160.7407 H   0  0  0  0  0  0  0  0  0  0  0  0
  148.5385  133.3962  159.0578 H   0  0  0  0  0  0  0  0  0  0  0  0
  147.7591  132.0967  159.9434 H   0  0  0  0  0  0  0  0  0  0  0  0
  145.4257  133.9347  161.9648 H   0  0  0  0  0  0  0  0  0  0  0  0
  146.6188  132.6538  162.1183 H   0  0  0  0  0  0  0  0  0  0  0  0
  146.6749  134.9604  163.6793 H   0  0  0  0  0  0  0  0  0  0  0  0
  148.1711  134.1234  163.2173 H   0  0  0  0  0  0  0  0  0  0  0  0
  146.9014  137.2384  159.7949 H   0  0  0  0  0  0  0  0  0  0  0  0
  148.5157  138.6353  159.4072 H   0  0  0  0  0  0  0  0  0  0  0  0
  151.0203  138.9074  159.4816 H   0  0  0  0  0  0  0  0  0  0  0  0
  151.0769  137.7080  158.1991 H   0  0  0  0  0  0  0  0  0  0  0  0
  150.7908  139.3688  156.6533 H   0  0  0  0  0  0  0  0  0  0  0  0
  149.2218  139.7245  157.3325 H   0  0  0  0  0  0  0  0  0  0  0  0
  151.9144  140.1696  159.7502 H   0  0  0  0  0  0  0  0  0  0  0  0
  152.7074  142.4317  160.4832 H   0  0  0  0  0  0  0  0  0  0  0  0
  151.9880  144.4485  159.1714 H   0  0  0  0  0  0  0  0  0  0  0  0
  150.5019  144.1142  157.1788 H   0  0  0  0  0  0  0  0  0  0  0  0
  145.9637  136.2473  157.8659 H   0  0  0  0  0  0  0  0  0  0  0  0
  147.3081  135.1329  157.6548 H   0  0  0  0  0  0  0  0  0  0  0  0
  1  2  1  0  0  0  0
  1 22  1  0  0  0  0
  1 23  1  0  0  0  0
  1 24  1  0  0  0  0
  2  7  1  0  0  0  0
  2 21  1  0  0  0  0
  2  3  1  0  0  0  0
  3  4  1  0  0  0  0
  3 25  1  0  0  0  0
  3 26  1  0  0  0  0
  4  5  1  0  0  0  0
  4 27  1  0  0  0  0
  4 28  1  0  0  0  0
  5  6  2  0  0  0  0
  5  7  1  0  0  0  0
  7  8  1  0  0  0  0
  8  9  1  0  0  0  0
  8 20  1  0  0  0  0
  8 29  1  0  0  0  0
  9 10  2  0  0  0  0
  9 11  1  0  0  0  0
 11 12  1  0  0  0  0
 11 30  1  0  0  0  0
 12 13  1  0  0  0  0
 12 31  1  0  0  0  0
 12 32  1  0  0  0  0
 13 14  1  0  0  0  0
 13 33  1  0  0  0  0
 13 34  1  0  0  0  0
 14 19  1  0  0  0  0
 14 15  2  0  0  0  0
 15 16  1  0  0  0  0
 15 35  1  0  0  0  0
 16 17  2  0  0  0  0
 16 36  1  0  0  0  0
 17 18  1  0  0  0  0
 17 37  1  0  0  0  0
 18 19  2  0  0  0  0
 18 38  1  0  0  0  0
 20 21  1  0  0  0  0
 20 39  1  0  0  0  0
 20 40  1  0  0  0  0
M  END
> <s_m_source_file>
AV-unprocessed.smi

> <i_m_source_file_index>
3057

> <i_lp_mmshare_version>
43012

> <i_f3d_flags>
0

> <s_epik_input>
W0NIMl0xW0NIMl1DKD1PKU4oW0NAQF0xMltDSDNdKVtDQEhdKFtDSDJdUzIpQyg9TylbTkhdW0NIMl1bQ0gyXWMzW2NIXVtjSF1bY0hdW2NIXW4z

> <s_epik_cmdline>
J2VwaWtfcHl0aG9uJywgJy1waCcsICc3LjAnLCAnLXRuJywgJzgnLCAnLW1hJywgJzIwMCcsICctbWV0YWxfYmluZGluZycsICctaW1hZScsICc8aW5maWxlLm1hZT4nLCAnLW9tYWUnLCAnPG91dGZpbGUubWFlPic=

> <r_epik_Ionization_Penalty>
0.0249631

> <r_epik_Ionization_Penalty_Charging>
0

> <r_epik_Ionization_Penalty_Neutral>
0.0249631

> <r_epik_State_Penalty>
0.0202943

> <r_epik_Charging_Adjusted_Penalty>
0.0202943

> <i_epik_Tot_Q>
0

> <i_epik_Tot_abs_Q>
0

> <r_epik_Metal_State_Penalty>
0.0194661

> <b_epik_Metal_Only>
0

> <s_lp_Force_Field>
OPLS_2005

> <r_lp_Energy>
25.4312

> <b_lp_Chiralities_Consistent>
1

> <s_lp_Variant>
AV-unprocessed.smi:3057-1

> <Gold.Version>
5.8.1

> <Gold.Id.Protein>
6NUR|6NUR_protein|mol2

> <Gold.PLP.Fitness>
43.9524

> <Gold.PLP.PLP>
-36.0855

> <Gold.PLP.part.hbond>
-1.9723

> <Gold.PLP.part.metal>
0.0000

> <Gold.PLP.part.buried>
-6.0721

> <Gold.PLP.part.nonpolar>
-28.8729

> <Gold.PLP.part.repulsive>
0.2885

> <Gold.PLP.ligand.clash>
0.0000

> <Gold.PLP.ligand.torsion>
0.5737

> <Gold.PLP.Chemscore.Hbond>
2.0000

> <Gold.PLP.Chemscore.CHOScore>
1.0000

> <Gold.PLP.Chemscore.Metal>
0.0000

> <Gold.Chemscore.Hbonds>
donor molecule, donor type, donor heavy atom, donor atom, acceptor molecule, acceptor atom, score
      P1  H  6896  6907       L1    10  1.00
      P1  H  6931  6943       L1     6  1.00
      L1  C    18    38       P1  8028  1.00

> <Gold.PLP.Chemscore.Internal.Correction>
0.0144

> <Gold.Rescore>
     Score         DG    S(hbond)    S(metal)    S(lipo)     H(rot)  DE(clash)    DE(int)     intcor
     18.59     -19.08       2.58        0.00      76.25       1.53       0.00       0.49       ----

> <Gold.Chemscore.Fitness>
18.5879

> <Gold.Chemscore.DG>
-19.0828

> <Gold.Chemscore.ZeroCoef>
-5.4800

> <Gold.Chemscore.Hbond>
2.5773

> <Gold.Chemscore.Metal>
0.0000

> <Gold.Chemscore.Lipo>
76.2510

> <Gold.Chemscore.Internal_Hbond>
0.0000

> <Gold.Chemscore.DEClash>
0.0000

> <Gold.Chemscore.DEInternal>
0.4949

> <Gold.Chemscore.Rot>
1.5339

> <Gold.Chemscore.Internal.Correction>
   9.000000E+99

> <Gold.Chemscore.Hbonds>
donor molecule, donor type, donor heavy atom, donor atom, acceptor molecule, acceptor atom, score
      P1  H  6896  6907       L1    10  0.96
      P1  H  6931  6943       L1     6  0.99

> <Gold.Chemscore.Hbond.Weighted>
-8.6082

> <Gold.Chemscore.Metal.Weighted>
-0.0000

> <Gold.Chemscore.Lipo.Weighted>
-8.9214

> <Gold.Chemscore.Internal_Hbond.Weighted>
0.0000

> <Gold.Chemscore.DEClash.Weighted>
0.0000

> <Gold.Chemscore.DEInternal.Weighted>
0.4949

> <Gold.Chemscore.Rot.Weighted>
3.9267

> <Gold.Chemscore.Internal.Correction.Weighted>
   9.000000E+99

> <Gold.Protein.RotatedTorsions>
[ 6907 6896 6895 6894 ] final  -78.13 input  -60.11 | X-H torsion
[ 7974 7965 7964 7962 ] final   91.60 input  175.53 | X-H torsion
[ 8008 7997 7996 7995 ] final   91.56 input   59.86 | X-H torsion
[ 10167 10162 10161 10158 ] final   96.67 input  -65.29 | X-H torsion
[ 10718 10713 10712 10709 ] final   96.99 input   66.30 | X-H torsion
[ 10763 10752 10751 10750 ] final    5.18 input  -60.55 | X-H torsion
[ 11005 11000 10999 10996 ] final  179.34 input  -57.11 | X-H torsion

> <Gold.Protein.ActiveResidues>
 VAL166  LYS551  ARG553  GLY616  TRP617  ASP618  TYR619  PRO620  LYS621  CYS622 
 ASP623  PHE694  ASN695  SER759  ASP760  ASP761  ALA762  ILE779  LEU786  VAL792 
 PHE793  MET794  SER795  GLU796  ALA797  LYS798  CYS799  TRP800  GLU811  SER814 

> <Gold.Protein.RotatedAtoms>
  150.6980  134.4318  159.5251 H   0  0  0  0  0  0  0  0  0  0  0  0  # atno 6907 bound_to 6896
  152.2044  134.8556  160.0513 H   0  0  0  0  0  0  0  0  0  0  0  0  # atno 6908 bound_to 6896
  151.9465  133.3618  159.4021 H   0  0  0  0  0  0  0  0  0  0  0  0  # atno 6909 bound_to 6896
  145.5034  139.2276  143.2764 H   0  0  0  0  0  0  0  0  0  0  0  0  # atno 7974 bound_to 7965
  156.0251  140.3336  155.7080 H   0  0  0  0  0  0  0  0  0  0  0  0  # atno 8008 bound_to 7997
  155.5966  140.0651  157.2762 H   0  0  0  0  0  0  0  0  0  0  0  0  # atno 8009 bound_to 7997
  154.4331  140.1818  156.1117 H   0  0  0  0  0  0  0  0  0  0  0  0  # atno 8010 bound_to 7997
  139.7873  144.6866  150.9940 H   0  0  0  0  0  0  0  0  0  0  0  0  # atno 10167 bound_to 10162
  157.6919  131.0595  150.4575 H   0  0  0  0  0  0  0  0  0  0  0  0  # atno 10718 bound_to 10713
  153.2624  135.6924  153.7565 H   0  0  0  0  0  0  0  0  0  0  0  0  # atno 10763 bound_to 10752
  153.6619  135.3359  155.3130 H   0  0  0  0  0  0  0  0  0  0  0  0  # atno 10764 bound_to 10752
  154.8435  135.4479  154.1619 H   0  0  0  0  0  0  0  0  0  0  0  0  # atno 10765 bound_to 10752
  140.4051  134.6742  157.4583 H   0  0  0  0  0  0  0  0  0  0  0  0  # atno 11005 bound_to 11000
  146.2211  140.5837  142.9016 LP  0  0  0  0  0  0  0  0  0  0  0  0  # atno 17320 bound_to 7965
  144.7767  140.5754  143.6633 LP  0  0  0  0  0  0  0  0  0  0  0  0  # atno 17321 bound_to 7965
  140.7820  143.4418  151.0540 LP  0  0  0  0  0  0  0  0  0  0  0  0  # atno 17342 bound_to 10162
  139.8097  143.7969  152.3170 LP  0  0  0  0  0  0  0  0  0  0  0  0  # atno 17343 bound_to 10162
  156.4922  130.4098  149.6400 LP  0  0  0  0  0  0  0  0  0  0  0  0  # atno 17370 bound_to 10713
  156.3406  130.7380  151.2325 LP  0  0  0  0  0  0  0  0  0  0  0  0  # atno 17371 bound_to 10713
  140.0308  134.6409  155.9109 LP  0  0  0  0  0  0  0  0  0  0  0  0  # atno 17394 bound_to 11000
  141.1842  133.6552  156.5148 LP  0  0  0  0  0  0  0  0  0  0  0  0  # atno 17395 bound_to 11000

$$$$
