AV-unprocessed.smi:1839|AV-procd|sdf|7486|dock8
  -GOLD-   22720 9183D 1   1.00000     0.00000
 Structure written by MMmdl.
 47 48  0  0  0  0  0  0  0  0  2 V2000
  151.7988  144.5827  160.4833 C   0  0  0  0  0  0  0  0  0  0  0  0
  151.6325  143.8141  159.2497 N   0  0  0  0  0  0  0  0  0  0  0  0
  152.7346  143.9702  158.2928 C   0  0  0  0  0  0  0  0  0  0  0  0
  150.4226  143.2936  158.9278 C   0  0  0  0  0  0  0  0  0  0  0  0
  149.3739  143.7422  159.3967 O   0  0  0  0  0  0  0  0  0  0  0  0
  150.4277  142.2758  158.0336 N   0  0  0  0  0  0  0  0  0  0  0  0
  151.3978  141.1711  158.0723 C   0  0  0  0  0  0  0  0  0  0  0  0
  151.8574  140.8358  156.6420 C   0  0  0  0  0  0  0  0  0  0  0  0
  150.6537  140.5206  155.7363 C   0  0  0  0  0  0  0  0  0  0  0  0
  149.5885  141.6362  155.8145 C   0  0  1  0  0  0  0  0  0  0  0  0
  148.3330  141.2872  155.0059 C   0  0  0  0  0  0  0  0  0  0  0  0
  148.1781  140.1542  154.5503 O   0  0  0  0  0  0  0  0  0  0  0  0
  147.4245  142.2646  154.8677 N   0  0  0  0  0  0  0  0  0  0  0  0
  146.1235  142.1223  154.2208 C   0  0  0  0  0  0  0  0  0  0  0  0
  144.9325  142.3007  155.1875 C   0  0  0  0  0  0  0  0  0  0  0  0
  144.2981  143.6812  155.1389 C   0  0  0  0  0  0  0  0  0  0  0  0
  144.3153  144.5535  156.2486 C   0  0  0  0  0  0  0  0  0  0  0  0
  143.6867  145.8122  156.1448 C   0  0  0  0  0  0  0  0  0  0  0  0
  143.0524  146.1708  154.9371 C   0  0  0  0  0  0  0  0  0  0  0  0
  143.0647  145.2611  153.8602 C   0  0  0  0  0  0  0  0  0  0  0  0
  143.6801  144.0665  153.9982 N   0  3  0  0  0  0  0  0  0  0  0  0
  149.2180  141.9147  157.2872 C   0  0  0  0  0  0  0  0  0  0  0  0
  151.2668  144.1208  161.3167 H   0  0  0  0  0  0  0  0  0  0  0  0
  151.4191  145.5969  160.3548 H   0  0  0  0  0  0  0  0  0  0  0  0
  152.8493  144.6464  160.7695 H   0  0  0  0  0  0  0  0  0  0  0  0
  152.3907  143.9562  157.2575 H   0  0  0  0  0  0  0  0  0  0  0  0
  153.4708  143.1769  158.4221 H   0  0  0  0  0  0  0  0  0  0  0  0
  153.2477  144.9220  158.4366 H   0  0  0  0  0  0  0  0  0  0  0  0
  152.2605  141.3902  158.7016 H   0  0  0  0  0  0  0  0  0  0  0  0
  150.9215  140.2982  158.5216 H   0  0  0  0  0  0  0  0  0  0  0  0
  152.4156  141.6761  156.2285 H   0  0  0  0  0  0  0  0  0  0  0  0
  152.5431  139.9883  156.6582 H   0  0  0  0  0  0  0  0  0  0  0  0
  150.9901  140.3873  154.7074 H   0  0  0  0  0  0  0  0  0  0  0  0
  150.2214  139.5676  156.0460 H   0  0  0  0  0  0  0  0  0  0  0  0
  150.0240  142.5461  155.3967 H   0  0  0  0  0  0  0  0  0  0  0  0
  147.6380  143.1675  155.2671 H   0  0  0  0  0  0  0  0  0  0  0  0
  146.0696  142.8857  153.4444 H   0  0  0  0  0  0  0  0  0  0  0  0
  146.0594  141.1602  153.7104 H   0  0  0  0  0  0  0  0  0  0  0  0
  144.1700  141.5521  154.9700 H   0  0  0  0  0  0  0  0  0  0  0  0
  145.2583  142.1039  156.2101 H   0  0  0  0  0  0  0  0  0  0  0  0
  144.7989  144.2611  157.1696 H   0  0  0  0  0  0  0  0  0  0  0  0
  143.6877  146.4930  156.9836 H   0  0  0  0  0  0  0  0  0  0  0  0
  142.5627  147.1287  154.8385 H   0  0  0  0  0  0  0  0  0  0  0  0
  142.6019  145.4491  152.9020 H   0  0  0  0  0  0  0  0  0  0  0  0
  148.7535  141.0414  157.7488 H   0  0  0  0  0  0  0  0  0  0  0  0
  148.4788  142.7164  157.3228 H   0  0  0  0  0  0  0  0  0  0  0  0
  143.6734  143.4213  153.2073 H   0  0  0  0  0  0  0  0  0  0  0  0
  1  2  1  0  0  0  0
  1 23  1  0  0  0  0
  1 24  1  0  0  0  0
  1 25  1  0  0  0  0
  2  3  1  0  0  0  0
  2  4  1  0  0  0  0
  3 26  1  0  0  0  0
  3 27  1  0  0  0  0
  3 28  1  0  0  0  0
  4  5  2  0  0  0  0
  4  6  1  0  0  0  0
  6 22  1  0  0  0  0
  6  7  1  0  0  0  0
  7  8  1  0  0  0  0
  7 29  1  0  0  0  0
  7 30  1  0  0  0  0
  8  9  1  0  0  0  0
  8 31  1  0  0  0  0
  8 32  1  0  0  0  0
  9 10  1  0  0  0  0
  9 33  1  0  0  0  0
  9 34  1  0  0  0  0
 10 11  1  0  0  0  0
 10 22  1  0  0  0  0
 10 35  1  0  0  0  0
 11 12  2  0  0  0  0
 11 13  1  0  0  0  0
 13 14  1  0  0  0  0
 13 36  1  0  0  0  0
 14 15  1  0  0  0  0
 14 37  1  0  0  0  0
 14 38  1  0  0  0  0
 15 16  1  0  0  0  0
 15 39  1  0  0  0  0
 15 40  1  0  0  0  0
 16 21  1  0  0  0  0
 16 17  2  0  0  0  0
 17 18  1  0  0  0  0
 17 41  1  0  0  0  0
 18 19  2  0  0  0  0
 18 42  1  0  0  0  0
 19 20  1  0  0  0  0
 19 43  1  0  0  0  0
 20 21  2  0  0  0  0
 20 44  1  0  0  0  0
 21 47  1  0  0  0  0
 22 45  1  0  0  0  0
 22 46  1  0  0  0  0
M  CHG  1  21   1
M  END
> <s_m_source_file>
AV-unprocessed.smi

> <i_m_source_file_index>
1839

> <i_lp_mmshare_version>
43012

> <i_f3d_flags>
0

> <s_epik_input>
W0NIM11OKFtDSDNdKUMoPU8pTjFbQ0gyXVtDSDJdW0NIMl1bQ0BIXShbQ0gyXTEpQyg9TylbTkhdW0NIMl1bQ0gyXWMyW2NIXVtjSF1bY0hdW2NIXW4y

> <s_epik_cmdline>
J2VwaWtfcHl0aG9uJywgJy1waCcsICc3LjAnLCAnLXRuJywgJzgnLCAnLW1hJywgJzIwMCcsICctbWV0YWxfYmluZGluZycsICctaW1hZScsICc8aW5maWxlLm1hZT4nLCAnLW9tYWUnLCAnPG91dGZpbGUubWFlPic=

> <r_epik_Ionization_Penalty>
1.8476

> <r_epik_Ionization_Penalty_Charging>
1.84754

> <r_epik_Ionization_Penalty_Neutral>
5.83857e-05

> <r_epik_State_Penalty>
1.96477

> <r_epik_Charging_Adjusted_Penalty>
3.81231

> <i_epik_Tot_Q>
1

> <i_epik_Tot_abs_Q>
1

> <r_epik_Metal_State_Penalty>
1.99061

> <b_epik_Metal_Only>
0

> <s_lp_Force_Field>
OPLS_2005

> <r_lp_Energy>
54.126

> <b_lp_Chiralities_Consistent>
1

> <s_lp_Variant>
AV-unprocessed.smi:1839-3

> <Gold.Version>
5.8.1

> <Gold.Id.Protein>
6NUR|6NUR_protein|mol2

> <Gold.PLP.Fitness>
50.5791

> <Gold.PLP.PLP>
-42.7612

> <Gold.PLP.part.hbond>
-2.4891

> <Gold.PLP.part.metal>
0.0000

> <Gold.PLP.part.buried>
-4.8481

> <Gold.PLP.part.nonpolar>
-36.1709

> <Gold.PLP.part.repulsive>
0.4277

> <Gold.PLP.ligand.clash>
0.0000

> <Gold.PLP.ligand.torsion>
1.2216

> <Gold.PLP.Chemscore.Hbond>
2.9840

> <Gold.PLP.Chemscore.CHOScore>
0.0000

> <Gold.PLP.Chemscore.Metal>
0.0000

> <Gold.Chemscore.Hbonds>
donor molecule, donor type, donor heavy atom, donor atom, acceptor molecule, acceptor atom, score
      L1  H    13    36       P1  8028  1.00
      L1  H    21    47       P1 10174  1.82

> <Gold.PLP.Chemscore.Internal.Correction>
1.3090

> <Gold.Rescore>
     Score         DG    S(hbond)    S(metal)    S(lipo)     H(rot)  DE(clash)    DE(int)     intcor
     14.18     -15.68       1.09        0.00      91.07       1.60       0.28       1.22       ----

> <Gold.Chemscore.Fitness>
14.1800

> <Gold.Chemscore.DG>
-15.6788

> <Gold.Chemscore.ZeroCoef>
-5.4800

> <Gold.Chemscore.Hbond>
1.0934

> <Gold.Chemscore.Metal>
0.0000

> <Gold.Chemscore.Lipo>
91.0736

> <Gold.Chemscore.Internal_Hbond>
0.0000

> <Gold.Chemscore.DEClash>
0.2836

> <Gold.Chemscore.DEInternal>
1.2153

> <Gold.Chemscore.Rot>
1.6049

> <Gold.Chemscore.Internal.Correction>
   9.000000E+99

> <Gold.Chemscore.Hbonds>
donor molecule, donor type, donor heavy atom, donor atom, acceptor molecule, acceptor atom, score
      L1  H    13    36       P1  8028  0.37
      L1  H    21    47       P1 10174  0.54

> <Gold.Chemscore.Hbond.Weighted>
-3.6519

> <Gold.Chemscore.Metal.Weighted>
-0.0000

> <Gold.Chemscore.Lipo.Weighted>
-10.6556

> <Gold.Chemscore.Internal_Hbond.Weighted>
0.0000

> <Gold.Chemscore.DEClash.Weighted>
0.2836

> <Gold.Chemscore.DEInternal.Weighted>
1.2153

> <Gold.Chemscore.Rot.Weighted>
4.1087

> <Gold.Chemscore.Internal.Correction.Weighted>
   9.000000E+99

> <Gold.Protein.RotatedTorsions>
[ 6907 6896 6895 6894 ] final   -4.02 input  -60.11 | X-H torsion
[ 7974 7965 7964 7962 ] final  -17.06 input  175.53 | X-H torsion
[ 8008 7997 7996 7995 ] final   25.38 input   59.86 | X-H torsion
[ 10167 10162 10161 10158 ] final   43.29 input  -65.29 | X-H torsion
[ 10718 10713 10712 10709 ] final -121.38 input   66.30 | X-H torsion
[ 10763 10752 10751 10750 ] final -134.06 input  -60.55 | X-H torsion
[ 11005 11000 10999 10996 ] final   49.88 input  -57.11 | X-H torsion

> <Gold.Protein.ActiveResidues>
 VAL166  LYS551  ARG553  GLY616  TRP617  ASP618  TYR619  PRO620  LYS621  CYS622 
 ASP623  PHE694  ASN695  SER759  ASP760  ASP761  ALA762  ILE779  LEU786  VAL792 
 PHE793  MET794  SER795  GLU796  ALA797  LYS798  CYS799  TRP800  GLU811  SER814 

> <Gold.Protein.RotatedAtoms>
  151.5044  135.1063  159.9837 H   0  0  0  0  0  0  0  0  0  0  0  0  # atno 6907 bound_to 6896
  152.4688  133.7979  159.6947 H   0  0  0  0  0  0  0  0  0  0  0  0  # atno 6908 bound_to 6896
  150.8686  133.7475  159.2994 H   0  0  0  0  0  0  0  0  0  0  0  0  # atno 6909 bound_to 6896
  146.1959  140.3725  142.8441 H   0  0  0  0  0  0  0  0  0  0  0  0  # atno 7974 bound_to 7965
  155.0108  140.3136  155.4830 H   0  0  0  0  0  0  0  0  0  0  0  0  # atno 8008 bound_to 7997
  156.2909  140.2215  156.5164 H   0  0  0  0  0  0  0  0  0  0  0  0  # atno 8009 bound_to 7997
  154.7536  140.0464  157.0902 H   0  0  0  0  0  0  0  0  0  0  0  0  # atno 8010 bound_to 7997
  140.3459  144.2412  150.6150 H   0  0  0  0  0  0  0  0  0  0  0  0  # atno 10167 bound_to 10162
  156.1332  130.6411  150.9655 H   0  0  0  0  0  0  0  0  0  0  0  0  # atno 10718 bound_to 10713
  154.8724  135.3746  154.4674 H   0  0  0  0  0  0  0  0  0  0  0  0  # atno 10763 bound_to 10752
  153.5337  135.7027  153.5675 H   0  0  0  0  0  0  0  0  0  0  0  0  # atno 10764 bound_to 10752
  153.3868  135.3982  155.1861 H   0  0  0  0  0  0  0  0  0  0  0  0  # atno 10765 bound_to 10752
  140.1065  134.5011  155.8715 H   0  0  0  0  0  0  0  0  0  0  0  0  # atno 11005 bound_to 11000
  144.8579  140.7097  143.6126 LP  0  0  0  0  0  0  0  0  0  0  0  0  # atno 17320 bound_to 7965
  145.3646  139.1673  143.4365 LP  0  0  0  0  0  0  0  0  0  0  0  0  # atno 17321 bound_to 7965
  140.5265  143.2253  151.8306 LP  0  0  0  0  0  0  0  0  0  0  0  0  # atno 17342 bound_to 10162
  139.4833  144.4773  151.9351 LP  0  0  0  0  0  0  0  0  0  0  0  0  # atno 17343 bound_to 10162
  157.6508  131.0897  150.8055 LP  0  0  0  0  0  0  0  0  0  0  0  0  # atno 17370 bound_to 10713
  156.8137  130.4961  149.5352 LP  0  0  0  0  0  0  0  0  0  0  0  0  # atno 17371 bound_to 10713
  141.2119  133.6713  156.6621 LP  0  0  0  0  0  0  0  0  0  0  0  0  # atno 17394 bound_to 11000
  140.3148  134.8056  157.4206 LP  0  0  0  0  0  0  0  0  0  0  0  0  # atno 17395 bound_to 11000

$$$$
