AV-unprocessed.smi:2556|AV-procd|sdf|10023|dock2
  -GOLD-   2272014 63D 1   1.00000     0.00000
 Structure written by MMmdl.
 35 37  0  0  0  0  0  0  0  0  1 V2000
  149.6914  135.0104  155.0302 C   0  0  0  0  0  0  0  0  0  0  0  0
  150.0256  136.0856  155.9663 N   0  0  0  0  0  0  0  0  0  0  0  0
  150.0503  135.8850  157.3247 C   0  0  0  0  0  0  0  0  0  0  0  0
  149.8006  134.7958  157.8403 O   0  0  0  0  0  0  0  0  0  0  0  0
  150.3674  136.9531  158.1199 N   0  0  0  0  0  0  0  0  0  0  0  0
  150.6664  138.2153  157.7263 C   0  0  0  0  0  0  0  0  0  0  0  0
  150.9413  139.1239  158.5071 O   0  0  0  0  0  0  0  0  0  0  0  0
  150.6286  138.3833  156.2693 C   0  0  0  0  0  0  0  0  0  0  0  0
  150.3237  137.3656  155.4221 C   0  0  0  0  0  0  0  0  0  0  0  0
  150.3625  137.7850  154.0971 N   0  0  0  0  0  0  0  0  0  0  0  0
  150.6996  139.0700  154.2217 C   0  0  0  0  0  0  0  0  0  0  0  0
  150.8771  139.5078  155.4854 N   0  0  0  0  0  0  0  0  0  0  0  0
  151.2446  140.8580  155.8834 C   0  0  0  0  0  0  0  0  0  0  0  0
  150.3363  141.4191  156.9961 C   0  0  2  0  0  0  0  0  0  0  0  0
  149.1982  142.0429  156.4337 O   0  0  0  0  0  0  0  0  0  0  0  0
  151.1054  142.3557  157.9140 C   0  0  0  0  0  0  0  0  0  0  0  0
  150.6805  143.6917  158.0779 C   0  0  0  0  0  0  0  0  0  0  0  0
  151.3849  144.5602  158.9347 C   0  0  0  0  0  0  0  0  0  0  0  0
  152.5159  144.0971  159.6339 C   0  0  0  0  0  0  0  0  0  0  0  0
  152.9421  142.7643  159.4772 C   0  0  0  0  0  0  0  0  0  0  0  0
  152.2389  141.8958  158.6199 C   0  0  0  0  0  0  0  0  0  0  0  0
  150.3803  136.7806  159.1144 H   0  0  0  0  0  0  0  0  0  0  0  0
  149.5333  134.0412  155.5042 H   0  0  0  0  0  0  0  0  0  0  0  0
  150.4936  134.8872  154.3019 H   0  0  0  0  0  0  0  0  0  0  0  0
  148.7808  135.2623  154.4860 H   0  0  0  0  0  0  0  0  0  0  0  0
  150.8222  139.7157  153.3644 H   0  0  0  0  0  0  0  0  0  0  0  0
  152.2775  140.8324  156.2332 H   0  0  0  0  0  0  0  0  0  0  0  0
  151.2424  141.5074  155.0085 H   0  0  0  0  0  0  0  0  0  0  0  0
  149.9649  140.5854  157.5935 H   0  0  0  0  0  0  0  0  0  0  0  0
  149.4345  142.9212  156.1775 H   0  0  0  0  0  0  0  0  0  0  0  0
  149.8125  144.0568  157.5484 H   0  0  0  0  0  0  0  0  0  0  0  0
  151.0565  145.5818  159.0566 H   0  0  0  0  0  0  0  0  0  0  0  0
  153.0549  144.7630  160.2914 H   0  0  0  0  0  0  0  0  0  0  0  0
  153.8075  142.4074  160.0158 H   0  0  0  0  0  0  0  0  0  0  0  0
  152.5704  140.8736  158.5080 H   0  0  0  0  0  0  0  0  0  0  0  0
  1  2  1  0  0  0  0
  1 23  1  0  0  0  0
  1 24  1  0  0  0  0
  1 25  1  0  0  0  0
  2  9  1  0  0  0  0
  2  3  1  0  0  0  0
  3  4  2  0  0  0  0
  3  5  1  0  0  0  0
  5 22  1  0  0  0  0
  5  6  1  0  0  0  0
  6  7  2  0  0  0  0
  6  8  1  0  0  0  0
  8 12  1  0  0  0  0
  8  9  2  0  0  0  0
  9 10  1  0  0  0  0
 10 11  2  0  0  0  0
 11 12  1  0  0  0  0
 11 26  1  0  0  0  0
 12 13  1  0  0  0  0
 13 14  1  0  0  0  0
 13 27  1  0  0  0  0
 13 28  1  0  0  0  0
 14 15  1  0  0  0  0
 14 16  1  0  0  0  0
 14 29  1  0  0  0  0
 15 30  1  0  0  0  0
 16 21  1  0  0  0  0
 16 17  2  0  0  0  0
 17 18  1  0  0  0  0
 17 31  1  0  0  0  0
 18 19  2  0  0  0  0
 18 32  1  0  0  0  0
 19 20  1  0  0  0  0
 19 33  1  0  0  0  0
 20 21  2  0  0  0  0
 20 34  1  0  0  0  0
 21 35  1  0  0  0  0
M  END
> <s_m_source_file>
AV-unprocessed.smi

> <i_m_source_file_index>
2556

> <i_lp_mmshare_version>
43012

> <i_f3d_flags>
0

> <s_epik_input>
Tz1jMVtuSF1jKD1PKW4oW0NIM10pYyhjMTIpbltjSF1uMltDSDJdW0NASF0oW09IXSljM1tjSF1bY0hdW2NIXVtjSF1bY0hdMw==

> <s_epik_cmdline>
J2VwaWtfcHl0aG9uJywgJy1waCcsICc3LjAnLCAnLXRuJywgJzgnLCAnLW1hJywgJzIwMCcsICctbWV0YWxfYmluZGluZycsICctaW1hZScsICc8aW5maWxlLm1hZT4nLCAnLW9tYWUnLCAnPG91dGZpbGUubWFlPic=

> <r_lp_tautomer_probability>
1

> <r_epik_Ionization_Penalty>
0.000177505

> <r_epik_Ionization_Penalty_Charging>
0.000176585

> <r_epik_Ionization_Penalty_Neutral>
9.19728e-07

> <r_epik_State_Penalty>
-0

> <r_epik_Charging_Adjusted_Penalty>
0.000176585

> <i_epik_Tot_Q>
0

> <i_epik_Tot_abs_Q>
0

> <r_epik_Metal_State_Penalty>
0.122509

> <b_epik_Metal_Only>
0

> <s_lp_Force_Field>
OPLS_2005

> <r_lp_Energy>
28.9299

> <b_lp_Chiralities_Consistent>
1

> <s_lp_Variant>
AV-unprocessed.smi:2556-1

> <Gold.Version>
5.8.1

> <Gold.Id.Protein>
6NUR|6NUR_protein|mol2

> <Gold.PLP.Fitness>
42.0304

> <Gold.PLP.PLP>
-34.8229

> <Gold.PLP.part.hbond>
-2.0000

> <Gold.PLP.part.metal>
0.0000

> <Gold.PLP.part.buried>
-4.0597

> <Gold.PLP.part.nonpolar>
-29.6450

> <Gold.PLP.part.repulsive>
1.0534

> <Gold.PLP.ligand.clash>
0.0000

> <Gold.PLP.ligand.torsion>
0.4968

> <Gold.PLP.Chemscore.Hbond>
1.7280

> <Gold.PLP.Chemscore.CHOScore>
0.9976

> <Gold.PLP.Chemscore.Metal>
0.0000

> <Gold.Chemscore.Hbonds>
donor molecule, donor type, donor heavy atom, donor atom, acceptor molecule, acceptor atom, score
      L1  H    15    30       P1  8028  0.98
      P1  H  6896  6909       L1     4  0.72
      L1  C    11    26       P1  7957  1.00

> <Gold.PLP.Chemscore.Internal.Correction>
0.0241

> <Gold.Rescore>
     Score         DG    S(hbond)    S(metal)    S(lipo)     H(rot)  DE(clash)    DE(int)     intcor
     14.45     -16.22       1.89        0.00      88.32       2.31       0.01       1.75       ----

> <Gold.Chemscore.Fitness>
14.4541

> <Gold.Chemscore.DG>
-16.2159

> <Gold.Chemscore.ZeroCoef>
-5.4800

> <Gold.Chemscore.Hbond>
1.8923

> <Gold.Chemscore.Metal>
0.0000

> <Gold.Chemscore.Lipo>
88.3153

> <Gold.Chemscore.Internal_Hbond>
0.0000

> <Gold.Chemscore.DEClash>
0.0128

> <Gold.Chemscore.DEInternal>
1.7490

> <Gold.Chemscore.Rot>
2.3115

> <Gold.Chemscore.Internal.Correction>
   9.000000E+99

> <Gold.Chemscore.Hbonds>
donor molecule, donor type, donor heavy atom, donor atom, acceptor molecule, acceptor atom, score
      L1  H    15    30       P1  8028  0.92
      P1  H  6896  6909       L1     4  0.71

> <Gold.Chemscore.Hbond.Weighted>
-6.3204

> <Gold.Chemscore.Metal.Weighted>
-0.0000

> <Gold.Chemscore.Lipo.Weighted>
-10.3329

> <Gold.Chemscore.Internal_Hbond.Weighted>
0.0000

> <Gold.Chemscore.DEClash.Weighted>
0.0128

> <Gold.Chemscore.DEInternal.Weighted>
1.7490

> <Gold.Chemscore.Rot.Weighted>
5.9174

> <Gold.Chemscore.Internal.Correction.Weighted>
   9.000000E+99

> <Gold.Protein.RotatedTorsions>
[ 6907 6896 6895 6894 ] final    4.45 input  -60.11 | X-H torsion
[ 7974 7965 7964 7962 ] final  164.36 input  175.53 | X-H torsion
[ 8008 7997 7996 7995 ] final  -41.07 input   59.86 | X-H torsion
[ 10167 10162 10161 10158 ] final   85.85 input  -65.29 | X-H torsion
[ 10718 10713 10712 10709 ] final  -41.19 input   66.30 | X-H torsion
[ 10763 10752 10751 10750 ] final  -24.65 input  -60.55 | X-H torsion
[ 11005 11000 10999 10996 ] final -103.74 input  -57.11 | X-H torsion

> <Gold.Protein.ActiveResidues>
 VAL166  LYS551  ARG553  GLY616  TRP617  ASP618  TYR619  PRO620  LYS621  CYS622 
 ASP623  PHE694  ASN695  SER759  ASP760  ASP761  ALA762  ILE779  LEU786  VAL792 
 PHE793  MET794  SER795  GLU796  ALA797  LYS798  CYS799  TRP800  GLU811  SER814 

> <Gold.Protein.RotatedAtoms>
  151.6415  135.1012  160.0142 H   0  0  0  0  0  0  0  0  0  0  0  0  # atno 6907 bound_to 6896
  152.4051  133.6873  159.6358 H   0  0  0  0  0  0  0  0  0  0  0  0  # atno 6908 bound_to 6896
  150.7947  133.8639  159.3280 H   0  0  0  0  0  0  0  0  0  0  0  0  # atno 6909 bound_to 6896
  144.7549  139.8314  143.6353 H   0  0  0  0  0  0  0  0  0  0  0  0  # atno 7974 bound_to 7965
  154.4007  140.1509  156.3130 H   0  0  0  0  0  0  0  0  0  0  0  0  # atno 8008 bound_to 7997
  155.8598  140.3454  155.5727 H   0  0  0  0  0  0  0  0  0  0  0  0  # atno 8009 bound_to 7997
  155.7892  140.0854  157.2008 H   0  0  0  0  0  0  0  0  0  0  0  0  # atno 8010 bound_to 7997
  139.8935  144.6371  150.8713 H   0  0  0  0  0  0  0  0  0  0  0  0  # atno 10167 bound_to 10162
  156.2730  130.4209  149.8417 H   0  0  0  0  0  0  0  0  0  0  0  0  # atno 10718 bound_to 10713
  153.6872  135.6963  153.5100 H   0  0  0  0  0  0  0  0  0  0  0  0  # atno 10763 bound_to 10752
  153.2441  135.4296  155.0728 H   0  0  0  0  0  0  0  0  0  0  0  0  # atno 10764 bound_to 10752
  154.8383  135.3515  154.6414 H   0  0  0  0  0  0  0  0  0  0  0  0  # atno 10765 bound_to 10752
  141.1132  133.8665  157.1524 H   0  0  0  0  0  0  0  0  0  0  0  0  # atno 11005 bound_to 11000
  146.1546  139.4640  143.0027 LP  0  0  0  0  0  0  0  0  0  0  0  0  # atno 17320 bound_to 7965
  145.6815  141.0189  143.1604 LP  0  0  0  0  0  0  0  0  0  0  0  0  # atno 17321 bound_to 7965
  140.7721  143.3491  151.2050 LP  0  0  0  0  0  0  0  0  0  0  0  0  # atno 17342 bound_to 10162
  139.7088  143.9411  152.2938 LP  0  0  0  0  0  0  0  0  0  0  0  0  # atno 17343 bound_to 10162
  156.5892  130.8499  151.3403 LP  0  0  0  0  0  0  0  0  0  0  0  0  # atno 17370 bound_to 10713
  157.7290  130.9665  150.1768 LP  0  0  0  0  0  0  0  0  0  0  0  0  # atno 17371 bound_to 10713
  140.0038  135.0017  157.0248 LP  0  0  0  0  0  0  0  0  0  0  0  0  # atno 17394 bound_to 11000
  140.4718  134.1379  155.7204 LP  0  0  0  0  0  0  0  0  0  0  0  0  # atno 17395 bound_to 11000

$$$$
