AV-unprocessed.smi:765|AV-procd|sdf|3643|dock5
  -GOLD-   22720 1 43D 1   1.00000     0.00000
 Structure written by MMmdl.
 39 40  0  0  0  0  0  0  0  0  1 V2000
  146.9508  132.9985  152.1695 C   0  0  0  0  0  0  0  0  0  0  0  0
  147.7659  133.6927  153.2698 C   0  0  2  0  0  0  0  0  0  0  0  0
  148.5436  132.6723  154.1202 C   0  0  0  0  0  0  0  0  0  0  0  0
  149.3447  133.3597  155.2350 C   0  0  0  0  0  0  0  0  0  0  0  0
  148.4300  134.2249  156.1178 C   0  0  0  0  0  0  0  0  0  0  0  0
  147.6414  135.2793  155.3020 C   0  0  1  0  0  0  0  0  0  0  0  0
  146.6651  135.9571  156.1765 C   0  0  0  0  0  0  0  0  0  0  0  0
  145.9002  136.4899  156.8621 N   0  0  0  0  0  0  0  0  0  0  0  0
  148.5470  136.2590  154.6931 N   0  0  0  0  0  0  0  0  0  0  0  0
  149.3339  137.1443  155.3276 C   0  0  0  0  0  0  0  0  0  0  0  0
  149.3954  137.2383  156.5537 O   0  0  0  0  0  0  0  0  0  0  0  0
  150.1754  138.0595  154.4253 C   0  0  2  0  0  0  0  0  0  0  0  0
  151.6709  138.0585  154.7937 C   0  0  0  0  0  0  0  0  0  0  0  0
  149.6322  139.4116  154.4347 N   0  0  0  0  0  0  0  0  0  0  0  0
  148.4043  139.8550  153.9823 C   0  0  0  0  0  0  0  0  0  0  0  0
  148.3550  141.2036  154.1894 C   0  0  0  0  0  0  0  0  0  0  0  0
  149.6158  141.5012  154.7778 C   0  0  0  0  0  0  0  0  0  0  0  0
  150.3777  140.4289  154.9212 N   0  0  0  0  0  0  0  0  0  0  0  0
  146.8662  134.5685  154.1688 C   0  0  0  0  0  0  0  0  0  0  0  0
  146.2015  132.3288  152.5926 H   0  0  0  0  0  0  0  0  0  0  0  0
  147.5948  132.4078  151.5174 H   0  0  0  0  0  0  0  0  0  0  0  0
  146.4321  133.7274  151.5461 H   0  0  0  0  0  0  0  0  0  0  0  0
  148.4910  134.3391  152.7738 H   0  0  0  0  0  0  0  0  0  0  0  0
  147.8503  131.9556  154.5628 H   0  0  0  0  0  0  0  0  0  0  0  0
  149.2194  132.0963  153.4872 H   0  0  0  0  0  0  0  0  0  0  0  0
  149.8459  132.6088  155.8465 H   0  0  0  0  0  0  0  0  0  0  0  0
  150.1321  133.9749  154.7983 H   0  0  0  0  0  0  0  0  0  0  0  0
  147.7242  133.5731  156.6346 H   0  0  0  0  0  0  0  0  0  0  0  0
  149.0183  134.6998  156.9031 H   0  0  0  0  0  0  0  0  0  0  0  0
  148.5688  136.2705  153.6835 H   0  0  0  0  0  0  0  0  0  0  0  0
  150.0928  137.6681  153.4093 H   0  0  0  0  0  0  0  0  0  0  0  0
  152.0837  137.0493  154.7662 H   0  0  0  0  0  0  0  0  0  0  0  0
  151.8444  138.4614  155.7924 H   0  0  0  0  0  0  0  0  0  0  0  0
  152.2432  138.6642  154.0906 H   0  0  0  0  0  0  0  0  0  0  0  0
  147.6774  139.1805  153.5535 H   0  0  0  0  0  0  0  0  0  0  0  0
  147.5429  141.8757  153.9545 H   0  0  0  0  0  0  0  0  0  0  0  0
  149.9980  142.4583  155.1012 H   0  0  0  0  0  0  0  0  0  0  0  0
  146.3441  135.3085  153.5599 H   0  0  0  0  0  0  0  0  0  0  0  0
  146.0882  133.9421  154.6084 H   0  0  0  0  0  0  0  0  0  0  0  0
  1  2  1  0  0  0  0
  1 20  1  0  0  0  0
  1 21  1  0  0  0  0
  1 22  1  0  0  0  0
  2 19  1  0  0  0  0
  2  3  1  0  0  0  0
  2 23  1  0  0  0  0
  3  4  1  0  0  0  0
  3 24  1  0  0  0  0
  3 25  1  0  0  0  0
  4  5  1  0  0  0  0
  4 26  1  0  0  0  0
  4 27  1  0  0  0  0
  5  6  1  0  0  0  0
  5 28  1  0  0  0  0
  5 29  1  0  0  0  0
  6  7  1  0  0  0  0
  6  9  1  0  0  0  0
  6 19  1  0  0  0  0
  7  8  3  0  0  0  0
  9 10  1  0  0  0  0
  9 30  1  0  0  0  0
 10 11  2  0  0  0  0
 10 12  1  0  0  0  0
 12 13  1  0  0  0  0
 12 14  1  0  0  0  0
 12 31  1  0  0  0  0
 13 32  1  0  0  0  0
 13 33  1  0  0  0  0
 13 34  1  0  0  0  0
 14 18  1  0  0  0  0
 14 15  1  0  0  0  0
 15 16  2  0  0  0  0
 15 35  1  0  0  0  0
 16 17  1  0  0  0  0
 16 36  1  0  0  0  0
 17 18  2  0  0  0  0
 17 37  1  0  0  0  0
 19 38  1  0  0  0  0
 19 39  1  0  0  0  0
M  END
> <s_m_source_file>
AV-unprocessed.smi

> <i_m_source_file_index>
765

> <i_lp_mmshare_version>
43012

> <i_f3d_flags>
0

> <s_epik_input>
W0NIM11bQ0BASF0oW0NIMl0xKVtDSDJdW0NIMl1bQ0gyXVtDQEBdMShDI04pW05IXUMoPU8pW0NASF0oW0NIM10pbjJbY0hdW2NIXVtjSF1uMg==

> <s_epik_cmdline>
J2VwaWtfcHl0aG9uJywgJy1waCcsICc3LjAnLCAnLXRuJywgJzgnLCAnLW1hJywgJzIwMCcsICctbWV0YWxfYmluZGluZycsICctaW1hZScsICc8aW5maWxlLm1hZT4nLCAnLW9tYWUnLCAnPG91dGZpbGUubWFlPic=

> <r_lp_tautomer_probability>
1

> <r_epik_Ionization_Penalty>
2.71142e-05

> <r_epik_Ionization_Penalty_Charging>
0

> <r_epik_Ionization_Penalty_Neutral>
2.71142e-05

> <r_epik_State_Penalty>
-0

> <r_epik_Charging_Adjusted_Penalty>
0

> <i_epik_Tot_Q>
0

> <i_epik_Tot_abs_Q>
0

> <r_epik_Metal_State_Penalty>
-0

> <b_epik_Metal_Only>
0

> <s_lp_Force_Field>
OPLS_2005

> <r_lp_Energy>
11.1831

> <b_lp_Chiralities_Consistent>
1

> <s_lp_Variant>
AV-unprocessed.smi:765-1

> <Gold.Version>
5.8.1

> <Gold.Id.Protein>
6NUR|6NUR_protein|mol2

> <Gold.PLP.Fitness>
38.9087

> <Gold.PLP.PLP>
-30.5275

> <Gold.PLP.part.hbond>
-2.0000

> <Gold.PLP.part.metal>
0.0000

> <Gold.PLP.part.buried>
-0.8106

> <Gold.PLP.part.nonpolar>
-27.1905

> <Gold.PLP.part.repulsive>
0.0982

> <Gold.PLP.ligand.clash>
0.0000

> <Gold.PLP.ligand.torsion>
0.3430

> <Gold.PLP.Chemscore.Hbond>
2.0000

> <Gold.PLP.Chemscore.CHOScore>
1.0000

> <Gold.PLP.Chemscore.Metal>
0.0000

> <Gold.Chemscore.Hbonds>
donor molecule, donor type, donor heavy atom, donor atom, acceptor molecule, acceptor atom, score
      L1  H     9    30       P1  7948  1.00
      P1  H  7989  7998       L1    18  0.80
      L1  C    17    37       P1  8028  0.89

> <Gold.PLP.Chemscore.Internal.Correction>
0.0673

> <Gold.Rescore>
     Score         DG    S(hbond)    S(metal)    S(lipo)     H(rot)  DE(clash)    DE(int)     intcor
     15.12     -15.81       1.76        0.00      69.12       1.42       0.43       0.26       ----

> <Gold.Chemscore.Fitness>
15.1241

> <Gold.Chemscore.DG>
-15.8068

> <Gold.Chemscore.ZeroCoef>
-5.4800

> <Gold.Chemscore.Hbond>
1.7578

> <Gold.Chemscore.Metal>
0.0000

> <Gold.Chemscore.Lipo>
69.1159

> <Gold.Chemscore.Internal_Hbond>
0.0000

> <Gold.Chemscore.DEClash>
0.4260

> <Gold.Chemscore.DEInternal>
0.2568

> <Gold.Chemscore.Rot>
1.4183

> <Gold.Chemscore.Internal.Correction>
   9.000000E+99

> <Gold.Chemscore.Hbonds>
donor molecule, donor type, donor heavy atom, donor atom, acceptor molecule, acceptor atom, score
      L1  H     9    30       P1  7948  1.00
      P1  H  7989  7998       L1    18  0.06

> <Gold.Chemscore.Hbond.Weighted>
-5.8712

> <Gold.Chemscore.Metal.Weighted>
-0.0000

> <Gold.Chemscore.Lipo.Weighted>
-8.0866

> <Gold.Chemscore.Internal_Hbond.Weighted>
0.0000

> <Gold.Chemscore.DEClash.Weighted>
0.4260

> <Gold.Chemscore.DEInternal.Weighted>
0.2568

> <Gold.Chemscore.Rot.Weighted>
3.6309

> <Gold.Chemscore.Internal.Correction.Weighted>
   9.000000E+99

> <Gold.Protein.RotatedTorsions>
[ 6907 6896 6895 6894 ] final   46.88 input  -60.11 | X-H torsion
[ 7974 7965 7964 7962 ] final  -28.42 input  175.53 | X-H torsion
[ 8008 7997 7996 7995 ] final -102.47 input   59.86 | X-H torsion
[ 10167 10162 10161 10158 ] final  101.51 input  -65.29 | X-H torsion
[ 10718 10713 10712 10709 ] final    0.04 input   66.30 | X-H torsion
[ 10763 10752 10751 10750 ] final   20.64 input  -60.55 | X-H torsion
[ 11005 11000 10999 10996 ] final  128.44 input  -57.11 | X-H torsion

> <Gold.Protein.ActiveResidues>
 VAL166  LYS551  ARG553  GLY616  TRP617  ASP618  TYR619  PRO620  LYS621  CYS622 
 ASP623  PHE694  ASN695  SER759  ASP760  ASP761  ALA762  ILE779  LEU786  VAL792 
 PHE793  MET794  SER795  GLU796  ALA797  LYS798  CYS799  TRP800  GLU811  SER814 

> <Gold.Protein.RotatedAtoms>
  152.2616  134.8028  160.0429 H   0  0  0  0  0  0  0  0  0  0  0  0  # atno 6907 bound_to 6896
  151.8672  133.3463  159.3731 H   0  0  0  0  0  0  0  0  0  0  0  0  # atno 6908 bound_to 6896
  150.7119  134.5075  159.5635 H   0  0  0  0  0  0  0  0  0  0  0  0  # atno 6909 bound_to 6896
  146.1289  140.5280  142.8702 H   0  0  0  0  0  0  0  0  0  0  0  0  # atno 7974 bound_to 7965
  154.8572  140.0428  157.1642 H   0  0  0  0  0  0  0  0  0  0  0  0  # atno 8008 bound_to 7997
  154.8879  140.2982  155.5367 H   0  0  0  0  0  0  0  0  0  0  0  0  # atno 8009 bound_to 7997
  156.2997  140.2399  156.3891 H   0  0  0  0  0  0  0  0  0  0  0  0  # atno 8010 bound_to 7997
  139.7432  144.7005  151.0544 H   0  0  0  0  0  0  0  0  0  0  0  0  # atno 10167 bound_to 10162
  156.8275  130.5477  149.5690 H   0  0  0  0  0  0  0  0  0  0  0  0  # atno 10718 bound_to 10713
  153.1060  135.6685  153.9585 H   0  0  0  0  0  0  0  0  0  0  0  0  # atno 10763 bound_to 10752
  153.9142  135.3021  155.3450 H   0  0  0  0  0  0  0  0  0  0  0  0  # atno 10764 bound_to 10752
  154.7481  135.5047  153.9317 H   0  0  0  0  0  0  0  0  0  0  0  0  # atno 10765 bound_to 10752
  139.9561  134.9612  156.9002 H   0  0  0  0  0  0  0  0  0  0  0  0  # atno 11005 bound_to 11000
  144.7670  140.5554  143.6696 LP  0  0  0  0  0  0  0  0  0  0  0  0  # atno 17320 bound_to 7965
  145.5304  139.1475  143.3503 LP  0  0  0  0  0  0  0  0  0  0  0  0  # atno 17321 bound_to 7965
  140.7788  143.4899  150.9907 LP  0  0  0  0  0  0  0  0  0  0  0  0  # atno 17342 bound_to 10162
  139.8587  143.7342  152.3174 LP  0  0  0  0  0  0  0  0  0  0  0  0  # atno 17343 bound_to 10162
  156.0953  130.5927  150.9803 LP  0  0  0  0  0  0  0  0  0  0  0  0  # atno 17370 bound_to 10713
  157.6424  131.0908  150.8223 LP  0  0  0  0  0  0  0  0  0  0  0  0  # atno 17371 bound_to 10713
  140.5607  134.0538  155.7398 LP  0  0  0  0  0  0  0  0  0  0  0  0  # atno 17394 bound_to 11000
  141.1232  133.9427  157.2688 LP  0  0  0  0  0  0  0  0  0  0  0  0  # atno 17395 bound_to 11000

$$$$
