AV-unprocessed.smi:1469|AV-procd|sdf|5958|dock6
  -GOLD-   22720 6 43D 1   1.00000     0.00000
 Structure written by MMmdl.
 41 42  0  0  0  0  0  0  0  0  2 V2000
  146.7560  139.0123  151.5087 C   0  0  0  0  0  0  0  0  0  0  0  0
  146.0666  138.1342  152.5783 C   0  0  2  0  0  0  0  0  0  0  0  0
  146.4977  138.5469  154.0100 C   0  0  0  0  0  0  0  0  0  0  0  0
  147.7988  139.2104  154.0448 N   0  0  0  0  0  0  0  0  0  0  0  0
  148.0263  140.4652  154.4633 C   0  0  0  0  0  0  0  0  0  0  0  0
  147.1408  141.1986  154.9056 O   0  0  0  0  0  0  0  0  0  0  0  0
  149.4844  140.9410  154.3819 C   0  0  0  0  0  0  0  0  0  0  0  0
  150.1639  140.9979  155.6873 N   0  0  0  0  0  0  0  0  0  0  0  0
  149.6222  141.8685  156.6540 C   0  0  0  0  0  0  0  0  0  0  0  0
  150.1602  141.9938  157.8776 C   0  0  0  0  0  0  0  0  0  0  0  0
  151.3278  141.2056  158.1941 C   0  0  0  0  0  0  0  0  0  0  0  0
  151.8564  140.3727  157.2755 C   0  0  0  0  0  0  0  0  0  0  0  0
  151.2728  140.2341  155.9361 C   0  0  0  0  0  0  0  0  0  0  0  0
  151.7508  139.4785  155.0894 O   0  0  0  0  0  0  0  0  0  0  0  0
  146.3449  136.6860  152.3467 N   0  3  0  0  0  0  0  0  0  0  0  0
  145.9033  135.7739  153.4334 C   0  0  0  0  0  0  0  0  0  0  0  0
  145.3636  134.4987  152.7709 C   0  0  0  0  0  0  0  0  0  0  0  0
  145.7779  134.6143  151.3092 C   0  0  0  0  0  0  0  0  0  0  0  0
  145.8194  136.1211  151.0838 C   0  0  0  0  0  0  0  0  0  0  0  0
  146.5346  140.0695  151.6512 H   0  0  0  0  0  0  0  0  0  0  0  0
  146.4219  138.7731  150.4995 H   0  0  0  0  0  0  0  0  0  0  0  0
  147.8398  138.8948  151.5401 H   0  0  0  0  0  0  0  0  0  0  0  0
  144.9892  138.2829  152.4859 H   0  0  0  0  0  0  0  0  0  0  0  0
  145.7889  139.2547  154.4385 H   0  0  0  0  0  0  0  0  0  0  0  0
  146.4850  137.6782  154.6707 H   0  0  0  0  0  0  0  0  0  0  0  0
  148.5881  138.6796  153.7053 H   0  0  0  0  0  0  0  0  0  0  0  0
  150.0215  140.2776  153.7021 H   0  0  0  0  0  0  0  0  0  0  0  0
  149.5124  141.9217  153.9033 H   0  0  0  0  0  0  0  0  0  0  0  0
  148.7525  142.4257  156.3372 H   0  0  0  0  0  0  0  0  0  0  0  0
  149.7327  142.6681  158.6051 H   0  0  0  0  0  0  0  0  0  0  0  0
  151.7801  141.2850  159.1718 H   0  0  0  0  0  0  0  0  0  0  0  0
  152.7310  139.7918  157.5297 H   0  0  0  0  0  0  0  0  0  0  0  0
  146.7515  135.5546  154.0829 H   0  0  0  0  0  0  0  0  0  0  0  0
  145.1216  136.2233  154.0477 H   0  0  0  0  0  0  0  0  0  0  0  0
  145.7407  133.5893  153.2398 H   0  0  0  0  0  0  0  0  0  0  0  0
  144.2753  134.4813  152.8424 H   0  0  0  0  0  0  0  0  0  0  0  0
  146.7735  134.1905  151.1707 H   0  0  0  0  0  0  0  0  0  0  0  0
  145.0948  134.1017  150.6312 H   0  0  0  0  0  0  0  0  0  0  0  0
  144.8094  136.4939  150.9040 H   0  0  0  0  0  0  0  0  0  0  0  0
  146.4405  136.3855  150.2272 H   0  0  0  0  0  0  0  0  0  0  0  0
  147.3486  136.5854  152.2914 H   0  0  0  0  0  0  0  0  0  0  0  0
  1  2  1  0  0  0  0
  1 20  1  0  0  0  0
  1 21  1  0  0  0  0
  1 22  1  0  0  0  0
  2  3  1  0  0  0  0
  2 15  1  0  0  0  0
  2 23  1  0  0  0  0
  3  4  1  0  0  0  0
  3 24  1  0  0  0  0
  3 25  1  0  0  0  0
  4  5  1  0  0  0  0
  4 26  1  0  0  0  0
  5  6  2  0  0  0  0
  5  7  1  0  0  0  0
  7  8  1  0  0  0  0
  7 27  1  0  0  0  0
  7 28  1  0  0  0  0
  8 13  1  0  0  0  0
  8  9  1  0  0  0  0
  9 10  2  0  0  0  0
  9 29  1  0  0  0  0
 10 11  1  0  0  0  0
 10 30  1  0  0  0  0
 11 12  2  0  0  0  0
 11 31  1  0  0  0  0
 12 13  1  0  0  0  0
 12 32  1  0  0  0  0
 13 14  2  0  0  0  0
 15 19  1  0  0  0  0
 15 16  1  0  0  0  0
 15 41  1  0  0  0  0
 16 17  1  0  0  0  0
 16 33  1  0  0  0  0
 16 34  1  0  0  0  0
 17 18  1  0  0  0  0
 17 35  1  0  0  0  0
 17 36  1  0  0  0  0
 18 19  1  0  0  0  0
 18 37  1  0  0  0  0
 18 38  1  0  0  0  0
 19 39  1  0  0  0  0
 19 40  1  0  0  0  0
M  CHG  1  15   1
M  END
> <s_m_source_file>
AV-unprocessed.smi

> <i_m_source_file_index>
1469

> <i_lp_mmshare_version>
43012

> <i_f3d_flags>
0

> <s_epik_input>
W0NIMl0xW0NIMl1bQ0gyXVtDSDJdTjFbQ0BIXShbQ0gzXSlbQ0gyXVtOSF1DKD1PKVtDSDJdbjJbY0hdW2NIXVtjSF1bY0hdYzI9Tw==

> <s_epik_cmdline>
J2VwaWtfcHl0aG9uJywgJy1waCcsICc3LjAnLCAnLXRuJywgJzgnLCAnLW1hJywgJzIwMCcsICctbWV0YWxfYmluZGluZycsICctaW1hZScsICc8aW5maWxlLm1hZT4nLCAnLW9tYWUnLCAnPG91dGZpbGUubWFlPic=

> <r_lp_tautomer_probability>
1

> <r_epik_Ionization_Penalty>
0.00497231

> <r_epik_Ionization_Penalty_Charging>
0.00497223

> <r_epik_Ionization_Penalty_Neutral>
8.2288e-08

> <r_epik_State_Penalty>
0.0036131

> <r_epik_Charging_Adjusted_Penalty>
0.00858533

> <i_epik_Tot_Q>
1

> <i_epik_Tot_abs_Q>
1

> <r_epik_Metal_State_Penalty>
-0

> <b_epik_Metal_Only>
0

> <s_lp_Force_Field>
OPLS_2005

> <r_lp_Energy>
39.8185

> <b_lp_Chiralities_Consistent>
1

> <s_lp_Variant>
AV-unprocessed.smi:1469-1

> <Gold.Version>
5.8.1

> <Gold.Id.Protein>
6NUR|6NUR_protein|mol2

> <Gold.PLP.Fitness>
41.3792

> <Gold.PLP.PLP>
-31.5345

> <Gold.PLP.part.hbond>
-2.0000

> <Gold.PLP.part.metal>
0.0000

> <Gold.PLP.part.buried>
-0.9988

> <Gold.PLP.part.nonpolar>
-29.4816

> <Gold.PLP.part.repulsive>
0.1692

> <Gold.PLP.ligand.clash>
0.0288

> <Gold.PLP.ligand.torsion>
0.7747

> <Gold.PLP.Chemscore.Hbond>
3.0000

> <Gold.PLP.Chemscore.CHOScore>
0.7960

> <Gold.PLP.Chemscore.Metal>
0.0000

> <Gold.Chemscore.Hbonds>
donor molecule, donor type, donor heavy atom, donor atom, acceptor molecule, acceptor atom, score
      L1  H    15    41       P1  7948  2.00
      P1  H  7989  7998       L1    14  0.65
      L1  C     9    29       P1  8028  0.85

> <Gold.PLP.Chemscore.Internal.Correction>
0.0346

> <Gold.Rescore>
     Score         DG    S(hbond)    S(metal)    S(lipo)     H(rot)  DE(clash)    DE(int)     intcor
     13.62     -14.59       1.84        0.00      66.58       1.89       0.12       0.84       ----

> <Gold.Chemscore.Fitness>
13.6233

> <Gold.Chemscore.DG>
-14.5858

> <Gold.Chemscore.ZeroCoef>
-5.4800

> <Gold.Chemscore.Hbond>
1.8411

> <Gold.Chemscore.Metal>
0.0000

> <Gold.Chemscore.Lipo>
66.5845

> <Gold.Chemscore.Internal_Hbond>
0.0000

> <Gold.Chemscore.DEClash>
0.1195

> <Gold.Chemscore.DEInternal>
0.8430

> <Gold.Chemscore.Rot>
1.8882

> <Gold.Chemscore.Internal.Correction>
   9.000000E+99

> <Gold.Chemscore.Hbonds>
donor molecule, donor type, donor heavy atom, donor atom, acceptor molecule, acceptor atom, score
      L1  H    15    41       P1  7948  1.00
      P1  H  7989  7998       L1    14  0.09

> <Gold.Chemscore.Hbond.Weighted>
-6.1493

> <Gold.Chemscore.Metal.Weighted>
-0.0000

> <Gold.Chemscore.Lipo.Weighted>
-7.7904

> <Gold.Chemscore.Internal_Hbond.Weighted>
0.0000

> <Gold.Chemscore.DEClash.Weighted>
0.1195

> <Gold.Chemscore.DEInternal.Weighted>
0.8430

> <Gold.Chemscore.Rot.Weighted>
4.8338

> <Gold.Chemscore.Internal.Correction.Weighted>
   9.000000E+99

> <Gold.Protein.RotatedTorsions>
[ 6907 6896 6895 6894 ] final  -38.03 input  -60.11 | X-H torsion
[ 7974 7965 7964 7962 ] final  -12.56 input  175.53 | X-H torsion
[ 8008 7997 7996 7995 ] final   66.69 input   59.86 | X-H torsion
[ 10167 10162 10161 10158 ] final  -57.86 input  -65.29 | X-H torsion
[ 10718 10713 10712 10709 ] final -100.14 input   66.30 | X-H torsion
[ 10763 10752 10751 10750 ] final   99.63 input  -60.55 | X-H torsion
[ 11005 11000 10999 10996 ] final  163.35 input  -57.11 | X-H torsion

> <Gold.Protein.ActiveResidues>
 VAL166  LYS551  ARG553  GLY616  TRP617  ASP618  TYR619  PRO620  LYS621  CYS622 
 ASP623  PHE694  ASN695  SER759  ASP760  ASP761  ALA762  ILE779  LEU786  VAL792 
 PHE793  MET794  SER795  GLU796  ALA797  LYS798  CYS799  TRP800  GLU811  SER814 

> <Gold.Protein.RotatedAtoms>
  151.0074  134.9370  159.7987 H   0  0  0  0  0  0  0  0  0  0  0  0  # atno 6907 bound_to 6896
  152.5294  134.3073  159.9110 H   0  0  0  0  0  0  0  0  0  0  0  0  # atno 6908 bound_to 6896
  151.3079  133.4052  159.2679 H   0  0  0  0  0  0  0  0  0  0  0  0  # atno 6909 bound_to 6896
  146.2147  140.3075  142.8380 H   0  0  0  0  0  0  0  0  0  0  0  0  # atno 7974 bound_to 7965
  155.6813  140.3496  155.4856 H   0  0  0  0  0  0  0  0  0  0  0  0  # atno 8008 bound_to 7997
  155.9604  140.1136  157.0923 H   0  0  0  0  0  0  0  0  0  0  0  0  # atno 8009 bound_to 7997
  154.4142  140.1176  156.5158 H   0  0  0  0  0  0  0  0  0  0  0  0  # atno 8010 bound_to 7997
  140.6232  143.2428  151.5428 H   0  0  0  0  0  0  0  0  0  0  0  0  # atno 10167 bound_to 10162
  156.0154  130.5314  150.6774 H   0  0  0  0  0  0  0  0  0  0  0  0  # atno 10718 bound_to 10713
  153.3038  135.4107  155.1276 H   0  0  0  0  0  0  0  0  0  0  0  0  # atno 10763 bound_to 10752
  154.8557  135.3548  154.5816 H   0  0  0  0  0  0  0  0  0  0  0  0  # atno 10764 bound_to 10752
  153.6242  135.7063  153.5357 H   0  0  0  0  0  0  0  0  0  0  0  0  # atno 10765 bound_to 10752
  140.2349  134.8096  157.3354 H   0  0  0  0  0  0  0  0  0  0  0  0  # atno 11005 bound_to 11000
  144.9012  140.7645  143.5866 LP  0  0  0  0  0  0  0  0  0  0  0  0  # atno 17320 bound_to 7965
  145.3002  139.1853  143.4694 LP  0  0  0  0  0  0  0  0  0  0  0  0  # atno 17321 bound_to 7965
  139.5457  144.2528  152.1437 LP  0  0  0  0  0  0  0  0  0  0  0  0  # atno 17342 bound_to 10162
  140.1753  144.4896  150.6557 LP  0  0  0  0  0  0  0  0  0  0  0  0  # atno 17343 bound_to 10162
  157.4483  131.0869  151.0872 LP  0  0  0  0  0  0  0  0  0  0  0  0  # atno 17370 bound_to 10713
  157.1395  130.6137  149.5551 LP  0  0  0  0  0  0  0  0  0  0  0  0  # atno 17371 bound_to 10713
  140.1712  134.4606  155.7830 LP  0  0  0  0  0  0  0  0  0  0  0  0  # atno 17394 bound_to 11000
  141.2215  133.6943  156.7711 LP  0  0  0  0  0  0  0  0  0  0  0  0  # atno 17395 bound_to 11000

$$$$
