AV-unprocessed.smi:1006|AV-procd|sdf|4396|dock3
  -GOLD-   22720 2333D 1   1.00000     0.00000
 Structure written by MMmdl.
 47 49  0  0  0  0  0  0  0  0  3 V2000
  145.5873  136.1715  152.2909 C   0  0  0  0  0  0  0  0  0  0  0  0
  146.1543  136.0088  153.6852 C   0  0  0  0  0  0  0  0  0  0  0  0
  145.3524  135.6206  154.7777 C   0  0  0  0  0  0  0  0  0  0  0  0
  145.9922  135.5016  156.0237 C   0  0  0  0  0  0  0  0  0  0  0  0
  145.2806  135.1219  157.1588 N   0  0  0  0  0  0  0  0  0  0  0  0
  147.3099  135.7478  156.1651 N   0  0  0  0  0  0  0  0  0  0  0  0
  148.0144  136.1121  155.0853 C   0  0  0  0  0  0  0  0  0  0  0  0
  149.7641  136.4273  155.2385 S   0  0  0  0  0  0  0  0  0  0  0  0
  149.9173  138.1392  154.6389 C   0  0  0  0  0  0  0  0  0  0  0  0
  151.3837  138.5982  154.5836 C   0  0  2  0  0  0  0  0  0  0  0  0
  152.1917  137.5131  154.1705 O   0  0  0  0  0  0  0  0  0  0  0  0
  151.8761  139.1290  155.9441 C   0  0  0  0  0  0  0  0  0  0  0  0
  151.3272  140.4533  156.2721 N   0  0  0  0  0  0  0  0  0  0  0  0
  150.4369  141.2177  155.5828 C   0  0  0  0  0  0  0  0  0  0  0  0
  150.2399  142.3620  156.2937 N   0  3  0  0  0  0  0  0  0  0  0  0
  151.0155  142.3290  157.4544 C   0  0  0  0  0  0  0  0  0  0  0  0
  151.1520  143.2536  158.4831 C   0  0  0  0  0  0  0  0  0  0  0  0
  152.0340  142.9214  159.5360 C   0  0  0  0  0  0  0  0  0  0  0  0
  152.2060  143.9099  160.6767 C   0  0  0  0  0  0  0  0  0  0  0  0
  152.7459  141.6939  159.5319 C   0  0  0  0  0  0  0  0  0  0  0  0
  153.6948  141.3486  160.6671 C   0  0  0  0  0  0  0  0  0  0  0  0
  152.5923  140.7667  158.4765 C   0  0  0  0  0  0  0  0  0  0  0  0
  151.7175  141.1077  157.4473 C   0  0  0  0  0  0  0  0  0  0  0  0
  147.4783  136.2449  153.8635 N   0  3  0  0  0  0  0  0  0  0  0  0
  144.4978  136.2134  152.3138 H   0  0  0  0  0  0  0  0  0  0  0  0
  145.8840  135.3316  151.6624 H   0  0  0  0  0  0  0  0  0  0  0  0
  145.9514  137.0917  151.8325 H   0  0  0  0  0  0  0  0  0  0  0  0
  144.2963  135.4233  154.6618 H   0  0  0  0  0  0  0  0  0  0  0  0
  144.2915  134.9221  157.1224 H   0  0  0  0  0  0  0  0  0  0  0  0
  145.7372  135.0052  158.0522 H   0  0  0  0  0  0  0  0  0  0  0  0
  149.4779  138.1885  153.6420 H   0  0  0  0  0  0  0  0  0  0  0  0
  149.3388  138.8066  155.2792 H   0  0  0  0  0  0  0  0  0  0  0  0
  151.4816  139.3915  153.8411 H   0  0  0  0  0  0  0  0  0  0  0  0
  152.6944  137.7823  153.4166 H   0  0  0  0  0  0  0  0  0  0  0  0
  151.5646  138.4509  156.7397 H   0  0  0  0  0  0  0  0  0  0  0  0
  152.9646  139.1663  155.9864 H   0  0  0  0  0  0  0  0  0  0  0  0
  149.9706  140.9634  154.6418 H   0  0  0  0  0  0  0  0  0  0  0  0
  150.6084  144.1871  158.4781 H   0  0  0  0  0  0  0  0  0  0  0  0
  151.8888  143.4639  161.6196 H   0  0  0  0  0  0  0  0  0  0  0  0
  151.6119  144.8102  160.5173 H   0  0  0  0  0  0  0  0  0  0  0  0
  153.2493  144.2121  160.7693 H   0  0  0  0  0  0  0  0  0  0  0  0
  154.1487  140.3677  160.5233 H   0  0  0  0  0  0  0  0  0  0  0  0
  153.1644  141.3335  161.6196 H   0  0  0  0  0  0  0  0  0  0  0  0
  154.4993  142.0814  160.7295 H   0  0  0  0  0  0  0  0  0  0  0  0
  153.1398  139.8362  158.4721 H   0  0  0  0  0  0  0  0  0  0  0  0
  148.0550  136.5220  153.0689 H   0  0  0  0  0  0  0  0  0  0  0  0
  149.6216  143.1094  156.0051 H   0  0  0  0  0  0  0  0  0  0  0  0
  1  2  1  0  0  0  0
  1 25  1  0  0  0  0
  1 26  1  0  0  0  0
  1 27  1  0  0  0  0
  2 24  1  0  0  0  0
  2  3  2  0  0  0  0
  3  4  1  0  0  0  0
  3 28  1  0  0  0  0
  4  5  1  0  0  0  0
  4  6  2  0  0  0  0
  5 29  1  0  0  0  0
  5 30  1  0  0  0  0
  6  7  1  0  0  0  0
  7  8  1  0  0  0  0
  7 24  2  0  0  0  0
  8  9  1  0  0  0  0
  9 10  1  0  0  0  0
  9 31  1  0  0  0  0
  9 32  1  0  0  0  0
 10 11  1  0  0  0  0
 10 12  1  0  0  0  0
 10 33  1  0  0  0  0
 11 34  1  0  0  0  0
 12 13  1  0  0  0  0
 12 35  1  0  0  0  0
 12 36  1  0  0  0  0
 13 23  1  0  0  0  0
 13 14  1  0  0  0  0
 14 15  2  0  0  0  0
 14 37  1  0  0  0  0
 15 16  1  0  0  0  0
 15 47  1  0  0  0  0
 16 23  2  0  0  0  0
 16 17  1  0  0  0  0
 17 18  2  0  0  0  0
 17 38  1  0  0  0  0
 18 19  1  0  0  0  0
 18 20  1  0  0  0  0
 19 39  1  0  0  0  0
 19 40  1  0  0  0  0
 19 41  1  0  0  0  0
 20 21  1  0  0  0  0
 20 22  2  0  0  0  0
 21 42  1  0  0  0  0
 21 43  1  0  0  0  0
 21 44  1  0  0  0  0
 22 23  1  0  0  0  0
 22 45  1  0  0  0  0
 24 46  1  0  0  0  0
M  CHG  1  15   1
M  CHG  1  24   1
M  END
> <s_m_source_file>
AV-unprocessed.smi

> <i_m_source_file_index>
1006

> <i_lp_mmshare_version>
43012

> <i_f3d_flags>
0

> <s_epik_input>
W0NIM11jMVtjSF1jKFtOSDJdKW5jKG4xKVNbQ0gyXVtDQEhdKFtPSF0pW0NIMl1uKFtjSF1uMiljKGMyMylbY0hdYyhbQ0gzXSljKFtjSF0zKVtDSDNd

> <s_epik_cmdline>
J2VwaWtfcHl0aG9uJywgJy1waCcsICc3LjAnLCAnLXRuJywgJzgnLCAnLW1hJywgJzIwMCcsICctbWV0YWxfYmluZGluZycsICctaW1hZScsICc8aW5maWxlLm1hZT4nLCAnLW9tYWUnLCAnPG91dGZpbGUubWFlPic=

> <r_lp_tautomer_probability>
0.999762

> <r_epik_Ionization_Penalty>
1.50932

> <r_epik_Ionization_Penalty_Charging>
1.50929

> <r_epik_Ionization_Penalty_Neutral>
3.48853e-05

> <r_epik_State_Penalty>
1.56619

> <r_epik_Charging_Adjusted_Penalty>
3.07548

> <i_epik_Tot_Q>
2

> <i_epik_Tot_abs_Q>
2

> <r_epik_Metal_State_Penalty>
1.82892

> <b_epik_Metal_Only>
0

> <s_lp_Force_Field>
OPLS_2005

> <r_lp_Energy>
18.0663

> <b_lp_Chiralities_Consistent>
1

> <s_lp_Variant>
AV-unprocessed.smi:1006-7

> <Gold.Version>
5.8.1

> <Gold.Id.Protein>
6NUR|6NUR_protein|mol2

> <Gold.PLP.Fitness>
55.7823

> <Gold.PLP.PLP>
-42.2904

> <Gold.PLP.part.hbond>
-3.1732

> <Gold.PLP.part.metal>
0.0000

> <Gold.PLP.part.buried>
-5.9904

> <Gold.PLP.part.nonpolar>
-33.8916

> <Gold.PLP.part.repulsive>
0.1039

> <Gold.PLP.ligand.clash>
0.0000

> <Gold.PLP.ligand.torsion>
0.3721

> <Gold.PLP.Chemscore.Hbond>
4.7360

> <Gold.PLP.Chemscore.CHOScore>
0.0000

> <Gold.PLP.Chemscore.Metal>
0.0000

> <Gold.Chemscore.Hbonds>
donor molecule, donor type, donor heavy atom, donor atom, acceptor molecule, acceptor atom, score
      L1  H    15    47       P1  8028  2.00
      L1  H    24    46       P1  7948  2.00
      P1  H 10752 10764       L1    11  0.66

> <Gold.PLP.Chemscore.Internal.Correction>
0.0280

> <Gold.Rescore>
     Score         DG    S(hbond)    S(metal)    S(lipo)     H(rot)  DE(clash)    DE(int)     intcor
     17.18     -17.62       2.14        0.00     107.37       2.96       0.02       0.42       ----

> <Gold.Chemscore.Fitness>
17.1787

> <Gold.Chemscore.DG>
-17.6157

> <Gold.Chemscore.ZeroCoef>
-5.4800

> <Gold.Chemscore.Hbond>
2.1409

> <Gold.Chemscore.Metal>
0.0000

> <Gold.Chemscore.Lipo>
107.3690

> <Gold.Chemscore.Internal_Hbond>
0.0000

> <Gold.Chemscore.DEClash>
0.0212

> <Gold.Chemscore.DEInternal>
0.4158

> <Gold.Chemscore.Rot>
2.9599

> <Gold.Chemscore.Internal.Correction>
   9.000000E+99

> <Gold.Chemscore.Hbonds>
donor molecule, donor type, donor heavy atom, donor atom, acceptor molecule, acceptor atom, score
      L1  H    15    47       P1  8028  1.00
      L1  H    24    46       P1  7948  0.91
      P1  H 10752 10764       L1    11  0.12

> <Gold.Chemscore.Hbond.Weighted>
-7.1507

> <Gold.Chemscore.Metal.Weighted>
-0.0000

> <Gold.Chemscore.Lipo.Weighted>
-12.5622

> <Gold.Chemscore.Internal_Hbond.Weighted>
0.0000

> <Gold.Chemscore.DEClash.Weighted>
0.0212

> <Gold.Chemscore.DEInternal.Weighted>
0.4158

> <Gold.Chemscore.Rot.Weighted>
7.5772

> <Gold.Chemscore.Internal.Correction.Weighted>
   9.000000E+99

> <Gold.Protein.RotatedTorsions>
[ 6907 6896 6895 6894 ] final  135.64 input  -60.11 | X-H torsion
[ 7974 7965 7964 7962 ] final   32.51 input  175.53 | X-H torsion
[ 8008 7997 7996 7995 ] final  -96.23 input   59.86 | X-H torsion
[ 10167 10162 10161 10158 ] final  115.65 input  -65.29 | X-H torsion
[ 10718 10713 10712 10709 ] final  104.41 input   66.30 | X-H torsion
[ 10763 10752 10751 10750 ] final  -70.89 input  -60.55 | X-H torsion
[ 11005 11000 10999 10996 ] final   77.27 input  -57.11 | X-H torsion

> <Gold.Protein.ActiveResidues>
 VAL166  LYS551  ARG553  GLY616  TRP617  ASP618  TYR619  PRO620  LYS621  CYS622 
 ASP623  PHE694  ASN695  SER759  ASP760  ASP761  ALA762  ILE779  LEU786  VAL792 
 PHE793  MET794  SER795  GLU796  ALA797  LYS798  CYS799  TRP800  GLU811  SER814 

> <Gold.Protein.RotatedAtoms>
  152.2982  133.5629  159.5601 H   0  0  0  0  0  0  0  0  0  0  0  0  # atno 6907 bound_to 6896
  150.7266  134.0329  159.3748 H   0  0  0  0  0  0  0  0  0  0  0  0  # atno 6908 bound_to 6896
  151.8231  135.0646  160.0478 H   0  0  0  0  0  0  0  0  0  0  0  0  # atno 6909 bound_to 6896
  146.1481  139.6516  142.9117 H   0  0  0  0  0  0  0  0  0  0  0  0  # atno 7974 bound_to 7965
  154.7717  140.0473  157.1056 H   0  0  0  0  0  0  0  0  0  0  0  0  # atno 8008 bound_to 7997
  154.9813  140.3102  155.4926 H   0  0  0  0  0  0  0  0  0  0  0  0  # atno 8009 bound_to 7997
  156.2922  140.2235  156.4912 H   0  0  0  0  0  0  0  0  0  0  0  0  # atno 8010 bound_to 7997
  139.6302  144.7114  151.2448 H   0  0  0  0  0  0  0  0  0  0  0  0  # atno 10167 bound_to 10162
  157.6741  131.0803  150.5702 H   0  0  0  0  0  0  0  0  0  0  0  0  # atno 10718 bound_to 10713
  154.4240  135.5980  153.6027 H   0  0  0  0  0  0  0  0  0  0  0  0  # atno 10763 bound_to 10752
  152.9795  135.5959  154.3920 H   0  0  0  0  0  0  0  0  0  0  0  0  # atno 10764 bound_to 10752
  154.3750  135.2841  155.2223 H   0  0  0  0  0  0  0  0  0  0  0  0  # atno 10765 bound_to 10752
  139.9262  134.7669  156.1500 H   0  0  0  0  0  0  0  0  0  0  0  0  # atno 11005 bound_to 11000
  145.4888  141.0438  143.2604 LP  0  0  0  0  0  0  0  0  0  0  0  0  # atno 17320 bound_to 7965
  144.7871  139.6404  143.7129 LP  0  0  0  0  0  0  0  0  0  0  0  0  # atno 17321 bound_to 7965
  140.7435  143.6494  150.8262 LP  0  0  0  0  0  0  0  0  0  0  0  0  # atno 17342 bound_to 10162
  140.0118  143.5635  152.2836 LP  0  0  0  0  0  0  0  0  0  0  0  0  # atno 17343 bound_to 10162
  156.6003  130.4353  149.5900 LP  0  0  0  0  0  0  0  0  0  0  0  0  # atno 17370 bound_to 10713
  156.2511  130.6908  151.1646 LP  0  0  0  0  0  0  0  0  0  0  0  0  # atno 17371 bound_to 10713
  141.0821  133.6750  156.2357 LP  0  0  0  0  0  0  0  0  0  0  0  0  # atno 17394 bound_to 11000
  140.6330  134.5244  157.5561 LP  0  0  0  0  0  0  0  0  0  0  0  0  # atno 17395 bound_to 11000

$$$$
