AV-unprocessed.smi:862|AV-procd|sdf|3977|dock3
  -GOLD-   22720 1453D 1   1.00000     0.00000
 Structure written by MMmdl.
 44 46  0  0  0  0  0  0  0  0  2 V2000
  145.0242  135.4135  149.9000 N   0  0  0  0  0  0  0  0  0  0  0  0
  145.4582  134.7276  150.9619 C   0  0  0  0  0  0  0  0  0  0  0  0
  145.9837  133.6237  150.8300 O   0  0  0  0  0  0  0  0  0  0  0  0
  145.3058  135.3514  152.1576 N   0  0  0  0  0  0  0  0  0  0  0  0
  145.6391  134.7936  153.4789 C   0  0  0  0  0  0  0  0  0  0  0  0
  146.9320  135.4577  153.9874 C   0  0  0  0  0  0  0  0  0  0  0  0
  146.7867  136.9964  154.0408 C   0  0  0  0  0  0  0  0  0  0  0  0
  148.0726  137.6497  154.3710 N   0  3  0  0  0  0  0  0  0  0  0  0
  148.0859  139.1323  154.3365 C   0  0  1  0  0  0  0  0  0  0  0  0
  147.8024  139.8019  155.6852 C   0  0  0  0  0  0  0  0  0  0  0  0
  148.3965  141.2119  155.5630 C   0  0  0  0  0  0  0  0  0  0  0  0
  149.3704  141.1799  154.3719 C   0  0  0  0  0  0  0  0  0  0  0  0
  149.4393  139.7190  153.8950 C   0  0  1  0  0  0  0  0  0  0  0  0
  150.5884  139.0036  154.4487 N   0  0  0  0  0  0  0  0  0  0  0  0
  151.4691  139.4916  155.4073 C   0  0  0  0  0  0  0  0  0  0  0  0
  152.4187  138.5167  155.6110 C   0  0  0  0  0  0  0  0  0  0  0  0
  152.1546  137.4285  154.7847 N   0  0  0  0  0  0  0  0  0  0  0  0
  151.0599  137.7872  154.1281 C   0  0  0  0  0  0  0  0  0  0  0  0
  146.2578  137.5388  152.6966 C   0  0  0  0  0  0  0  0  0  0  0  0
  144.9940  136.7828  152.2497 C   0  0  0  0  0  0  0  0  0  0  0  0
  145.1116  135.0120  148.9776 H   0  0  0  0  0  0  0  0  0  0  0  0
  144.6172  136.3293  150.0204 H   0  0  0  0  0  0  0  0  0  0  0  0
  144.8200  134.9985  154.1700 H   0  0  0  0  0  0  0  0  0  0  0  0
  145.7551  133.7099  153.4839 H   0  0  0  0  0  0  0  0  0  0  0  0
  147.1768  135.0580  154.9703 H   0  0  0  0  0  0  0  0  0  0  0  0
  147.7591  135.1856  153.3295 H   0  0  0  0  0  0  0  0  0  0  0  0
  146.0510  137.2516  154.8053 H   0  0  0  0  0  0  0  0  0  0  0  0
  148.3904  137.3268  155.2739 H   0  0  0  0  0  0  0  0  0  0  0  0
  147.3342  139.4667  153.6194 H   0  0  0  0  0  0  0  0  0  0  0  0
  146.7378  139.8287  155.9191 H   0  0  0  0  0  0  0  0  0  0  0  0
  148.3029  139.2626  156.4902 H   0  0  0  0  0  0  0  0  0  0  0  0
  147.6098  141.9451  155.3812 H   0  0  0  0  0  0  0  0  0  0  0  0
  148.9012  141.5022  156.4852 H   0  0  0  0  0  0  0  0  0  0  0  0
  148.9693  141.8007  153.5699 H   0  0  0  0  0  0  0  0  0  0  0  0
  150.3493  141.5903  154.6244 H   0  0  0  0  0  0  0  0  0  0  0  0
  149.5291  139.6855  152.8081 H   0  0  0  0  0  0  0  0  0  0  0  0
  151.3517  140.4671  155.8562 H   0  0  0  0  0  0  0  0  0  0  0  0
  153.2676  138.5172  156.2790 H   0  0  0  0  0  0  0  0  0  0  0  0
  150.5968  137.1459  153.3929 H   0  0  0  0  0  0  0  0  0  0  0  0
  146.0404  138.6039  152.7823 H   0  0  0  0  0  0  0  0  0  0  0  0
  147.0252  137.4407  151.9268 H   0  0  0  0  0  0  0  0  0  0  0  0
  144.6267  137.1942  151.3083 H   0  0  0  0  0  0  0  0  0  0  0  0
  144.1890  136.9335  152.9705 H   0  0  0  0  0  0  0  0  0  0  0  0
  148.7401  137.3439  153.6774 H   0  0  0  0  0  0  0  0  0  0  0  0
  1  2  1  0  0  0  0
  1 21  1  0  0  0  0
  1 22  1  0  0  0  0
  2  3  2  0  0  0  0
  2  4  1  0  0  0  0
  4 20  1  0  0  0  0
  4  5  1  0  0  0  0
  5  6  1  0  0  0  0
  5 23  1  0  0  0  0
  5 24  1  0  0  0  0
  6  7  1  0  0  0  0
  6 25  1  0  0  0  0
  6 26  1  0  0  0  0
  7  8  1  0  0  0  0
  7 19  1  0  0  0  0
  7 27  1  0  0  0  0
  8  9  1  0  0  0  0
  8 28  1  0  0  0  0
  8 44  1  0  0  0  0
  9 13  1  0  0  0  0
  9 10  1  0  0  0  0
  9 29  1  0  0  0  0
 10 11  1  0  0  0  0
 10 30  1  0  0  0  0
 10 31  1  0  0  0  0
 11 12  1  0  0  0  0
 11 32  1  0  0  0  0
 11 33  1  0  0  0  0
 12 13  1  0  0  0  0
 12 34  1  0  0  0  0
 12 35  1  0  0  0  0
 13 14  1  0  0  0  0
 13 36  1  0  0  0  0
 14 18  1  0  0  0  0
 14 15  1  0  0  0  0
 15 16  2  0  0  0  0
 15 37  1  0  0  0  0
 16 17  1  0  0  0  0
 16 38  1  0  0  0  0
 17 18  2  0  0  0  0
 18 39  1  0  0  0  0
 19 20  1  0  0  0  0
 19 40  1  0  0  0  0
 19 41  1  0  0  0  0
 20 42  1  0  0  0  0
 20 43  1  0  0  0  0
M  CHG  1   8   1
M  END
> <s_m_source_file>
AV-unprocessed.smi

> <i_m_source_file_index>
862

> <i_lp_mmshare_version>
43012

> <i_f3d_flags>
0

> <s_epik_input>
W05IMl1DKD1PKU4xW0NIMl1bQ0gyXVtDSF0oW0NIMl1bQ0gyXTEpW05IXVtDQEBIXTJbQ0gyXVtDSDJdW0NIMl1bQ0BIXTJuM1tjSF1bY0hdbltjSF0z

> <s_epik_cmdline>
J2VwaWtfcHl0aG9uJywgJy1waCcsICc3LjAnLCAnLXRuJywgJzgnLCAnLW1hJywgJzIwMCcsICctbWV0YWxfYmluZGluZycsICctaW1hZScsICc8aW5maWxlLm1hZT4nLCAnLW9tYWUnLCAnPG91dGZpbGUubWFlPic=

> <r_lp_tautomer_probability>
1

> <r_epik_Ionization_Penalty>
0.0731506

> <r_epik_Ionization_Penalty_Charging>
0.0731

> <r_epik_Ionization_Penalty_Neutral>
5.05966e-05

> <r_epik_State_Penalty>
0.128895

> <r_epik_Charging_Adjusted_Penalty>
0.201995

> <i_epik_Tot_Q>
1

> <i_epik_Tot_abs_Q>
1

> <r_epik_Metal_State_Penalty>
0.113934

> <b_epik_Metal_Only>
0

> <s_lp_Force_Field>
OPLS_2005

> <r_lp_Energy>
58.7587

> <b_lp_Chiralities_Consistent>
1

> <s_lp_Variant>
AV-unprocessed.smi:862-2

> <Gold.Version>
5.8.1

> <Gold.Id.Protein>
6NUR|6NUR_protein|mol2

> <Gold.PLP.Fitness>
41.8935

> <Gold.PLP.PLP>
-29.7390

> <Gold.PLP.part.hbond>
-3.9329

> <Gold.PLP.part.metal>
0.0000

> <Gold.PLP.part.buried>
1.8634

> <Gold.PLP.part.nonpolar>
-27.8173

> <Gold.PLP.part.repulsive>
0.7488

> <Gold.PLP.ligand.clash>
1.0949

> <Gold.PLP.ligand.torsion>
0.6759

> <Gold.PLP.Chemscore.Hbond>
3.8792

> <Gold.PLP.Chemscore.CHOScore>
0.9603

> <Gold.PLP.Chemscore.Metal>
0.0000

> <Gold.Chemscore.Hbonds>
donor molecule, donor type, donor heavy atom, donor atom, acceptor molecule, acceptor atom, score
      L1  H     1    21       P1  7921  0.90
      L1  H     1    22       P1 10171  0.16
      L1  H     8    44       P1  7948  1.37
      P1  H 10752 10763       L1    17  0.78
      L1  C    18    39       P1  7948  0.41
      L1  C    18    39       P1  7949  0.57

> <Gold.PLP.Chemscore.Internal.Correction>
0.0828

> <Gold.Rescore>
     Score         DG    S(hbond)    S(metal)    S(lipo)     H(rot)  DE(clash)    DE(int)     intcor
     15.55     -17.06       2.84        0.00      53.79       1.64       0.30       1.21       ----

> <Gold.Chemscore.Fitness>
15.5507

> <Gold.Chemscore.DG>
-17.0628

> <Gold.Chemscore.ZeroCoef>
-5.4800

> <Gold.Chemscore.Hbond>
2.8415

> <Gold.Chemscore.Metal>
0.0000

> <Gold.Chemscore.Lipo>
53.7897

> <Gold.Chemscore.Internal_Hbond>
0.0000

> <Gold.Chemscore.DEClash>
0.3009

> <Gold.Chemscore.DEInternal>
1.2113

> <Gold.Chemscore.Rot>
1.6411

> <Gold.Chemscore.Internal.Correction>
   9.000000E+99

> <Gold.Chemscore.Hbonds>
donor molecule, donor type, donor heavy atom, donor atom, acceptor molecule, acceptor atom, score
      L1  H     1    21       P1  7921  0.88
      L1  H     1    22       P1 10171  0.18
      L1  H     8    44       P1  7948  0.66
      P1  H 10752 10763       L1    17  0.74

> <Gold.Chemscore.Hbond.Weighted>
-9.4908

> <Gold.Chemscore.Metal.Weighted>
-0.0000

> <Gold.Chemscore.Lipo.Weighted>
-6.2934

> <Gold.Chemscore.Internal_Hbond.Weighted>
0.0000

> <Gold.Chemscore.DEClash.Weighted>
0.3009

> <Gold.Chemscore.DEInternal.Weighted>
1.2113

> <Gold.Chemscore.Rot.Weighted>
4.2013

> <Gold.Chemscore.Internal.Correction.Weighted>
   9.000000E+99

> <Gold.Protein.RotatedTorsions>
[ 6907 6896 6895 6894 ] final   52.55 input  -60.11 | X-H torsion
[ 7974 7965 7964 7962 ] final   56.35 input  175.53 | X-H torsion
[ 8008 7997 7996 7995 ] final  -73.07 input   59.86 | X-H torsion
[ 10167 10162 10161 10158 ] final  -32.83 input  -65.29 | X-H torsion
[ 10718 10713 10712 10709 ] final  -37.68 input   66.30 | X-H torsion
[ 10763 10752 10751 10750 ] final   50.13 input  -60.55 | X-H torsion
[ 11005 11000 10999 10996 ] final -163.55 input  -57.11 | X-H torsion

> <Gold.Protein.ActiveResidues>
 VAL166  LYS551  ARG553  GLY616  TRP617  ASP618  TYR619  PRO620  LYS621  CYS622 
 ASP623  PHE694  ASN695  SER759  ASP760  ASP761  ALA762  ILE779  LEU786  VAL792 
 PHE793  MET794  SER795  GLU796  ALA797  LYS798  CYS799  TRP800  GLU811  SER814 

> <Gold.Protein.RotatedAtoms>
  152.3245  134.7339  160.0305 H   0  0  0  0  0  0  0  0  0  0  0  0  # atno 6907 bound_to 6896
  151.7776  133.3341  159.3470 H   0  0  0  0  0  0  0  0  0  0  0  0  # atno 6908 bound_to 6896
  150.7388  134.5892  159.6023 H   0  0  0  0  0  0  0  0  0  0  0  0  # atno 6909 bound_to 6896
  145.9407  139.3886  143.0365 H   0  0  0  0  0  0  0  0  0  0  0  0  # atno 7974 bound_to 7965
  154.5217  140.0786  156.8184 H   0  0  0  0  0  0  0  0  0  0  0  0  # atno 8008 bound_to 7997
  155.3562  140.3415  155.4222 H   0  0  0  0  0  0  0  0  0  0  0  0  # atno 8009 bound_to 7997
  156.1688  140.1613  156.8471 H   0  0  0  0  0  0  0  0  0  0  0  0  # atno 8010 bound_to 7997
  140.7215  143.3665  151.1860 H   0  0  0  0  0  0  0  0  0  0  0  0  # atno 10167 bound_to 10162
  156.3124  130.4254  149.8037 H   0  0  0  0  0  0  0  0  0  0  0  0  # atno 10718 bound_to 10713
  152.9785  135.5889  154.4203 H   0  0  0  0  0  0  0  0  0  0  0  0  # atno 10763 bound_to 10752
  154.3828  135.2767  155.2203 H   0  0  0  0  0  0  0  0  0  0  0  0  # atno 10764 bound_to 10752
  154.4109  135.6081  153.6007 H   0  0  0  0  0  0  0  0  0  0  0  0  # atno 10765 bound_to 10752
  140.5968  134.4988  157.5200 H   0  0  0  0  0  0  0  0  0  0  0  0  # atno 11005 bound_to 11000
  145.8303  140.9634  143.0852 LP  0  0  0  0  0  0  0  0  0  0  0  0  # atno 17320 bound_to 7965
  144.6779  140.0154  143.7484 LP  0  0  0  0  0  0  0  0  0  0  0  0  # atno 17321 bound_to 7965
  139.7228  143.9196  152.2992 LP  0  0  0  0  0  0  0  0  0  0  0  0  # atno 17342 bound_to 10162
  139.8958  144.6939  150.8719 LP  0  0  0  0  0  0  0  0  0  0  0  0  # atno 17343 bound_to 10162
  156.5375  130.8285  151.3258 LP  0  0  0  0  0  0  0  0  0  0  0  0  # atno 17370 bound_to 10713
  157.7394  130.9831  150.2311 LP  0  0  0  0  0  0  0  0  0  0  0  0  # atno 17371 bound_to 10713
  139.9249  134.8075  156.1097 LP  0  0  0  0  0  0  0  0  0  0  0  0  # atno 17394 bound_to 11000
  141.0898  133.6719  156.2516 LP  0  0  0  0  0  0  0  0  0  0  0  0  # atno 17395 bound_to 11000

$$$$
