AV-unprocessed.smi:2039|AV-procd|sdf|8283|dock1
  -GOLD-   2272010553D 1   1.00000     0.00000
 Structure written by MMmdl.
 33 34  0  0  0  0  0  0  0  0  1 V2000
  152.6062  132.2188  157.3283 C   0  0  0  0  0  0  0  0  0  0  0  0
  151.7012  132.9683  156.4110 C   0  0  0  0  0  0  0  0  0  0  0  0
  151.6406  134.3053  156.3832 N   0  0  0  0  0  0  0  0  0  0  0  0
  150.7264  134.7712  155.4487 N   0  0  0  0  0  0  0  0  0  0  0  0
  150.1228  133.7680  154.7966 C   0  0  0  0  0  0  0  0  0  0  0  0
  149.1417  133.9592  153.7879 N   0  0  0  0  0  0  0  0  0  0  0  0
  148.1978  133.0977  153.3692 C   0  0  0  0  0  0  0  0  0  0  0  0
  148.0205  131.9635  153.8147 O   0  0  0  0  0  0  0  0  0  0  0  0
  147.4539  133.6321  152.3896 N   0  0  0  0  0  0  0  0  0  0  0  0
  146.3463  132.9642  151.7121 C   0  0  2  0  0  0  0  0  0  0  0  0
  146.6188  132.9199  150.1978 C   0  0  0  0  0  0  0  0  0  0  0  0
  145.4561  132.2616  149.4346 C   0  0  0  0  0  0  0  0  0  0  0  0
  144.1052  132.9388  149.7329 C   0  0  2  0  0  0  0  0  0  0  0  0
  144.0705  134.2266  149.1500 O   0  0  0  0  0  0  0  0  0  0  0  0
  143.8422  133.0363  151.2476 C   0  0  0  0  0  0  0  0  0  0  0  0
  145.0146  133.6846  152.0050 C   0  0  0  0  0  0  0  0  0  0  0  0
  150.6281  132.1567  155.2773 S   0  0  0  0  0  0  0  0  0  0  0  0
  153.1430  132.9040  157.9854 H   0  0  0  0  0  0  0  0  0  0  0  0
  153.3328  131.6483  156.7498 H   0  0  0  0  0  0  0  0  0  0  0  0
  152.0266  131.5293  157.9421 H   0  0  0  0  0  0  0  0  0  0  0  0
  149.1621  134.8584  153.3299 H   0  0  0  0  0  0  0  0  0  0  0  0
  147.6691  134.5708  152.0869 H   0  0  0  0  0  0  0  0  0  0  0  0
  146.2785  131.9359  152.0730 H   0  0  0  0  0  0  0  0  0  0  0  0
  146.7756  133.9312  149.8195 H   0  0  0  0  0  0  0  0  0  0  0  0
  147.5407  132.3720  149.9999 H   0  0  0  0  0  0  0  0  0  0  0  0
  145.6564  132.2726  148.3625 H   0  0  0  0  0  0  0  0  0  0  0  0
  145.3971  131.2107  149.7210 H   0  0  0  0  0  0  0  0  0  0  0  0
  143.3064  132.3592  149.2689 H   0  0  0  0  0  0  0  0  0  0  0  0
  144.9053  134.3932  148.7395 H   0  0  0  0  0  0  0  0  0  0  0  0
  142.9213  133.5890  151.4378 H   0  0  0  0  0  0  0  0  0  0  0  0
  143.6800  132.0332  151.6442 H   0  0  0  0  0  0  0  0  0  0  0  0
  144.8058  133.6688  153.0755 H   0  0  0  0  0  0  0  0  0  0  0  0
  145.0937  134.7358  151.7239 H   0  0  0  0  0  0  0  0  0  0  0  0
  1  2  1  0  0  0  0
  1 18  1  0  0  0  0
  1 19  1  0  0  0  0
  1 20  1  0  0  0  0
  2 17  1  0  0  0  0
  2  3  2  0  0  0  0
  3  4  1  0  0  0  0
  4  5  2  0  0  0  0
  5  6  1  0  0  0  0
  5 17  1  0  0  0  0
  6  7  1  0  0  0  0
  6 21  1  0  0  0  0
  7  8  2  0  0  0  0
  7  9  1  0  0  0  0
  9 10  1  0  0  0  0
  9 22  1  0  0  0  0
 10 16  1  0  0  0  0
 10 11  1  0  0  0  0
 10 23  1  0  0  0  0
 11 12  1  0  0  0  0
 11 24  1  0  0  0  0
 11 25  1  0  0  0  0
 12 13  1  0  0  0  0
 12 26  1  0  0  0  0
 12 27  1  0  0  0  0
 13 14  1  0  0  0  0
 13 15  1  0  0  0  0
 13 28  1  0  0  0  0
 14 29  1  0  0  0  0
 15 16  1  0  0  0  0
 15 30  1  0  0  0  0
 15 31  1  0  0  0  0
 16 32  1  0  0  0  0
 16 33  1  0  0  0  0
M  END
> <s_m_source_file>
AV-unprocessed.smi

> <i_m_source_file_index>
2039

> <i_lp_mmshare_version>
43012

> <i_f3d_flags>
0

> <s_epik_input>
W0NIM11jMW5uYyhzMSlbTkhdQyg9TylbTkhdW0NAQEhdMltDSDJdW0NIMl1bQ0BASF0oW09IXSlbQ0gyXVtDSDJdMg==

> <s_epik_cmdline>
J2VwaWtfcHl0aG9uJywgJy1waCcsICc3LjAnLCAnLXRuJywgJzgnLCAnLW1hJywgJzIwMCcsICctbWV0YWxfYmluZGluZycsICctaW1hZScsICc8aW5maWxlLm1hZT4nLCAnLW9tYWUnLCAnPG91dGZpbGUubWFlPic=

> <r_lp_tautomer_probability>
1

> <r_epik_Ionization_Penalty>
0.000385244

> <r_epik_Ionization_Penalty_Charging>
0

> <r_epik_Ionization_Penalty_Neutral>
0.000385244

> <r_epik_State_Penalty>
-0

> <r_epik_Charging_Adjusted_Penalty>
0

> <i_epik_Tot_Q>
0

> <i_epik_Tot_abs_Q>
0

> <r_epik_Metal_State_Penalty>
0.189642

> <b_epik_Metal_Only>
0

> <s_lp_Force_Field>
OPLS_2005

> <r_lp_Energy>
9.23932

> <b_lp_Chiralities_Consistent>
1

> <s_lp_Variant>
AV-unprocessed.smi:2039-2

> <Gold.Version>
5.8.1

> <Gold.Id.Protein>
6NUR|6NUR_protein|mol2

> <Gold.PLP.Fitness>
37.9155

> <Gold.PLP.PLP>
-29.6517

> <Gold.PLP.part.hbond>
-4.5319

> <Gold.PLP.part.metal>
0.0000

> <Gold.PLP.part.buried>
-1.6850

> <Gold.PLP.part.nonpolar>
-20.4538

> <Gold.PLP.part.repulsive>
0.1768

> <Gold.PLP.ligand.clash>
0.0000

> <Gold.PLP.ligand.torsion>
0.1259

> <Gold.PLP.Chemscore.Hbond>
2.8374

> <Gold.PLP.Chemscore.CHOScore>
0.0000

> <Gold.PLP.Chemscore.Metal>
0.0000

> <Gold.Chemscore.Hbonds>
donor molecule, donor type, donor heavy atom, donor atom, acceptor molecule, acceptor atom, score
      L1  H     6    21       P1  7948  0.75
      L1  H     9    22       P1  7948  0.93
      L1  H    14    29       P1  7921  1.00
      P1  H 10752 10763       L1     3  0.10

> <Gold.PLP.Chemscore.Internal.Correction>
0.0033

> <Gold.Rescore>
     Score         DG    S(hbond)    S(metal)    S(lipo)     H(rot)  DE(clash)    DE(int)     intcor
     15.09     -16.37       2.13        0.00      65.10       1.50       0.19       1.09       ----

> <Gold.Chemscore.Fitness>
15.0940

> <Gold.Chemscore.DG>
-16.3711

> <Gold.Chemscore.ZeroCoef>
-5.4800

> <Gold.Chemscore.Hbond>
2.1304

> <Gold.Chemscore.Metal>
0.0000

> <Gold.Chemscore.Lipo>
65.0971

> <Gold.Chemscore.Internal_Hbond>
0.0000

> <Gold.Chemscore.DEClash>
0.1865

> <Gold.Chemscore.DEInternal>
1.0905

> <Gold.Chemscore.Rot>
1.5004

> <Gold.Chemscore.Internal.Correction>
   9.000000E+99

> <Gold.Chemscore.Hbonds>
donor molecule, donor type, donor heavy atom, donor atom, acceptor molecule, acceptor atom, score
      L1  H     6    21       P1  7948  0.09
      L1  H     9    22       P1  7948  0.47
      L1  H    14    29       P1  7921  1.00

> <Gold.Chemscore.Hbond.Weighted>
-7.1156

> <Gold.Chemscore.Metal.Weighted>
-0.0000

> <Gold.Chemscore.Lipo.Weighted>
-7.6164

> <Gold.Chemscore.Internal_Hbond.Weighted>
0.0000

> <Gold.Chemscore.DEClash.Weighted>
0.1865

> <Gold.Chemscore.DEInternal.Weighted>
1.0905

> <Gold.Chemscore.Rot.Weighted>
3.8409

> <Gold.Chemscore.Internal.Correction.Weighted>
   9.000000E+99

> <Gold.Protein.RotatedTorsions>
[ 6907 6896 6895 6894 ] final  149.55 input  -60.11 | X-H torsion
[ 7974 7965 7964 7962 ] final  139.43 input  175.53 | X-H torsion
[ 8008 7997 7996 7995 ] final  -21.70 input   59.86 | X-H torsion
[ 10167 10162 10161 10158 ] final   13.10 input  -65.29 | X-H torsion
[ 10718 10713 10712 10709 ] final -104.72 input   66.30 | X-H torsion
[ 10763 10752 10751 10750 ] final  103.59 input  -60.55 | X-H torsion
[ 11005 11000 10999 10996 ] final -157.85 input  -57.11 | X-H torsion

> <Gold.Protein.ActiveResidues>
 VAL166  LYS551  ARG553  GLY616  TRP617  ASP618  TYR619  PRO620  LYS621  CYS622 
 ASP623  PHE694  ASN695  SER759  ASP760  ASP761  ALA762  ILE779  LEU786  VAL792 
 PHE793  MET794  SER795  GLU796  ALA797  LYS798  CYS799  TRP800  GLU811  SER814 

> <Gold.Protein.RotatedAtoms>
  152.1265  133.4383  159.4699 H   0  0  0  0  0  0  0  0  0  0  0  0  # atno 6907 bound_to 6896
  150.6875  134.2473  159.4505 H   0  0  0  0  0  0  0  0  0  0  0  0  # atno 6908 bound_to 6896
  152.0353  134.9743  160.0624 H   0  0  0  0  0  0  0  0  0  0  0  0  # atno 6909 bound_to 6896
  144.9279  139.5084  143.5632 H   0  0  0  0  0  0  0  0  0  0  0  0  # atno 7974 bound_to 7965
  154.4689  140.2028  156.0045 H   0  0  0  0  0  0  0  0  0  0  0  0  # atno 8008 bound_to 7997
  156.0977  140.3248  155.7870 H   0  0  0  0  0  0  0  0  0  0  0  0  # atno 8009 bound_to 7997
  155.4851  140.0541  157.2952 H   0  0  0  0  0  0  0  0  0  0  0  0  # atno 8010 bound_to 7997
  140.6025  143.8576  150.6979 H   0  0  0  0  0  0  0  0  0  0  0  0  # atno 10167 bound_to 10162
  156.0316  130.5529  150.7437 H   0  0  0  0  0  0  0  0  0  0  0  0  # atno 10718 bound_to 10713
  153.3547  135.3971  155.1673 H   0  0  0  0  0  0  0  0  0  0  0  0  # atno 10763 bound_to 10752
  154.8668  135.3665  154.5177 H   0  0  0  0  0  0  0  0  0  0  0  0  # atno 10764 bound_to 10752
  153.5631  135.7080  153.5598 H   0  0  0  0  0  0  0  0  0  0  0  0  # atno 10765 bound_to 10752
  140.6600  134.4359  157.5234 H   0  0  0  0  0  0  0  0  0  0  0  0  # atno 11005 bound_to 11000
  146.3234  139.8208  142.8927 LP  0  0  0  0  0  0  0  0  0  0  0  0  # atno 17320 bound_to 7965
  145.3189  141.0239  143.3512 LP  0  0  0  0  0  0  0  0  0  0  0  0  # atno 17321 bound_to 7965
  140.2125  143.3872  152.1707 LP  0  0  0  0  0  0  0  0  0  0  0  0  # atno 17342 bound_to 10162
  139.5301  144.7149  151.5087 LP  0  0  0  0  0  0  0  0  0  0  0  0  # atno 17343 bound_to 10162
  157.4999  131.0918  151.0326 LP  0  0  0  0  0  0  0  0  0  0  0  0  # atno 17370 bound_to 10713
  157.0710  130.5864  149.5402 LP  0  0  0  0  0  0  0  0  0  0  0  0  # atno 17371 bound_to 10713
  139.9016  134.8543  156.1873 LP  0  0  0  0  0  0  0  0  0  0  0  0  # atno 17394 bound_to 11000
  141.0472  133.6907  156.1705 LP  0  0  0  0  0  0  0  0  0  0  0  0  # atno 17395 bound_to 11000

$$$$
