AV-unprocessed.smi:370|AV-procd|sdf|2439|dock8
  -GOLD-   2262022383D 1   1.00000     0.00000
 Structure written by MMmdl.
 42 43  0  0  0  0  0  0  0  0  3 V2000
  151.5556  141.0461  156.7089 C   0  0  0  0  0  0  0  0  0  0  0  0
  151.3752  139.7644  155.9699 C   0  0  0  0  0  0  0  0  0  0  0  0
  151.6611  138.4660  156.2832 C   0  0  0  0  0  0  0  0  0  0  0  0
  151.2291  137.7515  155.1326 C   0  0  0  0  0  0  0  0  0  0  0  0
  151.3124  136.4245  154.9522 N   0  5  0  0  0  0  0  0  0  0  0  0
  150.3376  135.6118  155.4185 C   0  0  0  0  0  0  0  0  0  0  0  0
  150.2980  135.0793  156.5300 O   0  0  0  0  0  0  0  0  0  0  0  0
  149.3529  135.3949  154.5347 N   0  0  0  0  0  0  0  0  0  0  0  0
  148.1734  134.5529  154.7338 C   0  0  0  0  0  0  0  0  0  0  0  0
  146.8284  135.2349  154.3344 C   0  0  0  0  0  0  0  0  0  0  0  0
  145.6905  134.5213  155.1121 C   0  0  0  0  0  0  0  0  0  0  0  0
  146.8176  136.7271  154.7486 C   0  0  0  0  0  0  0  0  0  0  0  0
  146.6459  135.0853  152.8433 N   0  3  0  0  0  0  0  0  0  0  0  0
  146.6258  133.6912  152.3138 C   0  0  0  0  0  0  0  0  0  0  0  0
  146.5912  133.6899  150.7751 C   0  0  0  0  0  0  0  0  0  0  0  0
  145.4748  134.4330  150.3080 O   0  0  0  0  0  0  0  0  0  0  0  0
  145.5388  135.7888  150.7253 C   0  0  0  0  0  0  0  0  0  0  0  0
  145.5046  135.8486  152.2599 C   0  0  0  0  0  0  0  0  0  0  0  0
  150.7395  138.5476  154.1969 N   0  0  0  0  0  0  0  0  0  0  0  0
  150.8234  139.8399  154.7289 O   0  0  0  0  0  0  0  0  0  0  0  0
  152.6089  141.2171  156.9312 H   0  0  0  0  0  0  0  0  0  0  0  0
  151.0093  141.0268  157.6519 H   0  0  0  0  0  0  0  0  0  0  0  0
  151.1921  141.8921  156.1252 H   0  0  0  0  0  0  0  0  0  0  0  0
  152.1050  138.0865  157.1913 H   0  0  0  0  0  0  0  0  0  0  0  0
  149.4337  135.8563  153.6403 H   0  0  0  0  0  0  0  0  0  0  0  0
  148.3266  133.6120  154.2083 H   0  0  0  0  0  0  0  0  0  0  0  0
  148.1452  134.2908  155.7919 H   0  0  0  0  0  0  0  0  0  0  0  0
  145.8606  134.5329  156.1889 H   0  0  0  0  0  0  0  0  0  0  0  0
  145.5945  133.4770  154.8126 H   0  0  0  0  0  0  0  0  0  0  0  0
  144.7251  135.0070  154.9691 H   0  0  0  0  0  0  0  0  0  0  0  0
  146.8159  136.8396  155.8331 H   0  0  0  0  0  0  0  0  0  0  0  0
  145.9318  137.2434  154.3789 H   0  0  0  0  0  0  0  0  0  0  0  0
  147.6940  137.2607  154.3805 H   0  0  0  0  0  0  0  0  0  0  0  0
  147.5153  133.1362  152.6066 H   0  0  0  0  0  0  0  0  0  0  0  0
  145.7619  133.1546  152.7077 H   0  0  0  0  0  0  0  0  0  0  0  0
  147.5140  134.1053  150.3667 H   0  0  0  0  0  0  0  0  0  0  0  0
  146.5135  132.6682  150.4031 H   0  0  0  0  0  0  0  0  0  0  0  0
  146.4377  136.2676  150.3336 H   0  0  0  0  0  0  0  0  0  0  0  0
  144.6851  136.3243  150.3097 H   0  0  0  0  0  0  0  0  0  0  0  0
  144.5576  135.4330  152.6064 H   0  0  0  0  0  0  0  0  0  0  0  0
  145.5199  136.8936  152.5605 H   0  0  0  0  0  0  0  0  0  0  0  0
  147.4781  135.4976  152.4463 H   0  0  0  0  0  0  0  0  0  0  0  0
  1  2  1  0  0  0  0
  1 21  1  0  0  0  0
  1 22  1  0  0  0  0
  1 23  1  0  0  0  0
  2 20  1  0  0  0  0
  2  3  2  0  0  0  0
  3  4  1  0  0  0  0
  3 24  1  0  0  0  0
  4  5  1  0  0  0  0
  4 19  2  0  0  0  0
  5  6  1  0  0  0  0
  6  7  2  0  0  0  0
  6  8  1  0  0  0  0
  8  9  1  0  0  0  0
  8 25  1  0  0  0  0
  9 10  1  0  0  0  0
  9 26  1  0  0  0  0
  9 27  1  0  0  0  0
 10 11  1  0  0  0  0
 10 12  1  0  0  0  0
 10 13  1  0  0  0  0
 11 28  1  0  0  0  0
 11 29  1  0  0  0  0
 11 30  1  0  0  0  0
 12 31  1  0  0  0  0
 12 32  1  0  0  0  0
 12 33  1  0  0  0  0
 13 18  1  0  0  0  0
 13 14  1  0  0  0  0
 13 42  1  0  0  0  0
 14 15  1  0  0  0  0
 14 34  1  0  0  0  0
 14 35  1  0  0  0  0
 15 16  1  0  0  0  0
 15 36  1  0  0  0  0
 15 37  1  0  0  0  0
 16 17  1  0  0  0  0
 17 18  1  0  0  0  0
 17 38  1  0  0  0  0
 17 39  1  0  0  0  0
 18 40  1  0  0  0  0
 18 41  1  0  0  0  0
 19 20  1  0  0  0  0
M  CHG  1   5  -1
M  CHG  1  13   1
M  END
> <s_m_source_file>
AV-unprocessed.smi

> <i_m_source_file_index>
370

> <i_lp_mmshare_version>
43012

> <i_f3d_flags>
0

> <s_epik_input>
W0NIM11jMVtjSF1jKG5vMSlbTkhdQyg9TylbTkhdW0NIMl1DKFtDSDNdKShbQ0gzXSlOMltDSDJdW0NIMl1PW0NIMl1bQ0gyXTI=

> <s_epik_cmdline>
J2VwaWtfcHl0aG9uJywgJy1waCcsICc3LjAnLCAnLXRuJywgJzgnLCAnLW1hJywgJzIwMCcsICctbWV0YWxfYmluZGluZycsICctaW1hZScsICc8aW5maWxlLm1hZT4nLCAnLW9tYWUnLCAnPG91dGZpbGUubWFlPic=

> <r_epik_Ionization_Penalty>
6.73014

> <r_epik_Ionization_Penalty_Charging>
6.73004

> <r_epik_Ionization_Penalty_Neutral>
9.76201e-05

> <r_epik_State_Penalty>
6.93052

> <r_epik_Charging_Adjusted_Penalty>
13.6606

> <i_epik_Tot_Q>
0

> <i_epik_Tot_abs_Q>
2

> <r_epik_Metal_State_Penalty>
2.86736

> <b_epik_Metal_Only>
1

> <s_lp_Force_Field>
OPLS_2005

> <r_lp_Energy>
13.9603

> <b_lp_Chiralities_Consistent>
1

> <s_lp_Variant>
AV-unprocessed.smi:370-4

> <Gold.Version>
5.8.1

> <Gold.Id.Protein>
6NUR|6NUR_protein|mol2

> <Gold.PLP.Fitness>
42.7307

> <Gold.PLP.PLP>
-28.5682

> <Gold.PLP.part.hbond>
-4.0000

> <Gold.PLP.part.metal>
0.0000

> <Gold.PLP.part.buried>
-5.0071

> <Gold.PLP.part.nonpolar>
-19.5938

> <Gold.PLP.part.repulsive>
1.0318

> <Gold.PLP.ligand.clash>
0.0000

> <Gold.PLP.ligand.torsion>
1.9678

> <Gold.PLP.Chemscore.Hbond>
6.0000

> <Gold.PLP.Chemscore.CHOScore>
0.0000

> <Gold.PLP.Chemscore.Metal>
0.0000

> <Gold.Chemscore.Hbonds>
donor molecule, donor type, donor heavy atom, donor atom, acceptor molecule, acceptor atom, score
      L1  H     8    25       P1  7948  1.00
      L1  H    13    42       P1  7948  2.00
      P1  H  7989  7998       L1    20  1.00
      P1  H 10752 10764       L1     5  2.00

> <Gold.PLP.Chemscore.Internal.Correction>
0.0981

> <Gold.Rescore>
     Score         DG    S(hbond)    S(metal)    S(lipo)     H(rot)  DE(clash)    DE(int)     intcor
     16.10     -18.09       3.37        0.00      45.95       1.57       0.02       1.97       ----

> <Gold.Chemscore.Fitness>
16.1011

> <Gold.Chemscore.DG>
-18.0914

> <Gold.Chemscore.ZeroCoef>
-5.4800

> <Gold.Chemscore.Hbond>
3.3695

> <Gold.Chemscore.Metal>
0.0000

> <Gold.Chemscore.Lipo>
45.9539

> <Gold.Chemscore.Internal_Hbond>
0.0000

> <Gold.Chemscore.DEClash>
0.0246

> <Gold.Chemscore.DEInternal>
1.9657

> <Gold.Chemscore.Rot>
1.5701

> <Gold.Chemscore.Internal.Correction>
   9.000000E+99

> <Gold.Chemscore.Hbonds>
donor molecule, donor type, donor heavy atom, donor atom, acceptor molecule, acceptor atom, score
      L1  H     8    25       P1  7948  0.44
      L1  H    13    42       P1  7948  1.00
      P1  H  7989  7998       L1    20  0.58
      P1  H 10752 10764       L1     5  0.93

> <Gold.Chemscore.Hbond.Weighted>
-11.2542

> <Gold.Chemscore.Metal.Weighted>
-0.0000

> <Gold.Chemscore.Lipo.Weighted>
-5.3766

> <Gold.Chemscore.Internal_Hbond.Weighted>
0.0000

> <Gold.Chemscore.DEClash.Weighted>
0.0246

> <Gold.Chemscore.DEInternal.Weighted>
1.9657

> <Gold.Chemscore.Rot.Weighted>
4.0194

> <Gold.Chemscore.Internal.Correction.Weighted>
   9.000000E+99

> <Gold.Protein.RotatedTorsions>
[ 6907 6896 6895 6894 ] final  -53.82 input  -60.11 | X-H torsion
[ 7974 7965 7964 7962 ] final -126.96 input  175.53 | X-H torsion
[ 8008 7997 7996 7995 ] final  145.69 input   59.86 | X-H torsion
[ 10167 10162 10161 10158 ] final -173.83 input  -65.29 | X-H torsion
[ 10718 10713 10712 10709 ] final   16.08 input   66.30 | X-H torsion
[ 10763 10752 10751 10750 ] final  -67.49 input  -60.55 | X-H torsion
[ 11005 11000 10999 10996 ] final  150.85 input  -57.11 | X-H torsion

> <Gold.Protein.ActiveResidues>
 VAL166  LYS551  ARG553  GLY616  TRP617  ASP618  TYR619  PRO620  LYS621  CYS622 
 ASP623  PHE694  ASN695  SER759  ASP760  ASP761  ALA762  ILE779  LEU786  VAL792 
 PHE793  MET794  SER795  GLU796  ALA797  LYS798  CYS799  TRP800  GLU811  SER814 

> <Gold.Protein.RotatedAtoms>
  150.8393  134.7678  159.6918 H   0  0  0  0  0  0  0  0  0  0  0  0  # atno 6907 bound_to 6896
  152.4483  134.5444  159.9858 H   0  0  0  0  0  0  0  0  0  0  0  0  # atno 6908 bound_to 6896
  151.5587  133.3368  159.3003 H   0  0  0  0  0  0  0  0  0  0  0  0  # atno 6909 bound_to 6896
  144.9819  140.7649  143.4607 H   0  0  0  0  0  0  0  0  0  0  0  0  # atno 7974 bound_to 7965
  156.2876  140.2202  156.5257 H   0  0  0  0  0  0  0  0  0  0  0  0  # atno 8008 bound_to 7997
  154.7491  140.0481  157.0900 H   0  0  0  0  0  0  0  0  0  0  0  0  # atno 8009 bound_to 7997
  155.0132  140.3115  155.4825 H   0  0  0  0  0  0  0  0  0  0  0  0  # atno 8010 bound_to 7997
  139.5667  144.1739  152.1323 H   0  0  0  0  0  0  0  0  0  0  0  0  # atno 10167 bound_to 10162
  157.0627  130.6316  149.5789 H   0  0  0  0  0  0  0  0  0  0  0  0  # atno 10718 bound_to 10713
  154.3752  135.6086  153.5761 H   0  0  0  0  0  0  0  0  0  0  0  0  # atno 10763 bound_to 10752
  152.9789  135.5847  154.4475 H   0  0  0  0  0  0  0  0  0  0  0  0  # atno 10764 bound_to 10752
  154.4235  135.2846  155.1937 H   0  0  0  0  0  0  0  0  0  0  0  0  # atno 10765 bound_to 10752
  140.1168  134.8889  157.2015 H   0  0  0  0  0  0  0  0  0  0  0  0  # atno 11005 bound_to 11000
  145.2408  139.2073  143.4993 LP  0  0  0  0  0  0  0  0  0  0  0  0  # atno 17320 bound_to 7965
  146.3410  140.2303  142.8593 LP  0  0  0  0  0  0  0  0  0  0  0  0  # atno 17321 bound_to 7965
  140.1263  144.5328  150.6830 LP  0  0  0  0  0  0  0  0  0  0  0  0  # atno 17342 bound_to 10162
  140.6950  143.2398  151.5025 LP  0  0  0  0  0  0  0  0  0  0  0  0  # atno 17343 bound_to 10162
  155.9973  130.5045  150.7531 LP  0  0  0  0  0  0  0  0  0  0  0  0  # atno 17370 bound_to 10713
  157.4941  131.0913  151.0392 LP  0  0  0  0  0  0  0  0  0  0  0  0  # atno 17371 bound_to 10713
  140.3018  134.3123  155.7288 LP  0  0  0  0  0  0  0  0  0  0  0  0  # atno 17394 bound_to 11000
  141.2143  133.7597  156.9652 LP  0  0  0  0  0  0  0  0  0  0  0  0  # atno 17395 bound_to 11000

$$$$
