AV-unprocessed.smi:1512|AV-procd|sdf|6106|dock8
  -GOLD-   22720 6243D 1   1.00000     0.00000
 Structure written by MMmdl.
 44 46  0  0  0  0  0  0  0  0  3 V2000
  152.1777  140.2442  157.5889 C   0  0  0  0  0  0  0  0  0  0  0  0
  150.9898  141.0437  158.1508 C   0  0  2  0  0  0  0  0  0  0  0  0
  149.8087  140.7249  157.3490 N   0  0  0  0  0  0  0  0  0  0  0  0
  149.7574  140.6509  156.0100 C   0  0  0  0  0  0  0  0  0  0  0  0
  150.7357  140.8226  155.2819 O   0  0  0  0  0  0  0  0  0  0  0  0
  148.3847  140.3099  155.4122 C   0  0  0  0  0  0  0  0  0  0  0  0
  147.3413  141.2945  155.7471 N   0  0  0  0  0  0  0  0  0  0  0  0
  146.8158  142.0521  154.6837 C   0  0  0  0  0  0  0  0  0  0  0  0
  145.8651  142.9777  154.8750 C   0  0  0  0  0  0  0  0  0  0  0  0
  145.3841  143.1951  156.2174 C   0  0  0  0  0  0  0  0  0  0  0  0
  145.8770  142.4823  157.2565 C   0  0  0  0  0  0  0  0  0  0  0  0
  145.3606  142.7599  158.5772 N   0  3  0  0  0  0  0  0  0  0  0  0
  145.8176  142.1427  159.5342 O   0  0  0  0  0  0  0  0  0  0  0  0
  144.4895  143.6162  158.6975 O   0  5  0  0  0  0  0  0  0  0  0  0
  146.9142  141.4523  157.0388 C   0  0  0  0  0  0  0  0  0  0  0  0
  147.3729  140.7617  157.9510 O   0  0  0  0  0  0  0  0  0  0  0  0
  151.2317  142.5743  158.1411 C   0  0  1  0  0  0  0  0  0  0  0  0
  150.1663  143.3790  158.9288 C   0  0  0  0  0  0  0  0  0  0  0  0
  151.0051  144.2270  159.9004 C   0  0  2  0  0  0  0  0  0  0  0  0
  151.7792  145.3000  159.1138 C   0  0  0  0  0  0  0  0  0  0  0  0
  152.8622  144.4743  158.3949 C   0  0  0  0  0  0  0  0  0  0  0  0
  152.5402  143.0329  158.8346 C   0  0  1  0  0  0  0  0  0  0  0  0
  152.1083  143.2496  160.2814 C   0  0  0  0  0  0  0  0  0  0  0  0
  153.0716  140.3592  158.2004 H   0  0  0  0  0  0  0  0  0  0  0  0
  152.4238  140.5587  156.5740 H   0  0  0  0  0  0  0  0  0  0  0  0
  151.9496  139.1780  157.5586 H   0  0  0  0  0  0  0  0  0  0  0  0
  150.8361  140.7254  159.1829 H   0  0  0  0  0  0  0  0  0  0  0  0
  148.9531  140.5591  157.8588 H   0  0  0  0  0  0  0  0  0  0  0  0
  148.5002  140.2231  154.3310 H   0  0  0  0  0  0  0  0  0  0  0  0
  148.0805  139.3158  155.7456 H   0  0  0  0  0  0  0  0  0  0  0  0
  147.2348  141.8369  153.7113 H   0  0  0  0  0  0  0  0  0  0  0  0
  145.4749  143.5507  154.0468 H   0  0  0  0  0  0  0  0  0  0  0  0
  144.6293  143.9502  156.3831 H   0  0  0  0  0  0  0  0  0  0  0  0
  151.2380  142.9050  157.1010 H   0  0  0  0  0  0  0  0  0  0  0  0
  149.5416  143.9901  158.2763 H   0  0  0  0  0  0  0  0  0  0  0  0
  149.5052  142.7228  159.4961 H   0  0  0  0  0  0  0  0  0  0  0  0
  150.4323  144.6250  160.7384 H   0  0  0  0  0  0  0  0  0  0  0  0
  151.1387  145.8435  158.4183 H   0  0  0  0  0  0  0  0  0  0  0  0
  152.2346  146.0258  159.7886 H   0  0  0  0  0  0  0  0  0  0  0  0
  152.8330  144.5990  157.3120 H   0  0  0  0  0  0  0  0  0  0  0  0
  153.8554  144.7692  158.7360 H   0  0  0  0  0  0  0  0  0  0  0  0
  153.3862  142.3584  158.7099 H   0  0  0  0  0  0  0  0  0  0  0  0
  152.8863  143.6963  160.9030 H   0  0  0  0  0  0  0  0  0  0  0  0
  151.7388  142.3460  160.7685 H   0  0  0  0  0  0  0  0  0  0  0  0
  1  2  1  0  0  0  0
  1 24  1  0  0  0  0
  1 25  1  0  0  0  0
  1 26  1  0  0  0  0
  2  3  1  0  0  0  0
  2 17  1  0  0  0  0
  2 27  1  0  0  0  0
  3  4  1  0  0  0  0
  3 28  1  0  0  0  0
  4  5  2  0  0  0  0
  4  6  1  0  0  0  0
  6  7  1  0  0  0  0
  6 29  1  0  0  0  0
  6 30  1  0  0  0  0
  7 15  1  0  0  0  0
  7  8  1  0  0  0  0
  8  9  2  0  0  0  0
  8 31  1  0  0  0  0
  9 10  1  0  0  0  0
  9 32  1  0  0  0  0
 10 11  2  0  0  0  0
 10 33  1  0  0  0  0
 11 12  1  0  0  0  0
 11 15  1  0  0  0  0
 12 13  2  0  0  0  0
 12 14  1  0  0  0  0
 15 16  2  0  0  0  0
 17 22  1  0  0  0  0
 17 18  1  0  0  0  0
 17 34  1  0  0  0  0
 18 19  1  0  0  0  0
 18 35  1  0  0  0  0
 18 36  1  0  0  0  0
 19 23  1  0  0  0  0
 19 20  1  0  0  0  0
 19 37  1  0  0  0  0
 20 21  1  0  0  0  0
 20 38  1  0  0  0  0
 20 39  1  0  0  0  0
 21 22  1  0  0  0  0
 21 40  1  0  0  0  0
 21 41  1  0  0  0  0
 22 23  1  0  0  0  0
 22 42  1  0  0  0  0
 23 43  1  0  0  0  0
 23 44  1  0  0  0  0
M  CHG  1  12   1
M  CHG  1  14  -1
M  END
> <s_m_source_file>
AV-unprocessed.smi

> <i_m_source_file_index>
1512

> <i_lp_mmshare_version>
43012

> <i_f3d_flags>
0

> <s_epik_input>
W0NIMl0xW0NIMl1bQ0BIXShbQ0gyXTIpW0NAQEhdKFtDSDJdW0NAQEhdMTIpW0NASF0oW0NIM10pW05IXUMoPU8pW0NIMl1uM1tjSF1bY0hdW2NIXWMoW04rXSg9TylbTy1dKWMzPU8=

> <s_epik_cmdline>
J2VwaWtfcHl0aG9uJywgJy1waCcsICc3LjAnLCAnLXRuJywgJzgnLCAnLW1hJywgJzIwMCcsICctbWV0YWxfYmluZGluZycsICctaW1hZScsICc8aW5maWxlLm1hZT4nLCAnLW9tYWUnLCAnPG91dGZpbGUubWFlPic=

> <r_lp_tautomer_probability>
1

> <r_epik_Ionization_Penalty>
2.17697e-08

> <r_epik_Ionization_Penalty_Charging>
1.42735e-10

> <r_epik_Ionization_Penalty_Neutral>
2.16269e-08

> <r_epik_State_Penalty>
-0

> <r_epik_Charging_Adjusted_Penalty>
1.42735e-10

> <i_epik_Tot_Q>
0

> <i_epik_Tot_abs_Q>
2

> <r_epik_Metal_State_Penalty>
-0

> <b_epik_Metal_Only>
0

> <s_lp_Force_Field>
OPLS_2005

> <r_lp_Energy>
64.581

> <b_lp_Chiralities_Consistent>
1

> <s_lp_Variant>
AV-unprocessed.smi:1512-7

> <Gold.Version>
5.8.1

> <Gold.Id.Protein>
6NUR|6NUR_protein|mol2

> <Gold.PLP.Fitness>
46.0848

> <Gold.PLP.PLP>
-41.2408

> <Gold.PLP.part.hbond>
-2.7876

> <Gold.PLP.part.metal>
0.0000

> <Gold.PLP.part.buried>
-6.5428

> <Gold.PLP.part.nonpolar>
-33.2820

> <Gold.PLP.part.repulsive>
0.1797

> <Gold.PLP.ligand.clash>
0.0000

> <Gold.PLP.ligand.torsion>
0.3411

> <Gold.PLP.Chemscore.Hbond>
1.8320

> <Gold.PLP.Chemscore.CHOScore>
0.0000

> <Gold.PLP.Chemscore.Metal>
0.0000

> <Gold.Chemscore.Hbonds>
donor molecule, donor type, donor heavy atom, donor atom, acceptor molecule, acceptor atom, score
      P1  H  6934  6946       L1    13  0.94
      P1  H  7989  7998       L1     5  0.82

> <Gold.PLP.Chemscore.Internal.Correction>
0.0302

> <Gold.Rescore>
     Score         DG    S(hbond)    S(metal)    S(lipo)     H(rot)  DE(clash)    DE(int)     intcor
     14.73     -19.75       1.86        0.00     107.13       1.75       0.03       5.00       ----

> <Gold.Chemscore.Fitness>
14.7286

> <Gold.Chemscore.DG>
-19.7540

> <Gold.Chemscore.ZeroCoef>
-5.4800

> <Gold.Chemscore.Hbond>
1.8601

> <Gold.Chemscore.Metal>
0.0000

> <Gold.Chemscore.Lipo>
107.1337

> <Gold.Chemscore.Internal_Hbond>
0.0000

> <Gold.Chemscore.DEClash>
0.0256

> <Gold.Chemscore.DEInternal>
4.9997

> <Gold.Chemscore.Rot>
1.7474

> <Gold.Chemscore.Internal.Correction>
   9.000000E+99

> <Gold.Chemscore.Hbonds>
donor molecule, donor type, donor heavy atom, donor atom, acceptor molecule, acceptor atom, score
      P1  H  6934  6946       L1    13  0.90
      P1  H  7989  7998       L1     5  0.79

> <Gold.Chemscore.Hbond.Weighted>
-6.2127

> <Gold.Chemscore.Metal.Weighted>
-0.0000

> <Gold.Chemscore.Lipo.Weighted>
-12.5346

> <Gold.Chemscore.Internal_Hbond.Weighted>
0.0000

> <Gold.Chemscore.DEClash.Weighted>
0.0256

> <Gold.Chemscore.DEInternal.Weighted>
4.9997

> <Gold.Chemscore.Rot.Weighted>
4.4733

> <Gold.Chemscore.Internal.Correction.Weighted>
   9.000000E+99

> <Gold.Protein.RotatedTorsions>
[ 6907 6896 6895 6894 ] final -160.14 input  -60.11 | X-H torsion
[ 7974 7965 7964 7962 ] final  -51.95 input  175.53 | X-H torsion
[ 8008 7997 7996 7995 ] final  126.75 input   59.86 | X-H torsion
[ 10167 10162 10161 10158 ] final -167.54 input  -65.29 | X-H torsion
[ 10718 10713 10712 10709 ] final  121.25 input   66.30 | X-H torsion
[ 10763 10752 10751 10750 ] final   -7.54 input  -60.55 | X-H torsion
[ 11005 11000 10999 10996 ] final  -34.92 input  -57.11 | X-H torsion

> <Gold.Protein.ActiveResidues>
 VAL166  LYS551  ARG553  GLY616  TRP617  ASP618  TYR619  PRO620  LYS621  CYS622 
 ASP623  PHE694  ASN695  SER759  ASP760  ASP761  ALA762  ILE779  LEU786  VAL792 
 PHE793  MET794  SER795  GLU796  ALA797  LYS798  CYS799  TRP800  GLU811  SER814 

> <Gold.Protein.RotatedAtoms>
  151.3445  133.3949  159.2673 H   0  0  0  0  0  0  0  0  0  0  0  0  # atno 6907 bound_to 6896
  150.9851  134.9199  159.7877 H   0  0  0  0  0  0  0  0  0  0  0  0  # atno 6908 bound_to 6896
  152.5229  134.3409  159.9269 H   0  0  0  0  0  0  0  0  0  0  0  0  # atno 6909 bound_to 6896
  145.9134  140.7896  142.9684 H   0  0  0  0  0  0  0  0  0  0  0  0  # atno 7974 bound_to 7965
  156.2872  140.2685  156.2161 H   0  0  0  0  0  0  0  0  0  0  0  0  # atno 8008 bound_to 7997
  155.0215  140.0386  157.2457 H   0  0  0  0  0  0  0  0  0  0  0  0  # atno 8009 bound_to 7997
  154.7432  140.2729  155.6361 H   0  0  0  0  0  0  0  0  0  0  0  0  # atno 8010 bound_to 7997
  139.6043  144.0946  152.1776 H   0  0  0  0  0  0  0  0  0  0  0  0  # atno 10167 bound_to 10162
  157.5832  131.1073  150.8147 H   0  0  0  0  0  0  0  0  0  0  0  0  # atno 10718 bound_to 10713
  153.4277  135.7011  153.6251 H   0  0  0  0  0  0  0  0  0  0  0  0  # atno 10763 bound_to 10752
  153.4679  135.3721  155.2375 H   0  0  0  0  0  0  0  0  0  0  0  0  # atno 10764 bound_to 10752
  154.8724  135.4036  154.3656 H   0  0  0  0  0  0  0  0  0  0  0  0  # atno 10765 bound_to 10752
  140.9755  133.7085  156.1595 H   0  0  0  0  0  0  0  0  0  0  0  0  # atno 11005 bound_to 11000
  144.6745  140.1861  143.7401 LP  0  0  0  0  0  0  0  0  0  0  0  0  # atno 17320 bound_to 7965
  145.8643  139.2239  143.1698 LP  0  0  0  0  0  0  0  0  0  0  0  0  # atno 17321 bound_to 7965
  140.0549  144.5903  150.7307 LP  0  0  0  0  0  0  0  0  0  0  0  0  # atno 17342 bound_to 10162
  140.7273  143.2650  151.4076 LP  0  0  0  0  0  0  0  0  0  0  0  0  # atno 17343 bound_to 10162
  156.8588  130.5106  149.5305 LP  0  0  0  0  0  0  0  0  0  0  0  0  # atno 17370 bound_to 10713
  156.0879  130.5872  150.9680 LP  0  0  0  0  0  0  0  0  0  0  0  0  # atno 17371 bound_to 10713
  140.7265  134.4301  157.5570 LP  0  0  0  0  0  0  0  0  0  0  0  0  # atno 17394 bound_to 11000
  139.8929  134.8744  156.2250 LP  0  0  0  0  0  0  0  0  0  0  0  0  # atno 17395 bound_to 11000

$$$$
