AV-unprocessed.smi:543|AV-procd|sdf|2875|dock10
  -GOLD-   2262023363D 1   1.00000     0.00000
 Structure written by MMmdl.
 46 48  0  0  0  0  0  0  0  0  1 V2000
  155.8605  138.3722  165.8107 C   0  0  0  0  0  0  0  0  0  0  0  0
  155.7838  139.5311  165.0008 O   0  0  0  0  0  0  0  0  0  0  0  0
  155.1520  139.2854  163.7548 C   0  0  0  0  0  0  0  0  0  0  0  0
  155.2352  140.5429  162.8786 C   0  0  0  0  0  0  0  0  0  0  0  0
  154.3993  140.4294  161.6842 N   0  0  0  0  0  0  0  0  0  0  0  0
  153.4594  141.2916  161.1995 C   0  0  0  0  0  0  0  0  0  0  0  0
  153.1166  142.4825  161.8522 N   0  0  0  0  0  0  0  0  0  0  0  0
  153.6918  142.9629  163.1027 C   0  0  0  0  0  0  0  0  0  0  0  0
  151.9922  143.3350  161.4644 C   0  0  0  0  0  0  0  0  0  0  0  0
  151.8533  143.5953  159.9725 C   0  0  0  0  0  0  0  0  0  0  0  0
  152.5233  144.6888  159.3842 C   0  0  0  0  0  0  0  0  0  0  0  0
  152.4091  144.9295  158.0013 C   0  0  0  0  0  0  0  0  0  0  0  0
  151.6221  144.0798  157.2006 C   0  0  0  0  0  0  0  0  0  0  0  0
  150.9483  142.9895  157.7836 C   0  0  0  0  0  0  0  0  0  0  0  0
  151.0619  142.7486  159.1666 C   0  0  0  0  0  0  0  0  0  0  0  0
  152.9302  140.9217  160.0291 N   0  0  0  0  0  0  0  0  0  0  0  0
  153.5615  139.7219  159.7527 C   0  0  0  0  0  0  0  0  0  0  0  0
  154.4540  139.4138  160.7262 C   0  0  0  0  0  0  0  0  0  0  0  0
  155.2995  138.2132  160.6637 C   0  0  0  0  0  0  0  0  0  0  0  0
  156.1319  137.9229  161.5202 O   0  0  0  0  0  0  0  0  0  0  0  0
  155.0741  137.4600  159.5596 N   0  0  0  0  0  0  0  0  0  0  0  0
  154.1845  137.7087  158.5506 C   0  0  0  0  0  0  0  0  0  0  0  0
  154.0905  136.9256  157.6058 O   0  0  0  0  0  0  0  0  0  0  0  0
  153.4220  138.8449  158.6397 N   0  0  0  0  0  0  0  0  0  0  0  0
  152.4521  139.1616  157.5894 C   0  0  0  0  0  0  0  0  0  0  0  0
  155.6284  136.6212  159.4692 H   0  0  0  0  0  0  0  0  0  0  0  0
  156.3409  138.6195  166.7572 H   0  0  0  0  0  0  0  0  0  0  0  0
  156.4505  137.5929  165.3269 H   0  0  0  0  0  0  0  0  0  0  0  0
  154.8678  137.9765  166.0291 H   0  0  0  0  0  0  0  0  0  0  0  0
  155.6332  138.4464  163.2497 H   0  0  0  0  0  0  0  0  0  0  0  0
  154.1077  139.0140  163.9145 H   0  0  0  0  0  0  0  0  0  0  0  0
  154.9317  141.4214  163.4459 H   0  0  0  0  0  0  0  0  0  0  0  0
  156.2685  140.7335  162.6082 H   0  0  0  0  0  0  0  0  0  0  0  0
  154.2808  142.1808  163.5821 H   0  0  0  0  0  0  0  0  0  0  0  0
  152.9163  143.2587  163.8104 H   0  0  0  0  0  0  0  0  0  0  0  0
  154.3360  143.8236  162.9208 H   0  0  0  0  0  0  0  0  0  0  0  0
  151.0451  142.9349  161.8301 H   0  0  0  0  0  0  0  0  0  0  0  0
  152.1207  144.2896  161.9760 H   0  0  0  0  0  0  0  0  0  0  0  0
  153.1331  145.3429  159.9899 H   0  0  0  0  0  0  0  0  0  0  0  0
  152.9269  145.7657  157.5549 H   0  0  0  0  0  0  0  0  0  0  0  0
  151.5356  144.2636  156.1399 H   0  0  0  0  0  0  0  0  0  0  0  0
  150.3452  142.3369  157.1700 H   0  0  0  0  0  0  0  0  0  0  0  0
  150.5447  141.9081  159.6046 H   0  0  0  0  0  0  0  0  0  0  0  0
  152.9500  139.2595  156.6241 H   0  0  0  0  0  0  0  0  0  0  0  0
  151.9199  140.0941  157.7763 H   0  0  0  0  0  0  0  0  0  0  0  0
  151.7048  138.3713  157.5087 H   0  0  0  0  0  0  0  0  0  0  0  0
  1  2  1  0  0  0  0
  1 27  1  0  0  0  0
  1 28  1  0  0  0  0
  1 29  1  0  0  0  0
  2  3  1  0  0  0  0
  3  4  1  0  0  0  0
  3 30  1  0  0  0  0
  3 31  1  0  0  0  0
  4  5  1  0  0  0  0
  4 32  1  0  0  0  0
  4 33  1  0  0  0  0
  5 18  1  0  0  0  0
  5  6  1  0  0  0  0
  6  7  1  0  0  0  0
  6 16  2  0  0  0  0
  7  8  1  0  0  0  0
  7  9  1  0  0  0  0
  8 34  1  0  0  0  0
  8 35  1  0  0  0  0
  8 36  1  0  0  0  0
  9 10  1  0  0  0  0
  9 37  1  0  0  0  0
  9 38  1  0  0  0  0
 10 15  1  0  0  0  0
 10 11  2  0  0  0  0
 11 12  1  0  0  0  0
 11 39  1  0  0  0  0
 12 13  2  0  0  0  0
 12 40  1  0  0  0  0
 13 14  1  0  0  0  0
 13 41  1  0  0  0  0
 14 15  2  0  0  0  0
 14 42  1  0  0  0  0
 15 43  1  0  0  0  0
 16 17  1  0  0  0  0
 17 24  1  0  0  0  0
 17 18  2  0  0  0  0
 18 19  1  0  0  0  0
 19 20  2  0  0  0  0
 19 21  1  0  0  0  0
 21 26  1  0  0  0  0
 21 22  1  0  0  0  0
 22 23  2  0  0  0  0
 22 24  1  0  0  0  0
 24 25  1  0  0  0  0
 25 44  1  0  0  0  0
 25 45  1  0  0  0  0
 25 46  1  0  0  0  0
M  END
> <s_m_source_file>
AV-unprocessed.smi

> <i_m_source_file_index>
543

> <i_lp_mmshare_version>
43012

> <i_f3d_flags>
0

> <s_epik_input>
W0NIM11uMWMoPU8pW25IXWMoPU8pYyhjMTIpbihbQ0gyXVtDSDJdT1tDSDNdKWMobjIpTihbQ0gzXSlbQ0gyXWMzW2NIXVtjSF1bY0hdW2NIXVtjSF0z

> <s_epik_cmdline>
J2VwaWtfcHl0aG9uJywgJy1waCcsICc3LjAnLCAnLXRuJywgJzgnLCAnLW1hJywgJzIwMCcsICctbWV0YWxfYmluZGluZycsICctaW1hZScsICc8aW5maWxlLm1hZT4nLCAnLW9tYWUnLCAnPG91dGZpbGUubWFlPic=

> <r_lp_tautomer_probability>
1

> <r_epik_Ionization_Penalty>
3.94324e-05

> <r_epik_Ionization_Penalty_Charging>
1.70393e-05

> <r_epik_Ionization_Penalty_Neutral>
2.23931e-05

> <r_epik_State_Penalty>
-0

> <r_epik_Charging_Adjusted_Penalty>
1.70393e-05

> <i_epik_Tot_Q>
0

> <i_epik_Tot_abs_Q>
0

> <r_epik_Metal_State_Penalty>
0.0163311

> <b_epik_Metal_Only>
0

> <s_lp_Force_Field>
OPLS_2005

> <r_lp_Energy>
32.7304

> <b_lp_Chiralities_Consistent>
1

> <s_lp_Variant>
AV-unprocessed.smi:543-1

> <Gold.Version>
5.8.1

> <Gold.Id.Protein>
6NUR|6NUR_protein|mol2

> <Gold.PLP.Fitness>
43.2411

> <Gold.PLP.PLP>
-44.5764

> <Gold.PLP.part.hbond>
0.0000

> <Gold.PLP.part.metal>
0.0000

> <Gold.PLP.part.buried>
-2.2400

> <Gold.PLP.part.nonpolar>
-40.4153

> <Gold.PLP.part.repulsive>
0.0422

> <Gold.PLP.ligand.clash>
3.9488

> <Gold.PLP.ligand.torsion>
0.7326

> <Gold.PLP.Chemscore.Hbond>
0.0000

> <Gold.PLP.Chemscore.CHOScore>
0.0000

> <Gold.PLP.Chemscore.Metal>
0.0000

> <Gold.PLP.Chemscore.Internal.Correction>
4.0787

> <Gold.Rescore>
     Score         DG    S(hbond)    S(metal)    S(lipo)     H(rot)  DE(clash)    DE(int)     intcor
     12.49     -17.41       0.82        0.00     119.33       1.86       0.61       4.31       ----

> <Gold.Chemscore.Fitness>
12.4918

> <Gold.Chemscore.DG>
-17.4125

> <Gold.Chemscore.ZeroCoef>
-5.4800

> <Gold.Chemscore.Hbond>
0.8167

> <Gold.Chemscore.Metal>
0.0000

> <Gold.Chemscore.Lipo>
119.3255

> <Gold.Chemscore.Internal_Hbond>
0.0000

> <Gold.Chemscore.DEClash>
0.6118

> <Gold.Chemscore.DEInternal>
4.3089

> <Gold.Chemscore.Rot>
1.8580

> <Gold.Chemscore.Internal.Correction>
   9.000000E+99

> <Gold.Chemscore.Hbond.Weighted>
-2.7278

> <Gold.Chemscore.Metal.Weighted>
-0.0000

> <Gold.Chemscore.Lipo.Weighted>
-13.9611

> <Gold.Chemscore.Internal_Hbond.Weighted>
0.0000

> <Gold.Chemscore.DEClash.Weighted>
0.6118

> <Gold.Chemscore.DEInternal.Weighted>
4.3089

> <Gold.Chemscore.Rot.Weighted>
4.7564

> <Gold.Chemscore.Internal.Correction.Weighted>
   9.000000E+99

> <Gold.Protein.RotatedTorsions>
[ 6907 6896 6895 6894 ] final   88.09 input  -60.11 | X-H torsion
[ 7974 7965 7964 7962 ] final  134.37 input  175.53 | X-H torsion
[ 8008 7997 7996 7995 ] final   84.78 input   59.86 | X-H torsion
[ 10167 10162 10161 10158 ] final  142.33 input  -65.29 | X-H torsion
[ 10718 10713 10712 10709 ] final  113.94 input   66.30 | X-H torsion
[ 10763 10752 10751 10750 ] final  -85.79 input  -60.55 | X-H torsion
[ 11005 11000 10999 10996 ] final  -29.40 input  -57.11 | X-H torsion

> <Gold.Protein.ActiveResidues>
 VAL166  LYS551  ARG553  GLY616  TRP617  ASP618  TYR619  PRO620  LYS621  CYS622 
 ASP623  PHE694  ASN695  SER759  ASP760  ASP761  ALA762  ILE779  LEU786  VAL792 
 PHE793  MET794  SER795  GLU796  ALA797  LYS798  CYS799  TRP800  GLU811  SER814 

> <Gold.Protein.RotatedAtoms>
  152.5420  134.2176  159.8774 H   0  0  0  0  0  0  0  0  0  0  0  0  # atno 6907 bound_to 6896
  151.2155  133.4525  159.2607 H   0  0  0  0  0  0  0  0  0  0  0  0  # atno 6908 bound_to 6896
  151.0856  134.9898  159.8433 H   0  0  0  0  0  0  0  0  0  0  0  0  # atno 6909 bound_to 6896
  144.9770  139.4544  143.5405 H   0  0  0  0  0  0  0  0  0  0  0  0  # atno 7974 bound_to 7965
  155.9414  140.3407  155.6331 H   0  0  0  0  0  0  0  0  0  0  0  0  # atno 8008 bound_to 7997
  155.7034  140.0763  157.2419 H   0  0  0  0  0  0  0  0  0  0  0  0  # atno 8009 bound_to 7997
  154.4103  140.1636  156.2204 H   0  0  0  0  0  0  0  0  0  0  0  0  # atno 8010 bound_to 7997
  139.4997  144.6114  151.6264 H   0  0  0  0  0  0  0  0  0  0  0  0  # atno 10167 bound_to 10162
  157.6309  131.0991  150.7114 H   0  0  0  0  0  0  0  0  0  0  0  0  # atno 10718 bound_to 10713
  154.6151  135.5472  153.7515 H   0  0  0  0  0  0  0  0  0  0  0  0  # atno 10763 bound_to 10752
  153.0213  135.6399  154.1521 H   0  0  0  0  0  0  0  0  0  0  0  0  # atno 10764 bound_to 10752
  154.1458  135.2905  155.3129 H   0  0  0  0  0  0  0  0  0  0  0  0  # atno 10765 bound_to 10752
  140.9293  133.7348  156.0913 H   0  0  0  0  0  0  0  0  0  0  0  0  # atno 11005 bound_to 11000
  146.3398  139.9019  142.8793 LP  0  0  0  0  0  0  0  0  0  0  0  0  # atno 17320 bound_to 7965
  145.2476  141.0032  143.3900 LP  0  0  0  0  0  0  0  0  0  0  0  0  # atno 17321 bound_to 7965
  140.5789  143.9980  150.6257 LP  0  0  0  0  0  0  0  0  0  0  0  0  # atno 17342 bound_to 10162
  140.3123  143.3190  152.0867 LP  0  0  0  0  0  0  0  0  0  0  0  0  # atno 17343 bound_to 10162
  156.7453  130.4752  149.5468 LP  0  0  0  0  0  0  0  0  0  0  0  0  # atno 17370 bound_to 10713
  156.1513  130.6312  151.0599 LP  0  0  0  0  0  0  0  0  0  0  0  0  # atno 17371 bound_to 10713
  140.7884  134.3646  157.5471 LP  0  0  0  0  0  0  0  0  0  0  0  0  # atno 17394 bound_to 11000
  139.8792  134.9125  156.3061 LP  0  0  0  0  0  0  0  0  0  0  0  0  # atno 17395 bound_to 11000

$$$$
