AV-unprocessed.smi:827|AV-procd|sdf|3856|dock4
  -GOLD-   22720 1303D 1   1.00000     0.00000
 Structure written by MMmdl.
 46 47  0  0  0  0  0  0  0  0  1 V2000
  144.5902  135.2752  150.2505 C   0  0  0  0  0  0  0  0  0  0  0  0
  145.6407  134.8027  151.0870 O   0  0  0  0  0  0  0  0  0  0  0  0
  145.7150  133.4484  151.3518 C   0  0  0  0  0  0  0  0  0  0  0  0
  144.8727  132.6149  150.6912 N   0  0  0  0  0  0  0  0  0  0  0  0
  144.9408  131.2930  150.9511 C   0  0  0  0  0  0  0  0  0  0  0  0
  145.8380  130.7360  151.8810 C   0  0  0  0  0  0  0  0  0  0  0  0
  146.7131  131.5982  152.5672 C   0  0  0  0  0  0  0  0  0  0  0  0
  146.6653  132.9865  152.2925 C   0  0  0  0  0  0  0  0  0  0  0  0
  147.4916  133.9446  152.9420 N   0  0  0  0  0  0  0  0  0  0  0  0
  147.8811  133.9751  154.2277 C   0  0  0  0  0  0  0  0  0  0  0  0
  147.5734  133.1466  155.0847 O   0  0  0  0  0  0  0  0  0  0  0  0
  148.6811  135.0236  154.4676 N   0  0  0  0  0  0  0  0  0  0  0  0
  149.3020  135.3208  155.7527 C   0  0  0  0  0  0  0  0  0  0  0  0
  150.8325  135.1552  155.6792 C   0  0  0  0  0  0  0  0  0  0  0  0
  151.5246  136.4343  155.5288 N   0  0  0  0  0  0  0  0  0  0  0  0
  150.9604  137.2152  154.4201 C   0  0  0  0  0  0  0  0  0  0  0  0
  151.6801  138.5728  154.2998 C   0  0  0  0  0  0  0  0  0  0  0  0
  151.5320  139.3032  155.5624 N   0  0  0  0  0  0  0  0  0  0  0  0
  150.8591  140.4656  155.7356 C   0  0  0  0  0  0  0  0  0  0  0  0
  150.7594  141.0697  157.1380 C   0  0  0  0  0  0  0  0  0  0  0  0
  150.3192  141.0666  154.8068 O   0  0  0  0  0  0  0  0  0  0  0  0
  152.1247  138.5442  156.6664 C   0  0  0  0  0  0  0  0  0  0  0  0
  151.4017  137.1883  156.7810 C   0  0  0  0  0  0  0  0  0  0  0  0
  144.6770  136.3558  150.1387 H   0  0  0  0  0  0  0  0  0  0  0  0
  143.6112  135.0652  150.6836 H   0  0  0  0  0  0  0  0  0  0  0  0
  144.6434  134.8347  149.2539 H   0  0  0  0  0  0  0  0  0  0  0  0
  144.2555  130.6612  150.4059 H   0  0  0  0  0  0  0  0  0  0  0  0
  145.8513  129.6723  152.0672 H   0  0  0  0  0  0  0  0  0  0  0  0
  147.3900  131.1817  153.2970 H   0  0  0  0  0  0  0  0  0  0  0  0
  147.8979  134.6435  152.3374 H   0  0  0  0  0  0  0  0  0  0  0  0
  148.8845  135.6539  153.7056 H   0  0  0  0  0  0  0  0  0  0  0  0
  149.0514  136.3478  156.0202 H   0  0  0  0  0  0  0  0  0  0  0  0
  148.8599  134.6822  156.5177 H   0  0  0  0  0  0  0  0  0  0  0  0
  151.2117  134.6254  156.5546 H   0  0  0  0  0  0  0  0  0  0  0  0
  151.0588  134.5295  154.8145 H   0  0  0  0  0  0  0  0  0  0  0  0
  151.0732  136.6761  153.4804 H   0  0  0  0  0  0  0  0  0  0  0  0
  149.8911  137.3697  154.5746 H   0  0  0  0  0  0  0  0  0  0  0  0
  152.7412  138.4194  154.0966 H   0  0  0  0  0  0  0  0  0  0  0  0
  151.2917  139.1116  153.4370 H   0  0  0  0  0  0  0  0  0  0  0  0
  151.7508  141.2851  157.5377 H   0  0  0  0  0  0  0  0  0  0  0  0
  150.2428  140.3900  157.8160 H   0  0  0  0  0  0  0  0  0  0  0  0
  150.1999  142.0054  157.1145 H   0  0  0  0  0  0  0  0  0  0  0  0
  153.1884  138.3933  156.4755 H   0  0  0  0  0  0  0  0  0  0  0  0
  152.0631  139.0704  157.6198 H   0  0  0  0  0  0  0  0  0  0  0  0
  150.3489  137.3432  157.0246 H   0  0  0  0  0  0  0  0  0  0  0  0
  151.8391  136.6139  157.5985 H   0  0  0  0  0  0  0  0  0  0  0  0
  1  2  1  0  0  0  0
  1 24  1  0  0  0  0
  1 25  1  0  0  0  0
  1 26  1  0  0  0  0
  2  3  1  0  0  0  0
  3  8  1  0  0  0  0
  3  4  2  0  0  0  0
  4  5  1  0  0  0  0
  5  6  2  0  0  0  0
  5 27  1  0  0  0  0
  6  7  1  0  0  0  0
  6 28  1  0  0  0  0
  7  8  2  0  0  0  0
  7 29  1  0  0  0  0
  8  9  1  0  0  0  0
  9 10  1  0  0  0  0
  9 30  1  0  0  0  0
 10 11  2  0  0  0  0
 10 12  1  0  0  0  0
 12 13  1  0  0  0  0
 12 31  1  0  0  0  0
 13 14  1  0  0  0  0
 13 32  1  0  0  0  0
 13 33  1  0  0  0  0
 14 15  1  0  0  0  0
 14 34  1  0  0  0  0
 14 35  1  0  0  0  0
 15 23  1  0  0  0  0
 15 16  1  0  0  0  0
 16 17  1  0  0  0  0
 16 36  1  0  0  0  0
 16 37  1  0  0  0  0
 17 18  1  0  0  0  0
 17 38  1  0  0  0  0
 17 39  1  0  0  0  0
 18 19  1  0  0  0  0
 18 22  1  0  0  0  0
 19 20  1  0  0  0  0
 19 21  2  0  0  0  0
 20 40  1  0  0  0  0
 20 41  1  0  0  0  0
 20 42  1  0  0  0  0
 22 23  1  0  0  0  0
 22 43  1  0  0  0  0
 22 44  1  0  0  0  0
 23 45  1  0  0  0  0
 23 46  1  0  0  0  0
M  END
> <s_m_source_file>
AV-unprocessed.smi

> <i_m_source_file_index>
827

> <i_lp_mmshare_version>
43012

> <i_f3d_flags>
0

> <s_epik_input>
W0NIM11PYzFuW2NIXVtjSF1bY0hdYzFbTkhdQyg9TylbTkhdW0NIMl1bQ0gyXU4yW0NIMl1bQ0gyXU4oQyg9TylbQ0gzXSlbQ0gyXVtDSDJdMg==

> <s_epik_cmdline>
J2VwaWtfcHl0aG9uJywgJy1waCcsICc3LjAnLCAnLXRuJywgJzgnLCAnLW1hJywgJzIwMCcsICctbWV0YWxfYmluZGluZycsICctaW1hZScsICc8aW5maWxlLm1hZT4nLCAnLW9tYWUnLCAnPG91dGZpbGUubWFlPic=

> <r_lp_tautomer_probability>
1

> <r_epik_Ionization_Penalty>
0.251055

> <r_epik_Ionization_Penalty_Charging>
0

> <r_epik_Ionization_Penalty_Neutral>
0.251055

> <r_epik_State_Penalty>
0.242297

> <r_epik_Charging_Adjusted_Penalty>
0.242297

> <i_epik_Tot_Q>
0

> <i_epik_Tot_abs_Q>
0

> <r_epik_Metal_State_Penalty>
0.242294

> <b_epik_Metal_Only>
0

> <s_lp_Force_Field>
OPLS_2005

> <r_lp_Energy>
35.7173

> <b_lp_Chiralities_Consistent>
1

> <s_lp_Variant>
AV-unprocessed.smi:827-1

> <Gold.Version>
5.8.1

> <Gold.Id.Protein>
6NUR|6NUR_protein|mol2

> <Gold.PLP.Fitness>
44.2741

> <Gold.PLP.PLP>
-36.0106

> <Gold.PLP.part.hbond>
-4.0000

> <Gold.PLP.part.metal>
0.0000

> <Gold.PLP.part.buried>
-4.1827

> <Gold.PLP.part.nonpolar>
-28.1547

> <Gold.PLP.part.repulsive>
0.4889

> <Gold.PLP.ligand.clash>
0.0000

> <Gold.PLP.ligand.torsion>
0.6953

> <Gold.PLP.Chemscore.Hbond>
3.2000

> <Gold.PLP.Chemscore.CHOScore>
0.0000

> <Gold.PLP.Chemscore.Metal>
0.0000

> <Gold.Chemscore.Hbonds>
donor molecule, donor type, donor heavy atom, donor atom, acceptor molecule, acceptor atom, score
      L1  H     9    30       P1  7948  1.00
      L1  H    12    31       P1  7948  1.00
      P1  H  7989  7998       L1    21  0.66
      P1  H 10752 10764       L1    15  0.44

> <Gold.PLP.Chemscore.Internal.Correction>
0.0541

> <Gold.Rescore>
     Score         DG    S(hbond)    S(metal)    S(lipo)     H(rot)  DE(clash)    DE(int)     intcor
     15.33     -17.07       2.28        0.00      74.01       1.83       0.42       1.32       ----

> <Gold.Chemscore.Fitness>
15.3320

> <Gold.Chemscore.DG>
-17.0679

> <Gold.Chemscore.ZeroCoef>
-5.4800

> <Gold.Chemscore.Hbond>
2.2781

> <Gold.Chemscore.Metal>
0.0000

> <Gold.Chemscore.Lipo>
74.0056

> <Gold.Chemscore.Internal_Hbond>
0.0000

> <Gold.Chemscore.DEClash>
0.4208

> <Gold.Chemscore.DEInternal>
1.3151

> <Gold.Chemscore.Rot>
1.8280

> <Gold.Chemscore.Internal.Correction>
   9.000000E+99

> <Gold.Chemscore.Hbonds>
donor molecule, donor type, donor heavy atom, donor atom, acceptor molecule, acceptor atom, score
      L1  H     9    30       P1  7948  0.55
      L1  H    12    31       P1  7948  0.91
      P1  H  7989  7998       L1    21  0.20

> <Gold.Chemscore.Hbond.Weighted>
-7.6088

> <Gold.Chemscore.Metal.Weighted>
-0.0000

> <Gold.Chemscore.Lipo.Weighted>
-8.6587

> <Gold.Chemscore.Internal_Hbond.Weighted>
0.0000

> <Gold.Chemscore.DEClash.Weighted>
0.4208

> <Gold.Chemscore.DEInternal.Weighted>
1.3151

> <Gold.Chemscore.Rot.Weighted>
4.6796

> <Gold.Chemscore.Internal.Correction.Weighted>
   9.000000E+99

> <Gold.Protein.RotatedTorsions>
[ 6907 6896 6895 6894 ] final  -32.62 input  -60.11 | X-H torsion
[ 7974 7965 7964 7962 ] final  125.37 input  175.53 | X-H torsion
[ 8008 7997 7996 7995 ] final -154.52 input   59.86 | X-H torsion
[ 10167 10162 10161 10158 ] final -131.85 input  -65.29 | X-H torsion
[ 10718 10713 10712 10709 ] final -103.71 input   66.30 | X-H torsion
[ 10763 10752 10751 10750 ] final  -65.87 input  -60.55 | X-H torsion
[ 11005 11000 10999 10996 ] final  147.99 input  -57.11 | X-H torsion

> <Gold.Protein.ActiveResidues>
 VAL166  LYS551  ARG553  GLY616  TRP617  ASP618  TYR619  PRO620  LYS621  CYS622 
 ASP623  PHE694  ASN695  SER759  ASP760  ASP761  ALA762  ILE779  LEU786  VAL792 
 PHE793  MET794  SER795  GLU796  ALA797  LYS798  CYS799  TRP800  GLU811  SER814 

> <Gold.Protein.RotatedAtoms>
  151.0763  134.9830  159.8333 H   0  0  0  0  0  0  0  0  0  0  0  0  # atno 6907 bound_to 6896
  152.5414  134.2236  159.8807 H   0  0  0  0  0  0  0  0  0  0  0  0  # atno 6908 bound_to 6896
  151.2264  133.4431  159.2636 H   0  0  0  0  0  0  0  0  0  0  0  0  # atno 6909 bound_to 6896
  145.0737  139.3710  143.4944 H   0  0  0  0  0  0  0  0  0  0  0  0  # atno 7974 bound_to 7965
  155.6876  140.0751  157.2461 H   0  0  0  0  0  0  0  0  0  0  0  0  # atno 8008 bound_to 7997
  154.4094  140.1670  156.2103 H   0  0  0  0  0  0  0  0  0  0  0  0  # atno 8009 bound_to 7997
  155.9480  140.3379  155.6387 H   0  0  0  0  0  0  0  0  0  0  0  0  # atno 8010 bound_to 7997
  139.9146  143.6453  152.2567 H   0  0  0  0  0  0  0  0  0  0  0  0  # atno 10167 bound_to 10162
  156.0276  130.5480  150.7292 H   0  0  0  0  0  0  0  0  0  0  0  0  # atno 10718 bound_to 10713
  154.3515  135.6135  153.5645 H   0  0  0  0  0  0  0  0  0  0  0  0  # atno 10763 bound_to 10752
  152.9798  135.5793  154.4738 H   0  0  0  0  0  0  0  0  0  0  0  0  # atno 10764 bound_to 10752
  154.4460  135.2851  155.1792 H   0  0  0  0  0  0  0  0  0  0  0  0  # atno 10765 bound_to 10752
  140.0922  134.9034  157.1668 H   0  0  0  0  0  0  0  0  0  0  0  0  # atno 11005 bound_to 11000
  146.3529  140.0494  142.8637 LP  0  0  0  0  0  0  0  0  0  0  0  0  # atno 17320 bound_to 7965
  145.1261  140.9491  143.4572 LP  0  0  0  0  0  0  0  0  0  0  0  0  # atno 17321 bound_to 7965
  139.6913  144.7646  151.1434 LP  0  0  0  0  0  0  0  0  0  0  0  0  # atno 17342 bound_to 10162
  140.7677  143.5585  150.9125 LP  0  0  0  0  0  0  0  0  0  0  0  0  # atno 17343 bound_to 10162
  157.4889  131.0909  151.0450 LP  0  0  0  0  0  0  0  0  0  0  0  0  # atno 17370 bound_to 10713
  157.0863  130.5923  149.5430 LP  0  0  0  0  0  0  0  0  0  0  0  0  # atno 17371 bound_to 10713
  140.3336  134.2782  155.7224 LP  0  0  0  0  0  0  0  0  0  0  0  0  # atno 17394 bound_to 11000
  141.2081  133.7786  157.0078 LP  0  0  0  0  0  0  0  0  0  0  0  0  # atno 17395 bound_to 11000

$$$$
