AV-unprocessed.smi:2734|AV-procd|sdf|10538|dock9
  -GOLD-   2272014583D 1   1.00000     0.00000
 Structure written by MMmdl.
 40 42  0  0  0  0  0  0  0  0  1 V2000
  153.2214  142.4272  161.5704 C   0  0  0  0  0  0  0  0  0  0  0  0
  152.5995  142.1722  160.2087 C   0  0  0  0  0  0  0  0  0  0  0  0
  152.9662  141.0105  159.4925 C   0  0  0  0  0  0  0  0  0  0  0  0
  152.4146  140.7394  158.2212 C   0  0  0  0  0  0  0  0  0  0  0  0
  152.6328  139.6828  157.3537 N   0  0  0  0  0  0  0  0  0  0  0  0
  151.8364  140.0016  156.3374 C   0  0  0  0  0  0  0  0  0  0  0  0
  151.1273  141.1416  156.4435 N   0  0  0  0  0  0  0  0  0  0  0  0
  150.2066  141.6896  155.4640 C   0  0  0  0  0  0  0  0  0  0  0  0
  149.3323  140.6080  154.7990 C   0  0  1  0  0  0  0  0  0  0  0  0
  150.1031  139.9892  153.7892 O   0  0  0  0  0  0  0  0  0  0  0  0
  148.8252  139.5345  155.7801 C   0  0  0  0  0  0  0  0  0  0  0  0
  148.2519  138.0335  154.9287 S   0  0  0  0  0  0  0  0  0  0  0  0
  149.7636  137.1197  154.8926 C   0  0  0  0  0  0  0  0  0  0  0  0
  150.9128  137.5088  154.3516 N   0  0  0  0  0  0  0  0  0  0  0  0
  151.7688  136.4500  154.5868 N   0  0  0  0  0  0  0  0  0  0  0  0
  151.1671  135.4905  155.2279 N   0  0  0  0  0  0  0  0  0  0  0  0
  149.8911  135.9002  155.4297 N   0  0  0  0  0  0  0  0  0  0  0  0
  148.9358  135.0604  156.1245 C   0  0  0  0  0  0  0  0  0  0  0  0
  151.4760  141.6677  157.6833 C   0  0  0  0  0  0  0  0  0  0  0  0
  151.1016  142.8258  158.3873 C   0  0  0  0  0  0  0  0  0  0  0  0
  151.6650  143.0836  159.6543 C   0  0  0  0  0  0  0  0  0  0  0  0
  151.2604  144.3415  160.4022 C   0  0  0  0  0  0  0  0  0  0  0  0
  153.9083  141.6279  161.8506 H   0  0  0  0  0  0  0  0  0  0  0  0
  152.4498  142.4891  162.3381 H   0  0  0  0  0  0  0  0  0  0  0  0
  153.7811  143.3628  161.5646 H   0  0  0  0  0  0  0  0  0  0  0  0
  153.6794  140.3172  159.9132 H   0  0  0  0  0  0  0  0  0  0  0  0
  151.7662  139.3718  155.4625 H   0  0  0  0  0  0  0  0  0  0  0  0
  149.5777  142.4277  155.9638 H   0  0  0  0  0  0  0  0  0  0  0  0
  150.7822  142.2312  154.7119 H   0  0  0  0  0  0  0  0  0  0  0  0
  148.4777  141.0874  154.3199 H   0  0  0  0  0  0  0  0  0  0  0  0
  149.6646  140.1135  152.9610 H   0  0  0  0  0  0  0  0  0  0  0  0
  149.6120  139.2710  156.4882 H   0  0  0  0  0  0  0  0  0  0  0  0
  147.9864  139.9216  156.3581 H   0  0  0  0  0  0  0  0  0  0  0  0
  148.5735  135.5771  157.0135 H   0  0  0  0  0  0  0  0  0  0  0  0
  149.3994  134.1203  156.4260 H   0  0  0  0  0  0  0  0  0  0  0  0
  148.0926  134.8448  155.4680 H   0  0  0  0  0  0  0  0  0  0  0  0
  150.3920  143.5137  157.9520 H   0  0  0  0  0  0  0  0  0  0  0  0
  150.5312  144.9231  159.8375 H   0  0  0  0  0  0  0  0  0  0  0  0
  152.1290  144.9759  160.5793 H   0  0  0  0  0  0  0  0  0  0  0  0
  150.8134  144.0879  161.3637 H   0  0  0  0  0  0  0  0  0  0  0  0
  1  2  1  0  0  0  0
  1 23  1  0  0  0  0
  1 24  1  0  0  0  0
  1 25  1  0  0  0  0
  2 21  1  0  0  0  0
  2  3  2  0  0  0  0
  3  4  1  0  0  0  0
  3 26  1  0  0  0  0
  4 19  2  0  0  0  0
  4  5  1  0  0  0  0
  5  6  2  0  0  0  0
  6  7  1  0  0  0  0
  6 27  1  0  0  0  0
  7  8  1  0  0  0  0
  7 19  1  0  0  0  0
  8  9  1  0  0  0  0
  8 28  1  0  0  0  0
  8 29  1  0  0  0  0
  9 10  1  0  0  0  0
  9 11  1  0  0  0  0
  9 30  1  0  0  0  0
 10 31  1  0  0  0  0
 11 12  1  0  0  0  0
 11 32  1  0  0  0  0
 11 33  1  0  0  0  0
 12 13  1  0  0  0  0
 13 17  1  0  0  0  0
 13 14  2  0  0  0  0
 14 15  1  0  0  0  0
 15 16  2  0  0  0  0
 16 17  1  0  0  0  0
 17 18  1  0  0  0  0
 18 34  1  0  0  0  0
 18 35  1  0  0  0  0
 18 36  1  0  0  0  0
 19 20  1  0  0  0  0
 20 21  2  0  0  0  0
 20 37  1  0  0  0  0
 21 22  1  0  0  0  0
 22 38  1  0  0  0  0
 22 39  1  0  0  0  0
 22 40  1  0  0  0  0
M  END
> <s_m_source_file>
AV-unprocessed.smi

> <i_m_source_file_index>
2734

> <i_lp_mmshare_version>
43012

> <i_f3d_flags>
0

> <s_epik_input>
W0NIM11jKFtjSF0xKWMoW0NIM10pW2NIXWMoYzEyKW4oW2NIXW4yKVtDSDJdW0NASF0oW09IXSlbQ0gyXVNjM25ubm4zW0NIM10=

> <s_epik_cmdline>
J2VwaWtfcHl0aG9uJywgJy1waCcsICc3LjAnLCAnLXRuJywgJzgnLCAnLW1hJywgJzIwMCcsICctbWV0YWxfYmluZGluZycsICctaW1hZScsICc8aW5maWxlLm1hZT4nLCAnLW9tYWUnLCAnPG91dGZpbGUubWFlPic=

> <r_lp_tautomer_probability>
1

> <r_epik_Ionization_Penalty>
0.105517

> <r_epik_Ionization_Penalty_Charging>
0

> <r_epik_Ionization_Penalty_Neutral>
0.105517

> <r_epik_State_Penalty>
0.0953887

> <r_epik_Charging_Adjusted_Penalty>
0.0953887

> <i_epik_Tot_Q>
0

> <i_epik_Tot_abs_Q>
0

> <r_epik_Metal_State_Penalty>
0.0808533

> <b_epik_Metal_Only>
0

> <s_lp_Force_Field>
OPLS_2005

> <r_lp_Energy>
9.84292

> <b_lp_Chiralities_Consistent>
1

> <s_lp_Variant>
AV-unprocessed.smi:2734-2

> <Gold.Version>
5.8.1

> <Gold.Id.Protein>
6NUR|6NUR_protein|mol2

> <Gold.PLP.Fitness>
49.8311

> <Gold.PLP.PLP>
-39.8520

> <Gold.PLP.part.hbond>
-4.9941

> <Gold.PLP.part.metal>
0.0000

> <Gold.PLP.part.buried>
-6.0661

> <Gold.PLP.part.nonpolar>
-28.9879

> <Gold.PLP.part.repulsive>
0.4726

> <Gold.PLP.ligand.clash>
0.0000

> <Gold.PLP.ligand.torsion>
0.8020

> <Gold.PLP.Chemscore.Hbond>
3.8480

> <Gold.PLP.Chemscore.CHOScore>
0.0000

> <Gold.PLP.Chemscore.Metal>
0.0000

> <Gold.Chemscore.Hbonds>
donor molecule, donor type, donor heavy atom, donor atom, acceptor molecule, acceptor atom, score
      L1  H    10    31       P1  7957  1.00
      P1  H  7989  7998       L1    10  0.81
      P1  H  7997  8008       L1     5  1.00
      P1  H 10752 10765       L1    15  0.49

> <Gold.PLP.Chemscore.Internal.Correction>
0.0391

> <Gold.Rescore>
     Score         DG    S(hbond)    S(metal)    S(lipo)     H(rot)  DE(clash)    DE(int)     intcor
     17.76     -18.61       2.84        0.00      93.41       2.85       0.00       0.85       ----

> <Gold.Chemscore.Fitness>
17.7553

> <Gold.Chemscore.DG>
-18.6076

> <Gold.Chemscore.ZeroCoef>
-5.4800

> <Gold.Chemscore.Hbond>
2.8390

> <Gold.Chemscore.Metal>
0.0000

> <Gold.Chemscore.Lipo>
93.4099

> <Gold.Chemscore.Internal_Hbond>
0.0000

> <Gold.Chemscore.DEClash>
0.0000

> <Gold.Chemscore.DEInternal>
0.8523

> <Gold.Chemscore.Rot>
2.8452

> <Gold.Chemscore.Internal.Correction>
   9.000000E+99

> <Gold.Chemscore.Hbonds>
donor molecule, donor type, donor heavy atom, donor atom, acceptor molecule, acceptor atom, score
      L1  H    10    31       P1  7957  0.96
      P1  H  7989  7998       L1    10  0.15
      P1  H  7997  8008       L1     5  0.12
      P1  H 10752 10765       L1    15  0.04

> <Gold.Chemscore.Hbond.Weighted>
-9.4823

> <Gold.Chemscore.Metal.Weighted>
-0.0000

> <Gold.Chemscore.Lipo.Weighted>
-10.9290

> <Gold.Chemscore.Internal_Hbond.Weighted>
0.0000

> <Gold.Chemscore.DEClash.Weighted>
0.0000

> <Gold.Chemscore.DEInternal.Weighted>
0.8523

> <Gold.Chemscore.Rot.Weighted>
7.2837

> <Gold.Chemscore.Internal.Correction.Weighted>
   9.000000E+99

> <Gold.Protein.RotatedTorsions>
[ 6907 6896 6895 6894 ] final -153.27 input  -60.11 | X-H torsion
[ 7974 7965 7964 7962 ] final   -2.21 input  175.53 | X-H torsion
[ 8008 7997 7996 7995 ] final  -56.89 input   59.86 | X-H torsion
[ 10167 10162 10161 10158 ] final  134.57 input  -65.29 | X-H torsion
[ 10718 10713 10712 10709 ] final  -93.62 input   66.30 | X-H torsion
[ 10763 10752 10751 10750 ] final  165.15 input  -60.55 | X-H torsion
[ 11005 11000 10999 10996 ] final   95.59 input  -57.11 | X-H torsion

> <Gold.Protein.ActiveResidues>
 VAL166  LYS551  ARG553  GLY616  TRP617  ASP618  TYR619  PRO620  LYS621  CYS622 
 ASP623  PHE694  ASN695  SER759  ASP760  ASP761  ALA762  ILE779  LEU786  VAL792 
 PHE793  MET794  SER795  GLU796  ALA797  LYS798  CYS799  TRP800  GLU811  SER814 

> <Gold.Protein.RotatedAtoms>
  151.2401  133.4404  159.2606 H   0  0  0  0  0  0  0  0  0  0  0  0  # atno 6907 bound_to 6896
  151.0713  134.9800  159.8320 H   0  0  0  0  0  0  0  0  0  0  0  0  # atno 6908 bound_to 6896
  152.5412  134.2346  159.8891 H   0  0  0  0  0  0  0  0  0  0  0  0  # atno 6909 bound_to 6896
  146.2407  140.1536  142.8333 H   0  0  0  0  0  0  0  0  0  0  0  0  # atno 7974 bound_to 7965
  154.4247  140.1119  156.5709 H   0  0  0  0  0  0  0  0  0  0  0  0  # atno 8008 bound_to 7997
  155.6213  140.3495  155.4634 H   0  0  0  0  0  0  0  0  0  0  0  0  # atno 8009 bound_to 7997
  156.0022  140.1201  157.0526 H   0  0  0  0  0  0  0  0  0  0  0  0  # atno 8010 bound_to 7997
  139.5251  144.6560  151.5159 H   0  0  0  0  0  0  0  0  0  0  0  0  # atno 10167 bound_to 10162
  156.0016  130.5034  150.5803 H   0  0  0  0  0  0  0  0  0  0  0  0  # atno 10718 bound_to 10713
  154.3197  135.2756  155.2525 H   0  0  0  0  0  0  0  0  0  0  0  0  # atno 10763 bound_to 10752
  154.4884  135.5840  153.6444 H   0  0  0  0  0  0  0  0  0  0  0  0  # atno 10764 bound_to 10752
  152.9878  135.6128  154.3381 H   0  0  0  0  0  0  0  0  0  0  0  0  # atno 10765 bound_to 10752
  139.8788  134.8907  156.4033 H   0  0  0  0  0  0  0  0  0  0  0  0  # atno 11005 bound_to 11000
  145.0147  140.8744  143.5203 LP  0  0  0  0  0  0  0  0  0  0  0  0  # atno 17320 bound_to 7965
  145.1575  139.2478  143.5409 LP  0  0  0  0  0  0  0  0  0  0  0  0  # atno 17321 bound_to 7965
  140.6386  143.8933  150.6671 LP  0  0  0  0  0  0  0  0  0  0  0  0  # atno 17342 bound_to 10162
  140.2261  143.3772  152.1604 LP  0  0  0  0  0  0  0  0  0  0  0  0  # atno 17343 bound_to 10162
  157.3684  131.0761  151.1578 LP  0  0  0  0  0  0  0  0  0  0  0  0  # atno 17370 bound_to 10713
  157.2340  130.6538  149.5861 LP  0  0  0  0  0  0  0  0  0  0  0  0  # atno 17371 bound_to 10713
  140.9251  133.7617  155.9955 LP  0  0  0  0  0  0  0  0  0  0  0  0  # atno 17394 bound_to 11000
  140.8395  134.3084  157.5319 LP  0  0  0  0  0  0  0  0  0  0  0  0  # atno 17395 bound_to 11000

$$$$
