AV-unprocessed.smi:767|AV-procd|sdf|3671|dock9
  -GOLD-   22720 1 83D 1   1.00000     0.00000
 Structure written by MMmdl.
 48 50  0  0  0  0  0  0  0  0  2 V2000
  143.5639  132.2774  148.1765 C   0  0  0  0  0  0  0  0  0  0  0  0
  144.2535  132.6655  149.4674 C   0  0  0  0  0  0  0  0  0  0  0  0
  145.5670  132.2476  149.7698 C   0  0  0  0  0  0  0  0  0  0  0  0
  146.1514  132.6403  150.9919 C   0  0  0  0  0  0  0  0  0  0  0  0
  145.4093  133.4400  151.8886 C   0  0  0  0  0  0  0  0  0  0  0  0
  146.0028  133.8695  153.2199 C   0  0  0  0  0  0  0  0  0  0  0  0
  145.7490  135.3513  153.5718 C   0  0  0  0  0  0  0  0  0  0  0  0
  146.9652  136.1586  153.6317 N   0  0  0  0  0  0  0  0  0  0  0  0
  147.2699  137.0325  154.6007 C   0  0  0  0  0  0  0  0  0  0  0  0
  146.5555  137.2580  155.5773 O   0  0  0  0  0  0  0  0  0  0  0  0
  148.4592  137.6112  154.3917 N   0  0  0  0  0  0  0  0  0  0  0  0
  149.0873  138.5654  155.3111 C   0  0  2  0  0  0  0  0  0  0  0  0
  148.4791  139.9672  155.2189 C   0  0  2  0  0  0  0  0  0  0  0  0
  147.2211  140.5501  154.6847 C   0  0  0  0  0  0  0  0  0  0  0  0
  147.8541  141.8097  154.0328 C   0  0  0  0  0  0  0  0  0  0  0  0
  149.2901  141.6045  154.0769 O   0  0  0  0  0  0  0  0  0  0  0  0
  149.4333  140.1982  154.0654 C   0  0  1  0  0  0  0  0  0  0  0  0
  150.4138  139.2421  154.7810 C   0  0  0  0  0  0  0  0  0  0  0  0
  151.3579  139.8565  155.8300 C   0  0  0  0  0  0  0  0  0  0  0  0
  151.3043  138.4046  153.8562 C   0  0  0  0  0  0  0  0  0  0  0  0
  144.1004  133.8297  151.5312 C   0  0  0  0  0  0  0  0  0  0  0  0
  143.5765  133.4327  150.3511 N   0  3  0  0  0  0  0  0  0  0  0  0
  144.2886  132.1815  147.3673 H   0  0  0  0  0  0  0  0  0  0  0  0
  142.8279  133.0272  147.8842 H   0  0  0  0  0  0  0  0  0  0  0  0
  143.0534  131.3213  148.2947 H   0  0  0  0  0  0  0  0  0  0  0  0
  146.1210  131.6329  149.0752 H   0  0  0  0  0  0  0  0  0  0  0  0
  147.1551  132.3267  151.2388 H   0  0  0  0  0  0  0  0  0  0  0  0
  145.5994  133.2316  154.0071 H   0  0  0  0  0  0  0  0  0  0  0  0
  147.0764  133.6776  153.2050 H   0  0  0  0  0  0  0  0  0  0  0  0
  145.1126  135.7966  152.8068 H   0  0  0  0  0  0  0  0  0  0  0  0
  145.1998  135.4308  154.5111 H   0  0  0  0  0  0  0  0  0  0  0  0
  147.6215  136.0460  152.8727 H   0  0  0  0  0  0  0  0  0  0  0  0
  148.9745  137.3686  153.5583 H   0  0  0  0  0  0  0  0  0  0  0  0
  149.1645  138.2065  156.3390 H   0  0  0  0  0  0  0  0  0  0  0  0
  148.7613  140.5202  156.1182 H   0  0  0  0  0  0  0  0  0  0  0  0
  146.7449  139.9026  153.9472 H   0  0  0  0  0  0  0  0  0  0  0  0
  146.5008  140.7972  155.4649 H   0  0  0  0  0  0  0  0  0  0  0  0
  147.5167  141.9240  153.0018 H   0  0  0  0  0  0  0  0  0  0  0  0
  147.5994  142.7206  154.5752 H   0  0  0  0  0  0  0  0  0  0  0  0
  149.0863  139.7900  153.1105 H   0  0  0  0  0  0  0  0  0  0  0  0
  152.0780  140.5312  155.3661 H   0  0  0  0  0  0  0  0  0  0  0  0
  151.9247  139.0841  156.3506 H   0  0  0  0  0  0  0  0  0  0  0  0
  150.8416  140.4305  156.5973 H   0  0  0  0  0  0  0  0  0  0  0  0
  152.1442  138.9845  153.4718 H   0  0  0  0  0  0  0  0  0  0  0  0
  150.7573  138.0357  152.9887 H   0  0  0  0  0  0  0  0  0  0  0  0
  151.7121  137.5371  154.3760 H   0  0  0  0  0  0  0  0  0  0  0  0
  143.4573  134.4355  152.1530 H   0  0  0  0  0  0  0  0  0  0  0  0
  142.6273  133.7247  150.1170 H   0  0  0  0  0  0  0  0  0  0  0  0
  1  2  1  0  0  0  0
  1 23  1  0  0  0  0
  1 24  1  0  0  0  0
  1 25  1  0  0  0  0
  2 22  1  0  0  0  0
  2  3  2  0  0  0  0
  3  4  1  0  0  0  0
  3 26  1  0  0  0  0
  4  5  2  0  0  0  0
  4 27  1  0  0  0  0
  5  6  1  0  0  0  0
  5 21  1  0  0  0  0
  6  7  1  0  0  0  0
  6 28  1  0  0  0  0
  6 29  1  0  0  0  0
  7  8  1  0  0  0  0
  7 30  1  0  0  0  0
  7 31  1  0  0  0  0
  8  9  1  0  0  0  0
  8 32  1  0  0  0  0
  9 10  2  0  0  0  0
  9 11  1  0  0  0  0
 11 12  1  0  0  0  0
 11 33  1  0  0  0  0
 12 18  1  0  0  0  0
 12 13  1  0  0  0  0
 12 34  1  0  0  0  0
 13 17  1  0  0  0  0
 13 14  1  0  0  0  0
 13 35  1  0  0  0  0
 14 15  1  0  0  0  0
 14 36  1  0  0  0  0
 14 37  1  0  0  0  0
 15 16  1  0  0  0  0
 15 38  1  0  0  0  0
 15 39  1  0  0  0  0
 16 17  1  0  0  0  0
 17 18  1  0  0  0  0
 17 40  1  0  0  0  0
 18 19  1  0  0  0  0
 18 20  1  0  0  0  0
 19 41  1  0  0  0  0
 19 42  1  0  0  0  0
 19 43  1  0  0  0  0
 20 44  1  0  0  0  0
 20 45  1  0  0  0  0
 20 46  1  0  0  0  0
 21 22  2  0  0  0  0
 21 47  1  0  0  0  0
 22 48  1  0  0  0  0
M  CHG  1  22   1
M  END
> <s_m_source_file>
AV-unprocessed.smi

> <i_m_source_file_index>
767

> <i_lp_mmshare_version>
43012

> <i_f3d_flags>
0

> <s_epik_input>
W0NIM11jMVtjSF1bY0hdYyhbY0hdbjEpW0NIMl1bQ0gyXVtOSF1DKD1PKVtOSF1bQ0BIXTJDKFtDSDNdKShbQ0gzXSlbQ0BIXShbQ0BASF0yMylPW0NIMl1bQ0gyXTM=

> <s_epik_cmdline>
J2VwaWtfcHl0aG9uJywgJy1waCcsICc3LjAnLCAnLXRuJywgJzgnLCAnLW1hJywgJzIwMCcsICctbWV0YWxfYmluZGluZycsICctaW1hZScsICc8aW5maWxlLm1hZT4nLCAnLW9tYWUnLCAnPG91dGZpbGUubWFlPic=

> <r_epik_Ionization_Penalty>
1.41853

> <r_epik_Ionization_Penalty_Charging>
1.41848

> <r_epik_Ionization_Penalty_Neutral>
5.17407e-05

> <r_epik_State_Penalty>
1.50205

> <r_epik_Charging_Adjusted_Penalty>
2.92053

> <i_epik_Tot_Q>
1

> <i_epik_Tot_abs_Q>
1

> <r_epik_Metal_State_Penalty>
1.5544

> <b_epik_Metal_Only>
0

> <s_lp_Force_Field>
OPLS_2005

> <r_lp_Energy>
65.9861

> <b_lp_Chiralities_Consistent>
1

> <s_lp_Variant>
AV-unprocessed.smi:767-15

> <Gold.Version>
5.8.1

> <Gold.Id.Protein>
6NUR|6NUR_protein|mol2

> <Gold.PLP.Fitness>
49.0911

> <Gold.PLP.PLP>
-36.8247

> <Gold.PLP.part.hbond>
-5.0000

> <Gold.PLP.part.metal>
0.0000

> <Gold.PLP.part.buried>
-1.4784

> <Gold.PLP.part.nonpolar>
-30.2284

> <Gold.PLP.part.repulsive>
0.2397

> <Gold.PLP.ligand.clash>
0.0000

> <Gold.PLP.ligand.torsion>
0.8009

> <Gold.PLP.Chemscore.Hbond>
4.5360

> <Gold.PLP.Chemscore.CHOScore>
0.0000

> <Gold.PLP.Chemscore.Metal>
0.0000

> <Gold.Chemscore.Hbonds>
donor molecule, donor type, donor heavy atom, donor atom, acceptor molecule, acceptor atom, score
      L1  H     8    32       P1  7948  1.00
      L1  H    11    33       P1  7948  0.91
      L1  H    22    48       P1 10186  2.00
      P1  H  8011  8017       L1    16  0.61

> <Gold.PLP.Chemscore.Internal.Correction>
0.2603

> <Gold.Rescore>
     Score         DG    S(hbond)    S(metal)    S(lipo)     H(rot)  DE(clash)    DE(int)     intcor
     22.37     -24.48       2.98        0.00     110.75       1.52       1.28       0.83       ----

> <Gold.Chemscore.Fitness>
22.3703

> <Gold.Chemscore.DG>
-24.4772

> <Gold.Chemscore.ZeroCoef>
-5.4800

> <Gold.Chemscore.Hbond>
2.9758

> <Gold.Chemscore.Metal>
0.0000

> <Gold.Chemscore.Lipo>
110.7470

> <Gold.Chemscore.Internal_Hbond>
0.0000

> <Gold.Chemscore.DEClash>
1.2770

> <Gold.Chemscore.DEInternal>
0.8298

> <Gold.Chemscore.Rot>
1.5233

> <Gold.Chemscore.Internal.Correction>
   9.000000E+99

> <Gold.Chemscore.Hbonds>
donor molecule, donor type, donor heavy atom, donor atom, acceptor molecule, acceptor atom, score
      L1  H     8    32       P1  7948  1.00
      L1  H    11    33       P1  7948  0.84
      L1  H    22    48       P1 10186  1.00
      P1  H  8011  8017       L1    16  0.13

> <Gold.Chemscore.Hbond.Weighted>
-9.9393

> <Gold.Chemscore.Metal.Weighted>
-0.0000

> <Gold.Chemscore.Lipo.Weighted>
-12.9574

> <Gold.Chemscore.Internal_Hbond.Weighted>
0.0000

> <Gold.Chemscore.DEClash.Weighted>
1.2770

> <Gold.Chemscore.DEInternal.Weighted>
0.8298

> <Gold.Chemscore.Rot.Weighted>
3.8995

> <Gold.Chemscore.Internal.Correction.Weighted>
   9.000000E+99

> <Gold.Protein.RotatedTorsions>
[ 6907 6896 6895 6894 ] final -150.80 input  -60.11 | X-H torsion
[ 7974 7965 7964 7962 ] final   74.89 input  175.53 | X-H torsion
[ 8008 7997 7996 7995 ] final -136.12 input   59.86 | X-H torsion
[ 10167 10162 10161 10158 ] final  139.74 input  -65.29 | X-H torsion
[ 10718 10713 10712 10709 ] final  -36.09 input   66.30 | X-H torsion
[ 10763 10752 10751 10750 ] final   -0.54 input  -60.55 | X-H torsion
[ 11005 11000 10999 10996 ] final   89.66 input  -57.11 | X-H torsion

> <Gold.Protein.ActiveResidues>
 VAL166  LYS551  ARG553  GLY616  TRP617  ASP618  TYR619  PRO620  LYS621  CYS622 
 ASP623  PHE694  ASN695  SER759  ASP760  ASP761  ALA762  ILE779  LEU786  VAL792 
 PHE793  MET794  SER795  GLU796  ALA797  LYS798  CYS799  TRP800  GLU811  SER814 

> <Gold.Protein.RotatedAtoms>
  151.2039  133.4595  159.2596 H   0  0  0  0  0  0  0  0  0  0  0  0  # atno 6907 bound_to 6896
  151.1043  134.9990  159.8473 H   0  0  0  0  0  0  0  0  0  0  0  0  # atno 6908 bound_to 6896
  152.5446  134.1963  159.8747 H   0  0  0  0  0  0  0  0  0  0  0  0  # atno 6909 bound_to 6896
  145.7226  139.2654  143.1587 H   0  0  0  0  0  0  0  0  0  0  0  0  # atno 7974 bound_to 7965
  155.3899  140.0499  157.3041 H   0  0  0  0  0  0  0  0  0  0  0  0  # atno 8008 bound_to 7997
  154.5041  140.2168  155.9248 H   0  0  0  0  0  0  0  0  0  0  0  0  # atno 8009 bound_to 7997
  156.1504  140.3137  155.8644 H   0  0  0  0  0  0  0  0  0  0  0  0  # atno 8010 bound_to 7997
  139.5069  144.6276  151.5898 H   0  0  0  0  0  0  0  0  0  0  0  0  # atno 10167 bound_to 10162
  156.3309  130.4279  149.7874 H   0  0  0  0  0  0  0  0  0  0  0  0  # atno 10718 bound_to 10713
  153.3332  135.6976  153.6930 H   0  0  0  0  0  0  0  0  0  0  0  0  # atno 10763 bound_to 10752
  153.5724  135.3513  155.2843 H   0  0  0  0  0  0  0  0  0  0  0  0  # atno 10764 bound_to 10752
  154.8622  135.4275  154.2526 H   0  0  0  0  0  0  0  0  0  0  0  0  # atno 10765 bound_to 10752
  139.8871  134.8565  156.3173 H   0  0  0  0  0  0  0  0  0  0  0  0  # atno 11005 bound_to 11000
  146.0612  140.7969  142.9734 LP  0  0  0  0  0  0  0  0  0  0  0  0  # atno 17320 bound_to 7965
  144.6913  140.3199  143.7234 LP  0  0  0  0  0  0  0  0  0  0  0  0  # atno 17321 bound_to 7965
  140.5998  143.9630  150.6379 LP  0  0  0  0  0  0  0  0  0  0  0  0  # atno 17342 bound_to 10162
  140.2838  143.3371  152.1127 LP  0  0  0  0  0  0  0  0  0  0  0  0  # atno 17343 bound_to 10162
  156.5146  130.8187  151.3181 LP  0  0  0  0  0  0  0  0  0  0  0  0  # atno 17370 bound_to 10713
  157.7430  130.9902  150.2559 LP  0  0  0  0  0  0  0  0  0  0  0  0  # atno 17371 bound_to 10713
  140.9810  133.7267  156.0672 LP  0  0  0  0  0  0  0  0  0  0  0  0  # atno 17394 bound_to 11000
  140.7749  134.3791  157.5500 LP  0  0  0  0  0  0  0  0  0  0  0  0  # atno 17395 bound_to 11000

$$$$
