AV-unprocessed.smi:3225|AV-procd|sdf|12311|dock4
  -GOLD-   2272018153D 1   1.00000     0.00000
 Structure written by MMmdl.
 41 42  0  0  0  0  0  0  0  0  2 V2000
  152.9211  141.7533  161.6554 C   0  0  0  0  0  0  0  0  0  0  0  0
  153.7029  141.8842  160.3374 C   0  0  2  0  0  0  0  0  0  0  0  0
  152.7973  142.2985  159.1539 C   0  0  0  0  0  0  0  0  0  0  0  0
  152.1728  143.5954  159.3432 N   0  0  0  0  0  0  0  0  0  0  0  0
  152.1974  144.4074  160.4578 C   0  0  0  0  0  0  0  0  0  0  0  0
  151.4579  145.5177  160.1670 C   0  0  0  0  0  0  0  0  0  0  0  0
  151.0098  145.2874  158.8364 C   0  0  0  0  0  0  0  0  0  0  0  0
  151.4365  144.1339  158.3474 N   0  0  0  0  0  0  0  0  0  0  0  0
  154.3992  140.6098  160.0520 N   0  3  0  0  0  0  0  0  0  0  0  0
  155.2845  140.1200  161.1296 C   0  0  0  0  0  0  0  0  0  0  0  0
  155.2113  138.5926  161.2486 C   0  0  0  0  0  0  0  0  0  0  0  0
  154.0567  138.1326  162.1545 C   0  0  0  0  0  0  0  0  0  0  0  0
  154.1226  136.6999  162.4305 N   0  0  0  0  0  0  0  0  0  0  0  0
  153.5883  136.1575  163.6685 C   0  0  0  0  0  0  0  0  0  0  0  0
  154.0199  134.6840  163.6749 C   0  0  0  0  0  0  0  0  0  0  0  0
  154.4667  134.3760  162.2416 C   0  0  0  0  0  0  0  0  0  0  0  0
  154.5961  135.7528  161.6121 C   0  0  0  0  0  0  0  0  0  0  0  0
  155.0774  135.9350  160.4947 O   0  0  0  0  0  0  0  0  0  0  0  0
  152.4703  142.7011  161.9509 H   0  0  0  0  0  0  0  0  0  0  0  0
  153.5760  141.4425  162.4702 H   0  0  0  0  0  0  0  0  0  0  0  0
  152.1214  141.0166  161.5714 H   0  0  0  0  0  0  0  0  0  0  0  0
  154.4631  142.6523  160.4889 H   0  0  0  0  0  0  0  0  0  0  0  0
  153.3628  142.3383  158.2228 H   0  0  0  0  0  0  0  0  0  0  0  0
  152.0102  141.5575  159.0072 H   0  0  0  0  0  0  0  0  0  0  0  0
  152.7338  144.1326  161.3543 H   0  0  0  0  0  0  0  0  0  0  0  0
  151.2639  146.3651  160.8079 H   0  0  0  0  0  0  0  0  0  0  0  0
  150.3901  145.9181  158.2162 H   0  0  0  0  0  0  0  0  0  0  0  0
  153.6934  139.9026  159.9039 H   0  0  0  0  0  0  0  0  0  0  0  0
  156.3134  140.4206  160.9328 H   0  0  0  0  0  0  0  0  0  0  0  0
  154.9885  140.5798  162.0735 H   0  0  0  0  0  0  0  0  0  0  0  0
  155.0949  138.1587  160.2545 H   0  0  0  0  0  0  0  0  0  0  0  0
  156.1549  138.2133  161.6436 H   0  0  0  0  0  0  0  0  0  0  0  0
  154.0824  138.6811  163.0972 H   0  0  0  0  0  0  0  0  0  0  0  0
  153.0971  138.3653  161.6902 H   0  0  0  0  0  0  0  0  0  0  0  0
  153.9695  136.6955  164.5374 H   0  0  0  0  0  0  0  0  0  0  0  0
  152.5011  136.2458  163.6601 H   0  0  0  0  0  0  0  0  0  0  0  0
  154.8559  134.5422  164.3611 H   0  0  0  0  0  0  0  0  0  0  0  0
  153.2127  134.0279  164.0022 H   0  0  0  0  0  0  0  0  0  0  0  0
  155.4104  133.8306  162.2107 H   0  0  0  0  0  0  0  0  0  0  0  0
  153.7112  133.8020  161.7044 H   0  0  0  0  0  0  0  0  0  0  0  0
  154.9322  140.7116  159.2001 H   0  0  0  0  0  0  0  0  0  0  0  0
  1  2  1  0  0  0  0
  1 19  1  0  0  0  0
  1 20  1  0  0  0  0
  1 21  1  0  0  0  0
  2  3  1  0  0  0  0
  2  9  1  0  0  0  0
  2 22  1  0  0  0  0
  3  4  1  0  0  0  0
  3 23  1  0  0  0  0
  3 24  1  0  0  0  0
  4  8  1  0  0  0  0
  4  5  1  0  0  0  0
  5  6  2  0  0  0  0
  5 25  1  0  0  0  0
  6  7  1  0  0  0  0
  6 26  1  0  0  0  0
  7  8  2  0  0  0  0
  7 27  1  0  0  0  0
  9 10  1  0  0  0  0
  9 28  1  0  0  0  0
  9 41  1  0  0  0  0
 10 11  1  0  0  0  0
 10 29  1  0  0  0  0
 10 30  1  0  0  0  0
 11 12  1  0  0  0  0
 11 31  1  0  0  0  0
 11 32  1  0  0  0  0
 12 13  1  0  0  0  0
 12 33  1  0  0  0  0
 12 34  1  0  0  0  0
 13 17  1  0  0  0  0
 13 14  1  0  0  0  0
 14 15  1  0  0  0  0
 14 35  1  0  0  0  0
 14 36  1  0  0  0  0
 15 16  1  0  0  0  0
 15 37  1  0  0  0  0
 15 38  1  0  0  0  0
 16 17  1  0  0  0  0
 16 39  1  0  0  0  0
 16 40  1  0  0  0  0
 17 18  2  0  0  0  0
M  CHG  1   9   1
M  END
> <s_m_source_file>
AV-unprocessed.smi

> <i_m_source_file_index>
3225

> <i_lp_mmshare_version>
43012

> <i_f3d_flags>
0

> <s_epik_input>
bjFbY0hdW2NIXVtjSF1uMVtDSDJdW0NAQEhdKFtDSDNdKVtOSF1bQ0gyXVtDSDJdW0NIMl1OMltDSDJdW0NIMl1bQ0gyXUMyPU8=

> <s_epik_cmdline>
J2VwaWtfcHl0aG9uJywgJy1waCcsICc3LjAnLCAnLXRuJywgJzgnLCAnLW1hJywgJzIwMCcsICctbWV0YWxfYmluZGluZycsICctaW1hZScsICc8aW5maWxlLm1hZT4nLCAnLW9tYWUnLCAnPG91dGZpbGUubWFlPic=

> <r_lp_tautomer_probability>
1

> <r_epik_Ionization_Penalty>
0.00490443

> <r_epik_Ionization_Penalty_Charging>
0.00490019

> <r_epik_Ionization_Penalty_Neutral>
4.24076e-06

> <r_epik_State_Penalty>
0.00355741

> <r_epik_Charging_Adjusted_Penalty>
0.0084576

> <i_epik_Tot_Q>
1

> <i_epik_Tot_abs_Q>
1

> <r_epik_Metal_State_Penalty>
-0

> <b_epik_Metal_Only>
0

> <s_lp_Force_Field>
OPLS_2005

> <r_lp_Energy>
20.009

> <b_lp_Chiralities_Consistent>
1

> <s_lp_Variant>
AV-unprocessed.smi:3225-1

> <Gold.Version>
5.8.1

> <Gold.Id.Protein>
6NUR|6NUR_protein|mol2

> <Gold.PLP.Fitness>
46.4808

> <Gold.PLP.PLP>
-45.1281

> <Gold.PLP.part.hbond>
0.0000

> <Gold.PLP.part.metal>
0.0000

> <Gold.PLP.part.buried>
-5.4306

> <Gold.PLP.part.nonpolar>
-39.8442

> <Gold.PLP.part.repulsive>
0.1887

> <Gold.PLP.ligand.clash>
0.0000

> <Gold.PLP.ligand.torsion>
0.8505

> <Gold.PLP.Chemscore.Hbond>
0.0000

> <Gold.PLP.Chemscore.CHOScore>
1.0000

> <Gold.PLP.Chemscore.Metal>
0.0000

> <Gold.Chemscore.Hbonds>
donor molecule, donor type, donor heavy atom, donor atom, acceptor molecule, acceptor atom, score
      L1  C     7    27       P1  8029  0.74

> <Gold.PLP.Chemscore.Internal.Correction>
0.0538

> <Gold.Rescore>
     Score         DG    S(hbond)    S(metal)    S(lipo)     H(rot)  DE(clash)    DE(int)     intcor
     11.00     -13.25       0.00        0.00     114.28       2.19       0.09       2.16       ----

> <Gold.Chemscore.Fitness>
10.9979

> <Gold.Chemscore.DG>
-13.2479

> <Gold.Chemscore.ZeroCoef>
-5.4800

> <Gold.Chemscore.Hbond>
0.0000

> <Gold.Chemscore.Metal>
0.0000

> <Gold.Chemscore.Lipo>
114.2753

> <Gold.Chemscore.Internal_Hbond>
0.0000

> <Gold.Chemscore.DEClash>
0.0945

> <Gold.Chemscore.DEInternal>
2.1555

> <Gold.Chemscore.Rot>
2.1884

> <Gold.Chemscore.Internal.Correction>
   9.000000E+99

> <Gold.Chemscore.Hbond.Weighted>
-0.0000

> <Gold.Chemscore.Metal.Weighted>
-0.0000

> <Gold.Chemscore.Lipo.Weighted>
-13.3702

> <Gold.Chemscore.Internal_Hbond.Weighted>
0.0000

> <Gold.Chemscore.DEClash.Weighted>
0.0945

> <Gold.Chemscore.DEInternal.Weighted>
2.1555

> <Gold.Chemscore.Rot.Weighted>
5.6023

> <Gold.Chemscore.Internal.Correction.Weighted>
   9.000000E+99

> <Gold.Protein.RotatedTorsions>
[ 6907 6896 6895 6894 ] final    5.05 input  -60.11 | X-H torsion
[ 7974 7965 7964 7962 ] final -106.29 input  175.53 | X-H torsion
[ 8008 7997 7996 7995 ] final   97.09 input   59.86 | X-H torsion
[ 10167 10162 10161 10158 ] final -129.62 input  -65.29 | X-H torsion
[ 10718 10713 10712 10709 ] final -155.86 input   66.30 | X-H torsion
[ 10763 10752 10751 10750 ] final  -87.03 input  -60.55 | X-H torsion
[ 11005 11000 10999 10996 ] final   67.91 input  -57.11 | X-H torsion

> <Gold.Protein.ActiveResidues>
 VAL166  LYS551  ARG553  GLY616  TRP617  ASP618  TYR619  PRO620  LYS621  CYS622 
 ASP623  PHE694  ASN695  SER759  ASP760  ASP761  ALA762  ILE779  LEU786  VAL792 
 PHE793  MET794  SER795  GLU796  ALA797  LYS798  CYS799  TRP800  GLU811  SER814 

> <Gold.Protein.RotatedAtoms>
  151.6512  135.1001  160.0160 H   0  0  0  0  0  0  0  0  0  0  0  0  # atno 6907 bound_to 6896
  152.4000  133.6799  159.6317 H   0  0  0  0  0  0  0  0  0  0  0  0  # atno 6908 bound_to 6896
  150.7901  133.8725  159.3303 H   0  0  0  0  0  0  0  0  0  0  0  0  # atno 6909 bound_to 6896
  145.2198  140.9129  143.3266 H   0  0  0  0  0  0  0  0  0  0  0  0  # atno 7974 bound_to 7965
  156.0865  140.3263  155.7760 H   0  0  0  0  0  0  0  0  0  0  0  0  # atno 8008 bound_to 7997
  155.5068  140.0574  157.2947 H   0  0  0  0  0  0  0  0  0  0  0  0  # atno 8009 bound_to 7997
  154.4612  140.1967  156.0256 H   0  0  0  0  0  0  0  0  0  0  0  0  # atno 8010 bound_to 7997
  139.9378  143.6197  152.2512 H   0  0  0  0  0  0  0  0  0  0  0  0  # atno 10167 bound_to 10162
  156.5186  130.8467  151.2673 H   0  0  0  0  0  0  0  0  0  0  0  0  # atno 10718 bound_to 10713
  154.6291  135.5428  153.7660 H   0  0  0  0  0  0  0  0  0  0  0  0  # atno 10763 bound_to 10752
  153.0275  135.6431  154.1328 H   0  0  0  0  0  0  0  0  0  0  0  0  # atno 10764 bound_to 10752
  154.1259  135.2917  155.3177 H   0  0  0  0  0  0  0  0  0  0  0  0  # atno 10765 bound_to 10752
  139.9742  134.6849  156.0386 H   0  0  0  0  0  0  0  0  0  0  0  0  # atno 11005 bound_to 11000
  144.9777  139.3815  143.6278 LP  0  0  0  0  0  0  0  0  0  0  0  0  # atno 17320 bound_to 7965
  146.3379  139.8903  142.8810 LP  0  0  0  0  0  0  0  0  0  0  0  0  # atno 17321 bound_to 7965
  139.6729  144.7660  151.1750 LP  0  0  0  0  0  0  0  0  0  0  0  0  # atno 17342 bound_to 10162
  140.7619  143.5838  150.8867 LP  0  0  0  0  0  0  0  0  0  0  0  0  # atno 17343 bound_to 10162
  157.7440  130.9925  150.2639 LP  0  0  0  0  0  0  0  0  0  0  0  0  # atno 17370 bound_to 10713
  156.3171  130.3780  149.7608 LP  0  0  0  0  0  0  0  0  0  0  0  0  # atno 17371 bound_to 10713
  141.1420  133.6563  156.3758 LP  0  0  0  0  0  0  0  0  0  0  0  0  # atno 17394 bound_to 11000
  140.5229  134.6287  157.5324 LP  0  0  0  0  0  0  0  0  0  0  0  0  # atno 17395 bound_to 11000

$$$$
