AV-unprocessed.smi:3202|AV-procd|sdf|12241|dock8
  -GOLD-   2272018 73D 1   1.00000     0.00000
 Structure written by MMmdl.
 43 44  0  0  0  0  0  0  0  0  2 V2000
  146.4729  138.1319  153.8026 C   0  0  0  0  0  0  0  0  0  0  0  0
  147.6692  138.9790  154.0744 C   0  0  0  0  0  0  0  0  0  0  0  0
  147.7995  140.1855  154.7024 C   0  0  0  0  0  0  0  0  0  0  0  0
  149.1959  140.4673  154.6399 C   0  0  0  0  0  0  0  0  0  0  0  0
  149.9153  141.6777  155.1712 C   0  0  0  0  0  0  0  0  0  0  0  0
  149.9955  141.7182  156.7151 C   0  0  2  0  0  0  0  0  0  0  0  0
  148.6159  141.6170  157.3868 C   0  0  0  0  0  0  0  0  0  0  0  0
  150.6582  142.9611  157.1730 N   0  3  0  0  0  0  0  0  0  0  0  0
  150.7740  143.1366  158.6408 C   0  0  2  0  0  0  0  0  0  0  0  0
  149.8841  144.2599  159.1922 C   0  0  0  0  0  0  0  0  0  0  0  0
  150.5765  144.7419  160.4735 C   0  0  0  0  0  0  0  0  0  0  0  0
  151.9353  144.0281  160.5244 C   0  0  0  0  0  0  0  0  0  0  0  0
  152.2019  143.4968  159.1044 C   0  0  0  0  0  0  0  0  0  0  0  0
  153.1213  142.2616  159.1363 C   0  0  0  0  0  0  0  0  0  0  0  0
  152.8536  144.6045  158.2441 C   0  0  0  0  0  0  0  0  0  0  0  0
  149.8763  139.5116  154.0225 N   0  0  0  0  0  0  0  0  0  0  0  0
  148.9354  138.6116  153.6819 N   0  0  0  0  0  0  0  0  0  0  0  0
  149.1688  137.7604  153.1899 H   0  0  0  0  0  0  0  0  0  0  0  0
  145.5773  138.5679  154.2458 H   0  0  0  0  0  0  0  0  0  0  0  0
  146.6016  137.1328  154.2193 H   0  0  0  0  0  0  0  0  0  0  0  0
  146.3038  138.0333  152.7302 H   0  0  0  0  0  0  0  0  0  0  0  0
  147.0127  140.7806  155.1421 H   0  0  0  0  0  0  0  0  0  0  0  0
  150.9171  141.6965  154.7434 H   0  0  0  0  0  0  0  0  0  0  0  0
  149.4292  142.5852  154.8094 H   0  0  0  0  0  0  0  0  0  0  0  0
  150.5828  140.8666  157.0590 H   0  0  0  0  0  0  0  0  0  0  0  0
  148.1365  140.6603  157.1794 H   0  0  0  0  0  0  0  0  0  0  0  0
  147.9473  142.4074  157.0441 H   0  0  0  0  0  0  0  0  0  0  0  0
  148.7012  141.7005  158.4706 H   0  0  0  0  0  0  0  0  0  0  0  0
  151.5826  142.9914  156.7672 H   0  0  0  0  0  0  0  0  0  0  0  0
  150.4863  142.2083  159.1354 H   0  0  0  0  0  0  0  0  0  0  0  0
  149.8217  145.0841  158.4802 H   0  0  0  0  0  0  0  0  0  0  0  0
  148.8664  143.9188  159.3847 H   0  0  0  0  0  0  0  0  0  0  0  0
  150.7090  145.8240  160.4431 H   0  0  0  0  0  0  0  0  0  0  0  0
  149.9846  144.5121  161.3602 H   0  0  0  0  0  0  0  0  0  0  0  0
  152.7303  144.6781  160.8915 H   0  0  0  0  0  0  0  0  0  0  0  0
  151.8625  143.1942  161.2243 H   0  0  0  0  0  0  0  0  0  0  0  0
  154.0994  142.5100  159.5495 H   0  0  0  0  0  0  0  0  0  0  0  0
  153.2791  141.8590  158.1352 H   0  0  0  0  0  0  0  0  0  0  0  0
  152.7017  141.4623  159.7481 H   0  0  0  0  0  0  0  0  0  0  0  0
  153.8121  144.9111  158.6643 H   0  0  0  0  0  0  0  0  0  0  0  0
  152.2300  145.4964  158.1804 H   0  0  0  0  0  0  0  0  0  0  0  0
  153.0465  144.2646  157.2263 H   0  0  0  0  0  0  0  0  0  0  0  0
  150.1316  143.7471  156.8193 H   0  0  0  0  0  0  0  0  0  0  0  0
  1  2  1  0  0  0  0
  1 19  1  0  0  0  0
  1 20  1  0  0  0  0
  1 21  1  0  0  0  0
  2 17  1  0  0  0  0
  2  3  2  0  0  0  0
  3  4  1  0  0  0  0
  3 22  1  0  0  0  0
  4  5  1  0  0  0  0
  4 16  2  0  0  0  0
  5  6  1  0  0  0  0
  5 23  1  0  0  0  0
  5 24  1  0  0  0  0
  6  7  1  0  0  0  0
  6  8  1  0  0  0  0
  6 25  1  0  0  0  0
  7 26  1  0  0  0  0
  7 27  1  0  0  0  0
  7 28  1  0  0  0  0
  8  9  1  0  0  0  0
  8 29  1  0  0  0  0
  8 43  1  0  0  0  0
  9 13  1  0  0  0  0
  9 10  1  0  0  0  0
  9 30  1  0  0  0  0
 10 11  1  0  0  0  0
 10 31  1  0  0  0  0
 10 32  1  0  0  0  0
 11 12  1  0  0  0  0
 11 33  1  0  0  0  0
 11 34  1  0  0  0  0
 12 13  1  0  0  0  0
 12 35  1  0  0  0  0
 12 36  1  0  0  0  0
 13 14  1  0  0  0  0
 13 15  1  0  0  0  0
 14 37  1  0  0  0  0
 14 38  1  0  0  0  0
 14 39  1  0  0  0  0
 15 40  1  0  0  0  0
 15 41  1  0  0  0  0
 15 42  1  0  0  0  0
 16 17  1  0  0  0  0
 17 18  1  0  0  0  0
M  CHG  1   8   1
M  END
> <s_m_source_file>
AV-unprocessed.smi

> <i_m_source_file_index>
3202

> <i_lp_mmshare_version>
43012

> <i_f3d_flags>
0

> <s_epik_input>
W0NIM11jMVtjSF1jKG5bbkhdMSlbQ0gyXVtDQEhdKFtDSDNdKVtOSF1bQ0BASF0oQzIoW0NIM10pW0NIM10pW0NIMl1bQ0gyXVtDSDJdMg==

> <s_epik_cmdline>
J2VwaWtfcHl0aG9uJywgJy1waCcsICc3LjAnLCAnLXRuJywgJzgnLCAnLW1hJywgJzIwMCcsICctbWV0YWxfYmluZGluZycsICctaW1hZScsICc8aW5maWxlLm1hZT4nLCAnLW9tYWUnLCAnPG91dGZpbGUubWFlPic=

> <r_lp_tautomer_probability>
0.5

> <r_epik_Ionization_Penalty>
0.000341671

> <r_epik_Ionization_Penalty_Charging>
0.000281809

> <r_epik_Ionization_Penalty_Neutral>
5.9862e-05

> <r_epik_State_Penalty>
0.41068

> <r_epik_Charging_Adjusted_Penalty>
0.410962

> <i_epik_Tot_Q>
1

> <i_epik_Tot_abs_Q>
1

> <r_epik_Metal_State_Penalty>
0.410672

> <b_epik_Metal_Only>
0

> <s_lp_Force_Field>
OPLS_2005

> <r_lp_Energy>
28.8614

> <b_lp_Chiralities_Consistent>
1

> <s_lp_Variant>
AV-unprocessed.smi:3202-1

> <Gold.Version>
5.8.1

> <Gold.Id.Protein>
6NUR|6NUR_protein|mol2

> <Gold.PLP.Fitness>
44.6204

> <Gold.PLP.PLP>
-35.0803

> <Gold.PLP.part.hbond>
-4.0000

> <Gold.PLP.part.metal>
0.0000

> <Gold.PLP.part.buried>
-4.2070

> <Gold.PLP.part.nonpolar>
-28.0635

> <Gold.PLP.part.repulsive>
1.9798

> <Gold.PLP.ligand.clash>
0.0000

> <Gold.PLP.ligand.torsion>
0.8376

> <Gold.PLP.Chemscore.Hbond>
3.7360

> <Gold.PLP.Chemscore.CHOScore>
0.0000

> <Gold.PLP.Chemscore.Metal>
0.0000

> <Gold.Chemscore.Hbonds>
donor molecule, donor type, donor heavy atom, donor atom, acceptor molecule, acceptor atom, score
      L1  H     8    43       P1  8028  2.00
      L1  H    17    18       P1  7948  1.00
      P1  H  7989  7998       L1    16  0.28

> <Gold.PLP.Chemscore.Internal.Correction>
0.0072

> <Gold.Rescore>
     Score         DG    S(hbond)    S(metal)    S(lipo)     H(rot)  DE(clash)    DE(int)     intcor
     19.44     -21.61       1.94        0.00     114.25       1.46       1.32       0.85       ----

> <Gold.Chemscore.Fitness>
19.4371

> <Gold.Chemscore.DG>
-21.6067

> <Gold.Chemscore.ZeroCoef>
-5.4800

> <Gold.Chemscore.Hbond>
1.9448

> <Gold.Chemscore.Metal>
0.0000

> <Gold.Chemscore.Lipo>
114.2539

> <Gold.Chemscore.Internal_Hbond>
0.0000

> <Gold.Chemscore.DEClash>
1.3173

> <Gold.Chemscore.DEInternal>
0.8523

> <Gold.Chemscore.Rot>
1.4596

> <Gold.Chemscore.Internal.Correction>
   9.000000E+99

> <Gold.Chemscore.Hbonds>
donor molecule, donor type, donor heavy atom, donor atom, acceptor molecule, acceptor atom, score
      L1  H     8    43       P1  8028  0.98
      L1  H    17    18       P1  7948  0.94
      P1  H  7989  7998       L1    16  0.03

> <Gold.Chemscore.Hbond.Weighted>
-6.4955

> <Gold.Chemscore.Metal.Weighted>
-0.0000

> <Gold.Chemscore.Lipo.Weighted>
-13.3677

> <Gold.Chemscore.Internal_Hbond.Weighted>
0.0000

> <Gold.Chemscore.DEClash.Weighted>
1.3173

> <Gold.Chemscore.DEInternal.Weighted>
0.8523

> <Gold.Chemscore.Rot.Weighted>
3.7365

> <Gold.Chemscore.Internal.Correction.Weighted>
   9.000000E+99

> <Gold.Protein.RotatedTorsions>
[ 6907 6896 6895 6894 ] final  -34.55 input  -60.11 | X-H torsion
[ 7974 7965 7964 7962 ] final  -50.98 input  175.53 | X-H torsion
[ 8008 7997 7996 7995 ] final -101.64 input   59.86 | X-H torsion
[ 10167 10162 10161 10158 ] final  126.92 input  -65.29 | X-H torsion
[ 10718 10713 10712 10709 ] final  142.69 input   66.30 | X-H torsion
[ 10763 10752 10751 10750 ] final -161.30 input  -60.55 | X-H torsion
[ 11005 11000 10999 10996 ] final  117.29 input  -57.11 | X-H torsion

> <Gold.Protein.ActiveResidues>
 VAL166  LYS551  ARG553  GLY616  TRP617  ASP618  TYR619  PRO620  LYS621  CYS622 
 ASP623  PHE694  ASN695  SER759  ASP760  ASP761  ALA762  ILE779  LEU786  VAL792 
 PHE793  MET794  SER795  GLU796  ALA797  LYS798  CYS799  TRP800  GLU811  SER814 

> <Gold.Protein.RotatedAtoms>
  151.0512  134.9674  159.8212 H   0  0  0  0  0  0  0  0  0  0  0  0  # atno 6907 bound_to 6896
  152.5381  134.2535  159.8918 H   0  0  0  0  0  0  0  0  0  0  0  0  # atno 6908 bound_to 6896
  151.2550  133.4288  159.2647 H   0  0  0  0  0  0  0  0  0  0  0  0  # atno 6909 bound_to 6896
  145.9239  140.7809  142.9633 H   0  0  0  0  0  0  0  0  0  0  0  0  # atno 7974 bound_to 7965
  154.8455  140.0433  157.1569 H   0  0  0  0  0  0  0  0  0  0  0  0  # atno 8008 bound_to 7997
  154.9000  140.2999  155.5302 H   0  0  0  0  0  0  0  0  0  0  0  0  # atno 8009 bound_to 7997
  156.2994  140.2377  156.4027 H   0  0  0  0  0  0  0  0  0  0  0  0  # atno 8010 bound_to 7997
  139.5605  144.6878  151.4056 H   0  0  0  0  0  0  0  0  0  0  0  0  # atno 10167 bound_to 10162
  157.3776  131.0988  151.0769 H   0  0  0  0  0  0  0  0  0  0  0  0  # atno 10718 bound_to 10713
  154.7315  135.3047  154.8883 H   0  0  0  0  0  0  0  0  0  0  0  0  # atno 10763 bound_to 10752
  153.9724  135.6740  153.4751 H   0  0  0  0  0  0  0  0  0  0  0  0  # atno 10764 bound_to 10752
  153.0923  135.4953  154.8634 H   0  0  0  0  0  0  0  0  0  0  0  0  # atno 10765 bound_to 10752
  139.9069  134.9608  156.7328 H   0  0  0  0  0  0  0  0  0  0  0  0  # atno 11005 bound_to 11000
  144.6756  140.2020  143.7386 LP  0  0  0  0  0  0  0  0  0  0  0  0  # atno 17320 bound_to 7965
  145.8513  139.2177  143.1770 LP  0  0  0  0  0  0  0  0  0  0  0  0  # atno 17321 bound_to 7965
  140.6884  143.7919  150.7220 LP  0  0  0  0  0  0  0  0  0  0  0  0  # atno 17342 bound_to 10162
  140.1394  143.4455  152.2204 LP  0  0  0  0  0  0  0  0  0  0  0  0  # atno 17343 bound_to 10162
  157.1850  130.6326  149.5684 LP  0  0  0  0  0  0  0  0  0  0  0  0  # atno 17370 bound_to 10713
  155.9769  130.4741  150.6556 LP  0  0  0  0  0  0  0  0  0  0  0  0  # atno 17371 bound_to 10713
  140.6911  133.9389  155.7967 LP  0  0  0  0  0  0  0  0  0  0  0  0  # atno 17394 bound_to 11000
  141.0440  134.0580  157.3866 LP  0  0  0  0  0  0  0  0  0  0  0  0  # atno 17395 bound_to 11000

$$$$
