AV-unprocessed.smi:2198|AV-procd|sdf|8913|dock5
  -GOLD-   2272012133D 1   1.00000     0.00000
 Structure written by MMmdl.
 43 44  0  0  0  0  0  0  0  0  1 V2000
  145.5849  137.7765  153.2858 C   0  0  0  0  0  0  0  0  0  0  0  0
  146.7123  138.7108  153.6712 C   0  0  0  0  0  0  0  0  0  0  0  0
  147.9201  138.3214  153.9161 N   0  0  0  0  0  0  0  0  0  0  0  0
  148.8815  139.2821  154.2604 C   0  0  0  0  0  0  0  0  0  0  0  0
  150.2761  138.7441  154.5322 C   0  0  0  0  0  0  0  0  0  0  0  0
  148.5700  140.6091  154.3424 C   0  0  0  0  0  0  0  0  0  0  0  0
  149.5935  141.6799  154.7148 C   0  0  0  0  0  0  0  0  0  0  0  0
  150.0785  141.6410  156.1649 C   0  0  0  0  0  0  0  0  0  0  0  0
  150.3314  140.5618  156.6995 O   0  0  0  0  0  0  0  0  0  0  0  0
  150.2120  142.8237  156.7846 N   0  0  0  0  0  0  0  0  0  0  0  0
  150.6797  143.0121  158.1541 C   0  0  2  0  0  0  0  0  0  0  0  0
  151.0354  144.4904  158.4066 C   0  0  0  0  0  0  0  0  0  0  0  0
  151.6022  144.6939  159.8197 C   0  0  0  0  0  0  0  0  0  0  0  0
  152.8146  143.7836  160.0717 C   0  0  0  0  0  0  0  0  0  0  0  0
  152.4700  142.3016  159.8295 C   0  0  2  0  0  0  0  0  0  0  0  0
  153.6860  141.3964  160.0736 C   0  0  0  0  0  0  0  0  0  0  0  0
  151.8974  142.1046  158.4120 C   0  0  0  0  0  0  0  0  0  0  0  0
  147.1866  141.0418  154.0635 C   0  0  0  0  0  0  0  0  0  0  0  0
  146.7957  142.2070  154.1137 O   0  0  0  0  0  0  0  0  0  0  0  0
  146.3288  140.0491  153.7385 N   0  0  0  0  0  0  0  0  0  0  0  0
  145.3702  140.2949  153.5391 H   0  0  0  0  0  0  0  0  0  0  0  0
  145.4237  137.0378  154.0713 H   0  0  0  0  0  0  0  0  0  0  0  0
  145.8336  137.2491  152.3644 H   0  0  0  0  0  0  0  0  0  0  0  0
  144.6501  138.3163  153.1279 H   0  0  0  0  0  0  0  0  0  0  0  0
  151.0024  139.1936  153.8548 H   0  0  0  0  0  0  0  0  0  0  0  0
  150.3177  137.6631  154.3923 H   0  0  0  0  0  0  0  0  0  0  0  0
  150.5771  138.9573  155.5579 H   0  0  0  0  0  0  0  0  0  0  0  0
  150.4490  141.5930  154.0444 H   0  0  0  0  0  0  0  0  0  0  0  0
  149.1953  142.6759  154.5186 H   0  0  0  0  0  0  0  0  0  0  0  0
  149.9809  143.6577  156.2644 H   0  0  0  0  0  0  0  0  0  0  0  0
  149.8872  142.7170  158.8447 H   0  0  0  0  0  0  0  0  0  0  0  0
  151.7685  144.8257  157.6714 H   0  0  0  0  0  0  0  0  0  0  0  0
  150.1542  145.1191  158.2731 H   0  0  0  0  0  0  0  0  0  0  0  0
  151.8855  145.7375  159.9595 H   0  0  0  0  0  0  0  0  0  0  0  0
  150.8268  144.4830  160.5571 H   0  0  0  0  0  0  0  0  0  0  0  0
  153.6357  144.0836  159.4190 H   0  0  0  0  0  0  0  0  0  0  0  0
  153.1672  143.9222  161.0945 H   0  0  0  0  0  0  0  0  0  0  0  0
  151.6987  142.0148  160.5459 H   0  0  0  0  0  0  0  0  0  0  0  0
  154.5012  141.6345  159.3896 H   0  0  0  0  0  0  0  0  0  0  0  0
  153.4287  140.3462  159.9322 H   0  0  0  0  0  0  0  0  0  0  0  0
  154.0616  141.5087  161.0910 H   0  0  0  0  0  0  0  0  0  0  0  0
  151.6118  141.0609  158.2727 H   0  0  0  0  0  0  0  0  0  0  0  0
  152.6736  142.3126  157.6741 H   0  0  0  0  0  0  0  0  0  0  0  0
  1  2  1  0  0  0  0
  1 22  1  0  0  0  0
  1 23  1  0  0  0  0
  1 24  1  0  0  0  0
  2 20  1  0  0  0  0
  2  3  2  0  0  0  0
  3  4  1  0  0  0  0
  4  5  1  0  0  0  0
  4  6  2  0  0  0  0
  5 25  1  0  0  0  0
  5 26  1  0  0  0  0
  5 27  1  0  0  0  0
  6  7  1  0  0  0  0
  6 18  1  0  0  0  0
  7  8  1  0  0  0  0
  7 28  1  0  0  0  0
  7 29  1  0  0  0  0
  8  9  2  0  0  0  0
  8 10  1  0  0  0  0
 10 11  1  0  0  0  0
 10 30  1  0  0  0  0
 11 17  1  0  0  0  0
 11 12  1  0  0  0  0
 11 31  1  0  0  0  0
 12 13  1  0  0  0  0
 12 32  1  0  0  0  0
 12 33  1  0  0  0  0
 13 14  1  0  0  0  0
 13 34  1  0  0  0  0
 13 35  1  0  0  0  0
 14 15  1  0  0  0  0
 14 36  1  0  0  0  0
 14 37  1  0  0  0  0
 15 16  1  0  0  0  0
 15 17  1  0  0  0  0
 15 38  1  0  0  0  0
 16 39  1  0  0  0  0
 16 40  1  0  0  0  0
 16 41  1  0  0  0  0
 17 42  1  0  0  0  0
 17 43  1  0  0  0  0
 18 19  2  0  0  0  0
 18 20  1  0  0  0  0
 20 21  1  0  0  0  0
M  END
> <s_m_source_file>
AV-unprocessed.smi

> <i_m_source_file_index>
2198

> <i_lp_mmshare_version>
43012

> <i_f3d_flags>
0

> <s_epik_input>
W0NIM11jMW5jKFtDSDNdKWMoYyg9TylbbkhdMSlbQ0gyXUMoPU8pW05IXVtDQEBIXTJbQ0gyXVtDSDJdW0NIMl1bQ0BASF0oW0NIM10pW0NIMl0y

> <s_epik_cmdline>
J2VwaWtfcHl0aG9uJywgJy1waCcsICc3LjAnLCAnLXRuJywgJzgnLCAnLW1hJywgJzIwMCcsICctbWV0YWxfYmluZGluZycsICctaW1hZScsICc8aW5maWxlLm1hZT4nLCAnLW9tYWUnLCAnPG91dGZpbGUubWFlPic=

> <r_lp_tautomer_probability>
0.839158

> <r_epik_Ionization_Penalty>
0.000372587

> <r_epik_Ionization_Penalty_Charging>
0.000337977

> <r_epik_Ionization_Penalty_Neutral>
3.46101e-05

> <r_epik_State_Penalty>
0.09125

> <r_epik_Charging_Adjusted_Penalty>
0.091588

> <i_epik_Tot_Q>
0

> <i_epik_Tot_abs_Q>
0

> <r_epik_Metal_State_Penalty>
0.25197

> <b_epik_Metal_Only>
0

> <s_lp_Force_Field>
OPLS_2005

> <r_lp_Energy>
10.3768

> <b_lp_Chiralities_Consistent>
1

> <s_lp_Variant>
AV-unprocessed.smi:2198-3

> <Gold.Version>
5.8.1

> <Gold.Id.Protein>
6NUR|6NUR_protein|mol2

> <Gold.PLP.Fitness>
45.1643

> <Gold.PLP.PLP>
-40.2069

> <Gold.PLP.part.hbond>
-2.0000

> <Gold.PLP.part.metal>
0.0000

> <Gold.PLP.part.buried>
-4.1121

> <Gold.PLP.part.nonpolar>
-34.4186

> <Gold.PLP.part.repulsive>
0.6575

> <Gold.PLP.ligand.clash>
0.0000

> <Gold.PLP.ligand.torsion>
0.5229

> <Gold.PLP.Chemscore.Hbond>
2.0000

> <Gold.PLP.Chemscore.CHOScore>
0.0000

> <Gold.PLP.Chemscore.Metal>
0.0000

> <Gold.Chemscore.Hbonds>
donor molecule, donor type, donor heavy atom, donor atom, acceptor molecule, acceptor atom, score
      L1  H    10    30       P1  8028  1.00
      L1  H    20    21       P1 10175  1.00

> <Gold.PLP.Chemscore.Internal.Correction>
0.0033

> <Gold.Rescore>
     Score         DG    S(hbond)    S(metal)    S(lipo)     H(rot)  DE(clash)    DE(int)     intcor
     17.84     -20.57       1.89        0.00     107.39       1.48       0.37       2.35       ----

> <Gold.Chemscore.Fitness>
17.8398

> <Gold.Chemscore.DG>
-20.5654

> <Gold.Chemscore.ZeroCoef>
-5.4800

> <Gold.Chemscore.Hbond>
1.8893

> <Gold.Chemscore.Metal>
0.0000

> <Gold.Chemscore.Lipo>
107.3861

> <Gold.Chemscore.Internal_Hbond>
0.0000

> <Gold.Chemscore.DEClash>
0.3708

> <Gold.Chemscore.DEInternal>
2.3547

> <Gold.Chemscore.Rot>
1.4801

> <Gold.Chemscore.Internal.Correction>
   9.000000E+99

> <Gold.Chemscore.Hbonds>
donor molecule, donor type, donor heavy atom, donor atom, acceptor molecule, acceptor atom, score
      L1  H    10    30       P1  8028  0.96
      L1  H    20    21       P1 10175  0.95

> <Gold.Chemscore.Hbond.Weighted>
-6.3103

> <Gold.Chemscore.Metal.Weighted>
-0.0000

> <Gold.Chemscore.Lipo.Weighted>
-12.5642

> <Gold.Chemscore.Internal_Hbond.Weighted>
0.0000

> <Gold.Chemscore.DEClash.Weighted>
0.3708

> <Gold.Chemscore.DEInternal.Weighted>
2.3547

> <Gold.Chemscore.Rot.Weighted>
3.7891

> <Gold.Chemscore.Internal.Correction.Weighted>
   9.000000E+99

> <Gold.Protein.RotatedTorsions>
[ 6907 6896 6895 6894 ] final  -30.84 input  -60.11 | X-H torsion
[ 7974 7965 7964 7962 ] final -101.25 input  175.53 | X-H torsion
[ 8008 7997 7996 7995 ] final -168.53 input   59.86 | X-H torsion
[ 10167 10162 10161 10158 ] final  150.45 input  -65.29 | X-H torsion
[ 10718 10713 10712 10709 ] final   -1.43 input   66.30 | X-H torsion
[ 10763 10752 10751 10750 ] final   -9.14 input  -60.55 | X-H torsion
[ 11005 11000 10999 10996 ] final -102.96 input  -57.11 | X-H torsion

> <Gold.Protein.ActiveResidues>
 VAL166  LYS551  ARG553  GLY616  TRP617  ASP618  TYR619  PRO620  LYS621  CYS622 
 ASP623  PHE694  ASN695  SER759  ASP760  ASP761  ALA762  ILE779  LEU786  VAL792 
 PHE793  MET794  SER795  GLU796  ALA797  LYS798  CYS799  TRP800  GLU811  SER814 

> <Gold.Protein.RotatedAtoms>
  151.1002  134.9967  159.8444 H   0  0  0  0  0  0  0  0  0  0  0  0  # atno 6907 bound_to 6896
  152.5436  134.1960  159.8703 H   0  0  0  0  0  0  0  0  0  0  0  0  # atno 6908 bound_to 6896
  151.2002  133.4571  159.2629 H   0  0  0  0  0  0  0  0  0  0  0  0  # atno 6909 bound_to 6896
  145.2841  140.9334  143.2915 H   0  0  0  0  0  0  0  0  0  0  0  0  # atno 7974 bound_to 7965
  155.8927  140.1027  157.1407 H   0  0  0  0  0  0  0  0  0  0  0  0  # atno 8008 bound_to 7997
  154.4017  140.1307  156.4400 H   0  0  0  0  0  0  0  0  0  0  0  0  # atno 8009 bound_to 7997
  155.7515  140.3465  155.5155 H   0  0  0  0  0  0  0  0  0  0  0  0  # atno 8010 bound_to 7997
  139.4850  144.5521  151.7382 H   0  0  0  0  0  0  0  0  0  0  0  0  # atno 10167 bound_to 10162
  156.8058  130.5408  149.5715 H   0  0  0  0  0  0  0  0  0  0  0  0  # atno 10718 bound_to 10713
  153.4505  135.7015  153.6112 H   0  0  0  0  0  0  0  0  0  0  0  0  # atno 10763 bound_to 10752
  153.4449  135.3771  155.2250 H   0  0  0  0  0  0  0  0  0  0  0  0  # atno 10764 bound_to 10752
  154.8728  135.3983  154.3916 H   0  0  0  0  0  0  0  0  0  0  0  0  # atno 10765 bound_to 10752
  141.1167  133.8600  157.1425 H   0  0  0  0  0  0  0  0  0  0  0  0  # atno 11005 bound_to 11000
  144.9228  139.4391  143.6533 LP  0  0  0  0  0  0  0  0  0  0  0  0  # atno 17320 bound_to 7965
  146.3207  139.8098  142.8948 LP  0  0  0  0  0  0  0  0  0  0  0  0  # atno 17321 bound_to 7965
  140.5077  144.1073  150.5987 LP  0  0  0  0  0  0  0  0  0  0  0  0  # atno 17342 bound_to 10162
  140.3988  143.2714  151.9973 LP  0  0  0  0  0  0  0  0  0  0  0  0  # atno 17343 bound_to 10162
  156.1074  130.6015  150.9993 LP  0  0  0  0  0  0  0  0  0  0  0  0  # atno 17370 bound_to 10713
  157.6531  131.0894  150.8007 LP  0  0  0  0  0  0  0  0  0  0  0  0  # atno 17371 bound_to 10713
  140.0094  134.9994  157.0362 LP  0  0  0  0  0  0  0  0  0  0  0  0  # atno 17394 bound_to 11000
  140.4626  134.1468  155.7193 LP  0  0  0  0  0  0  0  0  0  0  0  0  # atno 17395 bound_to 11000

$$$$
