AV-unprocessed.smi:2992|AV-procd|sdf|11401|dock6
  -GOLD-   2272016323D 1   1.00000     0.00000
 Structure written by MMmdl.
 46 47  0  0  0  0  0  0  0  0  1 V2000
  152.8513  144.6710  157.9375 C   0  0  0  0  0  0  0  0  0  0  0  0
  151.8737  144.4250  159.1066 C   0  0  0  0  0  0  0  0  0  0  0  0
  152.4905  143.3632  160.0376 C   0  0  0  0  0  0  0  0  0  0  0  0
  151.7008  145.7346  159.9064 C   0  0  0  0  0  0  0  0  0  0  0  0
  150.5014  143.8881  158.6070 C   0  0  0  0  0  0  0  0  0  0  0  0
  150.5300  142.4915  157.9723 C   0  0  0  0  0  0  0  0  0  0  0  0
  150.6915  141.4942  158.6753 O   0  0  0  0  0  0  0  0  0  0  0  0
  150.3625  142.4390  156.6419 N   0  0  0  0  0  0  0  0  0  0  0  0
  150.4273  141.2325  155.8251 C   0  0  0  0  0  0  0  0  0  0  0  0
  149.1624  141.0162  155.0124 C   0  0  0  0  0  0  0  0  0  0  0  0
  149.0165  139.8823  154.1883 C   0  0  0  0  0  0  0  0  0  0  0  0
  147.8307  139.7450  153.4442 C   0  0  0  0  0  0  0  0  0  0  0  0
  146.8247  140.6432  153.4836 N   0  0  0  0  0  0  0  0  0  0  0  0
  146.9491  141.7346  154.2793 C   0  0  0  0  0  0  0  0  0  0  0  0
  145.8866  142.6642  154.3110 N   0  0  0  0  0  0  0  0  0  0  0  0
  146.0649  143.8603  153.4911 C   0  0  0  0  0  0  0  0  0  0  0  0
  144.7365  144.6266  153.3651 C   0  0  0  0  0  0  0  0  0  0  0  0
  144.2202  144.9152  154.6600 O   0  0  0  0  0  0  0  0  0  0  0  0
  143.9482  143.7281  155.3969 C   0  0  0  0  0  0  0  0  0  0  0  0
  145.2504  142.9353  155.5990 C   0  0  0  0  0  0  0  0  0  0  0  0
  148.1114  141.9555  155.0571 C   0  0  0  0  0  0  0  0  0  0  0  0
  153.8431  144.9407  158.3019 H   0  0  0  0  0  0  0  0  0  0  0  0
  152.5205  145.4847  157.2918 H   0  0  0  0  0  0  0  0  0  0  0  0
  152.9613  143.7800  157.3183 H   0  0  0  0  0  0  0  0  0  0  0  0
  152.6491  142.4197  159.5139 H   0  0  0  0  0  0  0  0  0  0  0  0
  151.8444  143.1588  160.8922 H   0  0  0  0  0  0  0  0  0  0  0  0
  153.4563  143.6861  160.4283 H   0  0  0  0  0  0  0  0  0  0  0  0
  152.6490  146.0662  160.3310 H   0  0  0  0  0  0  0  0  0  0  0  0
  150.9998  145.6059  160.7318 H   0  0  0  0  0  0  0  0  0  0  0  0
  151.3287  146.5481  159.2828 H   0  0  0  0  0  0  0  0  0  0  0  0
  149.7972  143.8563  159.4395 H   0  0  0  0  0  0  0  0  0  0  0  0
  150.0725  144.5893  157.8890 H   0  0  0  0  0  0  0  0  0  0  0  0
  150.2267  143.3101  156.1499 H   0  0  0  0  0  0  0  0  0  0  0  0
  151.2859  141.2565  155.1521 H   0  0  0  0  0  0  0  0  0  0  0  0
  150.5874  140.3834  156.4901 H   0  0  0  0  0  0  0  0  0  0  0  0
  149.7938  139.1356  154.1212 H   0  0  0  0  0  0  0  0  0  0  0  0
  147.6864  138.8913  152.7988 H   0  0  0  0  0  0  0  0  0  0  0  0
  146.8192  144.4959  153.9567 H   0  0  0  0  0  0  0  0  0  0  0  0
  146.4280  143.6174  152.4937 H   0  0  0  0  0  0  0  0  0  0  0  0
  144.8932  145.5629  152.8295 H   0  0  0  0  0  0  0  0  0  0  0  0
  144.0085  144.0503  152.7916 H   0  0  0  0  0  0  0  0  0  0  0  0
  143.5199  143.9987  156.3620 H   0  0  0  0  0  0  0  0  0  0  0  0
  143.2026  143.1257  154.8753 H   0  0  0  0  0  0  0  0  0  0  0  0
  145.0275  142.0008  156.1154 H   0  0  0  0  0  0  0  0  0  0  0  0
  145.9375  143.5017  156.2289 H   0  0  0  0  0  0  0  0  0  0  0  0
  148.2115  142.8402  155.6679 H   0  0  0  0  0  0  0  0  0  0  0  0
  1  2  1  0  0  0  0
  1 22  1  0  0  0  0
  1 23  1  0  0  0  0
  1 24  1  0  0  0  0
  2  3  1  0  0  0  0
  2  4  1  0  0  0  0
  2  5  1  0  0  0  0
  3 25  1  0  0  0  0
  3 26  1  0  0  0  0
  3 27  1  0  0  0  0
  4 28  1  0  0  0  0
  4 29  1  0  0  0  0
  4 30  1  0  0  0  0
  5  6  1  0  0  0  0
  5 31  1  0  0  0  0
  5 32  1  0  0  0  0
  6  7  2  0  0  0  0
  6  8  1  0  0  0  0
  8  9  1  0  0  0  0
  8 33  1  0  0  0  0
  9 10  1  0  0  0  0
  9 34  1  0  0  0  0
  9 35  1  0  0  0  0
 10 21  1  0  0  0  0
 10 11  2  0  0  0  0
 11 12  1  0  0  0  0
 11 36  1  0  0  0  0
 12 13  2  0  0  0  0
 12 37  1  0  0  0  0
 13 14  1  0  0  0  0
 14 15  1  0  0  0  0
 14 21  2  0  0  0  0
 15 20  1  0  0  0  0
 15 16  1  0  0  0  0
 16 17  1  0  0  0  0
 16 38  1  0  0  0  0
 16 39  1  0  0  0  0
 17 18  1  0  0  0  0
 17 40  1  0  0  0  0
 17 41  1  0  0  0  0
 18 19  1  0  0  0  0
 19 20  1  0  0  0  0
 19 42  1  0  0  0  0
 19 43  1  0  0  0  0
 20 44  1  0  0  0  0
 20 45  1  0  0  0  0
 21 46  1  0  0  0  0
M  END
> <s_m_source_file>
AV-unprocessed.smi

> <i_m_source_file_index>
2992

> <i_lp_mmshare_version>
43012

> <i_f3d_flags>
0

> <s_epik_input>
W0NIM11DKFtDSDNdKShbQ0gzXSlbQ0gyXUMoPU8pW05IXVtDSDJdYzFbY0hdW2NIXW5jKFtjSF0xKU4yW0NIMl1bQ0gyXU9bQ0gyXVtDSDJdMg==

> <s_epik_cmdline>
J2VwaWtfcHl0aG9uJywgJy1waCcsICc3LjAnLCAnLXRuJywgJzgnLCAnLW1hJywgJzIwMCcsICctbWV0YWxfYmluZGluZycsICctaW1hZScsICc8aW5maWxlLm1hZT4nLCAnLW9tYWUnLCAnPG91dGZpbGUubWFlPic=

> <r_lp_tautomer_probability>
1

> <r_epik_Ionization_Penalty>
0.00548609

> <r_epik_Ionization_Penalty_Charging>
0

> <r_epik_Ionization_Penalty_Neutral>
0.00548609

> <r_epik_State_Penalty>
0.00401348

> <r_epik_Charging_Adjusted_Penalty>
0.00401348

> <i_epik_Tot_Q>
0

> <i_epik_Tot_abs_Q>
0

> <r_epik_Metal_State_Penalty>
-0

> <b_epik_Metal_Only>
0

> <s_lp_Force_Field>
OPLS_2005

> <r_lp_Energy>
16.2272

> <b_lp_Chiralities_Consistent>
1

> <s_lp_Variant>
AV-unprocessed.smi:2992-1

> <Gold.Version>
5.8.1

> <Gold.Id.Protein>
6NUR|6NUR_protein|mol2

> <Gold.PLP.Fitness>
46.5002

> <Gold.PLP.PLP>
-43.6687

> <Gold.PLP.part.hbond>
-1.0000

> <Gold.PLP.part.metal>
0.0000

> <Gold.PLP.part.buried>
-0.4414

> <Gold.PLP.part.nonpolar>
-42.4642

> <Gold.PLP.part.repulsive>
0.5202

> <Gold.PLP.ligand.clash>
0.0000

> <Gold.PLP.ligand.torsion>
0.4673

> <Gold.PLP.Chemscore.Hbond>
1.0000

> <Gold.PLP.Chemscore.CHOScore>
0.1328

> <Gold.PLP.Chemscore.Metal>
0.0000

> <Gold.Chemscore.Hbonds>
donor molecule, donor type, donor heavy atom, donor atom, acceptor molecule, acceptor atom, score
      L1  H     8    33       P1  8028  0.91
      L1  C    12    37       P1  7957  0.06

> <Gold.PLP.Chemscore.Internal.Correction>
0.3678

> <Gold.Rescore>
     Score         DG    S(hbond)    S(metal)    S(lipo)     H(rot)  DE(clash)    DE(int)     intcor
     15.89     -17.79       0.98        0.00     112.54       1.62       0.37       1.54       ----

> <Gold.Chemscore.Fitness>
15.8911

> <Gold.Chemscore.DG>
-17.7921

> <Gold.Chemscore.ZeroCoef>
-5.4800

> <Gold.Chemscore.Hbond>
0.9831

> <Gold.Chemscore.Metal>
0.0000

> <Gold.Chemscore.Lipo>
112.5351

> <Gold.Chemscore.Internal_Hbond>
0.0000

> <Gold.Chemscore.DEClash>
0.3657

> <Gold.Chemscore.DEInternal>
1.5353

> <Gold.Chemscore.Rot>
1.6164

> <Gold.Chemscore.Internal.Correction>
   9.000000E+99

> <Gold.Chemscore.Hbonds>
donor molecule, donor type, donor heavy atom, donor atom, acceptor molecule, acceptor atom, score
      L1  H     8    33       P1  8028  0.85

> <Gold.Chemscore.Hbond.Weighted>
-3.2836

> <Gold.Chemscore.Metal.Weighted>
-0.0000

> <Gold.Chemscore.Lipo.Weighted>
-13.1666

> <Gold.Chemscore.Internal_Hbond.Weighted>
0.0000

> <Gold.Chemscore.DEClash.Weighted>
0.3657

> <Gold.Chemscore.DEInternal.Weighted>
1.5353

> <Gold.Chemscore.Rot.Weighted>
4.1381

> <Gold.Chemscore.Internal.Correction.Weighted>
   9.000000E+99

> <Gold.Protein.RotatedTorsions>
[ 6907 6896 6895 6894 ] final   17.18 input  -60.11 | X-H torsion
[ 7974 7965 7964 7962 ] final -159.40 input  175.53 | X-H torsion
[ 8008 7997 7996 7995 ] final -168.25 input   59.86 | X-H torsion
[ 10167 10162 10161 10158 ] final  161.90 input  -65.29 | X-H torsion
[ 10718 10713 10712 10709 ] final   34.37 input   66.30 | X-H torsion
[ 10763 10752 10751 10750 ] final  -92.05 input  -60.55 | X-H torsion
[ 11005 11000 10999 10996 ] final   70.90 input  -57.11 | X-H torsion

> <Gold.Protein.ActiveResidues>
 VAL166  LYS551  ARG553  GLY616  TRP617  ASP618  TYR619  PRO620  LYS621  CYS622 
 ASP623  PHE694  ASN695  SER759  ASP760  ASP761  ALA762  ILE779  LEU786  VAL792 
 PHE793  MET794  SER795  GLU796  ALA797  LYS798  CYS799  TRP800  GLU811  SER814 

> <Gold.Protein.RotatedAtoms>
  151.8456  135.0575  160.0452 H   0  0  0  0  0  0  0  0  0  0  0  0  # atno 6907 bound_to 6896
  152.2776  133.5435  159.5486 H   0  0  0  0  0  0  0  0  0  0  0  0  # atno 6908 bound_to 6896
  150.7176  134.0526  159.3846 H   0  0  0  0  0  0  0  0  0  0  0  0  # atno 6909 bound_to 6896
  144.7467  140.3690  143.6080 H   0  0  0  0  0  0  0  0  0  0  0  0  # atno 7974 bound_to 7965
  155.8888  140.1021  157.1433 H   0  0  0  0  0  0  0  0  0  0  0  0  # atno 8008 bound_to 7997
  154.4013  140.1315  156.4353 H   0  0  0  0  0  0  0  0  0  0  0  0  # atno 8009 bound_to 7997
  155.7557  140.3464  155.5175 H   0  0  0  0  0  0  0  0  0  0  0  0  # atno 8010 bound_to 7997
  139.4854  144.4491  151.8853 H   0  0  0  0  0  0  0  0  0  0  0  0  # atno 10167 bound_to 10162
  157.3095  130.7392  149.6716 H   0  0  0  0  0  0  0  0  0  0  0  0  # atno 10718 bound_to 10713
  154.6822  135.5245  153.8278 H   0  0  0  0  0  0  0  0  0  0  0  0  # atno 10763 bound_to 10752
  153.0572  135.6555  154.0558 H   0  0  0  0  0  0  0  0  0  0  0  0  # atno 10764 bound_to 10752
  154.0443  135.2974  155.3330 H   0  0  0  0  0  0  0  0  0  0  0  0  # atno 10765 bound_to 10752
  139.9573  134.7122  156.0725 H   0  0  0  0  0  0  0  0  0  0  0  0  # atno 11005 bound_to 11000
  145.7098  139.1682  143.2545 LP  0  0  0  0  0  0  0  0  0  0  0  0  # atno 17320 bound_to 7965
  146.1355  140.7128  142.9391 LP  0  0  0  0  0  0  0  0  0  0  0  0  # atno 17321 bound_to 7965
  140.3947  144.2570  150.5897 LP  0  0  0  0  0  0  0  0  0  0  0  0  # atno 17342 bound_to 10162
  140.5113  143.2290  151.8530 LP  0  0  0  0  0  0  0  0  0  0  0  0  # atno 17343 bound_to 10162
  155.9677  130.4256  150.4660 LP  0  0  0  0  0  0  0  0  0  0  0  0  # atno 17370 bound_to 10713
  157.2655  131.0576  151.2293 LP  0  0  0  0  0  0  0  0  0  0  0  0  # atno 17371 bound_to 10713
  141.1246  133.6603  156.3302 LP  0  0  0  0  0  0  0  0  0  0  0  0  # atno 17394 bound_to 11000
  140.5581  134.5961  157.5426 LP  0  0  0  0  0  0  0  0  0  0  0  0  # atno 17395 bound_to 11000

$$$$
