AV-unprocessed.smi:3222|AV-procd|sdf|12303|dock2
  -GOLD-   2272018143D 1   1.00000     0.00000
 Structure written by MMmdl.
 41 42  0  0  0  0  0  0  0  0  2 V2000
  143.5687  137.8058  154.6060 C   0  0  0  0  0  0  0  0  0  0  0  0
  144.0781  136.9655  153.4188 C   0  0  2  0  0  0  0  0  0  0  0  0
  144.7513  137.8430  152.4315 N   0  3  0  0  0  0  0  0  0  0  0  0
  146.2115  137.9879  152.6006 C   0  0  0  0  0  0  0  0  0  0  0  0
  146.6721  139.3894  152.1707 C   0  0  0  0  0  0  0  0  0  0  0  0
  147.5703  139.9874  153.1546 N   0  0  0  0  0  0  0  0  0  0  0  0
  148.7924  139.3103  153.5543 C   0  0  0  0  0  0  0  0  0  0  0  0
  149.3593  140.1548  154.7049 C   0  0  0  0  0  0  0  0  0  0  0  0
  148.5790  141.4739  154.6810 C   0  0  0  0  0  0  0  0  0  0  0  0
  147.4259  141.1843  153.7353 C   0  0  0  0  0  0  0  0  0  0  0  0
  146.4981  141.9707  153.5509 O   0  0  0  0  0  0  0  0  0  0  0  0
  142.9422  136.1692  152.7236 C   0  0  2  0  0  0  0  0  0  0  0  0
  141.9231  135.5614  153.7062 C   0  0  0  0  0  0  0  0  0  0  0  0
  143.4920  135.1197  151.8713 N   0  0  0  0  0  0  0  0  0  0  0  0
  143.3165  133.7522  151.9555 C   0  0  0  0  0  0  0  0  0  0  0  0
  144.0595  133.1825  150.9618 C   0  0  0  0  0  0  0  0  0  0  0  0
  144.6715  134.2935  150.3181 C   0  0  0  0  0  0  0  0  0  0  0  0
  144.3389  135.4487  150.8709 N   0  0  0  0  0  0  0  0  0  0  0  0
  143.1498  137.1784  155.3923 H   0  0  0  0  0  0  0  0  0  0  0  0
  142.7956  138.5078  154.2919 H   0  0  0  0  0  0  0  0  0  0  0  0
  144.3698  138.3822  155.0678 H   0  0  0  0  0  0  0  0  0  0  0  0
  144.8109  136.2477  153.7914 H   0  0  0  0  0  0  0  0  0  0  0  0
  144.5965  137.4392  151.5182 H   0  0  0  0  0  0  0  0  0  0  0  0
  146.4789  137.8076  153.6416 H   0  0  0  0  0  0  0  0  0  0  0  0
  146.7210  137.2328  152.0003 H   0  0  0  0  0  0  0  0  0  0  0  0
  147.1785  139.3349  151.2059 H   0  0  0  0  0  0  0  0  0  0  0  0
  145.8098  140.0434  152.0296 H   0  0  0  0  0  0  0  0  0  0  0  0
  148.5939  138.2843  153.8666 H   0  0  0  0  0  0  0  0  0  0  0  0
  149.4836  139.2840  152.7108 H   0  0  0  0  0  0  0  0  0  0  0  0
  149.1998  139.6467  155.6568 H   0  0  0  0  0  0  0  0  0  0  0  0
  150.4325  140.3149  154.5956 H   0  0  0  0  0  0  0  0  0  0  0  0
  148.2209  141.7582  155.6709 H   0  0  0  0  0  0  0  0  0  0  0  0
  149.1836  142.2878  154.2794 H   0  0  0  0  0  0  0  0  0  0  0  0
  142.3908  136.8576  152.0800 H   0  0  0  0  0  0  0  0  0  0  0  0
  141.3572  136.3325  154.2282 H   0  0  0  0  0  0  0  0  0  0  0  0
  142.4101  134.9389  154.4574 H   0  0  0  0  0  0  0  0  0  0  0  0
  141.1973  134.9401  153.1798 H   0  0  0  0  0  0  0  0  0  0  0  0
  142.6842  133.3012  152.7062 H   0  0  0  0  0  0  0  0  0  0  0  0
  144.1529  132.1318  150.7305 H   0  0  0  0  0  0  0  0  0  0  0  0
  145.3465  134.2946  149.4750 H   0  0  0  0  0  0  0  0  0  0  0  0
  144.3170  138.7548  152.4515 H   0  0  0  0  0  0  0  0  0  0  0  0
  1  2  1  0  0  0  0
  1 19  1  0  0  0  0
  1 20  1  0  0  0  0
  1 21  1  0  0  0  0
  2  3  1  0  0  0  0
  2 12  1  0  0  0  0
  2 22  1  0  0  0  0
  3  4  1  0  0  0  0
  3 23  1  0  0  0  0
  3 41  1  0  0  0  0
  4  5  1  0  0  0  0
  4 24  1  0  0  0  0
  4 25  1  0  0  0  0
  5  6  1  0  0  0  0
  5 26  1  0  0  0  0
  5 27  1  0  0  0  0
  6 10  1  0  0  0  0
  6  7  1  0  0  0  0
  7  8  1  0  0  0  0
  7 28  1  0  0  0  0
  7 29  1  0  0  0  0
  8  9  1  0  0  0  0
  8 30  1  0  0  0  0
  8 31  1  0  0  0  0
  9 10  1  0  0  0  0
  9 32  1  0  0  0  0
  9 33  1  0  0  0  0
 10 11  2  0  0  0  0
 12 13  1  0  0  0  0
 12 14  1  0  0  0  0
 12 34  1  0  0  0  0
 13 35  1  0  0  0  0
 13 36  1  0  0  0  0
 13 37  1  0  0  0  0
 14 18  1  0  0  0  0
 14 15  1  0  0  0  0
 15 16  2  0  0  0  0
 15 38  1  0  0  0  0
 16 17  1  0  0  0  0
 16 39  1  0  0  0  0
 17 18  2  0  0  0  0
 17 40  1  0  0  0  0
M  CHG  1   3   1
M  END
> <s_m_source_file>
AV-unprocessed.smi

> <i_m_source_file_index>
3222

> <i_lp_mmshare_version>
43012

> <i_f3d_flags>
0

> <s_epik_input>
bjFbY0hdW2NIXVtjSF1uMVtDQEBIXShbQ0gzXSlbQ0BIXShbQ0gzXSlbTkhdW0NIMl1bQ0gyXU4yW0NIMl1bQ0gyXVtDSDJdQzI9Tw==

> <s_epik_cmdline>
J2VwaWtfcHl0aG9uJywgJy1waCcsICc3LjAnLCAnLXRuJywgJzgnLCAnLW1hJywgJzIwMCcsICctbWV0YWxfYmluZGluZycsICctaW1hZScsICc8aW5maWxlLm1hZT4nLCAnLW9tYWUnLCAnPG91dGZpbGUubWFlPic=

> <r_lp_tautomer_probability>
1

> <r_epik_Ionization_Penalty>
0.0064019

> <r_epik_Ionization_Penalty_Charging>
0.00639164

> <r_epik_Ionization_Penalty_Neutral>
1.02567e-05

> <r_epik_State_Penalty>
0.00472531

> <r_epik_Charging_Adjusted_Penalty>
0.011117

> <i_epik_Tot_Q>
1

> <i_epik_Tot_abs_Q>
1

> <r_epik_Metal_State_Penalty>
-0

> <b_epik_Metal_Only>
0

> <s_lp_Force_Field>
OPLS_2005

> <r_lp_Energy>
24.5342

> <b_lp_Chiralities_Consistent>
1

> <s_lp_Variant>
AV-unprocessed.smi:3222-1

> <Gold.Version>
5.8.1

> <Gold.Id.Protein>
6NUR|6NUR_protein|mol2

> <Gold.PLP.Fitness>
41.2984

> <Gold.PLP.PLP>
-30.9512

> <Gold.PLP.part.hbond>
-2.0000

> <Gold.PLP.part.metal>
0.0000

> <Gold.PLP.part.buried>
3.2092

> <Gold.PLP.part.nonpolar>
-32.3600

> <Gold.PLP.part.repulsive>
0.4530

> <Gold.PLP.ligand.clash>
0.0000

> <Gold.PLP.ligand.torsion>
1.3489

> <Gold.PLP.Chemscore.Hbond>
2.2621

> <Gold.PLP.Chemscore.CHOScore>
1.9989

> <Gold.PLP.Chemscore.Metal>
0.0000

> <Gold.Chemscore.Hbonds>
donor molecule, donor type, donor heavy atom, donor atom, acceptor molecule, acceptor atom, score
      L1  H     3    23       P1 10171  0.29
      L1  H     3    41       P1 10175  2.00
      L1  C    15    38       P1 10957  0.91
      L1  C    17    40       P1  7921  1.00

> <Gold.PLP.Chemscore.Internal.Correction>
0.2622

> <Gold.Rescore>
     Score         DG    S(hbond)    S(metal)    S(lipo)     H(rot)  DE(clash)    DE(int)     intcor
      9.41     -12.52       1.33        0.00      65.80       1.99       0.47       2.63       ----

> <Gold.Chemscore.Fitness>
9.4130

> <Gold.Chemscore.DG>
-12.5205

> <Gold.Chemscore.ZeroCoef>
-5.4800

> <Gold.Chemscore.Hbond>
1.3301

> <Gold.Chemscore.Metal>
0.0000

> <Gold.Chemscore.Lipo>
65.7959

> <Gold.Chemscore.Internal_Hbond>
0.0000

> <Gold.Chemscore.DEClash>
0.4734

> <Gold.Chemscore.DEInternal>
2.6341

> <Gold.Chemscore.Rot>
1.9922

> <Gold.Chemscore.Internal.Correction>
   9.000000E+99

> <Gold.Chemscore.Hbonds>
donor molecule, donor type, donor heavy atom, donor atom, acceptor molecule, acceptor atom, score
      L1  H     3    23       P1 10171  0.29
      L1  H     3    41       P1 10175  1.00

> <Gold.Chemscore.Hbond.Weighted>
-4.4425

> <Gold.Chemscore.Metal.Weighted>
-0.0000

> <Gold.Chemscore.Lipo.Weighted>
-7.6981

> <Gold.Chemscore.Internal_Hbond.Weighted>
0.0000

> <Gold.Chemscore.DEClash.Weighted>
0.4734

> <Gold.Chemscore.DEInternal.Weighted>
2.6341

> <Gold.Chemscore.Rot.Weighted>
5.1002

> <Gold.Chemscore.Internal.Correction.Weighted>
   9.000000E+99

> <Gold.Protein.RotatedTorsions>
[ 6907 6896 6895 6894 ] final   -3.91 input  -60.11 | X-H torsion
[ 7974 7965 7964 7962 ] final   96.30 input  175.53 | X-H torsion
[ 8008 7997 7996 7995 ] final -151.81 input   59.86 | X-H torsion
[ 10167 10162 10161 10158 ] final  -41.75 input  -65.29 | X-H torsion
[ 10718 10713 10712 10709 ] final  174.48 input   66.30 | X-H torsion
[ 10763 10752 10751 10750 ] final -109.83 input  -60.55 | X-H torsion
[ 11005 11000 10999 10996 ] final   12.16 input  -57.11 | X-H torsion

> <Gold.Protein.ActiveResidues>
 VAL166  LYS551  ARG553  GLY616  TRP617  ASP618  TYR619  PRO620  LYS621  CYS622 
 ASP623  PHE694  ASN695  SER759  ASP760  ASP761  ALA762  ILE779  LEU786  VAL792 
 PHE793  MET794  SER795  GLU796  ALA797  LYS798  CYS799  TRP800  GLU811  SER814 

> <Gold.Protein.RotatedAtoms>
  151.5061  135.1063  159.9841 H   0  0  0  0  0  0  0  0  0  0  0  0  # atno 6907 bound_to 6896
  152.4681  133.7964  159.6940 H   0  0  0  0  0  0  0  0  0  0  0  0  # atno 6908 bound_to 6896
  150.8675  133.7489  159.2997 H   0  0  0  0  0  0  0  0  0  0  0  0  # atno 6909 bound_to 6896
  145.4406  139.2301  143.3094 H   0  0  0  0  0  0  0  0  0  0  0  0  # atno 7974 bound_to 7965
  155.6452  140.0706  157.2605 H   0  0  0  0  0  0  0  0  0  0  0  0  # atno 8008 bound_to 7997
  154.4174  140.1743  156.1665 H   0  0  0  0  0  0  0  0  0  0  0  0  # atno 8009 bound_to 7997
  155.9822  140.3352  155.6677 H   0  0  0  0  0  0  0  0  0  0  0  0  # atno 8010 bound_to 7997
  140.6992  143.3076  151.3111 H   0  0  0  0  0  0  0  0  0  0  0  0  # atno 10167 bound_to 10162
  156.9489  131.0025  151.2953 H   0  0  0  0  0  0  0  0  0  0  0  0  # atno 10718 bound_to 10713
  154.8215  135.4586  154.0792 H   0  0  0  0  0  0  0  0  0  0  0  0  # atno 10763 bound_to 10752
  153.2142  135.6886  153.8084 H   0  0  0  0  0  0  0  0  0  0  0  0  # atno 10764 bound_to 10752
  153.7524  135.3296  155.3300 H   0  0  0  0  0  0  0  0  0  0  0  0  # atno 10765 bound_to 10752
  140.4951  134.0801  155.7780 H   0  0  0  0  0  0  0  0  0  0  0  0  # atno 11005 bound_to 11000
  146.2558  140.5154  142.8874 LP  0  0  0  0  0  0  0  0  0  0  0  0  # atno 17320 bound_to 7965
  144.8124  140.6408  143.6407 LP  0  0  0  0  0  0  0  0  0  0  0  0  # atno 17321 bound_to 7965
  139.6488  144.0401  152.2611 LP  0  0  0  0  0  0  0  0  0  0  0  0  # atno 17342 bound_to 10162
  139.9931  144.6347  150.7797 LP  0  0  0  0  0  0  0  0  0  0  0  0  # atno 17343 bound_to 10162
  157.5735  130.8327  149.8424 LP  0  0  0  0  0  0  0  0  0  0  0  0  # atno 17370 bound_to 10713
  156.0371  130.3748  150.1531 LP  0  0  0  0  0  0  0  0  0  0  0  0  # atno 17371 bound_to 10713
  141.1464  133.9047  157.2205 LP  0  0  0  0  0  0  0  0  0  0  0  0  # atno 17394 bound_to 11000
  139.9746  135.0118  156.9598 LP  0  0  0  0  0  0  0  0  0  0  0  0  # atno 17395 bound_to 11000

$$$$
