AV-unprocessed.smi:2756|AV-procd|sdf|10618|dock9
  -GOLD-   2272015 63D 1   1.00000     0.00000
 Structure written by MMmdl.
 19 19  0  0  0  0  0  0  0  0  3 V2000
  149.9045  142.3367  156.1853 N   0  0  0  0  0  0  0  0  0  0  0  0
  150.8799  142.6516  157.1316 C   0  0  0  0  0  0  0  0  0  0  0  0
  151.1477  143.9610  157.3342 N   0  3  0  0  0  0  0  0  0  0  0  0
  152.0612  144.3987  158.2275 C   0  0  0  0  0  0  0  0  0  0  0  0
  152.7862  143.4702  158.9993 C   0  0  0  0  0  0  0  0  0  0  0  0
  152.5429  142.0934  158.8207 C   0  0  0  0  0  0  0  0  0  0  0  0
  151.5812  141.6695  157.8758 C   0  0  0  0  0  0  0  0  0  0  0  0
  151.3234  140.1809  157.6844 C   0  0  0  0  0  0  0  0  0  0  0  0
  152.1017  139.7203  156.4519 C   0  0  0  0  0  0  0  0  0  0  0  0
  153.1500  139.0691  156.6541 O   0  0  0  0  0  0  0  0  0  0  0  0
  151.6421  140.0394  155.3339 O   0  5  0  0  0  0  0  0  0  0  0  0
  149.6623  141.3737  155.9969 H   0  0  0  0  0  0  0  0  0  0  0  0
  149.2826  143.0416  155.8172 H   0  0  0  0  0  0  0  0  0  0  0  0
  152.1810  145.4698  158.2992 H   0  0  0  0  0  0  0  0  0  0  0  0
  153.5170  143.8077  159.7193 H   0  0  0  0  0  0  0  0  0  0  0  0
  153.0881  141.3691  159.4080 H   0  0  0  0  0  0  0  0  0  0  0  0
  151.6266  139.6163  158.5669 H   0  0  0  0  0  0  0  0  0  0  0  0
  150.2588  139.9938  157.5383 H   0  0  0  0  0  0  0  0  0  0  0  0
  150.6321  144.6529  156.7902 H   0  0  0  0  0  0  0  0  0  0  0  0
  1  2  1  0  0  0  0
  1 12  1  0  0  0  0
  1 13  1  0  0  0  0
  2  7  1  0  0  0  0
  2  3  2  0  0  0  0
  3  4  1  0  0  0  0
  3 19  1  0  0  0  0
  4  5  2  0  0  0  0
  4 14  1  0  0  0  0
  5  6  1  0  0  0  0
  5 15  1  0  0  0  0
  6  7  2  0  0  0  0
  6 16  1  0  0  0  0
  7  8  1  0  0  0  0
  8  9  1  0  0  0  0
  8 17  1  0  0  0  0
  8 18  1  0  0  0  0
  9 10  2  0  0  0  0
  9 11  1  0  0  0  0
M  CHG  1   3   1
M  CHG  1  11  -1
M  END
> <s_m_source_file>
AV-unprocessed.smi

> <i_m_source_file_index>
2756

> <i_lp_mmshare_version>
43012

> <i_f3d_flags>
0

> <s_epik_input>
W05IMl1jMW5bY0hdW2NIXVtjSF1jMVtDSDJdQyg9TylbT0hd

> <s_epik_cmdline>
J2VwaWtfcHl0aG9uJywgJy1waCcsICc3LjAnLCAnLXRuJywgJzgnLCAnLW1hJywgJzIwMCcsICctbWV0YWxfYmluZGluZycsICctaW1hZScsICc8aW5maWxlLm1hZT4nLCAnLW9tYWUnLCAnPG91dGZpbGUubWFlPic=

> <r_lp_tautomer_probability>
0.999994

> <r_epik_Ionization_Penalty>
0.0994946

> <r_epik_Ionization_Penalty_Charging>
0.0994944

> <r_epik_Ionization_Penalty_Neutral>
2.48807e-07

> <r_epik_State_Penalty>
0.0891183

> <r_epik_Charging_Adjusted_Penalty>
0.188613

> <i_epik_Tot_Q>
0

> <i_epik_Tot_abs_Q>
2

> <r_epik_Metal_State_Penalty>
3.01912

> <b_epik_Metal_Only>
0

> <s_lp_Force_Field>
OPLS_2005

> <r_lp_Energy>
1.50311

> <b_lp_Chiralities_Consistent>
1

> <s_lp_Variant>
AV-unprocessed.smi:2756-1

> <Gold.Version>
5.8.1

> <Gold.Id.Protein>
6NUR|6NUR_protein|mol2

> <Gold.PLP.Fitness>
44.1184

> <Gold.PLP.PLP>
-25.5470

> <Gold.PLP.part.hbond>
-4.0000

> <Gold.PLP.part.metal>
0.0000

> <Gold.PLP.part.buried>
-3.8123

> <Gold.PLP.part.nonpolar>
-18.6867

> <Gold.PLP.part.repulsive>
0.1413

> <Gold.PLP.ligand.clash>
0.0000

> <Gold.PLP.ligand.torsion>
0.4946

> <Gold.PLP.Chemscore.Hbond>
6.5200

> <Gold.PLP.Chemscore.CHOScore>
0.0000

> <Gold.PLP.Chemscore.Metal>
0.0000

> <Gold.Chemscore.Hbonds>
donor molecule, donor type, donor heavy atom, donor atom, acceptor molecule, acceptor atom, score
      L1  H     1    13       P1  8028  1.95
      L1  H     3    19       P1  8028  1.53
      P1  H  7989  7998       L1    11  0.98
      P1  H  7997  8010       L1    10  2.00

> <Gold.PLP.Chemscore.Internal.Correction>
0.0007

> <Gold.Rescore>
     Score         DG    S(hbond)    S(metal)    S(lipo)     H(rot)  DE(clash)    DE(int)     intcor
     18.34     -19.04       3.54        0.00      49.44       1.58       0.04       0.66       ----

> <Gold.Chemscore.Fitness>
18.3439

> <Gold.Chemscore.DG>
-19.0447

> <Gold.Chemscore.ZeroCoef>
-5.4800

> <Gold.Chemscore.Hbond>
3.5435

> <Gold.Chemscore.Metal>
0.0000

> <Gold.Chemscore.Lipo>
49.4437

> <Gold.Chemscore.Internal_Hbond>
0.0000

> <Gold.Chemscore.DEClash>
0.0407

> <Gold.Chemscore.DEInternal>
0.6601

> <Gold.Chemscore.Rot>
1.5841

> <Gold.Chemscore.Internal.Correction>
   9.000000E+99

> <Gold.Chemscore.Hbonds>
donor molecule, donor type, donor heavy atom, donor atom, acceptor molecule, acceptor atom, score
      L1  H     1    13       P1  8028  0.93
      L1  H     3    19       P1  8028  0.62
      P1  H  7989  7998       L1    11  0.89
      P1  H  7997  8010       L1    10  0.54

> <Gold.Chemscore.Hbond.Weighted>
-11.8352

> <Gold.Chemscore.Metal.Weighted>
-0.0000

> <Gold.Chemscore.Lipo.Weighted>
-5.7849

> <Gold.Chemscore.Internal_Hbond.Weighted>
0.0000

> <Gold.Chemscore.DEClash.Weighted>
0.0407

> <Gold.Chemscore.DEInternal.Weighted>
0.6601

> <Gold.Chemscore.Rot.Weighted>
4.0554

> <Gold.Chemscore.Internal.Correction.Weighted>
   9.000000E+99

> <Gold.Protein.RotatedTorsions>
[ 6907 6896 6895 6894 ] final   66.13 input  -60.11 | X-H torsion
[ 7974 7965 7964 7962 ] final  148.98 input  175.53 | X-H torsion
[ 8008 7997 7996 7995 ] final   74.62 input   59.86 | X-H torsion
[ 10167 10162 10161 10158 ] final   26.11 input  -65.29 | X-H torsion
[ 10718 10713 10712 10709 ] final   70.13 input   66.30 | X-H torsion
[ 10763 10752 10751 10750 ] final   39.02 input  -60.55 | X-H torsion
[ 11005 11000 10999 10996 ] final  124.65 input  -57.11 | X-H torsion

> <Gold.Protein.ActiveResidues>
 VAL166  LYS551  ARG553  GLY616  TRP617  ASP618  TYR619  PRO620  LYS621  CYS622 
 ASP623  PHE694  ASN695  SER759  ASP760  ASP761  ALA762  ILE779  LEU786  VAL792 
 PHE793  MET794  SER795  GLU796  ALA797  LYS798  CYS799  TRP800  GLU811  SER814 

> <Gold.Protein.RotatedAtoms>
  152.4458  134.5497  159.9862 H   0  0  0  0  0  0  0  0  0  0  0  0  # atno 6907 bound_to 6896
  151.5582  133.3401  159.2974 H   0  0  0  0  0  0  0  0  0  0  0  0  # atno 6908 bound_to 6896
  150.8374  134.7686  159.6968 H   0  0  0  0  0  0  0  0  0  0  0  0  # atno 6909 bound_to 6896
  144.8472  139.6223  143.5990 H   0  0  0  0  0  0  0  0  0  0  0  0  # atno 7974 bound_to 7965
  155.8010  140.3476  155.5403 H   0  0  0  0  0  0  0  0  0  0  0  0  # atno 8008 bound_to 7997
  155.8538  140.0960  157.1678 H   0  0  0  0  0  0  0  0  0  0  0  0  # atno 8009 bound_to 7997
  154.4009  140.1371  156.3864 H   0  0  0  0  0  0  0  0  0  0  0  0  # atno 8010 bound_to 7997
  140.5050  144.0253  150.6348 H   0  0  0  0  0  0  0  0  0  0  0  0  # atno 10167 bound_to 10162
  157.6383  130.9461  150.0608 H   0  0  0  0  0  0  0  0  0  0  0  0  # atno 10718 bound_to 10713
  152.9981  135.6232  154.2398 H   0  0  0  0  0  0  0  0  0  0  0  0  # atno 10763 bound_to 10752
  154.2139  135.2798  155.2950 H   0  0  0  0  0  0  0  0  0  0  0  0  # atno 10764 bound_to 10752
  154.5584  135.5712  153.7043 H   0  0  0  0  0  0  0  0  0  0  0  0  # atno 10765 bound_to 10752
  139.9369  134.9639  156.8441 H   0  0  0  0  0  0  0  0  0  0  0  0  # atno 11005 bound_to 11000
  146.2754  139.6740  142.9266 LP  0  0  0  0  0  0  0  0  0  0  0  0  # atno 17320 bound_to 7965
  145.4573  141.0431  143.2771 LP  0  0  0  0  0  0  0  0  0  0  0  0  # atno 17321 bound_to 7965
  140.3560  143.2935  152.0436 LP  0  0  0  0  0  0  0  0  0  0  0  0  # atno 17342 bound_to 10162
  139.4881  144.6339  151.7015 LP  0  0  0  0  0  0  0  0  0  0  0  0  # atno 17343 bound_to 10162
  156.1641  130.3644  149.9257 LP  0  0  0  0  0  0  0  0  0  0  0  0  # atno 17370 bound_to 10713
  156.7248  130.9021  151.3621 LP  0  0  0  0  0  0  0  0  0  0  0  0  # atno 17371 bound_to 10713
  140.6053  134.0133  155.7554 LP  0  0  0  0  0  0  0  0  0  0  0  0  # atno 17394 bound_to 11000
  141.0986  133.9804  157.3117 LP  0  0  0  0  0  0  0  0  0  0  0  0  # atno 17395 bound_to 11000

$$$$
