AV-unprocessed.smi:256|AV-procd|sdf|1958|dock10
  -GOLD-   2262021103D 1   1.00000     0.00000
 Structure written by MMmdl.
 62 65  0  0  0  0  0  0  0  0  2 V2000
  151.7289  139.1571  155.2365 C   0  0  0  0  0  0  0  0  0  0  0  0
  151.1402  140.1243  156.2741 C   0  0  0  0  0  0  0  0  0  0  0  0
  150.3641  141.3236  155.6647 C   0  0  1  0  0  0  0  0  0  0  0  0
  149.1592  140.9077  154.7848 C   0  0  0  0  0  0  0  0  0  0  0  0
  148.0275  140.4465  155.5868 N   0  0  0  0  0  0  0  0  0  0  0  0
  147.9679  139.1152  155.8616 C   0  0  0  0  0  0  0  0  0  0  0  0
  148.4155  138.2177  154.9427 N   0  0  0  0  0  0  0  0  0  0  0  0
  148.3256  136.9056  155.1750 C   0  0  0  0  0  0  0  0  0  0  0  0
  147.8309  136.2816  156.2443 N   0  0  0  0  0  0  0  0  0  0  0  0
  147.3979  137.1723  157.1809 C   0  0  0  0  0  0  0  0  0  0  0  0
  147.4377  138.5918  157.0763 C   0  0  0  0  0  0  0  0  0  0  0  0
  146.9288  139.1617  158.2376 N   0  0  0  0  0  0  0  0  0  0  0  0
  146.5910  138.1403  158.9758 C   0  0  0  0  0  0  0  0  0  0  0  0
  146.8233  136.9068  158.4116 N   0  0  0  0  0  0  0  0  0  0  0  0
  146.5336  135.6090  159.0032 C   0  0  0  0  0  0  0  0  0  0  0  0
  147.6246  135.1075  159.9890 C   0  0  0  0  0  0  0  0  0  0  0  0
  148.7913  134.8393  159.2329 O   0  0  0  0  0  0  0  0  0  0  0  0
  148.0060  136.1297  161.0821 C   0  0  0  0  0  0  0  0  0  0  0  0
  146.9023  136.2487  162.1473 C   0  0  0  0  0  0  0  0  0  0  0  0
  146.6422  134.9712  162.7187 O   0  0  0  0  0  0  0  0  0  0  0  0
  146.1575  134.0256  161.7712 C   0  0  0  0  0  0  0  0  0  0  0  0
  147.2126  133.7898  160.6750 C   0  0  0  0  0  0  0  0  0  0  0  0
  147.5883  141.4089  156.5946 C   0  0  0  0  0  0  0  0  0  0  0  0
  148.7568  141.8479  157.4956 C   0  0  0  0  0  0  0  0  0  0  0  0
  149.9134  142.3200  156.6889 N   0  3  1  0  0  0  0  0  0  0  0  0
  150.9756  142.9291  157.5354 C   0  0  0  0  0  0  0  0  0  0  0  0
  151.5091  141.9834  158.6296 C   0  0  0  0  0  0  0  0  0  0  0  0
  152.3925  142.6454  159.5256 O   0  0  0  0  0  0  0  0  0  0  0  0
  152.8899  141.8247  160.5709 C   0  0  0  0  0  0  0  0  0  0  0  0
  152.3444  138.4010  155.7241 H   0  0  0  0  0  0  0  0  0  0  0  0
  152.3584  139.6824  154.5180 H   0  0  0  0  0  0  0  0  0  0  0  0
  150.9530  138.6285  154.6843 H   0  0  0  0  0  0  0  0  0  0  0  0
  150.5113  139.5639  156.9641 H   0  0  0  0  0  0  0  0  0  0  0  0
  151.9754  140.4924  156.8683 H   0  0  0  0  0  0  0  0  0  0  0  0
  151.0517  141.8363  154.9928 H   0  0  0  0  0  0  0  0  0  0  0  0
  148.8190  141.7768  154.2200 H   0  0  0  0  0  0  0  0  0  0  0  0
  149.4627  140.1841  154.0320 H   0  0  0  0  0  0  0  0  0  0  0  0
  148.6984  136.2639  154.3900 H   0  0  0  0  0  0  0  0  0  0  0  0
  146.1525  138.2588  159.9561 H   0  0  0  0  0  0  0  0  0  0  0  0
  145.5661  135.6757  159.4999 H   0  0  0  0  0  0  0  0  0  0  0  0
  146.4011  134.8916  158.1922 H   0  0  0  0  0  0  0  0  0  0  0  0
  148.5708  134.8833  158.3150 H   0  0  0  0  0  0  0  0  0  0  0  0
  148.9213  135.8055  161.5800 H   0  0  0  0  0  0  0  0  0  0  0  0
  148.2312  137.1075  160.6562 H   0  0  0  0  0  0  0  0  0  0  0  0
  147.2205  136.9279  162.9384 H   0  0  0  0  0  0  0  0  0  0  0  0
  145.9852  136.6625  161.7278 H   0  0  0  0  0  0  0  0  0  0  0  0
  145.9462  133.0905  162.2898 H   0  0  0  0  0  0  0  0  0  0  0  0
  145.2120  134.3680  161.3493 H   0  0  0  0  0  0  0  0  0  0  0  0
  146.8421  133.0727  159.9415 H   0  0  0  0  0  0  0  0  0  0  0  0
  148.0859  133.3286  161.1391 H   0  0  0  0  0  0  0  0  0  0  0  0
  147.1857  142.2784  156.0735 H   0  0  0  0  0  0  0  0  0  0  0  0
  146.7662  141.0114  157.1912 H   0  0  0  0  0  0  0  0  0  0  0  0
  148.4148  142.6478  158.1532 H   0  0  0  0  0  0  0  0  0  0  0  0
  149.0705  141.0285  158.1430 H   0  0  0  0  0  0  0  0  0  0  0  0
  151.8046  143.2248  156.8924 H   0  0  0  0  0  0  0  0  0  0  0  0
  150.6177  143.8563  157.9825 H   0  0  0  0  0  0  0  0  0  0  0  0
  150.6809  141.5334  159.1794 H   0  0  0  0  0  0  0  0  0  0  0  0
  152.0449  141.1497  158.1765 H   0  0  0  0  0  0  0  0  0  0  0  0
  153.6029  142.3932  161.1678 H   0  0  0  0  0  0  0  0  0  0  0  0
  153.4082  140.9502  160.1759 H   0  0  0  0  0  0  0  0  0  0  0  0
  152.0954  141.4907  161.2381 H   0  0  0  0  0  0  0  0  0  0  0  0
  149.5469  143.0895  156.1468 H   0  0  0  0  0  0  0  0  0  0  0  0
  1  2  1  0  0  0  0
  1 30  1  0  0  0  0
  1 31  1  0  0  0  0
  1 32  1  0  0  0  0
  2  3  1  0  0  0  0
  2 33  1  0  0  0  0
  2 34  1  0  0  0  0
  3 25  1  0  0  0  0
  3  4  1  0  0  0  0
  3 35  1  0  0  0  0
  4  5  1  0  0  0  0
  4 36  1  0  0  0  0
  4 37  1  0  0  0  0
  5  6  1  0  0  0  0
  5 23  1  0  0  0  0
  6 11  1  0  0  0  0
  6  7  2  0  0  0  0
  7  8  1  0  0  0  0
  8  9  2  0  0  0  0
  8 38  1  0  0  0  0
  9 10  1  0  0  0  0
 10 14  1  0  0  0  0
 10 11  2  0  0  0  0
 11 12  1  0  0  0  0
 12 13  2  0  0  0  0
 13 14  1  0  0  0  0
 13 39  1  0  0  0  0
 14 15  1  0  0  0  0
 15 16  1  0  0  0  0
 15 40  1  0  0  0  0
 15 41  1  0  0  0  0
 16 22  1  0  0  0  0
 16 17  1  0  0  0  0
 16 18  1  0  0  0  0
 17 42  1  0  0  0  0
 18 19  1  0  0  0  0
 18 43  1  0  0  0  0
 18 44  1  0  0  0  0
 19 20  1  0  0  0  0
 19 45  1  0  0  0  0
 19 46  1  0  0  0  0
 20 21  1  0  0  0  0
 21 22  1  0  0  0  0
 21 47  1  0  0  0  0
 21 48  1  0  0  0  0
 22 49  1  0  0  0  0
 22 50  1  0  0  0  0
 23 24  1  0  0  0  0
 23 51  1  0  0  0  0
 23 52  1  0  0  0  0
 24 25  1  0  0  0  0
 24 53  1  0  0  0  0
 24 54  1  0  0  0  0
 25 26  1  0  0  0  0
 25 62  1  0  0  0  0
 26 27  1  0  0  0  0
 26 55  1  0  0  0  0
 26 56  1  0  0  0  0
 27 28  1  0  0  0  0
 27 57  1  0  0  0  0
 27 58  1  0  0  0  0
 28 29  1  0  0  0  0
 29 59  1  0  0  0  0
 29 60  1  0  0  0  0
 29 61  1  0  0  0  0
M  CHG  1  25   1
M  END
> <s_m_source_file>
AV-unprocessed.smi

> <i_m_source_file_index>
256

> <i_lp_mmshare_version>
43012

> <i_f3d_flags>
0

> <s_epik_input>
W0NIM11PW0NIMl1bQ0gyXU4xW0NIMl1bQ0gyXU4oW0NIMl1bQ0BIXTFbQ0gyXVtDSDNdKWMobltjSF1uMiljKGMyMyluW2NIXW4zW0NIMl1DNChbT0hdKVtDSDJdW0NIMl1PW0NIMl1bQ0gyXTQ=

> <s_epik_cmdline>
J2VwaWtfcHl0aG9uJywgJy1waCcsICc3LjAnLCAnLXRuJywgJzgnLCAnLW1hJywgJzIwMCcsICctbWV0YWxfYmluZGluZycsICctaW1hZScsICc8aW5maWxlLm1hZT4nLCAnLW9tYWUnLCAnPG91dGZpbGUubWFlPic=

> <r_lp_tautomer_probability>
1

> <r_epik_Ionization_Penalty>
0.233023

> <r_epik_Ionization_Penalty_Charging>
0.23295

> <r_epik_Ionization_Penalty_Neutral>
7.2493e-05

> <r_epik_State_Penalty>
0.223667

> <r_epik_Charging_Adjusted_Penalty>
0.456618

> <i_epik_Tot_Q>
1

> <i_epik_Tot_abs_Q>
1

> <r_epik_Metal_State_Penalty>
0.226879

> <b_epik_Metal_Only>
0

> <s_lp_Force_Field>
OPLS_2005

> <r_lp_Energy>
45.4801

> <b_lp_Chiralities_Consistent>
1

> <s_lp_Variant>
AV-unprocessed.smi:256-2

> <Gold.Version>
5.8.1

> <Gold.Id.Protein>
6NUR|6NUR_protein|mol2

> <Gold.PLP.Fitness>
48.8276

> <Gold.PLP.PLP>
-37.6905

> <Gold.PLP.part.hbond>
-3.0000

> <Gold.PLP.part.metal>
0.0000

> <Gold.PLP.part.buried>
-3.8986

> <Gold.PLP.part.nonpolar>
-31.2780

> <Gold.PLP.part.repulsive>
0.1711

> <Gold.PLP.ligand.clash>
0.0000

> <Gold.PLP.ligand.torsion>
0.6796

> <Gold.PLP.Chemscore.Hbond>
3.0000

> <Gold.PLP.Chemscore.CHOScore>
1.0000

> <Gold.PLP.Chemscore.Metal>
0.0000

> <Gold.Chemscore.Hbonds>
donor molecule, donor type, donor heavy atom, donor atom, acceptor molecule, acceptor atom, score
      L1  H    25    62       P1  8028  2.00
      P1  H  6896  6909       L1    17  1.00
      L1  C     8    38       P1  7948  1.00

> <Gold.PLP.Chemscore.Internal.Correction>
0.4963

> <Gold.Rescore>
     Score         DG    S(hbond)    S(metal)    S(lipo)     H(rot)  DE(clash)    DE(int)     intcor
     14.01     -16.26       1.96        0.00      94.23       2.65       0.15       2.10       ----

> <Gold.Chemscore.Fitness>
14.0124

> <Gold.Chemscore.DG>
-16.2649

> <Gold.Chemscore.ZeroCoef>
-5.4800

> <Gold.Chemscore.Hbond>
1.9562

> <Gold.Chemscore.Metal>
0.0000

> <Gold.Chemscore.Lipo>
94.2350

> <Gold.Chemscore.Internal_Hbond>
0.0000

> <Gold.Chemscore.DEClash>
0.1510

> <Gold.Chemscore.DEInternal>
2.1016

> <Gold.Chemscore.Rot>
2.6462

> <Gold.Chemscore.Internal.Correction>
   9.000000E+99

> <Gold.Chemscore.Hbonds>
donor molecule, donor type, donor heavy atom, donor atom, acceptor molecule, acceptor atom, score
      L1  H    25    62       P1  8028  1.00
      P1  H  6896  6909       L1    17  0.67

> <Gold.Chemscore.Hbond.Weighted>
-6.5336

> <Gold.Chemscore.Metal.Weighted>
-0.0000

> <Gold.Chemscore.Lipo.Weighted>
-11.0255

> <Gold.Chemscore.Internal_Hbond.Weighted>
0.0000

> <Gold.Chemscore.DEClash.Weighted>
0.1510

> <Gold.Chemscore.DEInternal.Weighted>
2.1016

> <Gold.Chemscore.Rot.Weighted>
6.7742

> <Gold.Chemscore.Internal.Correction.Weighted>
   9.000000E+99

> <Gold.Protein.RotatedTorsions>
[ 6907 6896 6895 6894 ] final   26.46 input  -60.11 | X-H torsion
[ 7974 7965 7964 7962 ] final  -99.95 input  175.53 | X-H torsion
[ 8008 7997 7996 7995 ] final -170.33 input   59.86 | X-H torsion
[ 10167 10162 10161 10158 ] final   29.82 input  -65.29 | X-H torsion
[ 10718 10713 10712 10709 ] final -126.47 input   66.30 | X-H torsion
[ 10763 10752 10751 10750 ] final   31.52 input  -60.55 | X-H torsion
[ 11005 11000 10999 10996 ] final -118.37 input  -57.11 | X-H torsion

> <Gold.Protein.ActiveResidues>
 VAL166  LYS551  ARG553  GLY616  TRP617  ASP618  TYR619  PRO620  LYS621  CYS622 
 ASP623  PHE694  ASN695  SER759  ASP760  ASP761  ALA762  ILE779  LEU786  VAL792 
 PHE793  MET794  SER795  GLU796  ALA797  LYS798  CYS799  TRP800  GLU811  SER814 

> <Gold.Protein.RotatedAtoms>
  151.9877  134.9995  160.0559 H   0  0  0  0  0  0  0  0  0  0  0  0  # atno 6907 bound_to 6896
  152.1637  133.4594  159.4882 H   0  0  0  0  0  0  0  0  0  0  0  0  # atno 6908 bound_to 6896
  150.6891  134.1957  159.4345 H   0  0  0  0  0  0  0  0  0  0  0  0  # atno 6909 bound_to 6896
  145.3009  140.9377  143.2824 H   0  0  0  0  0  0  0  0  0  0  0  0  # atno 7974 bound_to 7965
  155.9169  140.1067  157.1236 H   0  0  0  0  0  0  0  0  0  0  0  0  # atno 8008 bound_to 7997
  154.4048  140.1263  156.4694 H   0  0  0  0  0  0  0  0  0  0  0  0  # atno 8009 bound_to 7997
  155.7242  140.3469  155.5032 H   0  0  0  0  0  0  0  0  0  0  0  0  # atno 8010 bound_to 7997
  140.4732  144.0730  150.6243 H   0  0  0  0  0  0  0  0  0  0  0  0  # atno 10167 bound_to 10162
  156.1768  130.6705  151.0252 H   0  0  0  0  0  0  0  0  0  0  0  0  # atno 10718 bound_to 10713
  153.0311  135.6437  154.1212 H   0  0  0  0  0  0  0  0  0  0  0  0  # atno 10763 bound_to 10752
  154.0934  135.2864  155.3268 H   0  0  0  0  0  0  0  0  0  0  0  0  # atno 10764 bound_to 10752
  154.6449  135.5446  153.7896 H   0  0  0  0  0  0  0  0  0  0  0  0  # atno 10765 bound_to 10752
  141.0291  134.0009  157.3170 H   0  0  0  0  0  0  0  0  0  0  0  0  # atno 11005 bound_to 11000
  144.9095  139.4547  143.6594 LP  0  0  0  0  0  0  0  0  0  0  0  0  # atno 17320 bound_to 7965
  146.3152  139.7894  142.8989 LP  0  0  0  0  0  0  0  0  0  0  0  0  # atno 17321 bound_to 7965
  140.3950  143.2732  152.0015 LP  0  0  0  0  0  0  0  0  0  0  0  0  # atno 17342 bound_to 10162
  139.4821  144.6045  151.7546 LP  0  0  0  0  0  0  0  0  0  0  0  0  # atno 17343 bound_to 10162
  157.6841  131.0830  150.7291 LP  0  0  0  0  0  0  0  0  0  0  0  0  # atno 17370 bound_to 10713
  156.7349  130.4721  149.5491 LP  0  0  0  0  0  0  0  0  0  0  0  0  # atno 17371 bound_to 10713
  139.9195  135.0199  156.8011 LP  0  0  0  0  0  0  0  0  0  0  0  0  # atno 17394 bound_to 11000
  140.6439  133.9793  155.7721 LP  0  0  0  0  0  0  0  0  0  0  0  0  # atno 17395 bound_to 11000

$$$$
