AV-unprocessed.smi:2063|AV-procd|sdf|8409|dock4
  -GOLD-   2272011103D 1   1.00000     0.00000
 Structure written by MMmdl.
 39 40  0  0  0  0  0  0  0  0  1 V2000
  153.6744  141.2063  161.5573 C   0  0  0  0  0  0  0  0  0  0  0  0
  153.2243  142.5028  160.8686 C   0  0  0  0  0  0  0  0  0  0  0  0
  152.5878  143.4976  161.8498 C   0  0  0  0  0  0  0  0  0  0  0  0
  152.3358  142.2328  159.6934 C   0  0  0  0  0  0  0  0  0  0  0  0
  152.4425  141.1240  158.9499 N   0  0  0  0  0  0  0  0  0  0  0  0
  151.5203  141.0908  157.9134 N   0  0  0  0  0  0  0  0  0  0  0  0
  150.7400  142.1800  157.9030 C   0  0  0  0  0  0  0  0  0  0  0  0
  149.7105  142.4048  156.9511 N   0  0  0  0  0  0  0  0  0  0  0  0
  148.6130  141.6635  156.7185 C   0  0  0  0  0  0  0  0  0  0  0  0
  148.3180  140.6245  157.3094 O   0  0  0  0  0  0  0  0  0  0  0  0
  147.8654  142.2015  155.7436 N   0  0  0  0  0  0  0  0  0  0  0  0
  146.6149  141.6505  155.2255 C   0  0  1  0  0  0  0  0  0  0  0  0
  146.0615  142.6127  154.1631 C   0  0  0  0  0  0  0  0  0  0  0  0
  146.8607  140.2355  154.6622 C   0  0  2  0  0  0  0  0  0  0  0  0
  147.1152  140.1805  153.1558 C   0  0  0  0  0  0  0  0  0  0  0  0
  146.7306  138.7581  152.7837 C   0  0  0  0  0  0  0  0  0  0  0  0
  145.8723  138.2854  153.9606 C   0  0  0  0  0  0  0  0  0  0  0  0
  145.6974  139.4308  154.7833 O   0  0  0  0  0  0  0  0  0  0  0  0
  151.0706  143.3447  159.1732 S   0  0  0  0  0  0  0  0  0  0  0  0
  154.1843  140.5463  160.8549 H   0  0  0  0  0  0  0  0  0  0  0  0
  152.8273  140.6602  161.9732 H   0  0  0  0  0  0  0  0  0  0  0  0
  154.3660  141.4157  162.3735 H   0  0  0  0  0  0  0  0  0  0  0  0
  154.1264  142.9801  160.4823 H   0  0  0  0  0  0  0  0  0  0  0  0
  152.3385  144.4347  161.3509 H   0  0  0  0  0  0  0  0  0  0  0  0
  153.2691  143.7314  162.6684 H   0  0  0  0  0  0  0  0  0  0  0  0
  151.6717  143.0980  162.2854 H   0  0  0  0  0  0  0  0  0  0  0  0
  149.8234  143.2281  156.3786 H   0  0  0  0  0  0  0  0  0  0  0  0
  148.1916  143.0552  155.3153 H   0  0  0  0  0  0  0  0  0  0  0  0
  145.8783  141.5863  156.0283 H   0  0  0  0  0  0  0  0  0  0  0  0
  145.0951  142.2769  153.7867 H   0  0  0  0  0  0  0  0  0  0  0  0
  146.7387  142.6979  153.3125 H   0  0  0  0  0  0  0  0  0  0  0  0
  145.9177  143.6116  154.5764 H   0  0  0  0  0  0  0  0  0  0  0  0
  147.6813  139.7498  155.1943 H   0  0  0  0  0  0  0  0  0  0  0  0
  146.4602  140.8825  152.6377 H   0  0  0  0  0  0  0  0  0  0  0  0
  148.1449  140.4213  152.8910 H   0  0  0  0  0  0  0  0  0  0  0  0
  146.1831  138.7314  151.8410 H   0  0  0  0  0  0  0  0  0  0  0  0
  147.6125  138.1254  152.6787 H   0  0  0  0  0  0  0  0  0  0  0  0
  144.9095  137.8859  153.6418 H   0  0  0  0  0  0  0  0  0  0  0  0
  146.3917  137.5112  154.5270 H   0  0  0  0  0  0  0  0  0  0  0  0
  1  2  1  0  0  0  0
  1 20  1  0  0  0  0
  1 21  1  0  0  0  0
  1 22  1  0  0  0  0
  2  3  1  0  0  0  0
  2  4  1  0  0  0  0
  2 23  1  0  0  0  0
  3 24  1  0  0  0  0
  3 25  1  0  0  0  0
  3 26  1  0  0  0  0
  4 19  1  0  0  0  0
  4  5  2  0  0  0  0
  5  6  1  0  0  0  0
  6  7  2  0  0  0  0
  7  8  1  0  0  0  0
  7 19  1  0  0  0  0
  8  9  1  0  0  0  0
  8 27  1  0  0  0  0
  9 10  2  0  0  0  0
  9 11  1  0  0  0  0
 11 12  1  0  0  0  0
 11 28  1  0  0  0  0
 12 13  1  0  0  0  0
 12 14  1  0  0  0  0
 12 29  1  0  0  0  0
 13 30  1  0  0  0  0
 13 31  1  0  0  0  0
 13 32  1  0  0  0  0
 14 18  1  0  0  0  0
 14 15  1  0  0  0  0
 14 33  1  0  0  0  0
 15 16  1  0  0  0  0
 15 34  1  0  0  0  0
 15 35  1  0  0  0  0
 16 17  1  0  0  0  0
 16 36  1  0  0  0  0
 16 37  1  0  0  0  0
 17 18  1  0  0  0  0
 17 38  1  0  0  0  0
 17 39  1  0  0  0  0
M  END
> <s_m_source_file>
AV-unprocessed.smi

> <i_m_source_file_index>
2063

> <i_lp_mmshare_version>
43012

> <i_f3d_flags>
0

> <s_epik_input>
W0NIM11bQ0hdKFtDSDNdKWMxbm5jKHMxKVtOSF1DKD1PKVtOSF1bQ0BIXShbQ0gzXSlbQ0BASF0yW0NIMl1bQ0gyXVtDSDJdTzI=

> <s_epik_cmdline>
J2VwaWtfcHl0aG9uJywgJy1waCcsICc3LjAnLCAnLXRuJywgJzgnLCAnLW1hJywgJzIwMCcsICctbWV0YWxfYmluZGluZycsICctaW1hZScsICc8aW5maWxlLm1hZT4nLCAnLW9tYWUnLCAnPG91dGZpbGUubWFlPic=

> <r_lp_tautomer_probability>
1

> <r_epik_Ionization_Penalty>
0.00050567

> <r_epik_Ionization_Penalty_Charging>
0

> <r_epik_Ionization_Penalty_Neutral>
0.00050567

> <r_epik_State_Penalty>
-0

> <r_epik_Charging_Adjusted_Penalty>
0

> <i_epik_Tot_Q>
0

> <i_epik_Tot_abs_Q>
0

> <r_epik_Metal_State_Penalty>
0.219912

> <b_epik_Metal_Only>
0

> <s_lp_Force_Field>
OPLS_2005

> <r_lp_Energy>
10.6095

> <b_lp_Chiralities_Consistent>
1

> <s_lp_Variant>
AV-unprocessed.smi:2063-2

> <Gold.Version>
5.8.1

> <Gold.Id.Protein>
6NUR|6NUR_protein|mol2

> <Gold.PLP.Fitness>
36.9710

> <Gold.PLP.PLP>
-35.1170

> <Gold.PLP.part.hbond>
-2.0000

> <Gold.PLP.part.metal>
0.0000

> <Gold.PLP.part.buried>
-4.2647

> <Gold.PLP.part.nonpolar>
-29.5753

> <Gold.PLP.part.repulsive>
0.2034

> <Gold.PLP.ligand.clash>
0.0000

> <Gold.PLP.ligand.torsion>
2.1011

> <Gold.PLP.Chemscore.Hbond>
1.9920

> <Gold.PLP.Chemscore.CHOScore>
0.0000

> <Gold.PLP.Chemscore.Metal>
0.0000

> <Gold.Chemscore.Hbonds>
donor molecule, donor type, donor heavy atom, donor atom, acceptor molecule, acceptor atom, score
      L1  H     8    27       P1  8028  0.86
      L1  H    11    28       P1  8028  0.90

> <Gold.PLP.Chemscore.Internal.Correction>
0.0803

> <Gold.Rescore>
     Score         DG    S(hbond)    S(metal)    S(lipo)     H(rot)  DE(clash)    DE(int)     intcor
     15.54     -17.83       1.81        0.00      84.74       1.42       0.11       2.18       ----

> <Gold.Chemscore.Fitness>
15.5380

> <Gold.Chemscore.DG>
-17.8320

> <Gold.Chemscore.ZeroCoef>
-5.4800

> <Gold.Chemscore.Hbond>
1.8146

> <Gold.Chemscore.Metal>
0.0000

> <Gold.Chemscore.Lipo>
84.7361

> <Gold.Chemscore.Internal_Hbond>
0.0000

> <Gold.Chemscore.DEClash>
0.1104

> <Gold.Chemscore.DEInternal>
2.1837

> <Gold.Chemscore.Rot>
1.4152

> <Gold.Chemscore.Internal.Correction>
   9.000000E+99

> <Gold.Chemscore.Hbonds>
donor molecule, donor type, donor heavy atom, donor atom, acceptor molecule, acceptor atom, score
      L1  H     8    27       P1  8028  0.85
      L1  H    11    28       P1  8028  0.84

> <Gold.Chemscore.Hbond.Weighted>
-6.0608

> <Gold.Chemscore.Metal.Weighted>
-0.0000

> <Gold.Chemscore.Lipo.Weighted>
-9.9141

> <Gold.Chemscore.Internal_Hbond.Weighted>
0.0000

> <Gold.Chemscore.DEClash.Weighted>
0.1104

> <Gold.Chemscore.DEInternal.Weighted>
2.1837

> <Gold.Chemscore.Rot.Weighted>
3.6229

> <Gold.Chemscore.Internal.Correction.Weighted>
   9.000000E+99

> <Gold.Protein.RotatedTorsions>
[ 6907 6896 6895 6894 ] final  -55.61 input  -60.11 | X-H torsion
[ 7974 7965 7964 7962 ] final  -53.93 input  175.53 | X-H torsion
[ 8008 7997 7996 7995 ] final  -11.57 input   59.86 | X-H torsion
[ 10167 10162 10161 10158 ] final   85.21 input  -65.29 | X-H torsion
[ 10718 10713 10712 10709 ] final   -5.66 input   66.30 | X-H torsion
[ 10763 10752 10751 10750 ] final  -93.39 input  -60.55 | X-H torsion
[ 11005 11000 10999 10996 ] final   10.93 input  -57.11 | X-H torsion

> <Gold.Protein.ActiveResidues>
 VAL166  LYS551  ARG553  GLY616  TRP617  ASP618  TYR619  PRO620  LYS621  CYS622 
 ASP623  PHE694  ASN695  SER759  ASP760  ASP761  ALA762  ILE779  LEU786  VAL792 
 PHE793  MET794  SER795  GLU796  ALA797  LYS798  CYS799  TRP800  GLU811  SER814 

> <Gold.Protein.RotatedAtoms>
  150.8237  134.7458  159.6794 H   0  0  0  0  0  0  0  0  0  0  0  0  # atno 6907 bound_to 6896
  152.4350  134.5700  159.9928 H   0  0  0  0  0  0  0  0  0  0  0  0  # atno 6908 bound_to 6896
  151.5878  133.3332  159.3057 H   0  0  0  0  0  0  0  0  0  0  0  0  # atno 6909 bound_to 6896
  145.8913  140.8068  142.9790 H   0  0  0  0  0  0  0  0  0  0  0  0  # atno 7974 bound_to 7965
  154.5453  140.2299  155.8574 H   0  0  0  0  0  0  0  0  0  0  0  0  # atno 8008 bound_to 7997
  156.1897  140.3080  155.9269 H   0  0  0  0  0  0  0  0  0  0  0  0  # atno 8009 bound_to 7997
  155.3177  140.0439  157.3028 H   0  0  0  0  0  0  0  0  0  0  0  0  # atno 8010 bound_to 7997
  139.9001  144.6335  150.8646 H   0  0  0  0  0  0  0  0  0  0  0  0  # atno 10167 bound_to 10162
  156.7433  130.5216  149.5819 H   0  0  0  0  0  0  0  0  0  0  0  0  # atno 10718 bound_to 10713
  154.6955  135.5196  153.8452 H   0  0  0  0  0  0  0  0  0  0  0  0  # atno 10763 bound_to 10752
  153.0664  135.6586  154.0355 H   0  0  0  0  0  0  0  0  0  0  0  0  # atno 10764 bound_to 10752
  154.0222  135.2992  155.3359 H   0  0  0  0  0  0  0  0  0  0  0  0  # atno 10765 bound_to 10752
  140.5089  134.0672  155.7813 H   0  0  0  0  0  0  0  0  0  0  0  0  # atno 11005 bound_to 11000
  144.6730  140.1534  143.7428 LP  0  0  0  0  0  0  0  0  0  0  0  0  # atno 17320 bound_to 7965
  145.8905  139.2373  143.1552 LP  0  0  0  0  0  0  0  0  0  0  0  0  # atno 17321 bound_to 7965
  140.7708  143.3443  151.2142 LP  0  0  0  0  0  0  0  0  0  0  0  0  # atno 17342 bound_to 10162
  139.7033  143.9497  152.2915 LP  0  0  0  0  0  0  0  0  0  0  0  0  # atno 17343 bound_to 10162
  156.1450  130.6271  151.0519 LP  0  0  0  0  0  0  0  0  0  0  0  0  # atno 17370 bound_to 10713
  157.6809  131.0838  150.7372 LP  0  0  0  0  0  0  0  0  0  0  0  0  # atno 17371 bound_to 10713
  141.1396  133.9161  157.2356 LP  0  0  0  0  0  0  0  0  0  0  0  0  # atno 17394 bound_to 11000
  139.9670  135.0139  156.9413 LP  0  0  0  0  0  0  0  0  0  0  0  0  # atno 17395 bound_to 11000

$$$$
