AV-unprocessed.smi:3312|AV-procd|sdf|12728|dock2
  -GOLD-   2272019 73D 1   1.00000     0.00000
 Structure written by MMmdl.
 38 39  0  0  0  0  0  0  0  0  1 V2000
  145.9172  143.0899  153.8010 C   0  0  0  0  0  0  0  0  0  0  0  0
  146.9175  142.1203  154.3616 C   0  0  0  0  0  0  0  0  0  0  0  0
  146.9849  141.5994  155.6851 C   0  0  0  0  0  0  0  0  0  0  0  0
  147.9950  140.7626  155.8578 N   0  0  0  0  0  0  0  0  0  0  0  0
  148.6085  140.7220  154.6563 N   0  0  0  0  0  0  0  0  0  0  0  0
  149.7833  139.8880  154.4716 C   0  0  0  0  0  0  0  0  0  0  0  0
  150.6764  139.8357  155.7231 C   0  0  0  0  0  0  0  0  0  0  0  0
  151.3764  141.1053  155.8972 N   0  0  0  0  0  0  0  0  0  0  0  0
  150.8024  141.9310  156.9737 C   0  0  0  0  0  0  0  0  0  0  0  0
  151.5510  141.8815  158.3218 C   0  0  0  0  0  0  0  0  0  0  0  0
  151.6194  140.8121  158.9307 O   0  0  0  0  0  0  0  0  0  0  0  0
  152.1287  143.0127  158.7938 N   0  0  0  0  0  0  0  0  0  0  0  0
  152.7896  143.0928  160.0999 C   0  0  0  0  0  0  0  0  0  0  0  0
  152.0124  144.0937  160.9745 C   0  0  0  0  0  0  0  0  0  0  0  0
  151.9589  145.3622  160.3253 O   0  0  0  0  0  0  0  0  0  0  0  0
  151.3498  145.3080  159.0372 C   0  0  0  0  0  0  0  0  0  0  0  0
  152.1264  144.3263  158.1423 C   0  0  0  0  0  0  0  0  0  0  0  0
  147.9768  141.5287  153.7338 C   0  0  0  0  0  0  0  0  0  0  0  0
  144.9891  143.0898  154.3731 H   0  0  0  0  0  0  0  0  0  0  0  0
  145.6577  142.8513  152.7693 H   0  0  0  0  0  0  0  0  0  0  0  0
  146.3001  144.1106  153.8091 H   0  0  0  0  0  0  0  0  0  0  0  0
  146.3326  141.8036  156.5214 H   0  0  0  0  0  0  0  0  0  0  0  0
  149.4488  138.8823  154.2137 H   0  0  0  0  0  0  0  0  0  0  0  0
  150.3473  140.2570  153.6139 H   0  0  0  0  0  0  0  0  0  0  0  0
  150.0723  139.6193  156.6054 H   0  0  0  0  0  0  0  0  0  0  0  0
  151.3865  139.0161  155.6167 H   0  0  0  0  0  0  0  0  0  0  0  0
  151.3638  141.5989  155.0161 H   0  0  0  0  0  0  0  0  0  0  0  0
  150.7998  142.9681  156.6370 H   0  0  0  0  0  0  0  0  0  0  0  0
  149.7604  141.6399  157.1109 H   0  0  0  0  0  0  0  0  0  0  0  0
  152.8480  142.1301  160.6092 H   0  0  0  0  0  0  0  0  0  0  0  0
  153.8191  143.4279  159.9663 H   0  0  0  0  0  0  0  0  0  0  0  0
  151.0014  143.7334  161.1714 H   0  0  0  0  0  0  0  0  0  0  0  0
  152.5033  144.2121  161.9406 H   0  0  0  0  0  0  0  0  0  0  0  0
  150.3046  145.0083  159.1293 H   0  0  0  0  0  0  0  0  0  0  0  0
  151.3595  146.3065  158.6004 H   0  0  0  0  0  0  0  0  0  0  0  0
  153.1561  144.6669  158.0247 H   0  0  0  0  0  0  0  0  0  0  0  0
  151.7056  144.3241  157.1385 H   0  0  0  0  0  0  0  0  0  0  0  0
  148.3322  141.6167  152.7177 H   0  0  0  0  0  0  0  0  0  0  0  0
  1  2  1  0  0  0  0
  1 19  1  0  0  0  0
  1 20  1  0  0  0  0
  1 21  1  0  0  0  0
  2 18  2  0  0  0  0
  2  3  1  0  0  0  0
  3  4  2  0  0  0  0
  3 22  1  0  0  0  0
  4  5  1  0  0  0  0
  5  6  1  0  0  0  0
  5 18  1  0  0  0  0
  6  7  1  0  0  0  0
  6 23  1  0  0  0  0
  6 24  1  0  0  0  0
  7  8  1  0  0  0  0
  7 25  1  0  0  0  0
  7 26  1  0  0  0  0
  8  9  1  0  0  0  0
  8 27  1  0  0  0  0
  9 10  1  0  0  0  0
  9 28  1  0  0  0  0
  9 29  1  0  0  0  0
 10 11  2  0  0  0  0
 10 12  1  0  0  0  0
 12 17  1  0  0  0  0
 12 13  1  0  0  0  0
 13 14  1  0  0  0  0
 13 30  1  0  0  0  0
 13 31  1  0  0  0  0
 14 15  1  0  0  0  0
 14 32  1  0  0  0  0
 14 33  1  0  0  0  0
 15 16  1  0  0  0  0
 16 17  1  0  0  0  0
 16 34  1  0  0  0  0
 16 35  1  0  0  0  0
 17 36  1  0  0  0  0
 17 37  1  0  0  0  0
 18 38  1  0  0  0  0
M  END
> <s_m_source_file>
AV-unprocessed.smi

> <i_m_source_file_index>
3312

> <i_lp_mmshare_version>
43012

> <i_f3d_flags>
0

> <s_epik_input>
W0NIM11jMVtjSF1ubihbY0hdMSlbQ0gyXVtDSDJdW05IXVtDSDJdQyg9TylOMltDSDJdW0NIMl1PW0NIMl1bQ0gyXTI=

> <s_epik_cmdline>
J2VwaWtfcHl0aG9uJywgJy1waCcsICc3LjAnLCAnLXRuJywgJzgnLCAnLW1hJywgJzIwMCcsICctbWV0YWxfYmluZGluZycsICctaW1hZScsICc8aW5maWxlLm1hZT4nLCAnLW9tYWUnLCAnPG91dGZpbGUubWFlPic=

> <r_lp_tautomer_probability>
1

> <r_epik_Ionization_Penalty>
0.513825

> <r_epik_Ionization_Penalty_Charging>
0

> <r_epik_Ionization_Penalty_Neutral>
0.513825

> <r_epik_State_Penalty>
0.518565

> <r_epik_Charging_Adjusted_Penalty>
0.518565

> <i_epik_Tot_Q>
0

> <i_epik_Tot_abs_Q>
0

> <r_epik_Metal_State_Penalty>
0.515505

> <b_epik_Metal_Only>
0

> <s_lp_Force_Field>
OPLS_2005

> <r_lp_Energy>
26.2636

> <b_lp_Chiralities_Consistent>
1

> <s_lp_Variant>
AV-unprocessed.smi:3312-2

> <Gold.Version>
5.8.1

> <Gold.Id.Protein>
6NUR|6NUR_protein|mol2

> <Gold.PLP.Fitness>
45.0338

> <Gold.PLP.PLP>
-44.0083

> <Gold.PLP.part.hbond>
-0.7072

> <Gold.PLP.part.metal>
0.0000

> <Gold.PLP.part.buried>
-3.0695

> <Gold.PLP.part.nonpolar>
-39.4727

> <Gold.PLP.part.repulsive>
0.2197

> <Gold.PLP.ligand.clash>
0.0000

> <Gold.PLP.ligand.torsion>
0.9987

> <Gold.PLP.Chemscore.Hbond>
0.0000

> <Gold.PLP.Chemscore.CHOScore>
1.0000

> <Gold.PLP.Chemscore.Metal>
0.0000

> <Gold.Chemscore.Hbonds>
donor molecule, donor type, donor heavy atom, donor atom, acceptor molecule, acceptor atom, score
      L1  C    18    38       P1  7957  0.98

> <Gold.PLP.Chemscore.Internal.Correction>
0.0230

> <Gold.Rescore>
     Score         DG    S(hbond)    S(metal)    S(lipo)     H(rot)  DE(clash)    DE(int)     intcor
     10.91     -11.98       0.00        0.00      95.44       1.82       0.09       0.99       ----

> <Gold.Chemscore.Fitness>
10.9084

> <Gold.Chemscore.DG>
-11.9845

> <Gold.Chemscore.ZeroCoef>
-5.4800

> <Gold.Chemscore.Hbond>
0.0000

> <Gold.Chemscore.Metal>
0.0000

> <Gold.Chemscore.Lipo>
95.4438

> <Gold.Chemscore.Internal_Hbond>
0.0000

> <Gold.Chemscore.DEClash>
0.0871

> <Gold.Chemscore.DEInternal>
0.9890

> <Gold.Chemscore.Rot>
1.8213

> <Gold.Chemscore.Internal.Correction>
   9.000000E+99

> <Gold.Chemscore.Hbond.Weighted>
-0.0000

> <Gold.Chemscore.Metal.Weighted>
-0.0000

> <Gold.Chemscore.Lipo.Weighted>
-11.1669

> <Gold.Chemscore.Internal_Hbond.Weighted>
0.0000

> <Gold.Chemscore.DEClash.Weighted>
0.0871

> <Gold.Chemscore.DEInternal.Weighted>
0.9890

> <Gold.Chemscore.Rot.Weighted>
4.6624

> <Gold.Chemscore.Internal.Correction.Weighted>
   9.000000E+99

> <Gold.Protein.RotatedTorsions>
[ 6907 6896 6895 6894 ] final -127.46 input  -60.11 | X-H torsion
[ 7974 7965 7964 7962 ] final -125.48 input  175.53 | X-H torsion
[ 8008 7997 7996 7995 ] final  108.63 input   59.86 | X-H torsion
[ 10167 10162 10161 10158 ] final  136.08 input  -65.29 | X-H torsion
[ 10718 10713 10712 10709 ] final  148.26 input   66.30 | X-H torsion
[ 10763 10752 10751 10750 ] final  143.07 input  -60.55 | X-H torsion
[ 11005 11000 10999 10996 ] final -127.51 input  -57.11 | X-H torsion

> <Gold.Protein.ActiveResidues>
 VAL166  LYS551  ARG553  GLY616  TRP617  ASP618  TYR619  PRO620  LYS621  CYS622 
 ASP623  PHE694  ASN695  SER759  ASP760  ASP761  ALA762  ILE779  LEU786  VAL792 
 PHE793  MET794  SER795  GLU796  ALA797  LYS798  CYS799  TRP800  GLU811  SER814 

> <Gold.Protein.RotatedAtoms>
  150.9076  133.7039  159.2862 H   0  0  0  0  0  0  0  0  0  0  0  0  # atno 6907 bound_to 6896
  151.4536  135.1031  159.9714 H   0  0  0  0  0  0  0  0  0  0  0  0  # atno 6908 bound_to 6896
  152.4912  133.8455  159.7230 H   0  0  0  0  0  0  0  0  0  0  0  0  # atno 6909 bound_to 6896
  144.9972  140.7787  143.4518 H   0  0  0  0  0  0  0  0  0  0  0  0  # atno 7974 bound_to 7965
  156.1918  140.3073  155.9347 H   0  0  0  0  0  0  0  0  0  0  0  0  # atno 8008 bound_to 7997
  155.3156  140.0453  157.3054 H   0  0  0  0  0  0  0  0  0  0  0  0  # atno 8009 bound_to 7997
  154.5461  140.2277  155.8570 H   0  0  0  0  0  0  0  0  0  0  0  0  # atno 8010 bound_to 7997
  139.5193  144.6483  151.5376 H   0  0  0  0  0  0  0  0  0  0  0  0  # atno 10167 bound_to 10162
  157.3108  131.0887  151.1318 H   0  0  0  0  0  0  0  0  0  0  0  0  # atno 10718 bound_to 10713
  153.9662  135.2955  155.3430 H   0  0  0  0  0  0  0  0  0  0  0  0  # atno 10763 bound_to 10752
  154.7348  135.5051  153.9026 H   0  0  0  0  0  0  0  0  0  0  0  0  # atno 10764 bound_to 10752
  153.0922  135.6711  153.9943 H   0  0  0  0  0  0  0  0  0  0  0  0  # atno 10765 bound_to 10752
  140.9593  134.0958  157.3984 H   0  0  0  0  0  0  0  0  0  0  0  0  # atno 11005 bound_to 11000
  145.2203  139.2162  143.5096 LP  0  0  0  0  0  0  0  0  0  0  0  0  # atno 17320 bound_to 7965
  146.3444  140.2060  142.8589 LP  0  0  0  0  0  0  0  0  0  0  0  0  # atno 17321 bound_to 7965
  140.6277  143.9136  150.6579 LP  0  0  0  0  0  0  0  0  0  0  0  0  # atno 17342 bound_to 10162
  140.2430  143.3649  152.1470 LP  0  0  0  0  0  0  0  0  0  0  0  0  # atno 17343 bound_to 10162
  157.2641  130.6673  149.5988 LP  0  0  0  0  0  0  0  0  0  0  0  0  # atno 17370 bound_to 10713
  155.9677  130.4499  150.5678 LP  0  0  0  0  0  0  0  0  0  0  0  0  # atno 17371 bound_to 10713
  139.8873  135.0088  156.6550 LP  0  0  0  0  0  0  0  0  0  0  0  0  # atno 17394 bound_to 11000
  140.7490  133.8913  155.8333 LP  0  0  0  0  0  0  0  0  0  0  0  0  # atno 17395 bound_to 11000

$$$$
