AV-unprocessed.smi:657|AV-procd|sdf|3229|dock5
  -GOLD-   22720 0173D 1   1.00000     0.00000
 Structure written by MMmdl.
 46 47  0  0  0  0  0  0  0  0  3 V2000
  148.1335  135.2571  154.8349 C   0  0  0  0  0  0  0  0  0  0  0  0
  148.7305  136.6185  155.2300 C   0  0  0  0  0  0  0  0  0  0  0  0
  148.4432  136.9586  156.7058 C   0  0  0  0  0  0  0  0  0  0  0  0
  148.3307  137.7055  154.2734 N   0  3  1  0  0  0  0  0  0  0  0  0
  146.8541  137.7985  154.0727 C   0  0  0  0  0  0  0  0  0  0  0  0
  146.4872  138.7681  152.9417 C   0  0  0  0  0  0  0  0  0  0  0  0
  147.0414  140.1616  153.2383 C   0  0  0  0  0  0  0  0  0  0  0  0
  148.5566  140.0689  153.4320 C   0  0  0  0  0  0  0  0  0  0  0  0
  148.9455  139.0517  154.5335 C   0  0  2  0  0  0  0  0  0  0  0  0
  150.4855  139.0038  154.6062 C   0  0  0  0  0  0  0  0  0  0  0  0
  151.0459  137.9167  154.4254 O   0  0  0  0  0  0  0  0  0  0  0  0
  151.0068  140.2284  154.8932 N   0  5  0  0  0  0  0  0  0  0  0  0
  150.5362  141.0788  155.9874 C   0  0  0  0  0  0  0  0  0  0  0  0
  151.3430  140.8097  157.2784 C   0  0  0  0  0  0  0  0  0  0  0  0
  151.6028  142.0358  158.1293 C   0  0  0  0  0  0  0  0  0  0  0  0
  152.3873  142.1025  159.3166 C   0  0  0  0  0  0  0  0  0  0  0  0
  152.4415  143.3180  159.8366 N   0  0  0  0  0  0  0  0  0  0  0  0
  151.6869  144.0688  159.0093 N   0  0  0  0  0  0  0  0  0  0  0  0
  151.5256  145.4816  159.2755 C   0  0  0  0  0  0  0  0  0  0  0  0
  151.1555  143.3218  157.9809 C   0  0  0  0  0  0  0  0  0  0  0  0
  148.5788  134.4582  155.4289 H   0  0  0  0  0  0  0  0  0  0  0  0
  148.3314  135.0304  153.7869 H   0  0  0  0  0  0  0  0  0  0  0  0
  147.0570  135.2110  154.9953 H   0  0  0  0  0  0  0  0  0  0  0  0
  149.8034  136.4608  155.1490 H   0  0  0  0  0  0  0  0  0  0  0  0
  148.8203  136.1720  157.3595 H   0  0  0  0  0  0  0  0  0  0  0  0
  147.3768  137.0542  156.9080 H   0  0  0  0  0  0  0  0  0  0  0  0
  148.9318  137.8846  157.0079 H   0  0  0  0  0  0  0  0  0  0  0  0
  146.4345  136.8231  153.8328 H   0  0  0  0  0  0  0  0  0  0  0  0
  146.3744  138.1311  154.9937 H   0  0  0  0  0  0  0  0  0  0  0  0
  146.8836  138.4015  151.9937 H   0  0  0  0  0  0  0  0  0  0  0  0
  145.4037  138.8160  152.8293 H   0  0  0  0  0  0  0  0  0  0  0  0
  146.8058  140.8447  152.4218 H   0  0  0  0  0  0  0  0  0  0  0  0
  146.5740  140.5688  154.1357 H   0  0  0  0  0  0  0  0  0  0  0  0
  149.0144  139.7892  152.4815 H   0  0  0  0  0  0  0  0  0  0  0  0
  148.9483  141.0566  153.6801 H   0  0  0  0  0  0  0  0  0  0  0  0
  148.5354  139.4173  155.4775 H   0  0  0  0  0  0  0  0  0  0  0  0
  150.5938  142.1425  155.7519 H   0  0  0  0  0  0  0  0  0  0  0  0
  149.4826  140.8906  156.1937 H   0  0  0  0  0  0  0  0  0  0  0  0
  150.8077  140.0625  157.8647 H   0  0  0  0  0  0  0  0  0  0  0  0
  152.2858  140.3330  157.0070 H   0  0  0  0  0  0  0  0  0  0  0  0
  152.9278  141.3062  159.8066 H   0  0  0  0  0  0  0  0  0  0  0  0
  151.0678  145.9726  158.4164 H   0  0  0  0  0  0  0  0  0  0  0  0
  152.4979  145.9371  159.4657 H   0  0  0  0  0  0  0  0  0  0  0  0
  150.8864  145.6205  160.1476 H   0  0  0  0  0  0  0  0  0  0  0  0
  150.5224  143.7627  157.2251 H   0  0  0  0  0  0  0  0  0  0  0  0
  148.7150  137.4216  153.3838 H   0  0  0  0  0  0  0  0  0  0  0  0
  1  2  1  0  0  0  0
  1 21  1  0  0  0  0
  1 22  1  0  0  0  0
  1 23  1  0  0  0  0
  2  3  1  0  0  0  0
  2  4  1  0  0  0  0
  2 24  1  0  0  0  0
  3 25  1  0  0  0  0
  3 26  1  0  0  0  0
  3 27  1  0  0  0  0
  4  9  1  0  0  0  0
  4  5  1  0  0  0  0
  4 46  1  0  0  0  0
  5  6  1  0  0  0  0
  5 28  1  0  0  0  0
  5 29  1  0  0  0  0
  6  7  1  0  0  0  0
  6 30  1  0  0  0  0
  6 31  1  0  0  0  0
  7  8  1  0  0  0  0
  7 32  1  0  0  0  0
  7 33  1  0  0  0  0
  8  9  1  0  0  0  0
  8 34  1  0  0  0  0
  8 35  1  0  0  0  0
  9 10  1  0  0  0  0
  9 36  1  0  0  0  0
 10 11  2  0  0  0  0
 10 12  1  0  0  0  0
 12 13  1  0  0  0  0
 13 14  1  0  0  0  0
 13 37  1  0  0  0  0
 13 38  1  0  0  0  0
 14 15  1  0  0  0  0
 14 39  1  0  0  0  0
 14 40  1  0  0  0  0
 15 20  2  0  0  0  0
 15 16  1  0  0  0  0
 16 17  2  0  0  0  0
 16 41  1  0  0  0  0
 17 18  1  0  0  0  0
 18 19  1  0  0  0  0
 18 20  1  0  0  0  0
 19 42  1  0  0  0  0
 19 43  1  0  0  0  0
 19 44  1  0  0  0  0
 20 45  1  0  0  0  0
M  CHG  1   4   1
M  CHG  1  12  -1
M  END
> <s_m_source_file>
AV-unprocessed.smi

> <i_m_source_file_index>
657

> <i_lp_mmshare_version>
43012

> <i_f3d_flags>
0

> <s_epik_input>
W0NIM11bQ0hdKFtDSDNdKU4xW0NIMl1bQ0gyXVtDSDJdW0NIMl1bQ0BIXTFDKD1PKVtOSF1bQ0gyXVtDSDJdYzJbY0hdbm4oW0NIM10pW2NIXTI=

> <s_epik_cmdline>
J2VwaWtfcHl0aG9uJywgJy1waCcsICc3LjAnLCAnLXRuJywgJzgnLCAnLW1hJywgJzIwMCcsICctbWV0YWxfYmluZGluZycsICctaW1hZScsICc8aW5maWxlLm1hZT4nLCAnLW9tYWUnLCAnPG91dGZpbGUubWFlPic=

> <r_lp_tautomer_probability>
1

> <r_epik_Ionization_Penalty>
6.1622

> <r_epik_Ionization_Penalty_Charging>
6.16146

> <r_epik_Ionization_Penalty_Neutral>
0.00073675

> <r_epik_State_Penalty>
6.18018

> <r_epik_Charging_Adjusted_Penalty>
12.3416

> <i_epik_Tot_Q>
0

> <i_epik_Tot_abs_Q>
2

> <r_epik_Metal_State_Penalty>
2.12232

> <b_epik_Metal_Only>
1

> <s_lp_Force_Field>
OPLS_2005

> <r_lp_Energy>
9.74682

> <b_lp_Chiralities_Consistent>
1

> <s_lp_Variant>
AV-unprocessed.smi:657-10

> <Gold.Version>
5.8.1

> <Gold.Id.Protein>
6NUR|6NUR_protein|mol2

> <Gold.PLP.Fitness>
45.0940

> <Gold.PLP.PLP>
-34.8343

> <Gold.PLP.part.hbond>
-2.0000

> <Gold.PLP.part.metal>
0.0000

> <Gold.PLP.part.buried>
-0.5540

> <Gold.PLP.part.nonpolar>
-32.9909

> <Gold.PLP.part.repulsive>
0.2629

> <Gold.PLP.ligand.clash>
0.0000

> <Gold.PLP.ligand.torsion>
0.9647

> <Gold.PLP.Chemscore.Hbond>
3.0000

> <Gold.PLP.Chemscore.CHOScore>
1.0000

> <Gold.PLP.Chemscore.Metal>
0.0000

> <Gold.Chemscore.Hbonds>
donor molecule, donor type, donor heavy atom, donor atom, acceptor molecule, acceptor atom, score
      L1  H     4    46       P1  7948  2.00
      P1  H  7989  7998       L1    12  1.00
      L1  C    20    45       P1  8028  1.00

> <Gold.PLP.Chemscore.Internal.Correction>
0.1890

> <Gold.Rescore>
     Score         DG    S(hbond)    S(metal)    S(lipo)     H(rot)  DE(clash)    DE(int)     intcor
     14.17     -18.19       1.82        0.00      91.13       1.57       1.63       2.39       ----

> <Gold.Chemscore.Fitness>
14.1708

> <Gold.Chemscore.DG>
-18.1928

> <Gold.Chemscore.ZeroCoef>
-5.4800

> <Gold.Chemscore.Hbond>
1.8206

> <Gold.Chemscore.Metal>
0.0000

> <Gold.Chemscore.Lipo>
91.1251

> <Gold.Chemscore.Internal_Hbond>
0.0000

> <Gold.Chemscore.DEClash>
1.6293

> <Gold.Chemscore.DEInternal>
2.3927

> <Gold.Chemscore.Rot>
1.5741

> <Gold.Chemscore.Internal.Correction>
   9.000000E+99

> <Gold.Chemscore.Hbonds>
donor molecule, donor type, donor heavy atom, donor atom, acceptor molecule, acceptor atom, score
      L1  H     4    46       P1  7948  0.98
      P1  H  7989  7998       L1    12  0.69

> <Gold.Chemscore.Hbond.Weighted>
-6.0808

> <Gold.Chemscore.Metal.Weighted>
-0.0000

> <Gold.Chemscore.Lipo.Weighted>
-10.6616

> <Gold.Chemscore.Internal_Hbond.Weighted>
0.0000

> <Gold.Chemscore.DEClash.Weighted>
1.6293

> <Gold.Chemscore.DEInternal.Weighted>
2.3927

> <Gold.Chemscore.Rot.Weighted>
4.0297

> <Gold.Chemscore.Internal.Correction.Weighted>
   9.000000E+99

> <Gold.Protein.RotatedTorsions>
[ 6907 6896 6895 6894 ] final -165.74 input  -60.11 | X-H torsion
[ 7974 7965 7964 7962 ] final   57.26 input  175.53 | X-H torsion
[ 8008 7997 7996 7995 ] final  151.28 input   59.86 | X-H torsion
[ 10167 10162 10161 10158 ] final   20.47 input  -65.29 | X-H torsion
[ 10718 10713 10712 10709 ] final   97.36 input   66.30 | X-H torsion
[ 10763 10752 10751 10750 ] final -107.61 input  -60.55 | X-H torsion
[ 11005 11000 10999 10996 ] final  112.38 input  -57.11 | X-H torsion

> <Gold.Protein.ActiveResidues>
 VAL166  LYS551  ARG553  GLY616  TRP617  ASP618  TYR619  PRO620  LYS621  CYS622 
 ASP623  PHE694  ASN695  SER759  ASP760  ASP761  ALA762  ILE779  LEU786  VAL792 
 PHE793  MET794  SER795  GLU796  ALA797  LYS798  CYS799  TRP800  GLU811  SER814 

> <Gold.Protein.RotatedAtoms>
  151.4325  133.3666  159.2770 H   0  0  0  0  0  0  0  0  0  0  0  0  # atno 6907 bound_to 6896
  150.9214  134.8633  159.7502 H   0  0  0  0  0  0  0  0  0  0  0  0  # atno 6908 bound_to 6896
  152.4984  134.4263  159.9549 H   0  0  0  0  0  0  0  0  0  0  0  0  # atno 6909 bound_to 6896
  145.9310  139.3807  143.0421 H   0  0  0  0  0  0  0  0  0  0  0  0  # atno 7974 bound_to 7965
  156.2680  140.2052  156.6150 H   0  0  0  0  0  0  0  0  0  0  0  0  # atno 8008 bound_to 7997
  154.6801  140.0541  157.0281 H   0  0  0  0  0  0  0  0  0  0  0  0  # atno 8009 bound_to 7997
  155.1012  140.3206  155.4549 H   0  0  0  0  0  0  0  0  0  0  0  0  # atno 8010 bound_to 7997
  140.5501  143.9524  150.6572 H   0  0  0  0  0  0  0  0  0  0  0  0  # atno 10167 bound_to 10162
  157.6913  131.0607  150.4631 H   0  0  0  0  0  0  0  0  0  0  0  0  # atno 10718 bound_to 10713
  154.8086  135.4668  154.0456 H   0  0  0  0  0  0  0  0  0  0  0  0  # atno 10763 bound_to 10752
  153.1905  135.6854  153.8365 H   0  0  0  0  0  0  0  0  0  0  0  0  # atno 10764 bound_to 10752
  153.7884  135.3246  155.3352 H   0  0  0  0  0  0  0  0  0  0  0  0  # atno 10765 bound_to 10752
  139.8926  134.9528  156.6576 H   0  0  0  0  0  0  0  0  0  0  0  0  # atno 11005 bound_to 11000
  145.8426  140.9572  143.0791 LP  0  0  0  0  0  0  0  0  0  0  0  0  # atno 17320 bound_to 7965
  144.6765  140.0304  143.7482 LP  0  0  0  0  0  0  0  0  0  0  0  0  # atno 17321 bound_to 7965
  140.2948  143.3300  152.1028 LP  0  0  0  0  0  0  0  0  0  0  0  0  # atno 17342 bound_to 10162
  139.5024  144.6733  151.6189 LP  0  0  0  0  0  0  0  0  0  0  0  0  # atno 17343 bound_to 10162
  156.4974  130.4109  149.6372 LP  0  0  0  0  0  0  0  0  0  0  0  0  # atno 17370 bound_to 10713
  156.3360  130.7356  151.2294 LP  0  0  0  0  0  0  0  0  0  0  0  0  # atno 17371 bound_to 10713
  140.7472  133.8928  155.8320 LP  0  0  0  0  0  0  0  0  0  0  0  0  # atno 17394 bound_to 11000
  141.0030  134.1124  157.4298 LP  0  0  0  0  0  0  0  0  0  0  0  0  # atno 17395 bound_to 11000

$$$$
