AV-unprocessed.smi:170|AV-procd|sdf|1409|dock10
  -GOLD-   2262019163D 1   1.00000     0.00000
 Structure written by MMmdl.
 57 61  0  0  0  0  0  0  0  0  1 V2000
  144.0428  144.2805  157.4048 O   0  0  0  0  0  0  0  0  0  0  0  0
  144.1516  144.9224  156.1481 C   0  0  1  0  0  0  0  0  0  0  0  0
  144.2006  143.8856  155.0094 C   0  0  0  0  0  0  0  0  0  0  0  0
  145.4535  143.1527  154.9816 N   0  0  0  0  0  0  0  0  0  0  0  0
  146.3394  143.0710  153.9323 C   0  0  0  0  0  0  0  0  0  0  0  0
  147.3995  142.3442  154.1577 N   0  0  0  0  0  0  0  0  0  0  0  0
  147.2371  141.8964  155.4641 C   0  0  0  0  0  0  0  0  0  0  0  0
  148.0058  141.0825  156.3473 C   0  0  0  0  0  0  0  0  0  0  0  0
  149.2007  140.5163  156.0547 N   0  0  0  0  0  0  0  0  0  0  0  0
  149.1485  139.8540  154.7562 C   0  0  0  0  0  0  0  0  0  0  0  0
  150.4220  139.0300  154.5250 C   0  0  0  0  0  0  0  0  0  0  0  0
  151.5526  139.8822  154.6451 O   0  0  0  0  0  0  0  0  0  0  0  0
  151.6552  140.4477  155.9469 C   0  0  0  0  0  0  0  0  0  0  0  0
  150.4150  141.3171  156.2617 C   0  0  2  0  0  0  0  0  0  0  0  0
  150.4974  141.9154  157.6906 C   0  0  0  0  0  0  0  0  0  0  0  0
  151.6915  142.8430  157.9042 C   0  0  0  0  0  0  0  0  0  0  0  0
  152.0946  143.2483  159.3300 C   0  0  0  0  0  0  0  0  0  0  0  0
  152.4907  144.6209  158.7786 C   0  0  0  0  0  0  0  0  0  0  0  0
  151.5563  144.3428  157.5986 C   0  0  0  0  0  0  0  0  0  0  0  0
  147.4988  140.8341  157.5806 N   0  0  0  0  0  0  0  0  0  0  0  0
  146.3259  141.3623  157.9429 C   0  0  0  0  0  0  0  0  0  0  0  0
  145.5107  142.1497  157.2380 N   0  0  0  0  0  0  0  0  0  0  0  0
  146.0106  142.3903  155.9921 C   0  0  0  0  0  0  0  0  0  0  0  0
  143.0141  145.9479  155.9714 C   0  0  2  0  0  0  0  0  0  0  0  0
  141.5802  145.3960  156.0456 C   0  0  0  0  0  0  0  0  0  0  0  0
  140.9023  145.9730  154.8126 C   0  0  0  0  0  0  0  0  0  0  0  0
  141.8235  147.1174  154.4062 C   0  0  0  0  0  0  0  0  0  0  0  0
  143.1113  146.6140  154.7177 O   0  0  0  0  0  0  0  0  0  0  0  0
  144.8595  143.8404  157.5847 H   0  0  0  0  0  0  0  0  0  0  0  0
  145.0957  145.4688  156.1585 H   0  0  0  0  0  0  0  0  0  0  0  0
  143.3824  143.1703  155.1032 H   0  0  0  0  0  0  0  0  0  0  0  0
  144.0734  144.3791  154.0451 H   0  0  0  0  0  0  0  0  0  0  0  0
  146.1717  143.5671  152.9873 H   0  0  0  0  0  0  0  0  0  0  0  0
  148.2761  139.2016  154.6970 H   0  0  0  0  0  0  0  0  0  0  0  0
  149.0424  140.6043  153.9711 H   0  0  0  0  0  0  0  0  0  0  0  0
  150.4911  138.2057  155.2367 H   0  0  0  0  0  0  0  0  0  0  0  0
  150.4110  138.5918  153.5272 H   0  0  0  0  0  0  0  0  0  0  0  0
  151.7767  139.6554  156.6874 H   0  0  0  0  0  0  0  0  0  0  0  0
  152.5642  141.0478  155.9730 H   0  0  0  0  0  0  0  0  0  0  0  0
  150.4048  142.1323  155.5389 H   0  0  0  0  0  0  0  0  0  0  0  0
  149.5915  142.4759  157.9184 H   0  0  0  0  0  0  0  0  0  0  0  0
  150.5246  141.1050  158.4200 H   0  0  0  0  0  0  0  0  0  0  0  0
  152.5798  142.4615  157.3974 H   0  0  0  0  0  0  0  0  0  0  0  0
  151.2467  143.2998  160.0150 H   0  0  0  0  0  0  0  0  0  0  0  0
  152.9176  142.6711  159.7525 H   0  0  0  0  0  0  0  0  0  0  0  0
  152.2001  145.4663  159.4028 H   0  0  0  0  0  0  0  0  0  0  0  0
  153.5400  144.6734  158.4837 H   0  0  0  0  0  0  0  0  0  0  0  0
  151.9433  144.6463  156.6254 H   0  0  0  0  0  0  0  0  0  0  0  0
  150.5451  144.7189  157.7642 H   0  0  0  0  0  0  0  0  0  0  0  0
  145.9930  141.1199  158.9415 H   0  0  0  0  0  0  0  0  0  0  0  0
  143.1197  146.7163  156.7394 H   0  0  0  0  0  0  0  0  0  0  0  0
  141.5324  144.3068  156.0440 H   0  0  0  0  0  0  0  0  0  0  0  0
  141.0920  145.7423  156.9572 H   0  0  0  0  0  0  0  0  0  0  0  0
  140.8795  145.2231  154.0209 H   0  0  0  0  0  0  0  0  0  0  0  0
  139.8788  146.2990  154.9998 H   0  0  0  0  0  0  0  0  0  0  0  0
  141.7352  147.3776  153.3514 H   0  0  0  0  0  0  0  0  0  0  0  0
  141.6248  148.0102  155.0014 H   0  0  0  0  0  0  0  0  0  0  0  0
  1  2  1  0  0  0  0
  1 29  1  0  0  0  0
  2  3  1  0  0  0  0
  2 24  1  0  0  0  0
  2 30  1  0  0  0  0
  3  4  1  0  0  0  0
  3 31  1  0  0  0  0
  3 32  1  0  0  0  0
  4 23  1  0  0  0  0
  4  5  1  0  0  0  0
  5  6  2  0  0  0  0
  5 33  1  0  0  0  0
  6  7  1  0  0  0  0
  7 23  2  0  0  0  0
  7  8  1  0  0  0  0
  8  9  1  0  0  0  0
  8 20  2  0  0  0  0
  9 14  1  0  0  0  0
  9 10  1  0  0  0  0
 10 11  1  0  0  0  0
 10 34  1  0  0  0  0
 10 35  1  0  0  0  0
 11 12  1  0  0  0  0
 11 36  1  0  0  0  0
 11 37  1  0  0  0  0
 12 13  1  0  0  0  0
 13 14  1  0  0  0  0
 13 38  1  0  0  0  0
 13 39  1  0  0  0  0
 14 15  1  0  0  0  0
 14 40  1  0  0  0  0
 15 16  1  0  0  0  0
 15 41  1  0  0  0  0
 15 42  1  0  0  0  0
 16 19  1  0  0  0  0
 16 17  1  0  0  0  0
 16 43  1  0  0  0  0
 17 18  1  0  0  0  0
 17 44  1  0  0  0  0
 17 45  1  0  0  0  0
 18 19  1  0  0  0  0
 18 46  1  0  0  0  0
 18 47  1  0  0  0  0
 19 48  1  0  0  0  0
 19 49  1  0  0  0  0
 20 21  1  0  0  0  0
 21 22  2  0  0  0  0
 21 50  1  0  0  0  0
 22 23  1  0  0  0  0
 24 28  1  0  0  0  0
 24 25  1  0  0  0  0
 24 51  1  0  0  0  0
 25 26  1  0  0  0  0
 25 52  1  0  0  0  0
 25 53  1  0  0  0  0
 26 27  1  0  0  0  0
 26 54  1  0  0  0  0
 26 55  1  0  0  0  0
 27 28  1  0  0  0  0
 27 56  1  0  0  0  0
 27 57  1  0  0  0  0
M  END
> <s_m_source_file>
AV-unprocessed.smi

> <i_m_source_file_index>
170

> <i_lp_mmshare_version>
43012

> <i_f3d_flags>
0

> <s_epik_input>
TzFbQ0gyXVtDSDJdW0NIMl1bQ0BIXTFbQ0BIXShbT0hdKVtDSDJdbihbY0hdbjIpYyhjMjMpbltjSF1uYzNONFtDSDJdW0NIMl1PW0NIMl1bQ0BIXTRbQ0gyXVtDSF01W0NIMl1bQ0gyXVtDSDJdNQ==

> <s_epik_cmdline>
J2VwaWtfcHl0aG9uJywgJy1waCcsICc3LjAnLCAnLXRuJywgJzgnLCAnLW1hJywgJzIwMCcsICctbWV0YWxfYmluZGluZycsICctaW1hZScsICc8aW5maWxlLm1hZT4nLCAnLW9tYWUnLCAnPG91dGZpbGUubWFlPic=

> <r_lp_tautomer_probability>
1

> <r_epik_Ionization_Penalty>
4.98275e-05

> <r_epik_Ionization_Penalty_Charging>
0

> <r_epik_Ionization_Penalty_Neutral>
4.98275e-05

> <r_epik_State_Penalty>
-0

> <r_epik_Charging_Adjusted_Penalty>
0

> <i_epik_Tot_Q>
0

> <i_epik_Tot_abs_Q>
0

> <r_epik_Metal_State_Penalty>
-0

> <b_epik_Metal_Only>
0

> <s_lp_Force_Field>
OPLS_2005

> <r_lp_Energy>
52.3548

> <b_lp_Chiralities_Consistent>
1

> <s_lp_Variant>
AV-unprocessed.smi:170-4

> <Gold.Version>
5.8.1

> <Gold.Id.Protein>
6NUR|6NUR_protein|mol2

> <Gold.PLP.Fitness>
49.1166

> <Gold.PLP.PLP>
-47.4389

> <Gold.PLP.part.hbond>
-1.9852

> <Gold.PLP.part.metal>
0.0000

> <Gold.PLP.part.buried>
-8.5008

> <Gold.PLP.part.nonpolar>
-37.1753

> <Gold.PLP.part.repulsive>
0.6425

> <Gold.PLP.ligand.clash>
0.0000

> <Gold.PLP.ligand.torsion>
0.8165

> <Gold.PLP.Chemscore.Hbond>
1.0000

> <Gold.PLP.Chemscore.CHOScore>
0.0000

> <Gold.PLP.Chemscore.Metal>
0.0000

> <Gold.Chemscore.Hbonds>
donor molecule, donor type, donor heavy atom, donor atom, acceptor molecule, acceptor atom, score
      P1  H  7989  7998       L1    12  0.94

> <Gold.PLP.Chemscore.Internal.Correction>
0.3108

> <Gold.Rescore>
     Score         DG    S(hbond)    S(metal)    S(lipo)     H(rot)  DE(clash)    DE(int)     intcor
     11.59     -15.94       0.74        0.00     125.44       2.61       2.18       2.16       ----

> <Gold.Chemscore.Fitness>
11.5938

> <Gold.Chemscore.DG>
-15.9385

> <Gold.Chemscore.ZeroCoef>
-5.4800

> <Gold.Chemscore.Hbond>
0.7412

> <Gold.Chemscore.Metal>
0.0000

> <Gold.Chemscore.Lipo>
125.4361

> <Gold.Chemscore.Internal_Hbond>
0.0000

> <Gold.Chemscore.DEClash>
2.1827

> <Gold.Chemscore.DEInternal>
2.1621

> <Gold.Chemscore.Rot>
2.6144

> <Gold.Chemscore.Internal.Correction>
   9.000000E+99

> <Gold.Chemscore.Hbonds>
donor molecule, donor type, donor heavy atom, donor atom, acceptor molecule, acceptor atom, score
      P1  H  7989  7998       L1    12  0.68

> <Gold.Chemscore.Hbond.Weighted>
-2.4755

> <Gold.Chemscore.Metal.Weighted>
-0.0000

> <Gold.Chemscore.Lipo.Weighted>
-14.6760

> <Gold.Chemscore.Internal_Hbond.Weighted>
0.0000

> <Gold.Chemscore.DEClash.Weighted>
2.1827

> <Gold.Chemscore.DEInternal.Weighted>
2.1621

> <Gold.Chemscore.Rot.Weighted>
6.6929

> <Gold.Chemscore.Internal.Correction.Weighted>
   9.000000E+99

> <Gold.Protein.RotatedTorsions>
[ 6907 6896 6895 6894 ] final  -10.15 input  -60.11 | X-H torsion
[ 7974 7965 7964 7962 ] final  172.43 input  175.53 | X-H torsion
[ 8008 7997 7996 7995 ] final  -36.19 input   59.86 | X-H torsion
[ 10167 10162 10161 10158 ] final  175.22 input  -65.29 | X-H torsion
[ 10718 10713 10712 10709 ] final   15.02 input   66.30 | X-H torsion
[ 10763 10752 10751 10750 ] final -118.29 input  -60.55 | X-H torsion
[ 11005 11000 10999 10996 ] final   -2.67 input  -57.11 | X-H torsion

> <Gold.Protein.ActiveResidues>
 VAL166  LYS551  ARG553  GLY616  TRP617  ASP618  TYR619  PRO620  LYS621  CYS622 
 ASP623  PHE694  ASN695  SER759  ASP760  ASP761  ALA762  ILE779  LEU786  VAL792 
 PHE793  MET794  SER795  GLU796  ALA797  LYS798  CYS799  TRP800  GLU811  SER814 

> <Gold.Protein.RotatedAtoms>
  151.4066  135.0979  159.9571 H   0  0  0  0  0  0  0  0  0  0  0  0  # atno 6907 bound_to 6896
  152.5033  133.8838  159.7370 H   0  0  0  0  0  0  0  0  0  0  0  0  # atno 6908 bound_to 6896
  150.9323  133.6695  159.2836 H   0  0  0  0  0  0  0  0  0  0  0  0  # atno 6909 bound_to 6896
  144.7268  139.9497  143.6431 H   0  0  0  0  0  0  0  0  0  0  0  0  # atno 7974 bound_to 7965
  154.4078  140.1637  156.2334 H   0  0  0  0  0  0  0  0  0  0  0  0  # atno 8008 bound_to 7997
  155.9263  140.3418  155.6190 H   0  0  0  0  0  0  0  0  0  0  0  0  # atno 8009 bound_to 7997
  155.7161  140.0762  157.2341 H   0  0  0  0  0  0  0  0  0  0  0  0  # atno 8010 bound_to 7997
  139.5169  144.3056  152.0339 H   0  0  0  0  0  0  0  0  0  0  0  0  # atno 10167 bound_to 10162
  157.0476  130.6256  149.5762 H   0  0  0  0  0  0  0  0  0  0  0  0  # atno 10718 bound_to 10713
  154.8583  135.4279  154.2115 H   0  0  0  0  0  0  0  0  0  0  0  0  # atno 10763 bound_to 10752
  153.3140  135.6977  153.7096 H   0  0  0  0  0  0  0  0  0  0  0  0  # atno 10764 bound_to 10752
  153.6177  135.3507  155.2974 H   0  0  0  0  0  0  0  0  0  0  0  0  # atno 10765 bound_to 10752
  140.6609  133.9321  155.8436 H   0  0  0  0  0  0  0  0  0  0  0  0  # atno 11005 bound_to 11000
  146.0721  139.3709  143.0517 LP  0  0  0  0  0  0  0  0  0  0  0  0  # atno 17320 bound_to 7965
  145.7954  140.9795  143.1026 LP  0  0  0  0  0  0  0  0  0  0  0  0  # atno 17321 bound_to 7965
  140.2502  144.4177  150.6225 LP  0  0  0  0  0  0  0  0  0  0  0  0  # atno 17342 bound_to 10162
  140.6230  143.2178  151.6655 LP  0  0  0  0  0  0  0  0  0  0  0  0  # atno 17343 bound_to 10162
  156.0018  130.5098  150.7690 LP  0  0  0  0  0  0  0  0  0  0  0  0  # atno 17370 bound_to 10713
  157.5056  131.0922  151.0261 LP  0  0  0  0  0  0  0  0  0  0  0  0  # atno 17371 bound_to 10713
  141.0466  134.0545  157.3837 LP  0  0  0  0  0  0  0  0  0  0  0  0  # atno 17394 bound_to 11000
  139.9013  135.0165  156.7282 LP  0  0  0  0  0  0  0  0  0  0  0  0  # atno 17395 bound_to 11000

$$$$
