AV-unprocessed.smi:3311|AV-procd|sdf|12724|dock2
  -GOLD-   2272019 63D 1   1.00000     0.00000
 Structure written by MMmdl.
 43 44  0  0  0  0  0  0  0  0  1 V2000
  147.6981  140.2000  157.1930 C   0  0  0  0  0  0  0  0  0  0  0  0
  147.7884  141.5192  156.3947 C   0  0  1  0  0  0  0  0  0  0  0  0
  148.5601  142.5346  157.1207 N   0  0  0  0  0  0  0  0  0  0  0  0
  149.8018  142.0764  157.7486 C   0  0  0  0  0  0  0  0  0  0  0  0
  150.7073  143.2500  158.1863 C   0  0  0  0  0  0  0  0  0  0  0  0
  151.0911  143.9391  157.0091 O   0  0  0  0  0  0  0  0  0  0  0  0
  149.9934  144.2250  159.1576 C   0  0  0  0  0  0  0  0  0  0  0  0
  150.9297  145.3124  159.7148 C   0  0  0  0  0  0  0  0  0  0  0  0
  152.1713  144.6997  160.3764 C   0  0  0  0  0  0  0  0  0  0  0  0
  152.9189  143.7867  159.3953 C   0  0  0  0  0  0  0  0  0  0  0  0
  151.9936  142.6895  158.8389 C   0  0  0  0  0  0  0  0  0  0  0  0
  148.3811  141.3412  154.9705 C   0  0  2  0  0  0  0  0  0  0  0  0
  147.2901  141.1963  153.8937 C   0  0  0  0  0  0  0  0  0  0  0  0
  149.3560  140.2552  154.8899 N   0  0  0  0  0  0  0  0  0  0  0  0
  150.5896  140.1351  155.5022 C   0  0  0  0  0  0  0  0  0  0  0  0
  151.1418  138.9568  155.0890 C   0  0  0  0  0  0  0  0  0  0  0  0
  150.1666  138.4197  154.2045 C   0  0  0  0  0  0  0  0  0  0  0  0
  149.1053  139.1996  154.0830 N   0  0  0  0  0  0  0  0  0  0  0  0
  147.2241  139.4125  156.6079 H   0  0  0  0  0  0  0  0  0  0  0  0
  147.0986  140.3166  158.0952 H   0  0  0  0  0  0  0  0  0  0  0  0
  148.6828  139.8417  157.4948 H   0  0  0  0  0  0  0  0  0  0  0  0
  146.7726  141.8968  156.2727 H   0  0  0  0  0  0  0  0  0  0  0  0
  148.7607  143.3179  156.5062 H   0  0  0  0  0  0  0  0  0  0  0  0
  149.5583  141.4643  158.6181 H   0  0  0  0  0  0  0  0  0  0  0  0
  150.3627  141.4355  157.0682 H   0  0  0  0  0  0  0  0  0  0  0  0
  150.3091  144.1853  156.5395 H   0  0  0  0  0  0  0  0  0  0  0  0
  149.1452  144.7054  158.6683 H   0  0  0  0  0  0  0  0  0  0  0  0
  149.5790  143.6579  159.9923 H   0  0  0  0  0  0  0  0  0  0  0  0
  151.2363  145.9823  158.9107 H   0  0  0  0  0  0  0  0  0  0  0  0
  150.3919  145.9277  160.4366 H   0  0  0  0  0  0  0  0  0  0  0  0
  152.8341  145.4905  160.7289 H   0  0  0  0  0  0  0  0  0  0  0  0
  151.8746  144.1280  161.2567 H   0  0  0  0  0  0  0  0  0  0  0  0
  153.3249  144.3812  158.5761 H   0  0  0  0  0  0  0  0  0  0  0  0
  153.7737  143.3300  159.8946 H   0  0  0  0  0  0  0  0  0  0  0  0
  151.7187  142.0238  159.6581 H   0  0  0  0  0  0  0  0  0  0  0  0
  152.5434  142.0743  158.1248 H   0  0  0  0  0  0  0  0  0  0  0  0
  148.9110  142.2624  154.7182 H   0  0  0  0  0  0  0  0  0  0  0  0
  146.6262  142.0611  153.8942 H   0  0  0  0  0  0  0  0  0  0  0  0
  146.6739  140.3106  154.0470 H   0  0  0  0  0  0  0  0  0  0  0  0
  147.7307  141.1252  152.8989 H   0  0  0  0  0  0  0  0  0  0  0  0
  150.9730  140.8899  156.1725 H   0  0  0  0  0  0  0  0  0  0  0  0
  152.0988  138.5443  155.3716 H   0  0  0  0  0  0  0  0  0  0  0  0
  150.1992  137.4946  153.6479 H   0  0  0  0  0  0  0  0  0  0  0  0
  1  2  1  0  0  0  0
  1 19  1  0  0  0  0
  1 20  1  0  0  0  0
  1 21  1  0  0  0  0
  2  3  1  0  0  0  0
  2 12  1  0  0  0  0
  2 22  1  0  0  0  0
  3  4  1  0  0  0  0
  3 23  1  0  0  0  0
  4  5  1  0  0  0  0
  4 24  1  0  0  0  0
  4 25  1  0  0  0  0
  5 11  1  0  0  0  0
  5  6  1  0  0  0  0
  5  7  1  0  0  0  0
  6 26  1  0  0  0  0
  7  8  1  0  0  0  0
  7 27  1  0  0  0  0
  7 28  1  0  0  0  0
  8  9  1  0  0  0  0
  8 29  1  0  0  0  0
  8 30  1  0  0  0  0
  9 10  1  0  0  0  0
  9 31  1  0  0  0  0
  9 32  1  0  0  0  0
 10 11  1  0  0  0  0
 10 33  1  0  0  0  0
 10 34  1  0  0  0  0
 11 35  1  0  0  0  0
 11 36  1  0  0  0  0
 12 13  1  0  0  0  0
 12 14  1  0  0  0  0
 12 37  1  0  0  0  0
 13 38  1  0  0  0  0
 13 39  1  0  0  0  0
 13 40  1  0  0  0  0
 14 18  1  0  0  0  0
 14 15  1  0  0  0  0
 15 16  2  0  0  0  0
 15 41  1  0  0  0  0
 16 17  1  0  0  0  0
 16 42  1  0  0  0  0
 17 18  2  0  0  0  0
 17 43  1  0  0  0  0
M  END
> <s_m_source_file>
AV-unprocessed.smi

> <i_m_source_file_index>
3311

> <i_lp_mmshare_version>
43012

> <i_f3d_flags>
0

> <s_epik_input>
bjFbY0hdW2NIXVtjSF1uMVtDQEBIXShbQ0gzXSlbQ0BIXShbQ0gzXSlbTkhdW0NIMl1DMihbT0hdKVtDSDJdW0NIMl1bQ0gyXVtDSDJdW0NIMl0y

> <s_epik_cmdline>
J2VwaWtfcHl0aG9uJywgJy1waCcsICc3LjAnLCAnLXRuJywgJzgnLCAnLW1hJywgJzIwMCcsICctbWV0YWxfYmluZGluZycsICctaW1hZScsICc8aW5maWxlLm1hZT4nLCAnLW9tYWUnLCAnPG91dGZpbGUubWFlPic=

> <r_lp_tautomer_probability>
1

> <r_epik_Ionization_Penalty>
2.222

> <r_epik_Ionization_Penalty_Charging>
0

> <r_epik_Ionization_Penalty_Neutral>
2.222

> <r_epik_State_Penalty>
2.36562

> <r_epik_Charging_Adjusted_Penalty>
2.36562

> <i_epik_Tot_Q>
0

> <i_epik_Tot_abs_Q>
0

> <r_epik_Metal_State_Penalty>
2.36435

> <b_epik_Metal_Only>
0

> <s_lp_Force_Field>
OPLS_2005

> <r_lp_Energy>
28.1428

> <b_lp_Chiralities_Consistent>
1

> <s_lp_Variant>
AV-unprocessed.smi:3311-6

> <Gold.Version>
5.8.1

> <Gold.Id.Protein>
6NUR|6NUR_protein|mol2

> <Gold.PLP.Fitness>
46.1613

> <Gold.PLP.PLP>
-39.2706

> <Gold.PLP.part.hbond>
-2.0000

> <Gold.PLP.part.metal>
0.0000

> <Gold.PLP.part.buried>
-6.8829

> <Gold.PLP.part.nonpolar>
-32.2811

> <Gold.PLP.part.repulsive>
1.1896

> <Gold.PLP.ligand.clash>
0.0000

> <Gold.PLP.ligand.torsion>
1.2927

> <Gold.PLP.Chemscore.Hbond>
2.0000

> <Gold.PLP.Chemscore.CHOScore>
1.1041

> <Gold.PLP.Chemscore.Metal>
0.0000

> <Gold.Chemscore.Hbonds>
donor molecule, donor type, donor heavy atom, donor atom, acceptor molecule, acceptor atom, score
      L1  H     3    23       P1  8028  1.00
      L1  H     6    26       P1  8028  1.00
      L1  C    17    43       P1  7948  1.00
      L1  C    17    43       P1  7949  0.09

> <Gold.PLP.Chemscore.Internal.Correction>
0.1638

> <Gold.Rescore>
     Score         DG    S(hbond)    S(metal)    S(lipo)     H(rot)  DE(clash)    DE(int)     intcor
     16.23     -17.69       1.59        0.00     104.35       2.07       0.01       1.45       ----

> <Gold.Chemscore.Fitness>
16.2324

> <Gold.Chemscore.DG>
-17.6947

> <Gold.Chemscore.ZeroCoef>
-5.4800

> <Gold.Chemscore.Hbond>
1.5871

> <Gold.Chemscore.Metal>
0.0000

> <Gold.Chemscore.Lipo>
104.3541

> <Gold.Chemscore.Internal_Hbond>
0.0000

> <Gold.Chemscore.DEClash>
0.0122

> <Gold.Chemscore.DEInternal>
1.4501

> <Gold.Chemscore.Rot>
2.0686

> <Gold.Chemscore.Internal.Correction>
   9.000000E+99

> <Gold.Chemscore.Hbonds>
donor molecule, donor type, donor heavy atom, donor atom, acceptor molecule, acceptor atom, score
      L1  H     3    23       P1  8028  0.88
      L1  H     6    26       P1  8028  1.00

> <Gold.Chemscore.Hbond.Weighted>
-5.3009

> <Gold.Chemscore.Metal.Weighted>
-0.0000

> <Gold.Chemscore.Lipo.Weighted>
-12.2094

> <Gold.Chemscore.Internal_Hbond.Weighted>
0.0000

> <Gold.Chemscore.DEClash.Weighted>
0.0122

> <Gold.Chemscore.DEInternal.Weighted>
1.4501

> <Gold.Chemscore.Rot.Weighted>
5.2957

> <Gold.Chemscore.Internal.Correction.Weighted>
   9.000000E+99

> <Gold.Protein.RotatedTorsions>
[ 6907 6896 6895 6894 ] final -126.58 input  -60.11 | X-H torsion
[ 7974 7965 7964 7962 ] final   74.39 input  175.53 | X-H torsion
[ 8008 7997 7996 7995 ] final  127.56 input   59.86 | X-H torsion
[ 10167 10162 10161 10158 ] final  165.77 input  -65.29 | X-H torsion
[ 10718 10713 10712 10709 ] final  125.40 input   66.30 | X-H torsion
[ 10763 10752 10751 10750 ] final  100.38 input  -60.55 | X-H torsion
[ 11005 11000 10999 10996 ] final -150.82 input  -57.11 | X-H torsion

> <Gold.Protein.ActiveResidues>
 VAL166  LYS551  ARG553  GLY616  TRP617  ASP618  TYR619  PRO620  LYS621  CYS622 
 ASP623  PHE694  ASN695  SER759  ASP760  ASP761  ALA762  ILE779  LEU786  VAL792 
 PHE793  MET794  SER795  GLU796  ALA797  LYS798  CYS799  TRP800  GLU811  SER814 

> <Gold.Protein.RotatedAtoms>
  150.8984  133.7150  159.2885 H   0  0  0  0  0  0  0  0  0  0  0  0  # atno 6907 bound_to 6896
  151.4677  135.1042  159.9752 H   0  0  0  0  0  0  0  0  0  0  0  0  # atno 6908 bound_to 6896
  152.4862  133.8332  159.7169 H   0  0  0  0  0  0  0  0  0  0  0  0  # atno 6909 bound_to 6896
  145.7289  139.2676  143.1553 H   0  0  0  0  0  0  0  0  0  0  0  0  # atno 7974 bound_to 7965
  156.2894  140.2666  156.2293 H   0  0  0  0  0  0  0  0  0  0  0  0  # atno 8008 bound_to 7997
  155.0089  140.0387  157.2409 H   0  0  0  0  0  0  0  0  0  0  0  0  # atno 8009 bound_to 7997
  154.7536  140.2747  155.6277 H   0  0  0  0  0  0  0  0  0  0  0  0  # atno 8010 bound_to 7997
  139.4912  144.4098  151.9313 H   0  0  0  0  0  0  0  0  0  0  0  0  # atno 10167 bound_to 10162
  157.5506  131.1094  150.8709 H   0  0  0  0  0  0  0  0  0  0  0  0  # atno 10718 bound_to 10713
  153.3133  135.4081  155.1354 H   0  0  0  0  0  0  0  0  0  0  0  0  # atno 10763 bound_to 10752
  154.8581  135.3569  154.5694 H   0  0  0  0  0  0  0  0  0  0  0  0  # atno 10764 bound_to 10752
  153.6124  135.7067  153.5400 H   0  0  0  0  0  0  0  0  0  0  0  0  # atno 10765 bound_to 10752
  140.7361  134.3567  157.5157 H   0  0  0  0  0  0  0  0  0  0  0  0  # atno 11005 bound_to 11000
  146.0556  140.8024  142.9760 LP  0  0  0  0  0  0  0  0  0  0  0  0  # atno 17320 bound_to 7965
  144.6898  140.3119  143.7246 LP  0  0  0  0  0  0  0  0  0  0  0  0  # atno 17321 bound_to 7965
  140.3539  144.3056  150.5944 LP  0  0  0  0  0  0  0  0  0  0  0  0  # atno 17342 bound_to 10162
  140.5462  143.2214  151.8004 LP  0  0  0  0  0  0  0  0  0  0  0  0  # atno 17343 bound_to 10162
  156.9235  130.5323  149.5279 LP  0  0  0  0  0  0  0  0  0  0  0  0  # atno 17370 bound_to 10713
  156.0573  130.5632  150.9119 LP  0  0  0  0  0  0  0  0  0  0  0  0  # atno 17371 bound_to 10713
  139.8816  134.9050  156.2890 LP  0  0  0  0  0  0  0  0  0  0  0  0  # atno 17394 bound_to 11000
  140.9878  133.7227  156.0768 LP  0  0  0  0  0  0  0  0  0  0  0  0  # atno 17395 bound_to 11000

$$$$
