AV-unprocessed.smi:808|AV-procd|sdf|3804|dock10
  -GOLD-   22720 1243D 1   1.00000     0.00000
 Structure written by MMmdl.
 34 35  0  0  0  0  0  0  0  0  2 V2000
  152.0321  141.2960  157.0152 O   0  0  0  0  0  0  0  0  0  0  0  0
  151.0063  141.9217  156.7479 C   0  0  0  0  0  0  0  0  0  0  0  0
  150.0012  141.3473  155.7449 C   0  0  0  0  0  0  0  0  0  0  0  0
  150.2209  139.9302  155.5092 N   0  0  0  0  0  0  0  0  0  0  0  0
  150.2541  138.9073  156.4384 C   0  0  0  0  0  0  0  0  0  0  0  0
  150.5125  137.7786  155.7214 C   0  0  0  0  0  0  0  0  0  0  0  0
  150.6596  136.3920  156.2627 C   0  0  0  0  0  0  0  0  0  0  0  0
  150.4338  136.2003  157.4776 O   0  0  0  0  0  0  0  0  0  0  0  0
  151.0010  135.4798  155.4776 O   0  5  0  0  0  0  0  0  0  0  0  0
  150.6191  138.1759  154.3634 C   0  0  0  0  0  0  0  0  0  0  0  0
  150.4404  139.4846  154.2440 N   0  0  0  0  0  0  0  0  0  0  0  0
  150.7096  143.1167  157.2840 N   0  0  0  0  0  0  0  0  0  0  0  0
  151.5105  143.8250  158.2762 C   0  0  0  0  0  0  0  0  0  0  0  0
  151.9729  142.8343  159.3615 C   0  0  0  0  0  0  0  0  0  0  0  0
  152.7702  143.5433  160.4680 C   0  0  0  0  0  0  0  0  0  0  0  0
  151.9625  144.6958  161.0854 C   0  0  0  0  0  0  0  0  0  0  0  0
  151.5030  145.6902  160.0074 C   0  0  0  0  0  0  0  0  0  0  0  0
  150.7058  144.9846  158.8984 C   0  0  0  0  0  0  0  0  0  0  0  0
  148.9884  141.4901  156.1233 H   0  0  0  0  0  0  0  0  0  0  0  0
  150.0681  141.8817  154.7960 H   0  0  0  0  0  0  0  0  0  0  0  0
  150.1033  139.0691  157.4956 H   0  0  0  0  0  0  0  0  0  0  0  0
  150.8172  137.5787  153.4855 H   0  0  0  0  0  0  0  0  0  0  0  0
  149.8452  143.5564  157.0023 H   0  0  0  0  0  0  0  0  0  0  0  0
  152.3995  144.2325  157.7905 H   0  0  0  0  0  0  0  0  0  0  0  0
  151.1073  142.3378  159.8027 H   0  0  0  0  0  0  0  0  0  0  0  0
  152.5839  142.0488  158.9148 H   0  0  0  0  0  0  0  0  0  0  0  0
  153.0482  142.8273  161.2420 H   0  0  0  0  0  0  0  0  0  0  0  0
  153.7029  143.9303  160.0556 H   0  0  0  0  0  0  0  0  0  0  0  0
  151.0932  144.2947  161.6078 H   0  0  0  0  0  0  0  0  0  0  0  0
  152.5636  145.2113  161.8349 H   0  0  0  0  0  0  0  0  0  0  0  0
  150.8955  146.4747  160.4594 H   0  0  0  0  0  0  0  0  0  0  0  0
  152.3725  146.1846  159.5726 H   0  0  0  0  0  0  0  0  0  0  0  0
  150.4314  145.7085  158.1303 H   0  0  0  0  0  0  0  0  0  0  0  0
  149.7707  144.6046  159.3126 H   0  0  0  0  0  0  0  0  0  0  0  0
  1  2  2  0  0  0  0
  2  3  1  0  0  0  0
  2 12  1  0  0  0  0
  3  4  1  0  0  0  0
  3 19  1  0  0  0  0
  3 20  1  0  0  0  0
  4 11  1  0  0  0  0
  4  5  1  0  0  0  0
  5  6  2  0  0  0  0
  5 21  1  0  0  0  0
  6  7  1  0  0  0  0
  6 10  1  0  0  0  0
  7  8  2  0  0  0  0
  7  9  1  0  0  0  0
 10 11  2  0  0  0  0
 10 22  1  0  0  0  0
 12 13  1  0  0  0  0
 12 23  1  0  0  0  0
 13 18  1  0  0  0  0
 13 14  1  0  0  0  0
 13 24  1  0  0  0  0
 14 15  1  0  0  0  0
 14 25  1  0  0  0  0
 14 26  1  0  0  0  0
 15 16  1  0  0  0  0
 15 27  1  0  0  0  0
 15 28  1  0  0  0  0
 16 17  1  0  0  0  0
 16 29  1  0  0  0  0
 16 30  1  0  0  0  0
 17 18  1  0  0  0  0
 17 31  1  0  0  0  0
 17 32  1  0  0  0  0
 18 33  1  0  0  0  0
 18 34  1  0  0  0  0
M  CHG  1   9  -1
M  END
> <s_m_source_file>
AV-unprocessed.smi

> <i_m_source_file_index>
808

> <i_lp_mmshare_version>
43012

> <i_f3d_flags>
0

> <s_epik_input>
Tz1DKFtPSF0pYyhbY0hdbjEpW2NIXW4xW0NIMl1DKD1PKVtOSF1bQ0hdMltDSDJdW0NIMl1bQ0gyXVtDSDJdW0NIMl0y

> <s_epik_cmdline>
J2VwaWtfcHl0aG9uJywgJy1waCcsICc3LjAnLCAnLXRuJywgJzgnLCAnLW1hJywgJzIwMCcsICctbWV0YWxfYmluZGluZycsICctaW1hZScsICc8aW5maWxlLm1hZT4nLCAnLW9tYWUnLCAnPG91dGZpbGUubWFlPic=

> <r_epik_Ionization_Penalty>
0.00097052

> <r_epik_Ionization_Penalty_Charging>
0.000938868

> <r_epik_Ionization_Penalty_Neutral>
3.16514e-05

> <r_epik_State_Penalty>
0.000609423

> <r_epik_Charging_Adjusted_Penalty>
0.00154829

> <i_epik_Tot_Q>
-1

> <i_epik_Tot_abs_Q>
1

> <r_epik_Metal_State_Penalty>
-0

> <b_epik_Metal_Only>
0

> <s_lp_Force_Field>
OPLS_2005

> <r_lp_Energy>
12.0504

> <b_lp_Chiralities_Consistent>
1

> <s_lp_Variant>
AV-unprocessed.smi:808-1

> <Gold.Version>
5.8.1

> <Gold.Id.Protein>
6NUR|6NUR_protein|mol2

> <Gold.PLP.Fitness>
48.6250

> <Gold.PLP.PLP>
-34.3071

> <Gold.PLP.part.hbond>
-3.1078

> <Gold.PLP.part.metal>
0.0000

> <Gold.PLP.part.buried>
-1.7959

> <Gold.PLP.part.nonpolar>
-29.8116

> <Gold.PLP.part.repulsive>
1.0811

> <Gold.PLP.ligand.clash>
0.0000

> <Gold.PLP.ligand.torsion>
0.4121

> <Gold.PLP.Chemscore.Hbond>
3.9600

> <Gold.PLP.Chemscore.CHOScore>
1.0824

> <Gold.PLP.Chemscore.Metal>
0.0000

> <Gold.Chemscore.Hbonds>
donor molecule, donor type, donor heavy atom, donor atom, acceptor molecule, acceptor atom, score
      L1  H    12    23       P1  8028  0.94
      P1  H  7989  7998       L1    11  1.00
      P1  H 10752 10764       L1     9  1.69
      L1  C    10    22       P1  7948  0.20
      L1  C    10    22       P1  7949  0.79

> <Gold.PLP.Chemscore.Internal.Correction>
0.0149

> <Gold.Rescore>
     Score         DG    S(hbond)    S(metal)    S(lipo)     H(rot)  DE(clash)    DE(int)     intcor
     17.08     -20.83       2.52        0.00      94.02       1.59       1.63       2.12       ----

> <Gold.Chemscore.Fitness>
17.0765

> <Gold.Chemscore.DG>
-20.8258

> <Gold.Chemscore.ZeroCoef>
-5.4800

> <Gold.Chemscore.Hbond>
2.5199

> <Gold.Chemscore.Metal>
0.0000

> <Gold.Chemscore.Lipo>
94.0224

> <Gold.Chemscore.Internal_Hbond>
0.0000

> <Gold.Chemscore.DEClash>
1.6336

> <Gold.Chemscore.DEInternal>
2.1157

> <Gold.Chemscore.Rot>
1.5904

> <Gold.Chemscore.Internal.Correction>
   9.000000E+99

> <Gold.Chemscore.Hbonds>
donor molecule, donor type, donor heavy atom, donor atom, acceptor molecule, acceptor atom, score
      L1  H    12    23       P1  8028  0.86
      P1  H  7989  7998       L1    11  0.39
      P1  H 10752 10764       L1     9  0.77

> <Gold.Chemscore.Hbond.Weighted>
-8.4166

> <Gold.Chemscore.Metal.Weighted>
-0.0000

> <Gold.Chemscore.Lipo.Weighted>
-11.0006

> <Gold.Chemscore.Internal_Hbond.Weighted>
0.0000

> <Gold.Chemscore.DEClash.Weighted>
1.6336

> <Gold.Chemscore.DEInternal.Weighted>
2.1157

> <Gold.Chemscore.Rot.Weighted>
4.0714

> <Gold.Chemscore.Internal.Correction.Weighted>
   9.000000E+99

> <Gold.Protein.RotatedTorsions>
[ 6907 6896 6895 6894 ] final   84.70 input  -60.11 | X-H torsion
[ 7974 7965 7964 7962 ] final  147.91 input  175.53 | X-H torsion
[ 8008 7997 7996 7995 ] final  -27.32 input   59.86 | X-H torsion
[ 10167 10162 10161 10158 ] final   10.57 input  -65.29 | X-H torsion
[ 10718 10713 10712 10709 ] final  148.25 input   66.30 | X-H torsion
[ 10763 10752 10751 10750 ] final  -45.84 input  -60.55 | X-H torsion
[ 11005 11000 10999 10996 ] final   32.86 input  -57.11 | X-H torsion

> <Gold.Protein.ActiveResidues>
 VAL166  LYS551  ARG553  GLY616  TRP617  ASP618  TYR619  PRO620  LYS621  CYS622 
 ASP623  PHE694  ASN695  SER759  ASP760  ASP761  ALA762  ILE779  LEU786  VAL792 
 PHE793  MET794  SER795  GLU796  ALA797  LYS798  CYS799  TRP800  GLU811  SER814 

> <Gold.Protein.RotatedAtoms>
  152.5358  134.2701  159.8967 H   0  0  0  0  0  0  0  0  0  0  0  0  # atno 6907 bound_to 6896
  151.2658  133.4273  159.2626 H   0  0  0  0  0  0  0  0  0  0  0  0  # atno 6908 bound_to 6896
  151.0412  134.9623  159.8219 H   0  0  0  0  0  0  0  0  0  0  0  0  # atno 6909 bound_to 6896
  144.8554  139.6088  143.5954 H   0  0  0  0  0  0  0  0  0  0  0  0  # atno 7974 bound_to 7965
  154.4383  140.1875  156.0913 H   0  0  0  0  0  0  0  0  0  0  0  0  # atno 8008 bound_to 7997
  156.0363  140.3325  155.7169 H   0  0  0  0  0  0  0  0  0  0  0  0  # atno 8009 bound_to 7997
  155.5765  140.0617  157.2784 H   0  0  0  0  0  0  0  0  0  0  0  0  # atno 8010 bound_to 7997
  140.6186  143.8253  150.7148 H   0  0  0  0  0  0  0  0  0  0  0  0  # atno 10167 bound_to 10162
  157.3109  131.0887  151.1317 H   0  0  0  0  0  0  0  0  0  0  0  0  # atno 10718 bound_to 10713
  154.0351  135.6651  153.4784 H   0  0  0  0  0  0  0  0  0  0  0  0  # atno 10763 bound_to 10752
  153.0524  135.5076  154.7895 H   0  0  0  0  0  0  0  0  0  0  0  0  # atno 10764 bound_to 10752
  154.6853  135.3052  154.9521 H   0  0  0  0  0  0  0  0  0  0  0  0  # atno 10765 bound_to 10752
  140.2691  134.3103  155.7833 H   0  0  0  0  0  0  0  0  0  0  0  0  # atno 11005 bound_to 11000
  146.2819  139.6900  142.9223 LP  0  0  0  0  0  0  0  0  0  0  0  0  # atno 17320 bound_to 7965
  145.4416  141.0422  143.2854 LP  0  0  0  0  0  0  0  0  0  0  0  0  # atno 17321 bound_to 7965
  140.1838  143.4092  152.1913 LP  0  0  0  0  0  0  0  0  0  0  0  0  # atno 17342 bound_to 10162
  139.5419  144.7264  151.4705 LP  0  0  0  0  0  0  0  0  0  0  0  0  # atno 17343 bound_to 10162
  157.2639  130.6672  149.5987 LP  0  0  0  0  0  0  0  0  0  0  0  0  # atno 17370 bound_to 10713
  155.9678  130.4500  150.5680 LP  0  0  0  0  0  0  0  0  0  0  0  0  # atno 17371 bound_to 10713
  141.2180  133.7456  156.9306 LP  0  0  0  0  0  0  0  0  0  0  0  0  # atno 17394 bound_to 11000
  140.1390  134.9306  157.2441 LP  0  0  0  0  0  0  0  0  0  0  0  0  # atno 17395 bound_to 11000

$$$$
