AV-unprocessed.smi:1295|AV-procd|sdf|5405|dock3
  -GOLD-   22720 4563D 1   1.00000     0.00000
 Structure written by MMmdl.
 43 44  0  0  0  0  0  0  0  0  1 V2000
  146.9218  138.4114  152.2308 C   0  0  0  0  0  0  0  0  0  0  0  0
  147.9781  139.0241  153.1248 C   0  0  0  0  0  0  0  0  0  0  0  0
  148.9450  138.1241  153.5415 N   0  0  0  0  0  0  0  0  0  0  0  0
  149.9554  138.5934  154.3621 C   0  0  0  0  0  0  0  0  0  0  0  0
  150.9753  137.5444  154.7707 C   0  0  0  0  0  0  0  0  0  0  0  0
  150.0011  139.8944  154.7463 C   0  0  0  0  0  0  0  0  0  0  0  0
  151.1043  140.4509  155.6446 C   0  0  0  0  0  0  0  0  0  0  0  0
  150.6264  141.2934  156.8293 C   0  0  0  0  0  0  0  0  0  0  0  0
  149.4256  141.5118  156.9888 O   0  0  0  0  0  0  0  0  0  0  0  0
  151.5816  141.7617  157.6476 N   0  0  0  0  0  0  0  0  0  0  0  0
  151.3697  142.6194  158.8128 C   0  0  2  0  0  0  0  0  0  0  0  0
  150.9727  144.0248  158.3204 C   0  0  0  0  0  0  0  0  0  0  0  0
  150.7911  145.0062  159.4869 C   0  0  0  0  0  0  0  0  0  0  0  0
  152.0575  145.0719  160.3504 C   0  0  0  0  0  0  0  0  0  0  0  0
  152.4489  143.6766  160.8592 C   0  0  0  0  0  0  0  0  0  0  0  0
  152.6373  142.6711  159.7045 C   0  0  1  0  0  0  0  0  0  0  0  0
  153.0331  141.2893  160.2552 C   0  0  0  0  0  0  0  0  0  0  0  0
  148.9406  140.8108  154.2648 C   0  0  0  0  0  0  0  0  0  0  0  0
  148.9317  142.0027  154.5690 O   0  0  0  0  0  0  0  0  0  0  0  0
  147.9356  140.2834  153.4377 N   0  0  0  0  0  0  0  0  0  0  0  0
  148.9506  137.1498  153.2764 H   0  0  0  0  0  0  0  0  0  0  0  0
  146.1024  139.1107  152.0602 H   0  0  0  0  0  0  0  0  0  0  0  0
  146.5097  137.5104  152.6861 H   0  0  0  0  0  0  0  0  0  0  0  0
  147.3516  138.1467  151.2644 H   0  0  0  0  0  0  0  0  0  0  0  0
  150.9835  137.4219  155.8539 H   0  0  0  0  0  0  0  0  0  0  0  0
  151.9749  137.8372  154.4487 H   0  0  0  0  0  0  0  0  0  0  0  0
  150.7531  136.5731  154.3269 H   0  0  0  0  0  0  0  0  0  0  0  0
  151.7717  141.0544  155.0281 H   0  0  0  0  0  0  0  0  0  0  0  0
  151.7339  139.6484  156.0298 H   0  0  0  0  0  0  0  0  0  0  0  0
  152.5387  141.5204  157.4352 H   0  0  0  0  0  0  0  0  0  0  0  0
  150.5435  142.2364  159.4148 H   0  0  0  0  0  0  0  0  0  0  0  0
  151.7371  144.4091  157.6432 H   0  0  0  0  0  0  0  0  0  0  0  0
  150.0490  143.9700  157.7428 H   0  0  0  0  0  0  0  0  0  0  0  0
  150.5481  145.9980  159.1048 H   0  0  0  0  0  0  0  0  0  0  0  0
  149.9447  144.6937  160.0999 H   0  0  0  0  0  0  0  0  0  0  0  0
  152.8778  145.4954  159.7696 H   0  0  0  0  0  0  0  0  0  0  0  0
  151.8965  145.7434  161.1940 H   0  0  0  0  0  0  0  0  0  0  0  0
  153.3671  143.7495  161.4434 H   0  0  0  0  0  0  0  0  0  0  0  0
  151.6795  143.3124  161.5412 H   0  0  0  0  0  0  0  0  0  0  0  0
  153.4670  143.0279  159.0922 H   0  0  0  0  0  0  0  0  0  0  0  0
  152.2240  140.8510  160.8404 H   0  0  0  0  0  0  0  0  0  0  0  0
  153.9088  141.3607  160.9007 H   0  0  0  0  0  0  0  0  0  0  0  0
  153.2806  140.5920  159.4550 H   0  0  0  0  0  0  0  0  0  0  0  0
  1 22  1  0  0  0  0
  1 23  1  0  0  0  0
  1 24  1  0  0  0  0
  1  2  1  0  0  0  0
  2  3  1  0  0  0  0
  2 20  2  0  0  0  0
  3  4  1  0  0  0  0
  3 21  1  0  0  0  0
  4  6  2  0  0  0  0
  4  5  1  0  0  0  0
  5 25  1  0  0  0  0
  5 26  1  0  0  0  0
  5 27  1  0  0  0  0
  6 18  1  0  0  0  0
  6  7  1  0  0  0  0
  7  8  1  0  0  0  0
  7 28  1  0  0  0  0
  7 29  1  0  0  0  0
  8  9  2  0  0  0  0
  8 10  1  0  0  0  0
 10 11  1  0  0  0  0
 10 30  1  0  0  0  0
 11 16  1  0  0  0  0
 11 12  1  0  0  0  0
 11 31  1  0  0  0  0
 12 13  1  0  0  0  0
 12 32  1  0  0  0  0
 12 33  1  0  0  0  0
 13 14  1  0  0  0  0
 13 34  1  0  0  0  0
 13 35  1  0  0  0  0
 14 15  1  0  0  0  0
 14 36  1  0  0  0  0
 14 37  1  0  0  0  0
 15 16  1  0  0  0  0
 15 38  1  0  0  0  0
 15 39  1  0  0  0  0
 16 17  1  0  0  0  0
 16 40  1  0  0  0  0
 17 41  1  0  0  0  0
 17 42  1  0  0  0  0
 17 43  1  0  0  0  0
 18 19  2  0  0  0  0
 18 20  1  0  0  0  0
M  END
> <s_m_source_file>
AV-unprocessed.smi

> <i_m_source_file_index>
1295

> <i_lp_mmshare_version>
43012

> <i_f3d_flags>
0

> <s_epik_input>
W0NIM11jMW5jKFtDSDNdKWMoYyg9TylbbkhdMSlbQ0gyXUMoPU8pW05IXVtDQEBIXTJbQ0gyXVtDSDJdW0NIMl1bQ0gyXVtDQEhdMltDSDNd

> <s_epik_cmdline>
J2VwaWtfcHl0aG9uJywgJy1waCcsICc3LjAnLCAnLXRuJywgJzgnLCAnLW1hJywgJzIwMCcsICctbWV0YWxfYmluZGluZycsICctaW1hZScsICc8aW5maWxlLm1hZT4nLCAnLW9tYWUnLCAnPG91dGZpbGUubWFlPic=

> <r_lp_tautomer_probability>
0.156392

> <r_epik_Ionization_Penalty>
0.0136057

> <r_epik_Ionization_Penalty_Charging>
0.0134742

> <r_epik_Ionization_Penalty_Neutral>
0.000131572

> <r_epik_State_Penalty>
1.15342

> <r_epik_Charging_Adjusted_Penalty>
1.16689

> <i_epik_Tot_Q>
0

> <i_epik_Tot_abs_Q>
0

> <r_epik_Metal_State_Penalty>
1.31351

> <b_epik_Metal_Only>
0

> <s_lp_Force_Field>
OPLS_2005

> <r_lp_Energy>
15.3725

> <b_lp_Chiralities_Consistent>
1

> <s_lp_Variant>
AV-unprocessed.smi:1295-5

> <Gold.Version>
5.8.1

> <Gold.Id.Protein>
6NUR|6NUR_protein|mol2

> <Gold.PLP.Fitness>
46.0059

> <Gold.PLP.PLP>
-43.5237

> <Gold.PLP.part.hbond>
-2.8670

> <Gold.PLP.part.metal>
0.0000

> <Gold.PLP.part.buried>
-2.2814

> <Gold.PLP.part.nonpolar>
-42.2659

> <Gold.PLP.part.repulsive>
3.8967

> <Gold.PLP.ligand.clash>
0.0000

> <Gold.PLP.ligand.torsion>
0.2626

> <Gold.PLP.Chemscore.Hbond>
1.0000

> <Gold.PLP.Chemscore.CHOScore>
0.0000

> <Gold.PLP.Chemscore.Metal>
0.0000

> <Gold.Chemscore.Hbonds>
donor molecule, donor type, donor heavy atom, donor atom, acceptor molecule, acceptor atom, score
      L1  H     3    21       P1  7948  0.75

> <Gold.PLP.Chemscore.Internal.Correction>
0.0075

> <Gold.Rescore>
     Score         DG    S(hbond)    S(metal)    S(lipo)     H(rot)  DE(clash)    DE(int)     intcor
     13.18     -17.17       0.91        0.00     106.24       1.48       1.45       2.54       ----

> <Gold.Chemscore.Fitness>
13.1753

> <Gold.Chemscore.DG>
-17.1682

> <Gold.Chemscore.ZeroCoef>
-5.4800

> <Gold.Chemscore.Hbond>
0.9122

> <Gold.Chemscore.Metal>
0.0000

> <Gold.Chemscore.Lipo>
106.2435

> <Gold.Chemscore.Internal_Hbond>
0.0000

> <Gold.Chemscore.DEClash>
1.4495

> <Gold.Chemscore.DEInternal>
2.5434

> <Gold.Chemscore.Rot>
1.4801

> <Gold.Chemscore.Internal.Correction>
   9.000000E+99

> <Gold.Chemscore.Hbonds>
donor molecule, donor type, donor heavy atom, donor atom, acceptor molecule, acceptor atom, score
      L1  H     3    21       P1  7948  0.76

> <Gold.Chemscore.Hbond.Weighted>
-3.0468

> <Gold.Chemscore.Metal.Weighted>
-0.0000

> <Gold.Chemscore.Lipo.Weighted>
-12.4305

> <Gold.Chemscore.Internal_Hbond.Weighted>
0.0000

> <Gold.Chemscore.DEClash.Weighted>
1.4495

> <Gold.Chemscore.DEInternal.Weighted>
2.5434

> <Gold.Chemscore.Rot.Weighted>
3.7891

> <Gold.Chemscore.Internal.Correction.Weighted>
   9.000000E+99

> <Gold.Protein.RotatedTorsions>
[ 6907 6896 6895 6894 ] final  108.83 input  -60.11 | X-H torsion
[ 7974 7965 7964 7962 ] final  -28.29 input  175.53 | X-H torsion
[ 8008 7997 7996 7995 ] final -164.86 input   59.86 | X-H torsion
[ 10167 10162 10161 10158 ] final   30.93 input  -65.29 | X-H torsion
[ 10718 10713 10712 10709 ] final   77.62 input   66.30 | X-H torsion
[ 10763 10752 10751 10750 ] final   93.89 input  -60.55 | X-H torsion
[ 11005 11000 10999 10996 ] final  -23.96 input  -57.11 | X-H torsion

> <Gold.Protein.ActiveResidues>
 VAL166  LYS551  ARG553  GLY616  TRP617  ASP618  TYR619  PRO620  LYS621  CYS622 
 ASP623  PHE694  ASN695  SER759  ASP760  ASP761  ALA762  ILE779  LEU786  VAL792 
 PHE793  MET794  SER795  GLU796  ALA797  LYS798  CYS799  TRP800  GLU811  SER814 

> <Gold.Protein.RotatedAtoms>
  152.5095  133.9032  159.7450 H   0  0  0  0  0  0  0  0  0  0  0  0  # atno 6907 bound_to 6896
  150.9442  133.6613  159.2791 H   0  0  0  0  0  0  0  0  0  0  0  0  # atno 6908 bound_to 6896
  151.3914  135.0961  159.9580 H   0  0  0  0  0  0  0  0  0  0  0  0  # atno 6909 bound_to 6896
  146.1298  140.5264  142.8698 H   0  0  0  0  0  0  0  0  0  0  0  0  # atno 7974 bound_to 7965
  155.8417  140.0949  157.1730 H   0  0  0  0  0  0  0  0  0  0  0  0  # atno 8008 bound_to 7997
  154.3982  140.1400  156.3798 H   0  0  0  0  0  0  0  0  0  0  0  0  # atno 8009 bound_to 7997
  155.8057  140.3451  155.5431 H   0  0  0  0  0  0  0  0  0  0  0  0  # atno 8010 bound_to 7997
  140.4634  144.0872  150.6218 H   0  0  0  0  0  0  0  0  0  0  0  0  # atno 10167 bound_to 10162
  157.6716  130.9830  150.1667 H   0  0  0  0  0  0  0  0  0  0  0  0  # atno 10718 bound_to 10713
  153.2354  135.4309  155.0641 H   0  0  0  0  0  0  0  0  0  0  0  0  # atno 10763 bound_to 10752
  154.8316  135.3389  154.6726 H   0  0  0  0  0  0  0  0  0  0  0  0  # atno 10764 bound_to 10752
  153.7152  135.7020  153.5083 H   0  0  0  0  0  0  0  0  0  0  0  0  # atno 10765 bound_to 10752
  140.8800  133.7660  156.0290 H   0  0  0  0  0  0  0  0  0  0  0  0  # atno 11005 bound_to 11000
  144.7679  140.5572  143.6690 LP  0  0  0  0  0  0  0  0  0  0  0  0  # atno 17320 bound_to 7965
  145.5285  139.1475  143.3513 LP  0  0  0  0  0  0  0  0  0  0  0  0  # atno 17321 bound_to 7965
  140.4065  143.2677  151.9884 LP  0  0  0  0  0  0  0  0  0  0  0  0  # atno 17342 bound_to 10162
  139.4809  144.5952  151.7702 LP  0  0  0  0  0  0  0  0  0  0  0  0  # atno 17343 bound_to 10162
  156.2431  130.3693  149.8315 LP  0  0  0  0  0  0  0  0  0  0  0  0  # atno 17370 bound_to 10713
  156.6110  130.8586  151.3454 LP  0  0  0  0  0  0  0  0  0  0  0  0  # atno 17371 bound_to 10713
  140.8472  134.2997  157.5290 LP  0  0  0  0  0  0  0  0  0  0  0  0  # atno 17394 bound_to 11000
  139.8719  134.9448  156.3892 LP  0  0  0  0  0  0  0  0  0  0  0  0  # atno 17395 bound_to 11000

$$$$
