AV-unprocessed.smi:284|AV-procd|sdf|2162|dock8
  -GOLD-   2262021523D 1   1.00000     0.00000
 Structure written by MMmdl.
 60 62  0  0  0  0  0  0  0  0  1 V2000
  154.1265  136.7071  164.7417 C   0  0  0  0  0  0  0  0  0  0  0  0
  155.3391  137.2642  164.0117 C   0  0  0  0  0  0  0  0  0  0  0  0
  156.4587  137.6495  164.6667 C   0  0  0  0  0  0  0  0  0  0  0  0
  157.5852  138.1564  164.0378 N   0  0  0  0  0  0  0  0  0  0  0  0
  158.8695  138.4990  164.7825 C   0  0  1  0  0  0  0  0  0  0  0  0
  158.7463  139.6466  165.7958 C   0  0  0  0  0  0  0  0  0  0  0  0
  158.6744  138.9240  167.1411 C   0  0  1  0  0  0  0  0  0  0  0  0
  157.5272  139.3176  167.8671 O   0  0  0  0  0  0  0  0  0  0  0  0
  158.6342  137.4279  166.7810 C   0  0  2  0  0  0  0  0  0  0  0  0
  159.3832  136.5108  167.7594 C   0  0  0  0  0  0  0  0  0  0  0  0
  158.7287  136.4867  169.0102 O   0  0  0  0  0  0  0  0  0  0  0  0
  159.2655  137.3802  165.5081 O   0  0  0  0  0  0  0  0  0  0  0  0
  157.6181  138.1984  162.6272 C   0  0  0  0  0  0  0  0  0  0  0  0
  158.6366  138.5548  162.0293 O   0  0  0  0  0  0  0  0  0  0  0  0
  156.4588  137.8208  161.9127 N   0  0  0  0  0  0  0  0  0  0  0  0
  156.4978  137.8734  160.4342 C   0  0  0  0  0  0  0  0  0  0  0  0
  155.5597  138.9379  159.8434 C   0  0  0  0  0  0  0  0  0  0  0  0
  155.3115  138.9442  158.6373 O   0  0  0  0  0  0  0  0  0  0  0  0
  155.0275  139.7921  160.7366 N   0  0  0  0  0  0  0  0  0  0  0  0
  154.1641  140.8985  160.5108 C   0  0  0  0  0  0  0  0  0  0  0  0
  153.7778  141.8148  161.5163 C   0  0  0  0  0  0  0  0  0  0  0  0
  152.8984  142.8735  161.2173 C   0  0  0  0  0  0  0  0  0  0  0  0
  152.3749  143.0397  159.9115 C   0  0  0  0  0  0  0  0  0  0  0  0
  151.4066  144.1822  159.5494 C   0  0  0  0  0  0  0  0  0  0  0  0
  151.2616  145.1435  160.7480 C   0  0  0  0  0  0  0  0  0  0  0  0
  149.9918  143.6807  159.1813 C   0  0  0  0  0  0  0  0  0  0  0  0
  151.9595  144.9596  158.3372 C   0  0  0  0  0  0  0  0  0  0  0  0
  152.7559  142.1071  158.9184 C   0  0  0  0  0  0  0  0  0  0  0  0
  153.6352  141.0490  159.2146 C   0  0  0  0  0  0  0  0  0  0  0  0
  155.2858  137.3529  162.5518 C   0  0  0  0  0  0  0  0  0  0  0  0
  154.2960  137.0291  161.8924 O   0  0  0  0  0  0  0  0  0  0  0  0
  154.2668  136.7047  165.8230 H   0  0  0  0  0  0  0  0  0  0  0  0
  153.9337  135.6804  164.4285 H   0  0  0  0  0  0  0  0  0  0  0  0
  153.2406  137.3047  164.5236 H   0  0  0  0  0  0  0  0  0  0  0  0
  156.4571  137.5289  165.7373 H   0  0  0  0  0  0  0  0  0  0  0  0
  159.5976  138.7444  164.0078 H   0  0  0  0  0  0  0  0  0  0  0  0
  159.6605  140.2394  165.7511 H   0  0  0  0  0  0  0  0  0  0  0  0
  157.9184  140.3186  165.5705 H   0  0  0  0  0  0  0  0  0  0  0  0
  159.5663  139.1560  167.7246 H   0  0  0  0  0  0  0  0  0  0  0  0
  157.1106  138.5441  168.2155 H   0  0  0  0  0  0  0  0  0  0  0  0
  157.6062  137.0820  166.6589 H   0  0  0  0  0  0  0  0  0  0  0  0
  159.4121  135.4929  167.3703 H   0  0  0  0  0  0  0  0  0  0  0  0
  160.4163  136.8348  167.8894 H   0  0  0  0  0  0  0  0  0  0  0  0
  158.8634  137.3194  169.4364 H   0  0  0  0  0  0  0  0  0  0  0  0
  157.5052  138.0663  160.0630 H   0  0  0  0  0  0  0  0  0  0  0  0
  156.2468  136.8974  160.0144 H   0  0  0  0  0  0  0  0  0  0  0  0
  155.2400  139.6028  161.7054 H   0  0  0  0  0  0  0  0  0  0  0  0
  154.1291  141.7197  162.5319 H   0  0  0  0  0  0  0  0  0  0  0  0
  152.6369  143.5434  162.0212 H   0  0  0  0  0  0  0  0  0  0  0  0
  150.5595  145.9484  160.5273 H   0  0  0  0  0  0  0  0  0  0  0  0
  152.2075  145.6133  161.0173 H   0  0  0  0  0  0  0  0  0  0  0  0
  150.8919  144.6199  161.6305 H   0  0  0  0  0  0  0  0  0  0  0  0
  149.5313  143.1335  160.0048 H   0  0  0  0  0  0  0  0  0  0  0  0
  150.0085  143.0283  158.3074 H   0  0  0  0  0  0  0  0  0  0  0  0
  149.3281  144.5124  158.9416 H   0  0  0  0  0  0  0  0  0  0  0  0
  151.2899  145.7699  158.0465 H   0  0  0  0  0  0  0  0  0  0  0  0
  152.0784  144.3067  157.4717 H   0  0  0  0  0  0  0  0  0  0  0  0
  152.9314  145.4074  158.5460 H   0  0  0  0  0  0  0  0  0  0  0  0
  152.3718  142.1925  157.9131 H   0  0  0  0  0  0  0  0  0  0  0  0
  153.9055  140.3513  158.4353 H   0  0  0  0  0  0  0  0  0  0  0  0
  1  2  1  0  0  0  0
  1 32  1  0  0  0  0
  1 33  1  0  0  0  0
  1 34  1  0  0  0  0
  2 30  1  0  0  0  0
  2  3  2  0  0  0  0
  3  4  1  0  0  0  0
  3 35  1  0  0  0  0
  4  5  1  0  0  0  0
  4 13  1  0  0  0  0
  5 12  1  0  0  0  0
  5  6  1  0  0  0  0
  5 36  1  0  0  0  0
  6  7  1  0  0  0  0
  6 37  1  0  0  0  0
  6 38  1  0  0  0  0
  7  8  1  0  0  0  0
  7  9  1  0  0  0  0
  7 39  1  0  0  0  0
  8 40  1  0  0  0  0
  9 10  1  0  0  0  0
  9 12  1  0  0  0  0
  9 41  1  0  0  0  0
 10 11  1  0  0  0  0
 10 42  1  0  0  0  0
 10 43  1  0  0  0  0
 11 44  1  0  0  0  0
 13 14  2  0  0  0  0
 13 15  1  0  0  0  0
 15 16  1  0  0  0  0
 15 30  1  0  0  0  0
 16 17  1  0  0  0  0
 16 45  1  0  0  0  0
 16 46  1  0  0  0  0
 17 18  2  0  0  0  0
 17 19  1  0  0  0  0
 19 20  1  0  0  0  0
 19 47  1  0  0  0  0
 20 29  1  0  0  0  0
 20 21  2  0  0  0  0
 21 22  1  0  0  0  0
 21 48  1  0  0  0  0
 22 23  2  0  0  0  0
 22 49  1  0  0  0  0
 23 24  1  0  0  0  0
 23 28  1  0  0  0  0
 24 25  1  0  0  0  0
 24 26  1  0  0  0  0
 24 27  1  0  0  0  0
 25 50  1  0  0  0  0
 25 51  1  0  0  0  0
 25 52  1  0  0  0  0
 26 53  1  0  0  0  0
 26 54  1  0  0  0  0
 26 55  1  0  0  0  0
 27 56  1  0  0  0  0
 27 57  1  0  0  0  0
 27 58  1  0  0  0  0
 28 29  2  0  0  0  0
 28 59  1  0  0  0  0
 29 60  1  0  0  0  0
 30 31  2  0  0  0  0
M  END
> <s_m_source_file>
AV-unprocessed.smi

> <i_m_source_file_index>
284

> <i_lp_mmshare_version>
43012

> <i_f3d_flags>
0

> <s_epik_input>
W09IXVtDSDJdW0NAQEhdKE8xKVtDQEhdKFtPSF0pW0NIMl1bQ0BIXTFuKFtjSF1jMltDSDNdKWMoPU8pbihjMj1PKVtDSDJdQyg9TylbTkhdYzNbY0hdW2NIXWMoQyhbQ0gzXSkoW0NIM10pW0NIM10pW2NIXVtjSF0z

> <s_epik_cmdline>
J2VwaWtfcHl0aG9uJywgJy1waCcsICc3LjAnLCAnLXRuJywgJzgnLCAnLW1hJywgJzIwMCcsICctbWV0YWxfYmluZGluZycsICctaW1hZScsICc8aW5maWxlLm1hZT4nLCAnLW9tYWUnLCAnPG91dGZpbGUubWFlPic=

> <r_lp_tautomer_probability>
1

> <r_epik_Ionization_Penalty>
4.92358e-06

> <r_epik_Ionization_Penalty_Charging>
1.29777e-07

> <r_epik_Ionization_Penalty_Neutral>
4.79381e-06

> <r_epik_State_Penalty>
-0

> <r_epik_Charging_Adjusted_Penalty>
1.29777e-07

> <i_epik_Tot_Q>
0

> <i_epik_Tot_abs_Q>
0

> <r_epik_Metal_State_Penalty>
-0

> <b_epik_Metal_Only>
0

> <s_epik_Chemistry_Notes>
This compound contains an acetal/aminal-like group ( X-CH(R)-Y where X, Y are N, S, or O) that may be acid/base labile, releasing an aldehyde.

> <s_lp_Force_Field>
OPLS_2005

> <r_lp_Energy>
37.3947

> <b_lp_Chiralities_Consistent>
1

> <s_lp_Variant>
AV-unprocessed.smi:284-6

> <Gold.Version>
5.8.1

> <Gold.Id.Protein>
6NUR|6NUR_protein|mol2

> <Gold.PLP.Fitness>
49.6072

> <Gold.PLP.PLP>
-47.1727

> <Gold.PLP.part.hbond>
-3.0000

> <Gold.PLP.part.metal>
0.0000

> <Gold.PLP.part.buried>
-4.0405

> <Gold.PLP.part.nonpolar>
-39.0422

> <Gold.PLP.part.repulsive>
0.0320

> <Gold.PLP.ligand.clash>
0.0000

> <Gold.PLP.ligand.torsion>
0.3615

> <Gold.PLP.Chemscore.Hbond>
1.0000

> <Gold.PLP.Chemscore.CHOScore>
0.0000

> <Gold.PLP.Chemscore.Metal>
0.0000

> <Gold.Chemscore.Hbonds>
donor molecule, donor type, donor heavy atom, donor atom, acceptor molecule, acceptor atom, score
      P1  H  7997  8008       L1    18  1.00

> <Gold.PLP.Chemscore.Internal.Correction>
0.1574

> <Gold.Rescore>
     Score         DG    S(hbond)    S(metal)    S(lipo)     H(rot)  DE(clash)    DE(int)     intcor
     12.20     -15.58       0.99        0.00     129.61       3.27       0.08       3.31       ----

> <Gold.Chemscore.Fitness>
12.1960

> <Gold.Chemscore.DG>
-15.5784

> <Gold.Chemscore.ZeroCoef>
-5.4800

> <Gold.Chemscore.Hbond>
0.9922

> <Gold.Chemscore.Metal>
0.0000

> <Gold.Chemscore.Lipo>
129.6114

> <Gold.Chemscore.Internal_Hbond>
0.0000

> <Gold.Chemscore.DEClash>
0.0760

> <Gold.Chemscore.DEInternal>
3.3064

> <Gold.Chemscore.Rot>
3.2735

> <Gold.Chemscore.Internal.Correction>
   9.000000E+99

> <Gold.Chemscore.Hbonds>
donor molecule, donor type, donor heavy atom, donor atom, acceptor molecule, acceptor atom, score
      P1  H  7997  8008       L1    18  1.00

> <Gold.Chemscore.Hbond.Weighted>
-3.3139

> <Gold.Chemscore.Metal.Weighted>
-0.0000

> <Gold.Chemscore.Lipo.Weighted>
-15.1645

> <Gold.Chemscore.Internal_Hbond.Weighted>
0.0000

> <Gold.Chemscore.DEClash.Weighted>
0.0760

> <Gold.Chemscore.DEInternal.Weighted>
3.3064

> <Gold.Chemscore.Rot.Weighted>
8.3801

> <Gold.Chemscore.Internal.Correction.Weighted>
   9.000000E+99

> <Gold.Protein.RotatedTorsions>
[ 6907 6896 6895 6894 ] final   63.89 input  -60.11 | X-H torsion
[ 7974 7965 7964 7962 ] final  158.10 input  175.53 | X-H torsion
[ 8008 7997 7996 7995 ] final -137.15 input   59.86 | X-H torsion
[ 10167 10162 10161 10158 ] final   72.60 input  -65.29 | X-H torsion
[ 10718 10713 10712 10709 ] final -160.58 input   66.30 | X-H torsion
[ 10763 10752 10751 10750 ] final  -74.55 input  -60.55 | X-H torsion
[ 11005 11000 10999 10996 ] final  -53.48 input  -57.11 | X-H torsion

> <Gold.Protein.ActiveResidues>
 VAL166  LYS551  ARG553  GLY616  TRP617  ASP618  TYR619  PRO620  LYS621  CYS622 
 ASP623  PHE694  ASN695  SER759  ASP760  ASP761  ALA762  ILE779  LEU786  VAL792 
 PHE793  MET794  SER795  GLU796  ALA797  LYS798  CYS799  TRP800  GLU811  SER814 

> <Gold.Protein.RotatedAtoms>
  152.4289  134.5816  159.9949 H   0  0  0  0  0  0  0  0  0  0  0  0  # atno 6907 bound_to 6896
  151.5945  133.3357  159.3042 H   0  0  0  0  0  0  0  0  0  0  0  0  # atno 6908 bound_to 6896
  150.8180  134.7409  159.6812 H   0  0  0  0  0  0  0  0  0  0  0  0  # atno 6909 bound_to 6896
  144.7865  139.7432  143.6239 H   0  0  0  0  0  0  0  0  0  0  0  0  # atno 7974 bound_to 7965
  155.4070  140.0509  157.3034 H   0  0  0  0  0  0  0  0  0  0  0  0  # atno 8008 bound_to 7997
  154.4964  140.2140  155.9398 H   0  0  0  0  0  0  0  0  0  0  0  0  # atno 8009 bound_to 7997
  156.1411  140.3154  155.8502 H   0  0  0  0  0  0  0  0  0  0  0  0  # atno 8010 bound_to 7997
  140.0335  144.5446  150.7488 H   0  0  0  0  0  0  0  0  0  0  0  0  # atno 10167 bound_to 10162
  156.5841  130.8742  151.2872 H   0  0  0  0  0  0  0  0  0  0  0  0  # atno 10718 bound_to 10713
  154.4746  135.5860  153.6346 H   0  0  0  0  0  0  0  0  0  0  0  0  # atno 10763 bound_to 10752
  152.9839  135.6075  154.3323 H   0  0  0  0  0  0  0  0  0  0  0  0  # atno 10764 bound_to 10752
  154.3208  135.2843  155.2499 H   0  0  0  0  0  0  0  0  0  0  0  0  # atno 10765 bound_to 10752
  141.0978  133.6622  156.4179 H   0  0  0  0  0  0  0  0  0  0  0  0  # atno 11005 bound_to 11000
  146.2099  139.5448  142.9688 LP  0  0  0  0  0  0  0  0  0  0  0  0  # atno 17320 bound_to 7965
  145.5908  141.0370  143.2071 LP  0  0  0  0  0  0  0  0  0  0  0  0  # atno 17321 bound_to 7965
  140.7291  143.2669  151.4014 LP  0  0  0  0  0  0  0  0  0  0  0  0  # atno 17342 bound_to 10162
  139.6060  144.1196  152.2249 LP  0  0  0  0  0  0  0  0  0  0  0  0  # atno 17343 bound_to 10162
  157.7319  130.9708  150.1904 LP  0  0  0  0  0  0  0  0  0  0  0  0  # atno 17370 bound_to 10713
  156.2606  130.3710  149.8134 LP  0  0  0  0  0  0  0  0  0  0  0  0  # atno 17371 bound_to 10713
  140.5097  134.6407  157.5279 LP  0  0  0  0  0  0  0  0  0  0  0  0  # atno 17394 bound_to 11000
  139.9820  134.7122  155.9842 LP  0  0  0  0  0  0  0  0  0  0  0  0  # atno 17395 bound_to 11000

$$$$
