AV-unprocessed.smi:461|AV-procd|sdf|2630|dock6
  -GOLD-   2262023 33D 1   1.00000     0.00000
 Structure written by MMmdl.
 33 34  0  0  0  0  0  0  0  0  1 V2000
  152.3873  143.1032  161.8568 C   0  0  0  0  0  0  0  0  0  0  0  0
  153.1129  142.0357  161.1668 N   0  0  0  0  0  0  0  0  0  0  0  0
  152.5915  141.7252  159.9215 N   0  0  0  0  0  0  0  0  0  0  0  0
  153.1778  140.7743  159.2549 C   0  0  0  0  0  0  0  0  0  0  0  0
  152.8068  140.3116  157.9991 N   0  0  0  0  0  0  0  0  0  0  0  0
  151.6907  140.8187  157.2139 C   0  0  0  0  0  0  0  0  0  0  0  0
  151.6306  140.1990  155.8070 C   0  0  2  0  0  0  0  0  0  0  0  0
  150.6285  139.0547  155.6872 C   0  0  0  0  0  0  0  0  0  0  0  0
  151.1197  138.3038  154.4628 C   0  0  0  0  0  0  0  0  0  0  0  0
  152.6059  138.6665  154.3850 C   0  0  0  0  0  0  0  0  0  0  0  0
  152.8475  139.5491  155.4742 O   0  0  0  0  0  0  0  0  0  0  0  0
  154.3880  140.0513  159.8250 C   0  0  0  0  0  0  0  0  0  0  0  0
  154.9349  139.1475  159.1860 O   0  0  0  0  0  0  0  0  0  0  0  0
  154.8055  140.4640  161.0539 N   0  0  0  0  0  0  0  0  0  0  0  0
  155.9801  139.7774  161.6219 C   0  0  0  0  0  0  0  0  0  0  0  0
  154.1915  141.4528  161.7680 C   0  0  0  0  0  0  0  0  0  0  0  0
  154.5740  141.8064  162.8861 O   0  0  0  0  0  0  0  0  0  0  0  0
  153.0487  143.9441  162.0695 H   0  0  0  0  0  0  0  0  0  0  0  0
  151.9776  142.7421  162.8011 H   0  0  0  0  0  0  0  0  0  0  0  0
  151.5543  143.4857  161.2641 H   0  0  0  0  0  0  0  0  0  0  0  0
  151.8271  141.8969  157.1273 H   0  0  0  0  0  0  0  0  0  0  0  0
  150.7492  140.6698  157.7450 H   0  0  0  0  0  0  0  0  0  0  0  0
  151.4085  140.9616  155.0577 H   0  0  0  0  0  0  0  0  0  0  0  0
  150.6892  138.4081  156.5638 H   0  0  0  0  0  0  0  0  0  0  0  0
  149.5986  139.3992  155.5909 H   0  0  0  0  0  0  0  0  0  0  0  0
  150.9564  137.2294  154.5514 H   0  0  0  0  0  0  0  0  0  0  0  0
  150.6023  138.6502  153.5673 H   0  0  0  0  0  0  0  0  0  0  0  0
  153.2496  137.7899  154.4617 H   0  0  0  0  0  0  0  0  0  0  0  0
  152.8309  139.1722  153.4453 H   0  0  0  0  0  0  0  0  0  0  0  0
  156.3428  140.1951  162.5617 H   0  0  0  0  0  0  0  0  0  0  0  0
  156.8212  139.8148  160.9272 H   0  0  0  0  0  0  0  0  0  0  0  0
  155.7484  138.7279  161.8103 H   0  0  0  0  0  0  0  0  0  0  0  0
  153.2769  139.5183  157.5868 H   0  0  0  0  0  0  0  0  0  0  0  0
  1 18  1  0  0  0  0
  1 19  1  0  0  0  0
  1 20  1  0  0  0  0
  1  2  1  0  0  0  0
  2 16  1  0  0  0  0
  2  3  1  0  0  0  0
  3  4  2  0  0  0  0
  4 12  1  0  0  0  0
  4  5  1  0  0  0  0
  5  6  1  0  0  0  0
  5 33  1  0  0  0  0
  6  7  1  0  0  0  0
  6 21  1  0  0  0  0
  6 22  1  0  0  0  0
  7 11  1  0  0  0  0
  7  8  1  0  0  0  0
  7 23  1  0  0  0  0
  8  9  1  0  0  0  0
  8 24  1  0  0  0  0
  8 25  1  0  0  0  0
  9 10  1  0  0  0  0
  9 26  1  0  0  0  0
  9 27  1  0  0  0  0
 10 11  1  0  0  0  0
 10 28  1  0  0  0  0
 10 29  1  0  0  0  0
 12 13  2  0  0  0  0
 12 14  1  0  0  0  0
 14 15  1  0  0  0  0
 14 16  1  0  0  0  0
 15 30  1  0  0  0  0
 15 31  1  0  0  0  0
 15 32  1  0  0  0  0
 16 17  2  0  0  0  0
M  END
> <s_m_source_file>
AV-unprocessed.smi

> <i_m_source_file_index>
461

> <i_lp_mmshare_version>
43012

> <i_f3d_flags>
0

> <s_epik_input>
Tz1jMW4oW0NIM10pYyg9TyljKG5uMVtDSDNdKVtOSF1bQ0gyXVtDQEBIXTJbQ0gyXVtDSDJdW0NIMl1PMg==

> <s_epik_cmdline>
J2VwaWtfcHl0aG9uJywgJy1waCcsICc3LjAnLCAnLXRuJywgJzgnLCAnLW1hJywgJzIwMCcsICctbWV0YWxfYmluZGluZycsICctaW1hZScsICc8aW5maWxlLm1hZT4nLCAnLW9tYWUnLCAnPG91dGZpbGUubWFlPic=

> <r_lp_tautomer_probability>
1

> <r_epik_Ionization_Penalty>
0.000103292

> <r_epik_Ionization_Penalty_Charging>
5.59445e-09

> <r_epik_Ionization_Penalty_Neutral>
0.000103287

> <r_epik_State_Penalty>
-0

> <r_epik_Charging_Adjusted_Penalty>
5.59445e-09

> <i_epik_Tot_Q>
0

> <i_epik_Tot_abs_Q>
0

> <r_epik_Metal_State_Penalty>
-0

> <b_epik_Metal_Only>
0

> <s_lp_Force_Field>
OPLS_2005

> <r_lp_Energy>
41.4084

> <b_lp_Chiralities_Consistent>
1

> <s_lp_Variant>
AV-unprocessed.smi:461-1

> <Gold.Version>
5.8.1

> <Gold.Id.Protein>
6NUR|6NUR_protein|mol2

> <Gold.PLP.Fitness>
38.9241

> <Gold.PLP.PLP>
-34.1315

> <Gold.PLP.part.hbond>
-3.0000

> <Gold.PLP.part.metal>
0.0000

> <Gold.PLP.part.buried>
-2.2851

> <Gold.PLP.part.nonpolar>
-27.7857

> <Gold.PLP.part.repulsive>
1.1215

> <Gold.PLP.ligand.clash>
0.0000

> <Gold.PLP.ligand.torsion>
0.6083

> <Gold.PLP.Chemscore.Hbond>
2.0000

> <Gold.PLP.Chemscore.CHOScore>
0.0000

> <Gold.PLP.Chemscore.Metal>
0.0000

> <Gold.Chemscore.Hbonds>
donor molecule, donor type, donor heavy atom, donor atom, acceptor molecule, acceptor atom, score
      P1  H  7997  8009       L1    13  0.94
      P1  H  7997  8010       L1    11  1.00

> <Gold.PLP.Chemscore.Internal.Correction>
0.0092

> <Gold.Rescore>
     Score         DG    S(hbond)    S(metal)    S(lipo)     H(rot)  DE(clash)    DE(int)     intcor
     12.03     -14.36       1.80        0.00      52.96       1.30       1.78       0.55       ----

> <Gold.Chemscore.Fitness>
12.0293

> <Gold.Chemscore.DG>
-14.3608

> <Gold.Chemscore.ZeroCoef>
-5.4800

> <Gold.Chemscore.Hbond>
1.7967

> <Gold.Chemscore.Metal>
0.0000

> <Gold.Chemscore.Lipo>
52.9594

> <Gold.Chemscore.Internal_Hbond>
0.0000

> <Gold.Chemscore.DEClash>
1.7774

> <Gold.Chemscore.DEInternal>
0.5541

> <Gold.Chemscore.Rot>
1.2954

> <Gold.Chemscore.Internal.Correction>
   9.000000E+99

> <Gold.Chemscore.Hbonds>
donor molecule, donor type, donor heavy atom, donor atom, acceptor molecule, acceptor atom, score
      P1  H  7997  8009       L1    13  0.36
      P1  H  7997  8010       L1    11  0.98

> <Gold.Chemscore.Hbond.Weighted>
-6.0009

> <Gold.Chemscore.Metal.Weighted>
-0.0000

> <Gold.Chemscore.Lipo.Weighted>
-6.1963

> <Gold.Chemscore.Internal_Hbond.Weighted>
0.0000

> <Gold.Chemscore.DEClash.Weighted>
1.7774

> <Gold.Chemscore.DEInternal.Weighted>
0.5541

> <Gold.Chemscore.Rot.Weighted>
3.3163

> <Gold.Chemscore.Internal.Correction.Weighted>
   9.000000E+99

> <Gold.Protein.RotatedTorsions>
[ 6907 6896 6895 6894 ] final -168.94 input  -60.11 | X-H torsion
[ 7974 7965 7964 7962 ] final  -12.88 input  175.53 | X-H torsion
[ 8008 7997 7996 7995 ] final  107.02 input   59.86 | X-H torsion
[ 10167 10162 10161 10158 ] final   97.52 input  -65.29 | X-H torsion
[ 10718 10713 10712 10709 ] final  -78.92 input   66.30 | X-H torsion
[ 10763 10752 10751 10750 ] final  174.54 input  -60.55 | X-H torsion
[ 11005 11000 10999 10996 ] final   79.86 input  -57.11 | X-H torsion

> <Gold.Protein.ActiveResidues>
 VAL166  LYS551  ARG553  GLY616  TRP617  ASP618  TYR619  PRO620  LYS621  CYS622 
 ASP623  PHE694  ASN695  SER759  ASP760  ASP761  ALA762  ILE779  LEU786  VAL792 
 PHE793  MET794  SER795  GLU796  ALA797  LYS798  CYS799  TRP800  GLU811  SER814 

> <Gold.Protein.RotatedAtoms>
  151.4836  133.3541  159.2841 H   0  0  0  0  0  0  0  0  0  0  0  0  # atno 6907 bound_to 6896
  150.8881  134.8283  159.7284 H   0  0  0  0  0  0  0  0  0  0  0  0  # atno 6908 bound_to 6896
  152.4805  134.4742  159.9697 H   0  0  0  0  0  0  0  0  0  0  0  0  # atno 6909 bound_to 6896
  146.2135  140.3121  142.8383 H   0  0  0  0  0  0  0  0  0  0  0  0  # atno 7974 bound_to 7965
  156.1791  140.3102  155.9114 H   0  0  0  0  0  0  0  0  0  0  0  0  # atno 8008 bound_to 7997
  155.3424  140.0466  157.3062 H   0  0  0  0  0  0  0  0  0  0  0  0  # atno 8009 bound_to 7997
  154.5322  140.2234  155.8794 H   0  0  0  0  0  0  0  0  0  0  0  0  # atno 8010 bound_to 7997
  139.7793  144.6894  151.0045 H   0  0  0  0  0  0  0  0  0  0  0  0  # atno 10167 bound_to 10162
  156.0105  130.4531  150.3569 H   0  0  0  0  0  0  0  0  0  0  0  0  # atno 10718 bound_to 10713
  154.4554  135.2766  155.1751 H   0  0  0  0  0  0  0  0  0  0  0  0  # atno 10763 bound_to 10752
  154.3561  135.6139  153.5671 H   0  0  0  0  0  0  0  0  0  0  0  0  # atno 10764 bound_to 10752
  152.9850  135.5823  154.4906 H   0  0  0  0  0  0  0  0  0  0  0  0  # atno 10765 bound_to 10752
  139.9156  134.7875  156.1834 H   0  0  0  0  0  0  0  0  0  0  0  0  # atno 11005 bound_to 11000
  144.8980  140.7608  143.5884 LP  0  0  0  0  0  0  0  0  0  0  0  0  # atno 17320 bound_to 7965
  145.3046  139.1839  143.4671 LP  0  0  0  0  0  0  0  0  0  0  0  0  # atno 17321 bound_to 7965
  140.7818  143.4500  151.0426 LP  0  0  0  0  0  0  0  0  0  0  0  0  # atno 17342 bound_to 10162
  139.8182  143.7857  152.3175 LP  0  0  0  0  0  0  0  0  0  0  0  0  # atno 17343 bound_to 10162
  157.1659  131.0357  151.2818 LP  0  0  0  0  0  0  0  0  0  0  0  0  # atno 17370 bound_to 10713
  157.4271  130.7469  149.6959 LP  0  0  0  0  0  0  0  0  0  0  0  0  # atno 17371 bound_to 10713
  141.0628  133.6833  156.1986 LP  0  0  0  0  0  0  0  0  0  0  0  0  # atno 17394 bound_to 11000
  140.6633  134.4945  157.5584 LP  0  0  0  0  0  0  0  0  0  0  0  0  # atno 17395 bound_to 11000

$$$$
