AV-unprocessed.smi:671|AV-procd|sdf|3288|dock3
  -GOLD-   22720 0243D 1   1.00000     0.00000
 Structure written by MMmdl.
 50 51  0  0  0  0  0  0  0  0  2 V2000
  151.1991  138.8483  154.6872 C   0  0  0  0  0  0  0  0  0  0  0  0
  149.8684  139.3735  154.2636 C   0  0  0  0  0  0  0  0  0  0  0  0
  148.9956  138.6978  153.4690 N   0  3  0  0  0  0  0  0  0  0  0  0
  147.8928  139.4313  153.2621 N   0  0  0  0  0  0  0  0  0  0  0  0
  146.8260  138.8780  152.4278 C   0  0  0  0  0  0  0  0  0  0  0  0
  147.9902  140.6233  153.9169 C   0  0  0  0  0  0  0  0  0  0  0  0
  146.9409  141.6870  153.9023 C   0  0  0  0  0  0  0  0  0  0  0  0
  149.2374  140.5891  154.5544 C   0  0  0  0  0  0  0  0  0  0  0  0
  149.8075  141.6866  155.4086 C   0  0  0  0  0  0  0  0  0  0  0  0
  149.4141  141.5658  156.8984 C   0  0  1  0  0  0  0  0  0  0  0  0
  150.6144  141.7409  157.8417 C   0  0  0  0  0  0  0  0  0  0  0  0
  148.3980  142.5656  157.2370 N   0  0  0  0  0  0  0  0  0  0  0  0
  147.6483  142.6471  158.3521 C   0  0  0  0  0  0  0  0  0  0  0  0
  147.7527  141.8295  159.2638 O   0  0  0  0  0  0  0  0  0  0  0  0
  146.7953  143.6848  158.3747 N   0  0  0  0  0  0  0  0  0  0  0  0
  145.8937  144.0379  159.4669 C   0  0  1  0  0  0  0  0  0  0  0  0
  144.9173  142.8803  159.7535 C   0  0  0  0  0  0  0  0  0  0  0  0
  145.2886  142.3388  161.1350 C   0  0  0  0  0  0  0  0  0  0  0  0
  145.8888  143.5393  161.8589 C   0  0  0  0  0  0  0  0  0  0  0  0
  146.6836  144.2699  160.7729 C   0  0  2  0  0  0  0  0  0  0  0  0
  146.9358  145.7506  161.0882 C   0  0  0  0  0  0  0  0  0  0  0  0
  151.9865  139.5499  154.4111 H   0  0  0  0  0  0  0  0  0  0  0  0
  151.4051  137.8908  154.2080 H   0  0  0  0  0  0  0  0  0  0  0  0
  151.2217  138.7063  155.7676 H   0  0  0  0  0  0  0  0  0  0  0  0
  146.1916  139.6846  152.0600 H   0  0  0  0  0  0  0  0  0  0  0  0
  146.2292  138.1875  153.0243 H   0  0  0  0  0  0  0  0  0  0  0  0
  147.2612  138.3493  151.5787 H   0  0  0  0  0  0  0  0  0  0  0  0
  147.1978  142.4977  154.5825 H   0  0  0  0  0  0  0  0  0  0  0  0
  145.9799  141.2740  154.2092 H   0  0  0  0  0  0  0  0  0  0  0  0
  146.8395  142.1005  152.8989 H   0  0  0  0  0  0  0  0  0  0  0  0
  150.8944  141.7099  155.3224 H   0  0  0  0  0  0  0  0  0  0  0  0
  149.4730  142.6469  155.0142 H   0  0  0  0  0  0  0  0  0  0  0  0
  149.0047  140.5714  157.0831 H   0  0  0  0  0  0  0  0  0  0  0  0
  151.3693  140.9727  157.6737 H   0  0  0  0  0  0  0  0  0  0  0  0
  150.3061  141.6665  158.8850 H   0  0  0  0  0  0  0  0  0  0  0  0
  151.0897  142.7130  157.7047 H   0  0  0  0  0  0  0  0  0  0  0  0
  148.2264  143.2694  156.5332 H   0  0  0  0  0  0  0  0  0  0  0  0
  146.7785  144.2916  157.5686 H   0  0  0  0  0  0  0  0  0  0  0  0
  145.3108  144.9278  159.2216 H   0  0  0  0  0  0  0  0  0  0  0  0
  143.8982  143.2685  159.7791 H   0  0  0  0  0  0  0  0  0  0  0  0
  144.9399  142.0970  158.9942 H   0  0  0  0  0  0  0  0  0  0  0  0
  144.4346  141.9131  161.6625 H   0  0  0  0  0  0  0  0  0  0  0  0
  146.0420  141.5569  161.0348 H   0  0  0  0  0  0  0  0  0  0  0  0
  145.0864  144.1772  162.2331 H   0  0  0  0  0  0  0  0  0  0  0  0
  146.5074  143.2497  162.7090 H   0  0  0  0  0  0  0  0  0  0  0  0
  147.6506  143.7686  160.6962 H   0  0  0  0  0  0  0  0  0  0  0  0
  145.9995  146.2990  161.1970 H   0  0  0  0  0  0  0  0  0  0  0  0
  147.5100  146.2260  160.2924 H   0  0  0  0  0  0  0  0  0  0  0  0
  147.4970  145.8628  162.0163 H   0  0  0  0  0  0  0  0  0  0  0  0
  149.0976  137.7786  153.0576 H   0  0  0  0  0  0  0  0  0  0  0  0
  1  2  1  0  0  0  0
  1 22  1  0  0  0  0
  1 23  1  0  0  0  0
  1 24  1  0  0  0  0
  2  8  1  0  0  0  0
  2  3  2  0  0  0  0
  3  4  1  0  0  0  0
  3 50  1  0  0  0  0
  4  5  1  0  0  0  0
  4  6  1  0  0  0  0
  5 25  1  0  0  0  0
  5 26  1  0  0  0  0
  5 27  1  0  0  0  0
  6  7  1  0  0  0  0
  6  8  2  0  0  0  0
  7 28  1  0  0  0  0
  7 29  1  0  0  0  0
  7 30  1  0  0  0  0
  8  9  1  0  0  0  0
  9 10  1  0  0  0  0
  9 31  1  0  0  0  0
  9 32  1  0  0  0  0
 10 11  1  0  0  0  0
 10 12  1  0  0  0  0
 10 33  1  0  0  0  0
 11 34  1  0  0  0  0
 11 35  1  0  0  0  0
 11 36  1  0  0  0  0
 12 13  1  0  0  0  0
 12 37  1  0  0  0  0
 13 14  2  0  0  0  0
 13 15  1  0  0  0  0
 15 16  1  0  0  0  0
 15 38  1  0  0  0  0
 16 20  1  0  0  0  0
 16 17  1  0  0  0  0
 16 39  1  0  0  0  0
 17 18  1  0  0  0  0
 17 40  1  0  0  0  0
 17 41  1  0  0  0  0
 18 19  1  0  0  0  0
 18 42  1  0  0  0  0
 18 43  1  0  0  0  0
 19 20  1  0  0  0  0
 19 44  1  0  0  0  0
 19 45  1  0  0  0  0
 20 21  1  0  0  0  0
 20 46  1  0  0  0  0
 21 47  1  0  0  0  0
 21 48  1  0  0  0  0
 21 49  1  0  0  0  0
M  CHG  1   3   1
M  END
> <s_m_source_file>
AV-unprocessed.smi

> <i_m_source_file_index>
671

> <i_lp_mmshare_version>
43012

> <i_f3d_flags>
0

> <s_epik_input>
W0NIM11jMW5uKFtDSDNdKWMoW0NIM10pYzFbQ0gyXVtDQEhdKFtDSDNdKVtOSF1DKD1PKVtOSF1bQ0BASF0yW0NIMl1bQ0gyXVtDSDJdW0NASF0yW0NIM10=

> <s_epik_cmdline>
J2VwaWtfcHl0aG9uJywgJy1waCcsICc3LjAnLCAnLXRuJywgJzgnLCAnLW1hJywgJzIwMCcsICctbWV0YWxfYmluZGluZycsICctaW1hZScsICc8aW5maWxlLm1hZT4nLCAnLW9tYWUnLCAnPG91dGZpbGUubWFlPic=

> <r_lp_tautomer_probability>
1

> <r_epik_Ionization_Penalty>
2.28705

> <r_epik_Ionization_Penalty_Charging>
2.28698

> <r_epik_Ionization_Penalty_Neutral>
6.23157e-05

> <r_epik_State_Penalty>
2.43671

> <r_epik_Charging_Adjusted_Penalty>
4.72369

> <i_epik_Tot_Q>
1

> <i_epik_Tot_abs_Q>
1

> <r_epik_Metal_State_Penalty>
2.44911

> <b_epik_Metal_Only>
0

> <s_lp_Force_Field>
OPLS_2005

> <r_lp_Energy>
34.8229

> <b_lp_Chiralities_Consistent>
1

> <s_lp_Variant>
AV-unprocessed.smi:671-16

> <Gold.Version>
5.8.1

> <Gold.Id.Protein>
6NUR|6NUR_protein|mol2

> <Gold.PLP.Fitness>
49.9054

> <Gold.PLP.PLP>
-41.1019

> <Gold.PLP.part.hbond>
-6.0051

> <Gold.PLP.part.metal>
0.0000

> <Gold.PLP.part.buried>
2.7503

> <Gold.PLP.part.nonpolar>
-36.6400

> <Gold.PLP.part.repulsive>
0.1646

> <Gold.PLP.ligand.clash>
0.0000

> <Gold.PLP.ligand.torsion>
1.1271

> <Gold.PLP.Chemscore.Hbond>
3.6604

> <Gold.PLP.Chemscore.CHOScore>
0.0000

> <Gold.PLP.Chemscore.Metal>
0.0000

> <Gold.Chemscore.Hbonds>
donor molecule, donor type, donor heavy atom, donor atom, acceptor molecule, acceptor atom, score
      L1  H     3    50       P1  7948  2.00
      L1  H    12    37       P1  8028  0.94
      L1  H    15    38       P1  8029  0.32
      P1  H  6933  6944       L1    14  0.05
      P1  H  6934  6946       L1    14  0.27

> <Gold.PLP.Chemscore.Internal.Correction>
0.0766

> <Gold.Rescore>
     Score         DG    S(hbond)    S(metal)    S(lipo)     H(rot)  DE(clash)    DE(int)     intcor
     15.26     -18.05       1.77        0.00      89.82       1.51       0.69       2.11       ----

> <Gold.Chemscore.Fitness>
15.2551

> <Gold.Chemscore.DG>
-18.0523

> <Gold.Chemscore.ZeroCoef>
-5.4800

> <Gold.Chemscore.Hbond>
1.7717

> <Gold.Chemscore.Metal>
0.0000

> <Gold.Chemscore.Lipo>
89.8245

> <Gold.Chemscore.Internal_Hbond>
0.0000

> <Gold.Chemscore.DEClash>
0.6908

> <Gold.Chemscore.DEInternal>
2.1064

> <Gold.Chemscore.Rot>
1.5057

> <Gold.Chemscore.Internal.Correction>
   9.000000E+99

> <Gold.Chemscore.Hbonds>
donor molecule, donor type, donor heavy atom, donor atom, acceptor molecule, acceptor atom, score
      L1  H     3    50       P1  7948  0.99
      L1  H    12    37       P1  8028  0.32
      L1  H    15    38       P1  8029  0.02
      P1  H  6933  6944       L1    14  0.05
      P1  H  6934  6946       L1    14  0.28

> <Gold.Chemscore.Hbond.Weighted>
-5.9175

> <Gold.Chemscore.Metal.Weighted>
-0.0000

> <Gold.Chemscore.Lipo.Weighted>
-10.5095

> <Gold.Chemscore.Internal_Hbond.Weighted>
0.0000

> <Gold.Chemscore.DEClash.Weighted>
0.6908

> <Gold.Chemscore.DEInternal.Weighted>
2.1064

> <Gold.Chemscore.Rot.Weighted>
3.8547

> <Gold.Chemscore.Internal.Correction.Weighted>
   9.000000E+99

> <Gold.Protein.RotatedTorsions>
[ 6907 6896 6895 6894 ] final   -1.76 input  -60.11 | X-H torsion
[ 7974 7965 7964 7962 ] final  135.79 input  175.53 | X-H torsion
[ 8008 7997 7996 7995 ] final   98.01 input   59.86 | X-H torsion
[ 10167 10162 10161 10158 ] final  -33.93 input  -65.29 | X-H torsion
[ 10718 10713 10712 10709 ] final  124.82 input   66.30 | X-H torsion
[ 10763 10752 10751 10750 ] final -113.29 input  -60.55 | X-H torsion
[ 11005 11000 10999 10996 ] final  163.85 input  -57.11 | X-H torsion

> <Gold.Protein.ActiveResidues>
 VAL166  LYS551  ARG553  GLY616  TRP617  ASP618  TYR619  PRO620  LYS621  CYS622 
 ASP623  PHE694  ASN695  SER759  ASP760  ASP761  ALA762  ILE779  LEU786  VAL792 
 PHE793  MET794  SER795  GLU796  ALA797  LYS798  CYS799  TRP800  GLU811  SER814 

> <Gold.Protein.RotatedAtoms>
  151.5409  135.1068  159.9925 H   0  0  0  0  0  0  0  0  0  0  0  0  # atno 6907 bound_to 6896
  152.4536  133.7673  159.6790 H   0  0  0  0  0  0  0  0  0  0  0  0  # atno 6908 bound_to 6896
  150.8472  133.7777  159.3063 H   0  0  0  0  0  0  0  0  0  0  0  0  # atno 6909 bound_to 6896
  144.9629  139.4690  143.5471 H   0  0  0  0  0  0  0  0  0  0  0  0  # atno 7974 bound_to 7965
  156.0960  140.3250  155.7879 H   0  0  0  0  0  0  0  0  0  0  0  0  # atno 8008 bound_to 7997
  155.4916  140.0562  157.2970 H   0  0  0  0  0  0  0  0  0  0  0  0  # atno 8009 bound_to 7997
  154.4667  140.1992  156.0115 H   0  0  0  0  0  0  0  0  0  0  0  0  # atno 8010 bound_to 7997
  140.7195  143.3584  151.2012 H   0  0  0  0  0  0  0  0  0  0  0  0  # atno 10167 bound_to 10162
  157.5553  131.1092  150.8632 H   0  0  0  0  0  0  0  0  0  0  0  0  # atno 10718 bound_to 10713
  154.8389  135.4459  154.1326 H   0  0  0  0  0  0  0  0  0  0  0  0  # atno 10763 bound_to 10752
  153.2532  135.6929  153.7662 H   0  0  0  0  0  0  0  0  0  0  0  0  # atno 10764 bound_to 10752
  153.6967  135.3378  155.3191 H   0  0  0  0  0  0  0  0  0  0  0  0  # atno 10765 bound_to 10752
  140.2400  134.8058  157.3401 H   0  0  0  0  0  0  0  0  0  0  0  0  # atno 11005 bound_to 11000
  146.3359  139.8791  142.8827 LP  0  0  0  0  0  0  0  0  0  0  0  0  # atno 17320 bound_to 7965
  145.2673  141.0097  143.3792 LP  0  0  0  0  0  0  0  0  0  0  0  0  # atno 17321 bound_to 7965
  139.7131  143.9344  152.2955 LP  0  0  0  0  0  0  0  0  0  0  0  0  # atno 17342 bound_to 10162
  139.9076  144.6875  150.8597 LP  0  0  0  0  0  0  0  0  0  0  0  0  # atno 17343 bound_to 10162
  156.9145  130.5292  149.5280 LP  0  0  0  0  0  0  0  0  0  0  0  0  # atno 17370 bound_to 10713
  156.0613  130.5665  150.9199 LP  0  0  0  0  0  0  0  0  0  0  0  0  # atno 17371 bound_to 10713
  140.1663  134.4665  155.7861 LP  0  0  0  0  0  0  0  0  0  0  0  0  # atno 17394 bound_to 11000
  141.2211  133.6922  156.7631 LP  0  0  0  0  0  0  0  0  0  0  0  0  # atno 17395 bound_to 11000

$$$$
