AV-unprocessed.smi:260|AV-procd|sdf|1980|dock1
  -GOLD-   2262021153D 1   1.00000     0.00000
 Structure written by MMmdl.
 53 56  0  0  0  0  0  0  0  0  1 V2000
  145.6715  135.7833  153.0485 C   0  0  0  0  0  0  0  0  0  0  0  0
  146.9344  135.1531  153.4003 N   0  0  0  0  0  0  0  0  0  0  0  0
  147.2136  134.6303  154.6051 C   0  0  0  0  0  0  0  0  0  0  0  0
  146.4036  134.6597  155.5329 O   0  0  0  0  0  0  0  0  0  0  0  0
  148.6046  133.9788  154.8256 C   0  0  2  0  0  0  0  0  0  0  0  0
  148.7577  132.7882  153.8592 C   0  0  0  0  0  0  0  0  0  0  0  0
  148.8919  133.5793  156.2911 C   0  0  0  0  0  0  0  0  0  0  0  0
  149.3628  134.8741  156.9666 C   0  0  0  0  0  0  0  0  0  0  0  0
  149.8458  135.7207  155.8851 N   0  0  0  0  0  0  0  0  0  0  0  0
  150.8139  136.6487  156.0978 C   0  0  0  0  0  0  0  0  0  0  0  0
  151.6953  136.9175  155.0980 N   0  0  0  0  0  0  0  0  0  0  0  0
  152.6627  137.8227  155.2705 C   0  0  0  0  0  0  0  0  0  0  0  0
  152.9243  138.5693  156.3445 N   0  0  0  0  0  0  0  0  0  0  0  0
  152.0360  138.3171  157.3475 C   0  0  0  0  0  0  0  0  0  0  0  0
  150.9600  137.3842  157.3109 C   0  0  0  0  0  0  0  0  0  0  0  0
  150.2698  137.4210  158.5184 N   0  0  0  0  0  0  0  0  0  0  0  0
  150.9059  138.3124  159.2278 C   0  0  0  0  0  0  0  0  0  0  0  0
  151.9812  138.8984  158.6013 N   0  0  0  0  0  0  0  0  0  0  0  0
  152.8658  139.9116  159.1492 C   0  0  0  0  0  0  0  0  0  0  0  0
  152.4424  141.3380  158.7463 C   0  0  2  0  0  0  0  0  0  0  0  0
  152.7312  141.5369  157.3750 O   0  0  0  0  0  0  0  0  0  0  0  0
  153.1652  142.4197  159.5707 C   0  0  1  0  0  0  0  0  0  0  0  0
  152.5373  143.8122  159.4725 C   0  0  0  0  0  0  0  0  0  0  0  0
  152.9883  144.4464  160.7674 C   0  0  0  0  0  0  0  0  0  0  0  0
  152.8757  143.2744  161.7361 C   0  0  0  0  0  0  0  0  0  0  0  0
  153.1187  142.1030  160.9614 O   0  0  0  0  0  0  0  0  0  0  0  0
  149.7144  135.0260  154.6102 C   0  0  0  0  0  0  0  0  0  0  0  0
  145.7228  136.1760  152.0333 H   0  0  0  0  0  0  0  0  0  0  0  0
  145.4461  136.6106  153.7229 H   0  0  0  0  0  0  0  0  0  0  0  0
  144.8547  135.0623  153.0954 H   0  0  0  0  0  0  0  0  0  0  0  0
  147.6409  135.1010  152.6809 H   0  0  0  0  0  0  0  0  0  0  0  0
  149.7451  132.3332  153.9426 H   0  0  0  0  0  0  0  0  0  0  0  0
  148.6309  133.0931  152.8193 H   0  0  0  0  0  0  0  0  0  0  0  0
  148.0218  132.0113  154.0699 H   0  0  0  0  0  0  0  0  0  0  0  0
  148.0568  133.1101  156.8119 H   0  0  0  0  0  0  0  0  0  0  0  0
  149.7097  132.8576  156.3148 H   0  0  0  0  0  0  0  0  0  0  0  0
  148.5319  135.3756  157.4635 H   0  0  0  0  0  0  0  0  0  0  0  0
  150.1358  134.6701  157.7084 H   0  0  0  0  0  0  0  0  0  0  0  0
  153.3213  137.9690  154.4271 H   0  0  0  0  0  0  0  0  0  0  0  0
  150.6081  138.5655  160.2348 H   0  0  0  0  0  0  0  0  0  0  0  0
  152.8657  139.8074  160.2347 H   0  0  0  0  0  0  0  0  0  0  0  0
  153.8842  139.7047  158.8171 H   0  0  0  0  0  0  0  0  0  0  0  0
  151.3652  141.4445  158.8817 H   0  0  0  0  0  0  0  0  0  0  0  0
  152.1403  142.1915  157.0359 H   0  0  0  0  0  0  0  0  0  0  0  0
  154.2158  142.4794  159.2812 H   0  0  0  0  0  0  0  0  0  0  0  0
  152.8620  144.3646  158.5904 H   0  0  0  0  0  0  0  0  0  0  0  0
  151.4485  143.7444  159.4512 H   0  0  0  0  0  0  0  0  0  0  0  0
  154.0268  144.7698  160.6848 H   0  0  0  0  0  0  0  0  0  0  0  0
  152.3830  145.3045  161.0611 H   0  0  0  0  0  0  0  0  0  0  0  0
  153.5743  143.3550  162.5693 H   0  0  0  0  0  0  0  0  0  0  0  0
  151.8665  143.2138  162.1449 H   0  0  0  0  0  0  0  0  0  0  0  0
  150.6601  134.5413  154.3625 H   0  0  0  0  0  0  0  0  0  0  0  0
  149.4817  135.7267  153.8069 H   0  0  0  0  0  0  0  0  0  0  0  0
  1  2  1  0  0  0  0
  1 28  1  0  0  0  0
  1 29  1  0  0  0  0
  1 30  1  0  0  0  0
  2  3  1  0  0  0  0
  2 31  1  0  0  0  0
  3  4  2  0  0  0  0
  3  5  1  0  0  0  0
  5 27  1  0  0  0  0
  5  6  1  0  0  0  0
  5  7  1  0  0  0  0
  6 32  1  0  0  0  0
  6 33  1  0  0  0  0
  6 34  1  0  0  0  0
  7  8  1  0  0  0  0
  7 35  1  0  0  0  0
  7 36  1  0  0  0  0
  8  9  1  0  0  0  0
  8 37  1  0  0  0  0
  8 38  1  0  0  0  0
  9 10  1  0  0  0  0
  9 27  1  0  0  0  0
 10 15  1  0  0  0  0
 10 11  2  0  0  0  0
 11 12  1  0  0  0  0
 12 13  2  0  0  0  0
 12 39  1  0  0  0  0
 13 14  1  0  0  0  0
 14 18  1  0  0  0  0
 14 15  2  0  0  0  0
 15 16  1  0  0  0  0
 16 17  2  0  0  0  0
 17 18  1  0  0  0  0
 17 40  1  0  0  0  0
 18 19  1  0  0  0  0
 19 20  1  0  0  0  0
 19 41  1  0  0  0  0
 19 42  1  0  0  0  0
 20 21  1  0  0  0  0
 20 22  1  0  0  0  0
 20 43  1  0  0  0  0
 21 44  1  0  0  0  0
 22 26  1  0  0  0  0
 22 23  1  0  0  0  0
 22 45  1  0  0  0  0
 23 24  1  0  0  0  0
 23 46  1  0  0  0  0
 23 47  1  0  0  0  0
 24 25  1  0  0  0  0
 24 48  1  0  0  0  0
 24 49  1  0  0  0  0
 25 26  1  0  0  0  0
 25 50  1  0  0  0  0
 25 51  1  0  0  0  0
 27 52  1  0  0  0  0
 27 53  1  0  0  0  0
M  END
> <s_m_source_file>
AV-unprocessed.smi

> <i_m_source_file_index>
260

> <i_lp_mmshare_version>
43012

> <i_f3d_flags>
0

> <s_epik_input>
W0NIM11bTkhdQyg9TylbQ0BAXTEoW0NIM10pW0NIMl1bQ0gyXU4oW0NIMl0xKWMobltjSF1uMiljKGMyMyluW2NIXW4zW0NIMl1bQ0BIXShbT0hdKVtDQEBIXTRbQ0gyXVtDSDJdW0NIMl1PNA==

> <s_epik_cmdline>
J2VwaWtfcHl0aG9uJywgJy1waCcsICc3LjAnLCAnLXRuJywgJzgnLCAnLW1hJywgJzIwMCcsICctbWV0YWxfYmluZGluZycsICctaW1hZScsICc8aW5maWxlLm1hZT4nLCAnLW9tYWUnLCAnPG91dGZpbGUubWFlPic=

> <r_lp_tautomer_probability>
1

> <r_epik_Ionization_Penalty>
0.00115068

> <r_epik_Ionization_Penalty_Charging>
0

> <r_epik_Ionization_Penalty_Neutral>
0.00115068

> <r_epik_State_Penalty>
0.000668876

> <r_epik_Charging_Adjusted_Penalty>
0.000668876

> <i_epik_Tot_Q>
0

> <i_epik_Tot_abs_Q>
0

> <r_epik_Metal_State_Penalty>
-0

> <b_epik_Metal_Only>
0

> <s_lp_Force_Field>
OPLS_2005

> <r_lp_Energy>
49.109

> <b_lp_Chiralities_Consistent>
1

> <s_lp_Variant>
AV-unprocessed.smi:260-6

> <Gold.Version>
5.8.1

> <Gold.Id.Protein>
6NUR|6NUR_protein|mol2

> <Gold.PLP.Fitness>
50.4448

> <Gold.PLP.PLP>
-40.8240

> <Gold.PLP.part.hbond>
-3.8301

> <Gold.PLP.part.metal>
0.0000

> <Gold.PLP.part.buried>
-4.7895

> <Gold.PLP.part.nonpolar>
-32.0932

> <Gold.PLP.part.repulsive>
0.1154

> <Gold.PLP.ligand.clash>
0.0000

> <Gold.PLP.ligand.torsion>
0.8861

> <Gold.PLP.Chemscore.Hbond>
3.5829

> <Gold.PLP.Chemscore.CHOScore>
0.0000

> <Gold.PLP.Chemscore.Metal>
0.0000

> <Gold.Chemscore.Hbonds>
donor molecule, donor type, donor heavy atom, donor atom, acceptor molecule, acceptor atom, score
      L1  H     2    31       P1  7948  0.82
      P1  H  7997  8010       L1    13  0.76
      P1  H 10752 10765       L1    11  0.55

> <Gold.PLP.Chemscore.Internal.Correction>
0.6441

> <Gold.Rescore>
     Score         DG    S(hbond)    S(metal)    S(lipo)     H(rot)  DE(clash)    DE(int)     intcor
     12.95     -15.24       1.68        0.00      90.68       2.53       1.52       0.78       ----

> <Gold.Chemscore.Fitness>
12.9514

> <Gold.Chemscore.DG>
-15.2425

> <Gold.Chemscore.ZeroCoef>
-5.4800

> <Gold.Chemscore.Hbond>
1.6823

> <Gold.Chemscore.Metal>
0.0000

> <Gold.Chemscore.Lipo>
90.6847

> <Gold.Chemscore.Internal_Hbond>
0.0000

> <Gold.Chemscore.DEClash>
1.5161

> <Gold.Chemscore.DEInternal>
0.7750

> <Gold.Chemscore.Rot>
2.5259

> <Gold.Chemscore.Internal.Correction>
   9.000000E+99

> <Gold.Chemscore.Hbonds>
donor molecule, donor type, donor heavy atom, donor atom, acceptor molecule, acceptor atom, score
      L1  H     2    31       P1  7948  0.79
      P1  H  7997  8010       L1    13  0.69
      P1  H 10752 10765       L1    11  0.03

> <Gold.Chemscore.Hbond.Weighted>
-5.6188

> <Gold.Chemscore.Metal.Weighted>
-0.0000

> <Gold.Chemscore.Lipo.Weighted>
-10.6101

> <Gold.Chemscore.Internal_Hbond.Weighted>
0.0000

> <Gold.Chemscore.DEClash.Weighted>
1.5161

> <Gold.Chemscore.DEInternal.Weighted>
0.7750

> <Gold.Chemscore.Rot.Weighted>
6.4663

> <Gold.Chemscore.Internal.Correction.Weighted>
   9.000000E+99

> <Gold.Protein.RotatedTorsions>
[ 6907 6896 6895 6894 ] final  -16.86 input  -60.11 | X-H torsion
[ 7974 7965 7964 7962 ] final   77.49 input  175.53 | X-H torsion
[ 8008 7997 7996 7995 ] final   86.72 input   59.86 | X-H torsion
[ 10167 10162 10161 10158 ] final  105.23 input  -65.29 | X-H torsion
[ 10718 10713 10712 10709 ] final  -92.88 input   66.30 | X-H torsion
[ 10763 10752 10751 10750 ] final -179.51 input  -60.55 | X-H torsion
[ 11005 11000 10999 10996 ] final   34.77 input  -57.11 | X-H torsion

> <Gold.Protein.ActiveResidues>
 VAL166  LYS551  ARG553  GLY616  TRP617  ASP618  TYR619  PRO620  LYS621  CYS622 
 ASP623  PHE694  ASN695  SER759  ASP760  ASP761  ALA762  ILE779  LEU786  VAL792 
 PHE793  MET794  SER795  GLU796  ALA797  LYS798  CYS799  TRP800  GLU811  SER814 

> <Gold.Protein.RotatedAtoms>
  151.3022  135.0772  159.9242 H   0  0  0  0  0  0  0  0  0  0  0  0  # atno 6907 bound_to 6896
  152.5295  133.9822  159.7822 H   0  0  0  0  0  0  0  0  0  0  0  0  # atno 6908 bound_to 6896
  151.0110  133.5914  159.2713 H   0  0  0  0  0  0  0  0  0  0  0  0  # atno 6909 bound_to 6896
  145.6894  139.2548  143.1768 H   0  0  0  0  0  0  0  0  0  0  0  0  # atno 7974 bound_to 7965
  155.9664  140.3389  155.6536 H   0  0  0  0  0  0  0  0  0  0  0  0  # atno 8008 bound_to 7997
  155.6732  140.0729  157.2530 H   0  0  0  0  0  0  0  0  0  0  0  0  # atno 8009 bound_to 7997
  154.4155  140.1688  156.1889 H   0  0  0  0  0  0  0  0  0  0  0  0  # atno 8010 bound_to 7997
  139.7110  144.7077  151.1026 H   0  0  0  0  0  0  0  0  0  0  0  0  # atno 10167 bound_to 10162
  156.0007  130.5004  150.5692 H   0  0  0  0  0  0  0  0  0  0  0  0  # atno 10718 bound_to 10713
  154.5341  135.2801  155.1154 H   0  0  0  0  0  0  0  0  0  0  0  0  # atno 10763 bound_to 10752
  154.2662  135.6312  153.5296 H   0  0  0  0  0  0  0  0  0  0  0  0  # atno 10764 bound_to 10752
  152.9963  135.5617  154.5863 H   0  0  0  0  0  0  0  0  0  0  0  0  # atno 10765 bound_to 10752
  140.2494  134.3320  155.7896 H   0  0  0  0  0  0  0  0  0  0  0  0  # atno 11005 bound_to 11000
  146.0895  140.7672  142.9602 LP  0  0  0  0  0  0  0  0  0  0  0  0  # atno 17320 bound_to 7965
  144.7001  140.3615  143.7163 LP  0  0  0  0  0  0  0  0  0  0  0  0  # atno 17321 bound_to 7965
  140.7733  143.5293  150.9443 LP  0  0  0  0  0  0  0  0  0  0  0  0  # atno 17342 bound_to 10162
  139.8977  143.6874  152.3136 LP  0  0  0  0  0  0  0  0  0  0  0  0  # atno 17343 bound_to 10162
  157.3589  131.0746  151.1652 LP  0  0  0  0  0  0  0  0  0  0  0  0  # atno 17370 bound_to 10713
  157.2444  130.6584  149.5903 LP  0  0  0  0  0  0  0  0  0  0  0  0  # atno 17371 bound_to 10713
  141.2203  133.7345  156.9013 LP  0  0  0  0  0  0  0  0  0  0  0  0  # atno 17394 bound_to 11000
  140.1573  134.9190  157.2669 LP  0  0  0  0  0  0  0  0  0  0  0  0  # atno 17395 bound_to 11000

$$$$
