AV-unprocessed.smi:328|AV-procd|sdf|2347|dock2
  -GOLD-   2262022253D 1   1.00000     0.00000
 Structure written by MMmdl.
 23 24  0  0  0  0  0  0  0  0  2 V2000
  155.2182  138.8020  158.5446 O   0  0  0  0  0  0  0  0  0  0  0  0
  154.2927  138.9300  159.3760 C   0  0  0  0  0  0  0  0  0  0  0  0
  153.0835  138.6921  159.1603 O   0  5  0  0  0  0  0  0  0  0  0  0
  154.6696  139.4126  160.7788 C   0  0  0  0  0  0  0  0  0  0  0  0
  154.0163  140.7457  161.0121 C   0  0  0  0  0  0  0  0  0  0  0  0
  154.0149  141.4727  162.1786 C   0  0  0  0  0  0  0  0  0  0  0  0
  153.1402  142.9702  162.0172 S   0  0  0  0  0  0  0  0  0  0  0  0
  152.8150  142.5592  160.3346 C   0  0  0  0  0  0  0  0  0  0  0  0
  152.0688  143.3985  159.4544 N   0  0  0  0  0  0  0  0  0  0  0  0
  151.8435  144.8050  159.7644 C   0  0  0  0  0  0  0  0  0  0  0  0
  151.0080  145.3100  158.5919 C   0  0  0  0  0  0  0  0  0  0  0  0
  150.8825  144.1255  157.7758 N   0  0  0  0  0  0  0  0  0  0  0  0
  151.4938  143.0527  158.2834 C   0  0  0  0  0  0  0  0  0  0  0  0
  151.5101  141.9494  157.7398 O   0  0  0  0  0  0  0  0  0  0  0  0
  153.3367  141.3828  159.9676 N   0  0  0  0  0  0  0  0  0  0  0  0
  154.3416  138.6849  161.5221 H   0  0  0  0  0  0  0  0  0  0  0  0
  155.7555  139.4805  160.8596 H   0  0  0  0  0  0  0  0  0  0  0  0
  154.4682  141.2091  163.1227 H   0  0  0  0  0  0  0  0  0  0  0  0
  151.3091  144.9110  160.7096 H   0  0  0  0  0  0  0  0  0  0  0  0
  152.7915  145.3400  159.8367 H   0  0  0  0  0  0  0  0  0  0  0  0
  150.0262  145.6627  158.9092 H   0  0  0  0  0  0  0  0  0  0  0  0
  151.5116  146.1051  158.0410 H   0  0  0  0  0  0  0  0  0  0  0  0
  150.3781  144.1217  156.9011 H   0  0  0  0  0  0  0  0  0  0  0  0
  1  2  2  0  0  0  0
  2  3  1  0  0  0  0
  2  4  1  0  0  0  0
  4  5  1  0  0  0  0
  4 16  1  0  0  0  0
  4 17  1  0  0  0  0
  5 15  1  0  0  0  0
  5  6  2  0  0  0  0
  6  7  1  0  0  0  0
  6 18  1  0  0  0  0
  7  8  1  0  0  0  0
  8  9  1  0  0  0  0
  8 15  2  0  0  0  0
  9 13  1  0  0  0  0
  9 10  1  0  0  0  0
 10 11  1  0  0  0  0
 10 19  1  0  0  0  0
 10 20  1  0  0  0  0
 11 12  1  0  0  0  0
 11 21  1  0  0  0  0
 11 22  1  0  0  0  0
 12 13  1  0  0  0  0
 12 23  1  0  0  0  0
 13 14  2  0  0  0  0
M  CHG  1   3  -1
M  END
> <s_m_source_file>
AV-unprocessed.smi

> <i_m_source_file_index>
328

> <i_lp_mmshare_version>
43012

> <i_f3d_flags>
0

> <s_epik_input>
Tz1DKFtPSF0pW0NIMl1jMVtjSF1zYyhuMSlOMltDSDJdW0NIMl1bTkhdQzI9Tw==

> <s_epik_cmdline>
J2VwaWtfcHl0aG9uJywgJy1waCcsICc3LjAnLCAnLXRuJywgJzgnLCAnLW1hJywgJzIwMCcsICctbWV0YWxfYmluZGluZycsICctaW1hZScsICc8aW5maWxlLm1hZT4nLCAnLW9tYWUnLCAnPG91dGZpbGUubWFlPic=

> <r_lp_tautomer_probability>
1

> <r_epik_Ionization_Penalty>
0.000968476

> <r_epik_Ionization_Penalty_Charging>
0.000722293

> <r_epik_Ionization_Penalty_Neutral>
0.000246183

> <r_epik_State_Penalty>
0.000460635

> <r_epik_Charging_Adjusted_Penalty>
0.00118293

> <i_epik_Tot_Q>
-1

> <i_epik_Tot_abs_Q>
1

> <r_epik_Metal_State_Penalty>
-0

> <b_epik_Metal_Only>
0

> <s_lp_Force_Field>
OPLS_2005

> <r_lp_Energy>
33.9917

> <b_lp_Chiralities_Consistent>
1

> <s_lp_Variant>
AV-unprocessed.smi:328-1

> <Gold.Version>
5.8.1

> <Gold.Id.Protein>
6NUR|6NUR_protein|mol2

> <Gold.PLP.Fitness>
42.2669

> <Gold.PLP.PLP>
-33.6323

> <Gold.PLP.part.hbond>
-2.0000

> <Gold.PLP.part.metal>
0.0000

> <Gold.PLP.part.buried>
-4.1032

> <Gold.PLP.part.nonpolar>
-26.0189

> <Gold.PLP.part.repulsive>
0.0592

> <Gold.PLP.ligand.clash>
0.0000

> <Gold.PLP.ligand.torsion>
0.1847

> <Gold.PLP.Chemscore.Hbond>
3.0000

> <Gold.PLP.Chemscore.CHOScore>
0.0000

> <Gold.PLP.Chemscore.Metal>
0.0000

> <Gold.Chemscore.Hbonds>
donor molecule, donor type, donor heavy atom, donor atom, acceptor molecule, acceptor atom, score
      L1  H    12    23       P1  8028  1.00
      P1  H  7997  8010       L1     1  2.00

> <Gold.PLP.Chemscore.Internal.Correction>
0.0040

> <Gold.Rescore>
     Score         DG    S(hbond)    S(metal)    S(lipo)     H(rot)  DE(clash)    DE(int)     intcor
     13.28     -15.03       1.92        0.00      61.17       1.57       0.02       1.73       ----

> <Gold.Chemscore.Fitness>
13.2820

> <Gold.Chemscore.DG>
-15.0318

> <Gold.Chemscore.ZeroCoef>
-5.4800

> <Gold.Chemscore.Hbond>
1.9169

> <Gold.Chemscore.Metal>
0.0000

> <Gold.Chemscore.Lipo>
61.1705

> <Gold.Chemscore.Internal_Hbond>
0.0000

> <Gold.Chemscore.DEClash>
0.0202

> <Gold.Chemscore.DEInternal>
1.7296

> <Gold.Chemscore.Rot>
1.5654

> <Gold.Chemscore.Internal.Correction>
   9.000000E+99

> <Gold.Chemscore.Hbonds>
donor molecule, donor type, donor heavy atom, donor atom, acceptor molecule, acceptor atom, score
      L1  H    12    23       P1  8028  0.90
      P1  H  7997  8010       L1     1  0.93

> <Gold.Chemscore.Hbond.Weighted>
-6.4024

> <Gold.Chemscore.Metal.Weighted>
-0.0000

> <Gold.Chemscore.Lipo.Weighted>
-7.1570

> <Gold.Chemscore.Internal_Hbond.Weighted>
0.0000

> <Gold.Chemscore.DEClash.Weighted>
0.0202

> <Gold.Chemscore.DEInternal.Weighted>
1.7296

> <Gold.Chemscore.Rot.Weighted>
4.0075

> <Gold.Chemscore.Internal.Correction.Weighted>
   9.000000E+99

> <Gold.Protein.RotatedTorsions>
[ 6907 6896 6895 6894 ] final   41.68 input  -60.11 | X-H torsion
[ 7974 7965 7964 7962 ] final  -50.77 input  175.53 | X-H torsion
[ 8008 7997 7996 7995 ] final  -10.46 input   59.86 | X-H torsion
[ 10167 10162 10161 10158 ] final  170.71 input  -65.29 | X-H torsion
[ 10718 10713 10712 10709 ] final   71.79 input   66.30 | X-H torsion
[ 10763 10752 10751 10750 ] final  -56.42 input  -60.55 | X-H torsion
[ 11005 11000 10999 10996 ] final -118.21 input  -57.11 | X-H torsion

> <Gold.Protein.ActiveResidues>
 VAL166  LYS551  ARG553  GLY616  TRP617  ASP618  TYR619  PRO620  LYS621  CYS622 
 ASP623  PHE694  ASN695  SER759  ASP760  ASP761  ALA762  ILE779  LEU786  VAL792 
 PHE793  MET794  SER795  GLU796  ALA797  LYS798  CYS799  TRP800  GLU811  SER814 

> <Gold.Protein.RotatedAtoms>
  152.1983  134.8610  160.0510 H   0  0  0  0  0  0  0  0  0  0  0  0  # atno 6907 bound_to 6896
  151.9473  133.3650  159.3995 H   0  0  0  0  0  0  0  0  0  0  0  0  # atno 6908 bound_to 6896
  150.6949  134.4301  159.5288 H   0  0  0  0  0  0  0  0  0  0  0  0  # atno 6909 bound_to 6896
  145.9262  140.7790  142.9622 H   0  0  0  0  0  0  0  0  0  0  0  0  # atno 7974 bound_to 7965
  154.5552  140.2328  155.8421 H   0  0  0  0  0  0  0  0  0  0  0  0  # atno 8008 bound_to 7997
  156.1982  140.3059  155.9431 H   0  0  0  0  0  0  0  0  0  0  0  0  # atno 8009 bound_to 7997
  155.2994  140.0430  157.3019 H   0  0  0  0  0  0  0  0  0  0  0  0  # atno 8010 bound_to 7997
  139.5026  144.3567  151.9867 H   0  0  0  0  0  0  0  0  0  0  0  0  # atno 10167 bound_to 10162
  157.6469  130.9546  150.0839 H   0  0  0  0  0  0  0  0  0  0  0  0  # atno 10718 bound_to 10713
  154.2063  135.6402  153.5102 H   0  0  0  0  0  0  0  0  0  0  0  0  # atno 10763 bound_to 10752
  153.0000  135.5463  154.6262 H   0  0  0  0  0  0  0  0  0  0  0  0  # atno 10764 bound_to 10752
  154.5688  135.2915  155.0821 H   0  0  0  0  0  0  0  0  0  0  0  0  # atno 10765 bound_to 10752
  141.0302  133.9993  157.3155 H   0  0  0  0  0  0  0  0  0  0  0  0  # atno 11005 bound_to 11000
  144.6759  140.2054  143.7382 LP  0  0  0  0  0  0  0  0  0  0  0  0  # atno 17320 bound_to 7965
  145.8486  139.2164  143.1785 LP  0  0  0  0  0  0  0  0  0  0  0  0  # atno 17321 bound_to 7965
  140.3003  144.3654  150.6062 LP  0  0  0  0  0  0  0  0  0  0  0  0  # atno 17342 bound_to 10162
  140.5878  143.2169  151.7309 LP  0  0  0  0  0  0  0  0  0  0  0  0  # atno 17343 bound_to 10162
  156.1807  130.3650  149.9039 LP  0  0  0  0  0  0  0  0  0  0  0  0  # atno 17370 bound_to 10713
  156.6992  130.8926  151.3597 LP  0  0  0  0  0  0  0  0  0  0  0  0  # atno 17371 bound_to 10713
  139.9202  135.0200  156.8037 LP  0  0  0  0  0  0  0  0  0  0  0  0  # atno 17394 bound_to 11000
  140.6421  133.9809  155.7712 LP  0  0  0  0  0  0  0  0  0  0  0  0  # atno 17395 bound_to 11000

$$$$
