AV-unprocessed.smi:2027|AV-procd|sdf|8216|dock2
  -GOLD-   2272010483D 1   1.00000     0.00000
 Structure written by MMmdl.
 50 52  0  0  0  0  0  0  0  0  2 V2000
  152.3514  143.8771  160.7087 C   0  0  0  0  0  0  0  0  0  0  0  0
  152.0765  142.9357  159.5485 C   0  0  0  0  0  0  0  0  0  0  0  0
  151.1386  143.3304  158.5677 C   0  0  0  0  0  0  0  0  0  0  0  0
  150.9076  142.4479  157.5191 C   0  0  0  0  0  0  0  0  0  0  0  0
  150.0602  142.5435  156.4130 N   0  3  0  0  0  0  0  0  0  0  0  0
  150.1775  141.4206  155.6517 C   0  0  0  0  0  0  0  0  0  0  0  0
  151.0862  140.6082  156.2560 N   0  0  0  0  0  0  0  0  0  0  0  0
  151.5785  139.2839  155.8505 C   0  0  0  0  0  0  0  0  0  0  0  0
  150.4450  138.2465  155.7175 C   0  0  1  0  0  0  0  0  0  0  0  0
  150.7059  137.3463  154.6585 O   0  0  0  0  0  0  0  0  0  0  0  0
  150.1182  137.4302  156.9886 C   0  0  0  0  0  0  0  0  0  0  0  0
  149.1175  136.3721  156.8147 N   0  0  0  0  0  0  0  0  0  0  0  0
  147.7687  136.9320  156.8035 C   0  0  0  0  0  0  0  0  0  0  0  0
  149.2220  135.3274  157.8375 C   0  0  0  0  0  0  0  0  0  0  0  0
  148.6461  135.7600  159.1596 C   0  0  0  0  0  0  0  0  0  0  0  0
  148.6843  137.0551  159.7507 C   0  0  0  0  0  0  0  0  0  0  0  0
  148.0835  137.1008  160.9290 N   0  0  0  0  0  0  0  0  0  0  0  0
  147.6481  135.8407  161.1337 N   0  0  0  0  0  0  0  0  0  0  0  0
  146.9298  135.5197  162.3483 C   0  0  0  0  0  0  0  0  0  0  0  0
  147.9749  135.0099  160.0846 C   0  0  0  0  0  0  0  0  0  0  0  0
  151.5711  141.2091  157.4243 C   0  0  0  0  0  0  0  0  0  0  0  0
  152.5008  140.8071  158.3813 C   0  0  0  0  0  0  0  0  0  0  0  0
  152.7487  141.6897  159.4562 C   0  0  0  0  0  0  0  0  0  0  0  0
  153.7564  141.2742  160.5146 C   0  0  0  0  0  0  0  0  0  0  0  0
  151.8008  144.8123  160.6028 H   0  0  0  0  0  0  0  0  0  0  0  0
  153.4126  144.1214  160.7629 H   0  0  0  0  0  0  0  0  0  0  0  0
  152.0521  143.4183  161.6513 H   0  0  0  0  0  0  0  0  0  0  0  0
  150.6242  144.2784  158.6308 H   0  0  0  0  0  0  0  0  0  0  0  0
  149.6476  141.2134  154.7331 H   0  0  0  0  0  0  0  0  0  0  0  0
  152.1346  139.3915  154.9210 H   0  0  0  0  0  0  0  0  0  0  0  0
  152.2939  138.9600  156.6072 H   0  0  0  0  0  0  0  0  0  0  0  0
  149.5386  138.7859  155.4399 H   0  0  0  0  0  0  0  0  0  0  0  0
  151.6274  137.3896  154.4531 H   0  0  0  0  0  0  0  0  0  0  0  0
  151.0329  137.0116  157.4114 H   0  0  0  0  0  0  0  0  0  0  0  0
  149.7650  138.1459  157.7331 H   0  0  0  0  0  0  0  0  0  0  0  0
  147.0204  136.1588  156.6269 H   0  0  0  0  0  0  0  0  0  0  0  0
  147.6633  137.6703  156.0079 H   0  0  0  0  0  0  0  0  0  0  0  0
  147.5364  137.4194  157.7514 H   0  0  0  0  0  0  0  0  0  0  0  0
  148.7194  134.4207  157.5106 H   0  0  0  0  0  0  0  0  0  0  0  0
  150.2665  135.0325  157.9484 H   0  0  0  0  0  0  0  0  0  0  0  0
  149.1258  137.9593  159.3584 H   0  0  0  0  0  0  0  0  0  0  0  0
  146.8827  134.4381  162.4785 H   0  0  0  0  0  0  0  0  0  0  0  0
  145.9155  135.9153  162.2899 H   0  0  0  0  0  0  0  0  0  0  0  0
  147.4371  135.9570  163.2091 H   0  0  0  0  0  0  0  0  0  0  0  0
  147.7039  133.9643  160.0792 H   0  0  0  0  0  0  0  0  0  0  0  0
  153.0191  139.8625  158.3115 H   0  0  0  0  0  0  0  0  0  0  0  0
  154.1418  140.2716  160.3261 H   0  0  0  0  0  0  0  0  0  0  0  0
  153.2974  141.2725  161.5034 H   0  0  0  0  0  0  0  0  0  0  0  0
  154.6034  141.9605  160.5254 H   0  0  0  0  0  0  0  0  0  0  0  0
  149.4480  143.3179  156.1899 H   0  0  0  0  0  0  0  0  0  0  0  0
  1  2  1  0  0  0  0
  1 25  1  0  0  0  0
  1 26  1  0  0  0  0
  1 27  1  0  0  0  0
  2 23  1  0  0  0  0
  2  3  2  0  0  0  0
  3  4  1  0  0  0  0
  3 28  1  0  0  0  0
  4 21  2  0  0  0  0
  4  5  1  0  0  0  0
  5  6  2  0  0  0  0
  5 50  1  0  0  0  0
  6  7  1  0  0  0  0
  6 29  1  0  0  0  0
  7  8  1  0  0  0  0
  7 21  1  0  0  0  0
  8  9  1  0  0  0  0
  8 30  1  0  0  0  0
  8 31  1  0  0  0  0
  9 10  1  0  0  0  0
  9 11  1  0  0  0  0
  9 32  1  0  0  0  0
 10 33  1  0  0  0  0
 11 12  1  0  0  0  0
 11 34  1  0  0  0  0
 11 35  1  0  0  0  0
 12 13  1  0  0  0  0
 12 14  1  0  0  0  0
 13 36  1  0  0  0  0
 13 37  1  0  0  0  0
 13 38  1  0  0  0  0
 14 15  1  0  0  0  0
 14 39  1  0  0  0  0
 14 40  1  0  0  0  0
 15 20  2  0  0  0  0
 15 16  1  0  0  0  0
 16 17  2  0  0  0  0
 16 41  1  0  0  0  0
 17 18  1  0  0  0  0
 18 19  1  0  0  0  0
 18 20  1  0  0  0  0
 19 42  1  0  0  0  0
 19 43  1  0  0  0  0
 19 44  1  0  0  0  0
 20 45  1  0  0  0  0
 21 22  1  0  0  0  0
 22 23  2  0  0  0  0
 22 46  1  0  0  0  0
 23 24  1  0  0  0  0
 24 47  1  0  0  0  0
 24 48  1  0  0  0  0
 24 49  1  0  0  0  0
M  CHG  1   5   1
M  END
> <s_m_source_file>
AV-unprocessed.smi

> <i_m_source_file_index>
2027

> <i_lp_mmshare_version>
43012

> <i_f3d_flags>
0

> <s_epik_input>
W0NIM11jKFtjSF0xKWMoW0NIM10pW2NIXWMoYzEyKW4oW2NIXW4yKVtDSDJdW0NASF0oW09IXSlbQ0gyXU4oW0NIM10pW0NIMl1jM1tjSF1ubihbQ0gzXSlbY0hdMw==

> <s_epik_cmdline>
J2VwaWtfcHl0aG9uJywgJy1waCcsICc3LjAnLCAnLXRuJywgJzgnLCAnLW1hJywgJzIwMCcsICctbWV0YWxfYmluZGluZycsICctaW1hZScsICc8aW5maWxlLm1hZT4nLCAnLW9tYWUnLCAnPG91dGZpbGUubWFlPic=

> <r_epik_Ionization_Penalty>
1.48134

> <r_epik_Ionization_Penalty_Charging>
1.21121

> <r_epik_Ionization_Penalty_Neutral>
0.270133

> <r_epik_State_Penalty>
1.53013

> <r_epik_Charging_Adjusted_Penalty>
2.74134

> <i_epik_Tot_Q>
1

> <i_epik_Tot_abs_Q>
1

> <r_epik_Metal_State_Penalty>
1.60443

> <b_epik_Metal_Only>
0

> <s_lp_Force_Field>
OPLS_2005

> <r_lp_Energy>
28.2554

> <b_lp_Chiralities_Consistent>
1

> <s_lp_Variant>
AV-unprocessed.smi:2027-8

> <Gold.Version>
5.8.1

> <Gold.Id.Protein>
6NUR|6NUR_protein|mol2

> <Gold.PLP.Fitness>
53.2362

> <Gold.PLP.PLP>
-44.4030

> <Gold.PLP.part.hbond>
-3.0000

> <Gold.PLP.part.metal>
0.0000

> <Gold.PLP.part.buried>
-5.3083

> <Gold.PLP.part.nonpolar>
-35.9924

> <Gold.PLP.part.repulsive>
0.0988

> <Gold.PLP.ligand.clash>
0.0000

> <Gold.PLP.ligand.torsion>
1.1198

> <Gold.PLP.Chemscore.Hbond>
3.6480

> <Gold.PLP.Chemscore.CHOScore>
0.0000

> <Gold.PLP.Chemscore.Metal>
0.0000

> <Gold.Chemscore.Hbonds>
donor molecule, donor type, donor heavy atom, donor atom, acceptor molecule, acceptor atom, score
      L1  H     5    50       P1  8028  2.00
      P1  H  6931  6943       L1    17  0.96
      P1  H  6934  6947       L1    17  0.56

> <Gold.PLP.Chemscore.Internal.Correction>
0.1288

> <Gold.Rescore>
     Score         DG    S(hbond)    S(metal)    S(lipo)     H(rot)  DE(clash)    DE(int)     intcor
     17.95     -18.97       1.89        0.00     115.96       2.50       0.02       1.00       ----

> <Gold.Chemscore.Fitness>
17.9488

> <Gold.Chemscore.DG>
-18.9742

> <Gold.Chemscore.ZeroCoef>
-5.4800

> <Gold.Chemscore.Hbond>
1.8943

> <Gold.Chemscore.Metal>
0.0000

> <Gold.Chemscore.Lipo>
115.9571

> <Gold.Chemscore.Internal_Hbond>
0.0000

> <Gold.Chemscore.DEClash>
0.0220

> <Gold.Chemscore.DEInternal>
1.0034

> <Gold.Chemscore.Rot>
2.5000

> <Gold.Chemscore.Internal.Correction>
   9.000000E+99

> <Gold.Chemscore.Hbonds>
donor molecule, donor type, donor heavy atom, donor atom, acceptor molecule, acceptor atom, score
      L1  H     5    50       P1  8028  0.98
      P1  H  6931  6943       L1    17  0.46
      P1  H  6934  6947       L1    17  0.22

> <Gold.Chemscore.Hbond.Weighted>
-6.3271

> <Gold.Chemscore.Metal.Weighted>
-0.0000

> <Gold.Chemscore.Lipo.Weighted>
-13.5670

> <Gold.Chemscore.Internal_Hbond.Weighted>
0.0000

> <Gold.Chemscore.DEClash.Weighted>
0.0220

> <Gold.Chemscore.DEInternal.Weighted>
1.0034

> <Gold.Chemscore.Rot.Weighted>
6.3999

> <Gold.Chemscore.Internal.Correction.Weighted>
   9.000000E+99

> <Gold.Protein.RotatedTorsions>
[ 6907 6896 6895 6894 ] final    8.69 input  -60.11 | X-H torsion
[ 7974 7965 7964 7962 ] final   61.62 input  175.53 | X-H torsion
[ 8008 7997 7996 7995 ] final  146.04 input   59.86 | X-H torsion
[ 10167 10162 10161 10158 ] final  -84.53 input  -65.29 | X-H torsion
[ 10718 10713 10712 10709 ] final -138.15 input   66.30 | X-H torsion
[ 10763 10752 10751 10750 ] final   34.05 input  -60.55 | X-H torsion
[ 11005 11000 10999 10996 ] final  -68.61 input  -57.11 | X-H torsion

> <Gold.Protein.ActiveResidues>
 VAL166  LYS551  ARG553  GLY616  TRP617  ASP618  TYR619  PRO620  LYS621  CYS622 
 ASP623  PHE694  ASN695  SER759  ASP760  ASP761  ALA762  ILE779  LEU786  VAL792 
 PHE793  MET794  SER795  GLU796  ALA797  LYS798  CYS799  TRP800  GLU811  SER814 

> <Gold.Protein.RotatedAtoms>
  151.7100  135.0914  160.0265 H   0  0  0  0  0  0  0  0  0  0  0  0  # atno 6907 bound_to 6896
  152.3667  133.6362  159.6064 H   0  0  0  0  0  0  0  0  0  0  0  0  # atno 6908 bound_to 6896
  150.7643  133.9252  159.3451 H   0  0  0  0  0  0  0  0  0  0  0  0  # atno 6909 bound_to 6896
  145.8827  139.3454  143.0696 H   0  0  0  0  0  0  0  0  0  0  0  0  # atno 7974 bound_to 7965
  156.2866  140.2193  156.5313 H   0  0  0  0  0  0  0  0  0  0  0  0  # atno 8008 bound_to 7997
  154.7446  140.0485  157.0863 H   0  0  0  0  0  0  0  0  0  0  0  0  # atno 8009 bound_to 7997
  155.0186  140.3121  155.4805 H   0  0  0  0  0  0  0  0  0  0  0  0  # atno 8010 bound_to 7997
  140.4123  143.2617  151.9001 H   0  0  0  0  0  0  0  0  0  0  0  0  # atno 10167 bound_to 10162
  156.2961  130.7402  151.1441 H   0  0  0  0  0  0  0  0  0  0  0  0  # atno 10718 bound_to 10713
  153.0182  135.6371  154.1607 H   0  0  0  0  0  0  0  0  0  0  0  0  # atno 10763 bound_to 10752
  154.1344  135.2838  155.3178 H   0  0  0  0  0  0  0  0  0  0  0  0  # atno 10764 bound_to 10752
  154.6170  135.5537  153.7596 H   0  0  0  0  0  0  0  0  0  0  0  0  # atno 10765 bound_to 10752
  141.1536  133.6745  156.6472 H   0  0  0  0  0  0  0  0  0  0  0  0  # atno 11005 bound_to 11000
  145.9004  140.9246  143.0506 LP  0  0  0  0  0  0  0  0  0  0  0  0  # atno 17320 bound_to 7965
  144.6727  140.1025  143.7460 LP  0  0  0  0  0  0  0  0  0  0  0  0  # atno 17321 bound_to 7965
  139.4782  144.5524  151.8366 LP  0  0  0  0  0  0  0  0  0  0  0  0  # atno 17342 bound_to 10162
  140.4624  144.1703  150.5908 LP  0  0  0  0  0  0  0  0  0  0  0  0  # atno 17343 bound_to 10162
  157.7355  131.0571  150.5463 LP  0  0  0  0  0  0  0  0  0  0  0  0  # atno 17370 bound_to 10713
  156.5585  130.4249  149.6074 LP  0  0  0  0  0  0  0  0  0  0  0  0  # atno 17371 bound_to 10713
  140.3348  134.7899  157.4353 LP  0  0  0  0  0  0  0  0  0  0  0  0  # atno 17394 bound_to 11000
  140.0987  134.5502  155.8374 LP  0  0  0  0  0  0  0  0  0  0  0  0  # atno 17395 bound_to 11000

$$$$
