AV-unprocessed.smi:193|AV-procd|sdf|1511|dock10
  -GOLD-   2262019343D 1   1.00000     0.00000
 Structure written by MMmdl.
 62 66  0  0  0  0  0  0  0  0  2 V2000
  144.4354  132.2649  150.6129 C   0  0  0  0  0  0  0  0  0  0  0  0
  145.7133  131.9329  151.4005 C   0  0  1  0  0  0  0  0  0  0  0  0
  145.7542  132.7758  152.6916 C   0  0  0  0  0  0  0  0  0  0  0  0
  147.0970  132.9627  153.2453 N   0  0  0  0  0  0  0  0  0  0  0  0
  147.3117  134.0306  154.0580 C   0  0  0  0  0  0  0  0  0  0  0  0
  146.2857  134.8899  154.2980 N   0  0  0  0  0  0  0  0  0  0  0  0
  146.4590  135.9459  155.0979 C   0  0  0  0  0  0  0  0  0  0  0  0
  147.5593  136.3271  155.7481 N   0  0  0  0  0  0  0  0  0  0  0  0
  148.5968  135.4764  155.5058 C   0  0  0  0  0  0  0  0  0  0  0  0
  148.5619  134.3160  154.6809 C   0  0  0  0  0  0  0  0  0  0  0  0
  149.8156  133.7143  154.6642 N   0  0  0  0  0  0  0  0  0  0  0  0
  150.5433  134.4665  155.4442 C   0  0  0  0  0  0  0  0  0  0  0  0
  149.8885  135.5430  155.9975 N   0  0  0  0  0  0  0  0  0  0  0  0
  150.4535  136.5374  156.8968 C   0  0  0  0  0  0  0  0  0  0  0  0
  150.2411  137.9988  156.4294 C   0  0  0  0  0  0  0  0  0  0  0  0
  149.0917  138.4993  157.0904 O   0  0  0  0  0  0  0  0  0  0  0  0
  151.4490  138.8703  156.8279 C   0  0  0  0  0  0  0  0  0  0  0  0
  151.3618  140.2894  156.2383 C   0  0  0  0  0  0  0  0  0  0  0  0
  151.2169  140.2215  154.8251 O   0  0  0  0  0  0  0  0  0  0  0  0
  150.0154  139.5736  154.4258 C   0  0  0  0  0  0  0  0  0  0  0  0
  150.0168  138.1111  154.9054 C   0  0  0  0  0  0  0  0  0  0  0  0
  148.1264  131.9256  153.1836 C   0  0  0  0  0  0  0  0  0  0  0  0
  147.5787  130.5052  153.3792 C   0  0  0  0  0  0  0  0  0  0  0  0
  147.0986  129.9277  152.1012 N   0  3  1  0  0  0  0  0  0  0  0  0
  147.1483  128.4479  152.1177 C   0  0  1  0  0  0  0  0  0  0  0  0
  147.6248  127.8441  150.8165 C   0  0  0  0  0  0  0  0  0  0  0  0
  148.5480  127.8816  152.0151 C   0  0  2  0  0  0  0  0  0  0  0  0
  148.9178  126.6007  152.7304 C   0  0  0  0  0  0  0  0  0  0  0  0
  145.7582  130.4182  151.6972 C   0  0  0  0  0  0  0  0  0  0  0  0
  143.5403  132.0249  151.1877 H   0  0  0  0  0  0  0  0  0  0  0  0
  144.3900  131.7071  149.6769 H   0  0  0  0  0  0  0  0  0  0  0  0
  144.3928  133.3246  150.3590 H   0  0  0  0  0  0  0  0  0  0  0  0
  146.5552  132.2042  150.7616 H   0  0  0  0  0  0  0  0  0  0  0  0
  145.3528  133.7653  152.4661 H   0  0  0  0  0  0  0  0  0  0  0  0
  145.0995  132.3464  153.4511 H   0  0  0  0  0  0  0  0  0  0  0  0
  145.5919  136.5747  155.2375 H   0  0  0  0  0  0  0  0  0  0  0  0
  151.5842  134.2547  155.6418 H   0  0  0  0  0  0  0  0  0  0  0  0
  150.0179  136.3884  157.8858 H   0  0  0  0  0  0  0  0  0  0  0  0
  151.5190  136.3301  157.0027 H   0  0  0  0  0  0  0  0  0  0  0  0
  149.3235  138.6983  157.9846 H   0  0  0  0  0  0  0  0  0  0  0  0
  151.5435  138.9208  157.9135 H   0  0  0  0  0  0  0  0  0  0  0  0
  152.3652  138.4034  156.4639 H   0  0  0  0  0  0  0  0  0  0  0  0
  150.5327  140.8482  156.6748 H   0  0  0  0  0  0  0  0  0  0  0  0
  152.2714  140.8437  156.4699 H   0  0  0  0  0  0  0  0  0  0  0  0
  149.1512  140.1142  154.8144 H   0  0  0  0  0  0  0  0  0  0  0  0
  149.9443  139.6080  153.3387 H   0  0  0  0  0  0  0  0  0  0  0  0
  150.8137  137.5781  154.3851 H   0  0  0  0  0  0  0  0  0  0  0  0
  149.0834  137.6295  154.6118 H   0  0  0  0  0  0  0  0  0  0  0  0
  148.6784  132.0069  152.2466 H   0  0  0  0  0  0  0  0  0  0  0  0
  148.8523  132.0950  153.9793 H   0  0  0  0  0  0  0  0  0  0  0  0
  148.4059  129.8910  153.7382 H   0  0  0  0  0  0  0  0  0  0  0  0
  146.8126  130.4614  154.1551 H   0  0  0  0  0  0  0  0  0  0  0  0
  146.3860  127.9457  152.7112 H   0  0  0  0  0  0  0  0  0  0  0  0
  147.2087  126.8800  150.5309 H   0  0  0  0  0  0  0  0  0  0  0  0
  147.8531  128.5130  149.9886 H   0  0  0  0  0  0  0  0  0  0  0  0
  149.3643  128.6004  151.9632 H   0  0  0  0  0  0  0  0  0  0  0  0
  148.0715  125.9134  152.7571 H   0  0  0  0  0  0  0  0  0  0  0  0
  149.2210  126.8184  153.7545 H   0  0  0  0  0  0  0  0  0  0  0  0
  149.7469  126.1122  152.2182 H   0  0  0  0  0  0  0  0  0  0  0  0
  145.0192  130.1504  152.4543 H   0  0  0  0  0  0  0  0  0  0  0  0
  145.4714  129.8806  150.7923 H   0  0  0  0  0  0  0  0  0  0  0  0
  147.7495  130.2204  151.3866 H   0  0  0  0  0  0  0  0  0  0  0  0
  1  2  1  0  0  0  0
  1 30  1  0  0  0  0
  1 31  1  0  0  0  0
  1 32  1  0  0  0  0
  2 29  1  0  0  0  0
  2  3  1  0  0  0  0
  2 33  1  0  0  0  0
  3  4  1  0  0  0  0
  3 34  1  0  0  0  0
  3 35  1  0  0  0  0
  4  5  1  0  0  0  0
  4 22  1  0  0  0  0
  5 10  1  0  0  0  0
  5  6  2  0  0  0  0
  6  7  1  0  0  0  0
  7  8  2  0  0  0  0
  7 36  1  0  0  0  0
  8  9  1  0  0  0  0
  9 13  1  0  0  0  0
  9 10  2  0  0  0  0
 10 11  1  0  0  0  0
 11 12  2  0  0  0  0
 12 13  1  0  0  0  0
 12 37  1  0  0  0  0
 13 14  1  0  0  0  0
 14 15  1  0  0  0  0
 14 38  1  0  0  0  0
 14 39  1  0  0  0  0
 15 21  1  0  0  0  0
 15 16  1  0  0  0  0
 15 17  1  0  0  0  0
 16 40  1  0  0  0  0
 17 18  1  0  0  0  0
 17 41  1  0  0  0  0
 17 42  1  0  0  0  0
 18 19  1  0  0  0  0
 18 43  1  0  0  0  0
 18 44  1  0  0  0  0
 19 20  1  0  0  0  0
 20 21  1  0  0  0  0
 20 45  1  0  0  0  0
 20 46  1  0  0  0  0
 21 47  1  0  0  0  0
 21 48  1  0  0  0  0
 22 23  1  0  0  0  0
 22 49  1  0  0  0  0
 22 50  1  0  0  0  0
 23 24  1  0  0  0  0
 23 51  1  0  0  0  0
 23 52  1  0  0  0  0
 24 25  1  0  0  0  0
 24 29  1  0  0  0  0
 24 62  1  0  0  0  0
 25 27  1  0  0  0  0
 25 26  1  0  0  0  0
 25 53  1  0  0  0  0
 26 27  1  0  0  0  0
 26 54  1  0  0  0  0
 26 55  1  0  0  0  0
 27 28  1  0  0  0  0
 27 56  1  0  0  0  0
 28 57  1  0  0  0  0
 28 58  1  0  0  0  0
 28 59  1  0  0  0  0
 29 60  1  0  0  0  0
 29 61  1  0  0  0  0
M  CHG  1  24   1
M  END
> <s_m_source_file>
AV-unprocessed.smi

> <i_m_source_file_index>
193

> <i_lp_mmshare_version>
43012

> <i_f3d_flags>
0

> <s_epik_input>
W0NIM11bQ0BASF0xW0NIMl1bQ0BIXTFOKFtDSDJdMilbQ0gyXVtDSDJdTihbQ0gyXVtDQEhdMltDSDNdKWMobltjSF1uMyljKGMzNCluW2NIXW40W0NIMl1DNShbT0hdKVtDSDJdW0NIMl1PW0NIMl1bQ0gyXTU=

> <s_epik_cmdline>
J2VwaWtfcHl0aG9uJywgJy1waCcsICc3LjAnLCAnLXRuJywgJzgnLCAnLW1hJywgJzIwMCcsICctbWV0YWxfYmluZGluZycsICctaW1hZScsICc8aW5maWxlLm1hZT4nLCAnLW9tYWUnLCAnPG91dGZpbGUubWFlPic=

> <r_lp_tautomer_probability>
1

> <r_epik_Ionization_Penalty>
0.0540825

> <r_epik_Ionization_Penalty_Charging>
0.0538476

> <r_epik_Ionization_Penalty_Neutral>
0.000234891

> <r_epik_State_Penalty>
0.0200719

> <r_epik_Charging_Adjusted_Penalty>
0.0739194

> <i_epik_Tot_Q>
1

> <i_epik_Tot_abs_Q>
1

> <r_epik_Metal_State_Penalty>
0.0199414

> <b_epik_Metal_Only>
0

> <s_lp_Force_Field>
OPLS_2005

> <r_lp_Energy>
53.3477

> <b_lp_Chiralities_Consistent>
1

> <s_lp_Variant>
AV-unprocessed.smi:193-16

> <Gold.Version>
5.8.1

> <Gold.Id.Protein>
6NUR|6NUR_protein|mol2

> <Gold.PLP.Fitness>
47.9916

> <Gold.PLP.PLP>
-43.5809

> <Gold.PLP.part.hbond>
-1.9014

> <Gold.PLP.part.metal>
0.0000

> <Gold.PLP.part.buried>
-6.5332

> <Gold.PLP.part.nonpolar>
-35.7530

> <Gold.PLP.part.repulsive>
0.3032

> <Gold.PLP.ligand.clash>
0.0000

> <Gold.PLP.ligand.torsion>
1.4437

> <Gold.PLP.Chemscore.Hbond>
2.0000

> <Gold.PLP.Chemscore.CHOScore>
0.0000

> <Gold.PLP.Chemscore.Metal>
0.0000

> <Gold.Chemscore.Hbonds>
donor molecule, donor type, donor heavy atom, donor atom, acceptor molecule, acceptor atom, score
      L1  H    24    62       P1 10747  1.00
      P1  H  7989  7998       L1    19  1.00

> <Gold.PLP.Chemscore.Internal.Correction>
1.2981

> <Gold.Rescore>
     Score         DG    S(hbond)    S(metal)    S(lipo)     H(rot)  DE(clash)    DE(int)     intcor
     16.10     -19.77       1.93        0.00     109.15       1.93       0.04       3.63       ----

> <Gold.Chemscore.Fitness>
16.0971

> <Gold.Chemscore.DG>
-19.7721

> <Gold.Chemscore.ZeroCoef>
-5.4800

> <Gold.Chemscore.Hbond>
1.9342

> <Gold.Chemscore.Metal>
0.0000

> <Gold.Chemscore.Lipo>
109.1479

> <Gold.Chemscore.Internal_Hbond>
0.0000

> <Gold.Chemscore.DEClash>
0.0431

> <Gold.Chemscore.DEInternal>
3.6320

> <Gold.Chemscore.Rot>
1.9290

> <Gold.Chemscore.Internal.Correction>
   9.000000E+99

> <Gold.Chemscore.Hbonds>
donor molecule, donor type, donor heavy atom, donor atom, acceptor molecule, acceptor atom, score
      L1  H    24    62       P1 10747  1.00
      P1  H  7989  7998       L1    19  0.28

> <Gold.Chemscore.Hbond.Weighted>
-6.4601

> <Gold.Chemscore.Metal.Weighted>
-0.0000

> <Gold.Chemscore.Lipo.Weighted>
-12.7703

> <Gold.Chemscore.Internal_Hbond.Weighted>
0.0000

> <Gold.Chemscore.DEClash.Weighted>
0.0431

> <Gold.Chemscore.DEInternal.Weighted>
3.6320

> <Gold.Chemscore.Rot.Weighted>
4.9383

> <Gold.Chemscore.Internal.Correction.Weighted>
   9.000000E+99

> <Gold.Protein.RotatedTorsions>
[ 6907 6896 6895 6894 ] final -169.13 input  -60.11 | X-H torsion
[ 7974 7965 7964 7962 ] final   26.96 input  175.53 | X-H torsion
[ 8008 7997 7996 7995 ] final    7.72 input   59.86 | X-H torsion
[ 10167 10162 10161 10158 ] final  178.66 input  -65.29 | X-H torsion
[ 10718 10713 10712 10709 ] final   -9.12 input   66.30 | X-H torsion
[ 10763 10752 10751 10750 ] final  133.46 input  -60.55 | X-H torsion
[ 11005 11000 10999 10996 ] final  178.22 input  -57.11 | X-H torsion

> <Gold.Protein.ActiveResidues>
 VAL166  LYS551  ARG553  GLY616  TRP617  ASP618  TYR619  PRO620  LYS621  CYS622 
 ASP623  PHE694  ASN695  SER759  ASP760  ASP761  ALA762  ILE779  LEU786  VAL792 
 PHE793  MET794  SER795  GLU796  ALA797  LYS798  CYS799  TRP800  GLU811  SER814 

> <Gold.Protein.RotatedAtoms>
  151.4867  133.3534  159.2846 H   0  0  0  0  0  0  0  0  0  0  0  0  # atno 6907 bound_to 6896
  150.8862  134.8262  159.7271 H   0  0  0  0  0  0  0  0  0  0  0  0  # atno 6908 bound_to 6896
  152.4794  134.4771  159.9705 H   0  0  0  0  0  0  0  0  0  0  0  0  # atno 6909 bound_to 6896
  146.1810  139.7256  142.8900 H   0  0  0  0  0  0  0  0  0  0  0  0  # atno 7974 bound_to 7965
  154.7575  140.2778  155.6241 H   0  0  0  0  0  0  0  0  0  0  0  0  # atno 8008 bound_to 7997
  156.2909  140.2666  156.2271 H   0  0  0  0  0  0  0  0  0  0  0  0  # atno 8009 bound_to 7997
  155.0059  140.0372  157.2369 H   0  0  0  0  0  0  0  0  0  0  0  0  # atno 8010 bound_to 7997
  139.5303  144.2654  152.0673 H   0  0  0  0  0  0  0  0  0  0  0  0  # atno 10167 bound_to 10162
  156.6926  130.5069  149.5939 H   0  0  0  0  0  0  0  0  0  0  0  0  # atno 10718 bound_to 10713
  153.8075  135.3133  155.3397 H   0  0  0  0  0  0  0  0  0  0  0  0  # atno 10763 bound_to 10752
  154.8064  135.4695  154.0407 H   0  0  0  0  0  0  0  0  0  0  0  0  # atno 10764 bound_to 10752
  153.1775  135.6888  153.8612 H   0  0  0  0  0  0  0  0  0  0  0  0  # atno 10765 bound_to 10752
  140.3927  134.6848  157.4517 H   0  0  0  0  0  0  0  0  0  0  0  0  # atno 11005 bound_to 11000
  145.4077  141.0393  143.3035 LP  0  0  0  0  0  0  0  0  0  0  0  0  # atno 17320 bound_to 7965
  144.8315  139.5621  143.6942 LP  0  0  0  0  0  0  0  0  0  0  0  0  # atno 17321 bound_to 7965
  140.2116  144.4557  150.6383 LP  0  0  0  0  0  0  0  0  0  0  0  0  # atno 17342 bound_to 10162
  140.6477  143.2217  151.6149 LP  0  0  0  0  0  0  0  0  0  0  0  0  # atno 17343 bound_to 10162
  156.1786  130.6484  151.0925 LP  0  0  0  0  0  0  0  0  0  0  0  0  # atno 17370 bound_to 10713
  157.7003  131.0778  150.6841 LP  0  0  0  0  0  0  0  0  0  0  0  0  # atno 17371 bound_to 10713
  140.0395  134.6289  155.9000 LP  0  0  0  0  0  0  0  0  0  0  0  0  # atno 17394 bound_to 11000
  141.1885  133.6562  156.5327 LP  0  0  0  0  0  0  0  0  0  0  0  0  # atno 17395 bound_to 11000

$$$$
