AV-unprocessed.smi:1703|AV-procd|sdf|6879|dock4
  -GOLD-   22720 8 83D 1   1.00000     0.00000
 Structure written by MMmdl.
 50 52  0  0  0  0  0  0  0  0  3 V2000
  152.2317  138.1908  154.5581 C   0  0  0  0  0  0  0  0  0  0  0  0
  151.0646  137.2450  154.2554 C   0  0  2  0  0  0  0  0  0  0  0  0
  149.6981  137.9364  154.4232 C   0  0  0  0  0  0  0  0  0  0  0  0
  148.5954  136.9694  154.1965 N   0  3  2  0  0  0  0  0  0  0  0  0
  147.2400  137.5704  154.2954 C   0  0  0  0  0  0  0  0  0  0  0  0
  146.2691  137.0615  153.2102 C   0  0  1  0  0  0  0  0  0  0  0  0
  146.8758  137.1993  151.9395 O   0  0  0  0  0  0  0  0  0  0  0  0
  145.9022  135.5802  153.4322 C   0  0  0  0  0  0  0  0  0  0  0  0
  145.0495  135.0323  152.3644 N   0  0  0  0  0  0  0  0  0  0  0  0
  143.8396  135.4475  151.8851 C   0  0  0  0  0  0  0  0  0  0  0  0
  143.0335  136.6153  152.3504 C   0  0  0  0  0  0  0  0  0  0  0  0
  143.6139  137.8469  151.9844 O   0  0  0  0  0  0  0  0  0  0  0  0
  143.4809  134.5836  150.8938 N   0  3  0  0  0  0  0  0  0  0  0  0
  144.4685  133.6120  150.7314 C   0  0  0  0  0  0  0  0  0  0  0  0
  144.5515  132.5330  149.8569 C   0  0  0  0  0  0  0  0  0  0  0  0
  145.7067  131.7293  149.9513 C   0  0  0  0  0  0  0  0  0  0  0  0
  146.7223  132.0103  150.8884 C   0  0  0  0  0  0  0  0  0  0  0  0
  146.6260  133.1060  151.7713 C   0  0  0  0  0  0  0  0  0  0  0  0
  145.4807  133.8956  151.6709 C   0  0  0  0  0  0  0  0  0  0  0  0
  148.7544  135.7933  155.0842 C   0  0  0  0  0  0  0  0  0  0  0  0
  150.1459  135.1589  154.8992 C   0  0  2  0  0  0  0  0  0  0  0  0
  150.3777  133.9849  155.8564 C   0  0  0  0  0  0  0  0  0  0  0  0
  151.1418  136.1434  155.1534 O   0  0  0  0  0  0  0  0  0  0  0  0
  152.2289  139.0471  153.8833 H   0  0  0  0  0  0  0  0  0  0  0  0
  153.1877  137.6798  154.4416 H   0  0  0  0  0  0  0  0  0  0  0  0
  152.1794  138.5690  155.5796 H   0  0  0  0  0  0  0  0  0  0  0  0
  151.1702  136.8815  153.2316 H   0  0  0  0  0  0  0  0  0  0  0  0
  149.6115  138.3578  155.4263 H   0  0  0  0  0  0  0  0  0  0  0  0
  149.6290  138.7666  153.7216 H   0  0  0  0  0  0  0  0  0  0  0  0
  146.8121  137.3464  155.2739 H   0  0  0  0  0  0  0  0  0  0  0  0
  147.3295  138.6568  154.2460 H   0  0  0  0  0  0  0  0  0  0  0  0
  145.3524  137.6494  153.2126 H   0  0  0  0  0  0  0  0  0  0  0  0
  147.5901  136.5842  151.8717 H   0  0  0  0  0  0  0  0  0  0  0  0
  146.8038  134.9702  153.4923 H   0  0  0  0  0  0  0  0  0  0  0  0
  145.3843  135.4468  154.3830 H   0  0  0  0  0  0  0  0  0  0  0  0
  142.0234  136.5556  151.9459 H   0  0  0  0  0  0  0  0  0  0  0  0
  142.9423  136.5796  153.4363 H   0  0  0  0  0  0  0  0  0  0  0  0
  143.7235  137.8586  151.0453 H   0  0  0  0  0  0  0  0  0  0  0  0
  143.7750  132.3159  149.1379 H   0  0  0  0  0  0  0  0  0  0  0  0
  145.8162  130.8809  149.2913 H   0  0  0  0  0  0  0  0  0  0  0  0
  147.5931  131.3721  150.9306 H   0  0  0  0  0  0  0  0  0  0  0  0
  147.4096  133.3118  152.4853 H   0  0  0  0  0  0  0  0  0  0  0  0
  148.6125  136.0992  156.1222 H   0  0  0  0  0  0  0  0  0  0  0  0
  147.9836  135.0554  154.8583 H   0  0  0  0  0  0  0  0  0  0  0  0
  150.2520  134.7969  153.8749 H   0  0  0  0  0  0  0  0  0  0  0  0
  149.6415  133.1965  155.6967 H   0  0  0  0  0  0  0  0  0  0  0  0
  150.3073  134.3028  156.8973 H   0  0  0  0  0  0  0  0  0  0  0  0
  151.3663  133.5503  155.7074 H   0  0  0  0  0  0  0  0  0  0  0  0
  148.6908  136.6226  153.2528 H   0  0  0  0  0  0  0  0  0  0  0  0
  142.6189  134.6561  150.3685 H   0  0  0  0  0  0  0  0  0  0  0  0
  1  2  1  0  0  0  0
  1 24  1  0  0  0  0
  1 25  1  0  0  0  0
  1 26  1  0  0  0  0
  2 23  1  0  0  0  0
  2  3  1  0  0  0  0
  2 27  1  0  0  0  0
  3  4  1  0  0  0  0
  3 28  1  0  0  0  0
  3 29  1  0  0  0  0
  4  5  1  0  0  0  0
  4 20  1  0  0  0  0
  4 49  1  0  0  0  0
  5  6  1  0  0  0  0
  5 30  1  0  0  0  0
  5 31  1  0  0  0  0
  6  7  1  0  0  0  0
  6  8  1  0  0  0  0
  6 32  1  0  0  0  0
  7 33  1  0  0  0  0
  8  9  1  0  0  0  0
  8 34  1  0  0  0  0
  8 35  1  0  0  0  0
  9 19  1  0  0  0  0
  9 10  1  0  0  0  0
 10 11  1  0  0  0  0
 10 13  2  0  0  0  0
 11 12  1  0  0  0  0
 11 36  1  0  0  0  0
 11 37  1  0  0  0  0
 12 38  1  0  0  0  0
 13 14  1  0  0  0  0
 13 50  1  0  0  0  0
 14 19  2  0  0  0  0
 14 15  1  0  0  0  0
 15 16  2  0  0  0  0
 15 39  1  0  0  0  0
 16 17  1  0  0  0  0
 16 40  1  0  0  0  0
 17 18  2  0  0  0  0
 17 41  1  0  0  0  0
 18 19  1  0  0  0  0
 18 42  1  0  0  0  0
 20 21  1  0  0  0  0
 20 43  1  0  0  0  0
 20 44  1  0  0  0  0
 21 22  1  0  0  0  0
 21 23  1  0  0  0  0
 21 45  1  0  0  0  0
 22 46  1  0  0  0  0
 22 47  1  0  0  0  0
 22 48  1  0  0  0  0
M  CHG  1   4   1
M  CHG  1  13   1
M  END
> <s_m_source_file>
AV-unprocessed.smi

> <i_m_source_file_index>
1703

> <i_lp_mmshare_version>
43012

> <i_f3d_flags>
0

> <s_epik_input>
W0NIM11bQ0BASF0xW0NIMl1OKFtDSDJdW0NASF0oTzEpW0NIM10pW0NIMl1bQ0BIXShbT0hdKVtDSDJdbihjKG4yKVtDSDJdW09IXSljKGMyMylbY0hdW2NIXVtjSF1bY0hdMw==

> <s_epik_cmdline>
J2VwaWtfcHl0aG9uJywgJy1waCcsICc3LjAnLCAnLXRuJywgJzgnLCAnLW1hJywgJzIwMCcsICctbWV0YWxfYmluZGluZycsICctaW1hZScsICc8aW5maWxlLm1hZT4nLCAnLW9tYWUnLCAnPG91dGZpbGUubWFlPic=

> <r_epik_Ionization_Penalty>
2.22579

> <r_epik_Ionization_Penalty_Charging>
2.22492

> <r_epik_Ionization_Penalty_Neutral>
0.000870007

> <r_epik_State_Penalty>
2.3141

> <r_epik_Charging_Adjusted_Penalty>
4.53902

> <i_epik_Tot_Q>
2

> <i_epik_Tot_abs_Q>
2

> <r_epik_Metal_State_Penalty>
6.36517

> <b_epik_Metal_Only>
0

> <s_lp_Force_Field>
OPLS_2005

> <r_lp_Energy>
26.5271

> <b_lp_Chiralities_Consistent>
1

> <s_lp_Variant>
AV-unprocessed.smi:1703-27

> <Gold.Version>
5.8.1

> <Gold.Id.Protein>
6NUR|6NUR_protein|mol2

> <Gold.PLP.Fitness>
58.1763

> <Gold.PLP.PLP>
-38.3861

> <Gold.PLP.part.hbond>
-5.8396

> <Gold.PLP.part.metal>
0.0000

> <Gold.PLP.part.buried>
-2.3888

> <Gold.PLP.part.nonpolar>
-31.1438

> <Gold.PLP.part.repulsive>
0.1291

> <Gold.PLP.ligand.clash>
0.0000

> <Gold.PLP.ligand.torsion>
0.6984

> <Gold.PLP.Chemscore.Hbond>
7.0000

> <Gold.PLP.Chemscore.CHOScore>
0.0000

> <Gold.PLP.Chemscore.Metal>
0.0000

> <Gold.Chemscore.Hbonds>
donor molecule, donor type, donor heavy atom, donor atom, acceptor molecule, acceptor atom, score
      L1  H     4    49       P1  7948  1.66
      L1  H     7    33       P1  7948  0.63
      L1  H    12    38       P1 10171  0.75
      L1  H    13    50       P1 10186  2.00
      P1  H 10752 10764       L1    23  0.85

> <Gold.PLP.Chemscore.Internal.Correction>
0.1871

> <Gold.Rescore>
     Score         DG    S(hbond)    S(metal)    S(lipo)     H(rot)  DE(clash)    DE(int)     intcor
     20.33     -23.42       4.24        0.00      98.70       3.04       1.99       1.10       ----

> <Gold.Chemscore.Fitness>
20.3274

> <Gold.Chemscore.DG>
-23.4206

> <Gold.Chemscore.ZeroCoef>
-5.4800

> <Gold.Chemscore.Hbond>
4.2425

> <Gold.Chemscore.Metal>
0.0000

> <Gold.Chemscore.Lipo>
98.6966

> <Gold.Chemscore.Internal_Hbond>
0.0000

> <Gold.Chemscore.DEClash>
1.9924

> <Gold.Chemscore.DEInternal>
1.1008

> <Gold.Chemscore.Rot>
3.0378

> <Gold.Chemscore.Internal.Correction>
   9.000000E+99

> <Gold.Chemscore.Hbonds>
donor molecule, donor type, donor heavy atom, donor atom, acceptor molecule, acceptor atom, score
      L1  H     4    49       P1  7948  0.80
      L1  H     7    33       P1  7948  0.61
      L1  H    12    38       P1 10171  0.70
      L1  H    13    50       P1 10186  0.30
      P1  H 10752 10764       L1    23  0.12

> <Gold.Chemscore.Hbond.Weighted>
-14.1698

> <Gold.Chemscore.Metal.Weighted>
-0.0000

> <Gold.Chemscore.Lipo.Weighted>
-11.5475

> <Gold.Chemscore.Internal_Hbond.Weighted>
0.0000

> <Gold.Chemscore.DEClash.Weighted>
1.9924

> <Gold.Chemscore.DEInternal.Weighted>
1.1008

> <Gold.Chemscore.Rot.Weighted>
7.7767

> <Gold.Chemscore.Internal.Correction.Weighted>
   9.000000E+99

> <Gold.Protein.RotatedTorsions>
[ 6907 6896 6895 6894 ] final   17.82 input  -60.11 | X-H torsion
[ 7974 7965 7964 7962 ] final -119.31 input  175.53 | X-H torsion
[ 8008 7997 7996 7995 ] final   81.15 input   59.86 | X-H torsion
[ 10167 10162 10161 10158 ] final   21.92 input  -65.29 | X-H torsion
[ 10718 10713 10712 10709 ] final -176.30 input   66.30 | X-H torsion
[ 10763 10752 10751 10750 ] final  -54.80 input  -60.55 | X-H torsion
[ 11005 11000 10999 10996 ] final    3.31 input  -57.11 | X-H torsion

> <Gold.Protein.ActiveResidues>
 VAL166  LYS551  ARG553  GLY616  TRP617  ASP618  TYR619  PRO620  LYS621  CYS622 
 ASP623  PHE694  ASN695  SER759  ASP760  ASP761  ALA762  ILE779  LEU786  VAL792 
 PHE793  MET794  SER795  GLU796  ALA797  LYS798  CYS799  TRP800  GLU811  SER814 

> <Gold.Protein.RotatedAtoms>
  151.8556  135.0542  160.0463 H   0  0  0  0  0  0  0  0  0  0  0  0  # atno 6907 bound_to 6896
  152.2703  133.5371  159.5443 H   0  0  0  0  0  0  0  0  0  0  0  0  # atno 6908 bound_to 6896
  150.7149  134.0624  159.3878 H   0  0  0  0  0  0  0  0  0  0  0  0  # atno 6909 bound_to 6896
  145.0640  140.8310  143.4135 H   0  0  0  0  0  0  0  0  0  0  0  0  # atno 7974 bound_to 7965
  155.8932  140.3437  155.5972 H   0  0  0  0  0  0  0  0  0  0  0  0  # atno 8008 bound_to 7997
  155.7586  140.0829  157.2185 H   0  0  0  0  0  0  0  0  0  0  0  0  # atno 8009 bound_to 7997
  154.4035  140.1540  156.2794 H   0  0  0  0  0  0  0  0  0  0  0  0  # atno 8010 bound_to 7997
  140.5389  143.9711  150.6508 H   0  0  0  0  0  0  0  0  0  0  0  0  # atno 10167 bound_to 10162
  156.8127  130.9592  151.3115 H   0  0  0  0  0  0  0  0  0  0  0  0  # atno 10718 bound_to 10713
  154.1806  135.6444  153.5033 H   0  0  0  0  0  0  0  0  0  0  0  0  # atno 10763 bound_to 10752
  153.0060  135.5405  154.6518 H   0  0  0  0  0  0  0  0  0  0  0  0  # atno 10764 bound_to 10752
  154.5881  135.2931  155.0636 H   0  0  0  0  0  0  0  0  0  0  0  0  # atno 10765 bound_to 10752
  140.5946  133.9893  155.8104 H   0  0  0  0  0  0  0  0  0  0  0  0  # atno 11005 bound_to 11000
  145.1374  139.2593  143.5508 LP  0  0  0  0  0  0  0  0  0  0  0  0  # atno 17320 bound_to 7965
  146.3526  140.1042  142.8606 LP  0  0  0  0  0  0  0  0  0  0  0  0  # atno 17321 bound_to 7965
  140.3107  143.3200  152.0882 LP  0  0  0  0  0  0  0  0  0  0  0  0  # atno 17342 bound_to 10162
  139.4981  144.6638  151.6403 LP  0  0  0  0  0  0  0  0  0  0  0  0  # atno 17343 bound_to 10162
  157.6498  130.8874  149.9610 LP  0  0  0  0  0  0  0  0  0  0  0  0  # atno 17370 bound_to 10713
  156.1035  130.3654  150.0175 LP  0  0  0  0  0  0  0  0  0  0  0  0  # atno 17371 bound_to 10713
  141.0913  133.9913  157.3233 LP  0  0  0  0  0  0  0  0  0  0  0  0  # atno 17394 bound_to 11000
  139.9259  135.0201  156.8232 LP  0  0  0  0  0  0  0  0  0  0  0  0  # atno 17395 bound_to 11000

$$$$
