AV-unprocessed.smi:1195|AV-procd|sdf|4994|dock3
  -GOLD-   22720 3593D 1   1.00000     0.00000
 Structure written by MMmdl.
 39 40  0  0  0  0  0  0  0  0  1 V2000
  143.0334  133.4739  147.8831 N   0  0  0  0  0  0  0  0  0  0  0  0
  143.8048  132.7847  148.7273 C   0  0  0  0  0  0  0  0  0  0  0  0
  144.8492  132.2463  148.3624 O   0  0  0  0  0  0  0  0  0  0  0  0
  143.3186  132.7013  150.1802 C   0  0  0  0  0  0  0  0  0  0  0  0
  143.9500  133.6835  151.0466 N   0  0  0  0  0  0  0  0  0  0  0  0
  145.1054  134.4055  150.8180 C   0  0  0  0  0  0  0  0  0  0  0  0
  145.2768  135.1892  151.9238 C   0  0  0  0  0  0  0  0  0  0  0  0
  146.3007  136.1258  152.2125 N   0  0  0  0  0  0  0  0  0  0  0  0
  146.1760  137.2964  152.8589 C   0  0  0  0  0  0  0  0  0  0  0  0
  145.1223  137.7490  153.3068 O   0  0  0  0  0  0  0  0  0  0  0  0
  147.3562  137.9245  152.9596 N   0  0  0  0  0  0  0  0  0  0  0  0
  147.5710  139.2177  153.6019 C   0  0  2  0  0  0  0  0  0  0  0  0
  146.9792  139.1892  155.0240 C   0  0  0  0  0  0  0  0  0  0  0  0
  147.1201  140.5518  155.7218 C   0  0  0  0  0  0  0  0  0  0  0  0
  146.4807  141.6716  154.8833 C   0  0  1  0  0  0  0  0  0  0  0  0
  146.6880  142.9144  155.5205 O   0  0  0  0  0  0  0  0  0  0  0  0
  147.0817  141.7125  153.4680 C   0  0  0  0  0  0  0  0  0  0  0  0
  146.9390  140.3516  152.7673 C   0  0  0  0  0  0  0  0  0  0  0  0
  144.1866  134.8917  152.7821 C   0  0  0  0  0  0  0  0  0  0  0  0
  143.3903  133.9791  152.2468 N   0  0  0  0  0  0  0  0  0  0  0  0
  143.3067  133.5621  146.9149 H   0  0  0  0  0  0  0  0  0  0  0  0
  142.1822  133.9052  148.2132 H   0  0  0  0  0  0  0  0  0  0  0  0
  142.2363  132.8376  150.2097 H   0  0  0  0  0  0  0  0  0  0  0  0
  143.5286  131.7076  150.5776 H   0  0  0  0  0  0  0  0  0  0  0  0
  145.6791  134.2965  149.9095 H   0  0  0  0  0  0  0  0  0  0  0  0
  147.2251  135.8799  151.8896 H   0  0  0  0  0  0  0  0  0  0  0  0
  148.1685  137.4754  152.5625 H   0  0  0  0  0  0  0  0  0  0  0  0
  148.6449  139.3972  153.6857 H   0  0  0  0  0  0  0  0  0  0  0  0
  145.9240  138.9155  154.9801 H   0  0  0  0  0  0  0  0  0  0  0  0
  147.4731  138.4201  155.6194 H   0  0  0  0  0  0  0  0  0  0  0  0
  146.6568  140.5104  156.7083 H   0  0  0  0  0  0  0  0  0  0  0  0
  148.1772  140.7668  155.8850 H   0  0  0  0  0  0  0  0  0  0  0  0
  145.4050  141.5041  154.8158 H   0  0  0  0  0  0  0  0  0  0  0  0
  147.5816  143.1833  155.3707 H   0  0  0  0  0  0  0  0  0  0  0  0
  146.5935  142.4854  152.8733 H   0  0  0  0  0  0  0  0  0  0  0  0
  148.1376  141.9820  153.5205 H   0  0  0  0  0  0  0  0  0  0  0  0
  147.4037  140.4004  151.7818 H   0  0  0  0  0  0  0  0  0  0  0  0
  145.8817  140.1413  152.5992 H   0  0  0  0  0  0  0  0  0  0  0  0
  143.9521  135.2966  153.7555 H   0  0  0  0  0  0  0  0  0  0  0  0
  1  2  1  0  0  0  0
  1 21  1  0  0  0  0
  1 22  1  0  0  0  0
  2  3  2  0  0  0  0
  2  4  1  0  0  0  0
  4  5  1  0  0  0  0
  4 23  1  0  0  0  0
  4 24  1  0  0  0  0
  5 20  1  0  0  0  0
  5  6  1  0  0  0  0
  6  7  2  0  0  0  0
  6 25  1  0  0  0  0
  7  8  1  0  0  0  0
  7 19  1  0  0  0  0
  8  9  1  0  0  0  0
  8 26  1  0  0  0  0
  9 10  2  0  0  0  0
  9 11  1  0  0  0  0
 11 12  1  0  0  0  0
 11 27  1  0  0  0  0
 12 18  1  0  0  0  0
 12 13  1  0  0  0  0
 12 28  1  0  0  0  0
 13 14  1  0  0  0  0
 13 29  1  0  0  0  0
 13 30  1  0  0  0  0
 14 15  1  0  0  0  0
 14 31  1  0  0  0  0
 14 32  1  0  0  0  0
 15 16  1  0  0  0  0
 15 17  1  0  0  0  0
 15 33  1  0  0  0  0
 16 34  1  0  0  0  0
 17 18  1  0  0  0  0
 17 35  1  0  0  0  0
 17 36  1  0  0  0  0
 18 37  1  0  0  0  0
 18 38  1  0  0  0  0
 19 20  2  0  0  0  0
 19 39  1  0  0  0  0
M  END
> <s_m_source_file>
AV-unprocessed.smi

> <i_m_source_file_index>
1195

> <i_lp_mmshare_version>
43012

> <i_f3d_flags>
0

> <s_epik_input>
W05IMl1DKD1PKVtDSDJdbjFbY0hdYyhbY0hdbjEpW05IXUMoPU8pW05IXVtDQEBIXTJbQ0gyXVtDSDJdW0NAQEhdKFtPSF0pW0NIMl1bQ0gyXTI=

> <s_epik_cmdline>
J2VwaWtfcHl0aG9uJywgJy1waCcsICc3LjAnLCAnLXRuJywgJzgnLCAnLW1hJywgJzIwMCcsICctbWV0YWxfYmluZGluZycsICctaW1hZScsICc8aW5maWxlLm1hZT4nLCAnLW9tYWUnLCAnPG91dGZpbGUubWFlPic=

> <r_lp_tautomer_probability>
1

> <r_epik_Ionization_Penalty>
4.75851e-05

> <r_epik_Ionization_Penalty_Charging>
0

> <r_epik_Ionization_Penalty_Neutral>
4.75851e-05

> <r_epik_State_Penalty>
-0

> <r_epik_Charging_Adjusted_Penalty>
0

> <i_epik_Tot_Q>
0

> <i_epik_Tot_abs_Q>
0

> <r_epik_Metal_State_Penalty>
-0

> <b_epik_Metal_Only>
0

> <s_lp_Force_Field>
OPLS_2005

> <r_lp_Energy>
13.1232

> <b_lp_Chiralities_Consistent>
1

> <s_lp_Variant>
AV-unprocessed.smi:1195-1

> <Gold.Version>
5.8.1

> <Gold.Id.Protein>
6NUR|6NUR_protein|mol2

> <Gold.PLP.Fitness>
44.2976

> <Gold.PLP.PLP>
-30.7653

> <Gold.PLP.part.hbond>
-6.5847

> <Gold.PLP.part.metal>
0.0000

> <Gold.PLP.part.buried>
-2.3999

> <Gold.PLP.part.nonpolar>
-22.2002

> <Gold.PLP.part.repulsive>
1.7586

> <Gold.PLP.ligand.clash>
0.0000

> <Gold.PLP.ligand.torsion>
0.8943

> <Gold.PLP.Chemscore.Hbond>
4.1045

> <Gold.PLP.Chemscore.CHOScore>
1.0000

> <Gold.PLP.Chemscore.Metal>
0.0000

> <Gold.Chemscore.Hbonds>
donor molecule, donor type, donor heavy atom, donor atom, acceptor molecule, acceptor atom, score
      L1  H     1    21       P1 10195  0.27
      L1  H     1    22       P1 10186  1.00
      L1  H     8    26       P1  7948  1.00
      L1  H    11    27       P1  7948  1.00
      L1  H    16    34       P1  8028  0.83
      L1  C     6    25       P1  7921  1.00

> <Gold.PLP.Chemscore.Internal.Correction>
0.0074

> <Gold.Rescore>
     Score         DG    S(hbond)    S(metal)    S(lipo)     H(rot)  DE(clash)    DE(int)     intcor
     13.50     -15.82       3.28        0.00      52.17       2.62       0.63       1.69       ----

> <Gold.Chemscore.Fitness>
13.4995

> <Gold.Chemscore.DG>
-15.8215

> <Gold.Chemscore.ZeroCoef>
-5.4800

> <Gold.Chemscore.Hbond>
3.2776

> <Gold.Chemscore.Metal>
0.0000

> <Gold.Chemscore.Lipo>
52.1748

> <Gold.Chemscore.Internal_Hbond>
0.0000

> <Gold.Chemscore.DEClash>
0.6302

> <Gold.Chemscore.DEInternal>
1.6918

> <Gold.Chemscore.Rot>
2.6212

> <Gold.Chemscore.Internal.Correction>
   9.000000E+99

> <Gold.Chemscore.Hbonds>
donor molecule, donor type, donor heavy atom, donor atom, acceptor molecule, acceptor atom, score
      L1  H     1    21       P1 10195  0.26
      L1  H     1    22       P1 10186  0.98
      L1  H     8    26       P1  7948  0.94
      L1  H    11    27       P1  7948  0.97
      L1  H    16    34       P1  8028  0.24

> <Gold.Chemscore.Hbond.Weighted>
-10.9474

> <Gold.Chemscore.Metal.Weighted>
-0.0000

> <Gold.Chemscore.Lipo.Weighted>
-6.1045

> <Gold.Chemscore.Internal_Hbond.Weighted>
0.0000

> <Gold.Chemscore.DEClash.Weighted>
0.6302

> <Gold.Chemscore.DEInternal.Weighted>
1.6918

> <Gold.Chemscore.Rot.Weighted>
6.7103

> <Gold.Chemscore.Internal.Correction.Weighted>
   9.000000E+99

> <Gold.Protein.RotatedTorsions>
[ 6907 6896 6895 6894 ] final  -36.47 input  -60.11 | X-H torsion
[ 7974 7965 7964 7962 ] final -105.54 input  175.53 | X-H torsion
[ 8008 7997 7996 7995 ] final   86.00 input   59.86 | X-H torsion
[ 10167 10162 10161 10158 ] final  163.88 input  -65.29 | X-H torsion
[ 10718 10713 10712 10709 ] final  -52.69 input   66.30 | X-H torsion
[ 10763 10752 10751 10750 ] final   -6.59 input  -60.55 | X-H torsion
[ 11005 11000 10999 10996 ] final   73.88 input  -57.11 | X-H torsion

> <Gold.Protein.ActiveResidues>
 VAL166  LYS551  ARG553  GLY616  TRP617  ASP618  TYR619  PRO620  LYS621  CYS622 
 ASP623  PHE694  ASN695  SER759  ASP760  ASP761  ALA762  ILE779  LEU786  VAL792 
 PHE793  MET794  SER795  GLU796  ALA797  LYS798  CYS799  TRP800  GLU811  SER814 

> <Gold.Protein.RotatedAtoms>
  151.0268  134.9510  159.8088 H   0  0  0  0  0  0  0  0  0  0  0  0  # atno 6907 bound_to 6896
  152.5337  134.2832  159.9025 H   0  0  0  0  0  0  0  0  0  0  0  0  # atno 6908 bound_to 6896
  151.2841  133.4154  159.2663 H   0  0  0  0  0  0  0  0  0  0  0  0  # atno 6909 bound_to 6896
  145.2292  140.9164  143.3214 H   0  0  0  0  0  0  0  0  0  0  0  0  # atno 7974 bound_to 7965
  155.9572  140.3396  155.6459 H   0  0  0  0  0  0  0  0  0  0  0  0  # atno 8008 bound_to 7997
  155.6844  140.0741  157.2491 H   0  0  0  0  0  0  0  0  0  0  0  0  # atno 8009 bound_to 7997
  154.4135  140.1668  156.2005 H   0  0  0  0  0  0  0  0  0  0  0  0  # atno 8010 bound_to 7997
  139.4880  144.4292  151.9092 H   0  0  0  0  0  0  0  0  0  0  0  0  # atno 10167 bound_to 10162
  156.1599  130.4150  149.9809 H   0  0  0  0  0  0  0  0  0  0  0  0  # atno 10718 bound_to 10713
  153.4144  135.7008  153.6337 H   0  0  0  0  0  0  0  0  0  0  0  0  # atno 10763 bound_to 10752
  153.4817  135.3692  155.2446 H   0  0  0  0  0  0  0  0  0  0  0  0  # atno 10764 bound_to 10752
  154.8719  135.4067  154.3502 H   0  0  0  0  0  0  0  0  0  0  0  0  # atno 10765 bound_to 10752
  139.9418  134.7385  156.1080 H   0  0  0  0  0  0  0  0  0  0  0  0  # atno 11005 bound_to 11000
  144.9692  139.3897  143.6317 LP  0  0  0  0  0  0  0  0  0  0  0  0  # atno 17320 bound_to 7965
  146.3357  139.8782  142.8828 LP  0  0  0  0  0  0  0  0  0  0  0  0  # atno 17321 bound_to 7965
  140.3739  144.2821  150.5916 LP  0  0  0  0  0  0  0  0  0  0  0  0  # atno 17342 bound_to 10162
  140.5294  143.2247  151.8262 LP  0  0  0  0  0  0  0  0  0  0  0  0  # atno 17343 bound_to 10162
  156.7642  130.9162  151.3642 LP  0  0  0  0  0  0  0  0  0  0  0  0  # atno 17370 bound_to 10713
  157.6724  130.9063  150.0072 LP  0  0  0  0  0  0  0  0  0  0  0  0  # atno 17371 bound_to 10713
  141.1055  133.6661  156.2854 LP  0  0  0  0  0  0  0  0  0  0  0  0  # atno 17394 bound_to 11000
  140.5933  134.5629  157.5503 LP  0  0  0  0  0  0  0  0  0  0  0  0  # atno 17395 bound_to 11000

$$$$
