AV-unprocessed.smi:731|AV-procd|sdf|3526|dock6
  -GOLD-   22720 0523D 1   1.00000     0.00000
 Structure written by MMmdl.
 34 35  0  0  0  0  0  0  0  0  1 V2000
  150.4295  141.1821  158.0986 O   0  0  0  0  0  0  0  0  0  0  0  0
  150.2755  142.3384  157.7034 C   0  0  0  0  0  0  0  0  0  0  0  0
  149.1459  142.7745  157.1229 N   0  0  0  0  0  0  0  0  0  0  0  0
  147.9635  141.9607  156.8488 C   0  0  0  0  0  0  0  0  0  0  0  0
  147.8965  141.4868  155.3836 C   0  0  0  0  0  0  0  0  0  0  0  0
  148.8040  140.3412  155.0695 C   0  0  0  0  0  0  0  0  0  0  0  0
  149.9888  140.1607  155.6581 N   0  0  0  0  0  0  0  0  0  0  0  0
  150.6809  139.0537  155.1552 C   0  0  0  0  0  0  0  0  0  0  0  0
  152.0368  138.7115  155.7015 C   0  0  0  0  0  0  0  0  0  0  0  0
  152.9662  138.7134  154.7455 F   0  0  0  0  0  0  0  0  0  0  0  0
  152.4155  139.5887  156.6308 F   0  0  0  0  0  0  0  0  0  0  0  0
  152.0384  137.5013  156.2600 F   0  0  0  0  0  0  0  0  0  0  0  0
  149.9902  138.3907  154.1697 C   0  0  0  0  0  0  0  0  0  0  0  0
  148.4514  139.1348  153.8368 S   0  0  0  0  0  0  0  0  0  0  0  0
  151.4119  143.3642  157.8411 C   0  0  0  0  0  0  0  0  0  0  0  0
  152.5538  142.8379  158.7426 C   0  0  0  0  0  0  0  0  0  0  0  0
  152.6832  143.8154  159.9171 C   0  0  0  0  0  0  0  0  0  0  0  0
  151.3466  144.5486  159.9780 C   0  0  0  0  0  0  0  0  0  0  0  0
  150.9296  144.6649  158.5128 C   0  0  0  0  0  0  0  0  0  0  0  0
  149.1096  143.7403  156.8307 H   0  0  0  0  0  0  0  0  0  0  0  0
  147.9257  141.1002  157.5191 H   0  0  0  0  0  0  0  0  0  0  0  0
  147.0813  142.5590  157.0772 H   0  0  0  0  0  0  0  0  0  0  0  0
  146.8741  141.1976  155.1377 H   0  0  0  0  0  0  0  0  0  0  0  0
  148.1478  142.3144  154.7193 H   0  0  0  0  0  0  0  0  0  0  0  0
  150.2951  137.5135  153.6186 H   0  0  0  0  0  0  0  0  0  0  0  0
  151.8004  143.5977  156.8485 H   0  0  0  0  0  0  0  0  0  0  0  0
  152.3422  141.8370  159.1233 H   0  0  0  0  0  0  0  0  0  0  0  0
  153.4928  142.7680  158.1926 H   0  0  0  0  0  0  0  0  0  0  0  0
  152.9270  143.3137  160.8540 H   0  0  0  0  0  0  0  0  0  0  0  0
  153.4799  144.5312  159.7092 H   0  0  0  0  0  0  0  0  0  0  0  0
  150.6188  143.9482  160.5257 H   0  0  0  0  0  0  0  0  0  0  0  0
  151.4206  145.5177  160.4721 H   0  0  0  0  0  0  0  0  0  0  0  0
  151.4350  145.5168  158.0560 H   0  0  0  0  0  0  0  0  0  0  0  0
  149.8572  144.8384  158.4093 H   0  0  0  0  0  0  0  0  0  0  0  0
  1  2  2  0  0  0  0
  2  3  1  0  0  0  0
  2 15  1  0  0  0  0
  3  4  1  0  0  0  0
  3 20  1  0  0  0  0
  4  5  1  0  0  0  0
  4 21  1  0  0  0  0
  4 22  1  0  0  0  0
  5  6  1  0  0  0  0
  5 23  1  0  0  0  0
  5 24  1  0  0  0  0
  6 14  1  0  0  0  0
  6  7  2  0  0  0  0
  7  8  1  0  0  0  0
  8  9  1  0  0  0  0
  8 13  2  0  0  0  0
  9 10  1  0  0  0  0
  9 11  1  0  0  0  0
  9 12  1  0  0  0  0
 13 14  1  0  0  0  0
 13 25  1  0  0  0  0
 15 19  1  0  0  0  0
 15 16  1  0  0  0  0
 15 26  1  0  0  0  0
 16 17  1  0  0  0  0
 16 27  1  0  0  0  0
 16 28  1  0  0  0  0
 17 18  1  0  0  0  0
 17 29  1  0  0  0  0
 17 30  1  0  0  0  0
 18 19  1  0  0  0  0
 18 31  1  0  0  0  0
 18 32  1  0  0  0  0
 19 33  1  0  0  0  0
 19 34  1  0  0  0  0
M  END
> <s_m_source_file>
AV-unprocessed.smi

> <i_m_source_file_index>
731

> <i_lp_mmshare_version>
43012

> <i_f3d_flags>
0

> <s_epik_input>
W0NIMl0xW0NIMl1bQ0gyXVtDSDJdW0NIXTFDKD1PKVtOSF1bQ0gyXVtDSDJdYzJuYyhDKEYpKEYpRilbY0hdczI=

> <s_epik_cmdline>
J2VwaWtfcHl0aG9uJywgJy1waCcsICc3LjAnLCAnLXRuJywgJzgnLCAnLW1hJywgJzIwMCcsICctbWV0YWxfYmluZGluZycsICctaW1hZScsICc8aW5maWxlLm1hZT4nLCAnLW9tYWUnLCAnPG91dGZpbGUubWFlPic=

> <r_lp_tautomer_probability>
1

> <r_epik_Ionization_Penalty>
2.28973e-08

> <r_epik_Ionization_Penalty_Charging>
0

> <r_epik_Ionization_Penalty_Neutral>
2.28973e-08

> <r_epik_State_Penalty>
-0

> <r_epik_Charging_Adjusted_Penalty>
0

> <i_epik_Tot_Q>
0

> <i_epik_Tot_abs_Q>
0

> <r_epik_Metal_State_Penalty>
-0

> <b_epik_Metal_Only>
0

> <s_lp_Force_Field>
OPLS_2005

> <r_lp_Energy>
15.4873

> <b_lp_Chiralities_Consistent>
1

> <s_lp_Variant>
AV-unprocessed.smi:731-1

> <Gold.Version>
5.8.1

> <Gold.Id.Protein>
6NUR|6NUR_protein|mol2

> <Gold.PLP.Fitness>
39.7884

> <Gold.PLP.PLP>
-35.1542

> <Gold.PLP.part.hbond>
-0.6803

> <Gold.PLP.part.metal>
0.0000

> <Gold.PLP.part.buried>
-0.4443

> <Gold.PLP.part.nonpolar>
-34.8323

> <Gold.PLP.part.repulsive>
0.0700

> <Gold.PLP.ligand.clash>
0.0000

> <Gold.PLP.ligand.torsion>
0.7754

> <Gold.PLP.Chemscore.Hbond>
0.9280

> <Gold.PLP.Chemscore.CHOScore>
1.1238

> <Gold.PLP.Chemscore.Metal>
0.0000

> <Gold.Chemscore.Hbonds>
donor molecule, donor type, donor heavy atom, donor atom, acceptor molecule, acceptor atom, score
      L1  H     3    20       P1  8028  0.94
      L1  C    13    25       P1  7948  0.93
      L1  C    13    25       P1  7949  0.16

> <Gold.PLP.Chemscore.Internal.Correction>
0.0295

> <Gold.Rescore>
     Score         DG    S(hbond)    S(metal)    S(lipo)     H(rot)  DE(clash)    DE(int)     intcor
     13.24     -15.45       0.86        0.00      98.32       1.73       0.29       1.92       ----

> <Gold.Chemscore.Fitness>
13.2353

> <Gold.Chemscore.DG>
-15.4451

> <Gold.Chemscore.ZeroCoef>
-5.4800

> <Gold.Chemscore.Hbond>
0.8627

> <Gold.Chemscore.Metal>
0.0000

> <Gold.Chemscore.Lipo>
98.3198

> <Gold.Chemscore.Internal_Hbond>
0.0000

> <Gold.Chemscore.DEClash>
0.2864

> <Gold.Chemscore.DEInternal>
1.9233

> <Gold.Chemscore.Rot>
1.7264

> <Gold.Chemscore.Internal.Correction>
   9.000000E+99

> <Gold.Chemscore.Hbonds>
donor molecule, donor type, donor heavy atom, donor atom, acceptor molecule, acceptor atom, score
      L1  H     3    20       P1  8028  0.60

> <Gold.Chemscore.Hbond.Weighted>
-2.8813

> <Gold.Chemscore.Metal.Weighted>
-0.0000

> <Gold.Chemscore.Lipo.Weighted>
-11.5034

> <Gold.Chemscore.Internal_Hbond.Weighted>
0.0000

> <Gold.Chemscore.DEClash.Weighted>
0.2864

> <Gold.Chemscore.DEInternal.Weighted>
1.9233

> <Gold.Chemscore.Rot.Weighted>
4.4196

> <Gold.Chemscore.Internal.Correction.Weighted>
   9.000000E+99

> <Gold.Protein.RotatedTorsions>
[ 6907 6896 6895 6894 ] final   46.39 input  -60.11 | X-H torsion
[ 7974 7965 7964 7962 ] final   64.98 input  175.53 | X-H torsion
[ 8008 7997 7996 7995 ] final  142.52 input   59.86 | X-H torsion
[ 10167 10162 10161 10158 ] final  133.28 input  -65.29 | X-H torsion
[ 10718 10713 10712 10709 ] final   24.38 input   66.30 | X-H torsion
[ 10763 10752 10751 10750 ] final  111.20 input  -60.55 | X-H torsion
[ 11005 11000 10999 10996 ] final  139.94 input  -57.11 | X-H torsion

> <Gold.Protein.ActiveResidues>
 VAL166  LYS551  ARG553  GLY616  TRP617  ASP618  TYR619  PRO620  LYS621  CYS622 
 ASP623  PHE694  ASN695  SER759  ASP760  ASP761  ALA762  ILE779  LEU786  VAL792 
 PHE793  MET794  SER795  GLU796  ALA797  LYS798  CYS799  TRP800  GLU811  SER814 

> <Gold.Protein.RotatedAtoms>
  152.2558  134.8086  160.0438 H   0  0  0  0  0  0  0  0  0  0  0  0  # atno 6907 bound_to 6896
  151.8750  133.3478  159.3755 H   0  0  0  0  0  0  0  0  0  0  0  0  # atno 6908 bound_to 6896
  150.7099  134.5002  159.5602 H   0  0  0  0  0  0  0  0  0  0  0  0  # atno 6909 bound_to 6896
  145.8439  139.3212  143.0915 H   0  0  0  0  0  0  0  0  0  0  0  0  # atno 7974 bound_to 7965
  156.2948  140.2286  156.4742 H   0  0  0  0  0  0  0  0  0  0  0  0  # atno 8008 bound_to 7997
  154.7909  140.0454  157.1221 H   0  0  0  0  0  0  0  0  0  0  0  0  # atno 8009 bound_to 7997
  154.9646  140.3059  155.5018 H   0  0  0  0  0  0  0  0  0  0  0  0  # atno 8010 bound_to 7997
  139.5304  144.6623  151.4973 H   0  0  0  0  0  0  0  0  0  0  0  0  # atno 10167 bound_to 10162
  157.1790  130.6794  149.6106 H   0  0  0  0  0  0  0  0  0  0  0  0  # atno 10718 bound_to 10713
  153.4599  135.3724  155.2332 H   0  0  0  0  0  0  0  0  0  0  0  0  # atno 10763 bound_to 10752
  154.8757  135.3906  154.3937 H   0  0  0  0  0  0  0  0  0  0  0  0  # atno 10764 bound_to 10752
  153.4509  135.7085  153.6174 H   0  0  0  0  0  0  0  0  0  0  0  0  # atno 10765 bound_to 10752
  140.0291  134.9360  157.0627 H   0  0  0  0  0  0  0  0  0  0  0  0  # atno 11005 bound_to 11000
  145.9434  140.8962  143.0296 LP  0  0  0  0  0  0  0  0  0  0  0  0  # atno 17320 bound_to 7965
  144.6732  140.1580  143.7424 LP  0  0  0  0  0  0  0  0  0  0  0  0  # atno 17321 bound_to 7965
  140.6477  143.8760  150.6754 LP  0  0  0  0  0  0  0  0  0  0  0  0  # atno 17342 bound_to 10162
  140.2115  143.3880  152.1715 LP  0  0  0  0  0  0  0  0  0  0  0  0  # atno 17343 bound_to 10162
  155.9727  130.4653  150.6249 LP  0  0  0  0  0  0  0  0  0  0  0  0  # atno 17370 bound_to 10713
  157.3971  131.0804  151.1342 LP  0  0  0  0  0  0  0  0  0  0  0  0  # atno 17371 bound_to 10713
  140.4256  134.1835  155.7166 LP  0  0  0  0  0  0  0  0  0  0  0  0  # atno 17394 bound_to 11000
  141.1820  133.8393  157.1223 LP  0  0  0  0  0  0  0  0  0  0  0  0  # atno 17395 bound_to 11000

$$$$
