AV-unprocessed.smi:1005|AV-procd|sdf|4386|dock9
  -GOLD-   22720 2313D 1   1.00000     0.00000
 Structure written by MMmdl.
 55 57  0  0  0  0  0  0  0  0  1 V2000
  153.3914  142.5152  161.6533 C   0  0  0  0  0  0  0  0  0  0  0  0
  152.7121  142.2084  160.3301 C   0  0  0  0  0  0  0  0  0  0  0  0
  153.0029  140.9909  159.6744 C   0  0  0  0  0  0  0  0  0  0  0  0
  152.3937  140.6683  158.4420 C   0  0  0  0  0  0  0  0  0  0  0  0
  152.5286  139.5489  157.6387 N   0  0  0  0  0  0  0  0  0  0  0  0
  151.7065  139.8393  156.6349 C   0  0  0  0  0  0  0  0  0  0  0  0
  151.0598  141.0199  156.6882 N   0  0  0  0  0  0  0  0  0  0  0  0
  150.1205  141.5509  155.7160 C   0  0  0  0  0  0  0  0  0  0  0  0
  149.3275  140.4470  154.9873 C   0  0  2  0  0  0  0  0  0  0  0  0
  150.2004  139.8650  154.0403 O   0  0  0  0  0  0  0  0  0  0  0  0
  148.0641  140.9631  154.2593 C   0  0  0  0  0  0  0  0  0  0  0  0
  147.3156  141.9956  154.9747 N   0  0  0  0  0  0  0  0  0  0  0  0
  146.1414  142.4117  154.2163 C   0  0  0  0  0  0  0  0  0  0  0  0
  145.3448  143.5066  154.9452 C   0  0  0  0  0  0  0  0  0  0  0  0
  144.9628  143.0422  156.2358 O   0  0  0  0  0  0  0  0  0  0  0  0
  146.0722  142.6415  157.0367 C   0  0  1  0  0  0  0  0  0  0  0  0
  145.6030  142.2070  158.4417 C   0  0  0  0  0  0  0  0  0  0  0  0
  145.1797  143.2691  159.3599 N   0  0  0  0  0  0  0  0  0  0  0  0
  146.1667  144.3342  159.4906 C   0  0  0  0  0  0  0  0  0  0  0  0
  144.8659  142.7156  160.6698 C   0  0  0  0  0  0  0  0  0  0  0  0
  146.8927  141.5594  156.3032 C   0  0  0  0  0  0  0  0  0  0  0  0
  151.4789  141.6050  157.8782 C   0  0  0  0  0  0  0  0  0  0  0  0
  151.1792  142.8184  158.5225 C   0  0  0  0  0  0  0  0  0  0  0  0
  151.7971  143.1253  159.7529 C   0  0  0  0  0  0  0  0  0  0  0  0
  151.4697  144.4398  160.4389 C   0  0  0  0  0  0  0  0  0  0  0  0
  154.0504  141.7027  161.9604 H   0  0  0  0  0  0  0  0  0  0  0  0
  152.6499  142.6590  162.4394 H   0  0  0  0  0  0  0  0  0  0  0  0
  153.9921  143.4215  161.5728 H   0  0  0  0  0  0  0  0  0  0  0  0
  153.6991  140.2917  160.1141 H   0  0  0  0  0  0  0  0  0  0  0  0
  151.5711  139.1566  155.8086 H   0  0  0  0  0  0  0  0  0  0  0  0
  149.4404  142.2361  156.2244 H   0  0  0  0  0  0  0  0  0  0  0  0
  150.6851  142.1464  154.9970 H   0  0  0  0  0  0  0  0  0  0  0  0
  149.0511  139.6800  155.7118 H   0  0  0  0  0  0  0  0  0  0  0  0
  149.7614  139.8366  153.2040 H   0  0  0  0  0  0  0  0  0  0  0  0
  148.3720  141.3911  153.3061 H   0  0  0  0  0  0  0  0  0  0  0  0
  147.4092  140.1310  153.9953 H   0  0  0  0  0  0  0  0  0  0  0  0
  146.4454  142.7827  153.2368 H   0  0  0  0  0  0  0  0  0  0  0  0
  145.4928  141.5529  154.0370 H   0  0  0  0  0  0  0  0  0  0  0  0
  145.9378  144.4176  155.0392 H   0  0  0  0  0  0  0  0  0  0  0  0
  144.4494  143.7647  154.3797 H   0  0  0  0  0  0  0  0  0  0  0  0
  146.7053  143.5208  157.1695 H   0  0  0  0  0  0  0  0  0  0  0  0
  144.7606  141.5297  158.2940 H   0  0  0  0  0  0  0  0  0  0  0  0
  146.3827  141.6045  158.9100 H   0  0  0  0  0  0  0  0  0  0  0  0
  145.8459  145.0686  160.2298 H   0  0  0  0  0  0  0  0  0  0  0  0
  146.2975  144.8704  158.5520 H   0  0  0  0  0  0  0  0  0  0  0  0
  147.1344  143.9402  159.8031 H   0  0  0  0  0  0  0  0  0  0  0  0
  144.5027  143.4929  161.3427 H   0  0  0  0  0  0  0  0  0  0  0  0
  145.7448  142.2562  161.1239 H   0  0  0  0  0  0  0  0  0  0  0  0
  144.0864  141.9569  160.5940 H   0  0  0  0  0  0  0  0  0  0  0  0
  146.3021  140.6464  156.2149 H   0  0  0  0  0  0  0  0  0  0  0  0
  147.7628  141.3103  156.9102 H   0  0  0  0  0  0  0  0  0  0  0  0
  150.4806  143.5078  158.0718 H   0  0  0  0  0  0  0  0  0  0  0  0
  150.7357  145.0128  159.8713 H   0  0  0  0  0  0  0  0  0  0  0  0
  152.3666  145.0512  160.5399 H   0  0  0  0  0  0  0  0  0  0  0  0
  151.0577  144.2610  161.4324 H   0  0  0  0  0  0  0  0  0  0  0  0
  1  2  1  0  0  0  0
  1 26  1  0  0  0  0
  1 27  1  0  0  0  0
  1 28  1  0  0  0  0
  2 24  1  0  0  0  0
  2  3  2  0  0  0  0
  3  4  1  0  0  0  0
  3 29  1  0  0  0  0
  4 22  2  0  0  0  0
  4  5  1  0  0  0  0
  5  6  2  0  0  0  0
  6  7  1  0  0  0  0
  6 30  1  0  0  0  0
  7  8  1  0  0  0  0
  7 22  1  0  0  0  0
  8  9  1  0  0  0  0
  8 31  1  0  0  0  0
  8 32  1  0  0  0  0
  9 10  1  0  0  0  0
  9 11  1  0  0  0  0
  9 33  1  0  0  0  0
 10 34  1  0  0  0  0
 11 12  1  0  0  0  0
 11 35  1  0  0  0  0
 11 36  1  0  0  0  0
 12 21  1  0  0  0  0
 12 13  1  0  0  0  0
 13 14  1  0  0  0  0
 13 37  1  0  0  0  0
 13 38  1  0  0  0  0
 14 15  1  0  0  0  0
 14 39  1  0  0  0  0
 14 40  1  0  0  0  0
 15 16  1  0  0  0  0
 16 17  1  0  0  0  0
 16 21  1  0  0  0  0
 16 41  1  0  0  0  0
 17 18  1  0  0  0  0
 17 42  1  0  0  0  0
 17 43  1  0  0  0  0
 18 19  1  0  0  0  0
 18 20  1  0  0  0  0
 19 44  1  0  0  0  0
 19 45  1  0  0  0  0
 19 46  1  0  0  0  0
 20 47  1  0  0  0  0
 20 48  1  0  0  0  0
 20 49  1  0  0  0  0
 21 50  1  0  0  0  0
 21 51  1  0  0  0  0
 22 23  1  0  0  0  0
 23 24  2  0  0  0  0
 23 52  1  0  0  0  0
 24 25  1  0  0  0  0
 25 53  1  0  0  0  0
 25 54  1  0  0  0  0
 25 55  1  0  0  0  0
M  END
> <s_m_source_file>
AV-unprocessed.smi

> <i_m_source_file_index>
1005

> <i_lp_mmshare_version>
43012

> <i_f3d_flags>
0

> <s_epik_input>
W0NIM11jKFtjSF0xKWMoW0NIM10pW2NIXWMoYzEyKW4oW2NIXW4yKVtDSDJdW0NASF0oW09IXSlbQ0gyXU4zW0NIMl1bQ0gyXU9bQ0BIXShbQ0gyXTMpW0NIMl1OKFtDSDNdKVtDSDNd

> <s_epik_cmdline>
J2VwaWtfcHl0aG9uJywgJy1waCcsICc3LjAnLCAnLXRuJywgJzgnLCAnLW1hJywgJzIwMCcsICctbWV0YWxfYmluZGluZycsICctaW1hZScsICc8aW5maWxlLm1hZT4nLCAnLW9tYWUnLCAnPG91dGZpbGUubWFlPic=

> <r_epik_Ionization_Penalty>
2.78613

> <r_epik_Ionization_Penalty_Charging>
0

> <r_epik_Ionization_Penalty_Neutral>
2.78613

> <r_epik_State_Penalty>
2.57336

> <r_epik_Charging_Adjusted_Penalty>
2.57336

> <i_epik_Tot_Q>
0

> <i_epik_Tot_abs_Q>
0

> <r_epik_Metal_State_Penalty>
2.49087

> <b_epik_Metal_Only>
0

> <s_lp_Force_Field>
OPLS_2005

> <r_lp_Energy>
41.5619

> <b_lp_Chiralities_Consistent>
1

> <s_lp_Variant>
AV-unprocessed.smi:1005-25

> <Gold.Version>
5.8.1

> <Gold.Id.Protein>
6NUR|6NUR_protein|mol2

> <Gold.PLP.Fitness>
56.0572

> <Gold.PLP.PLP>
-48.9579

> <Gold.PLP.part.hbond>
-2.9755

> <Gold.PLP.part.metal>
0.0000

> <Gold.PLP.part.buried>
-6.9320

> <Gold.PLP.part.nonpolar>
-38.5437

> <Gold.PLP.part.repulsive>
0.4499

> <Gold.PLP.ligand.clash>
0.0000

> <Gold.PLP.ligand.torsion>
0.8560

> <Gold.PLP.Chemscore.Hbond>
2.9120

> <Gold.PLP.Chemscore.CHOScore>
0.0000

> <Gold.PLP.Chemscore.Metal>
0.0000

> <Gold.Chemscore.Hbonds>
donor molecule, donor type, donor heavy atom, donor atom, acceptor molecule, acceptor atom, score
      L1  H    10    34       P1  7957  0.93
      P1  H  7989  7998       L1    10  0.80
      P1  H  7997  8009       L1     5  0.63

> <Gold.PLP.Chemscore.Internal.Correction>
0.0752

> <Gold.Rescore>
     Score         DG    S(hbond)    S(metal)    S(lipo)     H(rot)  DE(clash)    DE(int)     intcor
     18.26     -20.43       1.96        0.00     122.02       2.29       0.32       1.85       ----

> <Gold.Chemscore.Fitness>
18.2621

> <Gold.Chemscore.DG>
-20.4307

> <Gold.Chemscore.ZeroCoef>
-5.4800

> <Gold.Chemscore.Hbond>
1.9569

> <Gold.Chemscore.Metal>
0.0000

> <Gold.Chemscore.Lipo>
122.0153

> <Gold.Chemscore.Internal_Hbond>
0.0000

> <Gold.Chemscore.DEClash>
0.3167

> <Gold.Chemscore.DEInternal>
1.8519

> <Gold.Chemscore.Rot>
2.2895

> <Gold.Chemscore.Internal.Correction>
   9.000000E+99

> <Gold.Chemscore.Hbonds>
donor molecule, donor type, donor heavy atom, donor atom, acceptor molecule, acceptor atom, score
      L1  H    10    34       P1  7957  0.87
      P1  H  7989  7998       L1    10  0.11
      P1  H  7997  8009       L1     5  0.03

> <Gold.Chemscore.Hbond.Weighted>
-6.5360

> <Gold.Chemscore.Metal.Weighted>
-0.0000

> <Gold.Chemscore.Lipo.Weighted>
-14.2758

> <Gold.Chemscore.Internal_Hbond.Weighted>
0.0000

> <Gold.Chemscore.DEClash.Weighted>
0.3167

> <Gold.Chemscore.DEInternal.Weighted>
1.8519

> <Gold.Chemscore.Rot.Weighted>
5.8612

> <Gold.Chemscore.Internal.Correction.Weighted>
   9.000000E+99

> <Gold.Protein.RotatedTorsions>
[ 6907 6896 6895 6894 ] final   26.29 input  -60.11 | X-H torsion
[ 7974 7965 7964 7962 ] final  -15.69 input  175.53 | X-H torsion
[ 8008 7997 7996 7995 ] final  174.70 input   59.86 | X-H torsion
[ 10167 10162 10161 10158 ] final  159.70 input  -65.29 | X-H torsion
[ 10718 10713 10712 10709 ] final   94.26 input   66.30 | X-H torsion
[ 10763 10752 10751 10750 ] final  112.07 input  -60.55 | X-H torsion
[ 11005 11000 10999 10996 ] final  131.46 input  -57.11 | X-H torsion

> <Gold.Protein.ActiveResidues>
 VAL166  LYS551  ARG553  GLY616  TRP617  ASP618  TYR619  PRO620  LYS621  CYS622 
 ASP623  PHE694  ASN695  SER759  ASP760  ASP761  ALA762  ILE779  LEU786  VAL792 
 PHE793  MET794  SER795  GLU796  ALA797  LYS798  CYS799  TRP800  GLU811  SER814 

> <Gold.Protein.RotatedAtoms>
  151.9853  135.0007  160.0558 H   0  0  0  0  0  0  0  0  0  0  0  0  # atno 6907 bound_to 6896
  152.1659  133.4607  159.4892 H   0  0  0  0  0  0  0  0  0  0  0  0  # atno 6908 bound_to 6896
  150.6894  134.1932  159.4336 H   0  0  0  0  0  0  0  0  0  0  0  0  # atno 6909 bound_to 6896
  146.2021  140.3529  142.8420 H   0  0  0  0  0  0  0  0  0  0  0  0  # atno 7974 bound_to 7965
  156.0947  140.1428  156.9546 H   0  0  0  0  0  0  0  0  0  0  0  0  # atno 8008 bound_to 7997
  154.4664  140.0925  156.7077 H   0  0  0  0  0  0  0  0  0  0  0  0  # atno 8009 bound_to 7997
  155.4861  140.3446  155.4349 H   0  0  0  0  0  0  0  0  0  0  0  0  # atno 8010 bound_to 7997
  139.4834  144.4705  151.8583 H   0  0  0  0  0  0  0  0  0  0  0  0  # atno 10167 bound_to 10162
  157.6949  131.0506  150.4159 H   0  0  0  0  0  0  0  0  0  0  0  0  # atno 10718 bound_to 10713
  153.4725  135.3697  155.2398 H   0  0  0  0  0  0  0  0  0  0  0  0  # atno 10763 bound_to 10752
  154.8756  135.3935  154.3795 H   0  0  0  0  0  0  0  0  0  0  0  0  # atno 10764 bound_to 10752
  153.4386  135.7083  153.6249 H   0  0  0  0  0  0  0  0  0  0  0  0  # atno 10765 bound_to 10752
  139.9732  134.9571  156.9442 H   0  0  0  0  0  0  0  0  0  0  0  0  # atno 11005 bound_to 11000
  144.8707  140.7268  143.6049 LP  0  0  0  0  0  0  0  0  0  0  0  0  # atno 17320 bound_to 7965
  145.3448  139.1722  143.4466 LP  0  0  0  0  0  0  0  0  0  0  0  0  # atno 17321 bound_to 7965
  140.4173  144.2290  150.5887 LP  0  0  0  0  0  0  0  0  0  0  0  0  # atno 17342 bound_to 10162
  140.4908  143.2348  151.8821 LP  0  0  0  0  0  0  0  0  0  0  0  0  # atno 17343 bound_to 10162
  156.4538  130.4017  149.6619 LP  0  0  0  0  0  0  0  0  0  0  0  0  # atno 17370 bound_to 10713
  156.3758  130.7554  151.2542 LP  0  0  0  0  0  0  0  0  0  0  0  0  # atno 17371 bound_to 10713
  140.5250  134.0870  155.7301 LP  0  0  0  0  0  0  0  0  0  0  0  0  # atno 17394 bound_to 11000
  141.1410  133.9138  157.2325 LP  0  0  0  0  0  0  0  0  0  0  0  0  # atno 17395 bound_to 11000

$$$$
