AV-unprocessed.smi:3173|AV-procd|sdf|12120|dock10
  -GOLD-   2272017563D 1   1.00000     0.00000
 Structure written by MMmdl.
 36 37  0  0  0  0  0  0  0  0  2 V2000
  146.2977  141.6610  158.6818 O   0  0  0  0  0  0  0  0  0  0  0  0
  146.6982  142.5887  157.9782 C   0  0  0  0  0  0  0  0  0  0  0  0
  145.8690  143.8697  157.8330 C   0  0  0  0  0  0  0  0  0  0  0  0
  145.6397  144.6105  159.1669 C   0  0  1  0  0  0  0  0  0  0  0  0
  144.9313  143.7504  160.1816 C   0  0  0  0  0  0  0  0  0  0  0  0
  145.5571  143.7171  161.3562 C   0  0  0  0  0  0  0  0  0  0  0  0
  146.8109  144.5464  161.3638 C   0  0  0  0  0  0  0  0  0  0  0  0
  146.9406  145.0312  159.9028 C   0  0  0  0  0  0  0  0  0  0  0  0
  147.8604  142.5525  157.3084 N   0  0  0  0  0  0  0  0  0  0  0  0
  148.7874  141.4267  157.3045 C   0  0  0  0  0  0  0  0  0  0  0  0
  150.1017  141.7746  156.5852 C   0  0  0  0  0  0  0  0  0  0  0  0
  151.0670  142.5219  157.4844 C   0  0  0  0  0  0  0  0  0  0  0  0
  151.7594  141.8823  158.5355 C   0  0  0  0  0  0  0  0  0  0  0  0
  152.6500  142.6329  159.3311 C   0  0  0  0  0  0  0  0  0  0  0  0
  152.8295  144.0050  159.0595 C   0  0  0  0  0  0  0  0  0  0  0  0
  152.1138  144.5924  157.9962 C   0  0  0  0  0  0  0  0  0  0  0  0
  151.2703  143.8398  157.2560 N   0  3  0  0  0  0  0  0  0  0  0  0
  146.3885  144.5255  157.1336 H   0  0  0  0  0  0  0  0  0  0  0  0
  144.9070  143.6318  157.3759 H   0  0  0  0  0  0  0  0  0  0  0  0
  145.0099  145.4862  159.0017 H   0  0  0  0  0  0  0  0  0  0  0  0
  144.0059  143.2400  159.9576 H   0  0  0  0  0  0  0  0  0  0  0  0
  145.2185  143.1761  162.2276 H   0  0  0  0  0  0  0  0  0  0  0  0
  146.6988  145.3802  162.0578 H   0  0  0  0  0  0  0  0  0  0  0  0
  147.6689  143.9477  161.6711 H   0  0  0  0  0  0  0  0  0  0  0  0
  147.8131  144.5621  159.4460 H   0  0  0  0  0  0  0  0  0  0  0  0
  147.0953  146.1094  159.8511 H   0  0  0  0  0  0  0  0  0  0  0  0
  148.1139  143.3584  156.7546 H   0  0  0  0  0  0  0  0  0  0  0  0
  148.9861  141.1068  158.3291 H   0  0  0  0  0  0  0  0  0  0  0  0
  148.2994  140.5882  156.8069 H   0  0  0  0  0  0  0  0  0  0  0  0
  150.5838  140.8646  156.2252 H   0  0  0  0  0  0  0  0  0  0  0  0
  149.9011  142.3847  155.7033 H   0  0  0  0  0  0  0  0  0  0  0  0
  151.6127  140.8296  158.7294 H   0  0  0  0  0  0  0  0  0  0  0  0
  153.1892  142.1615  160.1399 H   0  0  0  0  0  0  0  0  0  0  0  0
  153.5070  144.5973  159.6574 H   0  0  0  0  0  0  0  0  0  0  0  0
  152.1906  145.6332  157.7174 H   0  0  0  0  0  0  0  0  0  0  0  0
  150.7637  144.2862  156.4912 H   0  0  0  0  0  0  0  0  0  0  0  0
  1  2  2  0  0  0  0
  2  3  1  0  0  0  0
  2  9  1  0  0  0  0
  3  4  1  0  0  0  0
  3 18  1  0  0  0  0
  3 19  1  0  0  0  0
  4  8  1  0  0  0  0
  4  5  1  0  0  0  0
  4 20  1  0  0  0  0
  5  6  2  0  0  0  0
  5 21  1  0  0  0  0
  6  7  1  0  0  0  0
  6 22  1  0  0  0  0
  7  8  1  0  0  0  0
  7 23  1  0  0  0  0
  7 24  1  0  0  0  0
  8 25  1  0  0  0  0
  8 26  1  0  0  0  0
  9 10  1  0  0  0  0
  9 27  1  0  0  0  0
 10 11  1  0  0  0  0
 10 28  1  0  0  0  0
 10 29  1  0  0  0  0
 11 12  1  0  0  0  0
 11 30  1  0  0  0  0
 11 31  1  0  0  0  0
 12 17  1  0  0  0  0
 12 13  2  0  0  0  0
 13 14  1  0  0  0  0
 13 32  1  0  0  0  0
 14 15  2  0  0  0  0
 14 33  1  0  0  0  0
 15 16  1  0  0  0  0
 15 34  1  0  0  0  0
 16 17  2  0  0  0  0
 16 35  1  0  0  0  0
 17 36  1  0  0  0  0
M  CHG  1  17   1
M  END
> <s_m_source_file>
AV-unprocessed.smi

> <i_m_source_file_index>
3173

> <i_lp_mmshare_version>
43012

> <i_f3d_flags>
0

> <s_epik_input>
W0NIMl0xW0NIMl1bQ0hdPVtDSF1bQ0BIXTFbQ0gyXUMoPU8pW05IXVtDSDJdW0NIMl1jMltjSF1bY0hdW2NIXVtjSF1uMg==

> <s_epik_cmdline>
J2VwaWtfcHl0aG9uJywgJy1waCcsICc3LjAnLCAnLXRuJywgJzgnLCAnLW1hJywgJzIwMCcsICctbWV0YWxfYmluZGluZycsICctaW1hZScsICc8aW5maWxlLm1hZT4nLCAnLW9tYWUnLCAnPG91dGZpbGUubWFlPic=

> <r_epik_Ionization_Penalty>
1.86798

> <r_epik_Ionization_Penalty_Charging>
1.86798

> <r_epik_Ionization_Penalty_Neutral>
1.53848e-08

> <r_epik_State_Penalty>
1.98677

> <r_epik_Charging_Adjusted_Penalty>
3.85475

> <i_epik_Tot_Q>
1

> <i_epik_Tot_abs_Q>
1

> <r_epik_Metal_State_Penalty>
2.01174

> <b_epik_Metal_Only>
0

> <s_lp_Force_Field>
OPLS_2005

> <r_lp_Energy>
20.3145

> <b_lp_Chiralities_Consistent>
1

> <s_lp_Variant>
AV-unprocessed.smi:3173-4

> <Gold.Version>
5.8.1

> <Gold.Id.Protein>
6NUR|6NUR_protein|mol2

> <Gold.PLP.Fitness>
45.8993

> <Gold.PLP.PLP>
-36.3777

> <Gold.PLP.part.hbond>
-2.9414

> <Gold.PLP.part.metal>
0.0000

> <Gold.PLP.part.buried>
-5.1798

> <Gold.PLP.part.nonpolar>
-28.1653

> <Gold.PLP.part.repulsive>
0.0632

> <Gold.PLP.ligand.clash>
0.0000

> <Gold.PLP.ligand.torsion>
0.2791

> <Gold.PLP.Chemscore.Hbond>
3.3469

> <Gold.PLP.Chemscore.CHOScore>
0.0000

> <Gold.PLP.Chemscore.Metal>
0.0000

> <Gold.Chemscore.Hbonds>
donor molecule, donor type, donor heavy atom, donor atom, acceptor molecule, acceptor atom, score
      L1  H     9    27       P1  8028  0.75
      L1  H    17    36       P1  8028  1.69
      P1  H  6934  6946       L1     1  0.32

> <Gold.PLP.Chemscore.Internal.Correction>
0.0391

> <Gold.Rescore>
     Score         DG    S(hbond)    S(metal)    S(lipo)     H(rot)  DE(clash)    DE(int)     intcor
     16.73     -17.39       1.55        0.00      92.78       1.61       0.24       0.42       ----

> <Gold.Chemscore.Fitness>
16.7324

> <Gold.Chemscore.DG>
-17.3876

> <Gold.Chemscore.ZeroCoef>
-5.4800

> <Gold.Chemscore.Hbond>
1.5506

> <Gold.Chemscore.Metal>
0.0000

> <Gold.Chemscore.Lipo>
92.7827

> <Gold.Chemscore.Internal_Hbond>
0.0000

> <Gold.Chemscore.DEClash>
0.2369

> <Gold.Chemscore.DEInternal>
0.4182

> <Gold.Chemscore.Rot>
1.6122

> <Gold.Chemscore.Internal.Correction>
   9.000000E+99

> <Gold.Chemscore.Hbonds>
donor molecule, donor type, donor heavy atom, donor atom, acceptor molecule, acceptor atom, score
      L1  H     9    27       P1  8028  0.09
      L1  H    17    36       P1  8028  0.79
      P1  H  6934  6946       L1     1  0.31

> <Gold.Chemscore.Hbond.Weighted>
-5.1791

> <Gold.Chemscore.Metal.Weighted>
-0.0000

> <Gold.Chemscore.Lipo.Weighted>
-10.8556

> <Gold.Chemscore.Internal_Hbond.Weighted>
0.0000

> <Gold.Chemscore.DEClash.Weighted>
0.2369

> <Gold.Chemscore.DEInternal.Weighted>
0.4182

> <Gold.Chemscore.Rot.Weighted>
4.1271

> <Gold.Chemscore.Internal.Correction.Weighted>
   9.000000E+99

> <Gold.Protein.RotatedTorsions>
[ 6907 6896 6895 6894 ] final  137.30 input  -60.11 | X-H torsion
[ 7974 7965 7964 7962 ] final  -71.14 input  175.53 | X-H torsion
[ 8008 7997 7996 7995 ] final -144.29 input   59.86 | X-H torsion
[ 10167 10162 10161 10158 ] final  142.85 input  -65.29 | X-H torsion
[ 10718 10713 10712 10709 ] final -113.15 input   66.30 | X-H torsion
[ 10763 10752 10751 10750 ] final  -11.39 input  -60.55 | X-H torsion
[ 11005 11000 10999 10996 ] final   92.60 input  -57.11 | X-H torsion

> <Gold.Protein.ActiveResidues>
 VAL166  LYS551  ARG553  GLY616  TRP617  ASP618  TYR619  PRO620  LYS621  CYS622 
 ASP623  PHE694  ASN695  SER759  ASP760  ASP761  ALA762  ILE779  LEU786  VAL792 
 PHE793  MET794  SER795  GLU796  ALA797  LYS798  CYS799  TRP800  GLU811  SER814 

> <Gold.Protein.RotatedAtoms>
  152.2796  133.5458  159.5489 H   0  0  0  0  0  0  0  0  0  0  0  0  # atno 6907 bound_to 6896
  150.7190  134.0583  159.3831 H   0  0  0  0  0  0  0  0  0  0  0  0  # atno 6908 bound_to 6896
  151.8494  135.0563  160.0508 H   0  0  0  0  0  0  0  0  0  0  0  0  # atno 6909 bound_to 6896
  145.6819  140.9184  143.0827 H   0  0  0  0  0  0  0  0  0  0  0  0  # atno 7974 bound_to 7965
  155.5246  140.0594  157.2900 H   0  0  0  0  0  0  0  0  0  0  0  0  # atno 8008 bound_to 7997
  154.4505  140.1946  156.0478 H   0  0  0  0  0  0  0  0  0  0  0  0  # atno 8009 bound_to 7997
  156.0695  140.3262  155.7562 H   0  0  0  0  0  0  0  0  0  0  0  0  # atno 8010 bound_to 7997
  139.4984  144.6079  151.6337 H   0  0  0  0  0  0  0  0  0  0  0  0  # atno 10167 bound_to 10162
  156.0749  130.5958  150.8604 H   0  0  0  0  0  0  0  0  0  0  0  0  # atno 10718 bound_to 10713
  153.4831  135.7017  153.5927 H   0  0  0  0  0  0  0  0  0  0  0  0  # atno 10763 bound_to 10752
  153.4131  135.3843  155.2063 H   0  0  0  0  0  0  0  0  0  0  0  0  # atno 10764 bound_to 10752
  154.8720  135.3909  154.4282 H   0  0  0  0  0  0  0  0  0  0  0  0  # atno 10765 bound_to 10752
  139.8821  134.8742  156.3596 H   0  0  0  0  0  0  0  0  0  0  0  0  # atno 11005 bound_to 11000
  144.7023  139.8708  143.7440 LP  0  0  0  0  0  0  0  0  0  0  0  0  # atno 17320 bound_to 7965
  146.0956  139.3949  143.0378 LP  0  0  0  0  0  0  0  0  0  0  0  0  # atno 17321 bound_to 7965
  140.5746  144.0050  150.6235 LP  0  0  0  0  0  0  0  0  0  0  0  0  # atno 17342 bound_to 10162
  140.3179  143.3156  152.0813 LP  0  0  0  0  0  0  0  0  0  0  0  0  # atno 17343 bound_to 10162
  157.5839  131.0946  150.9227 LP  0  0  0  0  0  0  0  0  0  0  0  0  # atno 17370 bound_to 10713
  156.9417  130.5387  149.5280 LP  0  0  0  0  0  0  0  0  0  0  0  0  # atno 17371 bound_to 10713
  140.9538  133.7433  156.0308 LP  0  0  0  0  0  0  0  0  0  0  0  0  # atno 17394 bound_to 11000
  140.8073  134.3440  157.5422 LP  0  0  0  0  0  0  0  0  0  0  0  0  # atno 17395 bound_to 11000

$$$$
