AV-unprocessed.smi:1672|AV-procd|sdf|6703|dock4
  -GOLD-   22720 7443D 1   1.00000     0.00000
 Structure written by MMmdl.
 48 50  0  0  0  0  0  0  0  0  2 V2000
  144.6824  140.7814  155.6612 C   0  0  0  0  0  0  0  0  0  0  0  0
  145.3593  142.1623  155.6100 C   0  0  2  0  0  0  0  0  0  0  0  0
  146.3112  142.3146  154.4094 C   0  0  0  0  0  0  0  0  0  0  0  0
  147.6227  141.5323  154.6026 C   0  0  0  0  0  0  0  0  0  0  0  0
  148.3043  141.9280  155.8615 N   0  3  2  0  0  0  0  0  0  0  0  0
  149.6428  141.2978  155.9992 C   0  0  0  0  0  0  0  0  0  0  0  0
  150.5670  142.0713  156.9597 C   0  0  2  0  0  0  0  0  0  0  0  0
  150.8120  143.3525  156.4136 O   0  0  0  0  0  0  0  0  0  0  0  0
  151.9049  141.3359  157.1779 C   0  0  0  0  0  0  0  0  0  0  0  0
  152.3801  141.4223  158.5536 N   0  0  0  0  0  0  0  0  0  0  0  0
  153.1403  140.5303  159.2403 C   0  0  0  0  0  0  0  0  0  0  0  0
  153.6450  139.2577  158.6289 C   0  0  0  0  0  0  0  0  0  0  0  0
  155.0395  139.2607  158.4112 O   0  0  0  0  0  0  0  0  0  0  0  0
  153.4240  140.8605  160.5005 N   0  0  0  0  0  0  0  0  0  0  0  0
  152.8015  142.0846  160.6438 C   0  0  0  0  0  0  0  0  0  0  0  0
  152.7347  142.9564  161.7541 C   0  0  0  0  0  0  0  0  0  0  0  0
  152.0311  144.1753  161.6632 C   0  0  0  0  0  0  0  0  0  0  0  0
  151.3869  144.5395  160.4631 C   0  0  0  0  0  0  0  0  0  0  0  0
  151.4414  143.6854  159.3450 C   0  0  0  0  0  0  0  0  0  0  0  0
  152.1430  142.4684  159.4415 C   0  0  0  0  0  0  0  0  0  0  0  0
  147.4286  141.7197  157.0456 C   0  0  0  0  0  0  0  0  0  0  0  0
  146.1127  142.5063  156.9080 C   0  0  0  0  0  0  0  0  0  0  0  0
  145.4029  139.9724  155.7763 H   0  0  0  0  0  0  0  0  0  0  0  0
  144.1169  140.5911  154.7485 H   0  0  0  0  0  0  0  0  0  0  0  0
  143.9831  140.7211  156.4956 H   0  0  0  0  0  0  0  0  0  0  0  0
  144.5586  142.8935  155.4905 H   0  0  0  0  0  0  0  0  0  0  0  0
  145.8169  141.9962  153.4907 H   0  0  0  0  0  0  0  0  0  0  0  0
  146.5479  143.3709  154.2737 H   0  0  0  0  0  0  0  0  0  0  0  0
  147.4337  140.4580  154.6092 H   0  0  0  0  0  0  0  0  0  0  0  0
  148.2779  141.7300  153.7532 H   0  0  0  0  0  0  0  0  0  0  0  0
  149.5204  140.2655  156.3302 H   0  0  0  0  0  0  0  0  0  0  0  0
  150.1292  141.2467  155.0234 H   0  0  0  0  0  0  0  0  0  0  0  0
  150.0812  142.2082  157.9236 H   0  0  0  0  0  0  0  0  0  0  0  0
  150.0288  143.8739  156.5103 H   0  0  0  0  0  0  0  0  0  0  0  0
  151.8065  140.2864  156.9016 H   0  0  0  0  0  0  0  0  0  0  0  0
  152.6734  141.7453  156.5206 H   0  0  0  0  0  0  0  0  0  0  0  0
  153.3735  138.4121  159.2606 H   0  0  0  0  0  0  0  0  0  0  0  0
  153.1492  139.0990  157.6704 H   0  0  0  0  0  0  0  0  0  0  0  0
  155.3110  138.3787  158.2070 H   0  0  0  0  0  0  0  0  0  0  0  0
  153.2262  142.6877  162.6773 H   0  0  0  0  0  0  0  0  0  0  0  0
  151.9868  144.8345  162.5177 H   0  0  0  0  0  0  0  0  0  0  0  0
  150.8509  145.4754  160.4017 H   0  0  0  0  0  0  0  0  0  0  0  0
  150.9480  143.9631  158.4254 H   0  0  0  0  0  0  0  0  0  0  0  0
  147.2251  140.6552  157.1689 H   0  0  0  0  0  0  0  0  0  0  0  0
  147.9334  142.0447  157.9543 H   0  0  0  0  0  0  0  0  0  0  0  0
  146.3377  143.5737  156.9178 H   0  0  0  0  0  0  0  0  0  0  0  0
  145.4755  142.3250  157.7744 H   0  0  0  0  0  0  0  0  0  0  0  0
  148.4709  142.9220  155.7884 H   0  0  0  0  0  0  0  0  0  0  0  0
  1  2  1  0  0  0  0
  1 23  1  0  0  0  0
  1 24  1  0  0  0  0
  1 25  1  0  0  0  0
  2 22  1  0  0  0  0
  2  3  1  0  0  0  0
  2 26  1  0  0  0  0
  3  4  1  0  0  0  0
  3 27  1  0  0  0  0
  3 28  1  0  0  0  0
  4  5  1  0  0  0  0
  4 29  1  0  0  0  0
  4 30  1  0  0  0  0
  5  6  1  0  0  0  0
  5 21  1  0  0  0  0
  5 48  1  0  0  0  0
  6  7  1  0  0  0  0
  6 31  1  0  0  0  0
  6 32  1  0  0  0  0
  7  8  1  0  0  0  0
  7  9  1  0  0  0  0
  7 33  1  0  0  0  0
  8 34  1  0  0  0  0
  9 10  1  0  0  0  0
  9 35  1  0  0  0  0
  9 36  1  0  0  0  0
 10 20  1  0  0  0  0
 10 11  1  0  0  0  0
 11 12  1  0  0  0  0
 11 14  2  0  0  0  0
 12 13  1  0  0  0  0
 12 37  1  0  0  0  0
 12 38  1  0  0  0  0
 13 39  1  0  0  0  0
 14 15  1  0  0  0  0
 15 20  2  0  0  0  0
 15 16  1  0  0  0  0
 16 17  2  0  0  0  0
 16 40  1  0  0  0  0
 17 18  1  0  0  0  0
 17 41  1  0  0  0  0
 18 19  2  0  0  0  0
 18 42  1  0  0  0  0
 19 20  1  0  0  0  0
 19 43  1  0  0  0  0
 21 22  1  0  0  0  0
 21 44  1  0  0  0  0
 21 45  1  0  0  0  0
 22 46  1  0  0  0  0
 22 47  1  0  0  0  0
M  CHG  1   5   1
M  END
> <s_m_source_file>
AV-unprocessed.smi

> <i_m_source_file_index>
1672

> <i_lp_mmshare_version>
43012

> <i_f3d_flags>
0

> <s_epik_input>
W0NIM11bQ0hdMVtDSDJdW0NIMl1OKFtDSDJdW0NIMl0xKVtDSDJdW0NASF0oW09IXSlbQ0gyXW4oYyhuMilbQ0gyXVtPSF0pYyhjMjMpW2NIXVtjSF1bY0hdW2NIXTM=

> <s_epik_cmdline>
J2VwaWtfcHl0aG9uJywgJy1waCcsICc3LjAnLCAnLXRuJywgJzgnLCAnLW1hJywgJzIwMCcsICctbWV0YWxfYmluZGluZycsICctaW1hZScsICc8aW5maWxlLm1hZT4nLCAnLW9tYWUnLCAnPG91dGZpbGUubWFlPic=

> <r_epik_Ionization_Penalty>
0.0498263

> <r_epik_Ionization_Penalty_Charging>
0.00181365

> <r_epik_Ionization_Penalty_Neutral>
0.0480127

> <r_epik_State_Penalty>
0.0408546

> <r_epik_Charging_Adjusted_Penalty>
0.0426682

> <i_epik_Tot_Q>
1

> <i_epik_Tot_abs_Q>
1

> <r_epik_Metal_State_Penalty>
4.22946e-05

> <b_epik_Metal_Only>
0

> <s_lp_Force_Field>
OPLS_2005

> <r_lp_Energy>
23.4925

> <b_lp_Chiralities_Consistent>
1

> <s_lp_Variant>
AV-unprocessed.smi:1672-3

> <Gold.Version>
5.8.1

> <Gold.Id.Protein>
6NUR|6NUR_protein|mol2

> <Gold.PLP.Fitness>
56.3949

> <Gold.PLP.PLP>
-46.6369

> <Gold.PLP.part.hbond>
-3.0000

> <Gold.PLP.part.metal>
0.0000

> <Gold.PLP.part.buried>
-6.8396

> <Gold.PLP.part.nonpolar>
-36.8594

> <Gold.PLP.part.repulsive>
0.0731

> <Gold.PLP.ligand.clash>
0.0000

> <Gold.PLP.ligand.torsion>
1.1744

> <Gold.PLP.Chemscore.Hbond>
4.0000

> <Gold.PLP.Chemscore.CHOScore>
0.0000

> <Gold.PLP.Chemscore.Metal>
0.0000

> <Gold.Chemscore.Hbonds>
donor molecule, donor type, donor heavy atom, donor atom, acceptor molecule, acceptor atom, score
      L1  H     5    48       P1  8028  2.00
      L1  H     8    34       P1  8028  0.86
      P1  H  7997  8010       L1    13  0.46

> <Gold.PLP.Chemscore.Internal.Correction>
0.1067

> <Gold.Rescore>
     Score         DG    S(hbond)    S(metal)    S(lipo)     H(rot)  DE(clash)    DE(int)     intcor
     16.45     -19.71       2.57        0.00     111.19       2.88       0.06       3.20       ----

> <Gold.Chemscore.Fitness>
16.4532

> <Gold.Chemscore.DG>
-19.7129

> <Gold.Chemscore.ZeroCoef>
-5.4800

> <Gold.Chemscore.Hbond>
2.5721

> <Gold.Chemscore.Metal>
0.0000

> <Gold.Chemscore.Lipo>
111.1892

> <Gold.Chemscore.Internal_Hbond>
0.0000

> <Gold.Chemscore.DEClash>
0.0580

> <Gold.Chemscore.DEInternal>
3.2017

> <Gold.Chemscore.Rot>
2.8778

> <Gold.Chemscore.Internal.Correction>
   9.000000E+99

> <Gold.Chemscore.Hbonds>
donor molecule, donor type, donor heavy atom, donor atom, acceptor molecule, acceptor atom, score
      L1  H     5    48       P1  8028  0.99
      L1  H     8    34       P1  8028  0.86
      P1  H  7997  8010       L1    13  0.19

> <Gold.Chemscore.Hbond.Weighted>
-8.5908

> <Gold.Chemscore.Metal.Weighted>
-0.0000

> <Gold.Chemscore.Lipo.Weighted>
-13.0091

> <Gold.Chemscore.Internal_Hbond.Weighted>
0.0000

> <Gold.Chemscore.DEClash.Weighted>
0.0580

> <Gold.Chemscore.DEInternal.Weighted>
3.2017

> <Gold.Chemscore.Rot.Weighted>
7.3671

> <Gold.Chemscore.Internal.Correction.Weighted>
   9.000000E+99

> <Gold.Protein.RotatedTorsions>
[ 6907 6896 6895 6894 ] final -120.61 input  -60.11 | X-H torsion
[ 7974 7965 7964 7962 ] final  101.70 input  175.53 | X-H torsion
[ 8008 7997 7996 7995 ] final   -9.87 input   59.86 | X-H torsion
[ 10167 10162 10161 10158 ] final -110.27 input  -65.29 | X-H torsion
[ 10718 10713 10712 10709 ] final  -39.59 input   66.30 | X-H torsion
[ 10763 10752 10751 10750 ] final   -1.18 input  -60.55 | X-H torsion
[ 11005 11000 10999 10996 ] final  -80.05 input  -57.11 | X-H torsion

> <Gold.Protein.ActiveResidues>
 VAL166  LYS551  ARG553  GLY616  TRP617  ASP618  TYR619  PRO620  LYS621  CYS622 
 ASP623  PHE694  ASN695  SER759  ASP760  ASP761  ALA762  ILE779  LEU786  VAL792 
 PHE793  MET794  SER795  GLU796  ALA797  LYS798  CYS799  TRP800  GLU811  SER814 

> <Gold.Protein.RotatedAtoms>
  150.8408  133.7939  159.3061 H   0  0  0  0  0  0  0  0  0  0  0  0  # atno 6907 bound_to 6896
  151.5641  135.1063  159.9989 H   0  0  0  0  0  0  0  0  0  0  0  0  # atno 6908 bound_to 6896
  152.4472  133.7517  159.6754 H   0  0  0  0  0  0  0  0  0  0  0  0  # atno 6909 bound_to 6896
  145.3689  139.2402  143.3466 H   0  0  0  0  0  0  0  0  0  0  0  0  # atno 7974 bound_to 7965
  154.5606  140.2343  155.8341 H   0  0  0  0  0  0  0  0  0  0  0  0  # atno 8008 bound_to 7997
  156.2026  140.3048  155.9518 H   0  0  0  0  0  0  0  0  0  0  0  0  # atno 8009 bound_to 7997
  155.2896  140.0426  157.3012 H   0  0  0  0  0  0  0  0  0  0  0  0  # atno 8010 bound_to 7997
  140.1463  143.4237  152.1527 H   0  0  0  0  0  0  0  0  0  0  0  0  # atno 10167 bound_to 10162
  156.2908  130.4228  149.8241 H   0  0  0  0  0  0  0  0  0  0  0  0  # atno 10718 bound_to 10713
  153.3415  135.6981  153.6863 H   0  0  0  0  0  0  0  0  0  0  0  0  # atno 10763 bound_to 10752
  153.5626  135.3532  155.2806 H   0  0  0  0  0  0  0  0  0  0  0  0  # atno 10764 bound_to 10752
  154.8637  135.4253  154.2629 H   0  0  0  0  0  0  0  0  0  0  0  0  # atno 10765 bound_to 10752
  141.1668  133.7133  156.8214 H   0  0  0  0  0  0  0  0  0  0  0  0  # atno 11005 bound_to 11000
  146.2894  140.4336  142.8745 LP  0  0  0  0  0  0  0  0  0  0  0  0  # atno 17320 bound_to 7965
  144.8591  140.7113  143.6119 LP  0  0  0  0  0  0  0  0  0  0  0  0  # atno 17321 bound_to 7965
  139.5447  144.7288  151.4620 LP  0  0  0  0  0  0  0  0  0  0  0  0  # atno 17342 bound_to 10162
  140.6730  143.8252  150.7023 LP  0  0  0  0  0  0  0  0  0  0  0  0  # atno 17343 bound_to 10162
  156.5655  130.8402  151.3341 LP  0  0  0  0  0  0  0  0  0  0  0  0  # atno 17370 bound_to 10713
  157.7341  130.9742  150.2015 LP  0  0  0  0  0  0  0  0  0  0  0  0  # atno 17371 bound_to 10713
  140.2116  134.8823  157.3281 LP  0  0  0  0  0  0  0  0  0  0  0  0  # atno 17394 bound_to 11000
  140.2080  134.4173  155.7627 LP  0  0  0  0  0  0  0  0  0  0  0  0  # atno 17395 bound_to 11000

$$$$
