AV-unprocessed.smi:196|AV-procd|sdf|1542|dock7
  -GOLD-   2262019403D 1   1.00000     0.00000
 Structure written by MMmdl.
 47 50  0  0  0  0  0  0  0  0  1 V2000
  146.5532  138.9697  155.0753 C   0  0  0  0  0  0  0  0  0  0  0  0
  146.8484  140.4494  155.3695 C   0  0  2  0  0  0  0  0  0  0  0  0
  145.6941  141.1007  155.8995 O   0  0  0  0  0  0  0  0  0  0  0  0
  145.3754  142.2453  155.1204 C   0  0  0  0  0  0  0  0  0  0  0  0
  146.6969  142.6509  154.4808 C   0  0  0  0  0  0  0  0  0  0  0  0
  147.3439  141.3063  154.1821 C   0  0  2  0  0  0  0  0  0  0  0  0
  146.8232  140.8215  152.9540 O   0  0  0  0  0  0  0  0  0  0  0  0
  148.8861  141.3574  154.0747 C   0  0  0  0  0  0  0  0  0  0  0  0
  149.5549  141.4102  155.3652 N   0  0  0  0  0  0  0  0  0  0  0  0
  149.2055  142.1943  156.4424 C   0  0  0  0  0  0  0  0  0  0  0  0
  149.9648  142.0655  157.4961 N   0  0  0  0  0  0  0  0  0  0  0  0
  150.9154  141.1298  157.1105 C   0  0  0  0  0  0  0  0  0  0  0  0
  152.0351  140.5415  157.7523 C   0  0  0  0  0  0  0  0  0  0  0  0
  152.3751  140.8583  159.0213 N   0  0  0  0  0  0  0  0  0  0  0  0
  153.1074  139.8266  159.7487 C   0  0  0  0  0  0  0  0  0  0  0  0
  154.2084  140.5515  160.5275 C   0  0  1  0  0  0  0  0  0  0  0  0
  155.3457  140.5058  159.8318 F   0  0  0  0  0  0  0  0  0  0  0  0
  153.7101  141.9920  160.5918 C   0  0  0  0  0  0  0  0  0  0  0  0
  152.9891  142.1675  159.2494 C   0  0  2  0  0  0  0  0  0  0  0  0
  151.9481  143.2959  159.2963 C   0  0  0  0  0  0  0  0  0  0  0  0
  152.0988  144.2902  158.4186 N   0  0  0  0  0  0  0  0  0  0  0  0
  151.0304  143.2812  160.1152 O   0  0  0  0  0  0  0  0  0  0  0  0
  152.7648  139.6309  157.0562 N   0  0  0  0  0  0  0  0  0  0  0  0
  152.4230  139.3237  155.8011 C   0  0  0  0  0  0  0  0  0  0  0  0
  151.4106  139.7983  155.0712 N   0  0  0  0  0  0  0  0  0  0  0  0
  150.6746  140.7070  155.7742 C   0  0  0  0  0  0  0  0  0  0  0  0
  154.4048  140.1147  161.5070 H   0  0  0  0  0  0  0  0  0  0  0  0
  153.7279  142.3816  158.4744 H   0  0  0  0  0  0  0  0  0  0  0  0
  147.4266  138.4711  154.6546 H   0  0  0  0  0  0  0  0  0  0  0  0
  145.7268  138.8563  154.3730 H   0  0  0  0  0  0  0  0  0  0  0  0
  146.2790  138.4426  155.9895 H   0  0  0  0  0  0  0  0  0  0  0  0
  147.5933  140.4932  156.1654 H   0  0  0  0  0  0  0  0  0  0  0  0
  144.6482  141.9647  154.3574 H   0  0  0  0  0  0  0  0  0  0  0  0
  144.9419  143.0379  155.7304 H   0  0  0  0  0  0  0  0  0  0  0  0
  146.5738  143.2874  153.6036 H   0  0  0  0  0  0  0  0  0  0  0  0
  147.2906  143.2002  155.2124 H   0  0  0  0  0  0  0  0  0  0  0  0
  146.4530  141.5494  152.4785 H   0  0  0  0  0  0  0  0  0  0  0  0
  149.2574  140.4845  153.5359 H   0  0  0  0  0  0  0  0  0  0  0  0
  149.1945  142.2271  153.4931 H   0  0  0  0  0  0  0  0  0  0  0  0
  148.3604  142.8674  156.4233 H   0  0  0  0  0  0  0  0  0  0  0  0
  152.4106  139.3502  160.4391 H   0  0  0  0  0  0  0  0  0  0  0  0
  153.5153  139.0448  159.1050 H   0  0  0  0  0  0  0  0  0  0  0  0
  153.0132  142.0988  161.4251 H   0  0  0  0  0  0  0  0  0  0  0  0
  154.5174  142.7108  160.7364 H   0  0  0  0  0  0  0  0  0  0  0  0
  151.4434  145.0582  158.4083 H   0  0  0  0  0  0  0  0  0  0  0  0
  152.8713  144.2706  157.7685 H   0  0  0  0  0  0  0  0  0  0  0  0
  153.0503  138.5937  155.3114 H   0  0  0  0  0  0  0  0  0  0  0  0
  1  2  1  0  0  0  0
  1 29  1  0  0  0  0
  1 30  1  0  0  0  0
  1 31  1  0  0  0  0
  2  6  1  0  0  0  0
  2  3  1  0  0  0  0
  2 32  1  0  0  0  0
  3  4  1  0  0  0  0
  4  5  1  0  0  0  0
  4 33  1  0  0  0  0
  4 34  1  0  0  0  0
  5  6  1  0  0  0  0
  5 35  1  0  0  0  0
  5 36  1  0  0  0  0
  6  7  1  0  0  0  0
  6  8  1  0  0  0  0
  7 37  1  0  0  0  0
  8  9  1  0  0  0  0
  8 38  1  0  0  0  0
  8 39  1  0  0  0  0
  9 26  1  0  0  0  0
  9 10  1  0  0  0  0
 10 11  2  0  0  0  0
 10 40  1  0  0  0  0
 11 12  1  0  0  0  0
 12 26  2  0  0  0  0
 12 13  1  0  0  0  0
 13 14  1  0  0  0  0
 13 23  2  0  0  0  0
 14 19  1  0  0  0  0
 14 15  1  0  0  0  0
 15 16  1  0  0  0  0
 15 41  1  0  0  0  0
 15 42  1  0  0  0  0
 16 27  1  0  0  0  0
 16 17  1  0  0  0  0
 16 18  1  0  0  0  0
 18 19  1  0  0  0  0
 18 43  1  0  0  0  0
 18 44  1  0  0  0  0
 19 28  1  0  0  0  0
 19 20  1  0  0  0  0
 20 21  1  0  0  0  0
 20 22  2  0  0  0  0
 21 45  1  0  0  0  0
 21 46  1  0  0  0  0
 23 24  1  0  0  0  0
 24 25  2  0  0  0  0
 24 47  1  0  0  0  0
 25 26  1  0  0  0  0
M  END
> <s_m_source_file>
AV-unprocessed.smi

> <i_m_source_file_index>
196

> <i_lp_mmshare_version>
43012

> <i_f3d_flags>
0

> <s_epik_input>
W0NIMl0xW0NIMl1PW0NAQEhdKFtDSDNdKVtDQEBdMShbT0hdKVtDSDJdbihbY0hdbjIpYyhjMjMpbltjSF1uYzNONFtDSDJdW0NASF0oRilbQ0gyXVtDQEhdNEMoPU8pW05IMl0=

> <s_epik_cmdline>
J2VwaWtfcHl0aG9uJywgJy1waCcsICc3LjAnLCAnLXRuJywgJzgnLCAnLW1hJywgJzIwMCcsICctbWV0YWxfYmluZGluZycsICctaW1hZScsICc8aW5maWxlLm1hZT4nLCAnLW9tYWUnLCAnPG91dGZpbGUubWFlPic=

> <r_lp_tautomer_probability>
1

> <r_epik_Ionization_Penalty>
0.000857933

> <r_epik_Ionization_Penalty_Charging>
0

> <r_epik_Ionization_Penalty_Neutral>
0.000857933

> <r_epik_State_Penalty>
0.000462053

> <r_epik_Charging_Adjusted_Penalty>
0.000462053

> <i_epik_Tot_Q>
0

> <i_epik_Tot_abs_Q>
0

> <r_epik_Metal_State_Penalty>
-0

> <b_epik_Metal_Only>
0

> <s_lp_Force_Field>
OPLS_2005

> <r_lp_Energy>
44.722

> <b_lp_Chiralities_Consistent>
1

> <s_lp_Variant>
AV-unprocessed.smi:196-15

> <Gold.Version>
5.8.1

> <Gold.Id.Protein>
6NUR|6NUR_protein|mol2

> <Gold.PLP.Fitness>
50.6535

> <Gold.PLP.PLP>
-44.9576

> <Gold.PLP.part.hbond>
-3.6167

> <Gold.PLP.part.metal>
0.0000

> <Gold.PLP.part.buried>
-1.5610

> <Gold.PLP.part.nonpolar>
-39.5830

> <Gold.PLP.part.repulsive>
0.2962

> <Gold.PLP.ligand.clash>
0.0000

> <Gold.PLP.ligand.torsion>
1.0142

> <Gold.PLP.Chemscore.Hbond>
1.9000

> <Gold.PLP.Chemscore.CHOScore>
0.6143

> <Gold.PLP.Chemscore.Metal>
0.0000

> <Gold.Chemscore.Hbonds>
donor molecule, donor type, donor heavy atom, donor atom, acceptor molecule, acceptor atom, score
      P1  H  7989  7998       L1    25  0.85
      P1  H  7997  8010       L1    23  0.95
      L1  C    10    40       P1  8028  0.65

> <Gold.PLP.Chemscore.Internal.Correction>
0.1815

> <Gold.Rescore>
     Score         DG    S(hbond)    S(metal)    S(lipo)     H(rot)  DE(clash)    DE(int)     intcor
      6.73      -9.09       1.16        0.00      64.33       3.04       1.38       0.98       ----

> <Gold.Chemscore.Fitness>
6.7350

> <Gold.Chemscore.DG>
-9.0935

> <Gold.Chemscore.ZeroCoef>
-5.4800

> <Gold.Chemscore.Hbond>
1.1593

> <Gold.Chemscore.Metal>
0.0000

> <Gold.Chemscore.Lipo>
64.3327

> <Gold.Chemscore.Internal_Hbond>
0.0000

> <Gold.Chemscore.DEClash>
1.3750

> <Gold.Chemscore.DEInternal>
0.9835

> <Gold.Chemscore.Rot>
3.0413

> <Gold.Chemscore.Internal.Correction>
   9.000000E+99

> <Gold.Chemscore.Hbonds>
donor molecule, donor type, donor heavy atom, donor atom, acceptor molecule, acceptor atom, score
      P1  H  7989  7998       L1    25  0.14
      P1  H  7997  8010       L1    23  0.19

> <Gold.Chemscore.Hbond.Weighted>
-3.8722

> <Gold.Chemscore.Metal.Weighted>
-0.0000

> <Gold.Chemscore.Lipo.Weighted>
-7.5269

> <Gold.Chemscore.Internal_Hbond.Weighted>
0.0000

> <Gold.Chemscore.DEClash.Weighted>
1.3750

> <Gold.Chemscore.DEInternal.Weighted>
0.9835

> <Gold.Chemscore.Rot.Weighted>
7.7856

> <Gold.Chemscore.Internal.Correction.Weighted>
   9.000000E+99

> <Gold.Protein.RotatedTorsions>
[ 6907 6896 6895 6894 ] final  132.27 input  -60.11 | X-H torsion
[ 7974 7965 7964 7962 ] final  167.71 input  175.53 | X-H torsion
[ 8008 7997 7996 7995 ] final   49.63 input   59.86 | X-H torsion
[ 10167 10162 10161 10158 ] final   53.42 input  -65.29 | X-H torsion
[ 10718 10713 10712 10709 ] final -150.07 input   66.30 | X-H torsion
[ 10763 10752 10751 10750 ] final  113.41 input  -60.55 | X-H torsion
[ 11005 11000 10999 10996 ] final   73.86 input  -57.11 | X-H torsion

> <Gold.Protein.ActiveResidues>
 VAL166  LYS551  ARG553  GLY616  TRP617  ASP618  TYR619  PRO620  LYS621  CYS622 
 ASP623  PHE694  ASN695  SER759  ASP760  ASP761  ALA762  ILE779  LEU786  VAL792 
 PHE793  MET794  SER795  GLU796  ALA797  LYS798  CYS799  TRP800  GLU811  SER814 

> <Gold.Protein.RotatedAtoms>
  152.3341  133.5991  159.5829 H   0  0  0  0  0  0  0  0  0  0  0  0  # atno 6907 bound_to 6896
  150.7440  133.9823  159.3589 H   0  0  0  0  0  0  0  0  0  0  0  0  # atno 6908 bound_to 6896
  151.7695  135.0790  160.0409 H   0  0  0  0  0  0  0  0  0  0  0  0  # atno 6909 bound_to 6896
  144.7414  139.8801  143.6395 H   0  0  0  0  0  0  0  0  0  0  0  0  # atno 7974 bound_to 7965
  155.4054  140.3440  155.4260 H   0  0  0  0  0  0  0  0  0  0  0  0  # atno 8008 bound_to 7997
  156.1479  140.1562  156.8848 H   0  0  0  0  0  0  0  0  0  0  0  0  # atno 8009 bound_to 7997
  154.5027  140.0810  156.7812 H   0  0  0  0  0  0  0  0  0  0  0  0  # atno 8010 bound_to 7997
  140.2410  144.3584  150.6380 H   0  0  0  0  0  0  0  0  0  0  0  0  # atno 10167 bound_to 10162
  156.4413  130.8123  151.2353 H   0  0  0  0  0  0  0  0  0  0  0  0  # atno 10718 bound_to 10713
  153.4921  135.3656  155.2497 H   0  0  0  0  0  0  0  0  0  0  0  0  # atno 10763 bound_to 10752
  154.8751  135.3979  154.3577 H   0  0  0  0  0  0  0  0  0  0  0  0  # atno 10764 bound_to 10752
  153.4198  135.7080  153.6367 H   0  0  0  0  0  0  0  0  0  0  0  0  # atno 10765 bound_to 10752
  139.9419  134.7383  156.1077 H   0  0  0  0  0  0  0  0  0  0  0  0  # atno 11005 bound_to 11000
  146.1217  139.4237  143.0224 LP  0  0  0  0  0  0  0  0  0  0  0  0  # atno 17320 bound_to 7965
  145.7294  141.0047  143.1360 LP  0  0  0  0  0  0  0  0  0  0  0  0  # atno 17321 bound_to 7965
  140.6114  143.2170  151.6879 LP  0  0  0  0  0  0  0  0  0  0  0  0  # atno 17342 bound_to 10162
  139.5077  144.3636  152.0539 LP  0  0  0  0  0  0  0  0  0  0  0  0  # atno 17343 bound_to 10162
  157.7506  131.0167  150.3556 LP  0  0  0  0  0  0  0  0  0  0  0  0  # atno 17370 bound_to 10713
  156.3914  130.3898  149.7027 LP  0  0  0  0  0  0  0  0  0  0  0  0  # atno 17371 bound_to 10713
  141.1056  133.6661  156.2857 LP  0  0  0  0  0  0  0  0  0  0  0  0  # atno 17394 bound_to 11000
  140.5930  134.5631  157.5503 LP  0  0  0  0  0  0  0  0  0  0  0  0  # atno 17395 bound_to 11000

$$$$
