AV-unprocessed.smi:2006|AV-procd|sdf|8131|dock7
  -GOLD-   2272010363D 1   1.00000     0.00000
 Structure written by MMmdl.
 32 33  0  0  0  0  0  0  0  0  1 V2000
  151.6042  145.3108  159.2666 C   0  0  0  0  0  0  0  0  0  0  0  0
  152.2723  143.9318  159.2651 C   0  0  2  0  0  0  0  0  0  0  0  0
  151.6933  143.0088  158.1751 C   0  0  0  0  0  0  0  0  0  0  0  0
  152.2874  141.6815  158.2736 N   0  0  0  0  0  0  0  0  0  0  0  0
  151.8955  140.8236  157.2362 C   0  0  0  0  0  0  0  0  0  0  0  0
  150.7076  141.1044  156.5286 C   0  0  0  0  0  0  0  0  0  0  0  0
  150.3131  140.2332  155.4949 C   0  0  0  0  0  0  0  0  0  0  0  0
  151.1185  139.1136  155.2046 C   0  0  0  0  0  0  0  0  0  0  0  0
  150.7324  138.1410  154.1099 C   0  0  0  0  0  0  0  0  0  0  0  0
  149.4983  138.5165  153.4499 N   0  0  0  0  0  0  0  0  0  0  0  0
  152.2876  138.9176  155.9685 C   0  0  0  0  0  0  0  0  0  0  0  0
  152.6731  139.7489  156.9602 N   0  0  0  0  0  0  0  0  0  0  0  0
  152.1384  141.1030  159.6029 C   0  0  0  0  0  0  0  0  0  0  0  0
  152.7067  142.0655  160.6589 C   0  0  0  0  0  0  0  0  0  0  0  0
  152.0655  143.3328  160.5428 O   0  0  0  0  0  0  0  0  0  0  0  0
  151.7437  145.8162  158.3106 H   0  0  0  0  0  0  0  0  0  0  0  0
  152.0271  145.9471  160.0444 H   0  0  0  0  0  0  0  0  0  0  0  0
  150.5321  145.2295  159.4491 H   0  0  0  0  0  0  0  0  0  0  0  0
  153.3435  144.0644  159.1027 H   0  0  0  0  0  0  0  0  0  0  0  0
  150.6104  142.9348  158.2856 H   0  0  0  0  0  0  0  0  0  0  0  0
  151.8890  143.4267  157.1867 H   0  0  0  0  0  0  0  0  0  0  0  0
  150.1078  141.9690  156.7731 H   0  0  0  0  0  0  0  0  0  0  0  0
  149.4072  140.4213  154.9378 H   0  0  0  0  0  0  0  0  0  0  0  0
  151.5309  138.0885  153.3692 H   0  0  0  0  0  0  0  0  0  0  0  0
  150.6220  137.1405  154.5298 H   0  0  0  0  0  0  0  0  0  0  0  0
  149.6787  139.2770  152.8100 H   0  0  0  0  0  0  0  0  0  0  0  0
  149.1740  137.7467  152.8820 H   0  0  0  0  0  0  0  0  0  0  0  0
  152.9308  138.0702  155.7818 H   0  0  0  0  0  0  0  0  0  0  0  0
  151.0843  140.9107  159.8085 H   0  0  0  0  0  0  0  0  0  0  0  0
  152.6582  140.1451  159.6498 H   0  0  0  0  0  0  0  0  0  0  0  0
  152.5345  141.6705  161.6600 H   0  0  0  0  0  0  0  0  0  0  0  0
  153.7856  142.1793  160.5417 H   0  0  0  0  0  0  0  0  0  0  0  0
  1  2  1  0  0  0  0
  1 16  1  0  0  0  0
  1 17  1  0  0  0  0
  1 18  1  0  0  0  0
  2 15  1  0  0  0  0
  2  3  1  0  0  0  0
  2 19  1  0  0  0  0
  3  4  1  0  0  0  0
  3 20  1  0  0  0  0
  3 21  1  0  0  0  0
  4  5  1  0  0  0  0
  4 13  1  0  0  0  0
  5 12  1  0  0  0  0
  5  6  2  0  0  0  0
  6  7  1  0  0  0  0
  6 22  1  0  0  0  0
  7  8  2  0  0  0  0
  7 23  1  0  0  0  0
  8  9  1  0  0  0  0
  8 11  1  0  0  0  0
  9 10  1  0  0  0  0
  9 24  1  0  0  0  0
  9 25  1  0  0  0  0
 10 26  1  0  0  0  0
 10 27  1  0  0  0  0
 11 12  2  0  0  0  0
 11 28  1  0  0  0  0
 13 14  1  0  0  0  0
 13 29  1  0  0  0  0
 13 30  1  0  0  0  0
 14 15  1  0  0  0  0
 14 31  1  0  0  0  0
 14 32  1  0  0  0  0
M  END
> <s_m_source_file>
AV-unprocessed.smi

> <i_m_source_file_index>
2006

> <i_lp_mmshare_version>
43012

> <i_f3d_flags>
0

> <s_epik_input>
W0NIM11bQ0BASF0xW0NIMl1OKFtDSDJdW0NIMl1PMSljMltjSF1bY0hdYyhbY0hdbjIpW0NIMl1bTkgyXQ==

> <s_epik_cmdline>
J2VwaWtfcHl0aG9uJywgJy1waCcsICc3LjAnLCAnLXRuJywgJzgnLCAnLW1hJywgJzIwMCcsICctbWV0YWxfYmluZGluZycsICctaW1hZScsICc8aW5maWxlLm1hZT4nLCAnLW9tYWUnLCAnPG91dGZpbGUubWFlPic=

> <r_lp_tautomer_probability>
1

> <r_epik_Ionization_Penalty>
1.39389

> <r_epik_Ionization_Penalty_Charging>
0

> <r_epik_Ionization_Penalty_Neutral>
1.39389

> <r_epik_State_Penalty>
1.46818

> <r_epik_Charging_Adjusted_Penalty>
1.46818

> <i_epik_Tot_Q>
0

> <i_epik_Tot_abs_Q>
0

> <r_epik_Metal_State_Penalty>
1.46201

> <b_epik_Metal_Only>
0

> <s_lp_Force_Field>
OPLS_2005

> <r_lp_Energy>
16.9161

> <b_lp_Chiralities_Consistent>
1

> <s_lp_Variant>
AV-unprocessed.smi:2006-3

> <Gold.Version>
5.8.1

> <Gold.Id.Protein>
6NUR|6NUR_protein|mol2

> <Gold.PLP.Fitness>
41.8694

> <Gold.PLP.PLP>
-35.2746

> <Gold.PLP.part.hbond>
-3.0000

> <Gold.PLP.part.metal>
0.0000

> <Gold.PLP.part.buried>
-4.9331

> <Gold.PLP.part.nonpolar>
-28.1485

> <Gold.PLP.part.repulsive>
0.0584

> <Gold.PLP.ligand.clash>
1.6718

> <Gold.PLP.ligand.torsion>
0.4165

> <Gold.PLP.Chemscore.Hbond>
3.0000

> <Gold.PLP.Chemscore.CHOScore>
0.0000

> <Gold.PLP.Chemscore.Metal>
0.0000

> <Gold.Chemscore.Hbonds>
donor molecule, donor type, donor heavy atom, donor atom, acceptor molecule, acceptor atom, score
      L1  H    10    26       P1  7957  1.00
      L1  H    10    27       P1  7948  1.00
      P1  H  7997  8009       L1    12  1.00

> <Gold.PLP.Chemscore.Internal.Correction>
0.0997

> <Gold.Rescore>
     Score         DG    S(hbond)    S(metal)    S(lipo)     H(rot)  DE(clash)    DE(int)     intcor
     21.76     -22.05       2.80        0.00      89.77       1.28       0.01       0.28       ----

> <Gold.Chemscore.Fitness>
21.7642

> <Gold.Chemscore.DG>
-22.0522

> <Gold.Chemscore.ZeroCoef>
-5.4800

> <Gold.Chemscore.Hbond>
2.7951

> <Gold.Chemscore.Metal>
0.0000

> <Gold.Chemscore.Lipo>
89.7742

> <Gold.Chemscore.Internal_Hbond>
0.0000

> <Gold.Chemscore.DEClash>
0.0060

> <Gold.Chemscore.DEInternal>
0.2821

> <Gold.Chemscore.Rot>
1.2762

> <Gold.Chemscore.Internal.Correction>
   9.000000E+99

> <Gold.Chemscore.Hbonds>
donor molecule, donor type, donor heavy atom, donor atom, acceptor molecule, acceptor atom, score
      L1  H    10    26       P1  7957  0.95
      L1  H    10    27       P1  7948  0.98
      P1  H  7997  8009       L1    12  0.60

> <Gold.Chemscore.Hbond.Weighted>
-9.3357

> <Gold.Chemscore.Metal.Weighted>
-0.0000

> <Gold.Chemscore.Lipo.Weighted>
-10.5036

> <Gold.Chemscore.Internal_Hbond.Weighted>
0.0000

> <Gold.Chemscore.DEClash.Weighted>
0.0060

> <Gold.Chemscore.DEInternal.Weighted>
0.2821

> <Gold.Chemscore.Rot.Weighted>
3.2671

> <Gold.Chemscore.Internal.Correction.Weighted>
   9.000000E+99

> <Gold.Protein.RotatedTorsions>
[ 6907 6896 6895 6894 ] final -121.31 input  -60.11 | X-H torsion
[ 7974 7965 7964 7962 ] final  -74.05 input  175.53 | X-H torsion
[ 8008 7997 7996 7995 ] final  170.66 input   59.86 | X-H torsion
[ 10167 10162 10161 10158 ] final  -85.99 input  -65.29 | X-H torsion
[ 10718 10713 10712 10709 ] final  150.76 input   66.30 | X-H torsion
[ 10763 10752 10751 10750 ] final  146.37 input  -60.55 | X-H torsion
[ 11005 11000 10999 10996 ] final  115.97 input  -57.11 | X-H torsion

> <Gold.Protein.ActiveResidues>
 VAL166  LYS551  ARG553  GLY616  TRP617  ASP618  TYR619  PRO620  LYS621  CYS622 
 ASP623  PHE694  ASN695  SER759  ASP760  ASP761  ALA762  ILE779  LEU786  VAL792 
 PHE793  MET794  SER795  GLU796  ALA797  LYS798  CYS799  TRP800  GLU811  SER814 

> <Gold.Protein.RotatedAtoms>
  150.8471  133.7844  159.3038 H   0  0  0  0  0  0  0  0  0  0  0  0  # atno 6907 bound_to 6896
  151.5527  135.1065  159.9963 H   0  0  0  0  0  0  0  0  0  0  0  0  # atno 6908 bound_to 6896
  152.4523  133.7610  159.6803 H   0  0  0  0  0  0  0  0  0  0  0  0  # atno 6909 bound_to 6896
  145.6442  140.9302  143.1019 H   0  0  0  0  0  0  0  0  0  0  0  0  # atno 7974 bound_to 7965
  156.1345  140.1532  156.9016 H   0  0  0  0  0  0  0  0  0  0  0  0  # atno 8008 bound_to 7997
  154.4936  140.0844  156.7687 H   0  0  0  0  0  0  0  0  0  0  0  0  # atno 8009 bound_to 7997
  155.4195  140.3422  155.4272 H   0  0  0  0  0  0  0  0  0  0  0  0  # atno 8010 bound_to 7997
  140.3985  143.2673  151.9173 H   0  0  0  0  0  0  0  0  0  0  0  0  # atno 10167 bound_to 10162
  157.2793  131.0832  151.1543 H   0  0  0  0  0  0  0  0  0  0  0  0  # atno 10718 bound_to 10713
  154.0207  135.2906  155.3381 H   0  0  0  0  0  0  0  0  0  0  0  0  # atno 10763 bound_to 10752
  154.7048  135.5174  153.8582 H   0  0  0  0  0  0  0  0  0  0  0  0  # atno 10764 bound_to 10752
  153.0682  135.6638  154.0429 H   0  0  0  0  0  0  0  0  0  0  0  0  # atno 10765 bound_to 10752
  139.9026  134.9591  156.7126 H   0  0  0  0  0  0  0  0  0  0  0  0  # atno 11005 bound_to 11000
  144.7146  139.8243  143.7403 LP  0  0  0  0  0  0  0  0  0  0  0  0  # atno 17320 bound_to 7965
  146.1256  139.4282  143.0201 LP  0  0  0  0  0  0  0  0  0  0  0  0  # atno 17321 bound_to 7965
  139.4785  144.5657  151.8168 LP  0  0  0  0  0  0  0  0  0  0  0  0  # atno 17342 bound_to 10162
  140.4765  144.1511  150.5926 LP  0  0  0  0  0  0  0  0  0  0  0  0  # atno 17343 bound_to 10162
  157.2983  130.6830  149.6150 LP  0  0  0  0  0  0  0  0  0  0  0  0  # atno 17370 bound_to 10713
  155.9664  130.4399  150.5280 LP  0  0  0  0  0  0  0  0  0  0  0  0  # atno 17371 bound_to 10713
  140.7063  133.9262  155.8056 LP  0  0  0  0  0  0  0  0  0  0  0  0  # atno 17394 bound_to 11000
  141.0334  134.0724  157.3988 LP  0  0  0  0  0  0  0  0  0  0  0  0  # atno 17395 bound_to 11000

$$$$
