AV-unprocessed.smi:79|AV-procd|sdf|780|dock10
  -GOLD-   2262017143D 1   1.00000     0.00000
 Structure written by MMmdl.
 56 59  0  0  0  0  0  0  0  0  2 V2000
  145.1794  132.4976  149.5061 C   0  0  0  0  0  0  0  0  0  0  0  0
  144.5518  133.6172  150.3496 C   0  0  1  0  0  0  0  0  0  0  0  0
  143.8247  134.4646  149.4856 O   0  0  0  0  0  0  0  0  0  0  0  0
  143.5924  133.0907  151.4358 C   0  0  0  0  0  0  0  0  0  0  0  0
  143.7776  133.7649  152.7463 N   0  3  1  0  0  0  0  0  0  0  0  0
  145.1969  133.8104  153.1927 C   0  0  0  0  0  0  0  0  0  0  0  0
  145.3278  134.4703  154.5786 C   0  0  0  0  0  0  0  0  0  0  0  0
  144.7077  135.7909  154.5860 N   0  0  0  0  0  0  0  0  0  0  0  0
  145.5520  136.7704  154.1720 C   0  0  0  0  0  0  0  0  0  0  0  0
  145.3635  137.3919  152.9783 N   0  0  0  0  0  0  0  0  0  0  0  0
  146.2145  138.3378  152.5698 C   0  0  0  0  0  0  0  0  0  0  0  0
  147.3032  138.8022  153.1858 N   0  0  0  0  0  0  0  0  0  0  0  0
  147.5015  138.1755  154.3809 C   0  0  0  0  0  0  0  0  0  0  0  0
  146.6843  137.1540  154.9401 C   0  0  0  0  0  0  0  0  0  0  0  0
  147.2000  136.7479  156.1638 N   0  0  0  0  0  0  0  0  0  0  0  0
  148.2601  137.4929  156.3233 C   0  0  0  0  0  0  0  0  0  0  0  0
  148.5094  138.3876  155.3062 N   0  0  0  0  0  0  0  0  0  0  0  0
  149.6109  139.3344  155.2237 C   0  0  0  0  0  0  0  0  0  0  0  0
  151.0147  138.7161  155.4043 C   0  0  0  0  0  0  0  0  0  0  0  0
  151.0803  137.3203  154.7567 C   0  0  0  0  0  0  0  0  0  0  0  0
  152.0039  136.4715  155.4092 O   0  0  0  0  0  0  0  0  0  0  0  0
  152.2114  139.6442  155.1423 C   0  0  0  0  0  0  0  0  0  0  0  0
  152.4281  139.8657  156.5514 O   0  0  0  0  0  0  0  0  0  0  0  0
  151.5251  138.7813  156.8519 C   0  0  0  0  0  0  0  0  0  0  0  0
  143.3019  135.7734  154.1647 C   0  0  1  0  0  0  0  0  0  0  0  0
  142.5957  137.1382  154.2770 C   0  0  0  0  0  0  0  0  0  0  0  0
  143.1310  135.1034  152.7832 C   0  0  0  0  0  0  0  0  0  0  0  0
  145.7881  131.8336  150.1198 H   0  0  0  0  0  0  0  0  0  0  0  0
  145.8270  132.9076  148.7302 H   0  0  0  0  0  0  0  0  0  0  0  0
  144.4162  131.8920  149.0160 H   0  0  0  0  0  0  0  0  0  0  0  0
  145.3407  134.2231  150.7940 H   0  0  0  0  0  0  0  0  0  0  0  0
  142.9017  134.3628  149.6624 H   0  0  0  0  0  0  0  0  0  0  0  0
  142.5536  133.2044  151.1205 H   0  0  0  0  0  0  0  0  0  0  0  0
  143.7587  132.0184  151.5504 H   0  0  0  0  0  0  0  0  0  0  0  0
  145.6141  132.8058  153.2411 H   0  0  0  0  0  0  0  0  0  0  0  0
  145.7892  134.3614  152.4603 H   0  0  0  0  0  0  0  0  0  0  0  0
  144.8361  133.8536  155.3316 H   0  0  0  0  0  0  0  0  0  0  0  0
  146.3778  134.5266  154.8696 H   0  0  0  0  0  0  0  0  0  0  0  0
  145.9913  138.7865  151.6129 H   0  0  0  0  0  0  0  0  0  0  0  0
  148.8923  137.4068  157.1945 H   0  0  0  0  0  0  0  0  0  0  0  0
  149.5401  139.8334  154.2564 H   0  0  0  0  0  0  0  0  0  0  0  0
  149.4455  140.1161  155.9660 H   0  0  0  0  0  0  0  0  0  0  0  0
  150.1091  136.8264  154.7992 H   0  0  0  0  0  0  0  0  0  0  0  0
  151.3424  137.3871  153.7005 H   0  0  0  0  0  0  0  0  0  0  0  0
  152.1541  136.8055  156.2804 H   0  0  0  0  0  0  0  0  0  0  0  0
  153.0647  139.1481  154.6773 H   0  0  0  0  0  0  0  0  0  0  0  0
  151.9632  140.5627  154.6120 H   0  0  0  0  0  0  0  0  0  0  0  0
  150.7637  139.0629  157.5802 H   0  0  0  0  0  0  0  0  0  0  0  0
  152.0617  137.8904  157.1819 H   0  0  0  0  0  0  0  0  0  0  0  0
  142.8024  135.1268  154.8875 H   0  0  0  0  0  0  0  0  0  0  0  0
  141.5236  137.0300  154.1111 H   0  0  0  0  0  0  0  0  0  0  0  0
  142.9602  137.8608  153.5478 H   0  0  0  0  0  0  0  0  0  0  0  0
  142.7303  137.5677  155.2703 H   0  0  0  0  0  0  0  0  0  0  0  0
  143.5444  135.7272  151.9902 H   0  0  0  0  0  0  0  0  0  0  0  0
  142.0675  134.9935  152.5674 H   0  0  0  0  0  0  0  0  0  0  0  0
  143.2817  133.2058  153.4255 H   0  0  0  0  0  0  0  0  0  0  0  0
  1  2  1  0  0  0  0
  1 28  1  0  0  0  0
  1 29  1  0  0  0  0
  1 30  1  0  0  0  0
  2  3  1  0  0  0  0
  2  4  1  0  0  0  0
  2 31  1  0  0  0  0
  3 32  1  0  0  0  0
  4  5  1  0  0  0  0
  4 33  1  0  0  0  0
  4 34  1  0  0  0  0
  5 27  1  0  0  0  0
  5  6  1  0  0  0  0
  5 56  1  0  0  0  0
  6  7  1  0  0  0  0
  6 35  1  0  0  0  0
  6 36  1  0  0  0  0
  7  8  1  0  0  0  0
  7 37  1  0  0  0  0
  7 38  1  0  0  0  0
  8  9  1  0  0  0  0
  8 25  1  0  0  0  0
  9 14  1  0  0  0  0
  9 10  2  0  0  0  0
 10 11  1  0  0  0  0
 11 12  2  0  0  0  0
 11 39  1  0  0  0  0
 12 13  1  0  0  0  0
 13 17  1  0  0  0  0
 13 14  2  0  0  0  0
 14 15  1  0  0  0  0
 15 16  2  0  0  0  0
 16 17  1  0  0  0  0
 16 40  1  0  0  0  0
 17 18  1  0  0  0  0
 18 19  1  0  0  0  0
 18 41  1  0  0  0  0
 18 42  1  0  0  0  0
 19 24  1  0  0  0  0
 19 20  1  0  0  0  0
 19 22  1  0  0  0  0
 20 21  1  0  0  0  0
 20 43  1  0  0  0  0
 20 44  1  0  0  0  0
 21 45  1  0  0  0  0
 22 23  1  0  0  0  0
 22 46  1  0  0  0  0
 22 47  1  0  0  0  0
 23 24  1  0  0  0  0
 24 48  1  0  0  0  0
 24 49  1  0  0  0  0
 25 26  1  0  0  0  0
 25 27  1  0  0  0  0
 25 50  1  0  0  0  0
 26 51  1  0  0  0  0
 26 52  1  0  0  0  0
 26 53  1  0  0  0  0
 27 54  1  0  0  0  0
 27 55  1  0  0  0  0
M  CHG  1   5   1
M  END
> <s_m_source_file>
AV-unprocessed.smi

> <i_m_source_file_index>
79

> <i_lp_mmshare_version>
43012

> <i_f3d_flags>
0

> <s_epik_input>
W0NIM11bQ0BIXShbT0hdKVtDSDJdTjFbQ0gyXVtDSDJdTihbQ0BASF0oW0NIM10pW0NIMl0xKWMobltjSF1uMiljKGMyMyluW2NIXW4zW0NIMl1DNChbQ0gyXVtPSF0pW0NIMl1PW0NIMl00

> <s_epik_cmdline>
J2VwaWtfcHl0aG9uJywgJy1waCcsICc3LjAnLCAnLXRuJywgJzgnLCAnLW1hJywgJzIwMCcsICctbWV0YWxfYmluZGluZycsICctaW1hZScsICc8aW5maWxlLm1hZT4nLCAnLW9tYWUnLCAnPG91dGZpbGUubWFlPic=

> <r_lp_tautomer_probability>
1

> <r_epik_Ionization_Penalty>
0.00515943

> <r_epik_Ionization_Penalty_Charging>
0.00509693

> <r_epik_Ionization_Penalty_Neutral>
6.25007e-05

> <r_epik_State_Penalty>
-0

> <r_epik_Charging_Adjusted_Penalty>
0.00509693

> <i_epik_Tot_Q>
1

> <i_epik_Tot_abs_Q>
1

> <r_epik_Metal_State_Penalty>
-0

> <b_epik_Metal_Only>
0

> <s_lp_Force_Field>
OPLS_2005

> <r_lp_Energy>
48.5729

> <b_lp_Chiralities_Consistent>
1

> <s_lp_Variant>
AV-unprocessed.smi:79-4

> <Gold.Version>
5.8.1

> <Gold.Id.Protein>
6NUR|6NUR_protein|mol2

> <Gold.PLP.Fitness>
48.1125

> <Gold.PLP.PLP>
-33.4951

> <Gold.PLP.part.hbond>
-4.9085

> <Gold.PLP.part.metal>
0.0000

> <Gold.PLP.part.buried>
-4.5180

> <Gold.PLP.part.nonpolar>
-27.0294

> <Gold.PLP.part.repulsive>
0.8016

> <Gold.PLP.ligand.clash>
0.0000

> <Gold.PLP.ligand.torsion>
2.0875

> <Gold.PLP.Chemscore.Hbond>
5.0000

> <Gold.PLP.Chemscore.CHOScore>
1.0000

> <Gold.PLP.Chemscore.Metal>
0.0000

> <Gold.Chemscore.Hbonds>
donor molecule, donor type, donor heavy atom, donor atom, acceptor molecule, acceptor atom, score
      L1  H     3    32       P1 10186  1.00
      L1  H     5    56       P1 10957  1.82
      P1  H  7997  8009       L1    23  0.60
      P1  H 10752 10765       L1    21  0.89
      L1  C    11    39       P1 10171  0.39

> <Gold.PLP.Chemscore.Internal.Correction>
0.7925

> <Gold.Rescore>
     Score         DG    S(hbond)    S(metal)    S(lipo)     H(rot)  DE(clash)    DE(int)     intcor
     12.82     -17.20       3.61        0.00      78.39       3.72       2.01       2.36       ----

> <Gold.Chemscore.Fitness>
12.8242

> <Gold.Chemscore.DG>
-17.1952

> <Gold.Chemscore.ZeroCoef>
-5.4800

> <Gold.Chemscore.Hbond>
3.6147

> <Gold.Chemscore.Metal>
0.0000

> <Gold.Chemscore.Lipo>
78.3914

> <Gold.Chemscore.Internal_Hbond>
0.0000

> <Gold.Chemscore.DEClash>
2.0079

> <Gold.Chemscore.DEInternal>
2.3632

> <Gold.Chemscore.Rot>
3.7226

> <Gold.Chemscore.Internal.Correction>
   9.000000E+99

> <Gold.Chemscore.Hbonds>
donor molecule, donor type, donor heavy atom, donor atom, acceptor molecule, acceptor atom, score
      L1  H     3    32       P1 10186  0.99
      L1  H     5    56       P1 10957  0.82
      P1  H  7997  8009       L1    23  0.04
      P1  H 10752 10765       L1    21  0.80

> <Gold.Chemscore.Hbond.Weighted>
-12.0732

> <Gold.Chemscore.Metal.Weighted>
-0.0000

> <Gold.Chemscore.Lipo.Weighted>
-9.1718

> <Gold.Chemscore.Internal_Hbond.Weighted>
0.0000

> <Gold.Chemscore.DEClash.Weighted>
2.0079

> <Gold.Chemscore.DEInternal.Weighted>
2.3632

> <Gold.Chemscore.Rot.Weighted>
9.5298

> <Gold.Chemscore.Internal.Correction.Weighted>
   9.000000E+99

> <Gold.Protein.RotatedTorsions>
[ 6907 6896 6895 6894 ] final  -82.80 input  -60.11 | X-H torsion
[ 7974 7965 7964 7962 ] final  -59.11 input  175.53 | X-H torsion
[ 8008 7997 7996 7995 ] final -158.84 input   59.86 | X-H torsion
[ 10167 10162 10161 10158 ] final  -95.46 input  -65.29 | X-H torsion
[ 10718 10713 10712 10709 ] final  -68.64 input   66.30 | X-H torsion
[ 10763 10752 10751 10750 ] final -162.95 input  -60.55 | X-H torsion
[ 11005 11000 10999 10996 ] final   16.76 input  -57.11 | X-H torsion

> <Gold.Protein.ActiveResidues>
 VAL166  LYS551  ARG553  GLY616  TRP617  ASP618  TYR619  PRO620  LYS621  CYS622 
 ASP623  PHE694  ASN695  SER759  ASP760  ASP761  ALA762  ILE779  LEU786  VAL792 
 PHE793  MET794  SER795  GLU796  ALA797  LYS798  CYS799  TRP800  GLU811  SER814 

> <Gold.Protein.RotatedAtoms>
  150.6893  134.3609  159.4949 H   0  0  0  0  0  0  0  0  0  0  0  0  # atno 6907 bound_to 6896
  152.1438  134.9039  160.0561 H   0  0  0  0  0  0  0  0  0  0  0  0  # atno 6908 bound_to 6896
  152.0162  133.3846  159.4277 H   0  0  0  0  0  0  0  0  0  0  0  0  # atno 6909 bound_to 6896
  145.8314  140.8477  143.0082 H   0  0  0  0  0  0  0  0  0  0  0  0  # atno 7974 bound_to 7965
  155.7536  140.0830  157.2189 H   0  0  0  0  0  0  0  0  0  0  0  0  # atno 8008 bound_to 7997
  154.4010  140.1556  156.2808 H   0  0  0  0  0  0  0  0  0  0  0  0  # atno 8009 bound_to 7997
  155.8907  140.3415  155.5956 H   0  0  0  0  0  0  0  0  0  0  0  0  # atno 8010 bound_to 7997
  140.3039  143.3145  152.0219 H   0  0  0  0  0  0  0  0  0  0  0  0  # atno 10167 bound_to 10162
  156.0495  130.4298  150.2030 H   0  0  0  0  0  0  0  0  0  0  0  0  # atno 10718 bound_to 10713
  154.7167  135.3017  154.9112 H   0  0  0  0  0  0  0  0  0  0  0  0  # atno 10763 bound_to 10752
  153.9996  135.6708  153.4762 H   0  0  0  0  0  0  0  0  0  0  0  0  # atno 10764 bound_to 10752
  153.0800  135.5014  154.8398 H   0  0  0  0  0  0  0  0  0  0  0  0  # atno 10765 bound_to 10752
  140.4435  134.1297  155.7693 H   0  0  0  0  0  0  0  0  0  0  0  0  # atno 11005 bound_to 11000
  144.6739  140.0677  143.7474 LP  0  0  0  0  0  0  0  0  0  0  0  0  # atno 17320 bound_to 7965
  145.9567  139.2771  143.1180 LP  0  0  0  0  0  0  0  0  0  0  0  0  # atno 17321 bound_to 7965
  139.4908  144.6435  151.6827 LP  0  0  0  0  0  0  0  0  0  0  0  0  # atno 17342 bound_to 10162
  140.5627  144.0242  150.6177 LP  0  0  0  0  0  0  0  0  0  0  0  0  # atno 17343 bound_to 10162
  157.0115  130.9952  151.3364 LP  0  0  0  0  0  0  0  0  0  0  0  0  # atno 17370 bound_to 10713
  157.5407  130.8118  149.8025 LP  0  0  0  0  0  0  0  0  0  0  0  0  # atno 17371 bound_to 10713
  141.1695  133.8637  157.1614 LP  0  0  0  0  0  0  0  0  0  0  0  0  # atno 17394 bound_to 11000
  140.0054  135.0011  157.0280 LP  0  0  0  0  0  0  0  0  0  0  0  0  # atno 17395 bound_to 11000

$$$$
