AV-unprocessed.smi:1005|AV-procd|sdf|4365|dock3
  -GOLD-   22720 2263D 1   1.00000     0.00000
 Structure written by MMmdl.
 56 58  0  0  0  0  0  0  0  0  2 V2000
  152.1964  144.7841  160.1082 C   0  0  0  0  0  0  0  0  0  0  0  0
  152.1044  143.4024  159.4848 C   0  0  0  0  0  0  0  0  0  0  0  0
  151.6127  143.2748  158.1662 C   0  0  0  0  0  0  0  0  0  0  0  0
  151.5105  142.0080  157.5508 C   0  0  0  0  0  0  0  0  0  0  0  0
  151.0640  141.6558  156.2884 N   0  0  0  0  0  0  0  0  0  0  0  0
  151.2114  140.3344  156.3116 C   0  0  0  0  0  0  0  0  0  0  0  0
  151.7006  139.7877  157.4409 N   0  0  0  0  0  0  0  0  0  0  0  0
  151.9436  138.3782  157.6930 C   0  0  0  0  0  0  0  0  0  0  0  0
  151.8610  138.0225  159.1898 C   0  0  1  0  0  0  0  0  0  0  0  0
  150.8332  137.0706  159.3884 O   0  0  0  0  0  0  0  0  0  0  0  0
  153.1900  137.4296  159.7014 C   0  0  0  0  0  0  0  0  0  0  0  0
  153.5880  137.8313  161.0524 N   0  0  0  0  0  0  0  0  0  0  0  0
  154.8626  138.5457  161.0773 C   0  0  0  0  0  0  0  0  0  0  0  0
  155.2823  138.9178  162.5087 C   0  0  0  0  0  0  0  0  0  0  0  0
  155.3247  137.7432  163.3111 O   0  0  0  0  0  0  0  0  0  0  0  0
  154.0738  137.0628  163.3739 C   0  0  2  0  0  0  0  0  0  0  0  0
  154.2183  135.8259  164.2818 C   0  0  0  0  0  0  0  0  0  0  0  0
  154.5112  134.5756  163.5331 N   0  3  0  0  0  0  0  0  0  0  0  0
  154.4357  133.3514  164.3636 C   0  0  0  0  0  0  0  0  0  0  0  0
  155.7987  134.6569  162.8075 C   0  0  0  0  0  0  0  0  0  0  0  0
  153.6794  136.6725  161.9342 C   0  0  0  0  0  0  0  0  0  0  0  0
  151.9161  140.8627  158.2967 C   0  0  0  0  0  0  0  0  0  0  0  0
  152.4087  140.9772  159.6088 C   0  0  0  0  0  0  0  0  0  0  0  0
  152.5047  142.2504  160.2084 C   0  0  0  0  0  0  0  0  0  0  0  0
  153.0381  142.3635  161.6255 C   0  0  0  0  0  0  0  0  0  0  0  0
  151.8445  145.5553  159.4224 H   0  0  0  0  0  0  0  0  0  0  0  0
  153.2287  145.0163  160.3711 H   0  0  0  0  0  0  0  0  0  0  0  0
  151.5881  144.8371  161.0115 H   0  0  0  0  0  0  0  0  0  0  0  0
  151.3092  144.1520  157.6138 H   0  0  0  0  0  0  0  0  0  0  0  0
  150.9493  139.7269  155.4576 H   0  0  0  0  0  0  0  0  0  0  0  0
  151.2276  137.7905  157.1173 H   0  0  0  0  0  0  0  0  0  0  0  0
  152.9319  138.1307  157.3032 H   0  0  0  0  0  0  0  0  0  0  0  0
  151.6021  138.9262  159.7399 H   0  0  0  0  0  0  0  0  0  0  0  0
  150.0779  137.3325  158.8850 H   0  0  0  0  0  0  0  0  0  0  0  0
  153.1111  136.3422  159.6580 H   0  0  0  0  0  0  0  0  0  0  0  0
  153.9883  137.6929  159.0056 H   0  0  0  0  0  0  0  0  0  0  0  0
  155.6405  137.9310  160.6220 H   0  0  0  0  0  0  0  0  0  0  0  0
  154.8011  139.4598  160.4888 H   0  0  0  0  0  0  0  0  0  0  0  0
  156.2677  139.3837  162.5063 H   0  0  0  0  0  0  0  0  0  0  0  0
  154.5872  139.6388  162.9418 H   0  0  0  0  0  0  0  0  0  0  0  0
  153.3113  137.7276  163.7848 H   0  0  0  0  0  0  0  0  0  0  0  0
  155.0568  136.0057  164.9564 H   0  0  0  0  0  0  0  0  0  0  0  0
  153.3394  135.6995  164.9158 H   0  0  0  0  0  0  0  0  0  0  0  0
  155.1105  133.4143  165.2182 H   0  0  0  0  0  0  0  0  0  0  0  0
  154.7093  132.4717  163.7800 H   0  0  0  0  0  0  0  0  0  0  0  0
  153.4245  133.1834  164.7317 H   0  0  0  0  0  0  0  0  0  0  0  0
  156.6323  134.7681  163.5024 H   0  0  0  0  0  0  0  0  0  0  0  0
  155.8071  135.5063  162.1235 H   0  0  0  0  0  0  0  0  0  0  0  0
  155.9657  133.7576  162.2137 H   0  0  0  0  0  0  0  0  0  0  0  0
  152.7199  136.1541  161.9536 H   0  0  0  0  0  0  0  0  0  0  0  0
  154.4077  135.9630  161.5374 H   0  0  0  0  0  0  0  0  0  0  0  0
  152.7111  140.0921  160.1485 H   0  0  0  0  0  0  0  0  0  0  0  0
  153.3128  141.3872  162.0260 H   0  0  0  0  0  0  0  0  0  0  0  0
  152.2837  142.7949  162.2838 H   0  0  0  0  0  0  0  0  0  0  0  0
  153.9250  142.9971  161.6516 H   0  0  0  0  0  0  0  0  0  0  0  0
  153.7978  134.4885  162.8232 H   0  0  0  0  0  0  0  0  0  0  0  0
  1  2  1  0  0  0  0
  1 26  1  0  0  0  0
  1 27  1  0  0  0  0
  1 28  1  0  0  0  0
  2 24  1  0  0  0  0
  2  3  2  0  0  0  0
  3  4  1  0  0  0  0
  3 29  1  0  0  0  0
  4 22  2  0  0  0  0
  4  5  1  0  0  0  0
  5  6  2  0  0  0  0
  6  7  1  0  0  0  0
  6 30  1  0  0  0  0
  7  8  1  0  0  0  0
  7 22  1  0  0  0  0
  8  9  1  0  0  0  0
  8 31  1  0  0  0  0
  8 32  1  0  0  0  0
  9 10  1  0  0  0  0
  9 11  1  0  0  0  0
  9 33  1  0  0  0  0
 10 34  1  0  0  0  0
 11 12  1  0  0  0  0
 11 35  1  0  0  0  0
 11 36  1  0  0  0  0
 12 21  1  0  0  0  0
 12 13  1  0  0  0  0
 13 14  1  0  0  0  0
 13 37  1  0  0  0  0
 13 38  1  0  0  0  0
 14 15  1  0  0  0  0
 14 39  1  0  0  0  0
 14 40  1  0  0  0  0
 15 16  1  0  0  0  0
 16 17  1  0  0  0  0
 16 21  1  0  0  0  0
 16 41  1  0  0  0  0
 17 18  1  0  0  0  0
 17 42  1  0  0  0  0
 17 43  1  0  0  0  0
 18 19  1  0  0  0  0
 18 20  1  0  0  0  0
 18 56  1  0  0  0  0
 19 44  1  0  0  0  0
 19 45  1  0  0  0  0
 19 46  1  0  0  0  0
 20 47  1  0  0  0  0
 20 48  1  0  0  0  0
 20 49  1  0  0  0  0
 21 50  1  0  0  0  0
 21 51  1  0  0  0  0
 22 23  1  0  0  0  0
 23 24  2  0  0  0  0
 23 52  1  0  0  0  0
 24 25  1  0  0  0  0
 25 53  1  0  0  0  0
 25 54  1  0  0  0  0
 25 55  1  0  0  0  0
M  CHG  1  18   1
M  END
> <s_m_source_file>
AV-unprocessed.smi

> <i_m_source_file_index>
1005

> <i_lp_mmshare_version>
43012

> <i_f3d_flags>
0

> <s_epik_input>
W0NIM11jKFtjSF0xKWMoW0NIM10pW2NIXWMoYzEyKW4oW2NIXW4yKVtDSDJdW0NASF0oW09IXSlbQ0gyXU4zW0NIMl1bQ0gyXU9bQ0BIXShbQ0gyXTMpW0NIMl1OKFtDSDNdKVtDSDNd

> <s_epik_cmdline>
J2VwaWtfcHl0aG9uJywgJy1waCcsICc3LjAnLCAnLXRuJywgJzgnLCAnLW1hJywgJzIwMCcsICctbWV0YWxfYmluZGluZycsICctaW1hZScsICc8aW5maWxlLm1hZT4nLCAnLW9tYWUnLCAnPG91dGZpbGUubWFlPic=

> <r_epik_Ionization_Penalty>
0.226781

> <r_epik_Ionization_Penalty_Charging>
0.00915946

> <r_epik_Ionization_Penalty_Neutral>
0.217622

> <r_epik_State_Penalty>
0.173018

> <r_epik_Charging_Adjusted_Penalty>
0.182178

> <i_epik_Tot_Q>
1

> <i_epik_Tot_abs_Q>
1

> <r_epik_Metal_State_Penalty>
0.0905268

> <b_epik_Metal_Only>
0

> <s_lp_Force_Field>
OPLS_2005

> <r_lp_Energy>
38.1997

> <b_lp_Chiralities_Consistent>
1

> <s_lp_Variant>
AV-unprocessed.smi:1005-4

> <Gold.Version>
5.8.1

> <Gold.Id.Protein>
6NUR|6NUR_protein|mol2

> <Gold.PLP.Fitness>
46.6135

> <Gold.PLP.PLP>
-49.2771

> <Gold.PLP.part.hbond>
-1.0000

> <Gold.PLP.part.metal>
0.0000

> <Gold.PLP.part.buried>
-7.2737

> <Gold.PLP.part.nonpolar>
-41.4888

> <Gold.PLP.part.repulsive>
0.0711

> <Gold.PLP.ligand.clash>
0.0000

> <Gold.PLP.ligand.torsion>
2.8939

> <Gold.PLP.Chemscore.Hbond>
1.0000

> <Gold.PLP.Chemscore.CHOScore>
0.0000

> <Gold.PLP.Chemscore.Metal>
0.0000

> <Gold.Chemscore.Hbonds>
donor molecule, donor type, donor heavy atom, donor atom, acceptor molecule, acceptor atom, score
      P1  H  6896  6907       L1    10  0.96

> <Gold.PLP.Chemscore.Internal.Correction>
0.1241

> <Gold.Rescore>
     Score         DG    S(hbond)    S(metal)    S(lipo)     H(rot)  DE(clash)    DE(int)     intcor
     16.46     -19.50       0.97        0.00     145.01       2.41       0.16       2.87       ----

> <Gold.Chemscore.Fitness>
16.4634

> <Gold.Chemscore.DG>
-19.5014

> <Gold.Chemscore.ZeroCoef>
-5.4800

> <Gold.Chemscore.Hbond>
0.9684

> <Gold.Chemscore.Metal>
0.0000

> <Gold.Chemscore.Lipo>
145.0053

> <Gold.Chemscore.Internal_Hbond>
0.0000

> <Gold.Chemscore.DEClash>
0.1648

> <Gold.Chemscore.DEInternal>
2.8731

> <Gold.Chemscore.Rot>
2.4136

> <Gold.Chemscore.Internal.Correction>
   9.000000E+99

> <Gold.Chemscore.Hbonds>
donor molecule, donor type, donor heavy atom, donor atom, acceptor molecule, acceptor atom, score
      P1  H  6896  6907       L1    10  0.90

> <Gold.Chemscore.Hbond.Weighted>
-3.2346

> <Gold.Chemscore.Metal.Weighted>
-0.0000

> <Gold.Chemscore.Lipo.Weighted>
-16.9656

> <Gold.Chemscore.Internal_Hbond.Weighted>
0.0000

> <Gold.Chemscore.DEClash.Weighted>
0.1648

> <Gold.Chemscore.DEInternal.Weighted>
2.8731

> <Gold.Chemscore.Rot.Weighted>
6.1788

> <Gold.Chemscore.Internal.Correction.Weighted>
   9.000000E+99

> <Gold.Protein.RotatedTorsions>
[ 6907 6896 6895 6894 ] final  -17.07 input  -60.11 | X-H torsion
[ 7974 7965 7964 7962 ] final  -81.81 input  175.53 | X-H torsion
[ 8008 7997 7996 7995 ] final   52.79 input   59.86 | X-H torsion
[ 10167 10162 10161 10158 ] final  156.73 input  -65.29 | X-H torsion
[ 10718 10713 10712 10709 ] final   43.75 input   66.30 | X-H torsion
[ 10763 10752 10751 10750 ] final  138.38 input  -60.55 | X-H torsion
[ 11005 11000 10999 10996 ] final  -15.14 input  -57.11 | X-H torsion

> <Gold.Protein.ActiveResidues>
 VAL166  LYS551  ARG553  GLY616  TRP617  ASP618  TYR619  PRO620  LYS621  CYS622 
 ASP623  PHE694  ASN695  SER759  ASP760  ASP761  ALA762  ILE779  LEU786  VAL792 
 PHE793  MET794  SER795  GLU796  ALA797  LYS798  CYS799  TRP800  GLU811  SER814 

> <Gold.Protein.RotatedAtoms>
  151.2989  135.0763  159.9231 H   0  0  0  0  0  0  0  0  0  0  0  0  # atno 6907 bound_to 6896
  152.5301  133.9854  159.7836 H   0  0  0  0  0  0  0  0  0  0  0  0  # atno 6908 bound_to 6896
  151.0137  133.5890  159.2710 H   0  0  0  0  0  0  0  0  0  0  0  0  # atno 6909 bound_to 6896
  145.5417  140.9509  143.1547 H   0  0  0  0  0  0  0  0  0  0  0  0  # atno 7974 bound_to 7965
  155.4575  140.3460  155.4308 H   0  0  0  0  0  0  0  0  0  0  0  0  # atno 8008 bound_to 7997
  156.1181  140.1479  156.9273 H   0  0  0  0  0  0  0  0  0  0  0  0  # atno 8009 bound_to 7997
  154.4804  140.0871  156.7342 H   0  0  0  0  0  0  0  0  0  0  0  0  # atno 8010 bound_to 7997
  139.4821  144.4982  151.8207 H   0  0  0  0  0  0  0  0  0  0  0  0  # atno 10167 bound_to 10162
  157.4193  130.7960  149.7501 H   0  0  0  0  0  0  0  0  0  0  0  0  # atno 10718 bound_to 10713
  153.8887  135.3035  155.3447 H   0  0  0  0  0  0  0  0  0  0  0  0  # atno 10763 bound_to 10752
  154.7727  135.4877  153.9684 H   0  0  0  0  0  0  0  0  0  0  0  0  # atno 10764 bound_to 10752
  153.1310  135.6804  153.9277 H   0  0  0  0  0  0  0  0  0  0  0  0  # atno 10765 bound_to 10752
  140.7936  133.8268  155.9403 H   0  0  0  0  0  0  0  0  0  0  0  0  # atno 11005 bound_to 11000
  144.7573  139.7042  143.7248 LP  0  0  0  0  0  0  0  0  0  0  0  0  # atno 17320 bound_to 7965
  146.1976  139.5252  142.9764 LP  0  0  0  0  0  0  0  0  0  0  0  0  # atno 17321 bound_to 7965
  140.4473  144.1904  150.5895 LP  0  0  0  0  0  0  0  0  0  0  0  0  # atno 17342 bound_to 10162
  140.4621  143.2445  151.9205 LP  0  0  0  0  0  0  0  0  0  0  0  0  # atno 17343 bound_to 10162
  155.9875  130.3966  150.3160 LP  0  0  0  0  0  0  0  0  0  0  0  0  # atno 17370 bound_to 10713
  157.1307  131.0271  151.2970 LP  0  0  0  0  0  0  0  0  0  0  0  0  # atno 17371 bound_to 10713
  140.9365  134.1956  157.4828 LP  0  0  0  0  0  0  0  0  0  0  0  0  # atno 17394 bound_to 11000
  139.8728  134.9854  156.5281 LP  0  0  0  0  0  0  0  0  0  0  0  0  # atno 17395 bound_to 11000

$$$$
