AV-unprocessed.smi:835|AV-procd|sdf|3887|dock1
  -GOLD-   22720 1343D 1   1.00000     0.00000
 Structure written by MMmdl.
 41 43  0  0  0  0  0  0  0  0  2 V2000
  149.7792  142.2395  155.5841 C   0  0  0  0  0  0  0  0  0  0  0  0
  149.6851  140.8543  155.0159 C   0  0  0  0  0  0  0  0  0  0  0  0
  148.5305  140.1905  154.5080 C   0  0  0  0  0  0  0  0  0  0  0  0
  149.0264  138.9737  154.1272 C   0  0  0  0  0  0  0  0  0  0  0  0
  148.3710  137.9188  153.5739 N   0  0  0  0  0  0  0  0  0  0  0  0
  147.1120  137.5028  153.7965 C   0  0  0  0  0  0  0  0  0  0  0  0
  146.3097  138.0292  154.5677 O   0  0  0  0  0  0  0  0  0  0  0  0
  146.8189  136.4247  153.0558 N   0  0  0  0  0  0  0  0  0  0  0  0
  145.5260  135.7484  153.0523 C   0  0  1  0  0  0  0  0  0  0  0  0
  144.5285  136.3018  152.0324 C   0  0  0  0  0  0  0  0  0  0  0  0
  143.6330  135.1014  151.6832 C   0  0  0  0  0  0  0  0  0  0  0  0
  144.2777  133.8994  152.2637 N   0  3  1  0  0  0  0  0  0  0  0  0
  144.2006  132.6958  151.4092 C   0  0  0  0  0  0  0  0  0  0  0  0
  145.4048  132.5092  150.5178 C   0  0  0  0  0  0  0  0  0  0  0  0
  144.0996  133.0065  149.9350 C   0  0  0  0  0  0  0  0  0  0  0  0
  145.6513  134.2878  152.6310 C   0  0  0  0  0  0  0  0  0  0  0  0
  150.3750  138.9363  154.4032 N   0  0  0  0  0  0  0  0  0  0  0  0
  151.3315  137.8694  154.1816 C   0  0  0  0  0  0  0  0  0  0  0  0
  150.7789  140.1033  154.9497 N   0  0  0  0  0  0  0  0  0  0  0  0
  148.7908  142.6837  155.7042 H   0  0  0  0  0  0  0  0  0  0  0  0
  150.3588  142.8917  154.9308 H   0  0  0  0  0  0  0  0  0  0  0  0
  150.2604  142.2328  156.5624 H   0  0  0  0  0  0  0  0  0  0  0  0
  147.5191  140.5630  154.4450 H   0  0  0  0  0  0  0  0  0  0  0  0
  148.9011  137.3940  152.8940 H   0  0  0  0  0  0  0  0  0  0  0  0
  147.5351  136.0534  152.4485 H   0  0  0  0  0  0  0  0  0  0  0  0
  145.0846  135.7887  154.0504 H   0  0  0  0  0  0  0  0  0  0  0  0
  143.9618  137.1485  152.4218 H   0  0  0  0  0  0  0  0  0  0  0  0
  145.0509  136.6379  151.1352 H   0  0  0  0  0  0  0  0  0  0  0  0
  142.6359  135.2109  152.1106 H   0  0  0  0  0  0  0  0  0  0  0  0
  143.5215  135.0152  150.6012 H   0  0  0  0  0  0  0  0  0  0  0  0
  143.6863  131.8332  151.8295 H   0  0  0  0  0  0  0  0  0  0  0  0
  146.2232  133.2224  150.6004 H   0  0  0  0  0  0  0  0  0  0  0  0
  145.6997  131.4890  150.2798 H   0  0  0  0  0  0  0  0  0  0  0  0
  143.5356  132.3140  149.3136 H   0  0  0  0  0  0  0  0  0  0  0  0
  144.0514  134.0502  149.6295 H   0  0  0  0  0  0  0  0  0  0  0  0
  146.3056  134.1947  151.7618 H   0  0  0  0  0  0  0  0  0  0  0  0
  146.0472  133.6543  153.4255 H   0  0  0  0  0  0  0  0  0  0  0  0
  151.4762  137.7262  153.1107 H   0  0  0  0  0  0  0  0  0  0  0  0
  150.9571  136.9435  154.6185 H   0  0  0  0  0  0  0  0  0  0  0  0
  152.2914  138.1121  154.6395 H   0  0  0  0  0  0  0  0  0  0  0  0
  143.7928  133.7000  153.1273 H   0  0  0  0  0  0  0  0  0  0  0  0
  1  2  1  0  0  0  0
  1 20  1  0  0  0  0
  1 21  1  0  0  0  0
  1 22  1  0  0  0  0
  2 19  2  0  0  0  0
  2  3  1  0  0  0  0
  3  4  2  0  0  0  0
  3 23  1  0  0  0  0
  4  5  1  0  0  0  0
  4 17  1  0  0  0  0
  5  6  1  0  0  0  0
  5 24  1  0  0  0  0
  6  7  2  0  0  0  0
  6  8  1  0  0  0  0
  8  9  1  0  0  0  0
  8 25  1  0  0  0  0
  9 16  1  0  0  0  0
  9 10  1  0  0  0  0
  9 26  1  0  0  0  0
 10 11  1  0  0  0  0
 10 27  1  0  0  0  0
 10 28  1  0  0  0  0
 11 12  1  0  0  0  0
 11 29  1  0  0  0  0
 11 30  1  0  0  0  0
 12 13  1  0  0  0  0
 12 16  1  0  0  0  0
 12 41  1  0  0  0  0
 13 15  1  0  0  0  0
 13 14  1  0  0  0  0
 13 31  1  0  0  0  0
 14 15  1  0  0  0  0
 14 32  1  0  0  0  0
 14 33  1  0  0  0  0
 15 34  1  0  0  0  0
 15 35  1  0  0  0  0
 16 36  1  0  0  0  0
 16 37  1  0  0  0  0
 17 18  1  0  0  0  0
 17 19  1  0  0  0  0
 18 38  1  0  0  0  0
 18 39  1  0  0  0  0
 18 40  1  0  0  0  0
M  CHG  1  12   1
M  END
> <s_m_source_file>
AV-unprocessed.smi

> <i_m_source_file_index>
835

> <i_lp_mmshare_version>
43012

> <i_f3d_flags>
0

> <s_epik_input>
W0NIM11jMVtjSF1jKG4objEpW0NIM10pW05IXUMoPU8pW05IXVtDQEBIXTJbQ0gyXVtDSDJdTihbQ0gyXTIpW0NIXTNbQ0gyXVtDSDJdMw==

> <s_epik_cmdline>
J2VwaWtfcHl0aG9uJywgJy1waCcsICc3LjAnLCAnLXRuJywgJzgnLCAnLW1hJywgJzIwMCcsICctbWV0YWxfYmluZGluZycsICctaW1hZScsICc8aW5maWxlLm1hZT4nLCAnLW9tYWUnLCAnPG91dGZpbGUubWFlPic=

> <r_lp_tautomer_probability>
1

> <r_epik_Ionization_Penalty>
0.000700689

> <r_epik_Ionization_Penalty_Charging>
0.000627528

> <r_epik_Ionization_Penalty_Neutral>
7.31611e-05

> <r_epik_State_Penalty>
0.00039643

> <r_epik_Charging_Adjusted_Penalty>
0.00102396

> <i_epik_Tot_Q>
1

> <i_epik_Tot_abs_Q>
1

> <r_epik_Metal_State_Penalty>
-0

> <b_epik_Metal_Only>
0

> <s_lp_Force_Field>
OPLS_2005

> <r_lp_Energy>
38.0069

> <b_lp_Chiralities_Consistent>
1

> <s_lp_Variant>
AV-unprocessed.smi:835-2

> <Gold.Version>
5.8.1

> <Gold.Id.Protein>
6NUR|6NUR_protein|mol2

> <Gold.PLP.Fitness>
36.6915

> <Gold.PLP.PLP>
-29.4875

> <Gold.PLP.part.hbond>
-2.4863

> <Gold.PLP.part.metal>
0.0000

> <Gold.PLP.part.buried>
0.2989

> <Gold.PLP.part.nonpolar>
-27.1725

> <Gold.PLP.part.repulsive>
0.1778

> <Gold.PLP.ligand.clash>
0.0000

> <Gold.PLP.ligand.torsion>
1.4736

> <Gold.PLP.Chemscore.Hbond>
2.9600

> <Gold.PLP.Chemscore.CHOScore>
0.0000

> <Gold.PLP.Chemscore.Metal>
0.0000

> <Gold.Chemscore.Hbonds>
donor molecule, donor type, donor heavy atom, donor atom, acceptor molecule, acceptor atom, score
      L1  H     5    24       P1  7948  1.00
      L1  H     8    25       P1  7948  0.96
      P1  H  7989  7998       L1    19  1.00

> <Gold.PLP.Chemscore.Internal.Correction>
1.2712

> <Gold.Rescore>
     Score         DG    S(hbond)    S(metal)    S(lipo)     H(rot)  DE(clash)    DE(int)     intcor
     13.75     -16.71       1.92        0.00      67.86       1.22       1.46       1.51       ----

> <Gold.Chemscore.Fitness>
13.7473

> <Gold.Chemscore.DG>
-16.7147

> <Gold.Chemscore.ZeroCoef>
-5.4800

> <Gold.Chemscore.Hbond>
1.9214

> <Gold.Chemscore.Metal>
0.0000

> <Gold.Chemscore.Lipo>
67.8579

> <Gold.Chemscore.Internal_Hbond>
0.0000

> <Gold.Chemscore.DEClash>
1.4577

> <Gold.Chemscore.DEInternal>
1.5096

> <Gold.Chemscore.Rot>
1.2196

> <Gold.Chemscore.Internal.Correction>
   9.000000E+99

> <Gold.Chemscore.Hbonds>
donor molecule, donor type, donor heavy atom, donor atom, acceptor molecule, acceptor atom, score
      L1  H     5    24       P1  7948  0.88
      L1  H     8    25       P1  7948  0.86
      P1  H  7989  7998       L1    19  0.08

> <Gold.Chemscore.Hbond.Weighted>
-6.4176

> <Gold.Chemscore.Metal.Weighted>
-0.0000

> <Gold.Chemscore.Lipo.Weighted>
-7.9394

> <Gold.Chemscore.Internal_Hbond.Weighted>
0.0000

> <Gold.Chemscore.DEClash.Weighted>
1.4577

> <Gold.Chemscore.DEInternal.Weighted>
1.5096

> <Gold.Chemscore.Rot.Weighted>
3.1223

> <Gold.Chemscore.Internal.Correction.Weighted>
   9.000000E+99

> <Gold.Protein.RotatedTorsions>
[ 6907 6896 6895 6894 ] final   10.78 input  -60.11 | X-H torsion
[ 7974 7965 7964 7962 ] final  158.63 input  175.53 | X-H torsion
[ 8008 7997 7996 7995 ] final   98.39 input   59.86 | X-H torsion
[ 10167 10162 10161 10158 ] final  -48.06 input  -65.29 | X-H torsion
[ 10718 10713 10712 10709 ] final   88.64 input   66.30 | X-H torsion
[ 10763 10752 10751 10750 ] final   60.30 input  -60.55 | X-H torsion
[ 11005 11000 10999 10996 ] final  -98.34 input  -57.11 | X-H torsion

> <Gold.Protein.ActiveResidues>
 VAL166  LYS551  ARG553  GLY616  TRP617  ASP618  TYR619  PRO620  LYS621  CYS622 
 ASP623  PHE694  ASN695  SER759  ASP760  ASP761  ALA762  ILE779  LEU786  VAL792 
 PHE793  MET794  SER795  GLU796  ALA797  LYS798  CYS799  TRP800  GLU811  SER814 

> <Gold.Protein.RotatedAtoms>
  151.7438  135.0848  160.0319 H   0  0  0  0  0  0  0  0  0  0  0  0  # atno 6907 bound_to 6896
  152.3462  133.6121  159.5920 H   0  0  0  0  0  0  0  0  0  0  0  0  # atno 6908 bound_to 6896
  150.7510  133.9561  159.3542 H   0  0  0  0  0  0  0  0  0  0  0  0  # atno 6909 bound_to 6896
  144.7835  139.7504  143.6250 H   0  0  0  0  0  0  0  0  0  0  0  0  # atno 7974 bound_to 7965
  156.0999  140.3244  155.7928 H   0  0  0  0  0  0  0  0  0  0  0  0  # atno 8008 bound_to 7997
  155.4854  140.0557  157.2978 H   0  0  0  0  0  0  0  0  0  0  0  0  # atno 8009 bound_to 7997
  154.4690  140.2002  156.0058 H   0  0  0  0  0  0  0  0  0  0  0  0  # atno 8010 bound_to 7997
  140.6748  143.2757  151.4016 H   0  0  0  0  0  0  0  0  0  0  0  0  # atno 10167 bound_to 10162
  157.6950  131.0302  150.3305 H   0  0  0  0  0  0  0  0  0  0  0  0  # atno 10718 bound_to 10713
  152.9917  135.5541  154.5852 H   0  0  0  0  0  0  0  0  0  0  0  0  # atno 10763 bound_to 10752
  154.5225  135.2808  155.1252 H   0  0  0  0  0  0  0  0  0  0  0  0  # atno 10764 bound_to 10752
  154.2600  135.6383  153.5324 H   0  0  0  0  0  0  0  0  0  0  0  0  # atno 10765 bound_to 10752
  141.1348  133.8238  157.0827 H   0  0  0  0  0  0  0  0  0  0  0  0  # atno 11005 bound_to 11000
  146.2055  139.5377  142.9715 LP  0  0  0  0  0  0  0  0  0  0  0  0  # atno 17320 bound_to 7965
  145.5985  141.0359  143.2031 LP  0  0  0  0  0  0  0  0  0  0  0  0  # atno 17321 bound_to 7965
  139.6034  144.1247  152.2223 LP  0  0  0  0  0  0  0  0  0  0  0  0  # atno 17342 bound_to 10162
  140.0639  144.5834  150.7242 LP  0  0  0  0  0  0  0  0  0  0  0  0  # atno 17343 bound_to 10162
  156.3779  130.3875  149.7124 LP  0  0  0  0  0  0  0  0  0  0  0  0  # atno 17370 bound_to 10713
  156.4516  130.7909  151.2931 LP  0  0  0  0  0  0  0  0  0  0  0  0  # atno 17371 bound_to 10713
  140.0441  134.9839  157.1017 LP  0  0  0  0  0  0  0  0  0  0  0  0  # atno 17394 bound_to 11000
  140.4089  134.2002  155.7163 LP  0  0  0  0  0  0  0  0  0  0  0  0  # atno 17395 bound_to 11000

$$$$
