AV-unprocessed.smi:703|AV-procd|sdf|3429|dock8
  -GOLD-   22720 0413D 1   1.00000     0.00000
 Structure written by MMmdl.
 38 39  0  0  0  0  0  0  0  0  2 V2000
  145.6598  132.0004  151.9247 C   0  0  0  0  0  0  0  0  0  0  0  0
  146.2074  133.3376  151.4084 C   0  0  0  0  0  0  0  0  0  0  0  0
  147.2447  133.9012  152.3035 N   0  3  2  0  0  0  0  0  0  0  0  0
  148.2383  132.9327  152.8042 C   0  0  0  0  0  0  0  0  0  0  0  0
  148.9252  133.6454  153.9717 C   0  0  2  0  0  0  0  0  0  0  0  0
  149.5254  132.6896  155.0113 C   0  0  0  0  0  0  0  0  0  0  0  0
  147.8424  134.5840  154.5365 C   0  0  1  0  0  0  0  0  0  0  0  0
  148.3784  135.9369  154.7131 N   0  0  0  0  0  0  0  0  0  0  0  0
  147.2994  137.1863  155.2094 S   0  0  0  0  0  0  0  0  0  0  0  0
  145.9549  136.5956  155.2915 O   0  0  0  0  0  0  0  0  0  0  0  0
  147.8890  137.8374  156.3893 O   0  0  0  0  0  0  0  0  0  0  0  0
  147.3626  138.3620  153.7924 C   0  0  0  0  0  0  0  0  0  0  0  0
  148.2764  139.5058  154.1283 C   0  0  0  0  0  0  0  0  0  0  0  0
  147.9830  140.8974  154.1429 C   0  0  0  0  0  0  0  0  0  0  0  0
  149.1666  141.4688  154.5121 C   0  0  0  0  0  0  0  0  0  0  0  0
  150.1134  140.5165  154.7065 O   0  0  0  0  0  0  0  0  0  0  0  0
  149.5360  139.2663  154.4575 N   0  0  0  0  0  0  0  0  0  0  0  0
  146.7065  134.5778  153.5004 C   0  0  0  0  0  0  0  0  0  0  0  0
  144.9472  131.5775  151.2164 H   0  0  0  0  0  0  0  0  0  0  0  0
  145.1416  132.1174  152.8767 H   0  0  0  0  0  0  0  0  0  0  0  0
  146.4597  131.2723  152.0630 H   0  0  0  0  0  0  0  0  0  0  0  0
  146.6489  133.1768  150.4239 H   0  0  0  0  0  0  0  0  0  0  0  0
  145.3963  134.0549  151.2750 H   0  0  0  0  0  0  0  0  0  0  0  0
  147.7263  132.0346  153.1548 H   0  0  0  0  0  0  0  0  0  0  0  0
  148.9470  132.6379  152.0296 H   0  0  0  0  0  0  0  0  0  0  0  0
  149.7353  134.2447  153.5513 H   0  0  0  0  0  0  0  0  0  0  0  0
  148.7590  132.0588  155.4627 H   0  0  0  0  0  0  0  0  0  0  0  0
  150.0136  133.2449  155.8129 H   0  0  0  0  0  0  0  0  0  0  0  0
  150.2712  132.0365  154.5580 H   0  0  0  0  0  0  0  0  0  0  0  0
  147.4590  134.2134  155.4889 H   0  0  0  0  0  0  0  0  0  0  0  0
  148.9321  136.2278  153.9076 H   0  0  0  0  0  0  0  0  0  0  0  0
  147.7084  137.8202  152.9114 H   0  0  0  0  0  0  0  0  0  0  0  0
  146.3522  138.7168  153.5903 H   0  0  0  0  0  0  0  0  0  0  0  0
  147.0516  141.3966  153.9212 H   0  0  0  0  0  0  0  0  0  0  0  0
  149.4805  142.4898  154.6715 H   0  0  0  0  0  0  0  0  0  0  0  0
  146.3353  135.5743  153.2562 H   0  0  0  0  0  0  0  0  0  0  0  0
  145.8657  134.0037  153.8942 H   0  0  0  0  0  0  0  0  0  0  0  0
  147.7549  134.6015  151.7844 H   0  0  0  0  0  0  0  0  0  0  0  0
  1  2  1  0  0  0  0
  1 19  1  0  0  0  0
  1 20  1  0  0  0  0
  1 21  1  0  0  0  0
  2  3  1  0  0  0  0
  2 22  1  0  0  0  0
  2 23  1  0  0  0  0
  3 18  1  0  0  0  0
  3  4  1  0  0  0  0
  3 38  1  0  0  0  0
  4  5  1  0  0  0  0
  4 24  1  0  0  0  0
  4 25  1  0  0  0  0
  5  6  1  0  0  0  0
  5  7  1  0  0  0  0
  5 26  1  0  0  0  0
  6 27  1  0  0  0  0
  6 28  1  0  0  0  0
  6 29  1  0  0  0  0
  7  8  1  0  0  0  0
  7 18  1  0  0  0  0
  7 30  1  0  0  0  0
  8  9  1  0  0  0  0
  8 31  1  0  0  0  0
  9 10  2  0  0  0  0
  9 11  2  0  0  0  0
  9 12  1  0  0  0  0
 12 13  1  0  0  0  0
 12 32  1  0  0  0  0
 12 33  1  0  0  0  0
 13 17  2  0  0  0  0
 13 14  1  0  0  0  0
 14 15  2  0  0  0  0
 14 34  1  0  0  0  0
 15 16  1  0  0  0  0
 15 35  1  0  0  0  0
 16 17  1  0  0  0  0
 18 36  1  0  0  0  0
 18 37  1  0  0  0  0
M  CHG  1   3   1
M  END
> <s_m_source_file>
AV-unprocessed.smi

> <i_m_source_file_index>
703

> <i_lp_mmshare_version>
43012

> <i_f3d_flags>
0

> <s_epik_input>
W0NIM11bQ0gyXU4xW0NIMl1bQ0BASF0oW0NIM10pW0NASF0oW0NIMl0xKVtOSF1TKD1PKSg9TylbQ0gyXWMyW2NIXVtjSF1vbjI=

> <s_epik_cmdline>
J2VwaWtfcHl0aG9uJywgJy1waCcsICc3LjAnLCAnLXRuJywgJzgnLCAnLW1hJywgJzIwMCcsICctbWV0YWxfYmluZGluZycsICctaW1hZScsICc8aW5maWxlLm1hZT4nLCAnLW9tYWUnLCAnPG91dGZpbGUubWFlPic=

> <r_epik_Ionization_Penalty>
0.00324529

> <r_epik_Ionization_Penalty_Charging>
0.0019384

> <r_epik_Ionization_Penalty_Neutral>
0.00130689

> <r_epik_State_Penalty>
0.00218682

> <r_epik_Charging_Adjusted_Penalty>
0.00412522

> <i_epik_Tot_Q>
1

> <i_epik_Tot_abs_Q>
1

> <r_epik_Metal_State_Penalty>
0.310831

> <b_epik_Metal_Only>
0

> <s_lp_Force_Field>
OPLS_2005

> <r_lp_Energy>
19.0381

> <b_lp_Chiralities_Consistent>
1

> <s_lp_Variant>
AV-unprocessed.smi:703-4

> <Gold.Version>
5.8.1

> <Gold.Id.Protein>
6NUR|6NUR_protein|mol2

> <Gold.PLP.Fitness>
39.0716

> <Gold.PLP.PLP>
-25.9331

> <Gold.PLP.part.hbond>
-3.0000

> <Gold.PLP.part.metal>
0.0000

> <Gold.PLP.part.buried>
-1.7974

> <Gold.PLP.part.nonpolar>
-20.9667

> <Gold.PLP.part.repulsive>
0.2978

> <Gold.PLP.ligand.clash>
0.0000

> <Gold.PLP.ligand.torsion>
0.5982

> <Gold.PLP.Chemscore.Hbond>
3.7280

> <Gold.PLP.Chemscore.CHOScore>
1.0000

> <Gold.PLP.Chemscore.Metal>
0.0000

> <Gold.Chemscore.Hbonds>
donor molecule, donor type, donor heavy atom, donor atom, acceptor molecule, acceptor atom, score
      L1  H     3    38       P1  7948  1.92
      L1  H     8    31       P1  7948  0.86
      P1  H  7989  7998       L1    16  0.91
      L1  C    15    35       P1  8028  1.00

> <Gold.PLP.Chemscore.Internal.Correction>
0.1510

> <Gold.Rescore>
     Score         DG    S(hbond)    S(metal)    S(lipo)     H(rot)  DE(clash)    DE(int)     intcor
     12.08     -15.14       2.39        0.00      56.84       1.94       0.04       3.02       ----

> <Gold.Chemscore.Fitness>
12.0796

> <Gold.Chemscore.DG>
-15.1434

> <Gold.Chemscore.ZeroCoef>
-5.4800

> <Gold.Chemscore.Hbond>
2.3892

> <Gold.Chemscore.Metal>
0.0000

> <Gold.Chemscore.Lipo>
56.8368

> <Gold.Chemscore.Internal_Hbond>
0.0000

> <Gold.Chemscore.DEClash>
0.0438

> <Gold.Chemscore.DEInternal>
3.0200

> <Gold.Chemscore.Rot>
1.9400

> <Gold.Chemscore.Internal.Correction>
   9.000000E+99

> <Gold.Chemscore.Hbonds>
donor molecule, donor type, donor heavy atom, donor atom, acceptor molecule, acceptor atom, score
      L1  H     3    38       P1  7948  0.23
      L1  H     8    31       P1  7948  0.80
      P1  H  7989  7998       L1    16  0.47

> <Gold.Chemscore.Hbond.Weighted>
-7.9800

> <Gold.Chemscore.Metal.Weighted>
-0.0000

> <Gold.Chemscore.Lipo.Weighted>
-6.6499

> <Gold.Chemscore.Internal_Hbond.Weighted>
0.0000

> <Gold.Chemscore.DEClash.Weighted>
0.0438

> <Gold.Chemscore.DEInternal.Weighted>
3.0200

> <Gold.Chemscore.Rot.Weighted>
4.9665

> <Gold.Chemscore.Internal.Correction.Weighted>
   9.000000E+99

> <Gold.Protein.RotatedTorsions>
[ 6907 6896 6895 6894 ] final -123.71 input  -60.11 | X-H torsion
[ 7974 7965 7964 7962 ] final  -50.59 input  175.53 | X-H torsion
[ 8008 7997 7996 7995 ] final -142.65 input   59.86 | X-H torsion
[ 10167 10162 10161 10158 ] final -133.08 input  -65.29 | X-H torsion
[ 10718 10713 10712 10709 ] final  -29.97 input   66.30 | X-H torsion
[ 10763 10752 10751 10750 ] final   66.82 input  -60.55 | X-H torsion
[ 11005 11000 10999 10996 ] final   -4.81 input  -57.11 | X-H torsion

> <Gold.Protein.ActiveResidues>
 VAL166  LYS551  ARG553  GLY616  TRP617  ASP618  TYR619  PRO620  LYS621  CYS622 
 ASP623  PHE694  ASN695  SER759  ASP760  ASP761  ALA762  ILE779  LEU786  VAL792 
 PHE793  MET794  SER795  GLU796  ALA797  LYS798  CYS799  TRP800  GLU811  SER814 

> <Gold.Protein.RotatedAtoms>
  150.8697  133.7523  159.2965 H   0  0  0  0  0  0  0  0  0  0  0  0  # atno 6907 bound_to 6896
  151.5139  135.1064  159.9870 H   0  0  0  0  0  0  0  0  0  0  0  0  # atno 6908 bound_to 6896
  152.4686  133.7934  159.6970 H   0  0  0  0  0  0  0  0  0  0  0  0  # atno 6909 bound_to 6896
  145.9282  140.7773  142.9613 H   0  0  0  0  0  0  0  0  0  0  0  0  # atno 7974 bound_to 7965
  155.4977  140.0573  157.2944 H   0  0  0  0  0  0  0  0  0  0  0  0  # atno 8008 bound_to 7997
  154.4599  140.1991  156.0224 H   0  0  0  0  0  0  0  0  0  0  0  0  # atno 8009 bound_to 7997
  156.0870  140.3239  155.7771 H   0  0  0  0  0  0  0  0  0  0  0  0  # atno 8010 bound_to 7997
  139.9020  143.6596  152.2593 H   0  0  0  0  0  0  0  0  0  0  0  0  # atno 10167 bound_to 10162
  156.4058  130.4398  149.7289 H   0  0  0  0  0  0  0  0  0  0  0  0  # atno 10718 bound_to 10713
  153.0157  135.5306  154.6884 H   0  0  0  0  0  0  0  0  0  0  0  0  # atno 10763 bound_to 10752
  154.6025  135.2870  155.0522 H   0  0  0  0  0  0  0  0  0  0  0  0  # atno 10764 bound_to 10752
  154.1574  135.6553  153.5030 H   0  0  0  0  0  0  0  0  0  0  0  0  # atno 10765 bound_to 10752
  140.6843  133.9126  155.8576 H   0  0  0  0  0  0  0  0  0  0  0  0  # atno 11005 bound_to 11000
  144.6761  140.2084  143.7379 LP  0  0  0  0  0  0  0  0  0  0  0  0  # atno 17320 bound_to 7965
  145.8461  139.2153  143.1799 LP  0  0  0  0  0  0  0  0  0  0  0  0  # atno 17321 bound_to 7965
  139.7017  144.7634  151.1262 LP  0  0  0  0  0  0  0  0  0  0  0  0  # atno 17342 bound_to 10162
  140.7705  143.5449  150.9270 LP  0  0  0  0  0  0  0  0  0  0  0  0  # atno 17343 bound_to 10162
  156.4287  130.7804  151.2824 LP  0  0  0  0  0  0  0  0  0  0  0  0  # atno 17370 bound_to 10713
  157.7505  131.0160  150.3529 LP  0  0  0  0  0  0  0  0  0  0  0  0  # atno 17371 bound_to 10713
  141.0292  134.0780  157.4033 LP  0  0  0  0  0  0  0  0  0  0  0  0  # atno 17394 bound_to 11000
  139.8942  135.0134  156.6939 LP  0  0  0  0  0  0  0  0  0  0  0  0  # atno 17395 bound_to 11000

$$$$
