AV-unprocessed.smi:39|AV-procd|sdf|358|dock10
  -GOLD-   2262016193D 1   1.00000     0.00000
 Structure written by MMmdl.
 32 33  0  0  0  0  0  0  0  0  3 V2000
  151.1763  139.1436  154.5306 C   0  0  0  0  0  0  0  0  0  0  0  0
  150.8609  140.1942  155.5825 C   0  0  0  0  0  0  0  0  0  0  0  0
  151.3657  140.1382  156.8416 C   0  0  0  0  0  0  0  0  0  0  0  0
  151.0989  141.0850  157.8216 N   0  0  0  0  0  0  0  0  0  0  0  0
  151.7051  140.9802  159.2027 C   0  0  2  0  0  0  0  0  0  0  0  0
  153.1331  141.5389  159.2052 C   0  0  0  0  0  0  0  0  0  0  0  0
  153.9667  140.2677  159.2403 C   0  0  1  0  0  0  0  0  0  0  0  0
  155.3285  140.4505  159.7698 N   0  0  0  0  0  0  0  0  0  0  0  0
  156.2880  140.2532  159.0099 N   0  3  0  0  0  0  0  0  0  0  0  0
  157.1512  139.9498  158.3334 N   0  5  0  0  0  0  0  0  0  0  0  0
  153.0713  139.3245  160.0565 C   0  0  2  0  0  0  0  0  0  0  0  0
  153.3775  137.8362  159.8293 C   0  0  0  0  0  0  0  0  0  0  0  0
  152.1743  137.1104  159.6981 O   0  0  0  0  0  0  0  0  0  0  0  0
  151.7696  139.6320  159.5672 O   0  0  0  0  0  0  0  0  0  0  0  0
  150.2803  142.1903  157.5096 C   0  0  0  0  0  0  0  0  0  0  0  0
  150.0284  143.0865  158.3140 O   0  0  0  0  0  0  0  0  0  0  0  0
  149.7561  142.2446  156.2194 N   0  0  0  0  0  0  0  0  0  0  0  0
  149.9844  141.3077  155.2085 C   0  0  0  0  0  0  0  0  0  0  0  0
  149.4622  141.4646  154.1059 O   0  0  0  0  0  0  0  0  0  0  0  0
  151.0351  141.4968  159.8919 H   0  0  0  0  0  0  0  0  0  0  0  0
  154.0330  139.8838  158.2215 H   0  0  0  0  0  0  0  0  0  0  0  0
  153.1140  139.5788  161.1174 H   0  0  0  0  0  0  0  0  0  0  0  0
  149.1646  143.0311  155.9943 H   0  0  0  0  0  0  0  0  0  0  0  0
  151.8300  138.3632  154.9213 H   0  0  0  0  0  0  0  0  0  0  0  0
  151.6754  139.5997  153.6748 H   0  0  0  0  0  0  0  0  0  0  0  0
  150.2601  138.6676  154.1796 H   0  0  0  0  0  0  0  0  0  0  0  0
  152.0150  139.3108  157.0867 H   0  0  0  0  0  0  0  0  0  0  0  0
  153.3323  142.1680  158.3365 H   0  0  0  0  0  0  0  0  0  0  0  0
  153.2610  142.1388  160.1071 H   0  0  0  0  0  0  0  0  0  0  0  0
  154.0096  137.6894  158.9531 H   0  0  0  0  0  0  0  0  0  0  0  0
  153.9120  137.4273  160.6871 H   0  0  0  0  0  0  0  0  0  0  0  0
  151.5067  137.6916  159.3669 H   0  0  0  0  0  0  0  0  0  0  0  0
  1  2  1  0  0  0  0
  1 24  1  0  0  0  0
  1 25  1  0  0  0  0
  1 26  1  0  0  0  0
  2 18  1  0  0  0  0
  2  3  2  0  0  0  0
  3  4  1  0  0  0  0
  3 27  1  0  0  0  0
  4  5  1  0  0  0  0
  4 15  1  0  0  0  0
  5 20  1  0  0  0  0
  5 14  1  0  0  0  0
  5  6  1  0  0  0  0
  6  7  1  0  0  0  0
  6 28  1  0  0  0  0
  6 29  1  0  0  0  0
  7 21  1  0  0  0  0
  7  8  1  0  0  0  0
  7 11  1  0  0  0  0
  8  9  2  0  0  0  0
  9 10  2  0  0  0  0
 11 22  1  0  0  0  0
 11 12  1  0  0  0  0
 11 14  1  0  0  0  0
 12 13  1  0  0  0  0
 12 30  1  0  0  0  0
 12 31  1  0  0  0  0
 13 32  1  0  0  0  0
 15 16  2  0  0  0  0
 15 17  1  0  0  0  0
 17 23  1  0  0  0  0
 17 18  1  0  0  0  0
 18 19  2  0  0  0  0
M  CHG  1   9   1
M  CHG  1  10  -1
M  END
> <s_m_source_file>
AV-unprocessed.smi

> <i_m_source_file_index>
39

> <i_lp_mmshare_version>
43012

> <i_f3d_flags>
0

> <s_epik_input>
Tz1jMVtuSF1jKD1PKW4oW2NIXWMxW0NIM10pW0NASF0yW0NIMl1bQ0BIXShOPVtOK109W04tXSlbQ0BIXShPMilbQ0gyXVtPSF0=

> <s_epik_cmdline>
J2VwaWtfcHl0aG9uJywgJy1waCcsICc3LjAnLCAnLXRuJywgJzgnLCAnLW1hJywgJzIwMCcsICctbWV0YWxfYmluZGluZycsICctaW1hZScsICc8aW5maWxlLm1hZT4nLCAnLW9tYWUnLCAnPG91dGZpbGUubWFlPic=

> <r_lp_tautomer_probability>
0.999537

> <r_epik_Ionization_Penalty>
0.00127512

> <r_epik_Ionization_Penalty_Charging>
0.00127507

> <r_epik_Ionization_Penalty_Neutral>
5.43433e-08

> <r_epik_State_Penalty>
0.000844892

> <r_epik_Charging_Adjusted_Penalty>
0.00211996

> <i_epik_Tot_Q>
0

> <i_epik_Tot_abs_Q>
2

> <r_epik_Metal_State_Penalty>
0.680636

> <b_epik_Metal_Only>
0

> <s_epik_Chemistry_Notes>
This compound contains an acetal/aminal-like group ( X-CH(R)-Y where X, Y are N, S, or O) that may be acid/base labile, releasing an aldehyde.

> <s_lp_Force_Field>
OPLS_2005

> <r_lp_Energy>
25.9236

> <b_lp_Chiralities_Consistent>
1

> <s_lp_Variant>
AV-unprocessed.smi:39-8

> <Gold.Version>
5.8.1

> <Gold.Id.Protein>
6NUR|6NUR_protein|mol2

> <Gold.PLP.Fitness>
34.0912

> <Gold.PLP.PLP>
-26.8854

> <Gold.PLP.part.hbond>
-6.3962

> <Gold.PLP.part.metal>
0.0000

> <Gold.PLP.part.buried>
0.1165

> <Gold.PLP.part.nonpolar>
-19.6237

> <Gold.PLP.part.repulsive>
0.5757

> <Gold.PLP.ligand.clash>
0.0000

> <Gold.PLP.ligand.torsion>
1.2720

> <Gold.PLP.Chemscore.Hbond>
3.2432

> <Gold.PLP.Chemscore.CHOScore>
0.0000

> <Gold.PLP.Chemscore.Metal>
0.0000

> <Gold.Chemscore.Hbonds>
donor molecule, donor type, donor heavy atom, donor atom, acceptor molecule, acceptor atom, score
      L1  H    17    23       P1  8028  1.00
      P1  H  6896  6908       L1    13  0.96
      P1  H  7997  8009       L1    10  0.64
      P1  H  8011  8017       L1    19  0.65

> <Gold.PLP.Chemscore.Internal.Correction>
0.0202

> <Gold.Rescore>
     Score         DG    S(hbond)    S(metal)    S(lipo)     H(rot)  DE(clash)    DE(int)     intcor
     10.18     -13.46       2.76        0.00      49.52       2.75       2.01       1.27       ----

> <Gold.Chemscore.Fitness>
10.1840

> <Gold.Chemscore.DG>
-13.4632

> <Gold.Chemscore.ZeroCoef>
-5.4800

> <Gold.Chemscore.Hbond>
2.7649

> <Gold.Chemscore.Metal>
0.0000

> <Gold.Chemscore.Lipo>
49.5245

> <Gold.Chemscore.Internal_Hbond>
0.0000

> <Gold.Chemscore.DEClash>
2.0067

> <Gold.Chemscore.DEInternal>
1.2725

> <Gold.Chemscore.Rot>
2.7524

> <Gold.Chemscore.Internal.Correction>
   9.000000E+99

> <Gold.Chemscore.Hbonds>
donor molecule, donor type, donor heavy atom, donor atom, acceptor molecule, acceptor atom, score
      L1  H    17    23       P1  8028  0.97
      P1  H  6896  6908       L1    13  0.81
      P1  H  7997  8009       L1    10  0.09
      P1  H  8011  8017       L1    19  0.61

> <Gold.Chemscore.Hbond.Weighted>
-9.2349

> <Gold.Chemscore.Metal.Weighted>
-0.0000

> <Gold.Chemscore.Lipo.Weighted>
-5.7944

> <Gold.Chemscore.Internal_Hbond.Weighted>
0.0000

> <Gold.Chemscore.DEClash.Weighted>
2.0067

> <Gold.Chemscore.DEInternal.Weighted>
1.2725

> <Gold.Chemscore.Rot.Weighted>
7.0461

> <Gold.Chemscore.Internal.Correction.Weighted>
   9.000000E+99

> <Gold.Protein.RotatedTorsions>
[ 6907 6896 6895 6894 ] final -121.39 input  -60.11 | X-H torsion
[ 7974 7965 7964 7962 ] final  127.39 input  175.53 | X-H torsion
[ 8008 7997 7996 7995 ] final   39.89 input   59.86 | X-H torsion
[ 10167 10162 10161 10158 ] final  176.62 input  -65.29 | X-H torsion
[ 10718 10713 10712 10709 ] final  134.41 input   66.30 | X-H torsion
[ 10763 10752 10751 10750 ] final -127.69 input  -60.55 | X-H torsion
[ 11005 11000 10999 10996 ] final  -95.96 input  -57.11 | X-H torsion

> <Gold.Protein.ActiveResidues>
 VAL166  LYS551  ARG553  GLY616  TRP617  ASP618  TYR619  PRO620  LYS621  CYS622 
 ASP623  PHE694  ASN695  SER759  ASP760  ASP761  ALA762  ILE779  LEU786  VAL792 
 PHE793  MET794  SER795  GLU796  ALA797  LYS798  CYS799  TRP800  GLU811  SER814 

> <Gold.Protein.RotatedAtoms>
  150.8479  133.7833  159.3036 H   0  0  0  0  0  0  0  0  0  0  0  0  # atno 6907 bound_to 6896
  151.5514  135.1066  159.9960 H   0  0  0  0  0  0  0  0  0  0  0  0  # atno 6908 bound_to 6896
  152.4528  133.7620  159.6808 H   0  0  0  0  0  0  0  0  0  0  0  0  # atno 6909 bound_to 6896
  145.0511  139.3882  143.5053 H   0  0  0  0  0  0  0  0  0  0  0  0  # atno 7974 bound_to 7965
  155.2440  140.3347  155.4289 H   0  0  0  0  0  0  0  0  0  0  0  0  # atno 8008 bound_to 7997
  156.2244  140.1823  156.7444 H   0  0  0  0  0  0  0  0  0  0  0  0  # atno 8009 bound_to 7997
  154.5875  140.0643  156.9177 H   0  0  0  0  0  0  0  0  0  0  0  0  # atno 8010 bound_to 7997
  139.5221  144.2894  152.0477 H   0  0  0  0  0  0  0  0  0  0  0  0  # atno 10167 bound_to 10162
  157.4675  131.1078  150.9844 H   0  0  0  0  0  0  0  0  0  0  0  0  # atno 10718 bound_to 10713
  154.8753  135.3953  154.3634 H   0  0  0  0  0  0  0  0  0  0  0  0  # atno 10763 bound_to 10752
  153.4404  135.7026  153.6178 H   0  0  0  0  0  0  0  0  0  0  0  0  # atno 10764 bound_to 10752
  153.4761  135.3779  155.2386 H   0  0  0  0  0  0  0  0  0  0  0  0  # atno 10765 bound_to 10752
  141.1426  133.8063  157.0506 H   0  0  0  0  0  0  0  0  0  0  0  0  # atno 11005 bound_to 11000
  146.3518  140.0161  142.8662 LP  0  0  0  0  0  0  0  0  0  0  0  0  # atno 17320 bound_to 7965
  145.1526  140.9631  143.4424 LP  0  0  0  0  0  0  0  0  0  0  0  0  # atno 17321 bound_to 7965
  140.2346  144.4333  150.6285 LP  0  0  0  0  0  0  0  0  0  0  0  0  # atno 17342 bound_to 10162
  140.6332  143.2190  151.6451 LP  0  0  0  0  0  0  0  0  0  0  0  0  # atno 17343 bound_to 10162
  157.0620  130.5829  149.5387 LP  0  0  0  0  0  0  0  0  0  0  0  0  # atno 17370 bound_to 10713
  156.0057  130.5143  150.7822 LP  0  0  0  0  0  0  0  0  0  0  0  0  # atno 17371 bound_to 10713
  140.0634  134.9742  157.1344 LP  0  0  0  0  0  0  0  0  0  0  0  0  # atno 17394 bound_to 11000
  140.3815  134.2282  155.7171 LP  0  0  0  0  0  0  0  0  0  0  0  0  # atno 17395 bound_to 11000

$$$$
