AV-unprocessed.smi:2032|AV-procd|sdf|8254|dock10
  -GOLD-   2272010523D 1   1.00000     0.00000
 Structure written by MMmdl.
 42 43  0  0  0  0  0  0  0  0  3 V2000
  148.8415  141.4444  154.7781 C   0  0  0  0  0  0  0  0  0  0  0  0
  149.4346  140.0524  155.0223 C   0  0  1  0  0  0  0  0  0  0  0  0
  148.8786  139.0054  154.0325 C   0  0  0  0  0  0  0  0  0  0  0  0
  149.5157  137.6760  154.2409 N   0  3  2  0  0  0  0  0  0  0  0  0
  149.0653  136.9283  155.4654 C   0  0  1  0  0  0  0  0  0  0  0  0
  149.5566  135.4601  155.4529 C   0  0  0  0  0  0  0  0  0  0  0  0
  149.5228  137.6268  156.7771 C   0  0  0  0  0  0  0  0  0  0  0  0
  148.4869  137.6400  157.8062 N   0  0  0  0  0  0  0  0  0  0  0  0
  148.6354  137.2095  159.0673 C   0  0  0  0  0  0  0  0  0  0  0  0
  149.7142  136.7344  159.4308 O   0  0  0  0  0  0  0  0  0  0  0  0
  147.5298  137.3645  159.8287 N   0  5  0  0  0  0  0  0  0  0  0  0
  147.3289  136.5662  160.8898 C   0  0  0  0  0  0  0  0  0  0  0  0
  147.4882  136.9769  162.1530 N   0  0  0  0  0  0  0  0  0  0  0  0
  147.2308  135.9809  163.0968 C   0  0  0  0  0  0  0  0  0  0  0  0
  146.8752  134.7816  162.5387 C   0  0  0  0  0  0  0  0  0  0  0  0
  146.8538  134.8676  160.8006 S   0  0  0  0  0  0  0  0  0  0  0  0
  150.9872  137.8533  154.0985 C   0  0  0  0  0  0  0  0  0  0  0  0
  151.5229  138.9090  155.0894 C   0  0  1  0  0  0  0  0  0  0  0  0
  153.0256  139.1524  154.9102 C   0  0  0  0  0  0  0  0  0  0  0  0
  150.8472  140.1418  154.8573 O   0  0  0  0  0  0  0  0  0  0  0  0
  147.7592  141.4379  154.9089 H   0  0  0  0  0  0  0  0  0  0  0  0
  149.0547  141.7943  153.7675 H   0  0  0  0  0  0  0  0  0  0  0  0
  149.2554  142.1722  155.4764 H   0  0  0  0  0  0  0  0  0  0  0  0
  149.2097  139.7624  156.0496 H   0  0  0  0  0  0  0  0  0  0  0  0
  147.7924  138.9585  154.0717 H   0  0  0  0  0  0  0  0  0  0  0  0
  149.1024  139.3280  153.0145 H   0  0  0  0  0  0  0  0  0  0  0  0
  147.9767  136.8992  155.4664 H   0  0  0  0  0  0  0  0  0  0  0  0
  149.3167  134.9387  156.3792 H   0  0  0  0  0  0  0  0  0  0  0  0
  150.6372  135.4051  155.3190 H   0  0  0  0  0  0  0  0  0  0  0  0
  149.0832  134.8724  154.6676 H   0  0  0  0  0  0  0  0  0  0  0  0
  150.3990  137.1207  157.1833 H   0  0  0  0  0  0  0  0  0  0  0  0
  149.8102  138.6643  156.6181 H   0  0  0  0  0  0  0  0  0  0  0  0
  147.5865  138.0167  157.5475 H   0  0  0  0  0  0  0  0  0  0  0  0
  147.3270  136.2136  164.1469 H   0  0  0  0  0  0  0  0  0  0  0  0
  146.6277  133.8580  163.0396 H   0  0  0  0  0  0  0  0  0  0  0  0
  151.5356  136.9186  154.1812 H   0  0  0  0  0  0  0  0  0  0  0  0
  151.1852  138.1945  153.0811 H   0  0  0  0  0  0  0  0  0  0  0  0
  151.3518  138.5895  156.1181 H   0  0  0  0  0  0  0  0  0  0  0  0
  153.5943  138.2387  155.0848 H   0  0  0  0  0  0  0  0  0  0  0  0
  153.3850  139.9053  155.6120 H   0  0  0  0  0  0  0  0  0  0  0  0
  153.2527  139.5009  153.9021 H   0  0  0  0  0  0  0  0  0  0  0  0
  149.2256  137.1009  153.4629 H   0  0  0  0  0  0  0  0  0  0  0  0
  1  2  1  0  0  0  0
  1 21  1  0  0  0  0
  1 22  1  0  0  0  0
  1 23  1  0  0  0  0
  2 20  1  0  0  0  0
  2  3  1  0  0  0  0
  2 24  1  0  0  0  0
  3  4  1  0  0  0  0
  3 25  1  0  0  0  0
  3 26  1  0  0  0  0
  4  5  1  0  0  0  0
  4 17  1  0  0  0  0
  4 42  1  0  0  0  0
  5  6  1  0  0  0  0
  5  7  1  0  0  0  0
  5 27  1  0  0  0  0
  6 28  1  0  0  0  0
  6 29  1  0  0  0  0
  6 30  1  0  0  0  0
  7  8  1  0  0  0  0
  7 31  1  0  0  0  0
  7 32  1  0  0  0  0
  8  9  1  0  0  0  0
  8 33  1  0  0  0  0
  9 10  2  0  0  0  0
  9 11  1  0  0  0  0
 11 12  1  0  0  0  0
 12 16  1  0  0  0  0
 12 13  2  0  0  0  0
 13 14  1  0  0  0  0
 14 15  2  0  0  0  0
 14 34  1  0  0  0  0
 15 16  1  0  0  0  0
 15 35  1  0  0  0  0
 17 18  1  0  0  0  0
 17 36  1  0  0  0  0
 17 37  1  0  0  0  0
 18 19  1  0  0  0  0
 18 20  1  0  0  0  0
 18 38  1  0  0  0  0
 19 39  1  0  0  0  0
 19 40  1  0  0  0  0
 19 41  1  0  0  0  0
M  CHG  1   4   1
M  CHG  1  11  -1
M  END
> <s_m_source_file>
AV-unprocessed.smi

> <i_m_source_file_index>
2032

> <i_lp_mmshare_version>
43012

> <i_f3d_flags>
0

> <s_epik_input>
W0NIM11bQ0BASF0xW0NIMl1OKFtDSDJdW0NASF0oTzEpW0NIM10pW0NASF0oW0NIM10pW0NIMl1bTkhdQyg9TylbTkhdYzJuW2NIXVtjSF1zMg==

> <s_epik_cmdline>
J2VwaWtfcHl0aG9uJywgJy1waCcsICc3LjAnLCAnLXRuJywgJzgnLCAnLW1hJywgJzIwMCcsICctbWV0YWxfYmluZGluZycsICctaW1hZScsICc8aW5maWxlLm1hZT4nLCAnLW9tYWUnLCAnPG91dGZpbGUubWFlPic=

> <r_lp_tautomer_probability>
0.999

> <r_epik_Ionization_Penalty>
6.71699

> <r_epik_Ionization_Penalty_Charging>
5.88592

> <r_epik_Ionization_Penalty_Neutral>
0.831074

> <r_epik_State_Penalty>
6.08365

> <r_epik_Charging_Adjusted_Penalty>
11.9696

> <i_epik_Tot_Q>
0

> <i_epik_Tot_abs_Q>
2

> <r_epik_Metal_State_Penalty>
2.0947

> <b_epik_Metal_Only>
1

> <s_lp_Force_Field>
OPLS_2005

> <r_lp_Energy>
10.9106

> <b_lp_Chiralities_Consistent>
1

> <s_lp_Variant>
AV-unprocessed.smi:2032-24

> <Gold.Version>
5.8.1

> <Gold.Id.Protein>
6NUR|6NUR_protein|mol2

> <Gold.PLP.Fitness>
51.1319

> <Gold.PLP.PLP>
-38.8152

> <Gold.PLP.part.hbond>
-5.8823

> <Gold.PLP.part.metal>
0.0000

> <Gold.PLP.part.buried>
-3.6036

> <Gold.PLP.part.nonpolar>
-30.6624

> <Gold.PLP.part.repulsive>
0.1456

> <Gold.PLP.ligand.clash>
2.9775

> <Gold.PLP.ligand.torsion>
1.4640

> <Gold.PLP.Chemscore.Hbond>
6.0540

> <Gold.PLP.Chemscore.CHOScore>
0.0000

> <Gold.PLP.Chemscore.Metal>
0.0000

> <Gold.Chemscore.Hbonds>
donor molecule, donor type, donor heavy atom, donor atom, acceptor molecule, acceptor atom, score
      L1  H     4    42       P1  7948  2.00
      P1  H  6896  6908       L1    10  0.63
      P1  H  6931  6943       L1    13  0.99
      P1  H  6934  6947       L1    11  1.10
      P1  H  7989  7998       L1    20  1.00

> <Gold.PLP.Chemscore.Internal.Correction>
0.0602

> <Gold.Rescore>
     Score         DG    S(hbond)    S(metal)    S(lipo)     H(rot)  DE(clash)    DE(int)     intcor
     17.83     -21.66       3.26        0.00      79.93       1.58       0.13       3.70       ----

> <Gold.Chemscore.Fitness>
17.8263

> <Gold.Chemscore.DG>
-21.6620

> <Gold.Chemscore.ZeroCoef>
-5.4800

> <Gold.Chemscore.Hbond>
3.2551

> <Gold.Chemscore.Metal>
0.0000

> <Gold.Chemscore.Lipo>
79.9347

> <Gold.Chemscore.Internal_Hbond>
0.0000

> <Gold.Chemscore.DEClash>
0.1331

> <Gold.Chemscore.DEInternal>
3.7026

> <Gold.Chemscore.Rot>
1.5791

> <Gold.Chemscore.Internal.Correction>
   9.000000E+99

> <Gold.Chemscore.Hbonds>
donor molecule, donor type, donor heavy atom, donor atom, acceptor molecule, acceptor atom, score
      L1  H     4    42       P1  7948  0.99
      P1  H  6896  6908       L1    10  0.63
      P1  H  6931  6943       L1    13  0.27
      P1  H  6934  6947       L1    11  0.05
      P1  H  7989  7998       L1    20  0.55

> <Gold.Chemscore.Hbond.Weighted>
-10.8721

> <Gold.Chemscore.Metal.Weighted>
-0.0000

> <Gold.Chemscore.Lipo.Weighted>
-9.3524

> <Gold.Chemscore.Internal_Hbond.Weighted>
0.0000

> <Gold.Chemscore.DEClash.Weighted>
0.1331

> <Gold.Chemscore.DEInternal.Weighted>
3.7026

> <Gold.Chemscore.Rot.Weighted>
4.0425

> <Gold.Chemscore.Internal.Correction.Weighted>
   9.000000E+99

> <Gold.Protein.RotatedTorsions>
[ 6907 6896 6895 6894 ] final -165.10 input  -60.11 | X-H torsion
[ 7974 7965 7964 7962 ] final -124.64 input  175.53 | X-H torsion
[ 8008 7997 7996 7995 ] final  144.91 input   59.86 | X-H torsion
[ 10167 10162 10161 10158 ] final  -68.04 input  -65.29 | X-H torsion
[ 10718 10713 10712 10709 ] final  -69.32 input   66.30 | X-H torsion
[ 10763 10752 10751 10750 ] final   57.95 input  -60.55 | X-H torsion
[ 11005 11000 10999 10996 ] final  133.69 input  -57.11 | X-H torsion

> <Gold.Protein.ActiveResidues>
 VAL166  LYS551  ARG553  GLY616  TRP617  ASP618  TYR619  PRO620  LYS621  CYS622 
 ASP623  PHE694  ASN695  SER759  ASP760  ASP761  ALA762  ILE779  LEU786  VAL792 
 PHE793  MET794  SER795  GLU796  ALA797  LYS798  CYS799  TRP800  GLU811  SER814 

> <Gold.Protein.RotatedAtoms>
  151.4223  133.3694  159.2757 H   0  0  0  0  0  0  0  0  0  0  0  0  # atno 6907 bound_to 6896
  150.9284  134.8701  159.7546 H   0  0  0  0  0  0  0  0  0  0  0  0  # atno 6908 bound_to 6896
  152.5016  134.4166  159.9519 H   0  0  0  0  0  0  0  0  0  0  0  0  # atno 6909 bound_to 6896
  145.0059  140.7863  143.4468 H   0  0  0  0  0  0  0  0  0  0  0  0  # atno 7974 bound_to 7965
  156.2896  140.2223  156.5130 H   0  0  0  0  0  0  0  0  0  0  0  0  # atno 8008 bound_to 7997
  154.7593  140.0474  157.0981 H   0  0  0  0  0  0  0  0  0  0  0  0  # atno 8009 bound_to 7997
  155.0011  140.3102  155.4870 H   0  0  0  0  0  0  0  0  0  0  0  0  # atno 8010 bound_to 7997
  140.5537  143.2312  151.6861 H   0  0  0  0  0  0  0  0  0  0  0  0  # atno 10167 bound_to 10162
  156.0461  130.4310  150.2130 H   0  0  0  0  0  0  0  0  0  0  0  0  # atno 10718 bound_to 10713
  152.9860  135.5624  154.5473 H   0  0  0  0  0  0  0  0  0  0  0  0  # atno 10763 bound_to 10752
  154.4916  135.2793  155.1494 H   0  0  0  0  0  0  0  0  0  0  0  0  # atno 10764 bound_to 10752
  154.2961  135.6316  153.5458 H   0  0  0  0  0  0  0  0  0  0  0  0  # atno 10765 bound_to 10752
  139.9868  134.9529  156.9761 H   0  0  0  0  0  0  0  0  0  0  0  0  # atno 11005 bound_to 11000
  145.2089  139.2215  143.5153 LP  0  0  0  0  0  0  0  0  0  0  0  0  # atno 17320 bound_to 7965
  146.3461  140.1922  142.8589 LP  0  0  0  0  0  0  0  0  0  0  0  0  # atno 17321 bound_to 7965
  139.5039  144.3775  152.0409 LP  0  0  0  0  0  0  0  0  0  0  0  0  # atno 17342 bound_to 10162
  140.2895  144.3770  150.6093 LP  0  0  0  0  0  0  0  0  0  0  0  0  # atno 17343 bound_to 10162
  157.0219  130.9982  151.3337 LP  0  0  0  0  0  0  0  0  0  0  0  0  # atno 17370 bound_to 10713
  157.5338  130.8075  149.7948 LP  0  0  0  0  0  0  0  0  0  0  0  0  # atno 17371 bound_to 10713
  140.4987  134.1119  155.7246 LP  0  0  0  0  0  0  0  0  0  0  0  0  # atno 17394 bound_to 11000
  141.1531  133.8932  157.2046 LP  0  0  0  0  0  0  0  0  0  0  0  0  # atno 17395 bound_to 11000

$$$$
