AV-unprocessed.smi:2645|AV-procd|sdf|10280|dock1
  -GOLD-   2272014293D 1   1.00000     0.00000
 Structure written by MMmdl.
 50 52  0  0  0  0  0  0  0  0  2 V2000
  149.8541  140.4143  156.9162 O   0  0  0  0  0  0  0  0  0  0  0  0
  149.5703  141.4520  156.3167 C   0  0  0  0  0  0  0  0  0  0  0  0
  148.8239  141.4742  155.2025 N   0  0  0  0  0  0  0  0  0  0  0  0
  148.2406  140.2951  154.5723 C   0  0  0  0  0  0  0  0  0  0  0  0
  147.3209  140.6755  153.3950 C   0  0  0  0  0  0  0  0  0  0  0  0
  146.3571  139.5995  153.0539 N   0  3  0  0  0  0  0  0  0  0  0  0
  146.8579  138.7286  151.9553 C   0  0  0  0  0  0  0  0  0  0  0  0
  145.8569  137.6092  151.6137 C   0  0  0  0  0  0  0  0  0  0  0  0
  145.5577  136.8530  152.8330 N   0  0  0  0  0  0  0  0  0  0  0  0
  145.9369  135.5642  153.0131 C   0  0  0  0  0  0  0  0  0  0  0  0
  145.7674  134.9791  154.0834 O   0  0  0  0  0  0  0  0  0  0  0  0
  146.5564  134.7945  151.8263 C   0  0  0  0  0  0  0  0  0  0  0  0
  145.5902  134.3672  150.7032 C   0  0  0  0  0  0  0  0  0  0  0  0
  145.5887  132.9432  151.2671 C   0  0  0  0  0  0  0  0  0  0  0  0
  146.8136  133.3052  152.1127 C   0  0  0  0  0  0  0  0  0  0  0  0
  144.9169  137.7076  153.8363 C   0  0  0  0  0  0  0  0  0  0  0  0
  145.8973  138.8231  154.2402 C   0  0  0  0  0  0  0  0  0  0  0  0
  149.9527  142.6899  156.6770 N   0  0  0  0  0  0  0  0  0  0  0  0
  150.7562  143.0707  157.7849 C   0  0  0  0  0  0  0  0  0  0  0  0
  150.9901  144.4592  157.9070 C   0  0  0  0  0  0  0  0  0  0  0  0
  151.7765  144.9380  158.9728 C   0  0  0  0  0  0  0  0  0  0  0  0
  152.3111  144.0149  159.8892 C   0  0  0  0  0  0  0  0  0  0  0  0
  152.0317  142.6497  159.6946 C   0  0  0  0  0  0  0  0  0  0  0  0
  151.2775  142.1886  158.6744 N   0  0  0  0  0  0  0  0  0  0  0  0
  148.6333  142.3675  154.7718 H   0  0  0  0  0  0  0  0  0  0  0  0
  149.0459  139.6324  154.2547 H   0  0  0  0  0  0  0  0  0  0  0  0
  147.6717  139.7525  155.3278 H   0  0  0  0  0  0  0  0  0  0  0  0
  146.7692  141.5742  153.6753 H   0  0  0  0  0  0  0  0  0  0  0  0
  147.9002  140.9363  152.5080 H   0  0  0  0  0  0  0  0  0  0  0  0
  147.0465  139.3323  151.0668 H   0  0  0  0  0  0  0  0  0  0  0  0
  147.8130  138.2905  152.2502 H   0  0  0  0  0  0  0  0  0  0  0  0
  144.9340  138.0363  151.2188 H   0  0  0  0  0  0  0  0  0  0  0  0
  146.2615  136.9872  150.8142 H   0  0  0  0  0  0  0  0  0  0  0  0
  147.4219  135.3123  151.4116 H   0  0  0  0  0  0  0  0  0  0  0  0
  144.6079  134.8409  150.6966 H   0  0  0  0  0  0  0  0  0  0  0  0
  146.0529  134.4270  149.7171 H   0  0  0  0  0  0  0  0  0  0  0  0
  144.7071  132.7319  151.8738 H   0  0  0  0  0  0  0  0  0  0  0  0
  145.7657  132.1635  150.5255 H   0  0  0  0  0  0  0  0  0  0  0  0
  147.7502  132.9527  151.6789 H   0  0  0  0  0  0  0  0  0  0  0  0
  146.7267  133.0091  153.1590 H   0  0  0  0  0  0  0  0  0  0  0  0
  144.0161  138.1461  153.4041 H   0  0  0  0  0  0  0  0  0  0  0  0
  144.5750  137.1699  154.7191 H   0  0  0  0  0  0  0  0  0  0  0  0
  146.7606  138.3876  154.7463 H   0  0  0  0  0  0  0  0  0  0  0  0
  145.4082  139.4803  154.9578 H   0  0  0  0  0  0  0  0  0  0  0  0
  149.6320  143.4486  156.0936 H   0  0  0  0  0  0  0  0  0  0  0  0
  150.5722  145.1554  157.1940 H   0  0  0  0  0  0  0  0  0  0  0  0
  151.9659  145.9956  159.0841 H   0  0  0  0  0  0  0  0  0  0  0  0
  152.9188  144.3434  160.7193 H   0  0  0  0  0  0  0  0  0  0  0  0
  152.4233  141.9080  160.3752 H   0  0  0  0  0  0  0  0  0  0  0  0
  145.5388  140.0591  152.6811 H   0  0  0  0  0  0  0  0  0  0  0  0
  1  2  2  0  0  0  0
  2  3  1  0  0  0  0
  2 18  1  0  0  0  0
  3  4  1  0  0  0  0
  3 25  1  0  0  0  0
  4  5  1  0  0  0  0
  4 26  1  0  0  0  0
  4 27  1  0  0  0  0
  5  6  1  0  0  0  0
  5 28  1  0  0  0  0
  5 29  1  0  0  0  0
  6 17  1  0  0  0  0
  6  7  1  0  0  0  0
  6 50  1  0  0  0  0
  7  8  1  0  0  0  0
  7 30  1  0  0  0  0
  7 31  1  0  0  0  0
  8  9  1  0  0  0  0
  8 32  1  0  0  0  0
  8 33  1  0  0  0  0
  9 10  1  0  0  0  0
  9 16  1  0  0  0  0
 10 11  2  0  0  0  0
 10 12  1  0  0  0  0
 12 15  1  0  0  0  0
 12 13  1  0  0  0  0
 12 34  1  0  0  0  0
 13 14  1  0  0  0  0
 13 35  1  0  0  0  0
 13 36  1  0  0  0  0
 14 15  1  0  0  0  0
 14 37  1  0  0  0  0
 14 38  1  0  0  0  0
 15 39  1  0  0  0  0
 15 40  1  0  0  0  0
 16 17  1  0  0  0  0
 16 41  1  0  0  0  0
 16 42  1  0  0  0  0
 17 43  1  0  0  0  0
 17 44  1  0  0  0  0
 18 19  1  0  0  0  0
 18 45  1  0  0  0  0
 19 24  1  0  0  0  0
 19 20  2  0  0  0  0
 20 21  1  0  0  0  0
 20 46  1  0  0  0  0
 21 22  2  0  0  0  0
 21 47  1  0  0  0  0
 22 23  1  0  0  0  0
 22 48  1  0  0  0  0
 23 24  2  0  0  0  0
 23 49  1  0  0  0  0
M  CHG  1   6   1
M  END
> <s_m_source_file>
AV-unprocessed.smi

> <i_m_source_file_index>
2645

> <i_lp_mmshare_version>
43012

> <i_f3d_flags>
0

> <s_epik_input>
bjFbY0hdW2NIXVtjSF1bY0hdYzFbTkhdQyg9TylbTkhdW0NIMl1bQ0gyXU4yW0NIMl1bQ0gyXU4oW0NIMl1bQ0gyXTIpQyg9TylbQ0hdM1tDSDJdW0NIMl1bQ0gyXTM=

> <s_epik_cmdline>
J2VwaWtfcHl0aG9uJywgJy1waCcsICc3LjAnLCAnLXRuJywgJzgnLCAnLW1hJywgJzIwMCcsICctbWV0YWxfYmluZGluZycsICctaW1hZScsICc8aW5maWxlLm1hZT4nLCAnLW9tYWUnLCAnPG91dGZpbGUubWFlPic=

> <r_epik_Ionization_Penalty>
0.58203

> <r_epik_Ionization_Penalty_Charging>
0.581996

> <r_epik_Ionization_Penalty_Neutral>
3.43439e-05

> <r_epik_State_Penalty>
0.594836

> <r_epik_Charging_Adjusted_Penalty>
1.17683

> <i_epik_Tot_Q>
1

> <i_epik_Tot_abs_Q>
1

> <r_epik_Metal_State_Penalty>
0.594839

> <b_epik_Metal_Only>
0

> <s_lp_Force_Field>
OPLS_2005

> <r_lp_Energy>
52.325

> <b_lp_Chiralities_Consistent>
1

> <s_lp_Variant>
AV-unprocessed.smi:2645-2

> <Gold.Version>
5.8.1

> <Gold.Id.Protein>
6NUR|6NUR_protein|mol2

> <Gold.PLP.Fitness>
51.8243

> <Gold.PLP.PLP>
-43.7394

> <Gold.PLP.part.hbond>
-2.0000

> <Gold.PLP.part.metal>
0.0000

> <Gold.PLP.part.buried>
1.0003

> <Gold.PLP.part.nonpolar>
-42.8991

> <Gold.PLP.part.repulsive>
0.3350

> <Gold.PLP.ligand.clash>
0.0000

> <Gold.PLP.ligand.torsion>
0.7119

> <Gold.PLP.Chemscore.Hbond>
3.0000

> <Gold.PLP.Chemscore.CHOScore>
0.0000

> <Gold.PLP.Chemscore.Metal>
0.0000

> <Gold.Chemscore.Hbonds>
donor molecule, donor type, donor heavy atom, donor atom, acceptor molecule, acceptor atom, score
      L1  H     6    50       P1 10175  2.00
      L1  H    18    45       P1  8028  1.00

> <Gold.PLP.Chemscore.Internal.Correction>
0.5087

> <Gold.Rescore>
     Score         DG    S(hbond)    S(metal)    S(lipo)     H(rot)  DE(clash)    DE(int)     intcor
     16.67     -19.95       1.96        0.00     107.00       1.79       1.25       2.04       ----

> <Gold.Chemscore.Fitness>
16.6658

> <Gold.Chemscore.DG>
-19.9547

> <Gold.Chemscore.ZeroCoef>
-5.4800

> <Gold.Chemscore.Hbond>
1.9570

> <Gold.Chemscore.Metal>
0.0000

> <Gold.Chemscore.Lipo>
107.0005

> <Gold.Chemscore.Internal_Hbond>
0.0000

> <Gold.Chemscore.DEClash>
1.2538

> <Gold.Chemscore.DEInternal>
2.0352

> <Gold.Chemscore.Rot>
1.7894

> <Gold.Chemscore.Internal.Correction>
   9.000000E+99

> <Gold.Chemscore.Hbonds>
donor molecule, donor type, donor heavy atom, donor atom, acceptor molecule, acceptor atom, score
      L1  H     3    25       P1  8028  0.01
      L1  H     6    50       P1 10175  0.95
      L1  H    18    45       P1  8028  0.93

> <Gold.Chemscore.Hbond.Weighted>
-6.5364

> <Gold.Chemscore.Metal.Weighted>
-0.0000

> <Gold.Chemscore.Lipo.Weighted>
-12.5191

> <Gold.Chemscore.Internal_Hbond.Weighted>
0.0000

> <Gold.Chemscore.DEClash.Weighted>
1.2538

> <Gold.Chemscore.DEInternal.Weighted>
2.0352

> <Gold.Chemscore.Rot.Weighted>
4.5807

> <Gold.Chemscore.Internal.Correction.Weighted>
   9.000000E+99

> <Gold.Protein.RotatedTorsions>
[ 6907 6896 6895 6894 ] final -132.13 input  -60.11 | X-H torsion
[ 7974 7965 7964 7962 ] final  -26.99 input  175.53 | X-H torsion
[ 8008 7997 7996 7995 ] final   37.50 input   59.86 | X-H torsion
[ 10167 10162 10161 10158 ] final  157.90 input  -65.29 | X-H torsion
[ 10718 10713 10712 10709 ] final  -79.73 input   66.30 | X-H torsion
[ 10763 10752 10751 10750 ] final  -98.68 input  -60.55 | X-H torsion
[ 11005 11000 10999 10996 ] final  168.15 input  -57.11 | X-H torsion

> <Gold.Protein.ActiveResidues>
 VAL166  LYS551  ARG553  GLY616  TRP617  ASP618  TYR619  PRO620  LYS621  CYS622 
 ASP623  PHE694  ASN695  SER759  ASP760  ASP761  ALA762  ILE779  LEU786  VAL792 
 PHE793  MET794  SER795  GLU796  ALA797  LYS798  CYS799  TRP800  GLU811  SER814 

> <Gold.Protein.RotatedAtoms>
  150.9589  133.6467  159.2757 H   0  0  0  0  0  0  0  0  0  0  0  0  # atno 6907 bound_to 6896
  151.3797  135.0936  159.9502 H   0  0  0  0  0  0  0  0  0  0  0  0  # atno 6908 bound_to 6896
  152.5140  133.9126  159.7550 H   0  0  0  0  0  0  0  0  0  0  0  0  # atno 6909 bound_to 6896
  146.1388  140.5093  142.8661 H   0  0  0  0  0  0  0  0  0  0  0  0  # atno 7974 bound_to 7965
  155.2048  140.3318  155.4337 H   0  0  0  0  0  0  0  0  0  0  0  0  # atno 8008 bound_to 7997
  156.2393  140.1887  156.7083 H   0  0  0  0  0  0  0  0  0  0  0  0  # atno 8009 bound_to 7997
  154.6117  140.0608  156.9488 H   0  0  0  0  0  0  0  0  0  0  0  0  # atno 8010 bound_to 7997
  139.4824  144.4875  151.8356 H   0  0  0  0  0  0  0  0  0  0  0  0  # atno 10167 bound_to 10162
  156.0086  130.4554  150.3692 H   0  0  0  0  0  0  0  0  0  0  0  0  # atno 10718 bound_to 10713
  154.7434  135.5000  153.9163 H   0  0  0  0  0  0  0  0  0  0  0  0  # atno 10763 bound_to 10752
  153.1067  135.6699  153.9582 H   0  0  0  0  0  0  0  0  0  0  0  0  # atno 10764 bound_to 10752
  153.9353  135.3073  155.3423 H   0  0  0  0  0  0  0  0  0  0  0  0  # atno 10765 bound_to 10752
  140.2842  134.7726  157.3784 H   0  0  0  0  0  0  0  0  0  0  0  0  # atno 11005 bound_to 11000
  144.7769  140.5759  143.6632 LP  0  0  0  0  0  0  0  0  0  0  0  0  # atno 17320 bound_to 7965
  145.5094  139.1480  143.3613 LP  0  0  0  0  0  0  0  0  0  0  0  0  # atno 17321 bound_to 7965
  140.4356  144.2056  150.5889 LP  0  0  0  0  0  0  0  0  0  0  0  0  # atno 17342 bound_to 10162
  140.4735  143.2404  151.9056 LP  0  0  0  0  0  0  0  0  0  0  0  0  # atno 17343 bound_to 10162
  157.1777  131.0384  151.2764 LP  0  0  0  0  0  0  0  0  0  0  0  0  # atno 17370 bound_to 10713
  157.4173  130.7418  149.6885 LP  0  0  0  0  0  0  0  0  0  0  0  0  # atno 17371 bound_to 10713
  140.1255  134.5163  155.8148 LP  0  0  0  0  0  0  0  0  0  0  0  0  # atno 17394 bound_to 11000
  141.2157  133.6771  156.6944 LP  0  0  0  0  0  0  0  0  0  0  0  0  # atno 17395 bound_to 11000

$$$$
