AV-unprocessed.smi:2172|AV-procd|sdf|8836|dock5
  -GOLD-   2272012 33D 1   1.00000     0.00000
 Structure written by MMmdl.
 37 39  0  0  0  0  0  0  0  0  2 V2000
  149.5616  141.0194  153.4797 O   0  0  0  0  0  0  0  0  0  0  0  0
  149.1860  140.5773  154.7653 C   0  0  0  0  0  0  0  0  0  0  0  0
  150.0317  141.1780  155.8395 C   0  0  0  0  0  0  0  0  0  0  0  0
  150.0978  142.5037  156.1476 N   0  3  0  0  0  0  0  0  0  0  0  0
  151.0096  142.7039  157.1841 C   0  0  0  0  0  0  0  0  0  0  0  0
  151.4159  143.8705  157.8246 C   0  0  0  0  0  0  0  0  0  0  0  0
  152.3790  143.7300  158.8448 C   0  0  0  0  0  0  0  0  0  0  0  0
  152.8977  142.4667  159.1946 C   0  0  0  0  0  0  0  0  0  0  0  0
  152.4745  141.2909  158.5412 C   0  0  0  0  0  0  0  0  0  0  0  0
  151.5234  141.4372  157.5305 C   0  0  0  0  0  0  0  0  0  0  0  0
  150.8926  140.5251  156.6736 N   0  0  0  0  0  0  0  0  0  0  0  0
  151.2260  139.0928  156.7583 C   0  0  0  0  0  0  0  0  0  0  0  0
  150.0352  138.2373  157.2358 C   0  0  2  0  0  0  0  0  0  0  0  0
  150.1971  137.9875  158.6166 O   0  0  0  0  0  0  0  0  0  0  0  0
  149.8821  136.9555  156.4288 C   0  0  0  0  0  0  0  0  0  0  0  0
  150.9261  136.0056  156.4161 C   0  0  0  0  0  0  0  0  0  0  0  0
  150.7816  134.8005  155.7018 C   0  0  0  0  0  0  0  0  0  0  0  0
  149.5926  134.5393  154.9937 C   0  0  0  0  0  0  0  0  0  0  0  0
  149.4133  133.0609  154.1228 Cl  0  0  0  0  0  0  0  0  0  0  0  0
  148.5487  135.4846  154.9999 C   0  0  0  0  0  0  0  0  0  0  0  0
  148.6925  136.6890  155.7153 C   0  0  0  0  0  0  0  0  0  0  0  0
  149.3569  140.3394  152.8556 H   0  0  0  0  0  0  0  0  0  0  0  0
  148.1421  140.8393  154.9390 H   0  0  0  0  0  0  0  0  0  0  0  0
  149.2521  139.4902  154.8045 H   0  0  0  0  0  0  0  0  0  0  0  0
  151.0212  144.8396  157.5566 H   0  0  0  0  0  0  0  0  0  0  0  0
  152.7280  144.6083  159.3684 H   0  0  0  0  0  0  0  0  0  0  0  0
  153.6364  142.3971  159.9800 H   0  0  0  0  0  0  0  0  0  0  0  0
  152.8854  140.3318  158.8180 H   0  0  0  0  0  0  0  0  0  0  0  0
  151.6078  138.7441  155.7990 H   0  0  0  0  0  0  0  0  0  0  0  0
  152.0562  139.0004  157.4590 H   0  0  0  0  0  0  0  0  0  0  0  0
  149.1181  138.8189  157.1376 H   0  0  0  0  0  0  0  0  0  0  0  0
  151.1202  137.8994  158.7992 H   0  0  0  0  0  0  0  0  0  0  0  0
  151.8378  136.1938  156.9645 H   0  0  0  0  0  0  0  0  0  0  0  0
  151.5833  134.0767  155.7005 H   0  0  0  0  0  0  0  0  0  0  0  0
  147.6351  135.2859  154.4592 H   0  0  0  0  0  0  0  0  0  0  0  0
  147.8815  137.4026  155.7226 H   0  0  0  0  0  0  0  0  0  0  0  0
  149.5623  143.2194  155.6736 H   0  0  0  0  0  0  0  0  0  0  0  0
  1  2  1  0  0  0  0
  1 22  1  0  0  0  0
  2  3  1  0  0  0  0
  2 23  1  0  0  0  0
  2 24  1  0  0  0  0
  3 11  1  0  0  0  0
  3  4  2  0  0  0  0
  4  5  1  0  0  0  0
  4 37  1  0  0  0  0
  5 10  2  0  0  0  0
  5  6  1  0  0  0  0
  6  7  2  0  0  0  0
  6 25  1  0  0  0  0
  7  8  1  0  0  0  0
  7 26  1  0  0  0  0
  8  9  2  0  0  0  0
  8 27  1  0  0  0  0
  9 10  1  0  0  0  0
  9 28  1  0  0  0  0
 10 11  1  0  0  0  0
 11 12  1  0  0  0  0
 12 13  1  0  0  0  0
 12 29  1  0  0  0  0
 12 30  1  0  0  0  0
 13 14  1  0  0  0  0
 13 15  1  0  0  0  0
 13 31  1  0  0  0  0
 14 32  1  0  0  0  0
 15 21  1  0  0  0  0
 15 16  2  0  0  0  0
 16 17  1  0  0  0  0
 16 33  1  0  0  0  0
 17 18  2  0  0  0  0
 17 34  1  0  0  0  0
 18 19  1  0  0  0  0
 18 20  1  0  0  0  0
 20 21  2  0  0  0  0
 20 35  1  0  0  0  0
 21 36  1  0  0  0  0
M  CHG  1   4   1
M  END
> <s_m_source_file>
AV-unprocessed.smi

> <i_m_source_file_index>
2172

> <i_lp_mmshare_version>
43012

> <i_f3d_flags>
0

> <s_epik_input>
W2NIXTFbY0hdW2NIXVtjSF1jKGMxMiluKGMobjIpW0NIMl1bT0hdKVtDSDJdW0NASF0oW09IXSljM1tjSF1bY0hdYyhDbClbY0hdW2NIXTM=

> <s_epik_cmdline>
J2VwaWtfcHl0aG9uJywgJy1waCcsICc3LjAnLCAnLXRuJywgJzgnLCAnLW1hJywgJzIwMCcsICctbWV0YWxfYmluZGluZycsICctaW1hZScsICc8aW5maWxlLm1hZT4nLCAnLW9tYWUnLCAnPG91dGZpbGUubWFlPic=

> <r_epik_Ionization_Penalty>
1.35643

> <r_epik_Ionization_Penalty_Charging>
1.35557

> <r_epik_Ionization_Penalty_Neutral>
0.000858184

> <r_epik_State_Penalty>
1.43401

> <r_epik_Charging_Adjusted_Penalty>
2.78958

> <i_epik_Tot_Q>
1

> <i_epik_Tot_abs_Q>
1

> <r_epik_Metal_State_Penalty>
5.47166

> <b_epik_Metal_Only>
0

> <s_lp_Force_Field>
OPLS_2005

> <r_lp_Energy>
15.2583

> <b_lp_Chiralities_Consistent>
1

> <s_lp_Variant>
AV-unprocessed.smi:2172-3

> <Gold.Version>
5.8.1

> <Gold.Id.Protein>
6NUR|6NUR_protein|mol2

> <Gold.PLP.Fitness>
50.0814

> <Gold.PLP.PLP>
-39.3851

> <Gold.PLP.part.hbond>
-3.9129

> <Gold.PLP.part.metal>
0.0000

> <Gold.PLP.part.buried>
-4.8525

> <Gold.PLP.part.nonpolar>
-31.4342

> <Gold.PLP.part.repulsive>
0.1145

> <Gold.PLP.ligand.clash>
0.0000

> <Gold.PLP.ligand.torsion>
0.6484

> <Gold.PLP.Chemscore.Hbond>
3.9920

> <Gold.PLP.Chemscore.CHOScore>
0.0000

> <Gold.PLP.Chemscore.Metal>
0.0000

> <Gold.Chemscore.Hbonds>
donor molecule, donor type, donor heavy atom, donor atom, acceptor molecule, acceptor atom, score
      L1  H     1    22       P1  7957  0.74
      L1  H     4    37       P1  8028  2.00
      P1  H  7989  7998       L1     1  0.24
      P1  H  8011  8017       L1     1  0.95

> <Gold.PLP.Chemscore.Internal.Correction>
0.0170

> <Gold.Rescore>
     Score         DG    S(hbond)    S(metal)    S(lipo)     H(rot)  DE(clash)    DE(int)     intcor
     17.64     -18.30       2.14        0.00     107.55       2.70       0.06       0.61       ----

> <Gold.Chemscore.Fitness>
17.6350

> <Gold.Chemscore.DG>
-18.2972

> <Gold.Chemscore.ZeroCoef>
-5.4800

> <Gold.Chemscore.Hbond>
2.1368

> <Gold.Chemscore.Metal>
0.0000

> <Gold.Chemscore.Lipo>
107.5457

> <Gold.Chemscore.Internal_Hbond>
0.0000

> <Gold.Chemscore.DEClash>
0.0557

> <Gold.Chemscore.DEInternal>
0.6065

> <Gold.Chemscore.Rot>
2.6963

> <Gold.Chemscore.Internal.Correction>
   9.000000E+99

> <Gold.Chemscore.Hbonds>
donor molecule, donor type, donor heavy atom, donor atom, acceptor molecule, acceptor atom, score
      L1  H     1    22       P1  7957  0.74
      L1  H     4    37       P1  8028  0.94
      P1  H  7989  7998       L1     1  0.03
      P1  H  8011  8017       L1     1  0.21

> <Gold.Chemscore.Hbond.Weighted>
-7.1368

> <Gold.Chemscore.Metal.Weighted>
-0.0000

> <Gold.Chemscore.Lipo.Weighted>
-12.5829

> <Gold.Chemscore.Internal_Hbond.Weighted>
0.0000

> <Gold.Chemscore.DEClash.Weighted>
0.0557

> <Gold.Chemscore.DEInternal.Weighted>
0.6065

> <Gold.Chemscore.Rot.Weighted>
6.9024

> <Gold.Chemscore.Internal.Correction.Weighted>
   9.000000E+99

> <Gold.Protein.RotatedTorsions>
[ 6907 6896 6895 6894 ] final  152.43 input  -60.11 | X-H torsion
[ 7974 7965 7964 7962 ] final  164.56 input  175.53 | X-H torsion
[ 8008 7997 7996 7995 ] final   46.31 input   59.86 | X-H torsion
[ 10167 10162 10161 10158 ] final  -52.55 input  -65.29 | X-H torsion
[ 10718 10713 10712 10709 ] final   -9.53 input   66.30 | X-H torsion
[ 10763 10752 10751 10750 ] final  149.26 input  -60.55 | X-H torsion
[ 11005 11000 10999 10996 ] final  126.76 input  -57.11 | X-H torsion

> <Gold.Protein.ActiveResidues>
 VAL166  LYS551  ARG553  GLY616  TRP617  ASP618  TYR619  PRO620  LYS621  CYS622 
 ASP623  PHE694  ASN695  SER759  ASP760  ASP761  ALA762  ILE779  LEU786  VAL792 
 PHE793  MET794  SER795  GLU796  ALA797  LYS798  CYS799  TRP800  GLU811  SER814 

> <Gold.Protein.RotatedAtoms>
  152.0869  133.4181  159.4525 H   0  0  0  0  0  0  0  0  0  0  0  0  # atno 6907 bound_to 6896
  150.6862  134.2917  159.4678 H   0  0  0  0  0  0  0  0  0  0  0  0  # atno 6908 bound_to 6896
  152.0764  134.9499  160.0624 H   0  0  0  0  0  0  0  0  0  0  0  0  # atno 6909 bound_to 6896
  144.7540  139.8344  143.6356 H   0  0  0  0  0  0  0  0  0  0  0  0  # atno 7974 bound_to 7965
  155.3504  140.3413  155.4239 H   0  0  0  0  0  0  0  0  0  0  0  0  # atno 8008 bound_to 7997
  156.1767  140.1650  156.8385 H   0  0  0  0  0  0  0  0  0  0  0  0  # atno 8009 bound_to 7997
  154.5289  140.0749  156.8292 H   0  0  0  0  0  0  0  0  0  0  0  0  # atno 8010 bound_to 7997
  140.6531  143.2580  151.4665 H   0  0  0  0  0  0  0  0  0  0  0  0  # atno 10167 bound_to 10162
  156.6866  130.5052  149.5955 H   0  0  0  0  0  0  0  0  0  0  0  0  # atno 10718 bound_to 10713
  154.0683  135.2868  155.3313 H   0  0  0  0  0  0  0  0  0  0  0  0  # atno 10763 bound_to 10752
  154.6763  135.5280  153.8207 H   0  0  0  0  0  0  0  0  0  0  0  0  # atno 10764 bound_to 10752
  153.0495  135.6570  154.0866 H   0  0  0  0  0  0  0  0  0  0  0  0  # atno 10765 bound_to 10752
  139.9473  134.9628  156.8755 H   0  0  0  0  0  0  0  0  0  0  0  0  # atno 11005 bound_to 11000
  146.1526  139.4614  143.0039 LP  0  0  0  0  0  0  0  0  0  0  0  0  # atno 17320 bound_to 7965
  145.6845  141.0182  143.1588 LP  0  0  0  0  0  0  0  0  0  0  0  0  # atno 17321 bound_to 7965
  139.5749  144.1842  152.1889 LP  0  0  0  0  0  0  0  0  0  0  0  0  # atno 17342 bound_to 10162
  140.1149  144.5424  150.6900 LP  0  0  0  0  0  0  0  0  0  0  0  0  # atno 17343 bound_to 10162
  156.1828  130.6510  151.0971 LP  0  0  0  0  0  0  0  0  0  0  0  0  # atno 17370 bound_to 10713
  157.7024  131.0770  150.6777 LP  0  0  0  0  0  0  0  0  0  0  0  0  # atno 17371 bound_to 10713
  140.5804  134.0357  155.7462 LP  0  0  0  0  0  0  0  0  0  0  0  0  # atno 17394 bound_to 11000
  141.1126  133.9591  157.2881 LP  0  0  0  0  0  0  0  0  0  0  0  0  # atno 17395 bound_to 11000

$$$$
