AV-unprocessed.smi:1126|AV-procd|sdf|4839|dock2
  -GOLD-   22720 3403D 1   1.00000     0.00000
 Structure written by MMmdl.
 47 48  0  0  0  0  0  0  0  0  1 V2000
  145.1806  143.8601  154.1916 C   0  0  0  0  0  0  0  0  0  0  0  0
  146.3241  143.1470  153.7548 O   0  0  0  0  0  0  0  0  0  0  0  0
  146.8196  142.2568  154.7416 C   0  0  0  0  0  0  0  0  0  0  0  0
  148.0143  141.4595  154.1916 C   0  0  0  0  0  0  0  0  0  0  0  0
  148.7912  140.7112  155.1822 N   0  0  0  0  0  0  0  0  0  0  0  0
  149.2404  141.5485  156.2978 C   0  0  0  0  0  0  0  0  0  0  0  0
  150.0280  140.7578  157.3571 C   0  0  0  0  0  0  0  0  0  0  0  0
  151.2407  140.0422  156.7269 C   0  0  0  0  0  0  0  0  0  0  0  0
  152.0137  139.1721  157.7350 C   0  0  0  0  0  0  0  0  0  0  0  0
  152.3814  139.9309  158.9229 N   0  0  0  0  0  0  0  0  0  0  0  0
  153.6322  140.0580  159.3883 C   0  0  0  0  0  0  0  0  0  0  0  0
  154.6141  139.5571  158.8407 O   0  0  0  0  0  0  0  0  0  0  0  0
  153.8029  140.8753  160.6694 C   0  0  0  0  0  0  0  0  0  0  0  0
  153.1733  142.1779  160.5464 N   0  0  0  0  0  0  0  0  0  0  0  0
  153.1064  142.9948  159.4373 C   0  0  0  0  0  0  0  0  0  0  0  0
  152.4239  144.1224  159.7973 C   0  0  0  0  0  0  0  0  0  0  0  0
  152.0791  145.3194  158.9591 C   0  0  0  0  0  0  0  0  0  0  0  0
  152.1115  143.8963  161.1679 C   0  0  0  0  0  0  0  0  0  0  0  0
  152.5599  142.7340  161.6135 N   0  0  0  0  0  0  0  0  0  0  0  0
  150.7588  139.2099  155.5251 C   0  0  0  0  0  0  0  0  0  0  0  0
  149.9469  140.0761  154.5485 C   0  0  0  0  0  0  0  0  0  0  0  0
  144.8483  144.5365  153.4044 H   0  0  0  0  0  0  0  0  0  0  0  0
  145.4030  144.4573  155.0768 H   0  0  0  0  0  0  0  0  0  0  0  0
  144.3580  143.1823  154.4236 H   0  0  0  0  0  0  0  0  0  0  0  0
  147.1040  142.7953  155.6472 H   0  0  0  0  0  0  0  0  0  0  0  0
  146.0239  141.5624  155.0158 H   0  0  0  0  0  0  0  0  0  0  0  0
  147.6083  140.7455  153.4741 H   0  0  0  0  0  0  0  0  0  0  0  0
  148.6662  142.1179  153.6156 H   0  0  0  0  0  0  0  0  0  0  0  0
  149.8538  142.3690  155.9221 H   0  0  0  0  0  0  0  0  0  0  0  0
  148.3837  142.0023  156.7936 H   0  0  0  0  0  0  0  0  0  0  0  0
  150.3509  141.4367  158.1468 H   0  0  0  0  0  0  0  0  0  0  0  0
  149.3696  140.0263  157.8278 H   0  0  0  0  0  0  0  0  0  0  0  0
  151.9229  140.8058  156.3496 H   0  0  0  0  0  0  0  0  0  0  0  0
  151.4104  138.3126  158.0313 H   0  0  0  0  0  0  0  0  0  0  0  0
  152.9191  138.7805  157.2684 H   0  0  0  0  0  0  0  0  0  0  0  0
  151.6328  140.3714  159.4385 H   0  0  0  0  0  0  0  0  0  0  0  0
  153.3534  140.3477  161.5117 H   0  0  0  0  0  0  0  0  0  0  0  0
  154.8629  140.9999  160.8976 H   0  0  0  0  0  0  0  0  0  0  0  0
  153.5478  142.7087  158.4939 H   0  0  0  0  0  0  0  0  0  0  0  0
  152.2053  146.2495  159.5136 H   0  0  0  0  0  0  0  0  0  0  0  0
  151.0441  145.2854  158.6190 H   0  0  0  0  0  0  0  0  0  0  0  0
  152.7075  145.3877  158.0708 H   0  0  0  0  0  0  0  0  0  0  0  0
  151.5745  144.5400  161.8490 H   0  0  0  0  0  0  0  0  0  0  0  0
  151.6112  138.7714  155.0054 H   0  0  0  0  0  0  0  0  0  0  0  0
  150.1436  138.3777  155.8703 H   0  0  0  0  0  0  0  0  0  0  0  0
  149.6127  139.4478  153.7221 H   0  0  0  0  0  0  0  0  0  0  0  0
  150.5953  140.8380  154.1123 H   0  0  0  0  0  0  0  0  0  0  0  0
  1  2  1  0  0  0  0
  1 22  1  0  0  0  0
  1 23  1  0  0  0  0
  1 24  1  0  0  0  0
  2  3  1  0  0  0  0
  3  4  1  0  0  0  0
  3 25  1  0  0  0  0
  3 26  1  0  0  0  0
  4  5  1  0  0  0  0
  4 27  1  0  0  0  0
  4 28  1  0  0  0  0
  5 21  1  0  0  0  0
  5  6  1  0  0  0  0
  6  7  1  0  0  0  0
  6 29  1  0  0  0  0
  6 30  1  0  0  0  0
  7  8  1  0  0  0  0
  7 31  1  0  0  0  0
  7 32  1  0  0  0  0
  8  9  1  0  0  0  0
  8 20  1  0  0  0  0
  8 33  1  0  0  0  0
  9 10  1  0  0  0  0
  9 34  1  0  0  0  0
  9 35  1  0  0  0  0
 10 11  1  0  0  0  0
 10 36  1  0  0  0  0
 11 12  2  0  0  0  0
 11 13  1  0  0  0  0
 13 14  1  0  0  0  0
 13 37  1  0  0  0  0
 13 38  1  0  0  0  0
 14 19  1  0  0  0  0
 14 15  1  0  0  0  0
 15 16  2  0  0  0  0
 15 39  1  0  0  0  0
 16 17  1  0  0  0  0
 16 18  1  0  0  0  0
 17 40  1  0  0  0  0
 17 41  1  0  0  0  0
 17 42  1  0  0  0  0
 18 19  2  0  0  0  0
 18 43  1  0  0  0  0
 20 21  1  0  0  0  0
 20 44  1  0  0  0  0
 20 45  1  0  0  0  0
 21 46  1  0  0  0  0
 21 47  1  0  0  0  0
M  END
> <s_m_source_file>
AV-unprocessed.smi

> <i_m_source_file_index>
1126

> <i_lp_mmshare_version>
43012

> <i_f3d_flags>
0

> <s_epik_input>
W0NIM11PW0NIMl1bQ0gyXU4xW0NIMl1bQ0gyXVtDSF0oW0NIMl1bQ0gyXTEpW0NIMl1bTkhdQyg9TylbQ0gyXW4yW2NIXWMoW0NIM10pW2NIXW4y

> <s_epik_cmdline>
J2VwaWtfcHl0aG9uJywgJy1waCcsICc3LjAnLCAnLXRuJywgJzgnLCAnLW1hJywgJzIwMCcsICctbWV0YWxfYmluZGluZycsICctaW1hZScsICc8aW5maWxlLm1hZT4nLCAnLW9tYWUnLCAnPG91dGZpbGUubWFlPic=

> <r_lp_tautomer_probability>
1

> <r_epik_Ionization_Penalty>
2.42913

> <r_epik_Ionization_Penalty_Charging>
0

> <r_epik_Ionization_Penalty_Neutral>
2.42913

> <r_epik_State_Penalty>
2.58903

> <r_epik_Charging_Adjusted_Penalty>
2.58903

> <i_epik_Tot_Q>
0

> <i_epik_Tot_abs_Q>
0

> <r_epik_Metal_State_Penalty>
2.58902

> <b_epik_Metal_Only>
0

> <s_lp_Force_Field>
OPLS_2005

> <r_lp_Energy>
26.3674

> <b_lp_Chiralities_Consistent>
1

> <s_lp_Variant>
AV-unprocessed.smi:1126-3

> <Gold.Version>
5.8.1

> <Gold.Id.Protein>
6NUR|6NUR_protein|mol2

> <Gold.PLP.Fitness>
48.6488

> <Gold.PLP.PLP>
-46.4535

> <Gold.PLP.part.hbond>
-1.2664

> <Gold.PLP.part.metal>
0.0000

> <Gold.PLP.part.buried>
-4.3397

> <Gold.PLP.part.nonpolar>
-41.8595

> <Gold.PLP.part.repulsive>
0.5194

> <Gold.PLP.ligand.clash>
0.0000

> <Gold.PLP.ligand.torsion>
0.4714

> <Gold.PLP.Chemscore.Hbond>
1.0000

> <Gold.PLP.Chemscore.CHOScore>
0.0000

> <Gold.PLP.Chemscore.Metal>
0.0000

> <Gold.Chemscore.Hbonds>
donor molecule, donor type, donor heavy atom, donor atom, acceptor molecule, acceptor atom, score
      P1  H  7997  8010       L1    12  1.00

> <Gold.PLP.Chemscore.Internal.Correction>
0.1380

> <Gold.Rescore>
     Score         DG    S(hbond)    S(metal)    S(lipo)     H(rot)  DE(clash)    DE(int)     intcor
     16.35     -16.77       0.98        0.00     112.81       2.03       0.01       0.41       ----

> <Gold.Chemscore.Fitness>
16.3488

> <Gold.Chemscore.DG>
-16.7702

> <Gold.Chemscore.ZeroCoef>
-5.4800

> <Gold.Chemscore.Hbond>
0.9816

> <Gold.Chemscore.Metal>
0.0000

> <Gold.Chemscore.Lipo>
112.8110

> <Gold.Chemscore.Internal_Hbond>
0.0000

> <Gold.Chemscore.DEClash>
0.0115

> <Gold.Chemscore.DEInternal>
0.4099

> <Gold.Chemscore.Rot>
2.0263

> <Gold.Chemscore.Internal.Correction>
   9.000000E+99

> <Gold.Chemscore.Hbonds>
donor molecule, donor type, donor heavy atom, donor atom, acceptor molecule, acceptor atom, score
      P1  H  7997  8010       L1    12  0.99

> <Gold.Chemscore.Hbond.Weighted>
-3.2785

> <Gold.Chemscore.Metal.Weighted>
-0.0000

> <Gold.Chemscore.Lipo.Weighted>
-13.1989

> <Gold.Chemscore.Internal_Hbond.Weighted>
0.0000

> <Gold.Chemscore.DEClash.Weighted>
0.0115

> <Gold.Chemscore.DEInternal.Weighted>
0.4099

> <Gold.Chemscore.Rot.Weighted>
5.1872

> <Gold.Chemscore.Internal.Correction.Weighted>
   9.000000E+99

> <Gold.Protein.RotatedTorsions>
[ 6907 6896 6895 6894 ] final  -53.69 input  -60.11 | X-H torsion
[ 7974 7965 7964 7962 ] final    9.58 input  175.53 | X-H torsion
[ 8008 7997 7996 7995 ] final   -5.83 input   59.86 | X-H torsion
[ 10167 10162 10161 10158 ] final  -11.58 input  -65.29 | X-H torsion
[ 10718 10713 10712 10709 ] final   42.44 input   66.30 | X-H torsion
[ 10763 10752 10751 10750 ] final -111.19 input  -60.55 | X-H torsion
[ 11005 11000 10999 10996 ] final   -9.10 input  -57.11 | X-H torsion

> <Gold.Protein.ActiveResidues>
 VAL166  LYS551  ARG553  GLY616  TRP617  ASP618  TYR619  PRO620  LYS621  CYS622 
 ASP623  PHE694  ASN695  SER759  ASP760  ASP761  ALA762  ILE779  LEU786  VAL792 
 PHE793  MET794  SER795  GLU796  ALA797  LYS798  CYS799  TRP800  GLU811  SER814 

> <Gold.Protein.RotatedAtoms>
  150.8405  134.7694  159.6927 H   0  0  0  0  0  0  0  0  0  0  0  0  # atno 6907 bound_to 6896
  152.4493  134.5425  159.9853 H   0  0  0  0  0  0  0  0  0  0  0  0  # atno 6908 bound_to 6896
  151.5566  133.3371  159.2999 H   0  0  0  0  0  0  0  0  0  0  0  0  # atno 6909 bound_to 6896
  146.2401  139.9762  142.8441 H   0  0  0  0  0  0  0  0  0  0  0  0  # atno 7974 bound_to 7965
  154.5999  140.2448  155.7807 H   0  0  0  0  0  0  0  0  0  0  0  0  # atno 8008 bound_to 7997
  156.2303  140.2968  156.0125 H   0  0  0  0  0  0  0  0  0  0  0  0  # atno 8009 bound_to 7997
  155.2230  140.0401  157.2941 H   0  0  0  0  0  0  0  0  0  0  0  0  # atno 8010 bound_to 7997
  140.7142  143.5624  150.9181 H   0  0  0  0  0  0  0  0  0  0  0  0  # atno 10167 bound_to 10162
  157.4049  130.7881  149.7380 H   0  0  0  0  0  0  0  0  0  0  0  0  # atno 10718 bound_to 10713
  154.8287  135.4536  154.1001 H   0  0  0  0  0  0  0  0  0  0  0  0  # atno 10763 bound_to 10752
  153.2292  135.6903  153.7916 H   0  0  0  0  0  0  0  0  0  0  0  0  # atno 10764 bound_to 10752
  153.7304  135.3328  155.3261 H   0  0  0  0  0  0  0  0  0  0  0  0  # atno 10765 bound_to 10752
  140.7305  133.8753  155.8889 H   0  0  0  0  0  0  0  0  0  0  0  0  # atno 11005 bound_to 11000
  145.1634  140.9684  143.4364 LP  0  0  0  0  0  0  0  0  0  0  0  0  # atno 17320 bound_to 7965
  145.0095  139.3523  143.6127 LP  0  0  0  0  0  0  0  0  0  0  0  0  # atno 17321 bound_to 7965
  139.9350  143.6449  152.3067 LP  0  0  0  0  0  0  0  0  0  0  0  0  # atno 17342 bound_to 10162
  139.6913  144.7646  151.1433 LP  0  0  0  0  0  0  0  0  0  0  0  0  # atno 17343 bound_to 10162
  155.9833  130.4001  150.3368 LP  0  0  0  0  0  0  0  0  0  0  0  0  # atno 17370 bound_to 10713
  157.1500  131.0318  151.2889 LP  0  0  0  0  0  0  0  0  0  0  0  0  # atno 17371 bound_to 10713
  140.9925  134.1260  157.4395 LP  0  0  0  0  0  0  0  0  0  0  0  0  # atno 17394 bound_to 11000
  139.8827  135.0044  156.6250 LP  0  0  0  0  0  0  0  0  0  0  0  0  # atno 17395 bound_to 11000

$$$$
