AV-unprocessed.smi:1326|AV-procd|sdf|5475|dock8
  -GOLD-   22720 5 43D 1   1.00000     0.00000
 Structure written by MMmdl.
 39 39  0  0  0  0  0  0  0  0  1 V2000
  146.8887  138.7864  152.5152 C   0  0  0  0  0  0  0  0  0  0  0  0
  148.0052  139.3724  153.3518 C   0  0  0  0  0  0  0  0  0  0  0  0
  149.2235  138.7377  153.1761 N   0  0  0  0  0  0  0  0  0  0  0  0
  150.3084  139.2078  153.8948 C   0  0  0  0  0  0  0  0  0  0  0  0
  151.6049  138.4590  153.6411 C   0  0  0  0  0  0  0  0  0  0  0  0
  150.1846  140.2552  154.7492 C   0  0  0  0  0  0  0  0  0  0  0  0
  151.3587  140.8052  155.5584 C   0  0  0  0  0  0  0  0  0  0  0  0
  151.0634  141.1309  157.0240 C   0  0  0  0  0  0  0  0  0  0  0  0
  150.8085  140.2240  157.8159 O   0  0  0  0  0  0  0  0  0  0  0  0
  151.1139  142.4257  157.3738 N   0  0  0  0  0  0  0  0  0  0  0  0
  150.8879  142.9415  158.7184 C   0  0  0  0  0  0  0  0  0  0  0  0
  152.0238  142.5277  159.6717 C   0  0  0  0  0  0  0  0  0  0  0  0
  151.8223  142.9866  161.1302 C   0  0  0  0  0  0  0  0  0  0  0  0
  151.4866  144.4840  161.2355 C   0  0  0  0  0  0  0  0  0  0  0  0
  153.0600  142.6545  161.9778 C   0  0  0  0  0  0  0  0  0  0  0  0
  148.8527  140.8882  154.9014 C   0  0  0  0  0  0  0  0  0  0  0  0
  148.6712  141.8295  155.6727 O   0  0  0  0  0  0  0  0  0  0  0  0
  147.7862  140.3778  154.1436 N   0  0  0  0  0  0  0  0  0  0  0  0
  149.3602  137.9567  152.5504 H   0  0  0  0  0  0  0  0  0  0  0  0
  145.9304  139.2408  152.7701 H   0  0  0  0  0  0  0  0  0  0  0  0
  146.8101  137.7118  152.6821 H   0  0  0  0  0  0  0  0  0  0  0  0
  147.0787  138.9606  151.4555 H   0  0  0  0  0  0  0  0  0  0  0  0
  151.9864  138.0316  154.5684 H   0  0  0  0  0  0  0  0  0  0  0  0
  152.3601  139.1313  153.2343 H   0  0  0  0  0  0  0  0  0  0  0  0
  151.4661  137.6432  152.9307 H   0  0  0  0  0  0  0  0  0  0  0  0
  151.7734  141.6960  155.0854 H   0  0  0  0  0  0  0  0  0  0  0  0
  152.1697  140.0769  155.5266 H   0  0  0  0  0  0  0  0  0  0  0  0
  151.3345  143.1023  156.6570 H   0  0  0  0  0  0  0  0  0  0  0  0
  150.8257  144.0267  158.6458 H   0  0  0  0  0  0  0  0  0  0  0  0
  149.9237  142.5988  159.0977 H   0  0  0  0  0  0  0  0  0  0  0  0
  152.1079  141.4400  159.6570 H   0  0  0  0  0  0  0  0  0  0  0  0
  152.9749  142.9071  159.2955 H   0  0  0  0  0  0  0  0  0  0  0  0
  150.9855  142.4257  161.5486 H   0  0  0  0  0  0  0  0  0  0  0  0
  152.2699  145.0982  160.7900 H   0  0  0  0  0  0  0  0  0  0  0  0
  151.3793  144.7883  162.2771 H   0  0  0  0  0  0  0  0  0  0  0  0
  150.5488  144.7233  160.7351 H   0  0  0  0  0  0  0  0  0  0  0  0
  153.9450  143.1719  161.6057 H   0  0  0  0  0  0  0  0  0  0  0  0
  153.2708  141.5847  161.9657 H   0  0  0  0  0  0  0  0  0  0  0  0
  152.9163  142.9471  163.0182 H   0  0  0  0  0  0  0  0  0  0  0  0
  1 20  1  0  0  0  0
  1 21  1  0  0  0  0
  1 22  1  0  0  0  0
  1  2  1  0  0  0  0
  2  3  1  0  0  0  0
  2 18  2  0  0  0  0
  3  4  1  0  0  0  0
  3 19  1  0  0  0  0
  4  6  2  0  0  0  0
  4  5  1  0  0  0  0
  5 23  1  0  0  0  0
  5 24  1  0  0  0  0
  5 25  1  0  0  0  0
  6 16  1  0  0  0  0
  6  7  1  0  0  0  0
  7  8  1  0  0  0  0
  7 26  1  0  0  0  0
  7 27  1  0  0  0  0
  8  9  2  0  0  0  0
  8 10  1  0  0  0  0
 10 11  1  0  0  0  0
 10 28  1  0  0  0  0
 11 12  1  0  0  0  0
 11 29  1  0  0  0  0
 11 30  1  0  0  0  0
 12 13  1  0  0  0  0
 12 31  1  0  0  0  0
 12 32  1  0  0  0  0
 13 14  1  0  0  0  0
 13 15  1  0  0  0  0
 13 33  1  0  0  0  0
 14 34  1  0  0  0  0
 14 35  1  0  0  0  0
 14 36  1  0  0  0  0
 15 37  1  0  0  0  0
 15 38  1  0  0  0  0
 15 39  1  0  0  0  0
 16 17  2  0  0  0  0
 16 18  1  0  0  0  0
M  END
> <s_m_source_file>
AV-unprocessed.smi

> <i_m_source_file_index>
1326

> <i_lp_mmshare_version>
43012

> <i_f3d_flags>
0

> <s_epik_input>
W0NIM11jMW5jKFtDSDNdKWMoYyg9TylbbkhdMSlbQ0gyXUMoPU8pW05IXVtDSDJdW0NIMl1bQ0hdKFtDSDNdKVtDSDNd

> <s_epik_cmdline>
J2VwaWtfcHl0aG9uJywgJy1waCcsICc3LjAnLCAnLXRuJywgJzgnLCAnLW1hJywgJzIwMCcsICctbWV0YWxfYmluZGluZycsICctaW1hZScsICc8aW5maWxlLm1hZT4nLCAnLW9tYWUnLCAnPG91dGZpbGUubWFlPic=

> <r_lp_tautomer_probability>
0.156392

> <r_epik_Ionization_Penalty>
0.0135605

> <r_epik_Ionization_Penalty_Charging>
0.013428

> <r_epik_Ionization_Penalty_Neutral>
0.000132491

> <r_epik_State_Penalty>
1.15342

> <r_epik_Charging_Adjusted_Penalty>
1.16684

> <i_epik_Tot_Q>
0

> <i_epik_Tot_abs_Q>
0

> <r_epik_Metal_State_Penalty>
1.31299

> <b_epik_Metal_Only>
0

> <s_lp_Force_Field>
OPLS_2005

> <r_lp_Energy>
9.03726

> <b_lp_Chiralities_Consistent>
1

> <s_lp_Variant>
AV-unprocessed.smi:1326-2

> <Gold.Version>
5.8.1

> <Gold.Id.Protein>
6NUR|6NUR_protein|mol2

> <Gold.PLP.Fitness>
40.2630

> <Gold.PLP.PLP>
-37.8879

> <Gold.PLP.part.hbond>
-2.0000

> <Gold.PLP.part.metal>
0.0000

> <Gold.PLP.part.buried>
-2.5972

> <Gold.PLP.part.nonpolar>
-33.6551

> <Gold.PLP.part.repulsive>
1.1171

> <Gold.PLP.ligand.clash>
0.0000

> <Gold.PLP.ligand.torsion>
0.3298

> <Gold.PLP.Chemscore.Hbond>
1.0000

> <Gold.PLP.Chemscore.CHOScore>
0.0000

> <Gold.PLP.Chemscore.Metal>
0.0000

> <Gold.Chemscore.Hbonds>
donor molecule, donor type, donor heavy atom, donor atom, acceptor molecule, acceptor atom, score
      L1  H     3    19       P1  7948  1.00

> <Gold.PLP.Chemscore.Internal.Correction>
0.0347

> <Gold.Rescore>
     Score         DG    S(hbond)    S(metal)    S(lipo)     H(rot)  DE(clash)    DE(int)     intcor
     10.02     -14.81       1.00        0.00      92.58       1.89       0.10       4.69       ----

> <Gold.Chemscore.Fitness>
10.0189

> <Gold.Chemscore.DG>
-14.8065

> <Gold.Chemscore.ZeroCoef>
-5.4800

> <Gold.Chemscore.Hbond>
0.9992

> <Gold.Chemscore.Metal>
0.0000

> <Gold.Chemscore.Lipo>
92.5769

> <Gold.Chemscore.Internal_Hbond>
0.0000

> <Gold.Chemscore.DEClash>
0.0975

> <Gold.Chemscore.DEInternal>
4.6902

> <Gold.Chemscore.Rot>
1.8916

> <Gold.Chemscore.Internal.Correction>
   9.000000E+99

> <Gold.Chemscore.Hbonds>
donor molecule, donor type, donor heavy atom, donor atom, acceptor molecule, acceptor atom, score
      L1  H     3    19       P1  7948  0.81

> <Gold.Chemscore.Hbond.Weighted>
-3.3374

> <Gold.Chemscore.Metal.Weighted>
-0.0000

> <Gold.Chemscore.Lipo.Weighted>
-10.8315

> <Gold.Chemscore.Internal_Hbond.Weighted>
0.0000

> <Gold.Chemscore.DEClash.Weighted>
0.0975

> <Gold.Chemscore.DEInternal.Weighted>
4.6902

> <Gold.Chemscore.Rot.Weighted>
4.8424

> <Gold.Chemscore.Internal.Correction.Weighted>
   9.000000E+99

> <Gold.Protein.RotatedTorsions>
[ 6907 6896 6895 6894 ] final  168.32 input  -60.11 | X-H torsion
[ 7974 7965 7964 7962 ] final  -77.40 input  175.53 | X-H torsion
[ 8008 7997 7996 7995 ] final   53.89 input   59.86 | X-H torsion
[ 10167 10162 10161 10158 ] final  -32.76 input  -65.29 | X-H torsion
[ 10718 10713 10712 10709 ] final  -16.46 input   66.30 | X-H torsion
[ 10763 10752 10751 10750 ] final   74.87 input  -60.55 | X-H torsion
[ 11005 11000 10999 10996 ] final    7.73 input  -57.11 | X-H torsion

> <Gold.Protein.ActiveResidues>
 VAL166  LYS551  ARG553  GLY616  TRP617  ASP618  TYR619  PRO620  LYS621  CYS622 
 ASP623  PHE694  ASN695  SER759  ASP760  ASP761  ALA762  ILE779  LEU786  VAL792 
 PHE793  MET794  SER795  GLU796  ALA797  LYS798  CYS799  TRP800  GLU811  SER814 

> <Gold.Protein.RotatedAtoms>
  151.8495  133.3437  159.3668 H   0  0  0  0  0  0  0  0  0  0  0  0  # atno 6907 bound_to 6896
  150.7211  134.5313  159.5711 H   0  0  0  0  0  0  0  0  0  0  0  0  # atno 6908 bound_to 6896
  152.2804  134.7836  160.0449 H   0  0  0  0  0  0  0  0  0  0  0  0  # atno 6909 bound_to 6896
  145.6002  140.9410  143.1245 H   0  0  0  0  0  0  0  0  0  0  0  0  # atno 7974 bound_to 7965
  155.4758  140.3467  155.4332 H   0  0  0  0  0  0  0  0  0  0  0  0  # atno 8008 bound_to 7997
  156.1071  140.1451  156.9418 H   0  0  0  0  0  0  0  0  0  0  0  0  # atno 8009 bound_to 7997
  154.4731  140.0894  156.7174 H   0  0  0  0  0  0  0  0  0  0  0  0  # atno 8010 bound_to 7997
  140.7216  143.3671  151.1850 H   0  0  0  0  0  0  0  0  0  0  0  0  # atno 10167 bound_to 10162
  156.5873  130.4790  149.6294 H   0  0  0  0  0  0  0  0  0  0  0  0  # atno 10718 bound_to 10713
  153.0616  135.5010  154.8105 H   0  0  0  0  0  0  0  0  0  0  0  0  # atno 10763 bound_to 10752
  154.6891  135.2981  154.9508 H   0  0  0  0  0  0  0  0  0  0  0  0  # atno 10764 bound_to 10752
  154.0269  135.6735  153.4830 H   0  0  0  0  0  0  0  0  0  0  0  0  # atno 10765 bound_to 10752
  140.5449  134.0338  155.7917 H   0  0  0  0  0  0  0  0  0  0  0  0  # atno 11005 bound_to 11000
  144.7313  139.7717  143.7346 LP  0  0  0  0  0  0  0  0  0  0  0  0  # atno 17320 bound_to 7965
  146.1582  139.4687  143.0005 LP  0  0  0  0  0  0  0  0  0  0  0  0  # atno 17321 bound_to 7965
  139.7235  143.9186  152.2994 LP  0  0  0  0  0  0  0  0  0  0  0  0  # atno 17342 bound_to 10162
  139.8951  144.6944  150.8727 LP  0  0  0  0  0  0  0  0  0  0  0  0  # atno 17343 bound_to 10162
  156.2580  130.6945  151.1705 LP  0  0  0  0  0  0  0  0  0  0  0  0  # atno 17370 bound_to 10713
  157.7312  131.0610  150.5689 LP  0  0  0  0  0  0  0  0  0  0  0  0  # atno 17371 bound_to 10713
  141.1205  133.9469  157.2738 LP  0  0  0  0  0  0  0  0  0  0  0  0  # atno 17394 bound_to 11000
  139.9485  135.0180  156.8923 LP  0  0  0  0  0  0  0  0  0  0  0  0  # atno 17395 bound_to 11000

$$$$
