AV-unprocessed.smi:845|AV-procd|sdf|3933|dock10
  -GOLD-   22720 1393D 1   1.00000     0.00000
 Structure written by MMmdl.
 41 42  0  0  0  0  0  0  0  0  2 V2000
  149.7545  141.9703  155.9057 C   0  0  0  0  0  0  0  0  0  0  0  0
  148.9935  140.6955  155.5038 C   0  0  0  0  0  0  0  0  0  0  0  0
  147.4851  140.9760  155.3569 C   0  0  0  0  0  0  0  0  0  0  0  0
  149.3993  139.4653  156.3769 C   0  0  2  0  0  0  0  0  0  0  0  0
  148.5847  139.3340  157.6924 C   0  0  0  0  0  0  0  0  0  0  0  0
  148.8185  138.0499  158.3492 N   0  0  0  0  0  0  0  0  0  0  0  0
  149.6862  137.8032  159.3412 C   0  0  0  0  0  0  0  0  0  0  0  0
  150.4029  138.7063  159.7785 O   0  0  0  0  0  0  0  0  0  0  0  0
  149.6693  136.5195  159.7670 N   0  5  0  0  0  0  0  0  0  0  0  0
  148.7922  136.1365  160.7091 C   0  0  0  0  0  0  0  0  0  0  0  0
  147.9464  136.9836  161.3070 N   0  0  0  0  0  0  0  0  0  0  0  0
  147.1207  136.3698  162.2508 C   0  0  0  0  0  0  0  0  0  0  0  0
  147.3358  135.0222  162.3668 C   0  0  0  0  0  0  0  0  0  0  0  0
  148.5904  134.4806  161.2888 S   0  0  0  0  0  0  0  0  0  0  0  0
  150.8548  139.2642  156.5280 N   0  0  0  0  0  0  0  0  0  0  0  0
  151.6468  139.4645  155.3147 C   0  0  0  0  0  0  0  0  0  0  0  0
  153.1319  139.1371  155.5465 C   0  0  0  0  0  0  0  0  0  0  0  0
  153.6363  139.9249  156.6201 O   0  0  0  0  0  0  0  0  0  0  0  0
  152.9165  139.7259  157.8326 C   0  0  0  0  0  0  0  0  0  0  0  0
  151.4310  140.0577  157.6116 C   0  0  0  0  0  0  0  0  0  0  0  0
  149.4446  142.3286  156.8877 H   0  0  0  0  0  0  0  0  0  0  0  0
  149.5759  142.7738  155.1907 H   0  0  0  0  0  0  0  0  0  0  0  0
  150.8299  141.7933  155.9389 H   0  0  0  0  0  0  0  0  0  0  0  0
  149.3366  140.4670  154.4941 H   0  0  0  0  0  0  0  0  0  0  0  0
  147.0614  141.4491  156.2400 H   0  0  0  0  0  0  0  0  0  0  0  0
  146.9132  140.0747  155.1418 H   0  0  0  0  0  0  0  0  0  0  0  0
  147.3117  141.6633  154.5286 H   0  0  0  0  0  0  0  0  0  0  0  0
  149.0590  138.6252  155.7692 H   0  0  0  0  0  0  0  0  0  0  0  0
  148.8809  140.1028  158.4047 H   0  0  0  0  0  0  0  0  0  0  0  0
  147.5238  139.4970  157.5031 H   0  0  0  0  0  0  0  0  0  0  0  0
  148.2582  137.2732  158.0302 H   0  0  0  0  0  0  0  0  0  0  0  0
  146.4059  136.9698  162.7938 H   0  0  0  0  0  0  0  0  0  0  0  0
  146.8359  134.3186  163.0151 H   0  0  0  0  0  0  0  0  0  0  0  0
  151.2814  138.8434  154.5038 H   0  0  0  0  0  0  0  0  0  0  0  0
  151.5647  140.4986  154.9795 H   0  0  0  0  0  0  0  0  0  0  0  0
  153.2621  138.0773  155.7712 H   0  0  0  0  0  0  0  0  0  0  0  0
  153.7112  139.3473  154.6475 H   0  0  0  0  0  0  0  0  0  0  0  0
  153.0362  138.6952  158.1698 H   0  0  0  0  0  0  0  0  0  0  0  0
  153.3373  140.3675  158.6068 H   0  0  0  0  0  0  0  0  0  0  0  0
  151.3381  141.1216  157.3934 H   0  0  0  0  0  0  0  0  0  0  0  0
  150.8837  139.8781  158.5375 H   0  0  0  0  0  0  0  0  0  0  0  0
  1  2  1  0  0  0  0
  1 21  1  0  0  0  0
  1 22  1  0  0  0  0
  1 23  1  0  0  0  0
  2  3  1  0  0  0  0
  2  4  1  0  0  0  0
  2 24  1  0  0  0  0
  3 25  1  0  0  0  0
  3 26  1  0  0  0  0
  3 27  1  0  0  0  0
  4  5  1  0  0  0  0
  4 15  1  0  0  0  0
  4 28  1  0  0  0  0
  5  6  1  0  0  0  0
  5 29  1  0  0  0  0
  5 30  1  0  0  0  0
  6  7  1  0  0  0  0
  6 31  1  0  0  0  0
  7  8  2  0  0  0  0
  7  9  1  0  0  0  0
  9 10  1  0  0  0  0
 10 14  1  0  0  0  0
 10 11  2  0  0  0  0
 11 12  1  0  0  0  0
 12 13  2  0  0  0  0
 12 32  1  0  0  0  0
 13 14  1  0  0  0  0
 13 33  1  0  0  0  0
 15 20  1  0  0  0  0
 15 16  1  0  0  0  0
 16 17  1  0  0  0  0
 16 34  1  0  0  0  0
 16 35  1  0  0  0  0
 17 18  1  0  0  0  0
 17 36  1  0  0  0  0
 17 37  1  0  0  0  0
 18 19  1  0  0  0  0
 19 20  1  0  0  0  0
 19 38  1  0  0  0  0
 19 39  1  0  0  0  0
 20 40  1  0  0  0  0
 20 41  1  0  0  0  0
M  CHG  1   9  -1
M  END
> <s_m_source_file>
AV-unprocessed.smi

> <i_m_source_file_index>
845

> <i_lp_mmshare_version>
43012

> <i_f3d_flags>
0

> <s_epik_input>
W0NIMl0xW0NIMl1PW0NIMl1bQ0gyXU4xW0NASF0oW0NIXShbQ0gzXSlbQ0gzXSlbQ0gyXVtOSF1DKD1PKVtOSF1jMm5bY0hdW2NIXXMy

> <s_epik_cmdline>
J2VwaWtfcHl0aG9uJywgJy1waCcsICc3LjAnLCAnLXRuJywgJzgnLCAnLW1hJywgJzIwMCcsICctbWV0YWxfYmluZGluZycsICctaW1hZScsICc8aW5maWxlLm1hZT4nLCAnLW9tYWUnLCAnPG91dGZpbGUubWFlPic=

> <r_lp_tautomer_probability>
0.999

> <r_epik_Ionization_Penalty>
9.02543

> <r_epik_Ionization_Penalty_Charging>
6.76546

> <r_epik_Ionization_Penalty_Neutral>
2.25997

> <r_epik_State_Penalty>
7.18984

> <r_epik_Charging_Adjusted_Penalty>
13.9553

> <i_epik_Tot_Q>
-1

> <i_epik_Tot_abs_Q>
1

> <r_epik_Metal_State_Penalty>
3.11401

> <b_epik_Metal_Only>
1

> <s_lp_Force_Field>
OPLS_2005

> <r_lp_Energy>
34.1255

> <b_lp_Chiralities_Consistent>
1

> <s_lp_Variant>
AV-unprocessed.smi:845-7

> <Gold.Version>
5.8.1

> <Gold.Id.Protein>
6NUR|6NUR_protein|mol2

> <Gold.PLP.Fitness>
40.6912

> <Gold.PLP.PLP>
-31.4071

> <Gold.PLP.part.hbond>
-4.5346

> <Gold.PLP.part.metal>
0.0000

> <Gold.PLP.part.buried>
-4.2142

> <Gold.PLP.part.nonpolar>
-23.7081

> <Gold.PLP.part.repulsive>
0.1177

> <Gold.PLP.ligand.clash>
0.0000

> <Gold.PLP.ligand.torsion>
1.4638

> <Gold.PLP.Chemscore.Hbond>
3.9071

> <Gold.PLP.Chemscore.CHOScore>
0.0000

> <Gold.PLP.Chemscore.Metal>
0.0000

> <Gold.Chemscore.Hbonds>
donor molecule, donor type, donor heavy atom, donor atom, acceptor molecule, acceptor atom, score
      P1  H  6896  6909       L1     9  1.73
      P1  H  6931  6943       L1    11  1.00
      P1  H  6934  6947       L1    11  0.43

> <Gold.PLP.Chemscore.Internal.Correction>
0.4903

> <Gold.Rescore>
     Score         DG    S(hbond)    S(metal)    S(lipo)     H(rot)  DE(clash)    DE(int)     intcor
     13.18     -16.17       1.95        0.00      73.11       1.71       0.29       2.71       ----

> <Gold.Chemscore.Fitness>
13.1758

> <Gold.Chemscore.DG>
-16.1720

> <Gold.Chemscore.ZeroCoef>
-5.4800

> <Gold.Chemscore.Hbond>
1.9495

> <Gold.Chemscore.Metal>
0.0000

> <Gold.Chemscore.Lipo>
73.1062

> <Gold.Chemscore.Internal_Hbond>
0.0000

> <Gold.Chemscore.DEClash>
0.2876

> <Gold.Chemscore.DEInternal>
2.7086

> <Gold.Chemscore.Rot>
1.7081

> <Gold.Chemscore.Internal.Correction>
   9.000000E+99

> <Gold.Chemscore.Hbonds>
donor molecule, donor type, donor heavy atom, donor atom, acceptor molecule, acceptor atom, score
      P1  H  6896  6909       L1     9  0.16
      P1  H  6931  6943       L1    11  0.32
      P1  H  6934  6947       L1    11  0.30

> <Gold.Chemscore.Hbond.Weighted>
-6.5114

> <Gold.Chemscore.Metal.Weighted>
-0.0000

> <Gold.Chemscore.Lipo.Weighted>
-8.5534

> <Gold.Chemscore.Internal_Hbond.Weighted>
0.0000

> <Gold.Chemscore.DEClash.Weighted>
0.2876

> <Gold.Chemscore.DEInternal.Weighted>
2.7086

> <Gold.Chemscore.Rot.Weighted>
4.3728

> <Gold.Chemscore.Internal.Correction.Weighted>
   9.000000E+99

> <Gold.Protein.RotatedTorsions>
[ 6907 6896 6895 6894 ] final   64.57 input  -60.11 | X-H torsion
[ 7974 7965 7964 7962 ] final  114.91 input  175.53 | X-H torsion
[ 8008 7997 7996 7995 ] final  100.07 input   59.86 | X-H torsion
[ 10167 10162 10161 10158 ] final  -31.40 input  -65.29 | X-H torsion
[ 10718 10713 10712 10709 ] final -127.63 input   66.30 | X-H torsion
[ 10763 10752 10751 10750 ] final   44.09 input  -60.55 | X-H torsion
[ 11005 11000 10999 10996 ] final   86.10 input  -57.11 | X-H torsion

> <Gold.Protein.ActiveResidues>
 VAL166  LYS551  ARG553  GLY616  TRP617  ASP618  TYR619  PRO620  LYS621  CYS622 
 ASP623  PHE694  ASN695  SER759  ASP760  ASP761  ALA762  ILE779  LEU786  VAL792 
 PHE793  MET794  SER795  GLU796  ALA797  LYS798  CYS799  TRP800  GLU811  SER814 

> <Gold.Protein.RotatedAtoms>
  152.4342  134.5719  159.9923 H   0  0  0  0  0  0  0  0  0  0  0  0  # atno 6907 bound_to 6896
  151.5834  133.3369  159.3021 H   0  0  0  0  0  0  0  0  0  0  0  0  # atno 6908 bound_to 6896
  150.8238  134.7494  159.6859 H   0  0  0  0  0  0  0  0  0  0  0  0  # atno 6909 bound_to 6896
  145.1985  139.2964  143.4330 H   0  0  0  0  0  0  0  0  0  0  0  0  # atno 7974 bound_to 7965
  156.1167  140.3219  155.8150 H   0  0  0  0  0  0  0  0  0  0  0  0  # atno 8008 bound_to 7997
  155.4577  140.0537  157.3011 H   0  0  0  0  0  0  0  0  0  0  0  0  # atno 8009 bound_to 7997
  154.4798  140.2048  155.9805 H   0  0  0  0  0  0  0  0  0  0  0  0  # atno 8010 bound_to 7997
  140.7237  143.3774  151.1664 H   0  0  0  0  0  0  0  0  0  0  0  0  # atno 10167 bound_to 10162
  156.1875  130.6773  151.0383 H   0  0  0  0  0  0  0  0  0  0  0  0  # atno 10718 bound_to 10713
  152.9848  135.6081  154.3217 H   0  0  0  0  0  0  0  0  0  0  0  0  # atno 10763 bound_to 10752
  154.2926  135.2774  155.2649 H   0  0  0  0  0  0  0  0  0  0  0  0  # atno 10764 bound_to 10752
  154.4938  135.5885  153.6535 H   0  0  0  0  0  0  0  0  0  0  0  0  # atno 10765 bound_to 10752
  139.8953  134.8332  156.2673 H   0  0  0  0  0  0  0  0  0  0  0  0  # atno 11005 bound_to 11000
  146.3422  140.2222  142.8591 LP  0  0  0  0  0  0  0  0  0  0  0  0  # atno 17320 bound_to 7965
  144.9971  140.8598  143.5304 LP  0  0  0  0  0  0  0  0  0  0  0  0  # atno 17321 bound_to 7965
  139.7357  143.9003  152.3034 LP  0  0  0  0  0  0  0  0  0  0  0  0  # atno 17342 bound_to 10162
  139.8807  144.7019  150.8881 LP  0  0  0  0  0  0  0  0  0  0  0  0  # atno 17343 bound_to 10162
  157.6908  131.0810  150.7112 LP  0  0  0  0  0  0  0  0  0  0  0  0  # atno 17370 bound_to 10713
  156.7169  130.4669  149.5533 LP  0  0  0  0  0  0  0  0  0  0  0  0  # atno 17371 bound_to 10713
  141.0123  133.7088  156.1132 LP  0  0  0  0  0  0  0  0  0  0  0  0  # atno 17394 bound_to 11000
  140.7350  134.4213  157.5561 LP  0  0  0  0  0  0  0  0  0  0  0  0  # atno 17395 bound_to 11000

$$$$
