AV-unprocessed.smi:618|AV-procd|sdf|3085|dock1
  -GOLD-   22720 0 03D 1   1.00000     0.00000
 Structure written by MMmdl.
 40 42  0  0  0  0  0  0  0  0  1 V2000
  150.9910  139.9199  149.5690 O   0  0  0  0  0  0  0  0  0  0  0  0
  150.4410  138.9714  150.1278 C   0  0  0  0  0  0  0  0  0  0  0  0
  149.9264  137.9223  149.4711 N   0  0  0  0  0  0  0  0  0  0  0  0
  149.9544  137.7395  148.0236 C   0  0  0  0  0  0  0  0  0  0  0  0
  150.3950  136.3166  147.6409 C   0  0  1  0  0  0  0  0  0  0  0  0
  149.5450  135.2415  148.3572 C   0  0  0  0  0  0  0  0  0  0  0  0
  149.9181  133.9219  147.8855 N   0  0  0  0  0  0  0  0  0  0  0  0
  149.1630  132.8043  148.4023 C   0  0  0  0  0  0  0  0  0  0  0  0
  149.4891  131.6486  147.4396 C   0  0  0  0  0  0  0  0  0  0  0  0
  150.0023  132.3459  146.1599 C   0  0  0  0  0  0  0  0  0  0  0  0
  149.7557  133.8252  146.4601 C   0  0  2  0  0  0  0  0  0  0  0  0
  150.6376  134.8566  145.7422 C   0  0  0  0  0  0  0  0  0  0  0  0
  150.2740  136.1534  146.2217 O   0  0  0  0  0  0  0  0  0  0  0  0
  150.2906  138.8314  151.4561 N   0  0  0  0  0  0  0  0  0  0  0  0
  150.6943  139.7156  152.4929 C   0  0  0  0  0  0  0  0  0  0  0  0
  151.0494  141.0720  152.2939 C   0  0  0  0  0  0  0  0  0  0  0  0
  151.4154  141.8493  153.4097 C   0  0  0  0  0  0  0  0  0  0  0  0
  151.4063  141.2461  154.6822 C   0  0  0  0  0  0  0  0  0  0  0  0
  151.0577  139.9586  154.8884 N   0  0  0  0  0  0  0  0  0  0  0  0
  150.7079  139.2196  153.8139 C   0  0  0  0  0  0  0  0  0  0  0  0
  149.4972  137.1864  150.0126 H   0  0  0  0  0  0  0  0  0  0  0  0
  148.9451  137.9205  147.6529 H   0  0  0  0  0  0  0  0  0  0  0  0
  150.5942  138.4832  147.5455 H   0  0  0  0  0  0  0  0  0  0  0  0
  151.4424  136.1816  147.9173 H   0  0  0  0  0  0  0  0  0  0  0  0
  149.6886  135.3045  149.4363 H   0  0  0  0  0  0  0  0  0  0  0  0
  148.4852  135.4193  148.1667 H   0  0  0  0  0  0  0  0  0  0  0  0
  149.4309  132.5805  149.4352 H   0  0  0  0  0  0  0  0  0  0  0  0
  148.0945  133.0239  148.3687 H   0  0  0  0  0  0  0  0  0  0  0  0
  150.2619  131.0003  147.8540 H   0  0  0  0  0  0  0  0  0  0  0  0
  148.6065  131.0380  147.2474 H   0  0  0  0  0  0  0  0  0  0  0  0
  151.0674  132.1505  146.0270 H   0  0  0  0  0  0  0  0  0  0  0  0
  149.4807  132.0153  145.2614 H   0  0  0  0  0  0  0  0  0  0  0  0
  148.7151  134.0427  146.2090 H   0  0  0  0  0  0  0  0  0  0  0  0
  151.6963  134.6723  145.9306 H   0  0  0  0  0  0  0  0  0  0  0  0
  150.4834  134.8140  144.6640 H   0  0  0  0  0  0  0  0  0  0  0  0
  149.8879  137.9589  151.7656 H   0  0  0  0  0  0  0  0  0  0  0  0
  151.0356  141.5341  151.3192 H   0  0  0  0  0  0  0  0  0  0  0  0
  151.6921  142.8867  153.2928 H   0  0  0  0  0  0  0  0  0  0  0  0
  151.6804  141.8147  155.5586 H   0  0  0  0  0  0  0  0  0  0  0  0
  150.4329  138.1946  154.0170 H   0  0  0  0  0  0  0  0  0  0  0  0
  1  2  2  0  0  0  0
  2  3  1  0  0  0  0
  2 14  1  0  0  0  0
  3  4  1  0  0  0  0
  3 21  1  0  0  0  0
  4  5  1  0  0  0  0
  4 22  1  0  0  0  0
  4 23  1  0  0  0  0
  5 13  1  0  0  0  0
  5  6  1  0  0  0  0
  5 24  1  0  0  0  0
  6  7  1  0  0  0  0
  6 25  1  0  0  0  0
  6 26  1  0  0  0  0
  7 11  1  0  0  0  0
  7  8  1  0  0  0  0
  8  9  1  0  0  0  0
  8 27  1  0  0  0  0
  8 28  1  0  0  0  0
  9 10  1  0  0  0  0
  9 29  1  0  0  0  0
  9 30  1  0  0  0  0
 10 11  1  0  0  0  0
 10 31  1  0  0  0  0
 10 32  1  0  0  0  0
 11 12  1  0  0  0  0
 11 33  1  0  0  0  0
 12 13  1  0  0  0  0
 12 34  1  0  0  0  0
 12 35  1  0  0  0  0
 14 15  1  0  0  0  0
 14 36  1  0  0  0  0
 15 20  1  0  0  0  0
 15 16  2  0  0  0  0
 16 17  1  0  0  0  0
 16 37  1  0  0  0  0
 17 18  2  0  0  0  0
 17 38  1  0  0  0  0
 18 19  1  0  0  0  0
 18 39  1  0  0  0  0
 19 20  2  0  0  0  0
 20 40  1  0  0  0  0
M  END
> <s_m_source_file>
AV-unprocessed.smi

> <i_m_source_file_index>
618

> <i_lp_mmshare_version>
43012

> <i_f3d_flags>
0

> <s_epik_input>
W2NIXTFuW2NIXVtjSF1bY0hdYzFbTkhdQyg9TylbTkhdW0NIMl1bQ0BIXShbQ0gyXTIpT1tDSDJdW0NAQEhdKE4yMylbQ0gyXVtDSDJdW0NIMl0z

> <s_epik_cmdline>
J2VwaWtfcHl0aG9uJywgJy1waCcsICc3LjAnLCAnLXRuJywgJzgnLCAnLW1hJywgJzIwMCcsICctbWV0YWxfYmluZGluZycsICctaW1hZScsICc8aW5maWxlLm1hZT4nLCAnLW9tYWUnLCAnPG91dGZpbGUubWFlPic=

> <r_epik_Ionization_Penalty>
1.07277

> <r_epik_Ionization_Penalty_Charging>
0

> <r_epik_Ionization_Penalty_Neutral>
1.07277

> <r_epik_State_Penalty>
1.13623

> <r_epik_Charging_Adjusted_Penalty>
1.13623

> <i_epik_Tot_Q>
0

> <i_epik_Tot_abs_Q>
0

> <r_epik_Metal_State_Penalty>
1.13277

> <b_epik_Metal_Only>
0

> <s_lp_Force_Field>
OPLS_2005

> <r_lp_Energy>
50.6397

> <b_lp_Chiralities_Consistent>
1

> <s_lp_Variant>
AV-unprocessed.smi:618-12

> <Gold.Version>
5.8.1

> <Gold.Id.Protein>
6NUR|6NUR_protein|mol2

> <Gold.PLP.Fitness>
-765.7400

> <Gold.PLP.PLP>
766.6407

> <Gold.PLP.part.hbond>
5.0765

> <Gold.PLP.part.metal>
0.0000

> <Gold.PLP.part.buried>
390.4420

> <Gold.PLP.part.nonpolar>
348.5533

> <Gold.PLP.part.repulsive>
36.1497

> <Gold.PLP.ligand.clash>
0.0000

> <Gold.PLP.ligand.torsion>
0.1524

> <Gold.PLP.Chemscore.Hbond>
0.4000

> <Gold.PLP.Chemscore.CHOScore>
0.0000

> <Gold.PLP.Chemscore.Metal>
0.0000

> <Gold.Chemscore.Hbonds>
donor molecule, donor type, donor heavy atom, donor atom, acceptor molecule, acceptor atom, score
      L1  H    14    36       P1  7948  0.40

> <Gold.PLP.Chemscore.Internal.Correction>
0.0056

> <Gold.Rescore>
     Score         DG    S(hbond)    S(metal)    S(lipo)     H(rot)  DE(clash)    DE(int)     intcor
      5.20     -12.13       0.01        0.00      83.90       1.25       5.54       1.38       ----

> <Gold.Chemscore.Fitness>
5.2002

> <Gold.Chemscore.DG>
-12.1271

> <Gold.Chemscore.ZeroCoef>
-5.4800

> <Gold.Chemscore.Hbond>
0.0064

> <Gold.Chemscore.Metal>
0.0000

> <Gold.Chemscore.Lipo>
83.8952

> <Gold.Chemscore.Internal_Hbond>
0.0000

> <Gold.Chemscore.DEClash>
5.5429

> <Gold.Chemscore.DEInternal>
1.3841

> <Gold.Chemscore.Rot>
1.2461

> <Gold.Chemscore.Internal.Correction>
   9.000000E+99

> <Gold.Chemscore.Hbonds>
donor molecule, donor type, donor heavy atom, donor atom, acceptor molecule, acceptor atom, score
      L1  H    14    36       P1  7948  0.01

> <Gold.Chemscore.Hbond.Weighted>
-0.0215

> <Gold.Chemscore.Metal.Weighted>
-0.0000

> <Gold.Chemscore.Lipo.Weighted>
-9.8157

> <Gold.Chemscore.Internal_Hbond.Weighted>
0.0000

> <Gold.Chemscore.DEClash.Weighted>
5.5429

> <Gold.Chemscore.DEInternal.Weighted>
1.3841

> <Gold.Chemscore.Rot.Weighted>
3.1901

> <Gold.Chemscore.Internal.Correction.Weighted>
   9.000000E+99

> <Gold.Protein.RotatedTorsions>
[ 6907 6896 6895 6894 ] final   11.61 input  -60.11 | X-H torsion
[ 7974 7965 7964 7962 ] final  157.25 input  175.53 | X-H torsion
[ 8008 7997 7996 7995 ] final  156.89 input   59.86 | X-H torsion
[ 10167 10162 10161 10158 ] final  -76.54 input  -65.29 | X-H torsion
[ 10718 10713 10712 10709 ] final   55.05 input   66.30 | X-H torsion
[ 10763 10752 10751 10750 ] final  -56.34 input  -60.55 | X-H torsion
[ 11005 11000 10999 10996 ] final  167.89 input  -57.11 | X-H torsion

> <Gold.Protein.ActiveResidues>
 VAL166  LYS551  ARG553  GLY616  TRP617  ASP618  TYR619  PRO620  LYS621  CYS622 
 ASP623  PHE694  ASN695  SER759  ASP760  ASP761  ALA762  ILE779  LEU786  VAL792 
 PHE793  MET794  SER795  GLU796  ALA797  LYS798  CYS799  TRP800  GLU811  SER814 

> <Gold.Protein.RotatedAtoms>
  151.7570  135.0819  160.0339 H   0  0  0  0  0  0  0  0  0  0  0  0  # atno 6907 bound_to 6896
  152.3378  133.6028  159.5863 H   0  0  0  0  0  0  0  0  0  0  0  0  # atno 6908 bound_to 6896
  150.7461  133.9684  159.3580 H   0  0  0  0  0  0  0  0  0  0  0  0  # atno 6909 bound_to 6896
  144.7915  139.7314  143.6219 H   0  0  0  0  0  0  0  0  0  0  0  0  # atno 7974 bound_to 7965
  156.2396  140.1900  156.7025 H   0  0  0  0  0  0  0  0  0  0  0  0  # atno 8008 bound_to 7997
  154.6172  140.0613  156.9595 H   0  0  0  0  0  0  0  0  0  0  0  0  # atno 8009 bound_to 7997
  155.1921  140.3285  155.4359 H   0  0  0  0  0  0  0  0  0  0  0  0  # atno 8010 bound_to 7997
  140.4848  143.2393  151.8001 H   0  0  0  0  0  0  0  0  0  0  0  0  # atno 10167 bound_to 10162
  157.5311  130.8631  149.8688 H   0  0  0  0  0  0  0  0  0  0  0  0  # atno 10718 bound_to 10713
  154.2050  135.6404  153.5098 H   0  0  0  0  0  0  0  0  0  0  0  0  # atno 10763 bound_to 10752
  153.0003  135.5460  154.6275 H   0  0  0  0  0  0  0  0  0  0  0  0  # atno 10764 bound_to 10752
  154.5697  135.2916  155.0812 H   0  0  0  0  0  0  0  0  0  0  0  0  # atno 10765 bound_to 10752
  140.2815  134.7746  157.3762 H   0  0  0  0  0  0  0  0  0  0  0  0  # atno 11005 bound_to 11000
  146.2168  139.5564  142.9645 LP  0  0  0  0  0  0  0  0  0  0  0  0  # atno 17320 bound_to 7965
  145.5783  141.0386  143.2136 LP  0  0  0  0  0  0  0  0  0  0  0  0  # atno 17321 bound_to 7965
  139.4840  144.4726  151.9406 LP  0  0  0  0  0  0  0  0  0  0  0  0  # atno 17342 bound_to 10162
  140.3812  144.2734  150.5908 LP  0  0  0  0  0  0  0  0  0  0  0  0  # atno 17343 bound_to 10162
  156.0423  130.3736  150.1405 LP  0  0  0  0  0  0  0  0  0  0  0  0  # atno 17370 bound_to 10713
  156.9589  130.9798  151.3483 LP  0  0  0  0  0  0  0  0  0  0  0  0  # atno 17371 bound_to 10713
  140.1279  134.5134  155.8130 LP  0  0  0  0  0  0  0  0  0  0  0  0  # atno 17394 bound_to 11000
  141.2162  133.6779  156.6985 LP  0  0  0  0  0  0  0  0  0  0  0  0  # atno 17395 bound_to 11000

$$$$
