AV-unprocessed.smi:2061|AV-procd|sdf|8373|dock4
  -GOLD-   2272011 43D 1   1.00000     0.00000
 Structure written by MMmdl.
 46 47  0  0  0  0  0  0  0  0  2 V2000
  153.3541  137.7237  157.1258 C   0  0  0  0  0  0  0  0  0  0  0  0
  152.4734  138.3414  156.0942 C   0  0  0  0  0  0  0  0  0  0  0  0
  151.3893  137.8815  155.4010 C   0  0  0  0  0  0  0  0  0  0  0  0
  151.0393  138.9889  154.5836 C   0  0  0  0  0  0  0  0  0  0  0  0
  149.9400  138.9149  153.6909 N   0  0  0  0  0  0  0  0  0  0  0  0
  148.6561  138.6593  153.9933 C   0  0  0  0  0  0  0  0  0  0  0  0
  148.2242  138.4241  155.1224 O   0  0  0  0  0  0  0  0  0  0  0  0
  147.8792  138.6992  152.9010 N   0  0  0  0  0  0  0  0  0  0  0  0
  146.4343  138.4884  152.8993 C   0  0  0  0  0  0  0  0  0  0  0  0
  145.9692  137.4489  151.8427 C   0  0  1  0  0  0  0  0  0  0  0  0
  146.4024  137.9060  150.4284 C   0  0  0  0  0  0  0  0  0  0  0  0
  146.4684  136.0766  152.1965 N   0  3  1  0  0  0  0  0  0  0  0  0
  146.2922  135.7054  153.6281 C   0  0  0  0  0  0  0  0  0  0  0  0
  144.8314  135.3078  153.9408 C   0  0  2  0  0  0  0  0  0  0  0  0
  144.6680  134.8140  155.3826 C   0  0  0  0  0  0  0  0  0  0  0  0
  144.4305  134.2560  153.0683 O   0  0  0  0  0  0  0  0  0  0  0  0
  144.5092  134.6110  151.6917 C   0  0  2  0  0  0  0  0  0  0  0  0
  143.9876  133.4303  150.8660 C   0  0  0  0  0  0  0  0  0  0  0  0
  145.9763  134.9497  151.3582 C   0  0  0  0  0  0  0  0  0  0  0  0
  151.8373  140.0307  154.7611 N   0  0  0  0  0  0  0  0  0  0  0  0
  152.7599  139.6214  155.7313 O   0  0  0  0  0  0  0  0  0  0  0  0
  153.1835  136.6490  157.1909 H   0  0  0  0  0  0  0  0  0  0  0  0
  153.1609  138.1567  158.1074 H   0  0  0  0  0  0  0  0  0  0  0  0
  154.4052  137.8843  156.8853 H   0  0  0  0  0  0  0  0  0  0  0  0
  150.9248  136.9089  155.4695 H   0  0  0  0  0  0  0  0  0  0  0  0
  150.1539  139.0865  152.7196 H   0  0  0  0  0  0  0  0  0  0  0  0
  148.3146  138.8941  152.0110 H   0  0  0  0  0  0  0  0  0  0  0  0
  146.1431  138.1544  153.8957 H   0  0  0  0  0  0  0  0  0  0  0  0
  145.9644  139.4604  152.7584 H   0  0  0  0  0  0  0  0  0  0  0  0
  144.8803  137.4226  151.8381 H   0  0  0  0  0  0  0  0  0  0  0  0
  146.0810  138.9250  150.2139 H   0  0  0  0  0  0  0  0  0  0  0  0
  145.9567  137.2926  149.6458 H   0  0  0  0  0  0  0  0  0  0  0  0
  147.4864  137.8755  150.3141 H   0  0  0  0  0  0  0  0  0  0  0  0
  146.9446  134.8554  153.8342 H   0  0  0  0  0  0  0  0  0  0  0  0
  146.6229  136.4920  154.3022 H   0  0  0  0  0  0  0  0  0  0  0  0
  144.1662  136.1603  153.8003 H   0  0  0  0  0  0  0  0  0  0  0  0
  144.9505  135.5877  156.0968 H   0  0  0  0  0  0  0  0  0  0  0  0
  145.2890  133.9387  155.5744 H   0  0  0  0  0  0  0  0  0  0  0  0
  143.6329  134.5378  155.5853 H   0  0  0  0  0  0  0  0  0  0  0  0
  143.8679  135.4731  151.5026 H   0  0  0  0  0  0  0  0  0  0  0  0
  144.0186  133.6538  149.7994 H   0  0  0  0  0  0  0  0  0  0  0  0
  142.9542  133.1994  151.1264 H   0  0  0  0  0  0  0  0  0  0  0  0
  144.5830  132.5331  151.0380 H   0  0  0  0  0  0  0  0  0  0  0  0
  146.1179  135.1306  150.2940 H   0  0  0  0  0  0  0  0  0  0  0  0
  146.5967  134.0780  151.5724 H   0  0  0  0  0  0  0  0  0  0  0  0
  147.4642  136.1164  152.0327 H   0  0  0  0  0  0  0  0  0  0  0  0
  1  2  1  0  0  0  0
  1 22  1  0  0  0  0
  1 23  1  0  0  0  0
  1 24  1  0  0  0  0
  2 21  1  0  0  0  0
  2  3  2  0  0  0  0
  3  4  1  0  0  0  0
  3 25  1  0  0  0  0
  4  5  1  0  0  0  0
  4 20  2  0  0  0  0
  5  6  1  0  0  0  0
  5 26  1  0  0  0  0
  6  7  2  0  0  0  0
  6  8  1  0  0  0  0
  8  9  1  0  0  0  0
  8 27  1  0  0  0  0
  9 10  1  0  0  0  0
  9 28  1  0  0  0  0
  9 29  1  0  0  0  0
 10 11  1  0  0  0  0
 10 12  1  0  0  0  0
 10 30  1  0  0  0  0
 11 31  1  0  0  0  0
 11 32  1  0  0  0  0
 11 33  1  0  0  0  0
 12 19  1  0  0  0  0
 12 13  1  0  0  0  0
 12 46  1  0  0  0  0
 13 14  1  0  0  0  0
 13 34  1  0  0  0  0
 13 35  1  0  0  0  0
 14 15  1  0  0  0  0
 14 16  1  0  0  0  0
 14 36  1  0  0  0  0
 15 37  1  0  0  0  0
 15 38  1  0  0  0  0
 15 39  1  0  0  0  0
 16 17  1  0  0  0  0
 17 18  1  0  0  0  0
 17 19  1  0  0  0  0
 17 40  1  0  0  0  0
 18 41  1  0  0  0  0
 18 42  1  0  0  0  0
 18 43  1  0  0  0  0
 19 44  1  0  0  0  0
 19 45  1  0  0  0  0
 20 21  1  0  0  0  0
M  CHG  1  12   1
M  END
> <s_m_source_file>
AV-unprocessed.smi

> <i_m_source_file_index>
2061

> <i_lp_mmshare_version>
43012

> <i_f3d_flags>
0

> <s_epik_input>
W0NIM11jMVtjSF1jKG5vMSlbTkhdQyg9TylbTkhdW0NIMl1bQ0BIXShbQ0gzXSlOMltDSDJdW0NAQEhdKFtDSDNdKU9bQ0BASF0oW0NIM10pW0NIMl0y

> <s_epik_cmdline>
J2VwaWtfcHl0aG9uJywgJy1waCcsICc3LjAnLCAnLXRuJywgJzgnLCAnLW1hJywgJzIwMCcsICctbWV0YWxfYmluZGluZycsICctaW1hZScsICc8aW5maWxlLm1hZT4nLCAnLW9tYWUnLCAnPG91dGZpbGUubWFlPic=

> <r_epik_Ionization_Penalty>
0.707076

> <r_epik_Ionization_Penalty_Charging>
0.707039

> <r_epik_Ionization_Penalty_Neutral>
3.6548e-05

> <r_epik_State_Penalty>
0.730276

> <r_epik_Charging_Adjusted_Penalty>
1.43732

> <i_epik_Tot_Q>
1

> <i_epik_Tot_abs_Q>
1

> <r_epik_Metal_State_Penalty>
0.743132

> <b_epik_Metal_Only>
0

> <s_lp_Force_Field>
OPLS_2005

> <r_lp_Energy>
17.8186

> <b_lp_Chiralities_Consistent>
1

> <s_lp_Variant>
AV-unprocessed.smi:2061-14

> <Gold.Version>
5.8.1

> <Gold.Id.Protein>
6NUR|6NUR_protein|mol2

> <Gold.PLP.Fitness>
44.5676

> <Gold.PLP.PLP>
-28.2921

> <Gold.PLP.part.hbond>
-5.8223

> <Gold.PLP.part.metal>
0.0000

> <Gold.PLP.part.buried>
1.6656

> <Gold.PLP.part.nonpolar>
-24.3907

> <Gold.PLP.part.repulsive>
0.3871

> <Gold.PLP.ligand.clash>
0.0000

> <Gold.PLP.ligand.torsion>
0.6993

> <Gold.PLP.Chemscore.Hbond>
5.8720

> <Gold.PLP.Chemscore.CHOScore>
0.0000

> <Gold.PLP.Chemscore.Metal>
0.0000

> <Gold.Chemscore.Hbonds>
donor molecule, donor type, donor heavy atom, donor atom, acceptor molecule, acceptor atom, score
      L1  H     5    26       P1  7957  0.91
      L1  H     8    27       P1  7957  0.88
      L1  H    12    46       P1  7948  1.76
      P1  H  7989  7998       L1    20  0.92
      P1  H  7997  8009       L1    21  1.00

> <Gold.PLP.Chemscore.Internal.Correction>
0.0582

> <Gold.Rescore>
     Score         DG    S(hbond)    S(metal)    S(lipo)     H(rot)  DE(clash)    DE(int)     intcor
     20.87     -23.62       4.37        0.00      64.93       1.58       2.22       0.53       ----

> <Gold.Chemscore.Fitness>
20.8746

> <Gold.Chemscore.DG>
-23.6249

> <Gold.Chemscore.ZeroCoef>
-5.4800

> <Gold.Chemscore.Hbond>
4.3719

> <Gold.Chemscore.Metal>
0.0000

> <Gold.Chemscore.Lipo>
64.9254

> <Gold.Chemscore.Internal_Hbond>
0.0000

> <Gold.Chemscore.DEClash>
2.2236

> <Gold.Chemscore.DEInternal>
0.5267

> <Gold.Chemscore.Rot>
1.5834

> <Gold.Chemscore.Internal.Correction>
   9.000000E+99

> <Gold.Chemscore.Hbonds>
donor molecule, donor type, donor heavy atom, donor atom, acceptor molecule, acceptor atom, score
      L1  H     5    26       P1  7957  0.63
      L1  H     8    27       P1  7957  0.83
      L1  H    12    46       P1  7948  0.86
      P1  H  7989  7998       L1    20  0.41
      P1  H  7997  8009       L1    21  0.91

> <Gold.Chemscore.Hbond.Weighted>
-14.6021

> <Gold.Chemscore.Metal.Weighted>
-0.0000

> <Gold.Chemscore.Lipo.Weighted>
-7.5963

> <Gold.Chemscore.Internal_Hbond.Weighted>
0.0000

> <Gold.Chemscore.DEClash.Weighted>
2.2236

> <Gold.Chemscore.DEInternal.Weighted>
0.5267

> <Gold.Chemscore.Rot.Weighted>
4.0535

> <Gold.Chemscore.Internal.Correction.Weighted>
   9.000000E+99

> <Gold.Protein.RotatedTorsions>
[ 6907 6896 6895 6894 ] final   67.45 input  -60.11 | X-H torsion
[ 7974 7965 7964 7962 ] final  -34.25 input  175.53 | X-H torsion
[ 8008 7997 7996 7995 ] final -148.86 input   59.86 | X-H torsion
[ 10167 10162 10161 10158 ] final -147.02 input  -65.29 | X-H torsion
[ 10718 10713 10712 10709 ] final  -58.04 input   66.30 | X-H torsion
[ 10763 10752 10751 10750 ] final -143.22 input  -60.55 | X-H torsion
[ 11005 11000 10999 10996 ] final   35.08 input  -57.11 | X-H torsion

> <Gold.Protein.ActiveResidues>
 VAL166  LYS551  ARG553  GLY616  TRP617  ASP618  TYR619  PRO620  LYS621  CYS622 
 ASP623  PHE694  ASN695  SER759  ASP760  ASP761  ALA762  ILE779  LEU786  VAL792 
 PHE793  MET794  SER795  GLU796  ALA797  LYS798  CYS799  TRP800  GLU811  SER814 

> <Gold.Protein.RotatedAtoms>
  152.4552  134.5306  159.9809 H   0  0  0  0  0  0  0  0  0  0  0  0  # atno 6907 bound_to 6896
  151.5369  133.3433  159.2936 H   0  0  0  0  0  0  0  0  0  0  0  0  # atno 6908 bound_to 6896
  150.8494  134.7845  159.7059 H   0  0  0  0  0  0  0  0  0  0  0  0  # atno 6909 bound_to 6896
  146.0845  140.6015  142.8893 H   0  0  0  0  0  0  0  0  0  0  0  0  # atno 7974 bound_to 7965
  155.5983  140.0659  157.2740 H   0  0  0  0  0  0  0  0  0  0  0  0  # atno 8008 bound_to 7997
  154.4286  140.1823  156.1194 H   0  0  0  0  0  0  0  0  0  0  0  0  # atno 8009 bound_to 7997
  156.0179  140.3320  155.7011 H   0  0  0  0  0  0  0  0  0  0  0  0  # atno 8010 bound_to 7997
  139.7660  143.8307  152.2616 H   0  0  0  0  0  0  0  0  0  0  0  0  # atno 10167 bound_to 10162
  156.1165  130.4170  150.0522 H   0  0  0  0  0  0  0  0  0  0  0  0  # atno 10718 bound_to 10713
  154.8478  135.3474  154.6152 H   0  0  0  0  0  0  0  0  0  0  0  0  # atno 10763 bound_to 10752
  153.6761  135.6982  153.5137 H   0  0  0  0  0  0  0  0  0  0  0  0  # atno 10764 bound_to 10752
  153.2704  135.4294  155.0939 H   0  0  0  0  0  0  0  0  0  0  0  0  # atno 10765 bound_to 10752
  140.2463  134.3355  155.7906 H   0  0  0  0  0  0  0  0  0  0  0  0  # atno 11005 bound_to 11000
  144.7316  140.4688  143.6934 LP  0  0  0  0  0  0  0  0  0  0  0  0  # atno 17320 bound_to 7965
  145.6156  139.1518  143.3051 LP  0  0  0  0  0  0  0  0  0  0  0  0  # atno 17321 bound_to 7965
  139.8327  144.7246  150.9429 LP  0  0  0  0  0  0  0  0  0  0  0  0  # atno 17342 bound_to 10162
  140.7811  143.4055  151.1079 LP  0  0  0  0  0  0  0  0  0  0  0  0  # atno 17343 bound_to 10162
  156.8472  130.9446  151.3628 LP  0  0  0  0  0  0  0  0  0  0  0  0  # atno 17370 bound_to 10713
  157.6348  130.8758  149.9340 LP  0  0  0  0  0  0  0  0  0  0  0  0  # atno 17371 bound_to 10713
  141.2206  133.7328  156.8966 LP  0  0  0  0  0  0  0  0  0  0  0  0  # atno 17394 bound_to 11000
  140.1602  134.9170  157.2705 LP  0  0  0  0  0  0  0  0  0  0  0  0  # atno 17395 bound_to 11000

$$$$
