AV-unprocessed.smi:3160|AV-procd|sdf|12052|dock1
  -GOLD-   2272017483D 1   1.00000     0.00000
 Structure written by MMmdl.
 40 41  0  0  0  0  0  0  0  0  2 V2000
  153.6291  137.8886  156.5044 C   0  0  0  0  0  0  0  0  0  0  0  0
  152.4960  138.6638  155.8960 C   0  0  0  0  0  0  0  0  0  0  0  0
  152.0697  138.6680  154.5379 C   0  0  0  0  0  0  0  0  0  0  0  0
  151.0328  139.4619  154.3283 N   0  0  0  0  0  0  0  0  0  0  0  0
  150.7595  139.9942  155.5403 N   0  0  0  0  0  0  0  0  0  0  0  0
  149.6497  140.9273  155.7012 C   0  0  1  0  0  0  0  0  0  0  0  0
  148.3132  140.1896  155.4926 C   0  0  0  0  0  0  0  0  0  0  0  0
  149.7332  141.6747  157.0593 C   0  0  2  0  0  0  0  0  0  0  0  0
  148.3657  142.1767  157.5526 C   0  0  0  0  0  0  0  0  0  0  0  0
  150.6541  142.8312  156.9494 N   0  3  0  0  0  0  0  0  0  0  0  0
  151.2308  143.3078  158.2247 C   0  0  0  0  0  0  0  0  0  0  0  0
  150.1944  143.9197  159.1706 C   0  0  0  0  0  0  0  0  0  0  0  0
  151.0091  144.8114  160.1154 C   0  0  0  0  0  0  0  0  0  0  0  0
  152.3259  145.1252  159.3856 C   0  0  0  0  0  0  0  0  0  0  0  0
  152.2265  144.4474  158.0152 C   0  0  0  0  0  0  0  0  0  0  0  0
  151.6324  139.5309  156.5032 C   0  0  0  0  0  0  0  0  0  0  0  0
  154.1217  137.2477  155.7728 H   0  0  0  0  0  0  0  0  0  0  0  0
  153.2869  137.2451  157.3151 H   0  0  0  0  0  0  0  0  0  0  0  0
  154.3922  138.5492  156.9164 H   0  0  0  0  0  0  0  0  0  0  0  0
  152.4798  138.1190  153.7030 H   0  0  0  0  0  0  0  0  0  0  0  0
  149.7407  141.6649  154.9021 H   0  0  0  0  0  0  0  0  0  0  0  0
  147.4761  140.8840  155.4271 H   0  0  0  0  0  0  0  0  0  0  0  0
  148.1072  139.4942  156.3070 H   0  0  0  0  0  0  0  0  0  0  0  0
  148.3238  139.6180  154.5642 H   0  0  0  0  0  0  0  0  0  0  0  0
  150.1155  140.9806  157.8096 H   0  0  0  0  0  0  0  0  0  0  0  0
  147.6841  141.3521  157.7593 H   0  0  0  0  0  0  0  0  0  0  0  0
  147.8911  142.8281  156.8180 H   0  0  0  0  0  0  0  0  0  0  0  0
  148.4675  142.7411  158.4800 H   0  0  0  0  0  0  0  0  0  0  0  0
  151.4210  142.5499  156.3554 H   0  0  0  0  0  0  0  0  0  0  0  0
  151.7456  142.4858  158.7249 H   0  0  0  0  0  0  0  0  0  0  0  0
  149.4926  144.5368  158.6073 H   0  0  0  0  0  0  0  0  0  0  0  0
  149.6158  143.1670  159.7072 H   0  0  0  0  0  0  0  0  0  0  0  0
  150.4608  145.7183  160.3730 H   0  0  0  0  0  0  0  0  0  0  0  0
  151.2194  144.2833  161.0466 H   0  0  0  0  0  0  0  0  0  0  0  0
  152.4968  146.1978  159.2893 H   0  0  0  0  0  0  0  0  0  0  0  0
  153.1645  144.7113  159.9469 H   0  0  0  0  0  0  0  0  0  0  0  0
  153.1931  144.0994  157.6490 H   0  0  0  0  0  0  0  0  0  0  0  0
  151.8328  145.1597  157.2881 H   0  0  0  0  0  0  0  0  0  0  0  0
  151.5661  139.8498  157.5330 H   0  0  0  0  0  0  0  0  0  0  0  0
  150.1697  143.5968  156.5032 H   0  0  0  0  0  0  0  0  0  0  0  0
  1  2  1  0  0  0  0
  1 17  1  0  0  0  0
  1 18  1  0  0  0  0
  1 19  1  0  0  0  0
  2 16  2  0  0  0  0
  2  3  1  0  0  0  0
  3  4  2  0  0  0  0
  3 20  1  0  0  0  0
  4  5  1  0  0  0  0
  5  6  1  0  0  0  0
  5 16  1  0  0  0  0
  6  7  1  0  0  0  0
  6  8  1  0  0  0  0
  6 21  1  0  0  0  0
  7 22  1  0  0  0  0
  7 23  1  0  0  0  0
  7 24  1  0  0  0  0
  8  9  1  0  0  0  0
  8 10  1  0  0  0  0
  8 25  1  0  0  0  0
  9 26  1  0  0  0  0
  9 27  1  0  0  0  0
  9 28  1  0  0  0  0
 10 11  1  0  0  0  0
 10 29  1  0  0  0  0
 10 40  1  0  0  0  0
 11 15  1  0  0  0  0
 11 12  1  0  0  0  0
 11 30  1  0  0  0  0
 12 13  1  0  0  0  0
 12 31  1  0  0  0  0
 12 32  1  0  0  0  0
 13 14  1  0  0  0  0
 13 33  1  0  0  0  0
 13 34  1  0  0  0  0
 14 15  1  0  0  0  0
 14 35  1  0  0  0  0
 14 36  1  0  0  0  0
 15 37  1  0  0  0  0
 15 38  1  0  0  0  0
 16 39  1  0  0  0  0
M  CHG  1  10   1
M  END
> <s_m_source_file>
AV-unprocessed.smi

> <i_m_source_file_index>
3160

> <i_lp_mmshare_version>
43012

> <i_f3d_flags>
0

> <s_epik_input>
W0NIM11jMVtjSF1ubihbY0hdMSlbQ0BIXShbQ0gzXSlbQ0BIXShbQ0gzXSlbTkhdW0NIXTJbQ0gyXVtDSDJdW0NIMl1bQ0gyXTI=

> <s_epik_cmdline>
J2VwaWtfcHl0aG9uJywgJy1waCcsICc3LjAnLCAnLXRuJywgJzgnLCAnLW1hJywgJzIwMCcsICctbWV0YWxfYmluZGluZycsICctaW1hZScsICc8aW5maWxlLm1hZT4nLCAnLW9tYWUnLCAnPG91dGZpbGUubWFlPic=

> <r_lp_tautomer_probability>
1

> <r_epik_Ionization_Penalty>
0.00117636

> <r_epik_Ionization_Penalty_Charging>
0.00115264

> <r_epik_Ionization_Penalty_Neutral>
2.37123e-05

> <r_epik_State_Penalty>
-0

> <r_epik_Charging_Adjusted_Penalty>
0.00115264

> <i_epik_Tot_Q>
1

> <i_epik_Tot_abs_Q>
1

> <r_epik_Metal_State_Penalty>
-0

> <b_epik_Metal_Only>
0

> <s_lp_Force_Field>
OPLS_2005

> <r_lp_Energy>
30.6153

> <b_lp_Chiralities_Consistent>
1

> <s_lp_Variant>
AV-unprocessed.smi:3160-2

> <Gold.Version>
5.8.1

> <Gold.Id.Protein>
6NUR|6NUR_protein|mol2

> <Gold.PLP.Fitness>
41.3668

> <Gold.PLP.PLP>
-34.3933

> <Gold.PLP.part.hbond>
-2.0000

> <Gold.PLP.part.metal>
0.0000

> <Gold.PLP.part.buried>
-3.4161

> <Gold.PLP.part.nonpolar>
-28.9579

> <Gold.PLP.part.repulsive>
0.1620

> <Gold.PLP.ligand.clash>
0.0000

> <Gold.PLP.ligand.torsion>
1.0485

> <Gold.PLP.Chemscore.Hbond>
3.0000

> <Gold.PLP.Chemscore.CHOScore>
0.0000

> <Gold.PLP.Chemscore.Metal>
0.0000

> <Gold.Chemscore.Hbonds>
donor molecule, donor type, donor heavy atom, donor atom, acceptor molecule, acceptor atom, score
      L1  H    10    40       P1  8028  2.00
      P1  H  7989  7998       L1     4  1.00

> <Gold.PLP.Chemscore.Internal.Correction>
0.0706

> <Gold.Rescore>
     Score         DG    S(hbond)    S(metal)    S(lipo)     H(rot)  DE(clash)    DE(int)     intcor
     18.81     -19.89       1.98        0.00      96.68       1.37       0.10       0.98       ----

> <Gold.Chemscore.Fitness>
18.8099

> <Gold.Chemscore.DG>
-19.8896

> <Gold.Chemscore.ZeroCoef>
-5.4800

> <Gold.Chemscore.Hbond>
1.9784

> <Gold.Chemscore.Metal>
0.0000

> <Gold.Chemscore.Lipo>
96.6773

> <Gold.Chemscore.Internal_Hbond>
0.0000

> <Gold.Chemscore.DEClash>
0.1013

> <Gold.Chemscore.DEInternal>
0.9784

> <Gold.Chemscore.Rot>
1.3709

> <Gold.Chemscore.Internal.Correction>
   9.000000E+99

> <Gold.Chemscore.Hbonds>
donor molecule, donor type, donor heavy atom, donor atom, acceptor molecule, acceptor atom, score
      L1  H    10    40       P1  8028  1.00
      P1  H  7989  7998       L1     4  0.17

> <Gold.Chemscore.Hbond.Weighted>
-6.6078

> <Gold.Chemscore.Metal.Weighted>
-0.0000

> <Gold.Chemscore.Lipo.Weighted>
-11.3112

> <Gold.Chemscore.Internal_Hbond.Weighted>
0.0000

> <Gold.Chemscore.DEClash.Weighted>
0.1013

> <Gold.Chemscore.DEInternal.Weighted>
0.9784

> <Gold.Chemscore.Rot.Weighted>
3.5095

> <Gold.Chemscore.Internal.Correction.Weighted>
   9.000000E+99

> <Gold.Protein.RotatedTorsions>
[ 6907 6896 6895 6894 ] final  150.51 input  -60.11 | X-H torsion
[ 7974 7965 7964 7962 ] final  -60.58 input  175.53 | X-H torsion
[ 8008 7997 7996 7995 ] final  126.03 input   59.86 | X-H torsion
[ 10167 10162 10161 10158 ] final  -69.71 input  -65.29 | X-H torsion
[ 10718 10713 10712 10709 ] final -146.22 input   66.30 | X-H torsion
[ 10763 10752 10751 10750 ] final   44.96 input  -60.55 | X-H torsion
[ 11005 11000 10999 10996 ] final  -98.76 input  -57.11 | X-H torsion

> <Gold.Protein.ActiveResidues>
 VAL166  LYS551  ARG553  GLY616  TRP617  ASP618  TYR619  PRO620  LYS621  CYS622 
 ASP623  PHE694  ASN695  SER759  ASP760  ASP761  ALA762  ILE779  LEU786  VAL792 
 PHE793  MET794  SER795  GLU796  ALA797  LYS798  CYS799  TRP800  GLU811  SER814 

> <Gold.Protein.RotatedAtoms>
  152.1134  133.4313  159.4641 H   0  0  0  0  0  0  0  0  0  0  0  0  # atno 6907 bound_to 6896
  150.6868  134.2621  159.4562 H   0  0  0  0  0  0  0  0  0  0  0  0  # atno 6908 bound_to 6896
  152.0491  134.9664  160.0625 H   0  0  0  0  0  0  0  0  0  0  0  0  # atno 6909 bound_to 6896
  145.8138  140.8582  143.0168 H   0  0  0  0  0  0  0  0  0  0  0  0  # atno 7974 bound_to 7965
  156.2852  140.2702  156.2045 H   0  0  0  0  0  0  0  0  0  0  0  0  # atno 8008 bound_to 7997
  155.0327  140.0386  157.2498 H   0  0  0  0  0  0  0  0  0  0  0  0  # atno 8009 bound_to 7997
  154.7340  140.2712  155.6436 H   0  0  0  0  0  0  0  0  0  0  0  0  # atno 8010 bound_to 7997
  140.5409  143.2315  151.7091 H   0  0  0  0  0  0  0  0  0  0  0  0  # atno 10167 bound_to 10162
  156.3922  130.7891  151.2094 H   0  0  0  0  0  0  0  0  0  0  0  0  # atno 10718 bound_to 10713
  152.9832  135.6054  154.3360 H   0  0  0  0  0  0  0  0  0  0  0  0  # atno 10763 bound_to 10752
  154.3060  135.2772  155.2590 H   0  0  0  0  0  0  0  0  0  0  0  0  # atno 10764 bound_to 10752
  154.4821  135.5914  153.6453 H   0  0  0  0  0  0  0  0  0  0  0  0  # atno 10765 bound_to 10752
  141.1333  133.8270  157.0882 H   0  0  0  0  0  0  0  0  0  0  0  0  # atno 11005 bound_to 11000
  144.6754  140.0435  143.7480 LP  0  0  0  0  0  0  0  0  0  0  0  0  # atno 17320 bound_to 7965
  145.9748  139.2897  143.1077 LP  0  0  0  0  0  0  0  0  0  0  0  0  # atno 17321 bound_to 7965
  139.4988  144.3970  152.0221 LP  0  0  0  0  0  0  0  0  0  0  0  0  # atno 17342 bound_to 10162
  140.3079  144.3572  150.6042 LP  0  0  0  0  0  0  0  0  0  0  0  0  # atno 17343 bound_to 10162
  157.7499  131.0312  150.4172 LP  0  0  0  0  0  0  0  0  0  0  0  0  # atno 17370 bound_to 10713
  156.4435  130.3996  149.6681 LP  0  0  0  0  0  0  0  0  0  0  0  0  # atno 17371 bound_to 10713
  140.0409  134.9855  157.0959 LP  0  0  0  0  0  0  0  0  0  0  0  0  # atno 17394 bound_to 11000
  140.4137  134.1953  155.7163 LP  0  0  0  0  0  0  0  0  0  0  0  0  # atno 17395 bound_to 11000

$$$$
