AV-unprocessed.smi:1120|AV-procd|sdf|4822|dock8
  -GOLD-   22720 3383D 1   1.00000     0.00000
 Structure written by MMmdl.
 47 48  0  0  0  0  0  0  0  0  2 V2000
  151.6569  144.4520  159.8136 C   0  0  0  0  0  0  0  0  0  0  0  0
  152.1823  143.3094  158.9338 C   0  0  2  0  0  0  0  0  0  0  0  0
  151.1222  142.8311  157.9148 C   0  0  0  0  0  0  0  0  0  0  0  0
  151.6147  141.6457  157.0473 C   0  0  0  0  0  0  0  0  0  0  0  0
  152.0846  140.4283  157.8799 C   0  0  1  0  0  0  0  0  0  0  0  0
  152.6387  139.4149  156.9915 N   0  5  0  0  0  0  0  0  0  0  0  0
  151.7330  138.7867  155.8003 S   0  0  0  0  0  0  0  0  0  0  0  0
  151.0732  139.8252  154.9915 O   0  0  0  0  0  0  0  0  0  0  0  0
  152.4177  137.7080  155.0691 O   0  0  0  0  0  0  0  0  0  0  0  0
  150.3995  137.9687  156.7870 C   0  0  0  0  0  0  0  0  0  0  0  0
  150.8224  136.5690  157.2368 C   0  0  0  0  0  0  0  0  0  0  0  0
  150.7927  136.2688  158.4302 O   0  0  0  0  0  0  0  0  0  0  0  0
  151.1879  135.7136  156.2729 N   0  0  0  0  0  0  0  0  0  0  0  0
  151.6170  134.3376  156.4849 C   0  0  0  0  0  0  0  0  0  0  0  0
  150.4109  133.4060  156.6947 C   0  0  0  0  0  0  0  0  0  0  0  0
  149.7412  132.9872  155.3965 C   0  0  0  0  0  0  0  0  0  0  0  0
  149.7830  131.6438  154.9648 C   0  0  0  0  0  0  0  0  0  0  0  0
  149.1713  131.3123  153.7410 C   0  0  0  0  0  0  0  0  0  0  0  0
  148.5400  132.3307  153.0011 C   0  0  0  0  0  0  0  0  0  0  0  0
  148.5507  133.6408  153.5201 C   0  0  0  0  0  0  0  0  0  0  0  0
  149.1373  133.9703  154.6912 N   0  0  0  0  0  0  0  0  0  0  0  0
  153.1384  140.9122  158.9090 C   0  0  0  0  0  0  0  0  0  0  0  0
  152.6482  142.0994  159.7760 C   0  0  0  0  0  0  0  0  0  0  0  0
  150.7898  144.1378  160.3955 H   0  0  0  0  0  0  0  0  0  0  0  0
  151.3590  145.3079  159.2074 H   0  0  0  0  0  0  0  0  0  0  0  0
  152.4218  144.7923  160.5120 H   0  0  0  0  0  0  0  0  0  0  0  0
  153.0422  143.6852  158.3770 H   0  0  0  0  0  0  0  0  0  0  0  0
  150.2057  142.5535  158.4398 H   0  0  0  0  0  0  0  0  0  0  0  0
  150.8487  143.6600  157.2611 H   0  0  0  0  0  0  0  0  0  0  0  0
  150.8177  141.3414  156.3680 H   0  0  0  0  0  0  0  0  0  0  0  0
  152.4339  141.9946  156.4161 H   0  0  0  0  0  0  0  0  0  0  0  0
  151.2215  140.0466  158.4264 H   0  0  0  0  0  0  0  0  0  0  0  0
  150.1869  138.5917  157.6557 H   0  0  0  0  0  0  0  0  0  0  0  0
  149.4964  137.9165  156.1794 H   0  0  0  0  0  0  0  0  0  0  0  0
  151.1850  136.0488  155.3194 H   0  0  0  0  0  0  0  0  0  0  0  0
  152.2063  133.9919  155.6344 H   0  0  0  0  0  0  0  0  0  0  0  0
  152.2677  134.3076  157.3598 H   0  0  0  0  0  0  0  0  0  0  0  0
  150.7307  132.5117  157.2314 H   0  0  0  0  0  0  0  0  0  0  0  0
  149.6753  133.8944  157.3350 H   0  0  0  0  0  0  0  0  0  0  0  0
  150.2834  130.8861  155.5507 H   0  0  0  0  0  0  0  0  0  0  0  0
  149.1886  130.2962  153.3756 H   0  0  0  0  0  0  0  0  0  0  0  0
  148.0614  132.1135  152.0578 H   0  0  0  0  0  0  0  0  0  0  0  0
  148.0771  134.4465  152.9787 H   0  0  0  0  0  0  0  0  0  0  0  0
  153.4197  140.0925  159.5700 H   0  0  0  0  0  0  0  0  0  0  0  0
  154.0494  141.2094  158.3875 H   0  0  0  0  0  0  0  0  0  0  0  0
  153.4548  142.4096  160.4413 H   0  0  0  0  0  0  0  0  0  0  0  0
  151.8364  141.7723  160.4290 H   0  0  0  0  0  0  0  0  0  0  0  0
  1  2  1  0  0  0  0
  1 24  1  0  0  0  0
  1 25  1  0  0  0  0
  1 26  1  0  0  0  0
  2 23  1  0  0  0  0
  2  3  1  0  0  0  0
  2 27  1  0  0  0  0
  3  4  1  0  0  0  0
  3 28  1  0  0  0  0
  3 29  1  0  0  0  0
  4  5  1  0  0  0  0
  4 30  1  0  0  0  0
  4 31  1  0  0  0  0
  5  6  1  0  0  0  0
  5 22  1  0  0  0  0
  5 32  1  0  0  0  0
  6  7  1  0  0  0  0
  7  8  2  0  0  0  0
  7  9  2  0  0  0  0
  7 10  1  0  0  0  0
 10 11  1  0  0  0  0
 10 33  1  0  0  0  0
 10 34  1  0  0  0  0
 11 12  2  0  0  0  0
 11 13  1  0  0  0  0
 13 14  1  0  0  0  0
 13 35  1  0  0  0  0
 14 15  1  0  0  0  0
 14 36  1  0  0  0  0
 14 37  1  0  0  0  0
 15 16  1  0  0  0  0
 15 38  1  0  0  0  0
 15 39  1  0  0  0  0
 16 21  1  0  0  0  0
 16 17  2  0  0  0  0
 17 18  1  0  0  0  0
 17 40  1  0  0  0  0
 18 19  2  0  0  0  0
 18 41  1  0  0  0  0
 19 20  1  0  0  0  0
 19 42  1  0  0  0  0
 20 21  2  0  0  0  0
 20 43  1  0  0  0  0
 22 23  1  0  0  0  0
 22 44  1  0  0  0  0
 22 45  1  0  0  0  0
 23 46  1  0  0  0  0
 23 47  1  0  0  0  0
M  CHG  1   6  -1
M  END
> <s_m_source_file>
AV-unprocessed.smi

> <i_m_source_file_index>
1120

> <i_lp_mmshare_version>
43012

> <i_f3d_flags>
0

> <s_epik_input>
W0NIM11bQ0BASF0xW0NIMl1bQ0gyXVtDQEhdKFtDSDJdW0NIMl0xKVtOSF1TKD1PKSg9TylbQ0gyXUMoPU8pW05IXVtDSDJdW0NIMl1jMltjSF1bY0hdW2NIXVtjSF1uMg==

> <s_epik_cmdline>
J2VwaWtfcHl0aG9uJywgJy1waCcsICc3LjAnLCAnLXRuJywgJzgnLCAnLW1hJywgJzIwMCcsICctbWV0YWxfYmluZGluZycsICctaW1hZScsICc8aW5maWxlLm1hZT4nLCAnLW9tYWUnLCAnPG91dGZpbGUubWFlPic=

> <r_epik_Ionization_Penalty>
5.68623

> <r_epik_Ionization_Penalty_Charging>
5.66033

> <r_epik_Ionization_Penalty_Neutral>
0.0259005

> <r_epik_State_Penalty>
5.67764

> <r_epik_Charging_Adjusted_Penalty>
11.338

> <i_epik_Tot_Q>
-1

> <i_epik_Tot_abs_Q>
1

> <r_epik_Metal_State_Penalty>
1.68319

> <b_epik_Metal_Only>
1

> <s_lp_Force_Field>
OPLS_2005

> <r_lp_Energy>
8.54043

> <b_lp_Chiralities_Consistent>
1

> <s_lp_Variant>
AV-unprocessed.smi:1120-5

> <Gold.Version>
5.8.1

> <Gold.Id.Protein>
6NUR|6NUR_protein|mol2

> <Gold.PLP.Fitness>
51.9884

> <Gold.PLP.PLP>
-38.1117

> <Gold.PLP.part.hbond>
-4.0000

> <Gold.PLP.part.metal>
0.0000

> <Gold.PLP.part.buried>
-3.6916

> <Gold.PLP.part.nonpolar>
-30.2960

> <Gold.PLP.part.repulsive>
0.3383

> <Gold.PLP.ligand.clash>
0.0000

> <Gold.PLP.ligand.torsion>
1.3328

> <Gold.PLP.Chemscore.Hbond>
4.1618

> <Gold.PLP.Chemscore.CHOScore>
1.0000

> <Gold.PLP.Chemscore.Metal>
0.0000

> <Gold.Chemscore.Hbonds>
donor molecule, donor type, donor heavy atom, donor atom, acceptor molecule, acceptor atom, score
      P1  H  6896  6909       L1    12  0.77
      P1  H  7989  7998       L1     8  1.00
      P1  H  7997  8008       L1     6  2.00
      P1  H 10752 10763       L1     9  0.33
      L1  C    20    43       P1  7948  1.00

> <Gold.PLP.Chemscore.Internal.Correction>
1.0570

> <Gold.Rescore>
     Score         DG    S(hbond)    S(metal)    S(lipo)     H(rot)  DE(clash)    DE(int)     intcor
     19.63     -22.56       2.88        0.00     104.57       1.86       0.15       2.78       ----

> <Gold.Chemscore.Fitness>
19.6319

> <Gold.Chemscore.DG>
-22.5617

> <Gold.Chemscore.ZeroCoef>
-5.4800

> <Gold.Chemscore.Hbond>
2.8771

> <Gold.Chemscore.Metal>
0.0000

> <Gold.Chemscore.Lipo>
104.5684

> <Gold.Chemscore.Internal_Hbond>
0.0000

> <Gold.Chemscore.DEClash>
0.1544

> <Gold.Chemscore.DEInternal>
2.7753

> <Gold.Chemscore.Rot>
1.8602

> <Gold.Chemscore.Internal.Correction>
   9.000000E+99

> <Gold.Chemscore.Hbonds>
donor molecule, donor type, donor heavy atom, donor atom, acceptor molecule, acceptor atom, score
      P1  H  6896  6909       L1    12  0.76
      P1  H  7989  7998       L1     8  1.00
      P1  H  7997  8008       L1     6  0.34
      P1  H 10752 10763       L1     9  0.32

> <Gold.Chemscore.Hbond.Weighted>
-9.6094

> <Gold.Chemscore.Metal.Weighted>
-0.0000

> <Gold.Chemscore.Lipo.Weighted>
-12.2345

> <Gold.Chemscore.Internal_Hbond.Weighted>
0.0000

> <Gold.Chemscore.DEClash.Weighted>
0.1544

> <Gold.Chemscore.DEInternal.Weighted>
2.7753

> <Gold.Chemscore.Rot.Weighted>
4.7622

> <Gold.Chemscore.Internal.Correction.Weighted>
   9.000000E+99

> <Gold.Protein.RotatedTorsions>
[ 6907 6896 6895 6894 ] final   84.68 input  -60.11 | X-H torsion
[ 7974 7965 7964 7962 ] final   81.51 input  175.53 | X-H torsion
[ 8008 7997 7996 7995 ] final  -63.65 input   59.86 | X-H torsion
[ 10167 10162 10161 10158 ] final   13.63 input  -65.29 | X-H torsion
[ 10718 10713 10712 10709 ] final  -21.23 input   66.30 | X-H torsion
[ 10763 10752 10751 10750 ] final   60.50 input  -60.55 | X-H torsion
[ 11005 11000 10999 10996 ] final   14.94 input  -57.11 | X-H torsion

> <Gold.Protein.ActiveResidues>
 VAL166  LYS551  ARG553  GLY616  TRP617  ASP618  TYR619  PRO620  LYS621  CYS622 
 ASP623  PHE694  ASN695  SER759  ASP760  ASP761  ALA762  ILE779  LEU786  VAL792 
 PHE793  MET794  SER795  GLU796  ALA797  LYS798  CYS799  TRP800  GLU811  SER814 

> <Gold.Protein.RotatedAtoms>
  152.5358  134.2703  159.8968 H   0  0  0  0  0  0  0  0  0  0  0  0  # atno 6907 bound_to 6896
  151.2660  133.4272  159.2626 H   0  0  0  0  0  0  0  0  0  0  0  0  # atno 6908 bound_to 6896
  151.0410  134.9621  159.8218 H   0  0  0  0  0  0  0  0  0  0  0  0  # atno 6909 bound_to 6896
  145.6371  139.2417  143.2051 H   0  0  0  0  0  0  0  0  0  0  0  0  # atno 7974 bound_to 7965
  154.4566  140.0970  156.6775 H   0  0  0  0  0  0  0  0  0  0  0  0  # atno 8008 bound_to 7997
  155.5119  140.3476  155.4371 H   0  0  0  0  0  0  0  0  0  0  0  0  # atno 8009 bound_to 7997
  156.0790  140.1368  156.9725 H   0  0  0  0  0  0  0  0  0  0  0  0  # atno 8010 bound_to 7997
  140.5990  143.8644  150.6946 H   0  0  0  0  0  0  0  0  0  0  0  0  # atno 10167 bound_to 10162
  156.5210  130.4632  149.6597 H   0  0  0  0  0  0  0  0  0  0  0  0  # atno 10718 bound_to 10713
  152.9923  135.5534  154.5884 H   0  0  0  0  0  0  0  0  0  0  0  0  # atno 10763 bound_to 10752
  154.5250  135.2810  155.1231 H   0  0  0  0  0  0  0  0  0  0  0  0  # atno 10764 bound_to 10752
  154.2569  135.6388  153.5313 H   0  0  0  0  0  0  0  0  0  0  0  0  # atno 10765 bound_to 10752
  140.4639  134.1099  155.7721 H   0  0  0  0  0  0  0  0  0  0  0  0  # atno 11005 bound_to 11000
  146.1310  140.7185  142.9412 LP  0  0  0  0  0  0  0  0  0  0  0  0  # atno 17320 bound_to 7965
  144.7171  140.4248  143.7036 LP  0  0  0  0  0  0  0  0  0  0  0  0  # atno 17321 bound_to 7965
  140.2185  143.3827  152.1662 LP  0  0  0  0  0  0  0  0  0  0  0  0  # atno 17342 bound_to 10162
  139.5278  144.7123  151.5167 LP  0  0  0  0  0  0  0  0  0  0  0  0  # atno 17343 bound_to 10162
  156.3150  130.7249  151.2150 LP  0  0  0  0  0  0  0  0  0  0  0  0  # atno 17370 bound_to 10713
  157.7437  131.0471  150.4927 LP  0  0  0  0  0  0  0  0  0  0  0  0  # atno 17371 bound_to 10713
  141.1608  133.8796  157.1852 LP  0  0  0  0  0  0  0  0  0  0  0  0  # atno 17394 bound_to 11000
  139.9928  135.0058  157.0013 LP  0  0  0  0  0  0  0  0  0  0  0  0  # atno 17395 bound_to 11000

$$$$
