AV-unprocessed.smi:2669|AV-procd|sdf|10344|dock1
  -GOLD-   2272014363D 1   1.00000     0.00000
 Structure written by MMmdl.
 39 41  0  0  0  0  0  0  0  0  1 V2000
  151.6979  138.2269  154.2480 C   0  0  0  0  0  0  0  0  0  0  0  0
  150.7377  139.2060  153.7642 N   0  0  0  0  0  0  0  0  0  0  0  0
  150.0782  140.0608  154.6587 C   0  0  0  0  0  0  0  0  0  0  0  0
  150.7312  140.5379  155.7440 N   0  0  0  0  0  0  0  0  0  0  0  0
  150.0616  141.3522  156.5703 C   0  0  0  0  0  0  0  0  0  0  0  0
  148.7948  141.7873  156.4860 N   0  0  0  0  0  0  0  0  0  0  0  0
  148.1395  141.3205  155.4145 C   0  0  0  0  0  0  0  0  0  0  0  0
  146.8272  141.6042  155.0773 N   0  0  0  0  0  0  0  0  0  0  0  0
  146.6794  140.9052  153.9547 C   0  0  0  0  0  0  0  0  0  0  0  0
  147.7403  140.1980  153.5176 N   0  0  0  0  0  0  0  0  0  0  0  0
  147.7993  139.3702  152.3247 C   0  0  0  0  0  0  0  0  0  0  0  0
  146.4329  138.7544  151.9627 C   0  0  1  0  0  0  0  0  0  0  0  0
  146.5370  138.1070  150.7089 O   0  0  0  0  0  0  0  0  0  0  0  0
  145.9713  137.7276  153.0091 C   0  0  0  0  0  0  0  0  0  0  0  0
  144.7606  137.1308  152.5638 O   0  0  0  0  0  0  0  0  0  0  0  0
  144.8043  135.8373  152.0900 C   0  0  0  0  0  0  0  0  0  0  0  0
  143.6083  135.0927  152.1544 C   0  0  0  0  0  0  0  0  0  0  0  0
  143.5609  133.7625  151.6950 C   0  0  0  0  0  0  0  0  0  0  0  0
  144.7163  133.1608  151.1628 C   0  0  0  0  0  0  0  0  0  0  0  0
  144.6613  131.5309  150.5993 Cl  0  0  0  0  0  0  0  0  0  0  0  0
  145.9166  133.8923  151.0914 C   0  0  0  0  0  0  0  0  0  0  0  0
  145.9635  135.2228  151.5515 C   0  0  0  0  0  0  0  0  0  0  0  0
  148.7377  140.4457  154.4581 C   0  0  0  0  0  0  0  0  0  0  0  0
  152.0845  137.6411  153.4140 H   0  0  0  0  0  0  0  0  0  0  0  0
  151.2299  137.5432  154.9569 H   0  0  0  0  0  0  0  0  0  0  0  0
  152.5385  138.7194  154.7379 H   0  0  0  0  0  0  0  0  0  0  0  0
  150.5180  139.2358  152.7792 H   0  0  0  0  0  0  0  0  0  0  0  0
  150.6193  141.7089  157.4234 H   0  0  0  0  0  0  0  0  0  0  0  0
  145.7415  140.9046  153.4186 H   0  0  0  0  0  0  0  0  0  0  0  0
  148.1735  139.9755  151.4977 H   0  0  0  0  0  0  0  0  0  0  0  0
  148.5398  138.5872  152.4898 H   0  0  0  0  0  0  0  0  0  0  0  0
  145.6930  139.5518  151.8840 H   0  0  0  0  0  0  0  0  0  0  0  0
  145.6873  138.1113  150.2958 H   0  0  0  0  0  0  0  0  0  0  0  0
  146.7480  136.9823  153.1900 H   0  0  0  0  0  0  0  0  0  0  0  0
  145.7734  138.2389  153.9526 H   0  0  0  0  0  0  0  0  0  0  0  0
  142.7164  135.5461  152.5617 H   0  0  0  0  0  0  0  0  0  0  0  0
  142.6373  133.2055  151.7526 H   0  0  0  0  0  0  0  0  0  0  0  0
  146.8056  133.4336  150.6839 H   0  0  0  0  0  0  0  0  0  0  0  0
  146.9026  135.7501  151.4806 H   0  0  0  0  0  0  0  0  0  0  0  0
  1  2  1  0  0  0  0
  1 24  1  0  0  0  0
  1 25  1  0  0  0  0
  1 26  1  0  0  0  0
  2  3  1  0  0  0  0
  2 27  1  0  0  0  0
  3 23  1  0  0  0  0
  3  4  2  0  0  0  0
  4  5  1  0  0  0  0
  5  6  2  0  0  0  0
  5 28  1  0  0  0  0
  6  7  1  0  0  0  0
  7 23  2  0  0  0  0
  7  8  1  0  0  0  0
  8  9  2  0  0  0  0
  9 10  1  0  0  0  0
  9 29  1  0  0  0  0
 10 11  1  0  0  0  0
 10 23  1  0  0  0  0
 11 12  1  0  0  0  0
 11 30  1  0  0  0  0
 11 31  1  0  0  0  0
 12 13  1  0  0  0  0
 12 14  1  0  0  0  0
 12 32  1  0  0  0  0
 13 33  1  0  0  0  0
 14 15  1  0  0  0  0
 14 34  1  0  0  0  0
 14 35  1  0  0  0  0
 15 16  1  0  0  0  0
 16 22  1  0  0  0  0
 16 17  2  0  0  0  0
 17 18  1  0  0  0  0
 17 36  1  0  0  0  0
 18 19  2  0  0  0  0
 18 37  1  0  0  0  0
 19 20  1  0  0  0  0
 19 21  1  0  0  0  0
 21 22  2  0  0  0  0
 21 38  1  0  0  0  0
 22 39  1  0  0  0  0
M  END
> <s_m_source_file>
AV-unprocessed.smi

> <i_m_source_file_index>
2669

> <i_lp_mmshare_version>
43012

> <i_f3d_flags>
0

> <s_epik_input>
bjFbY0hdbmMoW05IXVtDSDNdKWMoYzEyKW4oW2NIXW4yKVtDSDJdW0NASF0oW09IXSlbQ0gyXU9jM1tjSF1bY0hdYyhDbClbY0hdW2NIXTM=

> <s_epik_cmdline>
J2VwaWtfcHl0aG9uJywgJy1waCcsICc3LjAnLCAnLXRuJywgJzgnLCAnLW1hJywgJzIwMCcsICctbWV0YWxfYmluZGluZycsICctaW1hZScsICc8aW5maWxlLm1hZT4nLCAnLW9tYWUnLCAnPG91dGZpbGUubWFlPic=

> <r_lp_tautomer_probability>
1

> <r_epik_Ionization_Penalty>
0.00733592

> <r_epik_Ionization_Penalty_Charging>
0

> <r_epik_Ionization_Penalty_Neutral>
0.00733592

> <r_epik_State_Penalty>
-0

> <r_epik_Charging_Adjusted_Penalty>
0

> <i_epik_Tot_Q>
0

> <i_epik_Tot_abs_Q>
0

> <r_epik_Metal_State_Penalty>
-0

> <b_epik_Metal_Only>
0

> <s_lp_Force_Field>
OPLS_2005

> <r_lp_Energy>
13.4458

> <b_lp_Chiralities_Consistent>
1

> <s_lp_Variant>
AV-unprocessed.smi:2669-2

> <Gold.Version>
5.8.1

> <Gold.Id.Protein>
6NUR|6NUR_protein|mol2

> <Gold.PLP.Fitness>
45.0153

> <Gold.PLP.PLP>
-35.9799

> <Gold.PLP.part.hbond>
-3.4095

> <Gold.PLP.part.metal>
0.0000

> <Gold.PLP.part.buried>
1.3239

> <Gold.PLP.part.nonpolar>
-35.8965

> <Gold.PLP.part.repulsive>
2.1254

> <Gold.PLP.ligand.clash>
0.0000

> <Gold.PLP.ligand.torsion>
1.3421

> <Gold.PLP.Chemscore.Hbond>
2.8613

> <Gold.PLP.Chemscore.CHOScore>
1.0000

> <Gold.PLP.Chemscore.Metal>
0.0000

> <Gold.Chemscore.Hbonds>
donor molecule, donor type, donor heavy atom, donor atom, acceptor molecule, acceptor atom, score
      L1  H     2    27       P1  7957  1.00
      L1  H    13    33       P1 10171  1.00
      P1  H  7954  7966       L1    13  1.00
      L1  C     9    29       P1 10175  1.00

> <Gold.PLP.Chemscore.Internal.Correction>
0.1358

> <Gold.Rescore>
     Score         DG    S(hbond)    S(metal)    S(lipo)     H(rot)  DE(clash)    DE(int)     intcor
     12.36     -16.54       2.66        0.00      83.53       2.97       2.87       1.31       ----

> <Gold.Chemscore.Fitness>
12.3578

> <Gold.Chemscore.DG>
-16.5374

> <Gold.Chemscore.ZeroCoef>
-5.4800

> <Gold.Chemscore.Hbond>
2.6644

> <Gold.Chemscore.Metal>
0.0000

> <Gold.Chemscore.Lipo>
83.5332

> <Gold.Chemscore.Internal_Hbond>
0.0000

> <Gold.Chemscore.DEClash>
2.8700

> <Gold.Chemscore.DEInternal>
1.3096

> <Gold.Chemscore.Rot>
2.9746

> <Gold.Chemscore.Internal.Correction>
   9.000000E+99

> <Gold.Chemscore.Hbonds>
donor molecule, donor type, donor heavy atom, donor atom, acceptor molecule, acceptor atom, score
      L1  H     2    27       P1  7957  0.47
      L1  H    13    33       P1 10171  0.99
      P1  H  7954  7966       L1    13  0.94

> <Gold.Chemscore.Hbond.Weighted>
-8.8991

> <Gold.Chemscore.Metal.Weighted>
-0.0000

> <Gold.Chemscore.Lipo.Weighted>
-9.7734

> <Gold.Chemscore.Internal_Hbond.Weighted>
0.0000

> <Gold.Chemscore.DEClash.Weighted>
2.8700

> <Gold.Chemscore.DEInternal.Weighted>
1.3096

> <Gold.Chemscore.Rot.Weighted>
7.6150

> <Gold.Chemscore.Internal.Correction.Weighted>
   9.000000E+99

> <Gold.Protein.RotatedTorsions>
[ 6907 6896 6895 6894 ] final   46.03 input  -60.11 | X-H torsion
[ 7974 7965 7964 7962 ] final   43.79 input  175.53 | X-H torsion
[ 8008 7997 7996 7995 ] final   90.00 input   59.86 | X-H torsion
[ 10167 10162 10161 10158 ] final   25.13 input  -65.29 | X-H torsion
[ 10718 10713 10712 10709 ] final   20.23 input   66.30 | X-H torsion
[ 10763 10752 10751 10750 ] final  -45.08 input  -60.55 | X-H torsion
[ 11005 11000 10999 10996 ] final   11.43 input  -57.11 | X-H torsion

> <Gold.Protein.ActiveResidues>
 VAL166  LYS551  ARG553  GLY616  TRP617  ASP618  TYR619  PRO620  LYS621  CYS622 
 ASP623  PHE694  ASN695  SER759  ASP760  ASP761  ALA762  ILE779  LEU786  VAL792 
 PHE793  MET794  SER795  GLU796  ALA797  LYS798  CYS799  TRP800  GLU811  SER814 

> <Gold.Protein.RotatedAtoms>
  152.2516  134.8127  160.0444 H   0  0  0  0  0  0  0  0  0  0  0  0  # atno 6907 bound_to 6896
  151.8805  133.3489  159.3773 H   0  0  0  0  0  0  0  0  0  0  0  0  # atno 6908 bound_to 6896
  150.7086  134.4950  159.5578 H   0  0  0  0  0  0  0  0  0  0  0  0  # atno 6909 bound_to 6896
  146.0625  139.5147  142.9649 H   0  0  0  0  0  0  0  0  0  0  0  0  # atno 7974 bound_to 7965
  156.0068  140.3354  155.6900 H   0  0  0  0  0  0  0  0  0  0  0  0  # atno 8008 bound_to 7997
  155.6214  140.0675  157.2695 H   0  0  0  0  0  0  0  0  0  0  0  0  # atno 8009 bound_to 7997
  154.4267  140.1776  156.1363 H   0  0  0  0  0  0  0  0  0  0  0  0  # atno 8010 bound_to 7997
  140.5131  144.0127  150.6382 H   0  0  0  0  0  0  0  0  0  0  0  0  # atno 10167 bound_to 10162
  157.1216  130.6552  149.5925 H   0  0  0  0  0  0  0  0  0  0  0  0  # atno 10718 bound_to 10713
  154.0226  135.6667  153.4774 H   0  0  0  0  0  0  0  0  0  0  0  0  # atno 10763 bound_to 10752
  153.0574  135.5048  154.8008 H   0  0  0  0  0  0  0  0  0  0  0  0  # atno 10764 bound_to 10752
  154.6928  135.3064  154.9420 H   0  0  0  0  0  0  0  0  0  0  0  0  # atno 10765 bound_to 10752
  140.5033  134.0724  155.7799 H   0  0  0  0  0  0  0  0  0  0  0  0  # atno 11005 bound_to 11000
  145.6535  141.0257  143.1747 LP  0  0  0  0  0  0  0  0  0  0  0  0  # atno 17320 bound_to 7965
  144.7183  139.8118  143.7391 LP  0  0  0  0  0  0  0  0  0  0  0  0  # atno 17321 bound_to 7965
  140.3455  143.2994  152.0543 LP  0  0  0  0  0  0  0  0  0  0  0  0  # atno 17342 bound_to 10162
  139.4902  144.6412  151.6873 LP  0  0  0  0  0  0  0  0  0  0  0  0  # atno 17343 bound_to 10162
  155.9827  130.4842  150.6896 LP  0  0  0  0  0  0  0  0  0  0  0  0  # atno 17370 bound_to 10713
  157.4471  131.0868  151.0884 LP  0  0  0  0  0  0  0  0  0  0  0  0  # atno 17371 bound_to 10713
  141.1424  133.9115  157.2295 LP  0  0  0  0  0  0  0  0  0  0  0  0  # atno 17394 bound_to 11000
  139.9700  135.0131  156.9488 LP  0  0  0  0  0  0  0  0  0  0  0  0  # atno 17395 bound_to 11000

$$$$
