AV-unprocessed.smi:1295|AV-procd|sdf|5402|dock3
  -GOLD-   22720 4563D 1   1.00000     0.00000
 Structure written by MMmdl.
 43 44  0  0  0  0  0  0  0  0  1 V2000
  144.0775  132.1503  150.0843 C   0  0  0  0  0  0  0  0  0  0  0  0
  144.0430  133.4479  150.8629 C   0  0  0  0  0  0  0  0  0  0  0  0
  143.2686  133.6600  151.8756 N   0  0  0  0  0  0  0  0  0  0  0  0
  143.3231  134.9057  152.5161 C   0  0  0  0  0  0  0  0  0  0  0  0
  142.3777  135.0802  153.6928 C   0  0  0  0  0  0  0  0  0  0  0  0
  144.1730  135.8892  152.0976 C   0  0  0  0  0  0  0  0  0  0  0  0
  144.2491  137.2580  152.7709 C   0  0  0  0  0  0  0  0  0  0  0  0
  145.5747  137.5769  153.4659 C   0  0  0  0  0  0  0  0  0  0  0  0
  146.4031  136.6867  153.6564 O   0  0  0  0  0  0  0  0  0  0  0  0
  145.7585  138.8548  153.8318 N   0  0  0  0  0  0  0  0  0  0  0  0
  146.9507  139.4087  154.4762 C   0  0  1  0  0  0  0  0  0  0  0  0
  147.5946  140.4664  153.5572 C   0  0  0  0  0  0  0  0  0  0  0  0
  146.7363  141.7387  153.4445 C   0  0  0  0  0  0  0  0  0  0  0  0
  146.4262  142.3248  154.8302 C   0  0  0  0  0  0  0  0  0  0  0  0
  145.7664  141.2814  155.7465 C   0  0  0  0  0  0  0  0  0  0  0  0
  146.6277  140.0072  155.8689 C   0  0  1  0  0  0  0  0  0  0  0  0
  145.9970  138.9866  156.8316 C   0  0  0  0  0  0  0  0  0  0  0  0
  145.0551  135.6348  150.9421 C   0  0  0  0  0  0  0  0  0  0  0  0
  145.8550  136.4478  150.4817 O   0  0  0  0  0  0  0  0  0  0  0  0
  144.9326  134.4090  150.3856 N   0  0  0  0  0  0  0  0  0  0  0  0
  145.5123  134.1878  149.5892 H   0  0  0  0  0  0  0  0  0  0  0  0
  143.0962  131.9434  149.6569 H   0  0  0  0  0  0  0  0  0  0  0  0
  144.3459  131.3247  150.7435 H   0  0  0  0  0  0  0  0  0  0  0  0
  144.8034  132.1875  149.2705 H   0  0  0  0  0  0  0  0  0  0  0  0
  142.9381  135.2405  154.6142 H   0  0  0  0  0  0  0  0  0  0  0  0
  141.7521  134.1976  153.8320 H   0  0  0  0  0  0  0  0  0  0  0  0
  141.7173  135.9329  153.5345 H   0  0  0  0  0  0  0  0  0  0  0  0
  144.0479  138.0214  152.0185 H   0  0  0  0  0  0  0  0  0  0  0  0
  143.4483  137.3735  153.5018 H   0  0  0  0  0  0  0  0  0  0  0  0
  145.0139  139.5073  153.6341 H   0  0  0  0  0  0  0  0  0  0  0  0
  147.6865  138.6144  154.6146 H   0  0  0  0  0  0  0  0  0  0  0  0
  148.5752  140.7335  153.9534 H   0  0  0  0  0  0  0  0  0  0  0  0
  147.7737  140.0469  152.5664 H   0  0  0  0  0  0  0  0  0  0  0  0
  147.2529  142.4807  152.8352 H   0  0  0  0  0  0  0  0  0  0  0  0
  145.8041  141.5119  152.9257 H   0  0  0  0  0  0  0  0  0  0  0  0
  147.3486  142.6815  155.2899 H   0  0  0  0  0  0  0  0  0  0  0  0
  145.7761  143.1941  154.7285 H   0  0  0  0  0  0  0  0  0  0  0  0
  145.6053  141.7173  156.7330 H   0  0  0  0  0  0  0  0  0  0  0  0
  144.7787  141.0278  155.3595 H   0  0  0  0  0  0  0  0  0  0  0  0
  147.5787  140.3050  156.3132 H   0  0  0  0  0  0  0  0  0  0  0  0
  145.0063  138.6752  156.4996 H   0  0  0  0  0  0  0  0  0  0  0  0
  145.8905  139.4078  157.8313 H   0  0  0  0  0  0  0  0  0  0  0  0
  146.6164  138.0932  156.9150 H   0  0  0  0  0  0  0  0  0  0  0  0
  1  2  1  0  0  0  0
  1 22  1  0  0  0  0
  1 23  1  0  0  0  0
  1 24  1  0  0  0  0
  2 20  1  0  0  0  0
  2  3  2  0  0  0  0
  3  4  1  0  0  0  0
  4  5  1  0  0  0  0
  4  6  2  0  0  0  0
  5 25  1  0  0  0  0
  5 26  1  0  0  0  0
  5 27  1  0  0  0  0
  6  7  1  0  0  0  0
  6 18  1  0  0  0  0
  7  8  1  0  0  0  0
  7 28  1  0  0  0  0
  7 29  1  0  0  0  0
  8  9  2  0  0  0  0
  8 10  1  0  0  0  0
 10 11  1  0  0  0  0
 10 30  1  0  0  0  0
 11 16  1  0  0  0  0
 11 12  1  0  0  0  0
 11 31  1  0  0  0  0
 12 13  1  0  0  0  0
 12 32  1  0  0  0  0
 12 33  1  0  0  0  0
 13 14  1  0  0  0  0
 13 34  1  0  0  0  0
 13 35  1  0  0  0  0
 14 15  1  0  0  0  0
 14 36  1  0  0  0  0
 14 37  1  0  0  0  0
 15 16  1  0  0  0  0
 15 38  1  0  0  0  0
 15 39  1  0  0  0  0
 16 17  1  0  0  0  0
 16 40  1  0  0  0  0
 17 41  1  0  0  0  0
 17 42  1  0  0  0  0
 17 43  1  0  0  0  0
 18 19  2  0  0  0  0
 18 20  1  0  0  0  0
 20 21  1  0  0  0  0
M  END
> <s_m_source_file>
AV-unprocessed.smi

> <i_m_source_file_index>
1295

> <i_lp_mmshare_version>
43012

> <i_f3d_flags>
0

> <s_epik_input>
W0NIM11jMW5jKFtDSDNdKWMoYyg9TylbbkhdMSlbQ0gyXUMoPU8pW05IXVtDQEBIXTJbQ0gyXVtDSDJdW0NIMl1bQ0gyXVtDQEhdMltDSDNd

> <s_epik_cmdline>
J2VwaWtfcHl0aG9uJywgJy1waCcsICc3LjAnLCAnLXRuJywgJzgnLCAnLW1hJywgJzIwMCcsICctbWV0YWxfYmluZGluZycsICctaW1hZScsICc8aW5maWxlLm1hZT4nLCAnLW9tYWUnLCAnPG91dGZpbGUubWFlPic=

> <r_lp_tautomer_probability>
0.839158

> <r_epik_Ionization_Penalty>
0.00037085

> <r_epik_Ionization_Penalty_Charging>
0.000336002

> <r_epik_Ionization_Penalty_Neutral>
3.48485e-05

> <r_epik_State_Penalty>
0.09125

> <r_epik_Charging_Adjusted_Penalty>
0.091586

> <i_epik_Tot_Q>
0

> <i_epik_Tot_abs_Q>
0

> <r_epik_Metal_State_Penalty>
0.251445

> <b_epik_Metal_Only>
0

> <s_lp_Force_Field>
OPLS_2005

> <r_lp_Energy>
11.7893

> <b_lp_Chiralities_Consistent>
1

> <s_lp_Variant>
AV-unprocessed.smi:1295-2

> <Gold.Version>
5.8.1

> <Gold.Id.Protein>
6NUR|6NUR_protein|mol2

> <Gold.PLP.Fitness>
34.1508

> <Gold.PLP.PLP>
-28.6957

> <Gold.PLP.part.hbond>
-2.0000

> <Gold.PLP.part.metal>
0.0000

> <Gold.PLP.part.buried>
-4.9650

> <Gold.PLP.part.nonpolar>
-23.3559

> <Gold.PLP.part.repulsive>
1.7054

> <Gold.PLP.ligand.clash>
0.0000

> <Gold.PLP.ligand.torsion>
0.1700

> <Gold.PLP.Chemscore.Hbond>
1.9280

> <Gold.PLP.Chemscore.CHOScore>
0.0000

> <Gold.PLP.Chemscore.Metal>
0.0000

> <Gold.Chemscore.Hbonds>
donor molecule, donor type, donor heavy atom, donor atom, acceptor molecule, acceptor atom, score
      L1  H    10    30       P1 10175  1.00
      L1  H    20    21       P1  7921  0.65

> <Gold.PLP.Chemscore.Internal.Correction>
0.0112

> <Gold.Rescore>
     Score         DG    S(hbond)    S(metal)    S(lipo)     H(rot)  DE(clash)    DE(int)     intcor
     12.60     -14.09       1.77        0.00      55.38       1.48       1.29       0.21       ----

> <Gold.Chemscore.Fitness>
12.6000

> <Gold.Chemscore.DG>
-14.0939

> <Gold.Chemscore.ZeroCoef>
-5.4800

> <Gold.Chemscore.Hbond>
1.7734

> <Gold.Chemscore.Metal>
0.0000

> <Gold.Chemscore.Lipo>
55.3845

> <Gold.Chemscore.Internal_Hbond>
0.0000

> <Gold.Chemscore.DEClash>
1.2851

> <Gold.Chemscore.DEInternal>
0.2088

> <Gold.Chemscore.Rot>
1.4801

> <Gold.Chemscore.Internal.Correction>
   9.000000E+99

> <Gold.Chemscore.Hbonds>
donor molecule, donor type, donor heavy atom, donor atom, acceptor molecule, acceptor atom, score
      L1  H    10    30       P1 10175  0.94
      L1  H    20    21       P1  7921  0.52

> <Gold.Chemscore.Hbond.Weighted>
-5.9230

> <Gold.Chemscore.Metal.Weighted>
-0.0000

> <Gold.Chemscore.Lipo.Weighted>
-6.4800

> <Gold.Chemscore.Internal_Hbond.Weighted>
0.0000

> <Gold.Chemscore.DEClash.Weighted>
1.2851

> <Gold.Chemscore.DEInternal.Weighted>
0.2088

> <Gold.Chemscore.Rot.Weighted>
3.7891

> <Gold.Chemscore.Internal.Correction.Weighted>
   9.000000E+99

> <Gold.Protein.RotatedTorsions>
[ 6907 6896 6895 6894 ] final -139.86 input  -60.11 | X-H torsion
[ 7974 7965 7964 7962 ] final -134.16 input  175.53 | X-H torsion
[ 8008 7997 7996 7995 ] final  -61.42 input   59.86 | X-H torsion
[ 10167 10162 10161 10158 ] final    3.29 input  -65.29 | X-H torsion
[ 10718 10713 10712 10709 ] final   75.01 input   66.30 | X-H torsion
[ 10763 10752 10751 10750 ] final   82.91 input  -60.55 | X-H torsion
[ 11005 11000 10999 10996 ] final -139.24 input  -57.11 | X-H torsion

> <Gold.Protein.ActiveResidues>
 VAL166  LYS551  ARG553  GLY616  TRP617  ASP618  TYR619  PRO620  LYS621  CYS622 
 ASP623  PHE694  ASN695  SER759  ASP760  ASP761  ALA762  ILE779  LEU786  VAL792 
 PHE793  MET794  SER795  GLU796  ALA797  LYS798  CYS799  TRP800  GLU811  SER814 

> <Gold.Protein.RotatedAtoms>
  151.0532  133.5606  159.2640 H   0  0  0  0  0  0  0  0  0  0  0  0  # atno 6907 bound_to 6896
  151.2609  135.0653  159.9107 H   0  0  0  0  0  0  0  0  0  0  0  0  # atno 6908 bound_to 6896
  152.5385  134.0278  159.8065 H   0  0  0  0  0  0  0  0  0  0  0  0  # atno 6909 bound_to 6896
  144.9127  140.6916  143.5015 H   0  0  0  0  0  0  0  0  0  0  0  0  # atno 7974 bound_to 7965
  154.4447  140.1018  156.6428 H   0  0  0  0  0  0  0  0  0  0  0  0  # atno 8008 bound_to 7997
  155.5482  140.3485  155.4444 H   0  0  0  0  0  0  0  0  0  0  0  0  # atno 8009 bound_to 7997
  156.0548  140.1312  156.9998 H   0  0  0  0  0  0  0  0  0  0  0  0  # atno 8010 bound_to 7997
  140.6593  143.7346  150.7709 H   0  0  0  0  0  0  0  0  0  0  0  0  # atno 10167 bound_to 10162
  157.6616  130.9705  150.1292 H   0  0  0  0  0  0  0  0  0  0  0  0  # atno 10718 bound_to 10713
  153.1244  135.4711  154.9248 H   0  0  0  0  0  0  0  0  0  0  0  0  # atno 10763 bound_to 10752
  154.7606  135.3130  154.8387 H   0  0  0  0  0  0  0  0  0  0  0  0  # atno 10764 bound_to 10752
  153.8944  135.6881  153.4812 H   0  0  0  0  0  0  0  0  0  0  0  0  # atno 10765 bound_to 10752
  140.8538  134.2253  157.4745 H   0  0  0  0  0  0  0  0  0  0  0  0  # atno 11005 bound_to 11000
  145.3427  139.1728  143.4477 LP  0  0  0  0  0  0  0  0  0  0  0  0  # atno 17320 bound_to 7965
  146.3167  140.3470  142.8653 LP  0  0  0  0  0  0  0  0  0  0  0  0  # atno 17321 bound_to 7965
  140.1012  143.4786  152.2424 LP  0  0  0  0  0  0  0  0  0  0  0  0  # atno 17342 bound_to 10162
  139.5823  144.7516  151.3609 LP  0  0  0  0  0  0  0  0  0  0  0  0  # atno 17343 bound_to 10162
  156.2143  130.3669  149.8632 LP  0  0  0  0  0  0  0  0  0  0  0  0  # atno 17370 bound_to 10713
  156.6502  130.8740  151.3530 LP  0  0  0  0  0  0  0  0  0  0  0  0  # atno 17371 bound_to 10713
  139.8705  134.9696  156.4673 LP  0  0  0  0  0  0  0  0  0  0  0  0  # atno 17394 bound_to 11000
  140.8760  133.7953  155.9415 LP  0  0  0  0  0  0  0  0  0  0  0  0  # atno 17395 bound_to 11000

$$$$
