AV-unprocessed.smi:2054|AV-procd|sdf|8333|dock8
  -GOLD-   2272011 03D 1   1.00000     0.00000
 Structure written by MMmdl.
 43 44  0  0  0  0  0  0  0  0  2 V2000
  156.5860  132.1129  165.6629 C   0  0  0  0  0  0  0  0  0  0  0  0
  155.6459  131.4851  164.2106 S   0  0  0  0  0  0  0  0  0  0  0  0
  156.5761  130.6983  163.3861 O   0  0  0  0  0  0  0  0  0  0  0  0
  154.3865  130.8831  164.6744 O   0  0  0  0  0  0  0  0  0  0  0  0
  155.2517  132.9321  163.3379 N   0  0  0  0  0  0  0  0  0  0  0  0
  155.6694  133.0067  161.9234 C   0  0  0  0  0  0  0  0  0  0  0  0
  154.9278  134.1239  161.1713 C   0  0  0  0  0  0  0  0  0  0  0  0
  155.1039  135.4794  161.8747 C   0  0  0  0  0  0  0  0  0  0  0  0
  154.3572  136.5965  161.1336 C   0  0  0  0  0  0  0  0  0  0  0  0
  153.6218  136.3296  160.1823 O   0  0  0  0  0  0  0  0  0  0  0  0
  154.5534  137.8471  161.5793 N   0  0  0  0  0  0  0  0  0  0  0  0
  153.9271  139.0397  161.0212 C   0  0  0  0  0  0  0  0  0  0  0  0
  154.6884  140.3176  161.4126 C   0  0  0  0  0  0  0  0  0  0  0  0
  153.7985  141.5447  161.3884 C   0  0  0  0  0  0  0  0  0  0  0  0
  153.2049  142.0202  160.1991 C   0  0  0  0  0  0  0  0  0  0  0  0
  152.3941  143.1735  160.2475 C   0  0  0  0  0  0  0  0  0  0  0  0
  152.1948  143.8260  161.4818 C   0  0  0  0  0  0  0  0  0  0  0  0
  152.8126  143.3083  162.6386 C   0  0  0  0  0  0  0  0  0  0  0  0
  153.5827  142.2016  162.5514 N   0  3  0  0  0  0  0  0  0  0  0  0
  154.6006  135.3392  163.3199 C   0  0  0  0  0  0  0  0  0  0  0  0
  155.3388  134.2148  164.0649 C   0  0  0  0  0  0  0  0  0  0  0  0
  156.9533  131.2677  166.2441 H   0  0  0  0  0  0  0  0  0  0  0  0
  155.9411  132.7234  166.2931 H   0  0  0  0  0  0  0  0  0  0  0  0
  157.4314  132.7084  165.3190 H   0  0  0  0  0  0  0  0  0  0  0  0
  156.7465  133.1741  161.8821 H   0  0  0  0  0  0  0  0  0  0  0  0
  155.4822  132.0535  161.4313 H   0  0  0  0  0  0  0  0  0  0  0  0
  155.2996  134.1799  160.1474 H   0  0  0  0  0  0  0  0  0  0  0  0
  153.8694  133.8668  161.1013 H   0  0  0  0  0  0  0  0  0  0  0  0
  156.1674  135.7247  161.8975 H   0  0  0  0  0  0  0  0  0  0  0  0
  155.1712  137.9791  162.3673 H   0  0  0  0  0  0  0  0  0  0  0  0
  153.8592  138.9487  159.9359 H   0  0  0  0  0  0  0  0  0  0  0  0
  152.9033  139.0893  161.3929 H   0  0  0  0  0  0  0  0  0  0  0  0
  155.1173  140.2059  162.4094 H   0  0  0  0  0  0  0  0  0  0  0  0
  155.5267  140.4836  160.7344 H   0  0  0  0  0  0  0  0  0  0  0  0
  153.3687  141.5109  159.2605 H   0  0  0  0  0  0  0  0  0  0  0  0
  151.9313  143.5534  159.3483 H   0  0  0  0  0  0  0  0  0  0  0  0
  151.5776  144.7108  161.5402 H   0  0  0  0  0  0  0  0  0  0  0  0
  152.7148  143.7423  163.6230 H   0  0  0  0  0  0  0  0  0  0  0  0
  154.7344  136.2787  163.8574 H   0  0  0  0  0  0  0  0  0  0  0  0
  153.5295  135.1302  163.3284 H   0  0  0  0  0  0  0  0  0  0  0  0
  154.9073  134.1079  165.0598 H   0  0  0  0  0  0  0  0  0  0  0  0
  156.3896  134.4733  164.2013 H   0  0  0  0  0  0  0  0  0  0  0  0
  154.0205  141.8444  163.4012 H   0  0  0  0  0  0  0  0  0  0  0  0
  1  2  1  0  0  0  0
  1 22  1  0  0  0  0
  1 23  1  0  0  0  0
  1 24  1  0  0  0  0
  2  3  2  0  0  0  0
  2  4  2  0  0  0  0
  2  5  1  0  0  0  0
  5 21  1  0  0  0  0
  5  6  1  0  0  0  0
  6  7  1  0  0  0  0
  6 25  1  0  0  0  0
  6 26  1  0  0  0  0
  7  8  1  0  0  0  0
  7 27  1  0  0  0  0
  7 28  1  0  0  0  0
  8  9  1  0  0  0  0
  8 20  1  0  0  0  0
  8 29  1  0  0  0  0
  9 10  2  0  0  0  0
  9 11  1  0  0  0  0
 11 12  1  0  0  0  0
 11 30  1  0  0  0  0
 12 13  1  0  0  0  0
 12 31  1  0  0  0  0
 12 32  1  0  0  0  0
 13 14  1  0  0  0  0
 13 33  1  0  0  0  0
 13 34  1  0  0  0  0
 14 19  1  0  0  0  0
 14 15  2  0  0  0  0
 15 16  1  0  0  0  0
 15 35  1  0  0  0  0
 16 17  2  0  0  0  0
 16 36  1  0  0  0  0
 17 18  1  0  0  0  0
 17 37  1  0  0  0  0
 18 19  2  0  0  0  0
 18 38  1  0  0  0  0
 19 43  1  0  0  0  0
 20 21  1  0  0  0  0
 20 39  1  0  0  0  0
 20 40  1  0  0  0  0
 21 41  1  0  0  0  0
 21 42  1  0  0  0  0
M  CHG  1  19   1
M  END
> <s_m_source_file>
AV-unprocessed.smi

> <i_m_source_file_index>
2054

> <i_lp_mmshare_version>
43012

> <i_f3d_flags>
0

> <s_epik_input>
W0NIM11TKD1PKSg9TylOMVtDSDJdW0NIMl1bQ0hdKFtDSDJdW0NIMl0xKUMoPU8pW05IXVtDSDJdW0NIMl1jMltjSF1bY0hdW2NIXVtjSF1uMg==

> <s_epik_cmdline>
J2VwaWtfcHl0aG9uJywgJy1waCcsICc3LjAnLCAnLXRuJywgJzgnLCAnLW1hJywgJzIwMCcsICctbWV0YWxfYmluZGluZycsICctaW1hZScsICc8aW5maWxlLm1hZT4nLCAnLW9tYWUnLCAnPG91dGZpbGUubWFlPic=

> <r_epik_Ionization_Penalty>
1.82741

> <r_epik_Ionization_Penalty_Charging>
1.82741

> <r_epik_Ionization_Penalty_Neutral>
1.85342e-08

> <r_epik_State_Penalty>
1.94311

> <r_epik_Charging_Adjusted_Penalty>
3.77052

> <i_epik_Tot_Q>
1

> <i_epik_Tot_abs_Q>
1

> <r_epik_Metal_State_Penalty>
1.96983

> <b_epik_Metal_Only>
0

> <s_lp_Force_Field>
OPLS_2005

> <r_lp_Energy>
8.70127

> <b_lp_Chiralities_Consistent>
1

> <s_lp_Variant>
AV-unprocessed.smi:2054-2

> <Gold.Version>
5.8.1

> <Gold.Id.Protein>
6NUR|6NUR_protein|mol2

> <Gold.PLP.Fitness>
41.4273

> <Gold.PLP.PLP>
-39.2165

> <Gold.PLP.part.hbond>
-0.9738

> <Gold.PLP.part.metal>
0.0000

> <Gold.PLP.part.buried>
-5.1523

> <Gold.PLP.part.nonpolar>
-32.3223

> <Gold.PLP.part.repulsive>
0.0879

> <Gold.PLP.ligand.clash>
0.0000

> <Gold.PLP.ligand.torsion>
0.7696

> <Gold.PLP.Chemscore.Hbond>
1.0000

> <Gold.PLP.Chemscore.CHOScore>
0.0000

> <Gold.PLP.Chemscore.Metal>
0.0000

> <Gold.Chemscore.Hbonds>
donor molecule, donor type, donor heavy atom, donor atom, acceptor molecule, acceptor atom, score
      P1  H  6896  6908       L1    10  1.00

> <Gold.PLP.Chemscore.Internal.Correction>
0.7500

> <Gold.Rescore>
     Score         DG    S(hbond)    S(metal)    S(lipo)     H(rot)  DE(clash)    DE(int)     intcor
     16.14     -17.04       1.00        0.00     112.89       1.95       0.05       0.86       ----

> <Gold.Chemscore.Fitness>
16.1355

> <Gold.Chemscore.DG>
-17.0418

> <Gold.Chemscore.ZeroCoef>
-5.4800

> <Gold.Chemscore.Hbond>
0.9992

> <Gold.Chemscore.Metal>
0.0000

> <Gold.Chemscore.Lipo>
112.8857

> <Gold.Chemscore.Internal_Hbond>
0.0000

> <Gold.Chemscore.DEClash>
0.0476

> <Gold.Chemscore.DEInternal>
0.8588

> <Gold.Chemscore.Rot>
1.9466

> <Gold.Chemscore.Internal.Correction>
   9.000000E+99

> <Gold.Chemscore.Hbonds>
donor molecule, donor type, donor heavy atom, donor atom, acceptor molecule, acceptor atom, score
      P1  H  6896  6908       L1    10  0.98

> <Gold.Chemscore.Hbond.Weighted>
-3.3374

> <Gold.Chemscore.Metal.Weighted>
-0.0000

> <Gold.Chemscore.Lipo.Weighted>
-13.2076

> <Gold.Chemscore.Internal_Hbond.Weighted>
0.0000

> <Gold.Chemscore.DEClash.Weighted>
0.0476

> <Gold.Chemscore.DEInternal.Weighted>
0.8588

> <Gold.Chemscore.Rot.Weighted>
4.9832

> <Gold.Chemscore.Internal.Correction.Weighted>
   9.000000E+99

> <Gold.Protein.RotatedTorsions>
[ 6907 6896 6895 6894 ] final  -76.48 input  -60.11 | X-H torsion
[ 7974 7965 7964 7962 ] final  -37.37 input  175.53 | X-H torsion
[ 8008 7997 7996 7995 ] final  147.39 input   59.86 | X-H torsion
[ 10167 10162 10161 10158 ] final   30.30 input  -65.29 | X-H torsion
[ 10718 10713 10712 10709 ] final  -89.26 input   66.30 | X-H torsion
[ 10763 10752 10751 10750 ] final  -29.55 input  -60.55 | X-H torsion
[ 11005 11000 10999 10996 ] final  -55.62 input  -57.11 | X-H torsion

> <Gold.Protein.ActiveResidues>
 VAL166  LYS551  ARG553  GLY616  TRP617  ASP618  TYR619  PRO620  LYS621  CYS622 
 ASP623  PHE694  ASN695  SER759  ASP760  ASP761  ALA762  ILE779  LEU786  VAL792 
 PHE793  MET794  SER795  GLU796  ALA797  LYS798  CYS799  TRP800  GLU811  SER814 

> <Gold.Protein.RotatedAtoms>
  150.7026  134.4565  159.5360 H   0  0  0  0  0  0  0  0  0  0  0  0  # atno 6907 bound_to 6896
  152.2248  134.8376  160.0490 H   0  0  0  0  0  0  0  0  0  0  0  0  # atno 6908 bound_to 6896
  151.9213  133.3551  159.3935 H   0  0  0  0  0  0  0  0  0  0  0  0  # atno 6909 bound_to 6896
  146.0580  140.6388  142.9010 H   0  0  0  0  0  0  0  0  0  0  0  0  # atno 7974 bound_to 7965
  156.2826  140.2157  156.5529 H   0  0  0  0  0  0  0  0  0  0  0  0  # atno 8008 bound_to 7997
  154.7276  140.0498  157.0719 H   0  0  0  0  0  0  0  0  0  0  0  0  # atno 8009 bound_to 7997
  155.0396  140.3144  155.4732 H   0  0  0  0  0  0  0  0  0  0  0  0  # atno 8010 bound_to 7997
  140.4690  144.0792  150.6232 H   0  0  0  0  0  0  0  0  0  0  0  0  # atno 10167 bound_to 10162
  155.9984  130.4866  150.5144 H   0  0  0  0  0  0  0  0  0  0  0  0  # atno 10718 bound_to 10713
  153.7665  135.6915  153.4915 H   0  0  0  0  0  0  0  0  0  0  0  0  # atno 10763 bound_to 10752
  153.1903  135.4473  155.0140 H   0  0  0  0  0  0  0  0  0  0  0  0  # atno 10764 bound_to 10752
  154.8134  135.3387  154.7177 H   0  0  0  0  0  0  0  0  0  0  0  0  # atno 10765 bound_to 10752
  141.1082  133.6612  156.4497 H   0  0  0  0  0  0  0  0  0  0  0  0  # atno 11005 bound_to 11000
  144.7159  140.4207  143.7045 LP  0  0  0  0  0  0  0  0  0  0  0  0  # atno 17320 bound_to 7965
  145.6609  139.1581  143.2809 LP  0  0  0  0  0  0  0  0  0  0  0  0  # atno 17321 bound_to 7965
  140.4001  143.2708  151.9958 LP  0  0  0  0  0  0  0  0  0  0  0  0  # atno 17342 bound_to 10162
  139.4816  144.6005  151.7614 LP  0  0  0  0  0  0  0  0  0  0  0  0  # atno 17343 bound_to 10162
  157.3113  131.0664  151.1998 LP  0  0  0  0  0  0  0  0  0  0  0  0  # atno 17370 bound_to 10713
  157.2943  130.6812  149.6130 LP  0  0  0  0  0  0  0  0  0  0  0  0  # atno 17371 bound_to 10713
  140.4845  134.6633  157.5185 LP  0  0  0  0  0  0  0  0  0  0  0  0  # atno 17394 bound_to 11000
  139.9963  134.6906  155.9605 LP  0  0  0  0  0  0  0  0  0  0  0  0  # atno 17395 bound_to 11000

$$$$
