AV-unprocessed.smi:445|AV-procd|sdf|2590|dock5
  -GOLD-   2262022583D 1   1.00000     0.00000
 Structure written by MMmdl.
 44 45  0  0  0  0  0  0  0  0  3 V2000
  148.3465  139.6037  153.9232 C   0  0  0  0  0  0  0  0  0  0  0  0
  149.6523  140.1528  154.5229 C   0  0  1  0  0  0  0  0  0  0  0  0
  149.4018  140.8680  155.8673 C   0  0  0  0  0  0  0  0  0  0  0  0
  150.6968  141.4627  156.4435 C   0  0  0  0  0  0  0  0  0  0  0  0
  151.7886  140.3925  156.5874 C   0  0  0  0  0  0  0  0  0  0  0  0
  152.0471  139.6822  155.2480 C   0  0  0  0  0  0  0  0  0  0  0  0
  150.7564  139.0737  154.6550 C   0  0  1  0  0  0  0  0  0  0  0  0
  150.2914  137.9397  155.4551 N   0  0  0  0  0  0  0  0  0  0  0  0
  150.6649  136.6616  155.2924 C   0  0  0  0  0  0  0  0  0  0  0  0
  151.4480  136.2943  154.4155 O   0  0  0  0  0  0  0  0  0  0  0  0
  150.0478  135.6545  156.2731 C   0  0  0  0  0  0  0  0  0  0  0  0
  150.3673  134.2542  155.9408 N   0  0  0  0  0  0  0  0  0  0  0  0
  151.3107  133.6239  156.7714 C   0  0  0  0  0  0  0  0  0  0  0  0
  151.7019  132.3526  156.5778 C   0  0  0  0  0  0  0  0  0  0  0  0
  152.6812  131.7301  157.4428 N   0  3  0  0  0  0  0  0  0  0  0  0
  153.0271  130.5768  157.2076 O   0  0  0  0  0  0  0  0  0  0  0  0
  153.1368  132.3712  158.3852 O   0  5  0  0  0  0  0  0  0  0  0  0
  151.1157  131.6257  155.4712 C   0  0  0  0  0  0  0  0  0  0  0  0
  150.2084  132.2153  154.6512 C   0  0  0  0  0  0  0  0  0  0  0  0
  149.5857  131.5099  153.5083 C   0  0  0  0  0  0  0  0  0  0  0  0
  149.2424  132.3072  152.4887 N   0  0  0  0  0  0  0  0  0  0  0  0
  149.3637  130.3027  153.4162 O   0  0  0  0  0  0  0  0  0  0  0  0
  149.7881  133.6269  154.8693 C   0  0  0  0  0  0  0  0  0  0  0  0
  148.9809  134.2377  154.1640 O   0  0  0  0  0  0  0  0  0  0  0  0
  147.8719  138.8760  154.5818 H   0  0  0  0  0  0  0  0  0  0  0  0
  148.5302  139.1171  152.9649 H   0  0  0  0  0  0  0  0  0  0  0  0
  147.6295  140.4067  153.7516 H   0  0  0  0  0  0  0  0  0  0  0  0
  150.0235  140.9045  153.8244 H   0  0  0  0  0  0  0  0  0  0  0  0
  148.6673  141.6631  155.7342 H   0  0  0  0  0  0  0  0  0  0  0  0
  148.9698  140.1707  156.5864 H   0  0  0  0  0  0  0  0  0  0  0  0
  151.0530  142.2607  155.7910 H   0  0  0  0  0  0  0  0  0  0  0  0
  150.4966  141.9220  157.4121 H   0  0  0  0  0  0  0  0  0  0  0  0
  152.7104  140.8491  156.9486 H   0  0  0  0  0  0  0  0  0  0  0  0
  151.4912  139.6629  157.3417 H   0  0  0  0  0  0  0  0  0  0  0  0
  152.4604  140.4009  154.5391 H   0  0  0  0  0  0  0  0  0  0  0  0
  152.8129  138.9164  155.3749 H   0  0  0  0  0  0  0  0  0  0  0  0
  150.9830  138.7038  153.6533 H   0  0  0  0  0  0  0  0  0  0  0  0
  149.6404  138.1496  156.1978 H   0  0  0  0  0  0  0  0  0  0  0  0
  150.3974  135.8809  157.2821 H   0  0  0  0  0  0  0  0  0  0  0  0
  148.9700  135.8208  156.3096 H   0  0  0  0  0  0  0  0  0  0  0  0
  151.6962  134.2496  157.5639 H   0  0  0  0  0  0  0  0  0  0  0  0
  151.4226  130.6017  155.3199 H   0  0  0  0  0  0  0  0  0  0  0  0
  148.8124  131.9176  151.6629 H   0  0  0  0  0  0  0  0  0  0  0  0
  149.4179  133.2998  152.5503 H   0  0  0  0  0  0  0  0  0  0  0  0
  1  2  1  0  0  0  0
  1 25  1  0  0  0  0
  1 26  1  0  0  0  0
  1 27  1  0  0  0  0
  2  7  1  0  0  0  0
  2  3  1  0  0  0  0
  2 28  1  0  0  0  0
  3  4  1  0  0  0  0
  3 29  1  0  0  0  0
  3 30  1  0  0  0  0
  4  5  1  0  0  0  0
  4 31  1  0  0  0  0
  4 32  1  0  0  0  0
  5  6  1  0  0  0  0
  5 33  1  0  0  0  0
  5 34  1  0  0  0  0
  6  7  1  0  0  0  0
  6 35  1  0  0  0  0
  6 36  1  0  0  0  0
  7  8  1  0  0  0  0
  7 37  1  0  0  0  0
  8  9  1  0  0  0  0
  8 38  1  0  0  0  0
  9 10  2  0  0  0  0
  9 11  1  0  0  0  0
 11 12  1  0  0  0  0
 11 39  1  0  0  0  0
 11 40  1  0  0  0  0
 12 23  1  0  0  0  0
 12 13  1  0  0  0  0
 13 14  2  0  0  0  0
 13 41  1  0  0  0  0
 14 15  1  0  0  0  0
 14 18  1  0  0  0  0
 15 16  2  0  0  0  0
 15 17  1  0  0  0  0
 18 19  2  0  0  0  0
 18 42  1  0  0  0  0
 19 20  1  0  0  0  0
 19 23  1  0  0  0  0
 20 21  1  0  0  0  0
 20 22  2  0  0  0  0
 21 43  1  0  0  0  0
 21 44  1  0  0  0  0
 23 24  2  0  0  0  0
M  CHG  1  15   1
M  CHG  1  17  -1
M  END
> <s_m_source_file>
AV-unprocessed.smi

> <i_m_source_file_index>
445

> <i_lp_mmshare_version>
43012

> <i_f3d_flags>
0

> <s_epik_input>
W0NIM11bQ0BASF0xW0NIMl1bQ0gyXVtDSDJdW0NIMl1bQ0BIXTFbTkhdQyg9TylbQ0gyXW4yW2NIXWMoW04rXSg9TylbTy1dKVtjSF1jKGMyPU8pQyg9TylbTkgyXQ==

> <s_epik_cmdline>
J2VwaWtfcHl0aG9uJywgJy1waCcsICc3LjAnLCAnLXRuJywgJzgnLCAnLW1hJywgJzIwMCcsICctbWV0YWxfYmluZGluZycsICctaW1hZScsICc8aW5maWxlLm1hZT4nLCAnLW9tYWUnLCAnPG91dGZpbGUubWFlPic=

> <r_lp_tautomer_probability>
1

> <r_epik_Ionization_Penalty>
2.81321e-06

> <r_epik_Ionization_Penalty_Charging>
2.43777e-12

> <r_epik_Ionization_Penalty_Neutral>
2.81321e-06

> <r_epik_State_Penalty>
-0

> <r_epik_Charging_Adjusted_Penalty>
2.43777e-12

> <i_epik_Tot_Q>
0

> <i_epik_Tot_abs_Q>
2

> <r_epik_Metal_State_Penalty>
-0

> <b_epik_Metal_Only>
0

> <s_lp_Force_Field>
OPLS_2005

> <r_lp_Energy>
28.4442

> <b_lp_Chiralities_Consistent>
1

> <s_lp_Variant>
AV-unprocessed.smi:445-2

> <Gold.Version>
5.8.1

> <Gold.Id.Protein>
6NUR|6NUR_protein|mol2

> <Gold.PLP.Fitness>
41.3636

> <Gold.PLP.PLP>
-36.0837

> <Gold.PLP.part.hbond>
-3.0000

> <Gold.PLP.part.metal>
0.0000

> <Gold.PLP.part.buried>
-3.1241

> <Gold.PLP.part.nonpolar>
-32.3215

> <Gold.PLP.part.repulsive>
2.5054

> <Gold.PLP.ligand.clash>
0.0000

> <Gold.PLP.ligand.torsion>
0.9389

> <Gold.PLP.Chemscore.Hbond>
2.3770

> <Gold.PLP.Chemscore.CHOScore>
0.0000

> <Gold.PLP.Chemscore.Metal>
0.0000

> <Gold.Chemscore.Hbonds>
donor molecule, donor type, donor heavy atom, donor atom, acceptor molecule, acceptor atom, score
      L1  H    21    43       P1 10747  0.91
      P1  H  6896  6909       L1    17  1.00
      P1  H 10752 10765       L1    10  1.00

> <Gold.PLP.Chemscore.Internal.Correction>
0.0268

> <Gold.Rescore>
     Score         DG    S(hbond)    S(metal)    S(lipo)     H(rot)  DE(clash)    DE(int)     intcor
     14.07     -17.01       2.43        0.00      66.70       1.71       0.41       2.53       ----

> <Gold.Chemscore.Fitness>
14.0740

> <Gold.Chemscore.DG>
-17.0097

> <Gold.Chemscore.ZeroCoef>
-5.4800

> <Gold.Chemscore.Hbond>
2.4281

> <Gold.Chemscore.Metal>
0.0000

> <Gold.Chemscore.Lipo>
66.6953

> <Gold.Chemscore.Internal_Hbond>
0.0000

> <Gold.Chemscore.DEClash>
0.4077

> <Gold.Chemscore.DEInternal>
2.5279

> <Gold.Chemscore.Rot>
1.7123

> <Gold.Chemscore.Internal.Correction>
   9.000000E+99

> <Gold.Chemscore.Hbonds>
donor molecule, donor type, donor heavy atom, donor atom, acceptor molecule, acceptor atom, score
      L1  H    21    43       P1 10747  0.88
      P1  H  6896  6909       L1    17  1.00
      P1  H 10752 10765       L1    10  0.99

> <Gold.Chemscore.Hbond.Weighted>
-8.1098

> <Gold.Chemscore.Metal.Weighted>
-0.0000

> <Gold.Chemscore.Lipo.Weighted>
-7.8033

> <Gold.Chemscore.Internal_Hbond.Weighted>
0.0000

> <Gold.Chemscore.DEClash.Weighted>
0.4077

> <Gold.Chemscore.DEInternal.Weighted>
2.5279

> <Gold.Chemscore.Rot.Weighted>
4.3835

> <Gold.Chemscore.Internal.Correction.Weighted>
   9.000000E+99

> <Gold.Protein.RotatedTorsions>
[ 6907 6896 6895 6894 ] final  -99.27 input  -60.11 | X-H torsion
[ 7974 7965 7964 7962 ] final -141.22 input  175.53 | X-H torsion
[ 8008 7997 7996 7995 ] final  -44.02 input   59.86 | X-H torsion
[ 10167 10162 10161 10158 ] final -127.59 input  -65.29 | X-H torsion
[ 10718 10713 10712 10709 ] final  106.22 input   66.30 | X-H torsion
[ 10763 10752 10751 10750 ] final  159.20 input  -60.55 | X-H torsion
[ 11005 11000 10999 10996 ] final   95.38 input  -57.11 | X-H torsion

> <Gold.Protein.ActiveResidues>
 VAL166  LYS551  ARG553  GLY616  TRP617  ASP618  TYR619  PRO620  LYS621  CYS622 
 ASP623  PHE694  ASN695  SER759  ASP760  ASP761  ALA762  ILE779  LEU786  VAL792 
 PHE793  MET794  SER795  GLU796  ALA797  LYS798  CYS799  TRP800  GLU811  SER814 

> <Gold.Protein.RotatedAtoms>
  150.7074  134.1066  159.3984 H   0  0  0  0  0  0  0  0  0  0  0  0  # atno 6907 bound_to 6896
  151.9053  135.0359  160.0519 H   0  0  0  0  0  0  0  0  0  0  0  0  # atno 6908 bound_to 6896
  152.2381  133.5077  159.5291 H   0  0  0  0  0  0  0  0  0  0  0  0  # atno 6909 bound_to 6896
  144.8536  140.6106  143.5374 H   0  0  0  0  0  0  0  0  0  0  0  0  # atno 7974 bound_to 7965
  154.3997  140.1433  156.3614 H   0  0  0  0  0  0  0  0  0  0  0  0  # atno 8008 bound_to 7997
  155.8178  140.3470  155.5475 H   0  0  0  0  0  0  0  0  0  0  0  0  # atno 8009 bound_to 7997
  155.8320  140.0913  157.1777 H   0  0  0  0  0  0  0  0  0  0  0  0  # atno 8010 bound_to 7997
  139.9593  143.5968  152.2450 H   0  0  0  0  0  0  0  0  0  0  0  0  # atno 10167 bound_to 10162
  157.6676  131.0846  150.5974 H   0  0  0  0  0  0  0  0  0  0  0  0  # atno 10718 bound_to 10713
  154.2280  135.2779  155.2900 H   0  0  0  0  0  0  0  0  0  0  0  0  # atno 10763 bound_to 10752
  154.5647  135.5636  153.7043 H   0  0  0  0  0  0  0  0  0  0  0  0  # atno 10764 bound_to 10752
  153.0026  135.6306  154.2421 H   0  0  0  0  0  0  0  0  0  0  0  0  # atno 10765 bound_to 10752
  139.8789  134.8896  156.4003 H   0  0  0  0  0  0  0  0  0  0  0  0  # atno 11005 bound_to 11000
  145.4450  139.1530  143.3949 LP  0  0  0  0  0  0  0  0  0  0  0  0  # atno 17320 bound_to 7965
  146.2805  140.4573  142.8778 LP  0  0  0  0  0  0  0  0  0  0  0  0  # atno 17321 bound_to 7965
  139.6567  144.7662  151.2042 LP  0  0  0  0  0  0  0  0  0  0  0  0  # atno 17342 bound_to 10162
  140.7558  143.6075  150.8638 LP  0  0  0  0  0  0  0  0  0  0  0  0  # atno 17343 bound_to 10162
  156.6275  130.4423  149.5799 LP  0  0  0  0  0  0  0  0  0  0  0  0  # atno 17370 bound_to 10713
  156.2308  130.6793  151.1461 LP  0  0  0  0  0  0  0  0  0  0  0  0  # atno 17371 bound_to 10713
  140.9271  133.7604  155.9979 LP  0  0  0  0  0  0  0  0  0  0  0  0  # atno 17394 bound_to 11000
  140.8373  134.3108  157.5327 LP  0  0  0  0  0  0  0  0  0  0  0  0  # atno 17395 bound_to 11000

$$$$
