AV-unprocessed.smi:3096|AV-procd|sdf|11796|dock3
  -GOLD-   2272017173D 1   1.00000     0.00000
 Structure written by MMmdl.
 33 33  0  0  0  0  0  0  0  0  2 V2000
  140.3559  136.8778  153.8665 C   0  0  0  0  0  0  0  0  0  0  0  0
  141.5817  136.4081  153.5916 C   0  0  0  0  0  0  0  0  0  0  0  0
  142.7258  137.2564  153.0825 C   0  0  0  0  0  0  0  0  0  0  0  0
  143.9189  136.4130  152.9435 N   0  0  0  0  0  0  0  0  0  0  0  0
  145.1266  136.8225  152.5084 C   0  0  0  0  0  0  0  0  0  0  0  0
  145.3146  138.1073  152.1482 N   0  3  0  0  0  0  0  0  0  0  0  0
  146.5734  138.6818  151.6583 C   0  0  0  0  0  0  0  0  0  0  0  0
  146.1471  135.9456  152.4343 N   0  0  0  0  0  0  0  0  0  0  0  0
  146.0816  134.5264  152.8070 C   0  0  0  0  0  0  0  0  0  0  0  0
  146.8113  133.6469  151.7833 C   0  0  0  0  0  0  0  0  0  0  0  0
  145.9024  133.1383  150.7748 N   0  0  0  0  0  0  0  0  0  0  0  0
  146.1464  132.2033  149.7906 C   0  0  0  0  0  0  0  0  0  0  0  0
  144.9889  132.0477  149.0832 C   0  0  0  0  0  0  0  0  0  0  0  0
  144.0808  132.9397  149.7193 C   0  0  0  0  0  0  0  0  0  0  0  0
  144.6308  133.5909  150.7317 N   0  0  0  0  0  0  0  0  0  0  0  0
  140.1126  137.9224  153.7395 H   0  0  0  0  0  0  0  0  0  0  0  0
  139.5775  136.2196  154.2240 H   0  0  0  0  0  0  0  0  0  0  0  0
  141.7858  135.3558  153.7284 H   0  0  0  0  0  0  0  0  0  0  0  0
  142.4591  137.6800  152.1140 H   0  0  0  0  0  0  0  0  0  0  0  0
  142.9291  138.0795  153.7686 H   0  0  0  0  0  0  0  0  0  0  0  0
  143.8133  135.4438  153.2075 H   0  0  0  0  0  0  0  0  0  0  0  0
  146.4417  139.7408  151.4354 H   0  0  0  0  0  0  0  0  0  0  0  0
  146.8946  138.1749  150.7483 H   0  0  0  0  0  0  0  0  0  0  0  0
  147.3567  138.5817  152.4097 H   0  0  0  0  0  0  0  0  0  0  0  0
  147.0422  136.2836  152.1104 H   0  0  0  0  0  0  0  0  0  0  0  0
  146.5274  134.4055  153.7949 H   0  0  0  0  0  0  0  0  0  0  0  0
  145.0365  134.2252  152.8840 H   0  0  0  0  0  0  0  0  0  0  0  0
  147.5989  134.2154  151.2867 H   0  0  0  0  0  0  0  0  0  0  0  0
  147.2926  132.8007  152.2761 H   0  0  0  0  0  0  0  0  0  0  0  0
  147.1119  131.7324  149.6759 H   0  0  0  0  0  0  0  0  0  0  0  0
  144.8161  131.3955  148.2399 H   0  0  0  0  0  0  0  0  0  0  0  0
  143.0459  133.1326  149.4770 H   0  0  0  0  0  0  0  0  0  0  0  0
  144.5309  138.7408  152.2183 H   0  0  0  0  0  0  0  0  0  0  0  0
  1  2  2  0  0  0  0
  1 16  1  0  0  0  0
  1 17  1  0  0  0  0
  2  3  1  0  0  0  0
  2 18  1  0  0  0  0
  3  4  1  0  0  0  0
  3 19  1  0  0  0  0
  3 20  1  0  0  0  0
  4  5  1  0  0  0  0
  4 21  1  0  0  0  0
  5  6  2  0  0  0  0
  5  8  1  0  0  0  0
  6  7  1  0  0  0  0
  6 33  1  0  0  0  0
  7 22  1  0  0  0  0
  7 23  1  0  0  0  0
  7 24  1  0  0  0  0
  8  9  1  0  0  0  0
  8 25  1  0  0  0  0
  9 10  1  0  0  0  0
  9 26  1  0  0  0  0
  9 27  1  0  0  0  0
 10 11  1  0  0  0  0
 10 28  1  0  0  0  0
 10 29  1  0  0  0  0
 11 15  1  0  0  0  0
 11 12  1  0  0  0  0
 12 13  2  0  0  0  0
 12 30  1  0  0  0  0
 13 14  1  0  0  0  0
 13 31  1  0  0  0  0
 14 15  2  0  0  0  0
 14 32  1  0  0  0  0
M  CHG  1   6   1
M  END
> <s_m_source_file>
AV-unprocessed.smi

> <i_m_source_file_index>
3096

> <i_lp_mmshare_version>
43012

> <i_f3d_flags>
0

> <s_epik_input>
W0NIMl09W0NIXVtDSDJdW05IXS9DKD1OL1tDSDNdKVtOSF1bQ0gyXVtDSDJdbjFbY0hdW2NIXVtjSF1uMQ==

> <s_epik_cmdline>
J2VwaWtfcHl0aG9uJywgJy1waCcsICc3LjAnLCAnLXRuJywgJzgnLCAnLW1hJywgJzIwMCcsICctbWV0YWxfYmluZGluZycsICctaW1hZScsICc8aW5maWxlLm1hZT4nLCAnLW9tYWUnLCAnPG91dGZpbGUubWFlPic=

> <r_lp_tautomer_probability>
1

> <r_epik_Ionization_Penalty>
5.14269e-05

> <r_epik_Ionization_Penalty_Charging>
1.55211e-07

> <r_epik_Ionization_Penalty_Neutral>
5.12717e-05

> <r_epik_State_Penalty>
-0

> <r_epik_Charging_Adjusted_Penalty>
1.55211e-07

> <i_epik_Tot_Q>
1

> <i_epik_Tot_abs_Q>
1

> <r_epik_Metal_State_Penalty>
-0

> <b_epik_Metal_Only>
0

> <s_epik_Chemistry_Notes>
This compound has an imine and may undergo hydrolysis.

> <s_lp_Force_Field>
OPLS_2005

> <r_lp_Energy>
4.847

> <b_lp_Chiralities_Consistent>
1

> <s_lp_Variant>
AV-unprocessed.smi:3096-1

> <Gold.Version>
5.8.1

> <Gold.Id.Protein>
6NUR|6NUR_protein|mol2

> <Gold.PLP.Fitness>
48.5341

> <Gold.PLP.PLP>
-31.2968

> <Gold.PLP.part.hbond>
-3.0000

> <Gold.PLP.part.metal>
0.0000

> <Gold.PLP.part.buried>
-3.1903

> <Gold.PLP.part.nonpolar>
-25.9829

> <Gold.PLP.part.repulsive>
0.1728

> <Gold.PLP.ligand.clash>
0.0000

> <Gold.PLP.ligand.torsion>
0.4068

> <Gold.PLP.Chemscore.Hbond>
4.0000

> <Gold.PLP.Chemscore.CHOScore>
2.0000

> <Gold.PLP.Chemscore.Metal>
0.0000

> <Gold.Chemscore.Hbonds>
donor molecule, donor type, donor heavy atom, donor atom, acceptor molecule, acceptor atom, score
      L1  H     6    33       P1 10175  2.00
      L1  H     8    25       P1  7948  2.00
      L1  C    12    30       P1 10747  1.00
      L1  C    14    32       P1 10186  1.00

> <Gold.PLP.Chemscore.Internal.Correction>
0.0508

> <Gold.Rescore>
     Score         DG    S(hbond)    S(metal)    S(lipo)     H(rot)  DE(clash)    DE(int)     intcor
     14.67     -15.12       1.97        0.00      67.53       1.89       0.02       0.43       ----

> <Gold.Chemscore.Fitness>
14.6746

> <Gold.Chemscore.DG>
-15.1211

> <Gold.Chemscore.ZeroCoef>
-5.4800

> <Gold.Chemscore.Hbond>
1.9688

> <Gold.Chemscore.Metal>
0.0000

> <Gold.Chemscore.Lipo>
67.5340

> <Gold.Chemscore.Internal_Hbond>
0.0000

> <Gold.Chemscore.DEClash>
0.0187

> <Gold.Chemscore.DEInternal>
0.4277

> <Gold.Chemscore.Rot>
1.8891

> <Gold.Chemscore.Internal.Correction>
   9.000000E+99

> <Gold.Chemscore.Hbonds>
donor molecule, donor type, donor heavy atom, donor atom, acceptor molecule, acceptor atom, score
      L1  H     6    33       P1 10175  0.98
      L1  H     8    25       P1  7948  0.98

> <Gold.Chemscore.Hbond.Weighted>
-6.5757

> <Gold.Chemscore.Metal.Weighted>
-0.0000

> <Gold.Chemscore.Lipo.Weighted>
-7.9015

> <Gold.Chemscore.Internal_Hbond.Weighted>
0.0000

> <Gold.Chemscore.DEClash.Weighted>
0.0187

> <Gold.Chemscore.DEInternal.Weighted>
0.4277

> <Gold.Chemscore.Rot.Weighted>
4.8361

> <Gold.Chemscore.Internal.Correction.Weighted>
   9.000000E+99

> <Gold.Protein.RotatedTorsions>
[ 6907 6896 6895 6894 ] final -167.31 input  -60.11 | X-H torsion
[ 7974 7965 7964 7962 ] final -143.39 input  175.53 | X-H torsion
[ 8008 7997 7996 7995 ] final   -7.99 input   59.86 | X-H torsion
[ 10167 10162 10161 10158 ] final  116.82 input  -65.29 | X-H torsion
[ 10718 10713 10712 10709 ] final -175.35 input   66.30 | X-H torsion
[ 10763 10752 10751 10750 ] final  156.78 input  -60.55 | X-H torsion
[ 11005 11000 10999 10996 ] final   99.68 input  -57.11 | X-H torsion

> <Gold.Protein.ActiveResidues>
 VAL166  LYS551  ARG553  GLY616  TRP617  ASP618  TYR619  PRO620  LYS621  CYS622 
 ASP623  PHE694  ASN695  SER759  ASP760  ASP761  ALA762  ILE779  LEU786  VAL792 
 PHE793  MET794  SER795  GLU796  ALA797  LYS798  CYS799  TRP800  GLU811  SER814 

> <Gold.Protein.RotatedAtoms>
  151.4576  133.3601  159.2804 H   0  0  0  0  0  0  0  0  0  0  0  0  # atno 6907 bound_to 6896
  150.9048  134.8464  159.7395 H   0  0  0  0  0  0  0  0  0  0  0  0  # atno 6908 bound_to 6896
  152.4899  134.4500  159.9623 H   0  0  0  0  0  0  0  0  0  0  0  0  # atno 6909 bound_to 6896
  144.8373  140.5841  143.5475 H   0  0  0  0  0  0  0  0  0  0  0  0  # atno 7974 bound_to 7965
  154.5785  140.2393  155.8088 H   0  0  0  0  0  0  0  0  0  0  0  0  # atno 8008 bound_to 7997
  156.2161  140.3012  155.9800 H   0  0  0  0  0  0  0  0  0  0  0  0  # atno 8009 bound_to 7997
  155.2584  140.0413  157.2985 H   0  0  0  0  0  0  0  0  0  0  0  0  # atno 8010 bound_to 7997
  139.6221  144.7102  151.2612 H   0  0  0  0  0  0  0  0  0  0  0  0  # atno 10167 bound_to 10162
  156.7986  130.9544  151.3119 H   0  0  0  0  0  0  0  0  0  0  0  0  # atno 10718 bound_to 10713
  154.1898  135.2795  155.3025 H   0  0  0  0  0  0  0  0  0  0  0  0  # atno 10763 bound_to 10752
  154.5938  135.5551  153.7308 H   0  0  0  0  0  0  0  0  0  0  0  0  # atno 10764 bound_to 10752
  153.0115  135.6375  154.2036 H   0  0  0  0  0  0  0  0  0  0  0  0  # atno 10765 bound_to 10752
  139.8770  134.9106  156.4642 H   0  0  0  0  0  0  0  0  0  0  0  0  # atno 11005 bound_to 11000
  145.4767  139.1498  143.3784 LP  0  0  0  0  0  0  0  0  0  0  0  0  # atno 17320 bound_to 7965
  146.2670  140.4902  142.8830 LP  0  0  0  0  0  0  0  0  0  0  0  0  # atno 17321 bound_to 7965
  140.7388  143.6636  150.8142 LP  0  0  0  0  0  0  0  0  0  0  0  0  # atno 17342 bound_to 10162
  140.0248  143.5504  152.2785 LP  0  0  0  0  0  0  0  0  0  0  0  0  # atno 17343 bound_to 10162
  157.6565  130.8929  149.9740 LP  0  0  0  0  0  0  0  0  0  0  0  0  # atno 17370 bound_to 10713
  156.1115  130.3650  150.0041 LP  0  0  0  0  0  0  0  0  0  0  0  0  # atno 17371 bound_to 10713
  140.8842  133.7895  155.9500 LP  0  0  0  0  0  0  0  0  0  0  0  0  # atno 17394 bound_to 11000
  140.8822  134.2598  157.5138 LP  0  0  0  0  0  0  0  0  0  0  0  0  # atno 17395 bound_to 11000

$$$$
