AV-unprocessed.smi:1965|AV-procd|sdf|7943|dock6
  -GOLD-   2272010113D 1   1.00000     0.00000
 Structure written by MMmdl.
 36 38  0  0  0  0  0  0  0  0  3 V2000
  148.7161  135.5944  159.3340 O   0  0  0  0  0  0  0  0  0  0  0  0
  148.5364  136.7624  159.6758 C   0  0  0  0  0  0  0  0  0  0  0  0
  147.6596  137.1362  160.6439 N   0  5  0  0  0  0  0  0  0  0  0  0
  146.8619  136.2548  161.2756 C   0  0  0  0  0  0  0  0  0  0  0  0
  147.2276  134.9948  161.5380 N   0  0  0  0  0  0  0  0  0  0  0  0
  146.2410  134.2550  162.1924 C   0  0  0  0  0  0  0  0  0  0  0  0
  145.0972  134.9686  162.4340 C   0  0  0  0  0  0  0  0  0  0  0  0
  145.2285  136.6029  161.8496 S   0  0  0  0  0  0  0  0  0  0  0  0
  149.2379  137.7342  159.0647 N   0  0  0  0  0  0  0  0  0  0  0  0
  150.2346  137.5589  158.0142 C   0  0  1  0  0  0  0  0  0  0  0  0
  149.6530  137.0002  156.6973 C   0  0  0  0  0  0  0  0  0  0  0  0
  150.2412  137.8872  155.5953 C   0  0  0  0  0  0  0  0  0  0  0  0
  150.4131  139.1824  156.2648 N   0  3  2  0  0  0  0  0  0  0  0  0
  151.2072  140.2236  155.5804 C   0  0  0  0  0  0  0  0  0  0  0  0
  151.1192  141.5299  156.3987 C   0  0  0  0  0  0  0  0  0  0  0  0
  151.4985  141.3174  157.8816 C   0  0  0  0  0  0  0  0  0  0  0  0
  150.7163  140.1422  158.5043 C   0  0  0  0  0  0  0  0  0  0  0  0
  150.9033  138.8931  157.6227 C   0  0  1  0  0  0  0  0  0  0  0  0
  146.4391  133.2250  162.4491 H   0  0  0  0  0  0  0  0  0  0  0  0
  144.1929  134.6373  162.9219 H   0  0  0  0  0  0  0  0  0  0  0  0
  149.0632  138.6810  159.3683 H   0  0  0  0  0  0  0  0  0  0  0  0
  151.0083  136.8858  158.3882 H   0  0  0  0  0  0  0  0  0  0  0  0
  149.8892  135.9460  156.5508 H   0  0  0  0  0  0  0  0  0  0  0  0
  148.5658  137.0947  156.6927 H   0  0  0  0  0  0  0  0  0  0  0  0
  151.2122  137.5064  155.2744 H   0  0  0  0  0  0  0  0  0  0  0  0
  149.5914  137.9609  154.7227 H   0  0  0  0  0  0  0  0  0  0  0  0
  152.2436  139.8982  155.4782 H   0  0  0  0  0  0  0  0  0  0  0  0
  150.8161  140.3823  154.5749 H   0  0  0  0  0  0  0  0  0  0  0  0
  151.7593  142.2930  155.9550 H   0  0  0  0  0  0  0  0  0  0  0  0
  150.1004  141.9161  156.3454 H   0  0  0  0  0  0  0  0  0  0  0  0
  152.5683  141.1172  157.9539 H   0  0  0  0  0  0  0  0  0  0  0  0
  151.3179  142.2303  158.4497 H   0  0  0  0  0  0  0  0  0  0  0  0
  151.0704  139.9509  159.5180 H   0  0  0  0  0  0  0  0  0  0  0  0
  149.6595  140.4022  158.5816 H   0  0  0  0  0  0  0  0  0  0  0  0
  151.9741  138.6910  157.5471 H   0  0  0  0  0  0  0  0  0  0  0  0
  149.4807  139.5540  156.3787 H   0  0  0  0  0  0  0  0  0  0  0  0
  1  2  2  0  0  0  0
  2  3  1  0  0  0  0
  2  9  1  0  0  0  0
  3  4  1  0  0  0  0
  4  8  1  0  0  0  0
  4  5  2  0  0  0  0
  5  6  1  0  0  0  0
  6  7  2  0  0  0  0
  6 19  1  0  0  0  0
  7  8  1  0  0  0  0
  7 20  1  0  0  0  0
  9 10  1  0  0  0  0
  9 21  1  0  0  0  0
 10 18  1  0  0  0  0
 10 11  1  0  0  0  0
 10 22  1  0  0  0  0
 11 12  1  0  0  0  0
 11 23  1  0  0  0  0
 11 24  1  0  0  0  0
 12 13  1  0  0  0  0
 12 25  1  0  0  0  0
 12 26  1  0  0  0  0
 13 18  1  0  0  0  0
 13 14  1  0  0  0  0
 13 36  1  0  0  0  0
 14 15  1  0  0  0  0
 14 27  1  0  0  0  0
 14 28  1  0  0  0  0
 15 16  1  0  0  0  0
 15 29  1  0  0  0  0
 15 30  1  0  0  0  0
 16 17  1  0  0  0  0
 16 31  1  0  0  0  0
 16 32  1  0  0  0  0
 17 18  1  0  0  0  0
 17 33  1  0  0  0  0
 17 34  1  0  0  0  0
 18 35  1  0  0  0  0
M  CHG  1   3  -1
M  CHG  1  13   1
M  END
> <s_m_source_file>
AV-unprocessed.smi

> <i_m_source_file_index>
1965

> <i_lp_mmshare_version>
43012

> <i_f3d_flags>
0

> <s_epik_input>
czFbY0hdW2NIXW5jMVtOSF1DKD1PKVtOSF1bQ0BIXShbQ0gyXVtDSDJdMilbQ0BASF0oTjIzKVtDSDJdW0NIMl1bQ0gyXVtDSDJdMw==

> <s_epik_cmdline>
J2VwaWtfcHl0aG9uJywgJy1waCcsICc3LjAnLCAnLXRuJywgJzgnLCAnLW1hJywgJzIwMCcsICctbWV0YWxfYmluZGluZycsICctaW1hZScsICc8aW5maWxlLm1hZT4nLCAnLW9tYWUnLCAnPG91dGZpbGUubWFlPic=

> <r_lp_tautomer_probability>
1

> <r_epik_Ionization_Penalty>
7.4116

> <r_epik_Ionization_Penalty_Charging>
6.13869

> <r_epik_Ionization_Penalty_Neutral>
1.27291

> <r_epik_State_Penalty>
6.13761

> <r_epik_Charging_Adjusted_Penalty>
12.2763

> <i_epik_Tot_Q>
0

> <i_epik_Tot_abs_Q>
2

> <r_epik_Metal_State_Penalty>
2.08142

> <b_epik_Metal_Only>
1

> <s_lp_Force_Field>
OPLS_2005

> <r_lp_Energy>
32.5812

> <b_lp_Chiralities_Consistent>
1

> <s_lp_Variant>
AV-unprocessed.smi:1965-12

> <Gold.Version>
5.8.1

> <Gold.Id.Protein>
6NUR|6NUR_protein|mol2

> <Gold.PLP.Fitness>
41.6351

> <Gold.PLP.PLP>
-28.5789

> <Gold.PLP.part.hbond>
-3.0000

> <Gold.PLP.part.metal>
0.0000

> <Gold.PLP.part.buried>
-4.6117

> <Gold.PLP.part.nonpolar>
-21.7792

> <Gold.PLP.part.repulsive>
0.2639

> <Gold.PLP.ligand.clash>
0.0000

> <Gold.PLP.ligand.torsion>
0.2532

> <Gold.PLP.Chemscore.Hbond>
4.5200

> <Gold.PLP.Chemscore.CHOScore>
0.0000

> <Gold.PLP.Chemscore.Metal>
0.0000

> <Gold.Chemscore.Hbonds>
donor molecule, donor type, donor heavy atom, donor atom, acceptor molecule, acceptor atom, score
      P1  H  6896  6907       L1     1  0.50
      P1  H  6931  6943       L1     3  0.95
      P1  H  6934  6947       L1     3  1.89

> <Gold.PLP.Chemscore.Internal.Correction>
0.0025

> <Gold.Rescore>
     Score         DG    S(hbond)    S(metal)    S(lipo)     H(rot)  DE(clash)    DE(int)     intcor
     14.64     -16.45       1.90        0.00      61.42       1.00       0.03       1.77       ----

> <Gold.Chemscore.Fitness>
14.6424

> <Gold.Chemscore.DG>
-16.4458

> <Gold.Chemscore.ZeroCoef>
-5.4800

> <Gold.Chemscore.Hbond>
1.8980

> <Gold.Chemscore.Metal>
0.0000

> <Gold.Chemscore.Lipo>
61.4233

> <Gold.Chemscore.Internal_Hbond>
0.0000

> <Gold.Chemscore.DEClash>
0.0330

> <Gold.Chemscore.DEInternal>
1.7705

> <Gold.Chemscore.Rot>
1.0000

> <Gold.Chemscore.Internal.Correction>
   9.000000E+99

> <Gold.Chemscore.Hbonds>
donor molecule, donor type, donor heavy atom, donor atom, acceptor molecule, acceptor atom, score
      P1  H  6896  6907       L1     1  0.46
      P1  H  6931  6943       L1     3  0.09
      P1  H  6934  6947       L1     3  0.81

> <Gold.Chemscore.Hbond.Weighted>
-6.3393

> <Gold.Chemscore.Metal.Weighted>
-0.0000

> <Gold.Chemscore.Lipo.Weighted>
-7.1865

> <Gold.Chemscore.Internal_Hbond.Weighted>
0.0000

> <Gold.Chemscore.DEClash.Weighted>
0.0330

> <Gold.Chemscore.DEInternal.Weighted>
1.7705

> <Gold.Chemscore.Rot.Weighted>
2.5600

> <Gold.Chemscore.Internal.Correction.Weighted>
   9.000000E+99

> <Gold.Protein.RotatedTorsions>
[ 6907 6896 6895 6894 ] final  -54.89 input  -60.11 | X-H torsion
[ 7974 7965 7964 7962 ] final  -39.77 input  175.53 | X-H torsion
[ 8008 7997 7996 7995 ] final   23.30 input   59.86 | X-H torsion
[ 10167 10162 10161 10158 ] final -124.44 input  -65.29 | X-H torsion
[ 10718 10713 10712 10709 ] final -140.86 input   66.30 | X-H torsion
[ 10763 10752 10751 10750 ] final   49.70 input  -60.55 | X-H torsion
[ 11005 11000 10999 10996 ] final  135.46 input  -57.11 | X-H torsion

> <Gold.Protein.ActiveResidues>
 VAL166  LYS551  ARG553  GLY616  TRP617  ASP618  TYR619  PRO620  LYS621  CYS622 
 ASP623  PHE694  ASN695  SER759  ASP760  ASP761  ALA762  ILE779  LEU786  VAL792 
 PHE793  MET794  SER795  GLU796  ALA797  LYS798  CYS799  TRP800  GLU811  SER814 

> <Gold.Protein.RotatedAtoms>
  150.8298  134.7546  159.6843 H   0  0  0  0  0  0  0  0  0  0  0  0  # atno 6907 bound_to 6896
  152.4404  134.5598  159.9901 H   0  0  0  0  0  0  0  0  0  0  0  0  # atno 6908 bound_to 6896
  151.5762  133.3346  159.3035 H   0  0  0  0  0  0  0  0  0  0  0  0  # atno 6909 bound_to 6896
  146.0366  140.6663  142.9107 H   0  0  0  0  0  0  0  0  0  0  0  0  # atno 7974 bound_to 7965
  154.9788  140.3099  155.4955 H   0  0  0  0  0  0  0  0  0  0  0  0  # atno 8008 bound_to 7997
  156.2956  140.2270  156.4825 H   0  0  0  0  0  0  0  0  0  0  0  0  # atno 8009 bound_to 7997
  154.7808  140.0446  157.1114 H   0  0  0  0  0  0  0  0  0  0  0  0  # atno 8010 bound_to 7997
  139.9928  143.5623  152.2335 H   0  0  0  0  0  0  0  0  0  0  0  0  # atno 10167 bound_to 10162
  156.3272  130.7566  151.1677 H   0  0  0  0  0  0  0  0  0  0  0  0  # atno 10718 bound_to 10713
  152.9786  135.5903  154.4133 H   0  0  0  0  0  0  0  0  0  0  0  0  # atno 10763 bound_to 10752
  154.3765  135.2767  155.2238 H   0  0  0  0  0  0  0  0  0  0  0  0  # atno 10764 bound_to 10752
  154.4170  135.6068  153.6041 H   0  0  0  0  0  0  0  0  0  0  0  0  # atno 10765 bound_to 10752
  139.9981  134.9489  157.0010 H   0  0  0  0  0  0  0  0  0  0  0  0  # atno 11005 bound_to 11000
  144.7054  140.3831  143.7122 LP  0  0  0  0  0  0  0  0  0  0  0  0  # atno 17320 bound_to 7965
  145.6954  139.1648  143.2623 LP  0  0  0  0  0  0  0  0  0  0  0  0  # atno 17321 bound_to 7965
  139.6328  144.7646  151.2501 LP  0  0  0  0  0  0  0  0  0  0  0  0  # atno 17342 bound_to 10162
  140.7448  143.6450  150.8300 LP  0  0  0  0  0  0  0  0  0  0  0  0  # atno 17343 bound_to 10162
  157.7423  131.0491  150.5030 LP  0  0  0  0  0  0  0  0  0  0  0  0  # atno 17370 bound_to 10713
  156.5191  130.4157  149.6260 LP  0  0  0  0  0  0  0  0  0  0  0  0  # atno 17371 bound_to 10713
  140.4780  134.1319  155.7212 LP  0  0  0  0  0  0  0  0  0  0  0  0  # atno 17394 bound_to 11000
  141.1620  133.8774  157.1820 LP  0  0  0  0  0  0  0  0  0  0  0  0  # atno 17395 bound_to 11000

$$$$
