AV-unprocessed.smi:2040|AV-procd|sdf|8289|dock3
  -GOLD-   2272010553D 1   1.00000     0.00000
 Structure written by MMmdl.
 38 39  0  0  0  0  0  0  0  0  1 V2000
  150.1539  142.2964  155.8873 C   0  0  0  0  0  0  0  0  0  0  0  0
  149.9479  140.9596  155.2385 C   0  0  0  0  0  0  0  0  0  0  0  0
  148.7283  140.3900  154.7697 C   0  0  0  0  0  0  0  0  0  0  0  0
  149.1308  139.1770  154.2816 C   0  0  0  0  0  0  0  0  0  0  0  0
  148.3846  138.1938  153.7116 N   0  0  0  0  0  0  0  0  0  0  0  0
  147.1157  137.8395  153.9788 C   0  0  0  0  0  0  0  0  0  0  0  0
  146.3790  138.3885  154.7980 O   0  0  0  0  0  0  0  0  0  0  0  0
  146.7410  136.7950  153.2260 N   0  0  0  0  0  0  0  0  0  0  0  0
  145.4337  136.1419  153.2599 C   0  0  1  0  0  0  0  0  0  0  0  0
  144.3886  137.0621  152.6110 C   0  0  0  0  0  0  0  0  0  0  0  0
  145.5154  134.7721  152.5589 C   0  0  1  0  0  0  0  0  0  0  0  0
  145.7993  134.8430  151.0560 C   0  0  0  0  0  0  0  0  0  0  0  0
  146.4372  133.4976  150.7988 C   0  0  0  0  0  0  0  0  0  0  0  0
  147.2812  133.3144  152.0553 C   0  0  0  0  0  0  0  0  0  0  0  0
  146.5856  133.9961  153.0958 O   0  0  0  0  0  0  0  0  0  0  0  0
  150.4906  139.0544  154.4598 N   0  0  0  0  0  0  0  0  0  0  0  0
  151.3698  137.9564  154.1082 C   0  0  0  0  0  0  0  0  0  0  0  0
  150.9923  140.1607  155.0500 N   0  0  0  0  0  0  0  0  0  0  0  0
  149.2040  142.8064  156.0491 H   0  0  0  0  0  0  0  0  0  0  0  0
  150.7753  142.9419  155.2664 H   0  0  0  0  0  0  0  0  0  0  0  0
  150.6429  142.1925  156.8563 H   0  0  0  0  0  0  0  0  0  0  0  0
  147.7369  140.8162  154.7990 H   0  0  0  0  0  0  0  0  0  0  0  0
  148.8528  137.6603  152.9942 H   0  0  0  0  0  0  0  0  0  0  0  0
  147.4157  136.4136  152.5792 H   0  0  0  0  0  0  0  0  0  0  0  0
  145.1345  135.9663  154.2948 H   0  0  0  0  0  0  0  0  0  0  0  0
  143.3949  136.6147  152.6445 H   0  0  0  0  0  0  0  0  0  0  0  0
  144.6281  137.2618  151.5661 H   0  0  0  0  0  0  0  0  0  0  0  0
  144.3330  138.0199  153.1296 H   0  0  0  0  0  0  0  0  0  0  0  0
  144.5918  134.2121  152.7167 H   0  0  0  0  0  0  0  0  0  0  0  0
  144.9023  135.0113  150.4593 H   0  0  0  0  0  0  0  0  0  0  0  0
  146.5109  135.6404  150.8356 H   0  0  0  0  0  0  0  0  0  0  0  0
  145.6705  132.7238  150.7425 H   0  0  0  0  0  0  0  0  0  0  0  0
  147.0249  133.4674  149.8810 H   0  0  0  0  0  0  0  0  0  0  0  0
  147.4386  132.2642  152.3016 H   0  0  0  0  0  0  0  0  0  0  0  0
  148.2580  133.7830  151.9290 H   0  0  0  0  0  0  0  0  0  0  0  0
  151.3852  137.8338  153.0251 H   0  0  0  0  0  0  0  0  0  0  0  0
  151.0081  137.0357  154.5667 H   0  0  0  0  0  0  0  0  0  0  0  0
  152.3851  138.1494  154.4575 H   0  0  0  0  0  0  0  0  0  0  0  0
  1  2  1  0  0  0  0
  1 19  1  0  0  0  0
  1 20  1  0  0  0  0
  1 21  1  0  0  0  0
  2 18  2  0  0  0  0
  2  3  1  0  0  0  0
  3  4  2  0  0  0  0
  3 22  1  0  0  0  0
  4  5  1  0  0  0  0
  4 16  1  0  0  0  0
  5  6  1  0  0  0  0
  5 23  1  0  0  0  0
  6  7  2  0  0  0  0
  6  8  1  0  0  0  0
  8  9  1  0  0  0  0
  8 24  1  0  0  0  0
  9 10  1  0  0  0  0
  9 11  1  0  0  0  0
  9 25  1  0  0  0  0
 10 26  1  0  0  0  0
 10 27  1  0  0  0  0
 10 28  1  0  0  0  0
 11 15  1  0  0  0  0
 11 12  1  0  0  0  0
 11 29  1  0  0  0  0
 12 13  1  0  0  0  0
 12 30  1  0  0  0  0
 12 31  1  0  0  0  0
 13 14  1  0  0  0  0
 13 32  1  0  0  0  0
 13 33  1  0  0  0  0
 14 15  1  0  0  0  0
 14 34  1  0  0  0  0
 14 35  1  0  0  0  0
 16 17  1  0  0  0  0
 16 18  1  0  0  0  0
 17 36  1  0  0  0  0
 17 37  1  0  0  0  0
 17 38  1  0  0  0  0
M  END
> <s_m_source_file>
AV-unprocessed.smi

> <i_m_source_file_index>
2040

> <i_lp_mmshare_version>
43012

> <i_f3d_flags>
0

> <s_epik_input>
W0NIM11jMVtjSF1jKG4objEpW0NIM10pW05IXUMoPU8pW05IXVtDQEhdKFtDSDNdKVtDQEBIXTJbQ0gyXVtDSDJdW0NIMl1PMg==

> <s_epik_cmdline>
J2VwaWtfcHl0aG9uJywgJy1waCcsICc3LjAnLCAnLXRuJywgJzgnLCAnLW1hJywgJzIwMCcsICctbWV0YWxfYmluZGluZycsICctaW1hZScsICc8aW5maWxlLm1hZT4nLCAnLW9tYWUnLCAnPG91dGZpbGUubWFlPic=

> <r_lp_tautomer_probability>
1

> <r_epik_Ionization_Penalty>
9.09088e-05

> <r_epik_Ionization_Penalty_Charging>
0

> <r_epik_Ionization_Penalty_Neutral>
9.09088e-05

> <r_epik_State_Penalty>
-0

> <r_epik_Charging_Adjusted_Penalty>
0

> <i_epik_Tot_Q>
0

> <i_epik_Tot_abs_Q>
0

> <r_epik_Metal_State_Penalty>
-0

> <b_epik_Metal_Only>
0

> <s_lp_Force_Field>
OPLS_2005

> <r_lp_Energy>
18.8774

> <b_lp_Chiralities_Consistent>
1

> <s_lp_Variant>
AV-unprocessed.smi:2040-4

> <Gold.Version>
5.8.1

> <Gold.Id.Protein>
6NUR|6NUR_protein|mol2

> <Gold.PLP.Fitness>
34.9234

> <Gold.PLP.PLP>
-27.5222

> <Gold.PLP.part.hbond>
-3.0000

> <Gold.PLP.part.metal>
0.0000

> <Gold.PLP.part.buried>
-0.4135

> <Gold.PLP.part.nonpolar>
-23.7562

> <Gold.PLP.part.repulsive>
0.2360

> <Gold.PLP.ligand.clash>
0.0000

> <Gold.PLP.ligand.torsion>
0.4296

> <Gold.PLP.Chemscore.Hbond>
2.7500

> <Gold.PLP.Chemscore.CHOScore>
0.0000

> <Gold.PLP.Chemscore.Metal>
0.0000

> <Gold.Chemscore.Hbonds>
donor molecule, donor type, donor heavy atom, donor atom, acceptor molecule, acceptor atom, score
      L1  H     5    23       P1  7948  1.00
      L1  H     8    24       P1  7948  1.00
      P1  H  7989  7998       L1    18  0.71

> <Gold.PLP.Chemscore.Internal.Correction>
0.0105

> <Gold.Rescore>
     Score         DG    S(hbond)    S(metal)    S(lipo)     H(rot)  DE(clash)    DE(int)     intcor
     15.16     -15.61       1.98        0.00      57.17       1.23       0.05       0.41       ----

> <Gold.Chemscore.Fitness>
15.1557

> <Gold.Chemscore.DG>
-15.6140

> <Gold.Chemscore.ZeroCoef>
-5.4800

> <Gold.Chemscore.Hbond>
1.9771

> <Gold.Chemscore.Metal>
0.0000

> <Gold.Chemscore.Lipo>
57.1690

> <Gold.Chemscore.Internal_Hbond>
0.0000

> <Gold.Chemscore.DEClash>
0.0513

> <Gold.Chemscore.DEInternal>
0.4070

> <Gold.Chemscore.Rot>
1.2338

> <Gold.Chemscore.Internal.Correction>
   9.000000E+99

> <Gold.Chemscore.Hbonds>
donor molecule, donor type, donor heavy atom, donor atom, acceptor molecule, acceptor atom, score
      L1  H     5    23       P1  7948  0.97
      L1  H     8    24       P1  7948  0.99
      P1  H  7989  7998       L1    18  0.02

> <Gold.Chemscore.Hbond.Weighted>
-6.6037

> <Gold.Chemscore.Metal.Weighted>
-0.0000

> <Gold.Chemscore.Lipo.Weighted>
-6.6888

> <Gold.Chemscore.Internal_Hbond.Weighted>
0.0000

> <Gold.Chemscore.DEClash.Weighted>
0.0513

> <Gold.Chemscore.DEInternal.Weighted>
0.4070

> <Gold.Chemscore.Rot.Weighted>
3.1584

> <Gold.Chemscore.Internal.Correction.Weighted>
   9.000000E+99

> <Gold.Protein.RotatedTorsions>
[ 6907 6896 6895 6894 ] final   97.60 input  -60.11 | X-H torsion
[ 7974 7965 7964 7962 ] final -157.20 input  175.53 | X-H torsion
[ 8008 7997 7996 7995 ] final    6.21 input   59.86 | X-H torsion
[ 10167 10162 10161 10158 ] final -147.37 input  -65.29 | X-H torsion
[ 10718 10713 10712 10709 ] final -158.94 input   66.30 | X-H torsion
[ 10763 10752 10751 10750 ] final -124.49 input  -60.55 | X-H torsion
[ 11005 11000 10999 10996 ] final  -91.18 input  -57.11 | X-H torsion

> <Gold.Protein.ActiveResidues>
 VAL166  LYS551  ARG553  GLY616  TRP617  ASP618  TYR619  PRO620  LYS621  CYS622 
 ASP623  PHE694  ASN695  SER759  ASP760  ASP761  ALA762  ILE779  LEU786  VAL792 
 PHE793  MET794  SER795  GLU796  ALA797  LYS798  CYS799  TRP800  GLU811  SER814 

> <Gold.Protein.RotatedAtoms>
  152.5421  134.0708  159.8192 H   0  0  0  0  0  0  0  0  0  0  0  0  # atno 6907 bound_to 6896
  151.0823  133.5373  159.2627 H   0  0  0  0  0  0  0  0  0  0  0  0  # atno 6908 bound_to 6896
  151.2195  135.0521  159.8998 H   0  0  0  0  0  0  0  0  0  0  0  0  # atno 6909 bound_to 6896
  144.7559  140.4002  143.6013 H   0  0  0  0  0  0  0  0  0  0  0  0  # atno 7974 bound_to 7965
  154.7382  140.2743  155.6396 H   0  0  0  0  0  0  0  0  0  0  0  0  # atno 8008 bound_to 7997
  156.2867  140.2702  156.2027 H   0  0  0  0  0  0  0  0  0  0  0  0  # atno 8009 bound_to 7997
  155.0293  140.0371  157.2457 H   0  0  0  0  0  0  0  0  0  0  0  0  # atno 8010 bound_to 7997
  139.7628  143.8351  152.2610 H   0  0  0  0  0  0  0  0  0  0  0  0  # atno 10167 bound_to 10162
  156.5611  130.8647  151.2810 H   0  0  0  0  0  0  0  0  0  0  0  0  # atno 10718 bound_to 10713
  154.8724  135.4062  154.3114 H   0  0  0  0  0  0  0  0  0  0  0  0  # atno 10763 bound_to 10752
  153.3957  135.7016  153.6468 H   0  0  0  0  0  0  0  0  0  0  0  0  # atno 10764 bound_to 10752
  153.5231  135.3683  155.2612 H   0  0  0  0  0  0  0  0  0  0  0  0  # atno 10765 bound_to 10752
  141.1550  133.7739  156.9842 H   0  0  0  0  0  0  0  0  0  0  0  0  # atno 11005 bound_to 11000
  145.6783  139.1613  143.2715 LP  0  0  0  0  0  0  0  0  0  0  0  0  # atno 17320 bound_to 7965
  146.1567  140.6847  142.9296 LP  0  0  0  0  0  0  0  0  0  0  0  0  # atno 17321 bound_to 7965
  139.8362  144.7231  150.9387 LP  0  0  0  0  0  0  0  0  0  0  0  0  # atno 17342 bound_to 10162
  140.7808  143.4024  151.1127 LP  0  0  0  0  0  0  0  0  0  0  0  0  # atno 17343 bound_to 10162
  157.7368  130.9785  150.2158 LP  0  0  0  0  0  0  0  0  0  0  0  0  # atno 17370 bound_to 10713
  156.2798  130.3732  149.7947 LP  0  0  0  0  0  0  0  0  0  0  0  0  # atno 17371 bound_to 10713
  140.1045  134.9515  157.1974 LP  0  0  0  0  0  0  0  0  0  0  0  0  # atno 17394 bound_to 11000
  140.3274  134.2848  155.7234 LP  0  0  0  0  0  0  0  0  0  0  0  0  # atno 17395 bound_to 11000

$$$$
