AV-unprocessed.smi:1254|AV-procd|sdf|5276|dock2
  -GOLD-   22720 4393D 1   1.00000     0.00000
 Structure written by MMmdl.
 45 46  0  0  0  0  0  0  0  0  3 V2000
  149.5845  141.0947  154.8803 C   0  0  0  0  0  0  0  0  0  0  0  0
  150.3079  139.7950  154.7813 C   0  0  0  0  0  0  0  0  0  0  0  0
  149.8935  138.4951  154.8488 C   0  0  0  0  0  0  0  0  0  0  0  0
  151.1001  137.7607  154.6868 C   0  0  0  0  0  0  0  0  0  0  0  0
  151.2147  136.4236  154.6699 N   0  5  0  0  0  0  0  0  0  0  0  0
  150.3213  135.6556  155.3344 C   0  0  0  0  0  0  0  0  0  0  0  0
  150.3934  135.2984  156.5125 O   0  0  0  0  0  0  0  0  0  0  0  0
  149.2789  135.2737  154.5860 N   0  0  0  0  0  0  0  0  0  0  0  0
  148.1853  134.4278  155.0437 C   0  0  0  0  0  0  0  0  0  0  0  0
  147.1403  134.2468  153.9346 C   0  0  1  0  0  0  0  0  0  0  0  0
  146.0386  133.2477  154.3447 C   0  0  0  0  0  0  0  0  0  0  0  0
  144.9948  133.1337  153.2969 N   0  3  2  0  0  0  0  0  0  0  0  0
  145.4020  132.2990  152.1341 C   0  0  0  0  0  0  0  0  0  0  0  0
  144.7114  132.7259  150.8209 C   0  0  0  0  0  0  0  0  0  0  0  0
  143.2099  132.3930  150.8292 C   0  0  0  0  0  0  0  0  0  0  0  0
  145.3977  132.0726  149.6121 C   0  0  0  0  0  0  0  0  0  0  0  0
  144.4653  134.4753  152.9430 C   0  0  0  0  0  0  0  0  0  0  0  0
  145.6012  135.4605  152.6061 C   0  0  0  0  0  0  0  0  0  0  0  0
  146.5301  135.5088  153.6812 O   0  0  0  0  0  0  0  0  0  0  0  0
  152.1509  138.5458  154.5176 N   0  0  0  0  0  0  0  0  0  0  0  0
  151.6524  139.8523  154.5848 O   0  0  0  0  0  0  0  0  0  0  0  0
  148.7279  141.1117  154.2065 H   0  0  0  0  0  0  0  0  0  0  0  0
  150.2361  141.9286  154.6182 H   0  0  0  0  0  0  0  0  0  0  0  0
  149.2209  141.2563  155.8951 H   0  0  0  0  0  0  0  0  0  0  0  0
  148.8889  138.1272  154.9952 H   0  0  0  0  0  0  0  0  0  0  0  0
  149.2507  135.5901  153.6278 H   0  0  0  0  0  0  0  0  0  0  0  0
  148.5868  133.4554  155.3334 H   0  0  0  0  0  0  0  0  0  0  0  0
  147.7292  134.8668  155.9323 H   0  0  0  0  0  0  0  0  0  0  0  0
  147.6430  133.8935  153.0321 H   0  0  0  0  0  0  0  0  0  0  0  0
  146.4630  132.2679  154.5676 H   0  0  0  0  0  0  0  0  0  0  0  0
  145.5622  133.5892  155.2650 H   0  0  0  0  0  0  0  0  0  0  0  0
  146.4858  132.3238  152.0200 H   0  0  0  0  0  0  0  0  0  0  0  0
  145.1471  131.2560  152.3265 H   0  0  0  0  0  0  0  0  0  0  0  0
  144.8144  133.8033  150.6957 H   0  0  0  0  0  0  0  0  0  0  0  0
  143.0412  131.3223  150.9490 H   0  0  0  0  0  0  0  0  0  0  0  0
  142.7355  132.7005  149.8968 H   0  0  0  0  0  0  0  0  0  0  0  0
  142.6907  132.9048  151.6396 H   0  0  0  0  0  0  0  0  0  0  0  0
  145.3292  130.9851  149.6556 H   0  0  0  0  0  0  0  0  0  0  0  0
  146.4544  132.3380  149.5673 H   0  0  0  0  0  0  0  0  0  0  0  0
  144.9398  132.3968  148.6770 H   0  0  0  0  0  0  0  0  0  0  0  0
  143.7528  134.4164  152.1213 H   0  0  0  0  0  0  0  0  0  0  0  0
  143.9084  134.8545  153.8008 H   0  0  0  0  0  0  0  0  0  0  0  0
  146.1103  135.1861  151.6812 H   0  0  0  0  0  0  0  0  0  0  0  0
  145.1926  136.4594  152.4519 H   0  0  0  0  0  0  0  0  0  0  0  0
  144.2339  132.6264  153.7258 H   0  0  0  0  0  0  0  0  0  0  0  0
  1  2  1  0  0  0  0
  1 22  1  0  0  0  0
  1 23  1  0  0  0  0
  1 24  1  0  0  0  0
  2 21  1  0  0  0  0
  2  3  2  0  0  0  0
  3  4  1  0  0  0  0
  3 25  1  0  0  0  0
  4  5  1  0  0  0  0
  4 20  2  0  0  0  0
  5  6  1  0  0  0  0
  6  7  2  0  0  0  0
  6  8  1  0  0  0  0
  8  9  1  0  0  0  0
  8 26  1  0  0  0  0
  9 10  1  0  0  0  0
  9 27  1  0  0  0  0
  9 28  1  0  0  0  0
 10 19  1  0  0  0  0
 10 11  1  0  0  0  0
 10 29  1  0  0  0  0
 11 12  1  0  0  0  0
 11 30  1  0  0  0  0
 11 31  1  0  0  0  0
 12 13  1  0  0  0  0
 12 17  1  0  0  0  0
 12 45  1  0  0  0  0
 13 14  1  0  0  0  0
 13 32  1  0  0  0  0
 13 33  1  0  0  0  0
 14 15  1  0  0  0  0
 14 16  1  0  0  0  0
 14 34  1  0  0  0  0
 15 35  1  0  0  0  0
 15 36  1  0  0  0  0
 15 37  1  0  0  0  0
 16 38  1  0  0  0  0
 16 39  1  0  0  0  0
 16 40  1  0  0  0  0
 17 18  1  0  0  0  0
 17 41  1  0  0  0  0
 17 42  1  0  0  0  0
 18 19  1  0  0  0  0
 18 43  1  0  0  0  0
 18 44  1  0  0  0  0
 20 21  1  0  0  0  0
M  CHG  1   5  -1
M  CHG  1  12   1
M  END
> <s_m_source_file>
AV-unprocessed.smi

> <i_m_source_file_index>
1254

> <i_lp_mmshare_version>
43012

> <i_f3d_flags>
0

> <s_epik_input>
W0NIM11jMVtjSF1jKG5vMSlbTkhdQyg9TylbTkhdW0NIMl1bQ0BASF0yW0NIMl1OKFtDSDJdW0NIMl1PMilbQ0gyXVtDSF0oW0NIM10pW0NIM10=

> <s_epik_cmdline>
J2VwaWtfcHl0aG9uJywgJy1waCcsICc3LjAnLCAnLXRuJywgJzgnLCAnLW1hJywgJzIwMCcsICctbWV0YWxfYmluZGluZycsICctaW1hZScsICc8aW5maWxlLm1hZT4nLCAnLW9tYWUnLCAnPG91dGZpbGUubWFlPic=

> <r_epik_Ionization_Penalty>
6.33139

> <r_epik_Ionization_Penalty_Charging>
6.33128

> <r_epik_Ionization_Penalty_Neutral>
0.000104968

> <r_epik_State_Penalty>
6.32522

> <r_epik_Charging_Adjusted_Penalty>
12.6565

> <i_epik_Tot_Q>
0

> <i_epik_Tot_abs_Q>
2

> <r_epik_Metal_State_Penalty>
2.26285

> <b_epik_Metal_Only>
1

> <s_lp_Force_Field>
OPLS_2005

> <r_lp_Energy>
8.57964

> <b_lp_Chiralities_Consistent>
1

> <s_lp_Variant>
AV-unprocessed.smi:1254-8

> <Gold.Version>
5.8.1

> <Gold.Id.Protein>
6NUR|6NUR_protein|mol2

> <Gold.PLP.Fitness>
47.3224

> <Gold.PLP.PLP>
-31.9044

> <Gold.PLP.part.hbond>
-3.9585

> <Gold.PLP.part.metal>
0.0000

> <Gold.PLP.part.buried>
-6.7366

> <Gold.PLP.part.nonpolar>
-23.5309

> <Gold.PLP.part.repulsive>
0.4300

> <Gold.PLP.ligand.clash>
0.0000

> <Gold.PLP.ligand.torsion>
1.4260

> <Gold.PLP.Chemscore.Hbond>
5.9825

> <Gold.PLP.Chemscore.CHOScore>
0.0000

> <Gold.PLP.Chemscore.Metal>
0.0000

> <Gold.Chemscore.Hbonds>
donor molecule, donor type, donor heavy atom, donor atom, acceptor molecule, acceptor atom, score
      L1  H     8    26       P1  7948  1.00
      L1  H    12    45       P1 10957  1.82
      P1  H  7989  7998       L1    21  0.79
      P1  H 10752 10765       L1     5  2.00

> <Gold.PLP.Chemscore.Internal.Correction>
0.3226

> <Gold.Rescore>
     Score         DG    S(hbond)    S(metal)    S(lipo)     H(rot)  DE(clash)    DE(int)     intcor
     17.86     -19.16       3.10        0.00      65.54       1.69       0.00       1.31       ----

> <Gold.Chemscore.Fitness>
17.8563

> <Gold.Chemscore.DG>
-19.1619

> <Gold.Chemscore.ZeroCoef>
-5.4800

> <Gold.Chemscore.Hbond>
3.0979

> <Gold.Chemscore.Metal>
0.0000

> <Gold.Chemscore.Lipo>
65.5384

> <Gold.Chemscore.Internal_Hbond>
0.0000

> <Gold.Chemscore.DEClash>
0.0000

> <Gold.Chemscore.DEInternal>
1.3055

> <Gold.Chemscore.Rot>
1.6926

> <Gold.Chemscore.Internal.Correction>
   9.000000E+99

> <Gold.Chemscore.Hbonds>
donor molecule, donor type, donor heavy atom, donor atom, acceptor molecule, acceptor atom, score
      L1  H     8    26       P1  7948  0.50
      L1  H    12    45       P1 10957  0.48
      P1  H  7989  7998       L1    21  0.15
      P1  H 10752 10765       L1     5  0.86

> <Gold.Chemscore.Hbond.Weighted>
-10.3469

> <Gold.Chemscore.Metal.Weighted>
-0.0000

> <Gold.Chemscore.Lipo.Weighted>
-7.6680

> <Gold.Chemscore.Internal_Hbond.Weighted>
0.0000

> <Gold.Chemscore.DEClash.Weighted>
0.0000

> <Gold.Chemscore.DEInternal.Weighted>
1.3055

> <Gold.Chemscore.Rot.Weighted>
4.3330

> <Gold.Chemscore.Internal.Correction.Weighted>
   9.000000E+99

> <Gold.Protein.RotatedTorsions>
[ 6907 6896 6895 6894 ] final -110.09 input  -60.11 | X-H torsion
[ 7974 7965 7964 7962 ] final  -36.47 input  175.53 | X-H torsion
[ 8008 7997 7996 7995 ] final  -75.08 input   59.86 | X-H torsion
[ 10167 10162 10161 10158 ] final  -40.69 input  -65.29 | X-H torsion
[ 10718 10713 10712 10709 ] final   -2.25 input   66.30 | X-H torsion
[ 10763 10752 10751 10750 ] final  173.85 input  -60.55 | X-H torsion
[ 11005 11000 10999 10996 ] final   -3.22 input  -57.11 | X-H torsion

> <Gold.Protein.ActiveResidues>
 VAL166  LYS551  ARG553  GLY616  TRP617  ASP618  TYR619  PRO620  LYS621  CYS622 
 ASP623  PHE694  ASN695  SER759  ASP760  ASP761  ALA762  ILE779  LEU786  VAL792 
 PHE793  MET794  SER795  GLU796  ALA797  LYS798  CYS799  TRP800  GLU811  SER814 

> <Gold.Protein.RotatedAtoms>
  150.7603  133.9433  159.3462 H   0  0  0  0  0  0  0  0  0  0  0  0  # atno 6907 bound_to 6896
  151.7343  135.0866  160.0315 H   0  0  0  0  0  0  0  0  0  0  0  0  # atno 6908 bound_to 6896
  152.3569  133.6211  159.6022 H   0  0  0  0  0  0  0  0  0  0  0  0  # atno 6909 bound_to 6896
  146.0659  140.6282  142.8975 H   0  0  0  0  0  0  0  0  0  0  0  0  # atno 7974 bound_to 7965
  154.5386  140.0750  156.8470 H   0  0  0  0  0  0  0  0  0  0  0  0  # atno 8008 bound_to 7997
  155.3227  140.3397  155.4223 H   0  0  0  0  0  0  0  0  0  0  0  0  # atno 8009 bound_to 7997
  156.1852  140.1666  156.8185 H   0  0  0  0  0  0  0  0  0  0  0  0  # atno 8010 bound_to 7997
  140.7026  143.3138  151.2961 H   0  0  0  0  0  0  0  0  0  0  0  0  # atno 10167 bound_to 10162
  156.7936  130.5370  149.5732 H   0  0  0  0  0  0  0  0  0  0  0  0  # atno 10718 bound_to 10713
  154.4458  135.2763  155.1816 H   0  0  0  0  0  0  0  0  0  0  0  0  # atno 10763 bound_to 10752
  154.3663  135.6118  153.5720 H   0  0  0  0  0  0  0  0  0  0  0  0  # atno 10764 bound_to 10752
  152.9843  135.5846  154.4794 H   0  0  0  0  0  0  0  0  0  0  0  0  # atno 10765 bound_to 10752
  140.6669  133.9270  155.8470 H   0  0  0  0  0  0  0  0  0  0  0  0  # atno 11005 bound_to 11000
  144.7202  140.4347  143.7014 LP  0  0  0  0  0  0  0  0  0  0  0  0  # atno 17320 bound_to 7965
  145.6478  139.1560  143.2879 LP  0  0  0  0  0  0  0  0  0  0  0  0  # atno 17321 bound_to 7965
  139.6570  144.0258  152.2666 LP  0  0  0  0  0  0  0  0  0  0  0  0  # atno 17342 bound_to 10162
  139.9813  144.6426  150.7898 LP  0  0  0  0  0  0  0  0  0  0  0  0  # atno 17343 bound_to 10162
  156.1144  130.6064  151.0097 LP  0  0  0  0  0  0  0  0  0  0  0  0  # atno 17370 bound_to 10713
  157.6588  131.0884  150.7885 LP  0  0  0  0  0  0  0  0  0  0  0  0  # atno 17371 bound_to 10713
  141.0422  134.0605  157.3888 LP  0  0  0  0  0  0  0  0  0  0  0  0  # atno 17394 bound_to 11000
  139.8994  135.0158  156.7194 LP  0  0  0  0  0  0  0  0  0  0  0  0  # atno 17395 bound_to 11000

$$$$
