AV-unprocessed.smi:2589|AV-procd|sdf|10151|dock6
  -GOLD-   2272014163D 1   1.00000     0.00000
 Structure written by MMmdl.
 41 42  0  0  0  0  0  0  0  0  1 V2000
  146.5041  132.8467  151.1142 C   0  0  0  0  0  0  0  0  0  0  0  0
  145.5747  134.0412  151.2963 C   0  0  0  0  0  0  0  0  0  0  0  0
  144.3544  133.8854  151.2665 O   0  0  0  0  0  0  0  0  0  0  0  0
  146.1663  135.2304  151.4868 N   0  0  0  0  0  0  0  0  0  0  0  0
  145.4639  136.4923  151.7050 C   0  0  0  0  0  0  0  0  0  0  0  0
  145.7591  137.1030  153.0799 C   0  0  0  0  0  0  0  0  0  0  0  0
  144.8595  137.2466  153.9090 O   0  0  0  0  0  0  0  0  0  0  0  0
  147.0366  137.4374  153.3156 N   0  0  0  0  0  0  0  0  0  0  0  0
  147.5292  138.0142  154.5613 C   0  0  0  0  0  0  0  0  0  0  0  0
  147.5768  139.5405  154.5400 C   0  0  0  0  0  0  0  0  0  0  0  0
  146.3938  140.2673  154.2810 C   0  0  0  0  0  0  0  0  0  0  0  0
  146.4343  141.6731  154.2741 C   0  0  0  0  0  0  0  0  0  0  0  0
  147.6639  142.3050  154.5321 C   0  0  0  0  0  0  0  0  0  0  0  0
  148.8027  141.6280  154.7845 N   0  0  0  0  0  0  0  0  0  0  0  0
  148.7674  140.2730  154.7909 C   0  0  0  0  0  0  0  0  0  0  0  0
  149.9776  139.6053  155.0364 N   0  0  0  0  0  0  0  0  0  0  0  0
  151.0550  140.4482  155.5392 C   0  0  0  0  0  0  0  0  0  0  0  0
  152.2622  139.5745  155.9211 C   0  0  0  0  0  0  0  0  0  0  0  0
  152.6622  138.7942  154.7973 O   0  0  0  0  0  0  0  0  0  0  0  0
  151.6250  137.9248  154.3498 C   0  0  0  0  0  0  0  0  0  0  0  0
  150.4002  138.7556  153.9312 C   0  0  0  0  0  0  0  0  0  0  0  0
  147.0580  132.6545  152.0333 H   0  0  0  0  0  0  0  0  0  0  0  0
  147.2184  133.0353  150.3124 H   0  0  0  0  0  0  0  0  0  0  0  0
  145.9381  131.9495  150.8624 H   0  0  0  0  0  0  0  0  0  0  0  0
  147.1753  135.2618  151.5049 H   0  0  0  0  0  0  0  0  0  0  0  0
  145.7825  137.1987  150.9387 H   0  0  0  0  0  0  0  0  0  0  0  0
  144.3891  136.3526  151.5749 H   0  0  0  0  0  0  0  0  0  0  0  0
  147.7131  137.2850  152.5816 H   0  0  0  0  0  0  0  0  0  0  0  0
  146.8510  137.7126  155.3595 H   0  0  0  0  0  0  0  0  0  0  0  0
  148.4932  137.5684  154.8077 H   0  0  0  0  0  0  0  0  0  0  0  0
  145.4622  139.7542  154.0917 H   0  0  0  0  0  0  0  0  0  0  0  0
  145.5443  142.2525  154.0780 H   0  0  0  0  0  0  0  0  0  0  0  0
  147.7354  143.3825  154.5364 H   0  0  0  0  0  0  0  0  0  0  0  0
  151.3486  141.1709  154.7766 H   0  0  0  0  0  0  0  0  0  0  0  0
  150.7089  141.0128  156.4057 H   0  0  0  0  0  0  0  0  0  0  0  0
  153.0970  140.2015  156.2344 H   0  0  0  0  0  0  0  0  0  0  0  0
  152.0195  138.9219  156.7614 H   0  0  0  0  0  0  0  0  0  0  0  0
  151.9897  137.3406  153.5049 H   0  0  0  0  0  0  0  0  0  0  0  0
  151.3626  137.2171  155.1381 H   0  0  0  0  0  0  0  0  0  0  0  0
  149.5843  138.0975  153.6316 H   0  0  0  0  0  0  0  0  0  0  0  0
  150.6481  139.3745  153.0677 H   0  0  0  0  0  0  0  0  0  0  0  0
  1  2  1  0  0  0  0
  1 22  1  0  0  0  0
  1 23  1  0  0  0  0
  1 24  1  0  0  0  0
  2  3  2  0  0  0  0
  2  4  1  0  0  0  0
  4  5  1  0  0  0  0
  4 25  1  0  0  0  0
  5  6  1  0  0  0  0
  5 26  1  0  0  0  0
  5 27  1  0  0  0  0
  6  7  2  0  0  0  0
  6  8  1  0  0  0  0
  8  9  1  0  0  0  0
  8 28  1  0  0  0  0
  9 10  1  0  0  0  0
  9 29  1  0  0  0  0
  9 30  1  0  0  0  0
 10 15  1  0  0  0  0
 10 11  2  0  0  0  0
 11 12  1  0  0  0  0
 11 31  1  0  0  0  0
 12 13  2  0  0  0  0
 12 32  1  0  0  0  0
 13 14  1  0  0  0  0
 13 33  1  0  0  0  0
 14 15  2  0  0  0  0
 15 16  1  0  0  0  0
 16 21  1  0  0  0  0
 16 17  1  0  0  0  0
 17 18  1  0  0  0  0
 17 34  1  0  0  0  0
 17 35  1  0  0  0  0
 18 19  1  0  0  0  0
 18 36  1  0  0  0  0
 18 37  1  0  0  0  0
 19 20  1  0  0  0  0
 20 21  1  0  0  0  0
 20 38  1  0  0  0  0
 20 39  1  0  0  0  0
 21 40  1  0  0  0  0
 21 41  1  0  0  0  0
M  END
> <s_m_source_file>
AV-unprocessed.smi

> <i_m_source_file_index>
2589

> <i_lp_mmshare_version>
43012

> <i_f3d_flags>
0

> <s_epik_input>
W0NIM11DKD1PKVtOSF1bQ0gyXUMoPU8pW05IXVtDSDJdYzFbY0hdW2NIXVtjSF1uYzFOMltDSDJdW0NIMl1PW0NIMl1bQ0gyXTI=

> <s_epik_cmdline>
J2VwaWtfcHl0aG9uJywgJy1waCcsICc3LjAnLCAnLXRuJywgJzgnLCAnLW1hJywgJzIwMCcsICctbWV0YWxfYmluZGluZycsICctaW1hZScsICc8aW5maWxlLm1hZT4nLCAnLW9tYWUnLCAnPG91dGZpbGUubWFlPic=

> <r_lp_tautomer_probability>
1

> <r_epik_Ionization_Penalty>
0.00462917

> <r_epik_Ionization_Penalty_Charging>
0

> <r_epik_Ionization_Penalty_Neutral>
0.00462917

> <r_epik_State_Penalty>
0.00334737

> <r_epik_Charging_Adjusted_Penalty>
0.00334737

> <i_epik_Tot_Q>
0

> <i_epik_Tot_abs_Q>
0

> <r_epik_Metal_State_Penalty>
-0

> <b_epik_Metal_Only>
0

> <s_lp_Force_Field>
OPLS_2005

> <r_lp_Energy>
14.0488

> <b_lp_Chiralities_Consistent>
1

> <s_lp_Variant>
AV-unprocessed.smi:2589-1

> <Gold.Version>
5.8.1

> <Gold.Id.Protein>
6NUR|6NUR_protein|mol2

> <Gold.PLP.Fitness>
39.5091

> <Gold.PLP.PLP>
-31.2045

> <Gold.PLP.part.hbond>
-2.3780

> <Gold.PLP.part.metal>
0.0000

> <Gold.PLP.part.buried>
-1.8765

> <Gold.PLP.part.nonpolar>
-27.8256

> <Gold.PLP.part.repulsive>
0.6004

> <Gold.PLP.ligand.clash>
0.0000

> <Gold.PLP.ligand.torsion>
0.3356

> <Gold.PLP.Chemscore.Hbond>
1.9760

> <Gold.PLP.Chemscore.CHOScore>
0.9669

> <Gold.PLP.Chemscore.Metal>
0.0000

> <Gold.Chemscore.Hbonds>
donor molecule, donor type, donor heavy atom, donor atom, acceptor molecule, acceptor atom, score
      L1  H     4    25       P1  7948  1.00
      L1  H     8    28       P1  7948  0.99
      L1  C    13    33       P1  8028  1.00

> <Gold.PLP.Chemscore.Internal.Correction>
0.1473

> <Gold.Rescore>
     Score         DG    S(hbond)    S(metal)    S(lipo)     H(rot)  DE(clash)    DE(int)     intcor
     12.86     -13.72       1.78        0.00      69.33       2.28       0.30       0.56       ----

> <Gold.Chemscore.Fitness>
12.8619

> <Gold.Chemscore.DG>
-13.7205

> <Gold.Chemscore.ZeroCoef>
-5.4800

> <Gold.Chemscore.Hbond>
1.7835

> <Gold.Chemscore.Metal>
0.0000

> <Gold.Chemscore.Lipo>
69.3319

> <Gold.Chemscore.Internal_Hbond>
0.0000

> <Gold.Chemscore.DEClash>
0.3016

> <Gold.Chemscore.DEInternal>
0.5570

> <Gold.Chemscore.Rot>
2.2766

> <Gold.Chemscore.Internal.Correction>
   9.000000E+99

> <Gold.Chemscore.Hbonds>
donor molecule, donor type, donor heavy atom, donor atom, acceptor molecule, acceptor atom, score
      L1  H     4    25       P1  7948  0.86
      L1  H     8    28       P1  7948  0.93

> <Gold.Chemscore.Hbond.Weighted>
-5.9568

> <Gold.Chemscore.Metal.Weighted>
-0.0000

> <Gold.Chemscore.Lipo.Weighted>
-8.1118

> <Gold.Chemscore.Internal_Hbond.Weighted>
0.0000

> <Gold.Chemscore.DEClash.Weighted>
0.3016

> <Gold.Chemscore.DEInternal.Weighted>
0.5570

> <Gold.Chemscore.Rot.Weighted>
5.8281

> <Gold.Chemscore.Internal.Correction.Weighted>
   9.000000E+99

> <Gold.Protein.RotatedTorsions>
[ 6907 6896 6895 6894 ] final -138.90 input  -60.11 | X-H torsion
[ 7974 7965 7964 7962 ] final   94.08 input  175.53 | X-H torsion
[ 8008 7997 7996 7995 ] final -177.45 input   59.86 | X-H torsion
[ 10167 10162 10161 10158 ] final  159.63 input  -65.29 | X-H torsion
[ 10718 10713 10712 10709 ] final  -13.75 input   66.30 | X-H torsion
[ 10763 10752 10751 10750 ] final  -78.21 input  -60.55 | X-H torsion
[ 11005 11000 10999 10996 ] final   13.03 input  -57.11 | X-H torsion

> <Gold.Protein.ActiveResidues>
 VAL166  LYS551  ARG553  GLY616  TRP617  ASP618  TYR619  PRO620  LYS621  CYS622 
 ASP623  PHE694  ASN695  SER759  ASP760  ASP761  ALA762  ILE779  LEU786  VAL792 
 PHE793  MET794  SER795  GLU796  ALA797  LYS798  CYS799  TRP800  GLU811  SER814 

> <Gold.Protein.RotatedAtoms>
  151.0409  133.5707  159.2651 H   0  0  0  0  0  0  0  0  0  0  0  0  # atno 6907 bound_to 6896
  151.2754  135.0696  159.9159 H   0  0  0  0  0  0  0  0  0  0  0  0  # atno 6908 bound_to 6896
  152.5364  134.0132  159.8002 H   0  0  0  0  0  0  0  0  0  0  0  0  # atno 6909 bound_to 6896
  145.4703  139.2282  143.2938 H   0  0  0  0  0  0  0  0  0  0  0  0  # atno 7974 bound_to 7965
  156.0070  140.1232  157.0491 H   0  0  0  0  0  0  0  0  0  0  0  0  # atno 8008 bound_to 7997
  154.4262  140.1095  156.5846 H   0  0  0  0  0  0  0  0  0  0  0  0  # atno 8009 bound_to 7997
  155.6133  140.3471  155.4631 H   0  0  0  0  0  0  0  0  0  0  0  0  # atno 8010 bound_to 7997
  139.4834  144.4711  151.8574 H   0  0  0  0  0  0  0  0  0  0  0  0  # atno 10167 bound_to 10162
  156.6258  130.4888  149.6147 H   0  0  0  0  0  0  0  0  0  0  0  0  # atno 10718 bound_to 10713
  154.5230  135.5737  153.6696 H   0  0  0  0  0  0  0  0  0  0  0  0  # atno 10763 bound_to 10752
  152.9921  135.6186  154.2729 H   0  0  0  0  0  0  0  0  0  0  0  0  # atno 10764 bound_to 10752
  154.2651  135.2855  155.2741 H   0  0  0  0  0  0  0  0  0  0  0  0  # atno 10765 bound_to 10752
  140.4853  134.0894  155.7759 H   0  0  0  0  0  0  0  0  0  0  0  0  # atno 11005 bound_to 11000
  146.2400  140.5481  142.8938 LP  0  0  0  0  0  0  0  0  0  0  0  0  # atno 17320 bound_to 7965
  144.7949  140.6103  143.6517 LP  0  0  0  0  0  0  0  0  0  0  0  0  # atno 17321 bound_to 7965
  140.4180  144.2281  150.5887 LP  0  0  0  0  0  0  0  0  0  0  0  0  # atno 17342 bound_to 10162
  140.4901  143.2350  151.8830 LP  0  0  0  0  0  0  0  0  0  0  0  0  # atno 17343 bound_to 10162
  156.2275  130.6774  151.1430 LP  0  0  0  0  0  0  0  0  0  0  0  0  # atno 17370 bound_to 10713
  157.7214  131.0678  150.6117 LP  0  0  0  0  0  0  0  0  0  0  0  0  # atno 17371 bound_to 10713
  141.1511  133.8967  157.2096 LP  0  0  0  0  0  0  0  0  0  0  0  0  # atno 17394 bound_to 11000
  139.9801  135.0101  156.9729 LP  0  0  0  0  0  0  0  0  0  0  0  0  # atno 17395 bound_to 11000

$$$$
