AV-unprocessed.smi:2083|AV-procd|sdf|8510|dock1
  -GOLD-   2272011223D 1   1.00000     0.00000
 Structure written by MMmdl.
 44 45  0  0  0  0  0  0  0  0  3 V2000
  151.5900  140.6016  156.8821 C   0  0  0  0  0  0  0  0  0  0  0  0
  151.1132  139.4661  156.0434 C   0  0  0  0  0  0  0  0  0  0  0  0
  151.2011  138.1091  156.1772 C   0  0  0  0  0  0  0  0  0  0  0  0
  150.5313  137.6281  155.0206 C   0  0  0  0  0  0  0  0  0  0  0  0
  150.4018  136.2334  154.7869 N   0  0  0  0  0  0  0  0  0  0  0  0
  150.6379  135.2118  155.6305 C   0  0  0  0  0  0  0  0  0  0  0  0
  151.0078  135.4321  156.7901 O   0  0  0  0  0  0  0  0  0  0  0  0
  150.4214  134.0017  155.0462 N   0  5  0  0  0  0  0  0  0  0  0  0
  149.5671  133.7881  153.8792 C   0  0  0  0  0  0  0  0  0  0  0  0
  148.0961  134.1565  154.2063 C   0  0  2  0  0  0  0  0  0  0  0  0
  147.4768  133.3432  155.3715 C   0  0  0  0  0  0  0  0  0  0  0  0
  147.2606  134.1213  152.9650 N   0  3  1  0  0  0  0  0  0  0  0  0
  147.2616  132.8363  152.2052 C   0  0  0  0  0  0  0  0  0  0  0  0
  146.5930  133.0137  150.8338 C   0  0  0  0  0  0  0  0  0  0  0  0
  145.1649  133.5566  150.9872 C   0  0  0  0  0  0  0  0  0  0  0  0
  145.1415  134.8429  151.8341 C   0  0  2  0  0  0  0  0  0  0  0  0
  145.6774  136.0671  151.0703 C   0  0  0  0  0  0  0  0  0  0  0  0
  145.8765  134.6277  153.1738 C   0  0  0  0  0  0  0  0  0  0  0  0
  150.0769  138.6054  154.2501 N   0  0  0  0  0  0  0  0  0  0  0  0
  150.4472  139.7878  154.9016 O   0  0  0  0  0  0  0  0  0  0  0  0
  152.1941  140.2438  157.7160 H   0  0  0  0  0  0  0  0  0  0  0  0
  150.7473  141.1596  157.2898 H   0  0  0  0  0  0  0  0  0  0  0  0
  152.1988  141.2882  156.2936 H   0  0  0  0  0  0  0  0  0  0  0  0
  151.6683  137.5514  156.9751 H   0  0  0  0  0  0  0  0  0  0  0  0
  150.0984  135.9740  153.8602 H   0  0  0  0  0  0  0  0  0  0  0  0
  149.8949  134.4009  153.0380 H   0  0  0  0  0  0  0  0  0  0  0  0
  149.6085  132.7573  153.5249 H   0  0  0  0  0  0  0  0  0  0  0  0
  148.1250  135.1963  154.5363 H   0  0  0  0  0  0  0  0  0  0  0  0
  148.0097  133.5082  156.3095 H   0  0  0  0  0  0  0  0  0  0  0  0
  147.4771  132.2678  155.1852 H   0  0  0  0  0  0  0  0  0  0  0  0
  146.4438  133.6441  155.5475 H   0  0  0  0  0  0  0  0  0  0  0  0
  148.2804  132.4765  152.0581 H   0  0  0  0  0  0  0  0  0  0  0  0
  146.7327  132.0676  152.7700 H   0  0  0  0  0  0  0  0  0  0  0  0
  147.1879  133.6892  150.2182 H   0  0  0  0  0  0  0  0  0  0  0  0
  146.5708  132.0598  150.3061 H   0  0  0  0  0  0  0  0  0  0  0  0
  144.7189  133.7335  150.0079 H   0  0  0  0  0  0  0  0  0  0  0  0
  144.5476  132.7982  151.4708 H   0  0  0  0  0  0  0  0  0  0  0  0
  144.0981  135.0598  152.0658 H   0  0  0  0  0  0  0  0  0  0  0  0
  146.7322  135.9604  150.8168 H   0  0  0  0  0  0  0  0  0  0  0  0
  145.5740  136.9747  151.6656 H   0  0  0  0  0  0  0  0  0  0  0  0
  145.1272  136.2218  150.1419 H   0  0  0  0  0  0  0  0  0  0  0  0
  145.3261  133.9172  153.7922 H   0  0  0  0  0  0  0  0  0  0  0  0
  145.8950  135.5698  153.7233 H   0  0  0  0  0  0  0  0  0  0  0  0
  147.6957  134.8010  152.3574 H   0  0  0  0  0  0  0  0  0  0  0  0
  1  2  1  0  0  0  0
  1 21  1  0  0  0  0
  1 22  1  0  0  0  0
  1 23  1  0  0  0  0
  2 20  1  0  0  0  0
  2  3  2  0  0  0  0
  3  4  1  0  0  0  0
  3 24  1  0  0  0  0
  4  5  1  0  0  0  0
  4 19  2  0  0  0  0
  5  6  1  0  0  0  0
  5 25  1  0  0  0  0
  6  7  2  0  0  0  0
  6  8  1  0  0  0  0
  8  9  1  0  0  0  0
  9 10  1  0  0  0  0
  9 26  1  0  0  0  0
  9 27  1  0  0  0  0
 10 11  1  0  0  0  0
 10 12  1  0  0  0  0
 10 28  1  0  0  0  0
 11 29  1  0  0  0  0
 11 30  1  0  0  0  0
 11 31  1  0  0  0  0
 12 18  1  0  0  0  0
 12 13  1  0  0  0  0
 12 44  1  0  0  0  0
 13 14  1  0  0  0  0
 13 32  1  0  0  0  0
 13 33  1  0  0  0  0
 14 15  1  0  0  0  0
 14 34  1  0  0  0  0
 14 35  1  0  0  0  0
 15 16  1  0  0  0  0
 15 36  1  0  0  0  0
 15 37  1  0  0  0  0
 16 17  1  0  0  0  0
 16 18  1  0  0  0  0
 16 38  1  0  0  0  0
 17 39  1  0  0  0  0
 17 40  1  0  0  0  0
 17 41  1  0  0  0  0
 18 42  1  0  0  0  0
 18 43  1  0  0  0  0
 19 20  1  0  0  0  0
M  CHG  1   8  -1
M  CHG  1  12   1
M  END
> <s_m_source_file>
AV-unprocessed.smi

> <i_m_source_file_index>
2083

> <i_lp_mmshare_version>
43012

> <i_f3d_flags>
0

> <s_epik_input>
W0NIM11jMVtjSF1jKG5vMSlbTkhdQyg9TylbTkhdW0NIMl1bQ0BIXShbQ0gzXSlOMltDSDJdW0NIMl1bQ0gyXVtDQEBIXShbQ0gzXSlbQ0gyXTI=

> <s_epik_cmdline>
J2VwaWtfcHl0aG9uJywgJy1waCcsICc3LjAnLCAnLXRuJywgJzgnLCAnLW1hJywgJzIwMCcsICctbWV0YWxfYmluZGluZycsICctaW1hZScsICc8aW5maWxlLm1hZT4nLCAnLW9tYWUnLCAnPG91dGZpbGUubWFlPic=

> <r_epik_Ionization_Penalty>
6.76934

> <r_epik_Ionization_Penalty_Charging>
6.76934

> <r_epik_Ionization_Penalty_Neutral>
5.77849e-06

> <r_epik_State_Penalty>
6.79457

> <r_epik_Charging_Adjusted_Penalty>
13.5639

> <i_epik_Tot_Q>
0

> <i_epik_Tot_abs_Q>
2

> <r_epik_Metal_State_Penalty>
2.72837

> <b_epik_Metal_Only>
1

> <s_lp_Force_Field>
OPLS_2005

> <r_lp_Energy>
20.9735

> <b_lp_Chiralities_Consistent>
1

> <s_lp_Variant>
AV-unprocessed.smi:2083-21

> <Gold.Version>
5.8.1

> <Gold.Id.Protein>
6NUR|6NUR_protein|mol2

> <Gold.PLP.Fitness>
40.2698

> <Gold.PLP.PLP>
-29.5213

> <Gold.PLP.part.hbond>
-3.1900

> <Gold.PLP.part.metal>
0.0000

> <Gold.PLP.part.buried>
-4.4881

> <Gold.PLP.part.nonpolar>
-22.7382

> <Gold.PLP.part.repulsive>
1.6083

> <Gold.PLP.ligand.clash>
0.4119

> <Gold.PLP.ligand.torsion>
0.2248

> <Gold.PLP.Chemscore.Hbond>
3.7800

> <Gold.PLP.Chemscore.CHOScore>
0.0000

> <Gold.PLP.Chemscore.Metal>
0.0000

> <Gold.Chemscore.Hbonds>
donor molecule, donor type, donor heavy atom, donor atom, acceptor molecule, acceptor atom, score
      L1  H     5    25       P1  7948  0.25
      L1  H    12    44       P1  7948  2.00
      P1  H  7989  7998       L1    20  0.75

> <Gold.PLP.Chemscore.Internal.Correction>
0.2701

> <Gold.Rescore>
     Score         DG    S(hbond)    S(metal)    S(lipo)     H(rot)  DE(clash)    DE(int)     intcor
     11.90     -14.04       1.52        0.00      63.01       1.52       0.38       1.76       ----

> <Gold.Chemscore.Fitness>
11.9035

> <Gold.Chemscore.DG>
-14.0352

> <Gold.Chemscore.ZeroCoef>
-5.4800

> <Gold.Chemscore.Hbond>
1.5186

> <Gold.Chemscore.Metal>
0.0000

> <Gold.Chemscore.Lipo>
63.0057

> <Gold.Chemscore.Internal_Hbond>
0.0000

> <Gold.Chemscore.DEClash>
0.3763

> <Gold.Chemscore.DEInternal>
1.7554

> <Gold.Chemscore.Rot>
1.5190

> <Gold.Chemscore.Internal.Correction>
   9.000000E+99

> <Gold.Chemscore.Hbonds>
donor molecule, donor type, donor heavy atom, donor atom, acceptor molecule, acceptor atom, score
      L1  H     5    25       P1  7948  0.02
      L1  H    12    44       P1  7948  0.84
      P1  H  7989  7998       L1    20  0.33

> <Gold.Chemscore.Hbond.Weighted>
-5.0722

> <Gold.Chemscore.Metal.Weighted>
-0.0000

> <Gold.Chemscore.Lipo.Weighted>
-7.3717

> <Gold.Chemscore.Internal_Hbond.Weighted>
0.0000

> <Gold.Chemscore.DEClash.Weighted>
0.3763

> <Gold.Chemscore.DEInternal.Weighted>
1.7554

> <Gold.Chemscore.Rot.Weighted>
3.8886

> <Gold.Chemscore.Internal.Correction.Weighted>
   9.000000E+99

> <Gold.Protein.RotatedTorsions>
[ 6907 6896 6895 6894 ] final  134.46 input  -60.11 | X-H torsion
[ 7974 7965 7964 7962 ] final   58.70 input  175.53 | X-H torsion
[ 8008 7997 7996 7995 ] final  -64.25 input   59.86 | X-H torsion
[ 10167 10162 10161 10158 ] final -163.18 input  -65.29 | X-H torsion
[ 10718 10713 10712 10709 ] final  -94.11 input   66.30 | X-H torsion
[ 10763 10752 10751 10750 ] final   64.81 input  -60.55 | X-H torsion
[ 11005 11000 10999 10996 ] final  100.13 input  -57.11 | X-H torsion

> <Gold.Protein.ActiveResidues>
 VAL166  LYS551  ARG553  GLY616  TRP617  ASP618  TYR619  PRO620  LYS621  CYS622 
 ASP623  PHE694  ASN695  SER759  ASP760  ASP761  ALA762  ILE779  LEU786  VAL792 
 PHE793  MET794  SER795  GLU796  ALA797  LYS798  CYS799  TRP800  GLU811  SER814 

> <Gold.Protein.RotatedAtoms>
  152.3110  133.5753  159.5680 H   0  0  0  0  0  0  0  0  0  0  0  0  # atno 6907 bound_to 6896
  150.7323  134.0151  159.3691 H   0  0  0  0  0  0  0  0  0  0  0  0  # atno 6908 bound_to 6896
  151.8044  135.0700  160.0455 H   0  0  0  0  0  0  0  0  0  0  0  0  # atno 6909 bound_to 6896
  145.9153  139.3686  143.0511 H   0  0  0  0  0  0  0  0  0  0  0  0  # atno 7974 bound_to 7965
  154.4601  140.0958  156.6867 H   0  0  0  0  0  0  0  0  0  0  0  0  # atno 8008 bound_to 7997
  155.5021  140.3474  155.4354 H   0  0  0  0  0  0  0  0  0  0  0  0  # atno 8009 bound_to 7997
  156.0853  140.1383  156.9650 H   0  0  0  0  0  0  0  0  0  0  0  0  # atno 8010 bound_to 7997
  139.6339  144.0387  152.2038 H   0  0  0  0  0  0  0  0  0  0  0  0  # atno 10167 bound_to 10162
  156.0022  130.5054  150.5877 H   0  0  0  0  0  0  0  0  0  0  0  0  # atno 10718 bound_to 10713
  153.0071  135.5379  154.6569 H   0  0  0  0  0  0  0  0  0  0  0  0  # atno 10763 bound_to 10752
  154.5787  135.2848  155.0756 H   0  0  0  0  0  0  0  0  0  0  0  0  # atno 10764 bound_to 10752
  154.1894  135.6503  153.5108 H   0  0  0  0  0  0  0  0  0  0  0  0  # atno 10765 bound_to 10752
  139.8771  134.9126  156.4709 H   0  0  0  0  0  0  0  0  0  0  0  0  # atno 11005 bound_to 11000
  145.8620  140.9470  143.0695 LP  0  0  0  0  0  0  0  0  0  0  0  0  # atno 17320 bound_to 7965
  144.6747  140.0543  143.7478 LP  0  0  0  0  0  0  0  0  0  0  0  0  # atno 17321 bound_to 7965
  140.0060  144.6259  150.7689 LP  0  0  0  0  0  0  0  0  0  0  0  0  # atno 17342 bound_to 10162
  140.7454  143.2875  151.3421 LP  0  0  0  0  0  0  0  0  0  0  0  0  # atno 17343 bound_to 10162
  157.3747  131.0771  151.1528 LP  0  0  0  0  0  0  0  0  0  0  0  0  # atno 17370 bound_to 10713
  157.2270  130.6507  149.5834 LP  0  0  0  0  0  0  0  0  0  0  0  0  # atno 17371 bound_to 10713
  140.8796  133.7927  155.9452 LP  0  0  0  0  0  0  0  0  0  0  0  0  # atno 17394 bound_to 11000
  140.8868  134.2545  157.5116 LP  0  0  0  0  0  0  0  0  0  0  0  0  # atno 17395 bound_to 11000

$$$$
