AV-unprocessed.smi:44|AV-procd|sdf|401|dock10
  -GOLD-   2262016253D 1   1.00000     0.00000
 Structure written by MMmdl.
 29 31  0  0  0  0  0  0  0  0  3 V2000
  149.1728  141.6655  154.0723 O   0  0  0  0  0  0  0  0  0  0  0  0
  149.8397  140.9782  154.8429 C   0  0  0  0  0  0  0  0  0  0  0  0
  150.3833  139.7397  154.6135 N   0  5  0  0  0  0  0  0  0  0  0  0
  151.1218  139.0742  155.5854 C   0  0  0  0  0  0  0  0  0  0  0  0
  151.3952  139.4810  156.7739 N   0  0  0  0  0  0  0  0  0  0  0  0
  150.8801  140.7433  157.1064 C   0  0  0  0  0  0  0  0  0  0  0  0
  150.1372  141.4902  156.2217 C   0  0  0  0  0  0  0  0  0  0  0  0
  149.7771  142.6735  156.8082 N   0  3  0  0  0  0  0  0  0  0  0  0
  150.3190  142.5916  158.0233 C   0  0  0  0  0  0  0  0  0  0  0  0
  151.0040  141.4395  158.2845 N   0  0  0  0  0  0  0  0  0  0  0  0
  151.7171  141.1072  159.5523 C   0  0  1  0  0  0  0  0  0  0  0  0
  153.2176  140.9114  159.3037 C   0  0  0  0  0  0  0  0  0  0  0  0
  153.8037  141.4772  160.5780 C   0  0  0  0  0  0  0  0  0  0  0  0
  152.8543  142.6504  160.8276 C   0  0  2  0  0  0  0  0  0  0  0  0
  152.8242  143.2339  162.2506 C   0  0  0  0  0  0  0  0  0  0  0  0
  152.1274  144.4614  162.3016 O   0  0  0  0  0  0  0  0  0  0  0  0
  151.5686  142.1815  160.4335 O   0  0  0  0  0  0  0  0  0  0  0  0
  149.2352  143.4311  156.4124 H   0  0  0  0  0  0  0  0  0  0  0  0
  151.2215  140.2210  159.9510 H   0  0  0  0  0  0  0  0  0  0  0  0
  153.1134  143.4549  160.1379 H   0  0  0  0  0  0  0  0  0  0  0  0
  151.4791  138.1035  155.2327 H   0  0  0  0  0  0  0  0  0  0  0  0
  150.2271  143.3777  158.7510 H   0  0  0  0  0  0  0  0  0  0  0  0
  153.4574  139.8617  159.1336 H   0  0  0  0  0  0  0  0  0  0  0  0
  153.5434  141.4974  158.4430 H   0  0  0  0  0  0  0  0  0  0  0  0
  153.7444  140.7326  161.3722 H   0  0  0  0  0  0  0  0  0  0  0  0
  154.8440  141.7858  160.4711 H   0  0  0  0  0  0  0  0  0  0  0  0
  152.3230  142.5371  162.9230 H   0  0  0  0  0  0  0  0  0  0  0  0
  153.8373  143.3710  162.6299 H   0  0  0  0  0  0  0  0  0  0  0  0
  151.9093  144.7188  161.4189 H   0  0  0  0  0  0  0  0  0  0  0  0
  1  2  2  0  0  0  0
  2  7  1  0  0  0  0
  2  3  1  0  0  0  0
  3  4  1  0  0  0  0
  4 21  1  0  0  0  0
  4  5  2  0  0  0  0
  5  6  1  0  0  0  0
  6 10  1  0  0  0  0
  6  7  2  0  0  0  0
  7  8  1  0  0  0  0
  8  9  2  0  0  0  0
  8 18  1  0  0  0  0
  9 10  1  0  0  0  0
  9 22  1  0  0  0  0
 10 11  1  0  0  0  0
 11 19  1  0  0  0  0
 11 17  1  0  0  0  0
 11 12  1  0  0  0  0
 12 13  1  0  0  0  0
 12 23  1  0  0  0  0
 12 24  1  0  0  0  0
 13 14  1  0  0  0  0
 13 25  1  0  0  0  0
 13 26  1  0  0  0  0
 14 20  1  0  0  0  0
 14 15  1  0  0  0  0
 14 17  1  0  0  0  0
 15 16  1  0  0  0  0
 15 27  1  0  0  0  0
 15 28  1  0  0  0  0
 16 29  1  0  0  0  0
M  CHG  1   3  -1
M  CHG  1   8   1
M  END
> <s_m_source_file>
AV-unprocessed.smi

> <i_m_source_file_index>
44

> <i_lp_mmshare_version>
43012

> <i_f3d_flags>
0

> <s_epik_input>
bjFbY0hdW25IXWMoPU8pYyhjMTIpbltjSF1uMltDQEhdM1tDSDJdW0NIMl1bQ0BIXShPMylbQ0gyXVtPSF0=

> <s_epik_cmdline>
J2VwaWtfcHl0aG9uJywgJy1waCcsICc3LjAnLCAnLXRuJywgJzgnLCAnLW1hJywgJzIwMCcsICctbWV0YWxfYmluZGluZycsICctaW1hZScsICc8aW5maWxlLm1hZT4nLCAnLW9tYWUnLCAnPG91dGZpbGUubWFlPic=

> <r_lp_tautomer_probability>
0.144281

> <r_epik_Ionization_Penalty>
5.63685

> <r_epik_Ionization_Penalty_Charging>
5.58669

> <r_epik_Ionization_Penalty_Neutral>
0.0501585

> <r_epik_State_Penalty>
1.20809

> <r_epik_Charging_Adjusted_Penalty>
6.79478

> <i_epik_Tot_Q>
0

> <i_epik_Tot_abs_Q>
2

> <r_epik_Metal_State_Penalty>
1.52487

> <b_epik_Metal_Only>
0

> <s_epik_Chemistry_Notes>
This compound contains an acetal/aminal-like group ( X-CH(R)-Y where X, Y are N, S, or O) that may be acid/base labile, releasing an aldehyde.

> <s_lp_Force_Field>
OPLS_2005

> <r_lp_Energy>
46.8975

> <b_lp_Chiralities_Consistent>
1

> <s_lp_Variant>
AV-unprocessed.smi:44-7

> <Gold.Version>
5.8.1

> <Gold.Id.Protein>
6NUR|6NUR_protein|mol2

> <Gold.PLP.Fitness>
47.1632

> <Gold.PLP.PLP>
-38.6033

> <Gold.PLP.part.hbond>
-6.9252

> <Gold.PLP.part.metal>
0.0000

> <Gold.PLP.part.buried>
-4.2589

> <Gold.PLP.part.nonpolar>
-26.2911

> <Gold.PLP.part.repulsive>
0.3508

> <Gold.PLP.ligand.clash>
0.0000

> <Gold.PLP.ligand.torsion>
0.0679

> <Gold.PLP.Chemscore.Hbond>
2.8960

> <Gold.PLP.Chemscore.CHOScore>
0.0000

> <Gold.PLP.Chemscore.Metal>
0.0000

> <Gold.Chemscore.Hbonds>
donor molecule, donor type, donor heavy atom, donor atom, acceptor molecule, acceptor atom, score
      L1  H     8    18       P1  8028  2.00
      P1  H  6933  6945       L1    17  0.01
      P1  H  8011  8017       L1     1  0.59

> <Gold.PLP.Chemscore.Internal.Correction>
0.0077

> <Gold.Rescore>
     Score         DG    S(hbond)    S(metal)    S(lipo)     H(rot)  DE(clash)    DE(int)     intcor
      8.82     -11.21       1.70        0.00      50.26       2.27       2.31       0.08       ----

> <Gold.Chemscore.Fitness>
8.8189

> <Gold.Chemscore.DG>
-11.2062

> <Gold.Chemscore.ZeroCoef>
-5.4800

> <Gold.Chemscore.Hbond>
1.6952

> <Gold.Chemscore.Metal>
0.0000

> <Gold.Chemscore.Lipo>
50.2617

> <Gold.Chemscore.Internal_Hbond>
0.0000

> <Gold.Chemscore.DEClash>
2.3104

> <Gold.Chemscore.DEInternal>
0.0769

> <Gold.Chemscore.Rot>
2.2720

> <Gold.Chemscore.Internal.Correction>
   9.000000E+99

> <Gold.Chemscore.Hbonds>
donor molecule, donor type, donor heavy atom, donor atom, acceptor molecule, acceptor atom, score
      L1  H     8    18       P1  8028  0.93
      P1  H  6933  6945       L1    17  0.01
      P1  H  8011  8017       L1     1  0.56

> <Gold.Chemscore.Hbond.Weighted>
-5.6620

> <Gold.Chemscore.Metal.Weighted>
-0.0000

> <Gold.Chemscore.Lipo.Weighted>
-5.8806

> <Gold.Chemscore.Internal_Hbond.Weighted>
0.0000

> <Gold.Chemscore.DEClash.Weighted>
2.3104

> <Gold.Chemscore.DEInternal.Weighted>
0.0769

> <Gold.Chemscore.Rot.Weighted>
5.8164

> <Gold.Chemscore.Internal.Correction.Weighted>
   9.000000E+99

> <Gold.Protein.RotatedTorsions>
[ 6907 6896 6895 6894 ] final  -77.89 input  -60.11 | X-H torsion
[ 7974 7965 7964 7962 ] final  -52.94 input  175.53 | X-H torsion
[ 8008 7997 7996 7995 ] final   16.47 input   59.86 | X-H torsion
[ 10167 10162 10161 10158 ] final  -19.18 input  -65.29 | X-H torsion
[ 10718 10713 10712 10709 ] final   -0.14 input   66.30 | X-H torsion
[ 10763 10752 10751 10750 ] final  -41.31 input  -60.55 | X-H torsion
[ 11005 11000 10999 10996 ] final  -39.57 input  -57.11 | X-H torsion

> <Gold.Protein.ActiveResidues>
 VAL166  LYS551  ARG553  GLY616  TRP617  ASP618  TYR619  PRO620  LYS621  CYS622 
 ASP623  PHE694  ASN695  SER759  ASP760  ASP761  ALA762  ILE779  LEU786  VAL792 
 PHE793  MET794  SER795  GLU796  ALA797  LYS798  CYS799  TRP800  GLU811  SER814 

> <Gold.Protein.RotatedAtoms>
  150.6987  134.4355  159.5267 H   0  0  0  0  0  0  0  0  0  0  0  0  # atno 6907 bound_to 6896
  152.2074  134.8530  160.0510 H   0  0  0  0  0  0  0  0  0  0  0  0  # atno 6908 bound_to 6896
  151.9428  133.3608  159.4008 H   0  0  0  0  0  0  0  0  0  0  0  0  # atno 6909 bound_to 6896
  145.9023  140.7984  142.9737 H   0  0  0  0  0  0  0  0  0  0  0  0  # atno 7974 bound_to 7965
  154.8774  140.2968  155.5445 H   0  0  0  0  0  0  0  0  0  0  0  0  # atno 8008 bound_to 7997
  156.3022  140.2449  156.3705 H   0  0  0  0  0  0  0  0  0  0  0  0  # atno 8009 bound_to 7997
  154.8753  140.0400  157.1738 H   0  0  0  0  0  0  0  0  0  0  0  0  # atno 8010 bound_to 7997
  140.7266  143.4844  151.0075 H   0  0  0  0  0  0  0  0  0  0  0  0  # atno 10167 bound_to 10162
  156.8248  130.5468  149.5693 H   0  0  0  0  0  0  0  0  0  0  0  0  # atno 10718 bound_to 10713
  153.9603  135.6740  153.4745 H   0  0  0  0  0  0  0  0  0  0  0  0  # atno 10763 bound_to 10752
  153.0841  135.4908  154.8559 H   0  0  0  0  0  0  0  0  0  0  0  0  # atno 10764 bound_to 10752
  154.7276  135.3131  154.8905 H   0  0  0  0  0  0  0  0  0  0  0  0  # atno 10765 bound_to 10752
  141.0111  133.6907  156.2204 H   0  0  0  0  0  0  0  0  0  0  0  0  # atno 11005 bound_to 11000
  144.6737  140.1696  143.7415 LP  0  0  0  0  0  0  0  0  0  0  0  0  # atno 17320 bound_to 7965
  145.8775  139.2305  143.1625 LP  0  0  0  0  0  0  0  0  0  0  0  0  # atno 17321 bound_to 7965
  139.8544  143.7396  152.3176 LP  0  0  0  0  0  0  0  0  0  0  0  0  # atno 17342 bound_to 10162
  139.7589  144.7512  151.0393 LP  0  0  0  0  0  0  0  0  0  0  0  0  # atno 17343 bound_to 10162
  156.0968  130.5938  150.9827 LP  0  0  0  0  0  0  0  0  0  0  0  0  # atno 17370 bound_to 10713
  157.6438  131.0907  150.8196 LP  0  0  0  0  0  0  0  0  0  0  0  0  # atno 17371 bound_to 10713
  140.6731  134.4846  157.5587 LP  0  0  0  0  0  0  0  0  0  0  0  0  # atno 17394 bound_to 11000
  139.9090  134.8385  156.1596 LP  0  0  0  0  0  0  0  0  0  0  0  0  # atno 17395 bound_to 11000

$$$$
