AV-unprocessed.smi:63|AV-procd|sdf|607|dock2
  -GOLD-   2262016503D 1   1.00000     0.00000
 Structure written by MMmdl.
 29 30  0  0  0  0  0  0  0  0  1 V2000
  154.8667  138.0190  159.7510 C   0  0  0  0  0  0  0  0  0  0  0  0
  154.1584  139.3570  159.7201 C   0  0  0  0  0  0  0  0  0  0  0  0
  154.0774  140.1555  160.8757 C   0  0  0  0  0  0  0  0  0  0  0  0
  153.3989  141.3812  160.7654 C   0  0  0  0  0  0  0  0  0  0  0  0
  152.8474  141.7247  159.5098 C   0  0  0  0  0  0  0  0  0  0  0  0
  152.1509  142.9417  159.3501 N   0  0  0  0  0  0  0  0  0  0  0  0
  151.7574  143.3024  157.9917 C   0  0  0  0  0  0  0  0  0  0  0  0
  151.8980  144.8235  157.8934 C   0  0  0  0  0  0  0  0  0  0  0  0
  151.8386  145.2855  159.3452 C   0  0  0  0  0  0  0  0  0  0  0  0
  152.5283  144.1417  160.0959 C   0  0  1  0  0  0  0  0  0  0  0  0
  152.1379  144.0747  161.5862 C   0  0  0  0  0  0  0  0  0  0  0  0
  150.7628  143.7829  161.7151 O   0  0  0  0  0  0  0  0  0  0  0  0
  152.9702  140.8977  158.4399 N   0  0  0  0  0  0  0  0  0  0  0  0
  153.6149  139.7305  158.5399 N   0  0  0  0  0  0  0  0  0  0  0  0
  155.8489  138.1201  160.2136 H   0  0  0  0  0  0  0  0  0  0  0  0
  155.0047  137.6172  158.7462 H   0  0  0  0  0  0  0  0  0  0  0  0
  154.2864  137.3002  160.3298 H   0  0  0  0  0  0  0  0  0  0  0  0
  154.5179  139.8416  161.8105 H   0  0  0  0  0  0  0  0  0  0  0  0
  153.3129  142.0348  161.6208 H   0  0  0  0  0  0  0  0  0  0  0  0
  152.3656  142.8072  157.2335 H   0  0  0  0  0  0  0  0  0  0  0  0
  150.7194  143.0044  157.8402 H   0  0  0  0  0  0  0  0  0  0  0  0
  152.8712  145.0753  157.4700 H   0  0  0  0  0  0  0  0  0  0  0  0
  151.1306  145.2808  157.2682 H   0  0  0  0  0  0  0  0  0  0  0  0
  152.3231  146.2493  159.5035 H   0  0  0  0  0  0  0  0  0  0  0  0
  150.7971  145.3755  159.6577 H   0  0  0  0  0  0  0  0  0  0  0  0
  153.6084  144.2707  160.0068 H   0  0  0  0  0  0  0  0  0  0  0  0
  152.7184  143.3122  162.1066 H   0  0  0  0  0  0  0  0  0  0  0  0
  152.3284  145.0205  162.0923 H   0  0  0  0  0  0  0  0  0  0  0  0
  150.3458  144.4994  162.1687 H   0  0  0  0  0  0  0  0  0  0  0  0
  1  2  1  0  0  0  0
  1 15  1  0  0  0  0
  1 16  1  0  0  0  0
  1 17  1  0  0  0  0
  2 14  1  0  0  0  0
  2  3  2  0  0  0  0
  3  4  1  0  0  0  0
  3 18  1  0  0  0  0
  4  5  2  0  0  0  0
  4 19  1  0  0  0  0
  5  6  1  0  0  0  0
  5 13  1  0  0  0  0
  6 10  1  0  0  0  0
  6  7  1  0  0  0  0
  7  8  1  0  0  0  0
  7 20  1  0  0  0  0
  7 21  1  0  0  0  0
  8  9  1  0  0  0  0
  8 22  1  0  0  0  0
  8 23  1  0  0  0  0
  9 10  1  0  0  0  0
  9 24  1  0  0  0  0
  9 25  1  0  0  0  0
 10 11  1  0  0  0  0
 10 26  1  0  0  0  0
 11 12  1  0  0  0  0
 11 27  1  0  0  0  0
 11 28  1  0  0  0  0
 12 29  1  0  0  0  0
 13 14  2  0  0  0  0
M  END
> <s_m_source_file>
AV-unprocessed.smi

> <i_m_source_file_index>
63

> <i_lp_mmshare_version>
43012

> <i_f3d_flags>
0

> <s_epik_input>
W0NIM11jMVtjSF1bY0hdYyhubjEpTjJbQ0gyXVtDSDJdW0NIMl1bQ0BIXTJbQ0gyXVtPSF0=

> <s_epik_cmdline>
J2VwaWtfcHl0aG9uJywgJy1waCcsICc3LjAnLCAnLXRuJywgJzgnLCAnLW1hJywgJzIwMCcsICctbWV0YWxfYmluZGluZycsICctaW1hZScsICc8aW5maWxlLm1hZT4nLCAnLW9tYWUnLCAnPG91dGZpbGUubWFlPic=

> <r_lp_tautomer_probability>
1

> <r_epik_Ionization_Penalty>
4.30639e-05

> <r_epik_Ionization_Penalty_Charging>
0

> <r_epik_Ionization_Penalty_Neutral>
4.30639e-05

> <r_epik_State_Penalty>
-0

> <r_epik_Charging_Adjusted_Penalty>
0

> <i_epik_Tot_Q>
0

> <i_epik_Tot_abs_Q>
0

> <r_epik_Metal_State_Penalty>
-0

> <b_epik_Metal_Only>
0

> <s_lp_Force_Field>
OPLS_2005

> <r_lp_Energy>
32.9321

> <b_lp_Chiralities_Consistent>
1

> <s_lp_Variant>
AV-unprocessed.smi:63-1

> <Gold.Version>
5.8.1

> <Gold.Id.Protein>
6NUR|6NUR_protein|mol2

> <Gold.PLP.Fitness>
38.0786

> <Gold.PLP.PLP>
-35.0006

> <Gold.PLP.part.hbond>
-4.1808

> <Gold.PLP.part.metal>
0.0000

> <Gold.PLP.part.buried>
-4.8262

> <Gold.PLP.part.nonpolar>
-25.7707

> <Gold.PLP.part.repulsive>
0.0000

> <Gold.PLP.ligand.clash>
0.0000

> <Gold.PLP.ligand.torsion>
0.4346

> <Gold.PLP.Chemscore.Hbond>
1.1976

> <Gold.PLP.Chemscore.CHOScore>
0.0000

> <Gold.PLP.Chemscore.Metal>
0.0000

> <Gold.Chemscore.Hbonds>
donor molecule, donor type, donor heavy atom, donor atom, acceptor molecule, acceptor atom, score
      P1  H  6933  6945       L1    12  0.15
      P1  H  7997  8010       L1    14  0.80

> <Gold.PLP.Chemscore.Internal.Correction>
0.3545

> <Gold.Rescore>
     Score         DG    S(hbond)    S(metal)    S(lipo)     H(rot)  DE(clash)    DE(int)     intcor
     11.61     -12.02       0.00        0.00      93.39       1.71       0.16       0.25       ----

> <Gold.Chemscore.Fitness>
11.6065

> <Gold.Chemscore.DG>
-12.0192

> <Gold.Chemscore.ZeroCoef>
-5.4800

> <Gold.Chemscore.Hbond>
0.0000

> <Gold.Chemscore.Metal>
0.0000

> <Gold.Chemscore.Lipo>
93.3881

> <Gold.Chemscore.Internal_Hbond>
0.0000

> <Gold.Chemscore.DEClash>
0.1616

> <Gold.Chemscore.DEInternal>
0.2511

> <Gold.Chemscore.Rot>
1.7138

> <Gold.Chemscore.Internal.Correction>
   9.000000E+99

> <Gold.Chemscore.Hbonds>
donor molecule, donor type, donor heavy atom, donor atom, acceptor molecule, acceptor atom, score
      P1  H  6933  6945       L1    12  0.14
      P1  H  7997  8010       L1    14  0.11

> <Gold.Chemscore.Hbond.Weighted>
-0.0000

> <Gold.Chemscore.Metal.Weighted>
-0.0000

> <Gold.Chemscore.Lipo.Weighted>
-10.9264

> <Gold.Chemscore.Internal_Hbond.Weighted>
0.0000

> <Gold.Chemscore.DEClash.Weighted>
0.1616

> <Gold.Chemscore.DEInternal.Weighted>
0.2511

> <Gold.Chemscore.Rot.Weighted>
4.3872

> <Gold.Chemscore.Internal.Correction.Weighted>
   9.000000E+99

> <Gold.Protein.RotatedTorsions>
[ 6907 6896 6895 6894 ] final   44.73 input  -60.11 | X-H torsion
[ 7974 7965 7964 7962 ] final    0.85 input  175.53 | X-H torsion
[ 8008 7997 7996 7995 ] final   21.92 input   59.86 | X-H torsion
[ 10167 10162 10161 10158 ] final  -30.27 input  -65.29 | X-H torsion
[ 10718 10713 10712 10709 ] final   58.71 input   66.30 | X-H torsion
[ 10763 10752 10751 10750 ] final  170.07 input  -60.55 | X-H torsion
[ 11005 11000 10999 10996 ] final  -11.37 input  -57.11 | X-H torsion

> <Gold.Protein.ActiveResidues>
 VAL166  LYS551  ARG553  GLY616  TRP617  ASP618  TYR619  PRO620  LYS621  CYS622 
 ASP623  PHE694  ASN695  SER759  ASP760  ASP761  ALA762  ILE779  LEU786  VAL792 
 PHE793  MET794  SER795  GLU796  ALA797  LYS798  CYS799  TRP800  GLU811  SER814 

> <Gold.Protein.RotatedAtoms>
  152.2361  134.8275  160.0466 H   0  0  0  0  0  0  0  0  0  0  0  0  # atno 6907 bound_to 6896
  151.9006  133.3532  159.3837 H   0  0  0  0  0  0  0  0  0  0  0  0  # atno 6908 bound_to 6896
  150.7039  134.4758  159.5491 H   0  0  0  0  0  0  0  0  0  0  0  0  # atno 6909 bound_to 6896
  146.2437  140.1075  142.8345 H   0  0  0  0  0  0  0  0  0  0  0  0  # atno 7974 bound_to 7965
  154.9579  140.3074  155.5044 H   0  0  0  0  0  0  0  0  0  0  0  0  # atno 8008 bound_to 7997
  156.2980  140.2307  156.4600 H   0  0  0  0  0  0  0  0  0  0  0  0  # atno 8009 bound_to 7997
  154.7992  140.0435  157.1249 H   0  0  0  0  0  0  0  0  0  0  0  0  # atno 8010 bound_to 7997
  140.7251  143.3862  151.1511 H   0  0  0  0  0  0  0  0  0  0  0  0  # atno 10167 bound_to 10162
  157.5618  130.8841  149.9123 H   0  0  0  0  0  0  0  0  0  0  0  0  # atno 10718 bound_to 10713
  154.3923  135.2754  155.2147 H   0  0  0  0  0  0  0  0  0  0  0  0  # atno 10763 bound_to 10752
  154.4208  135.6000  153.6012 H   0  0  0  0  0  0  0  0  0  0  0  0  # atno 10764 bound_to 10752
  152.9832  135.5972  154.4180 H   0  0  0  0  0  0  0  0  0  0  0  0  # atno 10765 bound_to 10752
  140.7545  133.8565  155.9073 H   0  0  0  0  0  0  0  0  0  0  0  0  # atno 11005 bound_to 11000
  145.0515  140.9021  143.4992 LP  0  0  0  0  0  0  0  0  0  0  0  0  # atno 17320 bound_to 7965
  145.1174  139.2716  143.5606 LP  0  0  0  0  0  0  0  0  0  0  0  0  # atno 17321 bound_to 7965
  139.7460  143.8852  152.3063 LP  0  0  0  0  0  0  0  0  0  0  0  0  # atno 17342 bound_to 10162
  139.8689  144.7079  150.9011 LP  0  0  0  0  0  0  0  0  0  0  0  0  # atno 17343 bound_to 10162
  156.0670  130.3691  150.0858 LP  0  0  0  0  0  0  0  0  0  0  0  0  # atno 17370 bound_to 10713
  156.9021  130.9623  151.3575 LP  0  0  0  0  0  0  0  0  0  0  0  0  # atno 17371 bound_to 10713
  140.9720  134.1519  157.4568 LP  0  0  0  0  0  0  0  0  0  0  0  0  # atno 17394 bound_to 11000
  139.8781  134.9982  156.5885 LP  0  0  0  0  0  0  0  0  0  0  0  0  # atno 17395 bound_to 11000

$$$$
