AV-unprocessed.smi:1443|AV-procd|sdf|5879|dock10
  -GOLD-   22720 5553D 1   1.00000     0.00000
 Structure written by MMmdl.
 27 28  0  0  0  0  0  0  0  0  1 V2000
  152.8431  138.2467  154.5808 C   0  0  0  0  0  0  0  0  0  0  0  0
  151.1113  137.8821  154.1897 S   0  0  0  0  0  0  0  0  0  0  0  0
  150.1978  139.3360  154.5944 C   0  0  0  0  0  0  0  0  0  0  0  0
  148.9323  139.4834  154.1627 N   0  0  0  0  0  0  0  0  0  0  0  0
  148.3478  140.9730  154.7049 S   0  0  0  0  0  0  0  0  0  0  0  0
  149.8622  141.3171  155.4868 C   0  0  0  0  0  0  0  0  0  0  0  0
  150.0919  142.5323  156.1945 N   0  0  0  0  0  0  0  0  0  0  0  0
  150.9746  142.8455  157.1669 C   0  0  0  0  0  0  0  0  0  0  0  0
  151.7687  142.0089  157.5934 O   0  0  0  0  0  0  0  0  0  0  0  0
  150.9271  144.1054  157.6268 N   0  0  0  0  0  0  0  0  0  0  0  0
  151.7422  144.6468  158.6661 C   0  0  2  0  0  0  0  0  0  0  0  0
  151.8925  143.8202  159.9249 C   0  0  0  0  0  0  0  0  0  0  0  0
  151.0864  145.0912  159.9608 C   0  0  2  0  0  0  0  0  0  0  0  0
  149.5840  145.0500  160.1576 C   0  0  0  0  0  0  0  0  0  0  0  0
  150.7396  140.3254  155.3282 N   0  0  0  0  0  0  0  0  0  0  0  0
  153.4763  137.4042  154.3031 H   0  0  0  0  0  0  0  0  0  0  0  0
  152.9575  138.4255  155.6493 H   0  0  0  0  0  0  0  0  0  0  0  0
  153.1827  139.1287  154.0378 H   0  0  0  0  0  0  0  0  0  0  0  0
  149.5120  143.3029  155.8955 H   0  0  0  0  0  0  0  0  0  0  0  0
  150.2457  144.7270  157.2149 H   0  0  0  0  0  0  0  0  0  0  0  0
  152.6255  145.2063  158.3613 H   0  0  0  0  0  0  0  0  0  0  0  0
  151.3529  142.8761  159.9791 H   0  0  0  0  0  0  0  0  0  0  0  0
  152.8631  143.8279  160.4165 H   0  0  0  0  0  0  0  0  0  0  0  0
  151.5586  145.9392  160.4533 H   0  0  0  0  0  0  0  0  0  0  0  0
  149.1532  144.1586  159.7031 H   0  0  0  0  0  0  0  0  0  0  0  0
  149.1238  145.9280  159.7045 H   0  0  0  0  0  0  0  0  0  0  0  0
  149.3472  145.0429  161.2216 H   0  0  0  0  0  0  0  0  0  0  0  0
  1  2  1  0  0  0  0
  1 16  1  0  0  0  0
  1 17  1  0  0  0  0
  1 18  1  0  0  0  0
  2  3  1  0  0  0  0
  3 15  1  0  0  0  0
  3  4  2  0  0  0  0
  4  5  1  0  0  0  0
  5  6  1  0  0  0  0
  6  7  1  0  0  0  0
  6 15  2  0  0  0  0
  7  8  1  0  0  0  0
  7 19  1  0  0  0  0
  8  9  2  0  0  0  0
  8 10  1  0  0  0  0
 10 11  1  0  0  0  0
 10 20  1  0  0  0  0
 11 13  1  0  0  0  0
 11 12  1  0  0  0  0
 11 21  1  0  0  0  0
 12 13  1  0  0  0  0
 12 22  1  0  0  0  0
 12 23  1  0  0  0  0
 13 14  1  0  0  0  0
 13 24  1  0  0  0  0
 14 25  1  0  0  0  0
 14 26  1  0  0  0  0
 14 27  1  0  0  0  0
M  END
> <s_m_source_file>
AV-unprocessed.smi

> <i_m_source_file_index>
1443

> <i_lp_mmshare_version>
43012

> <i_f3d_flags>
0

> <s_epik_input>
W0NIM11TYzFuc2MobjEpW05IXUMoPU8pW05IXVtDQEBIXTJbQ0gyXVtDQEhdMltDSDNd

> <s_epik_cmdline>
J2VwaWtfcHl0aG9uJywgJy1waCcsICc3LjAnLCAnLXRuJywgJzgnLCAnLW1hJywgJzIwMCcsICctbWV0YWxfYmluZGluZycsICctaW1hZScsICc8aW5maWxlLm1hZT4nLCAnLW9tYWUnLCAnPG91dGZpbGUubWFlPic=

> <r_lp_tautomer_probability>
1

> <r_epik_Ionization_Penalty>
2.74658e-05

> <r_epik_Ionization_Penalty_Charging>
0

> <r_epik_Ionization_Penalty_Neutral>
2.74658e-05

> <r_epik_State_Penalty>
-0

> <r_epik_Charging_Adjusted_Penalty>
0

> <i_epik_Tot_Q>
0

> <i_epik_Tot_abs_Q>
0

> <r_epik_Metal_State_Penalty>
-0

> <b_epik_Metal_Only>
0

> <s_lp_Force_Field>
OPLS_2005

> <r_lp_Energy>
21.2108

> <b_lp_Chiralities_Consistent>
1

> <s_lp_Variant>
AV-unprocessed.smi:1443-3

> <Gold.Version>
5.8.1

> <Gold.Id.Protein>
6NUR|6NUR_protein|mol2

> <Gold.PLP.Fitness>
39.3098

> <Gold.PLP.PLP>
-34.1467

> <Gold.PLP.part.hbond>
-3.0000

> <Gold.PLP.part.metal>
0.0000

> <Gold.PLP.part.buried>
-3.9202

> <Gold.PLP.part.nonpolar>
-28.5956

> <Gold.PLP.part.repulsive>
0.8551

> <Gold.PLP.ligand.clash>
0.0000

> <Gold.PLP.ligand.torsion>
0.3618

> <Gold.PLP.Chemscore.Hbond>
1.9500

> <Gold.PLP.Chemscore.CHOScore>
0.0000

> <Gold.PLP.Chemscore.Metal>
0.0000

> <Gold.Chemscore.Hbonds>
donor molecule, donor type, donor heavy atom, donor atom, acceptor molecule, acceptor atom, score
      L1  H     7    19       P1  8028  1.00
      L1  H    10    20       P1  8028  0.80
      P1  H  7989  7998       L1    15  0.16

> <Gold.PLP.Chemscore.Internal.Correction>
0.0368

> <Gold.Rescore>
     Score         DG    S(hbond)    S(metal)    S(lipo)     H(rot)  DE(clash)    DE(int)     intcor
     12.37     -15.41       1.56        0.00      68.21       1.27       0.60       2.44       ----

> <Gold.Chemscore.Fitness>
12.3695

> <Gold.Chemscore.DG>
-15.4109

> <Gold.Chemscore.ZeroCoef>
-5.4800

> <Gold.Chemscore.Hbond>
1.5571

> <Gold.Chemscore.Metal>
0.0000

> <Gold.Chemscore.Lipo>
68.2135

> <Gold.Chemscore.Internal_Hbond>
0.0000

> <Gold.Chemscore.DEClash>
0.5998

> <Gold.Chemscore.DEInternal>
2.4415

> <Gold.Chemscore.Rot>
1.2699

> <Gold.Chemscore.Internal.Correction>
   9.000000E+99

> <Gold.Chemscore.Hbonds>
donor molecule, donor type, donor heavy atom, donor atom, acceptor molecule, acceptor atom, score
      L1  H     7    19       P1  8028  0.97
      L1  H    10    20       P1  8028  0.26

> <Gold.Chemscore.Hbond.Weighted>
-5.2008

> <Gold.Chemscore.Metal.Weighted>
-0.0000

> <Gold.Chemscore.Lipo.Weighted>
-7.9810

> <Gold.Chemscore.Internal_Hbond.Weighted>
0.0000

> <Gold.Chemscore.DEClash.Weighted>
0.5998

> <Gold.Chemscore.DEInternal.Weighted>
2.4415

> <Gold.Chemscore.Rot.Weighted>
3.2509

> <Gold.Chemscore.Internal.Correction.Weighted>
   9.000000E+99

> <Gold.Protein.RotatedTorsions>
[ 6907 6896 6895 6894 ] final  120.46 input  -60.11 | X-H torsion
[ 7974 7965 7964 7962 ] final  143.95 input  175.53 | X-H torsion
[ 8008 7997 7996 7995 ] final  124.96 input   59.86 | X-H torsion
[ 10167 10162 10161 10158 ] final  -11.06 input  -65.29 | X-H torsion
[ 10718 10713 10712 10709 ] final  -96.36 input   66.30 | X-H torsion
[ 10763 10752 10751 10750 ] final  173.43 input  -60.55 | X-H torsion
[ 11005 11000 10999 10996 ] final  -87.90 input  -57.11 | X-H torsion

> <Gold.Protein.ActiveResidues>
 VAL166  LYS551  ARG553  GLY616  TRP617  ASP618  TYR619  PRO620  LYS621  CYS622 
 ASP623  PHE694  ASN695  SER759  ASP760  ASP761  ALA762  ILE779  LEU786  VAL792 
 PHE793  MET794  SER795  GLU796  ALA797  LYS798  CYS799  TRP800  GLU811  SER814 

> <Gold.Protein.RotatedAtoms>
  152.4396  133.7424  159.6647 H   0  0  0  0  0  0  0  0  0  0  0  0  # atno 6907 bound_to 6896
  150.8285  133.8121  159.3115 H   0  0  0  0  0  0  0  0  0  0  0  0  # atno 6908 bound_to 6896
  151.5782  135.1062  160.0063 H   0  0  0  0  0  0  0  0  0  0  0  0  # atno 6909 bound_to 6896
  144.8877  139.5605  143.5813 H   0  0  0  0  0  0  0  0  0  0  0  0  # atno 7974 bound_to 7965
  156.2818  140.2727  156.1872 H   0  0  0  0  0  0  0  0  0  0  0  0  # atno 8008 bound_to 7997
  155.0496  140.0386  157.2557 H   0  0  0  0  0  0  0  0  0  0  0  0  # atno 8009 bound_to 7997
  154.7206  140.2687  155.6550 H   0  0  0  0  0  0  0  0  0  0  0  0  # atno 8010 bound_to 7997
  140.7129  143.5681  150.9122 H   0  0  0  0  0  0  0  0  0  0  0  0  # atno 10167 bound_to 10162
  156.0061  130.5148  150.6214 H   0  0  0  0  0  0  0  0  0  0  0  0  # atno 10718 bound_to 10713
  154.4400  135.2762  155.1854 H   0  0  0  0  0  0  0  0  0  0  0  0  # atno 10763 bound_to 10752
  154.3725  135.6105  153.5751 H   0  0  0  0  0  0  0  0  0  0  0  0  # atno 10764 bound_to 10752
  152.9840  135.5860  154.4726 H   0  0  0  0  0  0  0  0  0  0  0  0  # atno 10765 bound_to 10752
  141.1610  133.7538  156.9374 H   0  0  0  0  0  0  0  0  0  0  0  0  # atno 11005 bound_to 11000
  146.3034  139.7501  142.9074 LP  0  0  0  0  0  0  0  0  0  0  0  0  # atno 17320 bound_to 7965
  145.3839  141.0362  143.3162 LP  0  0  0  0  0  0  0  0  0  0  0  0  # atno 17321 bound_to 7965
  139.9407  143.6386  152.3054 LP  0  0  0  0  0  0  0  0  0  0  0  0  # atno 17342 bound_to 10162
  139.6869  144.7650  151.1508 LP  0  0  0  0  0  0  0  0  0  0  0  0  # atno 17343 bound_to 10162
  157.4029  131.0812  151.1292 LP  0  0  0  0  0  0  0  0  0  0  0  0  # atno 17370 bound_to 10713
  157.1948  130.6368  149.5717 LP  0  0  0  0  0  0  0  0  0  0  0  0  # atno 17371 bound_to 10713
  140.1345  134.9334  157.2382 LP  0  0  0  0  0  0  0  0  0  0  0  0  # atno 17394 bound_to 11000
  140.2912  134.3238  155.7314 LP  0  0  0  0  0  0  0  0  0  0  0  0  # atno 17395 bound_to 11000

$$$$
