AV-unprocessed.smi:813|AV-procd|sdf|3820|dock3
  -GOLD-   22720 1263D 1   1.00000     0.00000
 Structure written by MMmdl.
 35 36  0  0  0  0  0  0  0  0  2 V2000
  151.5867  138.4576  157.8624 C   0  0  0  0  0  0  0  0  0  0  0  0
  150.1920  137.9659  157.4412 C   0  0  1  0  0  0  0  0  0  0  0  0
  149.3574  137.8867  158.6396 N   0  0  0  0  0  0  0  0  0  0  0  0
  148.9008  136.7605  159.2085 C   0  0  0  0  0  0  0  0  0  0  0  0
  149.1857  135.6648  158.7188 O   0  0  0  0  0  0  0  0  0  0  0  0
  148.1419  136.9734  160.3075 N   0  5  0  0  0  0  0  0  0  0  0  0
  147.5868  135.9336  160.9516 C   0  0  0  0  0  0  0  0  0  0  0  0
  147.1217  134.8532  160.3039 N   0  0  0  0  0  0  0  0  0  0  0  0
  146.5920  133.8924  161.1549 N   0  0  0  0  0  0  0  0  0  0  0  0
  146.6810  134.2710  162.4297 C   0  0  0  0  0  0  0  0  0  0  0  0
  147.4198  135.8340  162.7069 S   0  0  0  0  0  0  0  0  0  0  0  0
  149.6026  138.9755  156.4435 C   0  0  0  0  0  0  0  0  0  0  0  0
  148.7081  139.7502  156.7870 O   0  0  0  0  0  0  0  0  0  0  0  0
  150.1251  138.9579  155.2081 N   0  0  0  0  0  0  0  0  0  0  0  0
  149.7014  139.8130  154.1032 C   0  0  0  0  0  0  0  0  0  0  0  0
  149.5918  141.2867  154.5431 C   0  0  0  0  0  0  0  0  0  0  0  0
  148.0960  141.5902  154.6213 C   0  0  0  0  0  0  0  0  0  0  0  0
  147.4805  140.7008  153.5458 C   0  0  0  0  0  0  0  0  0  0  0  0
  148.2996  139.4099  153.6053 C   0  0  0  0  0  0  0  0  0  0  0  0
  152.2550  138.5349  157.0040 H   0  0  0  0  0  0  0  0  0  0  0  0
  152.0450  137.7641  158.5685 H   0  0  0  0  0  0  0  0  0  0  0  0
  151.5462  139.4362  158.3432 H   0  0  0  0  0  0  0  0  0  0  0  0
  150.2782  136.9794  156.9812 H   0  0  0  0  0  0  0  0  0  0  0  0
  149.0935  138.7615  159.0685 H   0  0  0  0  0  0  0  0  0  0  0  0
  146.3116  133.6248  163.2119 H   0  0  0  0  0  0  0  0  0  0  0  0
  150.8536  138.2864  155.0136 H   0  0  0  0  0  0  0  0  0  0  0  0
  150.4167  139.7299  153.2826 H   0  0  0  0  0  0  0  0  0  0  0  0
  150.1020  141.5017  155.4833 H   0  0  0  0  0  0  0  0  0  0  0  0
  150.0471  141.9212  153.7815 H   0  0  0  0  0  0  0  0  0  0  0  0
  147.7130  141.3020  155.6013 H   0  0  0  0  0  0  0  0  0  0  0  0
  147.8737  142.6472  154.4724 H   0  0  0  0  0  0  0  0  0  0  0  0
  146.4150  140.5297  153.7007 H   0  0  0  0  0  0  0  0  0  0  0  0
  147.6044  141.1702  152.5690 H   0  0  0  0  0  0  0  0  0  0  0  0
  148.3362  138.9088  152.6376 H   0  0  0  0  0  0  0  0  0  0  0  0
  147.8251  138.7203  154.3054 H   0  0  0  0  0  0  0  0  0  0  0  0
  1  2  1  0  0  0  0
  1 20  1  0  0  0  0
  1 21  1  0  0  0  0
  1 22  1  0  0  0  0
  2  3  1  0  0  0  0
  2 12  1  0  0  0  0
  2 23  1  0  0  0  0
  3  4  1  0  0  0  0
  3 24  1  0  0  0  0
  4  5  2  0  0  0  0
  4  6  1  0  0  0  0
  6  7  1  0  0  0  0
  7 11  1  0  0  0  0
  7  8  2  0  0  0  0
  8  9  1  0  0  0  0
  9 10  2  0  0  0  0
 10 11  1  0  0  0  0
 10 25  1  0  0  0  0
 12 13  2  0  0  0  0
 12 14  1  0  0  0  0
 14 15  1  0  0  0  0
 14 26  1  0  0  0  0
 15 19  1  0  0  0  0
 15 16  1  0  0  0  0
 15 27  1  0  0  0  0
 16 17  1  0  0  0  0
 16 28  1  0  0  0  0
 16 29  1  0  0  0  0
 17 18  1  0  0  0  0
 17 30  1  0  0  0  0
 17 31  1  0  0  0  0
 18 19  1  0  0  0  0
 18 32  1  0  0  0  0
 18 33  1  0  0  0  0
 19 34  1  0  0  0  0
 19 35  1  0  0  0  0
M  CHG  1   6  -1
M  END
> <s_m_source_file>
AV-unprocessed.smi

> <i_m_source_file_index>
813

> <i_lp_mmshare_version>
43012

> <i_f3d_flags>
0

> <s_epik_input>
W0NIMl0xW0NIMl1bQ0gyXVtDSDJdW0NIXTFbTkhdQyg9TylbQ0BIXShbQ0gzXSlbTkhdQyg9TylbTkhdYzJubltjSF1zMg==

> <s_epik_cmdline>
J2VwaWtfcHl0aG9uJywgJy1waCcsICc3LjAnLCAnLXRuJywgJzgnLCAnLW1hJywgJzIwMCcsICctbWV0YWxfYmluZGluZycsICctaW1hZScsICc8aW5maWxlLm1hZT4nLCAnLW9tYWUnLCAnPG91dGZpbGUubWFlPic=

> <r_lp_tautomer_probability>
1

> <r_epik_Ionization_Penalty>
3.13682

> <r_epik_Ionization_Penalty_Charging>
3.09647

> <r_epik_Ionization_Penalty_Neutral>
0.0403479

> <r_epik_State_Penalty>
3.09328

> <r_epik_Charging_Adjusted_Penalty>
6.18976

> <i_epik_Tot_Q>
-1

> <i_epik_Tot_abs_Q>
1

> <r_epik_Metal_State_Penalty>
0.461392

> <b_epik_Metal_Only>
1

> <s_lp_Force_Field>
OPLS_2005

> <r_lp_Energy>
15.2454

> <b_lp_Chiralities_Consistent>
1

> <s_lp_Variant>
AV-unprocessed.smi:813-4

> <Gold.Version>
5.8.1

> <Gold.Id.Protein>
6NUR|6NUR_protein|mol2

> <Gold.PLP.Fitness>
40.7973

> <Gold.PLP.PLP>
-30.8887

> <Gold.PLP.part.hbond>
-3.0000

> <Gold.PLP.part.metal>
0.0000

> <Gold.PLP.part.buried>
0.0403

> <Gold.PLP.part.nonpolar>
-28.0345

> <Gold.PLP.part.repulsive>
0.2907

> <Gold.PLP.ligand.clash>
0.0000

> <Gold.PLP.ligand.torsion>
0.7769

> <Gold.PLP.Chemscore.Hbond>
3.7910

> <Gold.PLP.Chemscore.CHOScore>
0.0000

> <Gold.PLP.Chemscore.Metal>
0.0000

> <Gold.Chemscore.Hbonds>
donor molecule, donor type, donor heavy atom, donor atom, acceptor molecule, acceptor atom, score
      P1  H  6896  6909       L1     5  0.93
      P1  H  6931  6943       L1     6  0.82
      P1  H  6934  6947       L1     6  0.33

> <Gold.PLP.Chemscore.Internal.Correction>
0.0893

> <Gold.Rescore>
     Score         DG    S(hbond)    S(metal)    S(lipo)     H(rot)  DE(clash)    DE(int)     intcor
      8.83     -14.60       1.86        0.00      62.52       1.72       1.06       4.72       ----

> <Gold.Chemscore.Fitness>
8.8288

> <Gold.Chemscore.DG>
-14.6009

> <Gold.Chemscore.ZeroCoef>
-5.4800

> <Gold.Chemscore.Hbond>
1.8587

> <Gold.Chemscore.Metal>
0.0000

> <Gold.Chemscore.Lipo>
62.5174

> <Gold.Chemscore.Internal_Hbond>
0.0000

> <Gold.Chemscore.DEClash>
1.0554

> <Gold.Chemscore.DEInternal>
4.7167

> <Gold.Chemscore.Rot>
1.7194

> <Gold.Chemscore.Internal.Correction>
   9.000000E+99

> <Gold.Chemscore.Hbonds>
donor molecule, donor type, donor heavy atom, donor atom, acceptor molecule, acceptor atom, score
      P1  H  6896  6909       L1     5  0.69
      P1  H  6931  6943       L1     6  0.21
      P1  H  6934  6947       L1     6  0.14

> <Gold.Chemscore.Hbond.Weighted>
-6.2080

> <Gold.Chemscore.Metal.Weighted>
-0.0000

> <Gold.Chemscore.Lipo.Weighted>
-7.3145

> <Gold.Chemscore.Internal_Hbond.Weighted>
0.0000

> <Gold.Chemscore.DEClash.Weighted>
1.0554

> <Gold.Chemscore.DEInternal.Weighted>
4.7167

> <Gold.Chemscore.Rot.Weighted>
4.4016

> <Gold.Chemscore.Internal.Correction.Weighted>
   9.000000E+99

> <Gold.Protein.RotatedTorsions>
[ 6907 6896 6895 6894 ] final   67.91 input  -60.11 | X-H torsion
[ 7974 7965 7964 7962 ] final -116.96 input  175.53 | X-H torsion
[ 8008 7997 7996 7995 ] final   95.92 input   59.86 | X-H torsion
[ 10167 10162 10161 10158 ] final  -70.72 input  -65.29 | X-H torsion
[ 10718 10713 10712 10709 ] final  133.32 input   66.30 | X-H torsion
[ 10763 10752 10751 10750 ] final  166.00 input  -60.55 | X-H torsion
[ 11005 11000 10999 10996 ] final   72.33 input  -57.11 | X-H torsion

> <Gold.Protein.ActiveResidues>
 VAL166  LYS551  ARG553  GLY616  TRP617  ASP618  TYR619  PRO620  LYS621  CYS622 
 ASP623  PHE694  ASN695  SER759  ASP760  ASP761  ALA762  ILE779  LEU786  VAL792 
 PHE793  MET794  SER795  GLU796  ALA797  LYS798  CYS799  TRP800  GLU811  SER814 

> <Gold.Protein.RotatedAtoms>
  152.4585  134.5239  159.9790 H   0  0  0  0  0  0  0  0  0  0  0  0  # atno 6907 bound_to 6896
  151.5293  133.3446  159.2923 H   0  0  0  0  0  0  0  0  0  0  0  0  # atno 6908 bound_to 6896
  150.8538  134.7900  159.7092 H   0  0  0  0  0  0  0  0  0  0  0  0  # atno 6909 bound_to 6896
  145.0907  140.8488  143.3984 H   0  0  0  0  0  0  0  0  0  0  0  0  # atno 7974 bound_to 7965
  156.0740  140.3280  155.7611 H   0  0  0  0  0  0  0  0  0  0  0  0  # atno 8008 bound_to 7997
  155.5259  140.0589  157.2915 H   0  0  0  0  0  0  0  0  0  0  0  0  # atno 8009 bound_to 7997
  154.4545  140.1936  156.0436 H   0  0  0  0  0  0  0  0  0  0  0  0  # atno 8010 bound_to 7997
  140.5330  143.2320  151.7228 H   0  0  0  0  0  0  0  0  0  0  0  0  # atno 10167 bound_to 10162
  157.4784  131.1084  150.9713 H   0  0  0  0  0  0  0  0  0  0  0  0  # atno 10718 bound_to 10713
  154.3325  135.2754  155.2464 H   0  0  0  0  0  0  0  0  0  0  0  0  # atno 10763 bound_to 10752
  154.4770  135.5868  153.6365 H   0  0  0  0  0  0  0  0  0  0  0  0  # atno 10764 bound_to 10752
  152.9865  135.6102  154.3519 H   0  0  0  0  0  0  0  0  0  0  0  0  # atno 10765 bound_to 10752
  139.9496  134.7250  156.0894 H   0  0  0  0  0  0  0  0  0  0  0  0  # atno 11005 bound_to 11000
  145.1069  139.2783  143.5657 LP  0  0  0  0  0  0  0  0  0  0  0  0  # atno 17320 bound_to 7965
  146.3531  140.0654  142.8626 LP  0  0  0  0  0  0  0  0  0  0  0  0  # atno 17321 bound_to 7965
  139.4961  144.4086  152.0105 LP  0  0  0  0  0  0  0  0  0  0  0  0  # atno 17342 bound_to 10162
  140.3189  144.3451  150.6014 LP  0  0  0  0  0  0  0  0  0  0  0  0  # atno 17343 bound_to 10162
  157.0454  130.5766  149.5362 LP  0  0  0  0  0  0  0  0  0  0  0  0  # atno 17370 bound_to 10713
  156.0109  130.5200  150.7984 LP  0  0  0  0  0  0  0  0  0  0  0  0  # atno 17371 bound_to 10713
  141.1156  133.6629  156.3086 LP  0  0  0  0  0  0  0  0  0  0  0  0  # atno 17394 bound_to 11000
  140.5750  134.5803  157.5466 LP  0  0  0  0  0  0  0  0  0  0  0  0  # atno 17395 bound_to 11000

$$$$
