AV-unprocessed.smi:1103|AV-procd|sdf|4772|dock10
  -GOLD-   22720 3313D 1   1.00000     0.00000
 Structure written by MMmdl.
 44 45  0  0  0  0  0  0  0  0  2 V2000
  146.1162  137.1457  152.0561 C   0  0  0  0  0  0  0  0  0  0  0  0
  145.6965  136.1099  151.0037 C   0  0  0  0  0  0  0  0  0  0  0  0
  146.1909  134.7440  151.3137 N   0  3  2  0  0  0  0  0  0  0  0  0
  145.8057  133.7639  150.2648 C   0  0  0  0  0  0  0  0  0  0  0  0
  146.4190  132.3802  150.5333 C   0  0  0  0  0  0  0  0  0  0  0  0
  146.0519  131.8749  151.9362 C   0  0  0  0  0  0  0  0  0  0  0  0
  146.4274  132.9067  153.0164 C   0  0  1  0  0  0  0  0  0  0  0  0
  147.9545  132.9574  153.2599 C   0  0  0  0  0  0  0  0  0  0  0  0
  148.5374  131.6361  153.4725 N   0  0  0  0  0  0  0  0  0  0  0  0
  148.7157  131.0474  154.6653 C   0  0  0  0  0  0  0  0  0  0  0  0
  148.3643  131.5546  155.7304 O   0  0  0  0  0  0  0  0  0  0  0  0
  149.3948  129.6774  154.6586 C   0  0  0  0  0  0  0  0  0  0  0  0
  148.6015  128.7100  153.9231 N   0  0  0  0  0  0  0  0  0  0  0  0
  148.9334  127.4174  153.5749 C   0  0  0  0  0  0  0  0  0  0  0  0
  147.8806  126.8958  152.8779 C   0  0  0  0  0  0  0  0  0  0  0  0
  147.7400  125.5270  152.2768 C   0  0  0  0  0  0  0  0  0  0  0  0
  146.9386  127.9637  152.8540 C   0  0  0  0  0  0  0  0  0  0  0  0
  147.3721  129.0472  153.4779 N   0  0  0  0  0  0  0  0  0  0  0  0
  145.7937  134.2746  152.6692 C   0  0  0  0  0  0  0  0  0  0  0  0
  145.7777  138.1412  151.7687 H   0  0  0  0  0  0  0  0  0  0  0  0
  147.2010  137.1859  152.1557 H   0  0  0  0  0  0  0  0  0  0  0  0
  145.6939  136.9323  153.0376 H   0  0  0  0  0  0  0  0  0  0  0  0
  144.6119  136.0974  150.8865 H   0  0  0  0  0  0  0  0  0  0  0  0
  146.1048  136.4328  150.0450 H   0  0  0  0  0  0  0  0  0  0  0  0
  144.7179  133.6890  150.2200 H   0  0  0  0  0  0  0  0  0  0  0  0
  146.1392  134.1170  149.2882 H   0  0  0  0  0  0  0  0  0  0  0  0
  146.0707  131.6699  149.7827 H   0  0  0  0  0  0  0  0  0  0  0  0
  147.5026  132.4291  150.4227 H   0  0  0  0  0  0  0  0  0  0  0  0
  144.9782  131.6860  151.9767 H   0  0  0  0  0  0  0  0  0  0  0  0
  146.5360  130.9178  152.1333 H   0  0  0  0  0  0  0  0  0  0  0  0
  145.9760  132.5691  153.9507 H   0  0  0  0  0  0  0  0  0  0  0  0
  148.4459  133.3844  152.3851 H   0  0  0  0  0  0  0  0  0  0  0  0
  148.1974  133.6222  154.0898 H   0  0  0  0  0  0  0  0  0  0  0  0
  148.8626  131.1447  152.6518 H   0  0  0  0  0  0  0  0  0  0  0  0
  150.3754  129.7585  154.1878 H   0  0  0  0  0  0  0  0  0  0  0  0
  149.5565  129.3171  155.6762 H   0  0  0  0  0  0  0  0  0  0  0  0
  149.8838  126.9817  153.8466 H   0  0  0  0  0  0  0  0  0  0  0  0
  146.9873  125.5063  151.4883 H   0  0  0  0  0  0  0  0  0  0  0  0
  147.4447  124.7895  153.0231 H   0  0  0  0  0  0  0  0  0  0  0  0
  148.6754  125.1818  151.8356 H   0  0  0  0  0  0  0  0  0  0  0  0
  145.9579  127.9835  152.4017 H   0  0  0  0  0  0  0  0  0  0  0  0
  146.0558  135.0118  153.4260 H   0  0  0  0  0  0  0  0  0  0  0  0
  144.7064  134.1884  152.7037 H   0  0  0  0  0  0  0  0  0  0  0  0
  147.2000  134.7943  151.3014 H   0  0  0  0  0  0  0  0  0  0  0  0
  1  2  1  0  0  0  0
  1 20  1  0  0  0  0
  1 21  1  0  0  0  0
  1 22  1  0  0  0  0
  2  3  1  0  0  0  0
  2 23  1  0  0  0  0
  2 24  1  0  0  0  0
  3 19  1  0  0  0  0
  3  4  1  0  0  0  0
  3 44  1  0  0  0  0
  4  5  1  0  0  0  0
  4 25  1  0  0  0  0
  4 26  1  0  0  0  0
  5  6  1  0  0  0  0
  5 27  1  0  0  0  0
  5 28  1  0  0  0  0
  6  7  1  0  0  0  0
  6 29  1  0  0  0  0
  6 30  1  0  0  0  0
  7  8  1  0  0  0  0
  7 19  1  0  0  0  0
  7 31  1  0  0  0  0
  8  9  1  0  0  0  0
  8 32  1  0  0  0  0
  8 33  1  0  0  0  0
  9 10  1  0  0  0  0
  9 34  1  0  0  0  0
 10 11  2  0  0  0  0
 10 12  1  0  0  0  0
 12 13  1  0  0  0  0
 12 35  1  0  0  0  0
 12 36  1  0  0  0  0
 13 18  1  0  0  0  0
 13 14  1  0  0  0  0
 14 15  2  0  0  0  0
 14 37  1  0  0  0  0
 15 16  1  0  0  0  0
 15 17  1  0  0  0  0
 16 38  1  0  0  0  0
 16 39  1  0  0  0  0
 16 40  1  0  0  0  0
 17 18  2  0  0  0  0
 17 41  1  0  0  0  0
 19 42  1  0  0  0  0
 19 43  1  0  0  0  0
M  CHG  1   3   1
M  END
> <s_m_source_file>
AV-unprocessed.smi

> <i_m_source_file_index>
1103

> <i_lp_mmshare_version>
43012

> <i_f3d_flags>
0

> <s_epik_input>
W0NIM11bQ0gyXU4xW0NIMl1bQ0gyXVtDSDJdW0NASF0oW0NIMl0xKVtDSDJdW05IXUMoPU8pW0NIMl1uMltjSF1jKFtDSDNdKVtjSF1uMg==

> <s_epik_cmdline>
J2VwaWtfcHl0aG9uJywgJy1waCcsICc3LjAnLCAnLXRuJywgJzgnLCAnLW1hJywgJzIwMCcsICctbWV0YWxfYmluZGluZycsICctaW1hZScsICc8aW5maWxlLm1hZT4nLCAnLW9tYWUnLCAnPG91dGZpbGUubWFlPic=

> <r_lp_tautomer_probability>
1

> <r_epik_Ionization_Penalty>
0.000672456

> <r_epik_Ionization_Penalty_Charging>
0.000647327

> <r_epik_Ionization_Penalty_Neutral>
2.51297e-05

> <r_epik_State_Penalty>
0.000409793

> <r_epik_Charging_Adjusted_Penalty>
0.00105712

> <i_epik_Tot_Q>
1

> <i_epik_Tot_abs_Q>
1

> <r_epik_Metal_State_Penalty>
-0

> <b_epik_Metal_Only>
0

> <s_lp_Force_Field>
OPLS_2005

> <r_lp_Energy>
19.6745

> <b_lp_Chiralities_Consistent>
1

> <s_lp_Variant>
AV-unprocessed.smi:1103-2

> <Gold.Version>
5.8.1

> <Gold.Id.Protein>
6NUR|6NUR_protein|mol2

> <Gold.PLP.Fitness>
45.1415

> <Gold.PLP.PLP>
-33.6642

> <Gold.PLP.part.hbond>
-2.0000

> <Gold.PLP.part.metal>
0.0000

> <Gold.PLP.part.buried>
-2.7736

> <Gold.PLP.part.nonpolar>
-29.5770

> <Gold.PLP.part.repulsive>
0.1477

> <Gold.PLP.ligand.clash>
0.0000

> <Gold.PLP.ligand.torsion>
0.2786

> <Gold.PLP.Chemscore.Hbond>
3.0000

> <Gold.PLP.Chemscore.CHOScore>
0.9971

> <Gold.PLP.Chemscore.Metal>
0.0000

> <Gold.Chemscore.Hbonds>
donor molecule, donor type, donor heavy atom, donor atom, acceptor molecule, acceptor atom, score
      L1  H     3    44       P1  7948  0.66
      L1  H     9    34       P1 10747  0.16

> <Gold.PLP.Chemscore.Internal.Correction>
0.0432

> <Gold.Rescore>
     Score         DG    S(hbond)    S(metal)    S(lipo)     H(rot)  DE(clash)    DE(int)     intcor
     13.29     -16.16       1.48        0.00      85.92       1.68       0.82       2.05       ----

> <Gold.Chemscore.Fitness>
13.2947

> <Gold.Chemscore.DG>
-16.1636

> <Gold.Chemscore.ZeroCoef>
-5.4800

> <Gold.Chemscore.Hbond>
1.4784

> <Gold.Chemscore.Metal>
0.0000

> <Gold.Chemscore.Lipo>
85.9169

> <Gold.Chemscore.Internal_Hbond>
0.0000

> <Gold.Chemscore.DEClash>
0.8230

> <Gold.Chemscore.DEInternal>
2.0460

> <Gold.Chemscore.Rot>
1.6823

> <Gold.Chemscore.Internal.Correction>
   9.000000E+99

> <Gold.Chemscore.Hbonds>
donor molecule, donor type, donor heavy atom, donor atom, acceptor molecule, acceptor atom, score
      L1  H     3    44       P1  7948  0.16
      L1  H     9    34       P1 10747  0.11

> <Gold.Chemscore.Hbond.Weighted>
-4.9379

> <Gold.Chemscore.Metal.Weighted>
-0.0000

> <Gold.Chemscore.Lipo.Weighted>
-10.0523

> <Gold.Chemscore.Internal_Hbond.Weighted>
0.0000

> <Gold.Chemscore.DEClash.Weighted>
0.8230

> <Gold.Chemscore.DEInternal.Weighted>
2.0460

> <Gold.Chemscore.Rot.Weighted>
4.3066

> <Gold.Chemscore.Internal.Correction.Weighted>
   9.000000E+99

> <Gold.Protein.RotatedTorsions>
[ 6907 6896 6895 6894 ] final  166.62 input  -60.11 | X-H torsion
[ 7974 7965 7964 7962 ] final -114.37 input  175.53 | X-H torsion
[ 8008 7997 7996 7995 ] final  170.83 input   59.86 | X-H torsion
[ 10167 10162 10161 10158 ] final -108.88 input  -65.29 | X-H torsion
[ 10718 10713 10712 10709 ] final   69.56 input   66.30 | X-H torsion
[ 10763 10752 10751 10750 ] final -120.97 input  -60.55 | X-H torsion
[ 11005 11000 10999 10996 ] final    0.77 input  -57.11 | X-H torsion

> <Gold.Protein.ActiveResidues>
 VAL166  LYS551  ARG553  GLY616  TRP617  ASP618  TYR619  PRO620  LYS621  CYS622 
 ASP623  PHE694  ASN695  SER759  ASP760  ASP761  ALA762  ILE779  LEU786  VAL792 
 PHE793  MET794  SER795  GLU796  ALA797  LYS798  CYS799  TRP800  GLU811  SER814 

> <Gold.Protein.RotatedAtoms>
  151.8760  133.3485  159.3750 H   0  0  0  0  0  0  0  0  0  0  0  0  # atno 6907 bound_to 6896
  150.7140  134.5065  159.5596 H   0  0  0  0  0  0  0  0  0  0  0  0  # atno 6908 bound_to 6896
  152.2608  134.8037  160.0482 H   0  0  0  0  0  0  0  0  0  0  0  0  # atno 6909 bound_to 6896
  145.1209  140.8668  143.3814 H   0  0  0  0  0  0  0  0  0  0  0  0  # atno 7974 bound_to 7965
  156.1329  140.1528  156.9039 H   0  0  0  0  0  0  0  0  0  0  0  0  # atno 8008 bound_to 7997
  154.4923  140.0848  156.7661 H   0  0  0  0  0  0  0  0  0  0  0  0  # atno 8009 bound_to 7997
  155.4223  140.3423  155.4275 H   0  0  0  0  0  0  0  0  0  0  0  0  # atno 8010 bound_to 7997
  140.1613  143.4118  152.1423 H   0  0  0  0  0  0  0  0  0  0  0  0  # atno 10167 bound_to 10162
  157.6352  130.9432  150.0531 H   0  0  0  0  0  0  0  0  0  0  0  0  # atno 10718 bound_to 10713
  154.8657  135.4184  154.2545 H   0  0  0  0  0  0  0  0  0  0  0  0  # atno 10763 bound_to 10752
  153.3485  135.6997  153.6814 H   0  0  0  0  0  0  0  0  0  0  0  0  # atno 10764 bound_to 10752
  153.5764  135.3581  155.2830 H   0  0  0  0  0  0  0  0  0  0  0  0  # atno 10765 bound_to 10752
  140.6228  133.9645  155.8234 H   0  0  0  0  0  0  0  0  0  0  0  0  # atno 11005 bound_to 11000
  145.0741  139.3009  143.5817 LP  0  0  0  0  0  0  0  0  0  0  0  0  # atno 17320 bound_to 7965
  146.3521  140.0225  142.8657 LP  0  0  0  0  0  0  0  0  0  0  0  0  # atno 17321 bound_to 7965
  139.5380  144.7228  151.4829 LP  0  0  0  0  0  0  0  0  0  0  0  0  # atno 17342 bound_to 10162
  140.6641  143.8436  150.6921 LP  0  0  0  0  0  0  0  0  0  0  0  0  # atno 17343 bound_to 10162
  156.1586  130.3643  149.9332 LP  0  0  0  0  0  0  0  0  0  0  0  0  # atno 17370 bound_to 10713
  156.7335  130.9052  151.3627 LP  0  0  0  0  0  0  0  0  0  0  0  0  # atno 17371 bound_to 10713
  141.0730  134.0177  157.3498 LP  0  0  0  0  0  0  0  0  0  0  0  0  # atno 17394 bound_to 11000
  139.9146  135.0195  156.7831 LP  0  0  0  0  0  0  0  0  0  0  0  0  # atno 17395 bound_to 11000

$$$$
