AV-unprocessed.smi:2807|AV-procd|sdf|10817|dock4
  -GOLD-   2272015253D 1   1.00000     0.00000
 Structure written by MMmdl.
 32 33  0  0  0  0  0  0  0  0  1 V2000
  151.6532  140.0436  155.2595 O   0  0  0  0  0  0  0  0  0  0  0  0
  150.8489  140.4450  156.1014 C   0  0  0  0  0  0  0  0  0  0  0  0
  149.6335  140.9222  155.7861 N   0  0  0  0  0  0  0  0  0  0  0  0
  149.1236  141.1130  154.4285 C   0  0  1  0  0  0  0  0  0  0  0  0
  148.6680  139.7654  153.8407 C   0  0  0  0  0  0  0  0  0  0  0  0
  147.1409  139.8025  153.8474 C   0  0  0  0  0  0  0  0  0  0  0  0
  146.8073  141.2703  153.5982 C   0  0  0  0  0  0  0  0  0  0  0  0
  147.8877  142.0537  154.3548 C   0  0  1  0  0  0  0  0  0  0  0  0
  147.3788  142.4176  155.6273 O   0  0  0  0  0  0  0  0  0  0  0  0
  151.2191  140.4557  157.5916 C   0  0  0  0  0  0  0  0  0  0  0  0
  150.2187  139.9026  158.2810 F   0  0  0  0  0  0  0  0  0  0  0  0
  152.3114  139.7118  157.7837 F   0  0  0  0  0  0  0  0  0  0  0  0
  151.4750  141.8877  158.0562 C   0  0  0  0  0  0  0  0  0  0  0  0
  151.9957  142.1563  159.3431 C   0  0  0  0  0  0  0  0  0  0  0  0
  152.1793  143.4976  159.7308 C   0  0  0  0  0  0  0  0  0  0  0  0
  151.8388  144.5192  158.8243 C   0  0  0  0  0  0  0  0  0  0  0  0
  151.3267  144.1527  157.5647 C   0  0  0  0  0  0  0  0  0  0  0  0
  151.1446  142.8703  157.1842 N   0  0  0  0  0  0  0  0  0  0  0  0
  149.0389  141.2339  156.5404 H   0  0  0  0  0  0  0  0  0  0  0  0
  149.9219  141.5046  153.7954 H   0  0  0  0  0  0  0  0  0  0  0  0
  149.0172  139.6874  152.8102 H   0  0  0  0  0  0  0  0  0  0  0  0
  149.0621  138.9009  154.3770 H   0  0  0  0  0  0  0  0  0  0  0  0
  146.7011  139.1385  153.1027 H   0  0  0  0  0  0  0  0  0  0  0  0
  146.7681  139.5009  154.8274 H   0  0  0  0  0  0  0  0  0  0  0  0
  146.8928  141.4776  152.5308 H   0  0  0  0  0  0  0  0  0  0  0  0
  145.7909  141.5300  153.8975 H   0  0  0  0  0  0  0  0  0  0  0  0
  148.1334  142.9742  153.8246 H   0  0  0  0  0  0  0  0  0  0  0  0
  147.6160  143.3164  155.7979 H   0  0  0  0  0  0  0  0  0  0  0  0
  152.2410  141.3568  160.0261 H   0  0  0  0  0  0  0  0  0  0  0  0
  152.5714  143.7383  160.7079 H   0  0  0  0  0  0  0  0  0  0  0  0
  151.9654  145.5587  159.0880 H   0  0  0  0  0  0  0  0  0  0  0  0
  151.0532  144.9097  156.8447 H   0  0  0  0  0  0  0  0  0  0  0  0
  1  2  2  0  0  0  0
  2  3  1  0  0  0  0
  2 10  1  0  0  0  0
  3  4  1  0  0  0  0
  3 19  1  0  0  0  0
  4  8  1  0  0  0  0
  4  5  1  0  0  0  0
  4 20  1  0  0  0  0
  5  6  1  0  0  0  0
  5 21  1  0  0  0  0
  5 22  1  0  0  0  0
  6  7  1  0  0  0  0
  6 23  1  0  0  0  0
  6 24  1  0  0  0  0
  7  8  1  0  0  0  0
  7 25  1  0  0  0  0
  7 26  1  0  0  0  0
  8  9  1  0  0  0  0
  8 27  1  0  0  0  0
  9 28  1  0  0  0  0
 10 11  1  0  0  0  0
 10 12  1  0  0  0  0
 10 13  1  0  0  0  0
 13 18  1  0  0  0  0
 13 14  2  0  0  0  0
 14 15  1  0  0  0  0
 14 29  1  0  0  0  0
 15 16  2  0  0  0  0
 15 30  1  0  0  0  0
 16 17  1  0  0  0  0
 16 31  1  0  0  0  0
 17 18  2  0  0  0  0
 17 32  1  0  0  0  0
M  END
> <s_m_source_file>
AV-unprocessed.smi

> <i_m_source_file_index>
2807

> <i_lp_mmshare_version>
43012

> <i_f3d_flags>
0

> <s_epik_input>
bjFbY0hdW2NIXVtjSF1bY0hdYzFDKEYpKEYpQyg9TylbTkhdW0NAQEhdMltDSDJdW0NIMl1bQ0gyXVtDQEhdMltPSF0=

> <s_epik_cmdline>
J2VwaWtfcHl0aG9uJywgJy1waCcsICc3LjAnLCAnLXRuJywgJzgnLCAnLW1hJywgJzIwMCcsICctbWV0YWxfYmluZGluZycsICctaW1hZScsICc8aW5maWxlLm1hZT4nLCAnLW9tYWUnLCAnPG91dGZpbGUubWFlPic=

> <r_lp_tautomer_probability>
1

> <r_epik_Ionization_Penalty>
4.08325e-05

> <r_epik_Ionization_Penalty_Charging>
0

> <r_epik_Ionization_Penalty_Neutral>
4.08325e-05

> <r_epik_State_Penalty>
-0

> <r_epik_Charging_Adjusted_Penalty>
0

> <i_epik_Tot_Q>
0

> <i_epik_Tot_abs_Q>
0

> <r_epik_Metal_State_Penalty>
0.034564

> <b_epik_Metal_Only>
0

> <s_lp_Force_Field>
OPLS_2005

> <r_lp_Energy>
28.4248

> <b_lp_Chiralities_Consistent>
1

> <s_lp_Variant>
AV-unprocessed.smi:2807-2

> <Gold.Version>
5.8.1

> <Gold.Id.Protein>
6NUR|6NUR_protein|mol2

> <Gold.PLP.Fitness>
43.4179

> <Gold.PLP.PLP>
-36.8652

> <Gold.PLP.part.hbond>
-2.0000

> <Gold.PLP.part.metal>
0.0000

> <Gold.PLP.part.buried>
0.5610

> <Gold.PLP.part.nonpolar>
-35.4373

> <Gold.PLP.part.repulsive>
0.2199

> <Gold.PLP.ligand.clash>
0.0000

> <Gold.PLP.ligand.torsion>
0.8909

> <Gold.PLP.Chemscore.Hbond>
1.9600

> <Gold.PLP.Chemscore.CHOScore>
0.8126

> <Gold.PLP.Chemscore.Metal>
0.0000

> <Gold.Chemscore.Hbonds>
donor molecule, donor type, donor heavy atom, donor atom, acceptor molecule, acceptor atom, score
      L1  H     9    28       P1  8028  0.75
      P1  H  7989  7998       L1     1  0.98
      L1  C    17    32       P1  8028  0.81

> <Gold.PLP.Chemscore.Internal.Correction>
0.0167

> <Gold.Rescore>
     Score         DG    S(hbond)    S(metal)    S(lipo)     H(rot)  DE(clash)    DE(int)     intcor
     13.58     -15.85       1.44        0.00      92.37       2.05       0.18       2.09       ----

> <Gold.Chemscore.Fitness>
13.5792

> <Gold.Chemscore.DG>
-15.8488

> <Gold.Chemscore.ZeroCoef>
-5.4800

> <Gold.Chemscore.Hbond>
1.4366

> <Gold.Chemscore.Metal>
0.0000

> <Gold.Chemscore.Lipo>
92.3745

> <Gold.Chemscore.Internal_Hbond>
0.0000

> <Gold.Chemscore.DEClash>
0.1828

> <Gold.Chemscore.DEInternal>
2.0868

> <Gold.Chemscore.Rot>
2.0457

> <Gold.Chemscore.Internal.Correction>
   9.000000E+99

> <Gold.Chemscore.Hbonds>
donor molecule, donor type, donor heavy atom, donor atom, acceptor molecule, acceptor atom, score
      L1  H     9    28       P1  8028  0.09
      P1  H  7989  7998       L1     1  0.90

> <Gold.Chemscore.Hbond.Weighted>
-4.7981

> <Gold.Chemscore.Metal.Weighted>
-0.0000

> <Gold.Chemscore.Lipo.Weighted>
-10.8078

> <Gold.Chemscore.Internal_Hbond.Weighted>
0.0000

> <Gold.Chemscore.DEClash.Weighted>
0.1828

> <Gold.Chemscore.DEInternal.Weighted>
2.0868

> <Gold.Chemscore.Rot.Weighted>
5.2371

> <Gold.Chemscore.Internal.Correction.Weighted>
   9.000000E+99

> <Gold.Protein.RotatedTorsions>
[ 6907 6896 6895 6894 ] final -177.68 input  -60.11 | X-H torsion
[ 7974 7965 7964 7962 ] final  103.64 input  175.53 | X-H torsion
[ 8008 7997 7996 7995 ] final -148.87 input   59.86 | X-H torsion
[ 10167 10162 10161 10158 ] final  -64.82 input  -65.29 | X-H torsion
[ 10718 10713 10712 10709 ] final -169.11 input   66.30 | X-H torsion
[ 10763 10752 10751 10750 ] final -108.34 input  -60.55 | X-H torsion
[ 11005 11000 10999 10996 ] final -162.11 input  -57.11 | X-H torsion

> <Gold.Protein.ActiveResidues>
 VAL166  LYS551  ARG553  GLY616  TRP617  ASP618  TYR619  PRO620  LYS621  CYS622 
 ASP623  PHE694  ASN695  SER759  ASP760  ASP761  ALA762  ILE779  LEU786  VAL792 
 PHE793  MET794  SER795  GLU796  ALA797  LYS798  CYS799  TRP800  GLU811  SER814 

> <Gold.Protein.RotatedAtoms>
  151.6249  133.3336  159.3095 H   0  0  0  0  0  0  0  0  0  0  0  0  # atno 6907 bound_to 6896
  150.8087  134.7232  159.6679 H   0  0  0  0  0  0  0  0  0  0  0  0  # atno 6908 bound_to 6896
  152.4183  134.6006  160.0050 H   0  0  0  0  0  0  0  0  0  0  0  0  # atno 6909 bound_to 6896
  145.3433  139.2457  143.3598 H   0  0  0  0  0  0  0  0  0  0  0  0  # atno 7974 bound_to 7965
  155.5985  140.0659  157.2739 H   0  0  0  0  0  0  0  0  0  0  0  0  # atno 8008 bound_to 7997
  154.4285  140.1822  156.1195 H   0  0  0  0  0  0  0  0  0  0  0  0  # atno 8009 bound_to 7997
  156.0178  140.3320  155.7010 H   0  0  0  0  0  0  0  0  0  0  0  0  # atno 8010 bound_to 7997
  140.5773  143.2323  151.6415 H   0  0  0  0  0  0  0  0  0  0  0  0  # atno 10167 bound_to 10162
  156.7068  130.9218  151.3085 H   0  0  0  0  0  0  0  0  0  0  0  0  # atno 10718 bound_to 10713
  154.8129  135.4641  154.0566 H   0  0  0  0  0  0  0  0  0  0  0  0  # atno 10763 bound_to 10752
  153.1982  135.6865  153.8272 H   0  0  0  0  0  0  0  0  0  0  0  0  # atno 10764 bound_to 10752
  153.7766  135.3262  155.3337 H   0  0  0  0  0  0  0  0  0  0  0  0  # atno 10765 bound_to 10752
  140.6129  134.4830  157.5217 H   0  0  0  0  0  0  0  0  0  0  0  0  # atno 11005 bound_to 11000
  146.2998  140.4034  142.8708 LP  0  0  0  0  0  0  0  0  0  0  0  0  # atno 17320 bound_to 7965
  144.8774  140.7354  143.6008 LP  0  0  0  0  0  0  0  0  0  0  0  0  # atno 17321 bound_to 7965
  139.5150  144.3393  152.0755 LP  0  0  0  0  0  0  0  0  0  0  0  0  # atno 17342 bound_to 10162
  140.2538  144.4141  150.6211 LP  0  0  0  0  0  0  0  0  0  0  0  0  # atno 17343 bound_to 10162
  157.6952  130.9274  150.0624 LP  0  0  0  0  0  0  0  0  0  0  0  0  # atno 17370 bound_to 10713
  156.1689  130.3646  149.9192 LP  0  0  0  0  0  0  0  0  0  0  0  0  # atno 17371 bound_to 10713
  139.9185  134.8197  156.1288 LP  0  0  0  0  0  0  0  0  0  0  0  0  # atno 17394 bound_to 11000
  141.0796  133.6760  156.2307 LP  0  0  0  0  0  0  0  0  0  0  0  0  # atno 17395 bound_to 11000

$$$$
