AV-unprocessed.smi:76|AV-procd|sdf|767|dock8
  -GOLD-   2262017113D 1   1.00000     0.00000
 Structure written by MMmdl.
 55 58  0  0  0  0  0  0  0  0  1 V2000
  151.4272  139.7144  158.9880 C   0  0  0  0  0  0  0  0  0  0  0  0
  151.7425  140.6636  157.8146 C   0  0  2  0  0  0  0  0  0  0  0  0
  152.3177  142.0153  158.2881 C   0  0  0  0  0  0  0  0  0  0  0  0
  151.2458  142.9305  158.9198 C   0  0  1  0  0  0  0  0  0  0  0  0
  151.8272  144.2873  159.3658 C   0  0  0  0  0  0  0  0  0  0  0  0
  152.4644  144.8867  158.3597 F   0  0  0  0  0  0  0  0  0  0  0  0
  150.8474  145.0848  159.7909 F   0  0  0  0  0  0  0  0  0  0  0  0
  152.6831  144.1069  160.3717 F   0  0  0  0  0  0  0  0  0  0  0  0
  150.0760  143.0973  157.9298 C   0  0  0  0  0  0  0  0  0  0  0  0
  149.5164  141.7371  157.4857 C   0  0  0  0  0  0  0  0  0  0  0  0
  150.5796  140.8857  156.9470 N   0  0  0  0  0  0  0  0  0  0  0  0
  150.2081  139.8343  156.1708 C   0  0  0  0  0  0  0  0  0  0  0  0
  150.5775  139.8005  154.8622 N   0  0  0  0  0  0  0  0  0  0  0  0
  150.2137  138.7787  154.0828 C   0  0  0  0  0  0  0  0  0  0  0  0
  149.4930  137.7029  154.4022 N   0  0  0  0  0  0  0  0  0  0  0  0
  149.1191  137.7276  155.7131 C   0  0  0  0  0  0  0  0  0  0  0  0
  149.4342  138.7435  156.6597 C   0  0  0  0  0  0  0  0  0  0  0  0
  148.9047  138.4099  157.9007 N   0  0  0  0  0  0  0  0  0  0  0  0
  148.3074  137.2679  157.6974 C   0  0  0  0  0  0  0  0  0  0  0  0
  148.3700  136.7921  156.4067 N   0  0  0  0  0  0  0  0  0  0  0  0
  147.8044  135.5472  155.9056 C   0  0  0  0  0  0  0  0  0  0  0  0
  148.5327  134.2493  156.3801 C   0  0  0  0  0  0  0  0  0  0  0  0
  148.5160  134.1375  157.9277 C   0  0  0  0  0  0  0  0  0  0  0  0
  149.2910  133.0524  158.3964 O   0  0  0  0  0  0  0  0  0  0  0  0
  147.8480  133.0021  155.7671 C   0  0  0  0  0  0  0  0  0  0  0  0
  148.1005  132.8647  154.2538 C   0  0  0  0  0  0  0  0  0  0  0  0
  149.4978  132.8431  153.9904 O   0  0  0  0  0  0  0  0  0  0  0  0
  150.1591  134.0332  154.4007 C   0  0  0  0  0  0  0  0  0  0  0  0
  150.0129  134.2115  155.9223 C   0  0  0  0  0  0  0  0  0  0  0  0
  152.3095  139.5588  159.6091 H   0  0  0  0  0  0  0  0  0  0  0  0
  151.1088  138.7356  158.6285 H   0  0  0  0  0  0  0  0  0  0  0  0
  150.6369  140.1007  159.6313 H   0  0  0  0  0  0  0  0  0  0  0  0
  152.5293  140.1867  157.2322 H   0  0  0  0  0  0  0  0  0  0  0  0
  153.1337  141.8446  158.9908 H   0  0  0  0  0  0  0  0  0  0  0  0
  152.7610  142.5247  157.4315 H   0  0  0  0  0  0  0  0  0  0  0  0
  150.8602  142.4370  159.8127 H   0  0  0  0  0  0  0  0  0  0  0  0
  149.2788  143.6879  158.3815 H   0  0  0  0  0  0  0  0  0  0  0  0
  150.4114  143.6519  157.0527 H   0  0  0  0  0  0  0  0  0  0  0  0
  149.0341  141.2362  158.3259 H   0  0  0  0  0  0  0  0  0  0  0  0
  148.7485  141.9001  156.7279 H   0  0  0  0  0  0  0  0  0  0  0  0
  150.5478  138.8307  153.0570 H   0  0  0  0  0  0  0  0  0  0  0  0
  147.7999  136.7383  158.4904 H   0  0  0  0  0  0  0  0  0  0  0  0
  146.7553  135.5136  156.2013 H   0  0  0  0  0  0  0  0  0  0  0  0
  147.7886  135.6154  154.8190 H   0  0  0  0  0  0  0  0  0  0  0  0
  148.9139  135.0462  158.3807 H   0  0  0  0  0  0  0  0  0  0  0  0
  147.4987  134.0302  158.3046 H   0  0  0  0  0  0  0  0  0  0  0  0
  149.3884  132.4287  157.6922 H   0  0  0  0  0  0  0  0  0  0  0  0
  148.2237  132.1024  156.2567 H   0  0  0  0  0  0  0  0  0  0  0  0
  146.7744  133.0211  155.9578 H   0  0  0  0  0  0  0  0  0  0  0  0
  147.6651  131.9337  153.8907 H   0  0  0  0  0  0  0  0  0  0  0  0
  147.6234  133.6676  153.6914 H   0  0  0  0  0  0  0  0  0  0  0  0
  151.2138  133.9504  154.1377 H   0  0  0  0  0  0  0  0  0  0  0  0
  149.7689  134.8920  153.8541 H   0  0  0  0  0  0  0  0  0  0  0  0
  150.5531  135.0976  156.2528 H   0  0  0  0  0  0  0  0  0  0  0  0
  150.5174  133.3715  156.4022 H   0  0  0  0  0  0  0  0  0  0  0  0
  1  2  1  0  0  0  0
  1 30  1  0  0  0  0
  1 31  1  0  0  0  0
  1 32  1  0  0  0  0
  2 11  1  0  0  0  0
  2  3  1  0  0  0  0
  2 33  1  0  0  0  0
  3  4  1  0  0  0  0
  3 34  1  0  0  0  0
  3 35  1  0  0  0  0
  4  5  1  0  0  0  0
  4  9  1  0  0  0  0
  4 36  1  0  0  0  0
  5  6  1  0  0  0  0
  5  7  1  0  0  0  0
  5  8  1  0  0  0  0
  9 10  1  0  0  0  0
  9 37  1  0  0  0  0
  9 38  1  0  0  0  0
 10 11  1  0  0  0  0
 10 39  1  0  0  0  0
 10 40  1  0  0  0  0
 11 12  1  0  0  0  0
 12 17  1  0  0  0  0
 12 13  2  0  0  0  0
 13 14  1  0  0  0  0
 14 15  2  0  0  0  0
 14 41  1  0  0  0  0
 15 16  1  0  0  0  0
 16 20  1  0  0  0  0
 16 17  2  0  0  0  0
 17 18  1  0  0  0  0
 18 19  2  0  0  0  0
 19 20  1  0  0  0  0
 19 42  1  0  0  0  0
 20 21  1  0  0  0  0
 21 22  1  0  0  0  0
 21 43  1  0  0  0  0
 21 44  1  0  0  0  0
 22 29  1  0  0  0  0
 22 23  1  0  0  0  0
 22 25  1  0  0  0  0
 23 24  1  0  0  0  0
 23 45  1  0  0  0  0
 23 46  1  0  0  0  0
 24 47  1  0  0  0  0
 25 26  1  0  0  0  0
 25 48  1  0  0  0  0
 25 49  1  0  0  0  0
 26 27  1  0  0  0  0
 26 50  1  0  0  0  0
 26 51  1  0  0  0  0
 27 28  1  0  0  0  0
 28 29  1  0  0  0  0
 28 52  1  0  0  0  0
 28 53  1  0  0  0  0
 29 54  1  0  0  0  0
 29 55  1  0  0  0  0
M  END
> <s_m_source_file>
AV-unprocessed.smi

> <i_m_source_file_index>
76

> <i_lp_mmshare_version>
43012

> <i_f3d_flags>
0

> <s_epik_input>
W0NIM11bQ0BASF0xW0NIMl1bQ0BASF0oQyhGKShGKUYpW0NIMl1bQ0gyXU4xYyhuW2NIXW4yKWMoYzIzKW5bY0hdbjNbQ0gyXUM0KFtDSDJdW09IXSlbQ0gyXVtDSDJdT1tDSDJdW0NIMl00

> <s_epik_cmdline>
J2VwaWtfcHl0aG9uJywgJy1waCcsICc3LjAnLCAnLXRuJywgJzgnLCAnLW1hJywgJzIwMCcsICctbWV0YWxfYmluZGluZycsICctaW1hZScsICc8aW5maWxlLm1hZT4nLCAnLW9tYWUnLCAnPG91dGZpbGUubWFlPic=

> <r_lp_tautomer_probability>
1

> <r_epik_Ionization_Penalty>
0.00244097

> <r_epik_Ionization_Penalty_Charging>
0

> <r_epik_Ionization_Penalty_Neutral>
0.00244097

> <r_epik_State_Penalty>
0.00151846

> <r_epik_Charging_Adjusted_Penalty>
0.00151846

> <i_epik_Tot_Q>
0

> <i_epik_Tot_abs_Q>
0

> <r_epik_Metal_State_Penalty>
-0

> <b_epik_Metal_Only>
0

> <s_lp_Force_Field>
OPLS_2005

> <r_lp_Energy>
36.8654

> <b_lp_Chiralities_Consistent>
1

> <s_lp_Variant>
AV-unprocessed.smi:76-1

> <Gold.Version>
5.8.1

> <Gold.Id.Protein>
6NUR|6NUR_protein|mol2

> <Gold.PLP.Fitness>
42.7062

> <Gold.PLP.PLP>
-34.4558

> <Gold.PLP.part.hbond>
-2.0000

> <Gold.PLP.part.metal>
0.0000

> <Gold.PLP.part.buried>
-6.4467

> <Gold.PLP.part.nonpolar>
-27.0205

> <Gold.PLP.part.repulsive>
1.5028

> <Gold.PLP.ligand.clash>
0.0000

> <Gold.PLP.ligand.torsion>
0.5795

> <Gold.PLP.Chemscore.Hbond>
1.9500

> <Gold.PLP.Chemscore.CHOScore>
1.0000

> <Gold.PLP.Chemscore.Metal>
0.0000

> <Gold.Chemscore.Hbonds>
donor molecule, donor type, donor heavy atom, donor atom, acceptor molecule, acceptor atom, score
      P1  H  6896  6907       L1    24  1.00
      P1  H  7989  7998       L1    13  0.95
      L1  C    14    41       P1  7957  1.00

> <Gold.PLP.Chemscore.Internal.Correction>
0.5593

> <Gold.Rescore>
     Score         DG    S(hbond)    S(metal)    S(lipo)     H(rot)  DE(clash)    DE(int)     intcor
      9.30     -10.89       0.84        0.00      76.27       2.47       0.31       1.28       ----

> <Gold.Chemscore.Fitness>
9.2973

> <Gold.Chemscore.DG>
-10.8866

> <Gold.Chemscore.ZeroCoef>
-5.4800

> <Gold.Chemscore.Hbond>
0.8373

> <Gold.Chemscore.Metal>
0.0000

> <Gold.Chemscore.Lipo>
76.2743

> <Gold.Chemscore.Internal_Hbond>
0.0000

> <Gold.Chemscore.DEClash>
0.3095

> <Gold.Chemscore.DEInternal>
1.2798

> <Gold.Chemscore.Rot>
2.4665

> <Gold.Chemscore.Internal.Correction>
   9.000000E+99

> <Gold.Chemscore.Hbonds>
donor molecule, donor type, donor heavy atom, donor atom, acceptor molecule, acceptor atom, score
      P1  H  6896  6907       L1    24  0.45
      P1  H  7989  7998       L1    13  0.20

> <Gold.Chemscore.Hbond.Weighted>
-2.7967

> <Gold.Chemscore.Metal.Weighted>
-0.0000

> <Gold.Chemscore.Lipo.Weighted>
-8.9241

> <Gold.Chemscore.Internal_Hbond.Weighted>
0.0000

> <Gold.Chemscore.DEClash.Weighted>
0.3095

> <Gold.Chemscore.DEInternal.Weighted>
1.2798

> <Gold.Chemscore.Rot.Weighted>
6.3142

> <Gold.Chemscore.Internal.Correction.Weighted>
   9.000000E+99

> <Gold.Protein.RotatedTorsions>
[ 6907 6896 6895 6894 ] final -112.83 input  -60.11 | X-H torsion
[ 7974 7965 7964 7962 ] final  104.25 input  175.53 | X-H torsion
[ 8008 7997 7996 7995 ] final  -96.75 input   59.86 | X-H torsion
[ 10167 10162 10161 10158 ] final  137.62 input  -65.29 | X-H torsion
[ 10718 10713 10712 10709 ] final -118.12 input   66.30 | X-H torsion
[ 10763 10752 10751 10750 ] final  -77.39 input  -60.55 | X-H torsion
[ 11005 11000 10999 10996 ] final   71.94 input  -57.11 | X-H torsion

> <Gold.Protein.ActiveResidues>
 VAL166  LYS551  ARG553  GLY616  TRP617  ASP618  TYR619  PRO620  LYS621  CYS622 
 ASP623  PHE694  ASN695  SER759  ASP760  ASP761  ALA762  ILE779  LEU786  VAL792 
 PHE793  MET794  SER795  GLU796  ALA797  LYS798  CYS799  TRP800  GLU811  SER814 

> <Gold.Protein.RotatedAtoms>
  150.7786  133.9033  159.3347 H   0  0  0  0  0  0  0  0  0  0  0  0  # atno 6907 bound_to 6896
  151.6901  135.0946  160.0241 H   0  0  0  0  0  0  0  0  0  0  0  0  # atno 6908 bound_to 6896
  152.3830  133.6533  159.6212 H   0  0  0  0  0  0  0  0  0  0  0  0  # atno 6909 bound_to 6896
  145.3352  139.2476  143.3639 H   0  0  0  0  0  0  0  0  0  0  0  0  # atno 7974 bound_to 7965
  154.7786  140.0469  157.1109 H   0  0  0  0  0  0  0  0  0  0  0  0  # atno 8008 bound_to 7997
  154.9733  140.3092  155.4959 H   0  0  0  0  0  0  0  0  0  0  0  0  # atno 8009 bound_to 7997
  156.2933  140.2249  156.4827 H   0  0  0  0  0  0  0  0  0  0  0  0  # atno 8010 bound_to 7997
  139.5138  144.6400  151.5595 H   0  0  0  0  0  0  0  0  0  0  0  0  # atno 10167 bound_to 10162
  156.1083  130.6228  150.9250 H   0  0  0  0  0  0  0  0  0  0  0  0  # atno 10718 bound_to 10713
  154.5124  135.5765  153.6615 H   0  0  0  0  0  0  0  0  0  0  0  0  # atno 10763 bound_to 10752
  152.9900  135.6162  154.2862 H   0  0  0  0  0  0  0  0  0  0  0  0  # atno 10764 bound_to 10752
  154.2777  135.2851  155.2690 H   0  0  0  0  0  0  0  0  0  0  0  0  # atno 10765 bound_to 10752
  139.9517  134.7216  156.0847 H   0  0  0  0  0  0  0  0  0  0  0  0  # atno 11005 bound_to 11000
  146.3029  140.3938  142.8697 LP  0  0  0  0  0  0  0  0  0  0  0  0  # atno 17320 bound_to 7965
  144.8833  140.7429  143.5973 LP  0  0  0  0  0  0  0  0  0  0  0  0  # atno 17321 bound_to 7965
  140.6163  143.9343  150.6491 LP  0  0  0  0  0  0  0  0  0  0  0  0  # atno 17342 bound_to 10162
  140.2602  143.3530  152.1330 LP  0  0  0  0  0  0  0  0  0  0  0  0  # atno 17343 bound_to 10162
  157.6262  131.0925  150.8529 LP  0  0  0  0  0  0  0  0  0  0  0  0  # atno 17370 bound_to 10713
  156.8645  130.5124  149.5301 LP  0  0  0  0  0  0  0  0  0  0  0  0  # atno 17371 bound_to 10713
  141.1181  133.6621  156.3144 LP  0  0  0  0  0  0  0  0  0  0  0  0  # atno 17394 bound_to 11000
  140.5704  134.5846  157.5456 LP  0  0  0  0  0  0  0  0  0  0  0  0  # atno 17395 bound_to 11000

$$$$
