AV-unprocessed.smi:1796|AV-procd|sdf|7253|dock8
  -GOLD-   22720 8503D 1   1.00000     0.00000
 Structure written by MMmdl.
 42 43  0  0  0  0  0  0  0  0  1 V2000
  147.3800  140.1790  153.8639 C   0  0  0  0  0  0  0  0  0  0  0  0
  148.7789  140.6083  154.3121 C   0  0  0  0  0  0  0  0  0  0  0  0
  149.2071  141.6911  153.9126 O   0  0  0  0  0  0  0  0  0  0  0  0
  149.4961  139.7898  155.1192 N   0  0  0  0  0  0  0  0  0  0  0  0
  150.8785  140.0808  155.5180 C   0  0  0  0  0  0  0  0  0  0  0  0
  151.8176  139.0968  154.7973 C   0  0  0  0  0  0  0  0  0  0  0  0
  151.4181  137.6372  155.0867 C   0  0  0  0  0  0  0  0  0  0  0  0
  149.9117  137.3924  154.8322 C   0  0  1  0  0  0  0  0  0  0  0  0
  149.5080  135.9769  155.2613 C   0  0  0  0  0  0  0  0  0  0  0  0
  149.7488  135.5844  156.4032 O   0  0  0  0  0  0  0  0  0  0  0  0
  148.9083  135.2182  154.3296 N   0  0  0  0  0  0  0  0  0  0  0  0
  148.4899  133.8273  154.5012 C   0  0  1  0  0  0  0  0  0  0  0  0
  146.9648  133.7436  154.3529 C   0  0  0  0  0  0  0  0  0  0  0  0
  149.2048  132.9109  153.4848 C   0  0  0  0  0  0  0  0  0  0  0  0
  149.4944  131.5931  154.0224 N   0  0  0  0  0  0  0  0  0  0  0  0
  149.0965  130.3642  153.5388 C   0  0  0  0  0  0  0  0  0  0  0  0
  149.6275  129.4128  154.3613 C   0  0  0  0  0  0  0  0  0  0  0  0
  150.3396  130.1679  155.3351 C   0  0  0  0  0  0  0  0  0  0  0  0
  150.2548  131.4728  155.1318 N   0  0  0  0  0  0  0  0  0  0  0  0
  149.0716  138.4584  155.5709 C   0  0  0  0  0  0  0  0  0  0  0  0
  147.4175  139.2247  153.3378 H   0  0  0  0  0  0  0  0  0  0  0  0
  146.9510  140.9161  153.1843 H   0  0  0  0  0  0  0  0  0  0  0  0
  146.7114  140.0871  154.7204 H   0  0  0  0  0  0  0  0  0  0  0  0
  151.1756  141.1071  155.2984 H   0  0  0  0  0  0  0  0  0  0  0  0
  150.9752  139.9688  156.5989 H   0  0  0  0  0  0  0  0  0  0  0  0
  151.7792  139.2794  153.7225 H   0  0  0  0  0  0  0  0  0  0  0  0
  152.8495  139.2696  155.1039 H   0  0  0  0  0  0  0  0  0  0  0  0
  152.0199  136.9623  154.4767 H   0  0  0  0  0  0  0  0  0  0  0  0
  151.6611  137.4086  156.1258 H   0  0  0  0  0  0  0  0  0  0  0  0
  149.7250  137.4957  153.7615 H   0  0  0  0  0  0  0  0  0  0  0  0
  148.7490  135.6289  153.4210 H   0  0  0  0  0  0  0  0  0  0  0  0
  148.7325  133.4885  155.5101 H   0  0  0  0  0  0  0  0  0  0  0  0
  146.6114  132.7243  154.5119 H   0  0  0  0  0  0  0  0  0  0  0  0
  146.6436  134.0553  153.3584 H   0  0  0  0  0  0  0  0  0  0  0  0
  146.4635  134.3818  155.0813 H   0  0  0  0  0  0  0  0  0  0  0  0
  148.5872  132.7835  152.5945 H   0  0  0  0  0  0  0  0  0  0  0  0
  150.1390  133.3646  153.1512 H   0  0  0  0  0  0  0  0  0  0  0  0
  148.4838  130.2706  152.6544 H   0  0  0  0  0  0  0  0  0  0  0  0
  149.5250  128.3411  154.2791 H   0  0  0  0  0  0  0  0  0  0  0  0
  150.9117  129.8093  156.1780 H   0  0  0  0  0  0  0  0  0  0  0  0
  149.2291  138.3885  156.6488 H   0  0  0  0  0  0  0  0  0  0  0  0
  148.0081  138.2717  155.4251 H   0  0  0  0  0  0  0  0  0  0  0  0
  1  2  1  0  0  0  0
  1 21  1  0  0  0  0
  1 22  1  0  0  0  0
  1 23  1  0  0  0  0
  2  3  2  0  0  0  0
  2  4  1  0  0  0  0
  4 20  1  0  0  0  0
  4  5  1  0  0  0  0
  5  6  1  0  0  0  0
  5 24  1  0  0  0  0
  5 25  1  0  0  0  0
  6  7  1  0  0  0  0
  6 26  1  0  0  0  0
  6 27  1  0  0  0  0
  7  8  1  0  0  0  0
  7 28  1  0  0  0  0
  7 29  1  0  0  0  0
  8  9  1  0  0  0  0
  8 20  1  0  0  0  0
  8 30  1  0  0  0  0
  9 10  2  0  0  0  0
  9 11  1  0  0  0  0
 11 12  1  0  0  0  0
 11 31  1  0  0  0  0
 12 13  1  0  0  0  0
 12 14  1  0  0  0  0
 12 32  1  0  0  0  0
 13 33  1  0  0  0  0
 13 34  1  0  0  0  0
 13 35  1  0  0  0  0
 14 15  1  0  0  0  0
 14 36  1  0  0  0  0
 14 37  1  0  0  0  0
 15 19  1  0  0  0  0
 15 16  1  0  0  0  0
 16 17  2  0  0  0  0
 16 38  1  0  0  0  0
 17 18  1  0  0  0  0
 17 39  1  0  0  0  0
 18 19  2  0  0  0  0
 18 40  1  0  0  0  0
 20 41  1  0  0  0  0
 20 42  1  0  0  0  0
M  END
> <s_m_source_file>
AV-unprocessed.smi

> <i_m_source_file_index>
1796

> <i_lp_mmshare_version>
43012

> <i_f3d_flags>
0

> <s_epik_input>
W0NIM11DKD1PKU4xW0NIMl1bQ0gyXVtDSDJdW0NASF0oW0NIMl0xKUMoPU8pW05IXVtDQEhdKFtDSDNdKVtDSDJdbjJbY0hdW2NIXVtjSF1uMg==

> <s_epik_cmdline>
J2VwaWtfcHl0aG9uJywgJy1waCcsICc3LjAnLCAnLXRuJywgJzgnLCAnLW1hJywgJzIwMCcsICctbWV0YWxfYmluZGluZycsICctaW1hZScsICc8aW5maWxlLm1hZT4nLCAnLW9tYWUnLCAnPG91dGZpbGUubWFlPic=

> <r_lp_tautomer_probability>
1

> <r_epik_Ionization_Penalty>
0.000315051

> <r_epik_Ionization_Penalty_Charging>
0

> <r_epik_Ionization_Penalty_Neutral>
0.000315051

> <r_epik_State_Penalty>
-0

> <r_epik_Charging_Adjusted_Penalty>
0

> <i_epik_Tot_Q>
0

> <i_epik_Tot_abs_Q>
0

> <r_epik_Metal_State_Penalty>
-0

> <b_epik_Metal_Only>
0

> <s_lp_Force_Field>
OPLS_2005

> <r_lp_Energy>
22.8088

> <b_lp_Chiralities_Consistent>
1

> <s_lp_Variant>
AV-unprocessed.smi:1796-3

> <Gold.Version>
5.8.1

> <Gold.Id.Protein>
6NUR|6NUR_protein|mol2

> <Gold.PLP.Fitness>
39.5488

> <Gold.PLP.PLP>
-32.7641

> <Gold.PLP.part.hbond>
-3.0000

> <Gold.PLP.part.metal>
0.0000

> <Gold.PLP.part.buried>
-2.7338

> <Gold.PLP.part.nonpolar>
-27.1156

> <Gold.PLP.part.repulsive>
0.2277

> <Gold.PLP.ligand.clash>
0.0000

> <Gold.PLP.ligand.torsion>
0.5499

> <Gold.PLP.Chemscore.Hbond>
1.6240

> <Gold.PLP.Chemscore.CHOScore>
0.9951

> <Gold.PLP.Chemscore.Metal>
0.0000

> <Gold.Chemscore.Hbonds>
donor molecule, donor type, donor heavy atom, donor atom, acceptor molecule, acceptor atom, score
      L1  H    11    31       P1  7948  1.00
      P1  H  8011  8017       L1     3  0.61
      L1  C    16    38       P1 10747  0.99

> <Gold.PLP.Chemscore.Internal.Correction>
0.0272

> <Gold.Rescore>
     Score         DG    S(hbond)    S(metal)    S(lipo)     H(rot)  DE(clash)    DE(int)     intcor
     13.52     -14.13       1.62        0.00      63.57       1.63       0.01       0.60       ----

> <Gold.Chemscore.Fitness>
13.5194

> <Gold.Chemscore.DG>
-14.1322

> <Gold.Chemscore.ZeroCoef>
-5.4800

> <Gold.Chemscore.Hbond>
1.6158

> <Gold.Chemscore.Metal>
0.0000

> <Gold.Chemscore.Lipo>
63.5683

> <Gold.Chemscore.Internal_Hbond>
0.0000

> <Gold.Chemscore.DEClash>
0.0117

> <Gold.Chemscore.DEInternal>
0.6011

> <Gold.Chemscore.Rot>
1.6336

> <Gold.Chemscore.Internal.Correction>
   9.000000E+99

> <Gold.Chemscore.Hbonds>
donor molecule, donor type, donor heavy atom, donor atom, acceptor molecule, acceptor atom, score
      L1  H    11    31       P1  7948  0.95
      P1  H  8011  8017       L1     3  0.62

> <Gold.Chemscore.Hbond.Weighted>
-5.3968

> <Gold.Chemscore.Metal.Weighted>
-0.0000

> <Gold.Chemscore.Lipo.Weighted>
-7.4375

> <Gold.Chemscore.Internal_Hbond.Weighted>
0.0000

> <Gold.Chemscore.DEClash.Weighted>
0.0117

> <Gold.Chemscore.DEInternal.Weighted>
0.6011

> <Gold.Chemscore.Rot.Weighted>
4.1821

> <Gold.Chemscore.Internal.Correction.Weighted>
   9.000000E+99

> <Gold.Protein.RotatedTorsions>
[ 6907 6896 6895 6894 ] final -157.45 input  -60.11 | X-H torsion
[ 7974 7965 7964 7962 ] final  122.18 input  175.53 | X-H torsion
[ 8008 7997 7996 7995 ] final   20.75 input   59.86 | X-H torsion
[ 10167 10162 10161 10158 ] final -144.35 input  -65.29 | X-H torsion
[ 10718 10713 10712 10709 ] final -100.38 input   66.30 | X-H torsion
[ 10763 10752 10751 10750 ] final  127.69 input  -60.55 | X-H torsion
[ 11005 11000 10999 10996 ] final -171.72 input  -57.11 | X-H torsion

> <Gold.Protein.ActiveResidues>
 VAL166  LYS551  ARG553  GLY616  TRP617  ASP618  TYR619  PRO620  LYS621  CYS622 
 ASP623  PHE694  ASN695  SER759  ASP760  ASP761  ALA762  ILE779  LEU786  VAL792 
 PHE793  MET794  SER795  GLU796  ALA797  LYS798  CYS799  TRP800  GLU811  SER814 

> <Gold.Protein.RotatedAtoms>
  151.3030  133.4114  159.2640 H   0  0  0  0  0  0  0  0  0  0  0  0  # atno 6907 bound_to 6896
  151.0179  134.9447  159.8054 H   0  0  0  0  0  0  0  0  0  0  0  0  # atno 6908 bound_to 6896
  152.5317  134.2993  159.9125 H   0  0  0  0  0  0  0  0  0  0  0  0  # atno 6909 bound_to 6896
  145.1106  139.3455  143.4765 H   0  0  0  0  0  0  0  0  0  0  0  0  # atno 7974 bound_to 7965
  154.9402  140.3052  155.5124 H   0  0  0  0  0  0  0  0  0  0  0  0  # atno 8008 bound_to 7997
  156.2996  140.2337  156.4408 H   0  0  0  0  0  0  0  0  0  0  0  0  # atno 8009 bound_to 7997
  154.8152  140.0426  157.1360 H   0  0  0  0  0  0  0  0  0  0  0  0  # atno 8010 bound_to 7997
  139.7907  143.7970  152.2649 H   0  0  0  0  0  0  0  0  0  0  0  0  # atno 10167 bound_to 10162
  156.0161  130.5325  150.6809 H   0  0  0  0  0  0  0  0  0  0  0  0  # atno 10718 bound_to 10713
  153.7135  135.3264  155.3251 H   0  0  0  0  0  0  0  0  0  0  0  0  # atno 10763 bound_to 10752
  154.8377  135.4482  154.1289 H   0  0  0  0  0  0  0  0  0  0  0  0  # atno 10764 bound_to 10752
  153.2390  135.6969  153.7884 H   0  0  0  0  0  0  0  0  0  0  0  0  # atno 10765 bound_to 10752
  140.5051  134.5856  157.5000 H   0  0  0  0  0  0  0  0  0  0  0  0  # atno 11005 bound_to 11000
  146.3526  140.1023  142.8607 LP  0  0  0  0  0  0  0  0  0  0  0  0  # atno 17320 bound_to 7965
  145.0851  140.9247  143.4802 LP  0  0  0  0  0  0  0  0  0  0  0  0  # atno 17321 bound_to 7965
  139.8060  144.7355  150.9760 LP  0  0  0  0  0  0  0  0  0  0  0  0  # atno 17342 bound_to 10162
  140.7820  143.4297  151.0713 LP  0  0  0  0  0  0  0  0  0  0  0  0  # atno 17343 bound_to 10162
  157.4512  131.0872  151.0844 LP  0  0  0  0  0  0  0  0  0  0  0  0  # atno 17370 bound_to 10713
  157.1359  130.6122  149.5542 LP  0  0  0  0  0  0  0  0  0  0  0  0  # atno 17371 bound_to 10713
  139.9691  134.7323  156.0078 LP  0  0  0  0  0  0  0  0  0  0  0  0  # atno 17394 bound_to 11000
  141.1415  133.6564  156.3744 LP  0  0  0  0  0  0  0  0  0  0  0  0  # atno 17395 bound_to 11000

$$$$
