AV-unprocessed.smi:287|AV-procd|sdf|2196|dock9
  -GOLD-   2262022 03D 1   1.00000     0.00000
 Structure written by MMmdl.
 55 58  0  0  0  0  0  0  0  0  1 V2000
  151.3545  143.5057  158.0630 C   0  0  0  0  0  0  0  0  0  0  0  0
  151.0131  142.2931  157.2669 C   0  0  0  0  0  0  0  0  0  0  0  0
  150.1148  142.0383  156.2720 C   0  0  0  0  0  0  0  0  0  0  0  0
  150.2608  140.6669  155.9064 C   0  0  0  0  0  0  0  0  0  0  0  0
  149.4669  139.9421  154.8274 C   0  0  2  0  0  0  0  0  0  0  0  0
  148.7441  138.7225  155.4262 C   0  0  0  0  0  0  0  0  0  0  0  0
  150.2861  139.4126  153.8028 O   0  0  0  0  0  0  0  0  0  0  0  0
  148.4484  140.8737  154.1332 C   0  0  0  0  0  0  0  0  0  0  0  0
  147.7957  140.2492  152.9898 N   0  0  0  0  0  0  0  0  0  0  0  0
  146.8546  139.2968  153.1574 C   0  0  0  0  0  0  0  0  0  0  0  0
  146.2115  139.3231  154.3479 N   0  0  0  0  0  0  0  0  0  0  0  0
  145.2676  138.4200  154.6185 C   0  0  0  0  0  0  0  0  0  0  0  0
  144.8231  137.4267  153.8493 N   0  0  0  0  0  0  0  0  0  0  0  0
  145.4585  137.3864  152.6420 C   0  0  0  0  0  0  0  0  0  0  0  0
  146.4837  138.2851  152.2212 C   0  0  0  0  0  0  0  0  0  0  0  0
  146.8966  137.9422  150.9399 N   0  0  0  0  0  0  0  0  0  0  0  0
  146.1697  136.9047  150.6330 C   0  0  0  0  0  0  0  0  0  0  0  0
  145.2656  136.5031  151.5903 N   0  0  0  0  0  0  0  0  0  0  0  0
  144.3459  135.3156  151.4811 C   0  0  1  0  0  0  0  0  0  0  0  0
  144.8077  134.4956  150.4561 O   0  0  0  0  0  0  0  0  0  0  0  0
  145.6351  133.4747  150.9951 C   0  0  2  0  0  0  0  0  0  0  0  0
  145.6880  132.2837  150.0262 C   0  0  0  0  0  0  0  0  0  0  0  0
  146.2382  131.1560  150.6735 O   0  0  0  0  0  0  0  0  0  0  0  0
  144.9478  133.1461  152.3300 C   0  0  1  0  0  0  0  0  0  0  0  0
  145.9030  132.7362  153.2876 O   0  0  0  0  0  0  0  0  0  0  0  0
  144.2763  134.4563  152.7557 C   0  0  2  0  0  0  0  0  0  0  0  0
  142.9361  134.2130  153.1343 O   0  0  0  0  0  0  0  0  0  0  0  0
  151.2614  140.1920  156.7207 C   0  0  0  0  0  0  0  0  0  0  0  0
  151.9348  138.8681  156.8749 C   0  0  0  0  0  0  0  0  0  0  0  0
  151.7198  141.1705  157.5501 O   0  0  0  0  0  0  0  0  0  0  0  0
  143.3866  135.7565  151.2061 H   0  0  0  0  0  0  0  0  0  0  0  0
  146.6366  133.8704  151.1638 H   0  0  0  0  0  0  0  0  0  0  0  0
  144.2065  132.3577  152.1867 H   0  0  0  0  0  0  0  0  0  0  0  0
  144.7755  134.9538  153.5866 H   0  0  0  0  0  0  0  0  0  0  0  0
  150.8377  144.3841  157.6756 H   0  0  0  0  0  0  0  0  0  0  0  0
  152.4263  143.7023  158.0285 H   0  0  0  0  0  0  0  0  0  0  0  0
  151.0663  143.3763  159.1063 H   0  0  0  0  0  0  0  0  0  0  0  0
  149.4284  142.7574  155.8499 H   0  0  0  0  0  0  0  0  0  0  0  0
  148.0369  139.0186  156.2019 H   0  0  0  0  0  0  0  0  0  0  0  0
  149.4509  138.0240  155.8766 H   0  0  0  0  0  0  0  0  0  0  0  0
  148.1814  138.1786  154.6664 H   0  0  0  0  0  0  0  0  0  0  0  0
  149.8169  139.4700  152.9847 H   0  0  0  0  0  0  0  0  0  0  0  0
  147.7066  141.2371  154.8458 H   0  0  0  0  0  0  0  0  0  0  0  0
  148.9830  141.7469  153.7564 H   0  0  0  0  0  0  0  0  0  0  0  0
  148.0444  140.6265  152.0867 H   0  0  0  0  0  0  0  0  0  0  0  0
  144.8024  138.5036  155.5894 H   0  0  0  0  0  0  0  0  0  0  0  0
  146.2772  136.3954  149.6863 H   0  0  0  0  0  0  0  0  0  0  0  0
  144.6802  132.0168  149.7070 H   0  0  0  0  0  0  0  0  0  0  0  0
  146.2598  132.5249  149.1296 H   0  0  0  0  0  0  0  0  0  0  0  0
  147.0937  130.9871  150.3096 H   0  0  0  0  0  0  0  0  0  0  0  0
  146.7618  132.7950  152.8977 H   0  0  0  0  0  0  0  0  0  0  0  0
  142.9157  133.4493  153.6906 H   0  0  0  0  0  0  0  0  0  0  0  0
  151.2219  138.1063  157.1903 H   0  0  0  0  0  0  0  0  0  0  0  0
  152.7295  138.9125  157.6203 H   0  0  0  0  0  0  0  0  0  0  0  0
  152.3785  138.5489  155.9317 H   0  0  0  0  0  0  0  0  0  0  0  0
  1  2  1  0  0  0  0
  1 35  1  0  0  0  0
  1 36  1  0  0  0  0
  1 37  1  0  0  0  0
  2 30  1  0  0  0  0
  2  3  2  0  0  0  0
  3  4  1  0  0  0  0
  3 38  1  0  0  0  0
  4  5  1  0  0  0  0
  4 28  2  0  0  0  0
  5  6  1  0  0  0  0
  5  7  1  0  0  0  0
  5  8  1  0  0  0  0
  6 39  1  0  0  0  0
  6 40  1  0  0  0  0
  6 41  1  0  0  0  0
  7 42  1  0  0  0  0
  8  9  1  0  0  0  0
  8 43  1  0  0  0  0
  8 44  1  0  0  0  0
  9 10  1  0  0  0  0
  9 45  1  0  0  0  0
 10 15  1  0  0  0  0
 10 11  2  0  0  0  0
 11 12  1  0  0  0  0
 12 13  2  0  0  0  0
 12 46  1  0  0  0  0
 13 14  1  0  0  0  0
 14 18  1  0  0  0  0
 14 15  2  0  0  0  0
 15 16  1  0  0  0  0
 16 17  2  0  0  0  0
 17 18  1  0  0  0  0
 17 47  1  0  0  0  0
 18 19  1  0  0  0  0
 19 31  1  0  0  0  0
 19 26  1  0  0  0  0
 19 20  1  0  0  0  0
 20 21  1  0  0  0  0
 21 32  1  0  0  0  0
 21 22  1  0  0  0  0
 21 24  1  0  0  0  0
 22 23  1  0  0  0  0
 22 48  1  0  0  0  0
 22 49  1  0  0  0  0
 23 50  1  0  0  0  0
 24 33  1  0  0  0  0
 24 25  1  0  0  0  0
 24 26  1  0  0  0  0
 25 51  1  0  0  0  0
 26 34  1  0  0  0  0
 26 27  1  0  0  0  0
 27 52  1  0  0  0  0
 28 29  1  0  0  0  0
 28 30  1  0  0  0  0
 29 53  1  0  0  0  0
 29 54  1  0  0  0  0
 29 55  1  0  0  0  0
M  END
> <s_m_source_file>
AV-unprocessed.smi

> <i_m_source_file_index>
287

> <i_lp_mmshare_version>
43012

> <i_f3d_flags>
0

> <s_epik_input>
W0NIM11jMVtjSF1jKGMobzEpW0NIM10pW0NAQF0oW0NIM10pKFtPSF0pW0NIMl1bTkhdYyhuW2NIXW4yKWMoYzIzKW5bY0hdbjNbQ0BASF00T1tDQEhdKFtDSDJdW09IXSlbQ0BASF0oW09IXSlbQ0BIXTRbT0hd

> <s_epik_cmdline>
J2VwaWtfcHl0aG9uJywgJy1waCcsICc3LjAnLCAnLXRuJywgJzgnLCAnLW1hJywgJzIwMCcsICctbWV0YWxfYmluZGluZycsICctaW1hZScsICc8aW5maWxlLm1hZT4nLCAnLW9tYWUnLCAnPG91dGZpbGUubWFlPic=

> <r_lp_tautomer_probability>
1

> <r_epik_Ionization_Penalty>
0.000992612

> <r_epik_Ionization_Penalty_Charging>
0

> <r_epik_Ionization_Penalty_Neutral>
0.000992612

> <r_epik_State_Penalty>
-0

> <r_epik_Charging_Adjusted_Penalty>
0

> <i_epik_Tot_Q>
0

> <i_epik_Tot_abs_Q>
0

> <r_epik_Metal_State_Penalty>
-0

> <b_epik_Metal_Only>
0

> <s_epik_Chemistry_Notes>
This compound contains an acetal/aminal-like group ( X-CH(R)-Y where X, Y are N, S, or O) that may be acid/base labile, releasing an aldehyde.

> <s_lp_Force_Field>
OPLS_2005

> <r_lp_Energy>
37.3025

> <b_lp_Chiralities_Consistent>
1

> <s_lp_Variant>
AV-unprocessed.smi:287-20

> <Gold.Version>
5.8.1

> <Gold.Id.Protein>
6NUR|6NUR_protein|mol2

> <Gold.PLP.Fitness>
60.7429

> <Gold.PLP.PLP>
-43.6367

> <Gold.PLP.part.hbond>
-6.0000

> <Gold.PLP.part.metal>
0.0000

> <Gold.PLP.part.buried>
-0.1196

> <Gold.PLP.part.nonpolar>
-41.0250

> <Gold.PLP.part.repulsive>
2.5031

> <Gold.PLP.ligand.clash>
0.0000

> <Gold.PLP.ligand.torsion>
0.7931

> <Gold.PLP.Chemscore.Hbond>
5.2000

> <Gold.PLP.Chemscore.CHOScore>
1.0000

> <Gold.PLP.Chemscore.Metal>
0.0000

> <Gold.Chemscore.Hbonds>
donor molecule, donor type, donor heavy atom, donor atom, acceptor molecule, acceptor atom, score
      L1  H     7    42       P1  7957  1.00
      L1  H     9    45       P1  7957  0.46
      L1  H    23    50       P1 10747  1.00
      L1  H    27    52       P1 10957  1.00
      P1  H  7954  7966       L1    16  1.00
      P1  H  7989  7998       L1     7  0.88
      L1  C    17    47       P1  7921  0.91

> <Gold.PLP.Chemscore.Internal.Correction>
0.0924

> <Gold.Rescore>
     Score         DG    S(hbond)    S(metal)    S(lipo)     H(rot)  DE(clash)    DE(int)     intcor
      9.98     -16.11       4.14        0.00      87.94       5.27       2.64       3.49       ----

> <Gold.Chemscore.Fitness>
9.9761

> <Gold.Chemscore.DG>
-16.1077

> <Gold.Chemscore.ZeroCoef>
-5.4800

> <Gold.Chemscore.Hbond>
4.1386

> <Gold.Chemscore.Metal>
0.0000

> <Gold.Chemscore.Lipo>
87.9372

> <Gold.Chemscore.Internal_Hbond>
0.0000

> <Gold.Chemscore.DEClash>
2.6408

> <Gold.Chemscore.DEInternal>
3.4907

> <Gold.Chemscore.Rot>
5.2672

> <Gold.Chemscore.Internal.Correction>
   9.000000E+99

> <Gold.Chemscore.Hbonds>
donor molecule, donor type, donor heavy atom, donor atom, acceptor molecule, acceptor atom, score
      L1  H     7    42       P1  7957  0.96
      L1  H     9    45       P1  7957  0.46
      L1  H    23    50       P1 10747  0.99
      L1  H    27    52       P1 10957  0.94
      P1  H  7954  7966       L1    16  0.45
      P1  H  7989  7998       L1     7  0.07

> <Gold.Chemscore.Hbond.Weighted>
-13.8230

> <Gold.Chemscore.Metal.Weighted>
-0.0000

> <Gold.Chemscore.Lipo.Weighted>
-10.2887

> <Gold.Chemscore.Internal_Hbond.Weighted>
0.0000

> <Gold.Chemscore.DEClash.Weighted>
2.6408

> <Gold.Chemscore.DEInternal.Weighted>
3.4907

> <Gold.Chemscore.Rot.Weighted>
13.4839

> <Gold.Chemscore.Internal.Correction.Weighted>
   9.000000E+99

> <Gold.Protein.RotatedTorsions>
[ 6907 6896 6895 6894 ] final   23.74 input  -60.11 | X-H torsion
[ 7974 7965 7964 7962 ] final  -52.84 input  175.53 | X-H torsion
[ 8008 7997 7996 7995 ] final  128.14 input   59.86 | X-H torsion
[ 10167 10162 10161 10158 ] final   92.05 input  -65.29 | X-H torsion
[ 10718 10713 10712 10709 ] final   22.34 input   66.30 | X-H torsion
[ 10763 10752 10751 10750 ] final  150.32 input  -60.55 | X-H torsion
[ 11005 11000 10999 10996 ] final -103.81 input  -57.11 | X-H torsion

> <Gold.Protein.ActiveResidues>
 VAL166  LYS551  ARG553  GLY616  TRP617  ASP618  TYR619  PRO620  LYS621  CYS622 
 ASP623  PHE694  ASN695  SER759  ASP760  ASP761  ALA762  ILE779  LEU786  VAL792 
 PHE793  MET794  SER795  GLU796  ALA797  LYS798  CYS799  TRP800  GLU811  SER814 

> <Gold.Protein.RotatedAtoms>
  151.9469  135.0187  160.0539 H   0  0  0  0  0  0  0  0  0  0  0  0  # atno 6907 bound_to 6896
  152.1987  133.4821  159.5055 H   0  0  0  0  0  0  0  0  0  0  0  0  # atno 6908 bound_to 6896
  150.6950  134.1535  159.4192 H   0  0  0  0  0  0  0  0  0  0  0  0  # atno 6909 bound_to 6896
  145.9035  140.7975  142.9731 H   0  0  0  0  0  0  0  0  0  0  0  0  # atno 7974 bound_to 7965
  156.2908  140.2652  156.2387 H   0  0  0  0  0  0  0  0  0  0  0  0  # atno 8008 bound_to 7997
  154.9999  140.0388  157.2374 H   0  0  0  0  0  0  0  0  0  0  0  0  # atno 8009 bound_to 7997
  154.7611  140.2761  155.6218 H   0  0  0  0  0  0  0  0  0  0  0  0  # atno 8010 bound_to 7997
  139.8315  144.6685  150.9394 H   0  0  0  0  0  0  0  0  0  0  0  0  # atno 10167 bound_to 10162
  157.1510  130.6674  149.6012 H   0  0  0  0  0  0  0  0  0  0  0  0  # atno 10718 bound_to 10713
  154.0855  135.2856  155.3282 H   0  0  0  0  0  0  0  0  0  0  0  0  # atno 10763 bound_to 10752
  154.6655  135.5319  153.8075 H   0  0  0  0  0  0  0  0  0  0  0  0  # atno 10764 bound_to 10752
  153.0433  135.6544  154.1027 H   0  0  0  0  0  0  0  0  0  0  0  0  # atno 10765 bound_to 10752
  141.1129  133.8671  157.1533 H   0  0  0  0  0  0  0  0  0  0  0  0  # atno 11005 bound_to 11000
  144.6737  140.1714  143.7414 LP  0  0  0  0  0  0  0  0  0  0  0  0  # atno 17320 bound_to 7965
  145.8761  139.2298  143.1632 LP  0  0  0  0  0  0  0  0  0  0  0  0  # atno 17321 bound_to 7965
  140.7806  143.3996  151.1170 LP  0  0  0  0  0  0  0  0  0  0  0  0  # atno 17342 bound_to 10162
  139.7650  143.8579  152.3108 LP  0  0  0  0  0  0  0  0  0  0  0  0  # atno 17343 bound_to 10162
  155.9770  130.4744  150.6568 LP  0  0  0  0  0  0  0  0  0  0  0  0  # atno 17370 bound_to 10713
  157.4220  131.0838  151.1122 LP  0  0  0  0  0  0  0  0  0  0  0  0  # atno 17371 bound_to 10713
  140.0033  135.0019  157.0237 LP  0  0  0  0  0  0  0  0  0  0  0  0  # atno 17394 bound_to 11000
  140.4726  134.1370  155.7205 LP  0  0  0  0  0  0  0  0  0  0  0  0  # atno 17395 bound_to 11000

$$$$
