AV-unprocessed.smi:2923|AV-procd|sdf|11212|dock2
  -GOLD-   2272016103D 1   1.00000     0.00000
 Structure written by MMmdl.
 46 48  0  0  0  0  0  0  0  0  1 V2000
  145.6281  143.6437  154.0630 C   0  0  0  0  0  0  0  0  0  0  0  0
  146.3039  142.8370  155.0674 N   0  0  0  0  0  0  0  0  0  0  0  0
  145.8923  143.0491  156.4463 C   0  0  0  0  0  0  0  0  0  0  0  0
  146.3775  141.4811  154.7222 C   0  0  0  0  0  0  0  0  0  0  0  0
  145.6848  140.4954  155.4613 C   0  0  0  0  0  0  0  0  0  0  0  0
  145.7930  139.1488  155.0643 C   0  0  0  0  0  0  0  0  0  0  0  0
  146.5852  138.8306  153.9357 C   0  0  0  0  0  0  0  0  0  0  0  0
  146.7864  137.5125  153.4451 N   0  0  0  0  0  0  0  0  0  0  0  0
  145.9118  136.4928  153.4065 C   0  0  0  0  0  0  0  0  0  0  0  0
  144.7489  136.5346  153.8075 O   0  0  0  0  0  0  0  0  0  0  0  0
  146.4589  135.4068  152.8443 N   0  0  0  0  0  0  0  0  0  0  0  0
  145.7534  134.1474  152.6287 C   0  0  2  0  0  0  0  0  0  0  0  0
  146.5402  133.1755  151.7354 C   0  0  1  0  0  0  0  0  0  0  0  0
  147.0442  131.8762  152.3027 C   0  0  0  0  0  0  0  0  0  0  0  0
  145.9445  130.8838  151.9138 C   0  0  0  0  0  0  0  0  0  0  0  0
  144.7906  131.6924  151.6964 O   0  0  0  0  0  0  0  0  0  0  0  0
  145.2193  132.8827  151.0399 C   0  0  1  0  0  0  0  0  0  0  0  0
  144.6312  134.2112  151.5610 C   0  0  0  0  0  0  0  0  0  0  0  0
  143.1964  134.1500  152.0870 C   0  0  0  0  0  0  0  0  0  0  0  0
  144.6817  135.3626  150.5459 C   0  0  0  0  0  0  0  0  0  0  0  0
  147.2479  139.8889  153.2798 C   0  0  0  0  0  0  0  0  0  0  0  0
  147.1476  141.1818  153.6541 N   0  0  0  0  0  0  0  0  0  0  0  0
  146.0025  143.4149  153.0644 H   0  0  0  0  0  0  0  0  0  0  0  0
  145.8024  144.7033  154.2524 H   0  0  0  0  0  0  0  0  0  0  0  0
  144.5520  143.4669  154.0781 H   0  0  0  0  0  0  0  0  0  0  0  0
  146.4646  142.4144  157.1240 H   0  0  0  0  0  0  0  0  0  0  0  0
  144.8323  142.8277  156.5767 H   0  0  0  0  0  0  0  0  0  0  0  0
  146.0617  144.0871  156.7339 H   0  0  0  0  0  0  0  0  0  0  0  0
  145.0844  140.7613  156.3189 H   0  0  0  0  0  0  0  0  0  0  0  0
  145.2803  138.3926  155.6381 H   0  0  0  0  0  0  0  0  0  0  0  0
  147.6802  137.3469  153.0061 H   0  0  0  0  0  0  0  0  0  0  0  0
  147.4192  135.4548  152.5371 H   0  0  0  0  0  0  0  0  0  0  0  0
  145.4193  133.6666  153.5512 H   0  0  0  0  0  0  0  0  0  0  0  0
  147.2391  133.6851  151.0696 H   0  0  0  0  0  0  0  0  0  0  0  0
  148.0107  131.5847  151.8907 H   0  0  0  0  0  0  0  0  0  0  0  0
  147.1461  131.9383  153.3867 H   0  0  0  0  0  0  0  0  0  0  0  0
  146.1997  130.3741  150.9836 H   0  0  0  0  0  0  0  0  0  0  0  0
  145.7675  130.1286  152.6798 H   0  0  0  0  0  0  0  0  0  0  0  0
  145.2983  132.7809  149.9565 H   0  0  0  0  0  0  0  0  0  0  0  0
  142.4862  133.9333  151.2886 H   0  0  0  0  0  0  0  0  0  0  0  0
  142.8996  135.0925  152.5482 H   0  0  0  0  0  0  0  0  0  0  0  0
  143.0778  133.3742  152.8437 H   0  0  0  0  0  0  0  0  0  0  0  0
  143.9996  135.1886  149.7132 H   0  0  0  0  0  0  0  0  0  0  0  0
  145.6784  135.4845  150.1209 H   0  0  0  0  0  0  0  0  0  0  0  0
  144.4046  136.3142  151.0009 H   0  0  0  0  0  0  0  0  0  0  0  0
  147.8753  139.6947  152.4221 H   0  0  0  0  0  0  0  0  0  0  0  0
  1  2  1  0  0  0  0
  1 23  1  0  0  0  0
  1 24  1  0  0  0  0
  1 25  1  0  0  0  0
  2  3  1  0  0  0  0
  2  4  1  0  0  0  0
  3 26  1  0  0  0  0
  3 27  1  0  0  0  0
  3 28  1  0  0  0  0
  4 22  1  0  0  0  0
  4  5  2  0  0  0  0
  5  6  1  0  0  0  0
  5 29  1  0  0  0  0
  6  7  2  0  0  0  0
  6 30  1  0  0  0  0
  7  8  1  0  0  0  0
  7 21  1  0  0  0  0
  8  9  1  0  0  0  0
  8 31  1  0  0  0  0
  9 10  2  0  0  0  0
  9 11  1  0  0  0  0
 11 12  1  0  0  0  0
 11 32  1  0  0  0  0
 12 18  1  0  0  0  0
 12 13  1  0  0  0  0
 12 33  1  0  0  0  0
 13 17  1  0  0  0  0
 13 14  1  0  0  0  0
 13 34  1  0  0  0  0
 14 15  1  0  0  0  0
 14 35  1  0  0  0  0
 14 36  1  0  0  0  0
 15 16  1  0  0  0  0
 15 37  1  0  0  0  0
 15 38  1  0  0  0  0
 16 17  1  0  0  0  0
 17 18  1  0  0  0  0
 17 39  1  0  0  0  0
 18 19  1  0  0  0  0
 18 20  1  0  0  0  0
 19 40  1  0  0  0  0
 19 41  1  0  0  0  0
 19 42  1  0  0  0  0
 20 43  1  0  0  0  0
 20 44  1  0  0  0  0
 20 45  1  0  0  0  0
 21 22  2  0  0  0  0
 21 46  1  0  0  0  0
M  END
> <s_m_source_file>
AV-unprocessed.smi

> <i_m_source_file_index>
2923

> <i_lp_mmshare_version>
43012

> <i_f3d_flags>
0

> <s_epik_input>
W0NIM11OKFtDSDNdKWMxW2NIXVtjSF1jKFtjSF1uMSlbTkhdQyg9TylbTkhdW0NASF0yQyhbQ0gzXSkoW0NIM10pW0NAQEhdKFtDQEhdMjMpT1tDSDJdW0NIMl0z

> <s_epik_cmdline>
J2VwaWtfcHl0aG9uJywgJy1waCcsICc3LjAnLCAnLXRuJywgJzgnLCAnLW1hJywgJzIwMCcsICctbWV0YWxfYmluZGluZycsICctaW1hZScsICc8aW5maWxlLm1hZT4nLCAnLW9tYWUnLCAnPG91dGZpbGUubWFlPic=

> <r_lp_tautomer_probability>
1

> <r_epik_Ionization_Penalty>
0.628785

> <r_epik_Ionization_Penalty_Charging>
0

> <r_epik_Ionization_Penalty_Neutral>
0.628785

> <r_epik_State_Penalty>
0.644286

> <r_epik_Charging_Adjusted_Penalty>
0.644286

> <i_epik_Tot_Q>
0

> <i_epik_Tot_abs_Q>
0

> <r_epik_Metal_State_Penalty>
0.308404

> <b_epik_Metal_Only>
0

> <s_lp_Force_Field>
OPLS_2005

> <r_lp_Energy>
42.6723

> <b_lp_Chiralities_Consistent>
1

> <s_lp_Variant>
AV-unprocessed.smi:2923-11

> <Gold.Version>
5.8.1

> <Gold.Id.Protein>
6NUR|6NUR_protein|mol2

> <Gold.PLP.Fitness>
37.8996

> <Gold.PLP.PLP>
-30.0531

> <Gold.PLP.part.hbond>
-2.0000

> <Gold.PLP.part.metal>
0.0000

> <Gold.PLP.part.buried>
-3.5348

> <Gold.PLP.part.nonpolar>
-24.7469

> <Gold.PLP.part.repulsive>
0.6304

> <Gold.PLP.ligand.clash>
0.1822

> <Gold.PLP.ligand.torsion>
0.6782

> <Gold.PLP.Chemscore.Hbond>
2.0000

> <Gold.PLP.Chemscore.CHOScore>
1.0000

> <Gold.PLP.Chemscore.Metal>
0.0000

> <Gold.Chemscore.Hbonds>
donor molecule, donor type, donor heavy atom, donor atom, acceptor molecule, acceptor atom, score
      L1  H     8    31       P1  7948  0.98
      L1  H    11    32       P1  7948  1.00
      L1  C    21    46       P1  7957  1.00

> <Gold.PLP.Chemscore.Internal.Correction>
0.3851

> <Gold.Rescore>
     Score         DG    S(hbond)    S(metal)    S(lipo)     H(rot)  DE(clash)    DE(int)     intcor
     16.69     -17.42       1.93        0.00      72.98       1.19       0.15       0.59       ----

> <Gold.Chemscore.Fitness>
16.6882

> <Gold.Chemscore.DG>
-17.4207

> <Gold.Chemscore.ZeroCoef>
-5.4800

> <Gold.Chemscore.Hbond>
1.9334

> <Gold.Chemscore.Metal>
0.0000

> <Gold.Chemscore.Lipo>
72.9841

> <Gold.Chemscore.Internal_Hbond>
0.0000

> <Gold.Chemscore.DEClash>
0.1451

> <Gold.Chemscore.DEInternal>
0.5874

> <Gold.Chemscore.Rot>
1.1937

> <Gold.Chemscore.Internal.Correction>
   9.000000E+99

> <Gold.Chemscore.Hbonds>
donor molecule, donor type, donor heavy atom, donor atom, acceptor molecule, acceptor atom, score
      L1  H     8    31       P1  7948  0.90
      L1  H    11    32       P1  7948  0.99

> <Gold.Chemscore.Hbond.Weighted>
-6.4575

> <Gold.Chemscore.Metal.Weighted>
-0.0000

> <Gold.Chemscore.Lipo.Weighted>
-8.5391

> <Gold.Chemscore.Internal_Hbond.Weighted>
0.0000

> <Gold.Chemscore.DEClash.Weighted>
0.1451

> <Gold.Chemscore.DEInternal.Weighted>
0.5874

> <Gold.Chemscore.Rot.Weighted>
3.0559

> <Gold.Chemscore.Internal.Correction.Weighted>
   9.000000E+99

> <Gold.Protein.RotatedTorsions>
[ 6907 6896 6895 6894 ] final   51.91 input  -60.11 | X-H torsion
[ 7974 7965 7964 7962 ] final  133.47 input  175.53 | X-H torsion
[ 8008 7997 7996 7995 ] final  124.75 input   59.86 | X-H torsion
[ 10167 10162 10161 10158 ] final -165.52 input  -65.29 | X-H torsion
[ 10718 10713 10712 10709 ] final   47.90 input   66.30 | X-H torsion
[ 10763 10752 10751 10750 ] final   90.32 input  -60.55 | X-H torsion
[ 11005 11000 10999 10996 ] final   48.66 input  -57.11 | X-H torsion

> <Gold.Protein.ActiveResidues>
 VAL166  LYS551  ARG553  GLY616  TRP617  ASP618  TYR619  PRO620  LYS621  CYS622 
 ASP623  PHE694  ASN695  SER759  ASP760  ASP761  ALA762  ILE779  LEU786  VAL792 
 PHE793  MET794  SER795  GLU796  ALA797  LYS798  CYS799  TRP800  GLU811  SER814 

> <Gold.Protein.RotatedAtoms>
  152.3177  134.7419  160.0321 H   0  0  0  0  0  0  0  0  0  0  0  0  # atno 6907 bound_to 6896
  151.7879  133.3351  159.3498 H   0  0  0  0  0  0  0  0  0  0  0  0  # atno 6908 bound_to 6896
  150.7353  134.5801  159.5979 H   0  0  0  0  0  0  0  0  0  0  0  0  # atno 6909 bound_to 6896
  144.9862  139.4453  143.5362 H   0  0  0  0  0  0  0  0  0  0  0  0  # atno 7974 bound_to 7965
  156.2812  140.2732  156.1838 H   0  0  0  0  0  0  0  0  0  0  0  0  # atno 8008 bound_to 7997
  155.0529  140.0386  157.2568 H   0  0  0  0  0  0  0  0  0  0  0  0  # atno 8009 bound_to 7997
  154.7180  140.2682  155.6572 H   0  0  0  0  0  0  0  0  0  0  0  0  # atno 8010 bound_to 7997
  139.6177  144.0687  152.1903 H   0  0  0  0  0  0  0  0  0  0  0  0  # atno 10167 bound_to 10162
  157.4632  130.8209  149.7908 H   0  0  0  0  0  0  0  0  0  0  0  0  # atno 10718 bound_to 10713
  153.1963  135.4438  155.0212 H   0  0  0  0  0  0  0  0  0  0  0  0  # atno 10763 bound_to 10752
  154.8121  135.3299  154.7280 H   0  0  0  0  0  0  0  0  0  0  0  0  # atno 10764 bound_to 10752
  153.7729  135.6983  153.4958 H   0  0  0  0  0  0  0  0  0  0  0  0  # atno 10765 bound_to 10752
  140.1171  134.4878  155.8628 H   0  0  0  0  0  0  0  0  0  0  0  0  # atno 11005 bound_to 11000
  146.3420  139.9165  142.8772 LP  0  0  0  0  0  0  0  0  0  0  0  0  # atno 17320 bound_to 7965
  145.2350  140.9987  143.3968 LP  0  0  0  0  0  0  0  0  0  0  0  0  # atno 17321 bound_to 7965
  140.0321  144.6072  150.7479 LP  0  0  0  0  0  0  0  0  0  0  0  0  # atno 17342 bound_to 10162
  140.7361  143.2749  151.3772 LP  0  0  0  0  0  0  0  0  0  0  0  0  # atno 17343 bound_to 10162
  156.0038  130.3866  150.2506 LP  0  0  0  0  0  0  0  0  0  0  0  0  # atno 17370 bound_to 10713
  157.0685  131.0110  151.3198 LP  0  0  0  0  0  0  0  0  0  0  0  0  # atno 17371 bound_to 10713
  141.2144  133.6747  156.6818 LP  0  0  0  0  0  0  0  0  0  0  0  0  # atno 17394 bound_to 11000
  140.3013  134.8161  157.4100 LP  0  0  0  0  0  0  0  0  0  0  0  0  # atno 17395 bound_to 11000

$$$$
