AV-unprocessed.smi:34|AV-procd|sdf|219|dock3
  -GOLD-   2262015533D 1   1.00000     0.00000
 Structure written by MMmdl.
 55 59  0  0  0  0  0  0  0  0  1 V2000
  152.7793  140.3552  157.9467 O   0  0  0  0  0  0  0  0  0  0  0  0
  151.9576  141.2575  157.7825 C   0  0  0  0  0  0  0  0  0  0  0  0
  150.7946  141.0974  156.9270 N   0  0  0  0  0  0  0  0  0  0  0  0
  150.4762  140.0428  156.1401 C   0  0  0  0  0  0  0  0  0  0  0  0
  150.7675  140.0099  154.8127 N   0  0  0  0  0  0  0  0  0  0  0  0
  150.4275  138.9497  154.0737 C   0  0  0  0  0  0  0  0  0  0  0  0
  149.8010  137.8340  154.4542 N   0  0  0  0  0  0  0  0  0  0  0  0
  149.5048  137.8615  155.7855 C   0  0  0  0  0  0  0  0  0  0  0  0
  149.8023  138.9199  156.6874 C   0  0  0  0  0  0  0  0  0  0  0  0
  149.3403  138.5962  157.9566 N   0  0  0  0  0  0  0  0  0  0  0  0
  148.8020  137.4150  157.8072 C   0  0  0  0  0  0  0  0  0  0  0  0
  148.8718  136.8920  156.5321 N   0  0  0  0  0  0  0  0  0  0  0  0
  148.3563  135.5893  156.0010 C   0  0  2  0  0  0  0  0  0  0  0  0
  147.7807  134.8772  157.0560 O   0  0  0  0  0  0  0  0  0  0  0  0
  148.7477  133.9852  157.5927 C   0  0  1  0  0  0  0  0  0  0  0  0
  148.0628  132.8880  158.4150 C   0  0  0  0  0  0  0  0  0  0  0  0
  147.0007  133.4564  159.1635 O   0  0  0  0  0  0  0  0  0  0  0  0
  146.8947  133.2066  160.4826 C   0  0  0  0  0  0  0  0  0  0  0  0
  147.6896  132.5034  161.1097 O   0  0  0  0  0  0  0  0  0  0  0  0
  145.7115  133.8680  161.1049 C   0  0  0  0  0  0  0  0  0  0  0  0
  145.4447  133.6616  162.4785 C   0  0  0  0  0  0  0  0  0  0  0  0
  144.3337  134.2712  163.0931 C   0  0  0  0  0  0  0  0  0  0  0  0
  143.4758  135.0952  162.3418 C   0  0  0  0  0  0  0  0  0  0  0  0
  143.7312  135.3099  160.9749 C   0  0  0  0  0  0  0  0  0  0  0  0
  144.8417  134.7009  160.3582 C   0  0  0  0  0  0  0  0  0  0  0  0
  149.4529  133.4872  156.3347 C   0  0  2  0  0  0  0  0  0  0  0  0
  150.6668  133.0047  156.6032 F   0  0  0  0  0  0  0  0  0  0  0  0
  149.5268  134.7372  155.4689 C   0  0  1  0  0  0  0  0  0  0  0  0
  149.3749  134.4053  154.1043 O   0  0  0  0  0  0  0  0  0  0  0  0
  152.0545  142.5564  158.5287 C   0  0  0  0  0  0  0  0  0  0  0  0
  151.7353  143.7697  157.8786 C   0  0  0  0  0  0  0  0  0  0  0  0
  151.8040  144.9918  158.5754 C   0  0  0  0  0  0  0  0  0  0  0  0
  152.1853  145.0103  159.9302 C   0  0  0  0  0  0  0  0  0  0  0  0
  152.4940  143.8054  160.5890 C   0  0  0  0  0  0  0  0  0  0  0  0
  152.4255  142.5824  159.8932 C   0  0  0  0  0  0  0  0  0  0  0  0
  150.1499  141.8741  156.9080 H   0  0  0  0  0  0  0  0  0  0  0  0
  150.6963  139.0039  153.0290 H   0  0  0  0  0  0  0  0  0  0  0  0
  148.3391  136.8954  158.6334 H   0  0  0  0  0  0  0  0  0  0  0  0
  147.6128  135.8713  155.2544 H   0  0  0  0  0  0  0  0  0  0  0  0
  149.4405  134.5509  158.2182 H   0  0  0  0  0  0  0  0  0  0  0  0
  147.6630  132.1229  157.7481 H   0  0  0  0  0  0  0  0  0  0  0  0
  148.7792  132.4027  159.0792 H   0  0  0  0  0  0  0  0  0  0  0  0
  146.0890  133.0330  163.0761 H   0  0  0  0  0  0  0  0  0  0  0  0
  144.1403  134.1063  164.1428 H   0  0  0  0  0  0  0  0  0  0  0  0
  142.6236  135.5620  162.8130 H   0  0  0  0  0  0  0  0  0  0  0  0
  143.0743  135.9432  160.3975 H   0  0  0  0  0  0  0  0  0  0  0  0
  145.0092  134.8874  159.3075 H   0  0  0  0  0  0  0  0  0  0  0  0
  148.8695  132.7006  155.8529 H   0  0  0  0  0  0  0  0  0  0  0  0
  150.4736  135.2576  155.6228 H   0  0  0  0  0  0  0  0  0  0  0  0
  149.2492  135.2046  153.6151 H   0  0  0  0  0  0  0  0  0  0  0  0
  151.4393  143.7722  156.8392 H   0  0  0  0  0  0  0  0  0  0  0  0
  151.5620  145.9151  158.0699 H   0  0  0  0  0  0  0  0  0  0  0  0
  152.2367  145.9475  160.4647 H   0  0  0  0  0  0  0  0  0  0  0  0
  152.7804  143.8185  161.6304 H   0  0  0  0  0  0  0  0  0  0  0  0
  152.6562  141.6684  160.4211 H   0  0  0  0  0  0  0  0  0  0  0  0
  1  2  2  0  0  0  0
  2  3  1  0  0  0  0
  2 30  1  0  0  0  0
  3  4  1  0  0  0  0
  3 36  1  0  0  0  0
  4  9  1  0  0  0  0
  4  5  2  0  0  0  0
  5  6  1  0  0  0  0
  6  7  2  0  0  0  0
  6 37  1  0  0  0  0
  7  8  1  0  0  0  0
  8 12  1  0  0  0  0
  8  9  2  0  0  0  0
  9 10  1  0  0  0  0
 10 11  2  0  0  0  0
 11 12  1  0  0  0  0
 11 38  1  0  0  0  0
 12 13  1  0  0  0  0
 13 28  1  0  0  0  0
 13 14  1  0  0  0  0
 13 39  1  0  0  0  0
 14 15  1  0  0  0  0
 15 16  1  0  0  0  0
 15 26  1  0  0  0  0
 15 40  1  0  0  0  0
 16 17  1  0  0  0  0
 16 41  1  0  0  0  0
 16 42  1  0  0  0  0
 17 18  1  0  0  0  0
 18 19  2  0  0  0  0
 18 20  1  0  0  0  0
 20 25  1  0  0  0  0
 20 21  2  0  0  0  0
 21 22  1  0  0  0  0
 21 43  1  0  0  0  0
 22 23  2  0  0  0  0
 22 44  1  0  0  0  0
 23 24  1  0  0  0  0
 23 45  1  0  0  0  0
 24 25  2  0  0  0  0
 24 46  1  0  0  0  0
 25 47  1  0  0  0  0
 26 27  1  0  0  0  0
 26 28  1  0  0  0  0
 26 48  1  0  0  0  0
 28 29  1  0  0  0  0
 28 49  1  0  0  0  0
 29 50  1  0  0  0  0
 30 35  1  0  0  0  0
 30 31  2  0  0  0  0
 31 32  1  0  0  0  0
 31 51  1  0  0  0  0
 32 33  2  0  0  0  0
 32 52  1  0  0  0  0
 33 34  1  0  0  0  0
 33 53  1  0  0  0  0
 34 35  2  0  0  0  0
 34 54  1  0  0  0  0
 35 55  1  0  0  0  0
M  END
> <s_m_source_file>
AV-unprocessed.smi

> <i_m_source_file_index>
34

> <i_lp_mmshare_version>
43012

> <i_f3d_flags>
0

> <s_epik_input>
W2NIXTFbY0hdW2NIXVtjSF1bY0hdYzFDKD1PKVtOSF1jKG5bY0hdbjIpYyhjMjMpbltjSF1uM1tDQEBIXTRPW0NASF0oW0NAQEhdKEYpW0NASF00W09IXSlbQ0gyXU9DKD1PKWM1W2NIXVtjSF1bY0hdW2NIXVtjSF01

> <s_epik_cmdline>
J2VwaWtfcHl0aG9uJywgJy1waCcsICc3LjAnLCAnLXRuJywgJzgnLCAnLW1hJywgJzIwMCcsICctbWV0YWxfYmluZGluZycsICctaW1hZScsICc8aW5maWxlLm1hZT4nLCAnLW9tYWUnLCAnPG91dGZpbGUubWFlPic=

> <r_lp_tautomer_probability>
1

> <r_epik_Ionization_Penalty>
0.00257489

> <r_epik_Ionization_Penalty_Charging>
0

> <r_epik_Ionization_Penalty_Neutral>
0.00257489

> <r_epik_State_Penalty>
0.00519398

> <r_epik_Charging_Adjusted_Penalty>
0.00519398

> <i_epik_Tot_Q>
0

> <i_epik_Tot_abs_Q>
0

> <r_epik_Metal_State_Penalty>
0.335891

> <b_epik_Metal_Only>
0

> <s_epik_Chemistry_Notes>
This compound has an ester and may undergo hydrolysis at high or low pH. This compound contains an acetal/aminal-like group ( X-CH(R)-Y where X, Y are N, S, or O) that may be acid/base labile, releasing an aldehyde.

> <s_lp_Force_Field>
OPLS_2005

> <r_lp_Energy>
42.7442

> <b_lp_Chiralities_Consistent>
1

> <s_lp_Variant>
AV-unprocessed.smi:34-5

> <Gold.Version>
5.8.1

> <Gold.Id.Protein>
6NUR|6NUR_protein|mol2

> <Gold.PLP.Fitness>
56.3494

> <Gold.PLP.PLP>
-48.8942

> <Gold.PLP.part.hbond>
-3.0000

> <Gold.PLP.part.metal>
0.0000

> <Gold.PLP.part.buried>
-6.8275

> <Gold.PLP.part.nonpolar>
-37.4992

> <Gold.PLP.part.repulsive>
0.3394

> <Gold.PLP.ligand.clash>
0.0000

> <Gold.PLP.ligand.torsion>
1.9874

> <Gold.PLP.Chemscore.Hbond>
2.7120

> <Gold.PLP.Chemscore.CHOScore>
1.0000

> <Gold.PLP.Chemscore.Metal>
0.0000

> <Gold.Chemscore.Hbonds>
donor molecule, donor type, donor heavy atom, donor atom, acceptor molecule, acceptor atom, score
      L1  H    29    50       P1  7948  1.00
      P1  H  7989  7998       L1     5  0.80
      P1  H  7997  8009       L1     1  0.91
      L1  C     6    37       P1  7957  1.00

> <Gold.PLP.Chemscore.Internal.Correction>
0.2939

> <Gold.Rescore>
     Score         DG    S(hbond)    S(metal)    S(lipo)     H(rot)  DE(clash)    DE(int)     intcor
     16.78     -19.53       2.06        0.00     120.77       2.72       0.79       1.97       ----

> <Gold.Chemscore.Fitness>
16.7771

> <Gold.Chemscore.DG>
-19.5314

> <Gold.Chemscore.ZeroCoef>
-5.4800

> <Gold.Chemscore.Hbond>
2.0625

> <Gold.Chemscore.Metal>
0.0000

> <Gold.Chemscore.Lipo>
120.7663

> <Gold.Chemscore.Internal_Hbond>
0.0000

> <Gold.Chemscore.DEClash>
0.7881

> <Gold.Chemscore.DEInternal>
1.9661

> <Gold.Chemscore.Rot>
2.7215

> <Gold.Chemscore.Internal.Correction>
   9.000000E+99

> <Gold.Chemscore.Hbonds>
donor molecule, donor type, donor heavy atom, donor atom, acceptor molecule, acceptor atom, score
      L1  H    29    50       P1  7948  0.23
      P1  H  7989  7998       L1     5  0.12
      P1  H  7997  8009       L1     1  0.84

> <Gold.Chemscore.Hbond.Weighted>
-6.8887

> <Gold.Chemscore.Metal.Weighted>
-0.0000

> <Gold.Chemscore.Lipo.Weighted>
-14.1297

> <Gold.Chemscore.Internal_Hbond.Weighted>
0.0000

> <Gold.Chemscore.DEClash.Weighted>
0.7881

> <Gold.Chemscore.DEInternal.Weighted>
1.9661

> <Gold.Chemscore.Rot.Weighted>
6.9670

> <Gold.Chemscore.Internal.Correction.Weighted>
   9.000000E+99

> <Gold.Protein.RotatedTorsions>
[ 6907 6896 6895 6894 ] final   10.38 input  -60.11 | X-H torsion
[ 7974 7965 7964 7962 ] final  -21.01 input  175.53 | X-H torsion
[ 8008 7997 7996 7995 ] final  167.04 input   59.86 | X-H torsion
[ 10167 10162 10161 10158 ] final   -6.99 input  -65.29 | X-H torsion
[ 10718 10713 10712 10709 ] final  158.21 input   66.30 | X-H torsion
[ 10763 10752 10751 10750 ] final  -16.43 input  -60.55 | X-H torsion
[ 11005 11000 10999 10996 ] final -142.83 input  -57.11 | X-H torsion

> <Gold.Protein.ActiveResidues>
 VAL166  LYS551  ARG553  GLY616  TRP617  ASP618  TYR619  PRO620  LYS621  CYS622 
 ASP623  PHE694  ASN695  SER759  ASP760  ASP761  ALA762  ILE779  LEU786  VAL792 
 PHE793  MET794  SER795  GLU796  ALA797  LYS798  CYS799  TRP800  GLU811  SER814 

> <Gold.Protein.RotatedAtoms>
  151.7373  135.0862  160.0309 H   0  0  0  0  0  0  0  0  0  0  0  0  # atno 6907 bound_to 6896
  152.3502  133.6166  159.5948 H   0  0  0  0  0  0  0  0  0  0  0  0  # atno 6908 bound_to 6896
  150.7535  133.9502  159.3525 H   0  0  0  0  0  0  0  0  0  0  0  0  # atno 6909 bound_to 6896
  146.1757  140.4281  142.8514 H   0  0  0  0  0  0  0  0  0  0  0  0  # atno 7974 bound_to 7965
  156.1668  140.1627  156.8518 H   0  0  0  0  0  0  0  0  0  0  0  0  # atno 8008 bound_to 7997
  154.5215  140.0777  156.8216 H   0  0  0  0  0  0  0  0  0  0  0  0  # atno 8009 bound_to 7997
  155.3596  140.3394  155.4243 H   0  0  0  0  0  0  0  0  0  0  0  0  # atno 8010 bound_to 7997
  140.7015  143.6131  150.8684 H   0  0  0  0  0  0  0  0  0  0  0  0  # atno 10167 bound_to 10162
  157.1809  131.0632  151.2132 H   0  0  0  0  0  0  0  0  0  0  0  0  # atno 10718 bound_to 10713
  153.5585  135.7010  153.5558 H   0  0  0  0  0  0  0  0  0  0  0  0  # atno 10763 bound_to 10752
  153.3451  135.4010  155.1602 H   0  0  0  0  0  0  0  0  0  0  0  0  # atno 10764 bound_to 10752
  154.8651  135.3751  154.5100 H   0  0  0  0  0  0  0  0  0  0  0  0  # atno 10765 bound_to 10752
  140.8186  134.2658  157.4910 H   0  0  0  0  0  0  0  0  0  0  0  0  # atno 11005 bound_to 11000
  144.8232  140.6585  143.6339 LP  0  0  0  0  0  0  0  0  0  0  0  0  # atno 17320 bound_to 7965
  145.4219  139.1562  143.4069 LP  0  0  0  0  0  0  0  0  0  0  0  0  # atno 17321 bound_to 7965
  139.9854  143.5906  152.2929 LP  0  0  0  0  0  0  0  0  0  0  0  0  # atno 17342 bound_to 10162
  139.6541  144.7661  151.2089 LP  0  0  0  0  0  0  0  0  0  0  0  0  # atno 17343 bound_to 10162
  157.3953  130.7304  149.6727 LP  0  0  0  0  0  0  0  0  0  0  0  0  # atno 17370 bound_to 10713
  155.9724  130.4135  150.4087 LP  0  0  0  0  0  0  0  0  0  0  0  0  # atno 17371 bound_to 10713
  139.8709  134.9523  156.4111 LP  0  0  0  0  0  0  0  0  0  0  0  0  # atno 17394 bound_to 11000
  140.9122  133.7703  155.9806 LP  0  0  0  0  0  0  0  0  0  0  0  0  # atno 17395 bound_to 11000

$$$$
