AV-unprocessed.smi:167|AV-procd|sdf|1393|dock1
  -GOLD-   2262019133D 1   1.00000     0.00000
 Structure written by MMmdl.
 51 55  0  0  0  0  0  0  0  0  1 V2000
  149.8386  142.8434  157.6206 O   0  0  0  0  0  0  0  0  0  0  0  0
  150.1232  141.4725  157.4419 C   0  0  0  0  0  0  0  0  0  0  0  0
  149.0287  140.8070  156.5864 C   0  0  1  0  0  0  0  0  0  0  0  0
  148.9929  141.2646  155.1172 C   0  0  0  0  0  0  0  0  0  0  0  0
  148.9652  139.9147  154.3793 C   0  0  1  0  0  0  0  0  0  0  0  0
  150.3830  139.3055  154.4123 C   0  0  0  0  0  0  0  0  0  0  0  0
  150.4609  138.8107  155.8643 C   0  0  0  0  0  0  0  0  0  0  0  0
  149.0936  139.2708  156.4161 C   0  0  2  0  0  0  0  0  0  0  0  0
  148.1959  139.0728  155.2872 N   0  0  0  0  0  0  0  0  0  0  0  0
  147.8114  137.8200  154.9154 C   0  0  0  0  0  0  0  0  0  0  0  0
  148.4672  136.7506  155.4411 N   0  0  0  0  0  0  0  0  0  0  0  0
  148.1187  135.5061  155.1045 C   0  0  0  0  0  0  0  0  0  0  0  0
  147.1654  135.1069  154.2622 N   0  0  0  0  0  0  0  0  0  0  0  0
  146.5163  136.1718  153.7111 C   0  0  0  0  0  0  0  0  0  0  0  0
  146.7700  137.5484  153.9796 C   0  0  0  0  0  0  0  0  0  0  0  0
  145.9035  138.3344  153.2282 N   0  0  0  0  0  0  0  0  0  0  0  0
  145.1716  137.4765  152.5722 C   0  0  0  0  0  0  0  0  0  0  0  0
  145.4902  136.1547  152.7830 N   0  0  0  0  0  0  0  0  0  0  0  0
  144.8361  135.0075  152.2246 C   0  0  0  0  0  0  0  0  0  0  0  0
  145.3545  133.5943  152.5064 C   0  0  0  0  0  0  0  0  0  0  0  0
  144.8776  133.1528  151.1032 C   0  0  0  0  0  0  0  0  0  0  0  0
  145.7932  132.1986  150.3106 C   0  0  0  0  0  0  0  0  0  0  0  0
  147.1321  132.6490  150.2588 O   0  0  0  0  0  0  0  0  0  0  0  0
  143.4526  132.5705  151.0437 C   0  0  0  0  0  0  0  0  0  0  0  0
  143.0568  132.3009  149.7139 O   0  0  0  0  0  0  0  0  0  0  0  0
  144.9629  134.6532  150.7389 C   0  0  0  0  0  0  0  0  0  0  0  0
  149.4772  143.1830  156.8161 H   0  0  0  0  0  0  0  0  0  0  0  0
  151.0872  141.3852  156.9401 H   0  0  0  0  0  0  0  0  0  0  0  0
  150.2355  140.9906  158.4122 H   0  0  0  0  0  0  0  0  0  0  0  0
  148.0638  141.0495  157.0357 H   0  0  0  0  0  0  0  0  0  0  0  0
  148.0873  141.8392  154.9184 H   0  0  0  0  0  0  0  0  0  0  0  0
  149.8487  141.8777  154.8320 H   0  0  0  0  0  0  0  0  0  0  0  0
  148.5553  140.0018  153.3725 H   0  0  0  0  0  0  0  0  0  0  0  0
  150.4749  138.4711  153.7162 H   0  0  0  0  0  0  0  0  0  0  0  0
  151.1589  140.0326  154.1706 H   0  0  0  0  0  0  0  0  0  0  0  0
  150.5348  137.7224  155.8887 H   0  0  0  0  0  0  0  0  0  0  0  0
  151.3159  139.2046  156.4113 H   0  0  0  0  0  0  0  0  0  0  0  0
  148.8110  138.7561  157.3323 H   0  0  0  0  0  0  0  0  0  0  0  0
  148.6863  134.7179  155.5763 H   0  0  0  0  0  0  0  0  0  0  0  0
  144.3798  137.7903  151.9076 H   0  0  0  0  0  0  0  0  0  0  0  0
  143.7866  135.0948  152.5103 H   0  0  0  0  0  0  0  0  0  0  0  0
  146.4387  133.5704  152.6285 H   0  0  0  0  0  0  0  0  0  0  0  0
  144.8617  133.0961  153.3418 H   0  0  0  0  0  0  0  0  0  0  0  0
  145.8012  131.2023  150.7535 H   0  0  0  0  0  0  0  0  0  0  0  0
  145.4388  132.0842  149.2856 H   0  0  0  0  0  0  0  0  0  0  0  0
  147.6790  131.9329  149.9737 H   0  0  0  0  0  0  0  0  0  0  0  0
  143.3797  131.6401  151.6070 H   0  0  0  0  0  0  0  0  0  0  0  0
  142.7307  133.2538  151.4922 H   0  0  0  0  0  0  0  0  0  0  0  0
  142.3757  132.9107  149.4740 H   0  0  0  0  0  0  0  0  0  0  0  0
  144.1449  135.0201  150.1181 H   0  0  0  0  0  0  0  0  0  0  0  0
  145.9268  134.9495  150.3222 H   0  0  0  0  0  0  0  0  0  0  0  0
  1  2  1  0  0  0  0
  1 27  1  0  0  0  0
  2  3  1  0  0  0  0
  2 28  1  0  0  0  0
  2 29  1  0  0  0  0
  3  8  1  0  0  0  0
  3  4  1  0  0  0  0
  3 30  1  0  0  0  0
  4  5  1  0  0  0  0
  4 31  1  0  0  0  0
  4 32  1  0  0  0  0
  5  9  1  0  0  0  0
  5  6  1  0  0  0  0
  5 33  1  0  0  0  0
  6  7  1  0  0  0  0
  6 34  1  0  0  0  0
  6 35  1  0  0  0  0
  7  8  1  0  0  0  0
  7 36  1  0  0  0  0
  7 37  1  0  0  0  0
  8  9  1  0  0  0  0
  8 38  1  0  0  0  0
  9 10  1  0  0  0  0
 10 15  1  0  0  0  0
 10 11  2  0  0  0  0
 11 12  1  0  0  0  0
 12 13  2  0  0  0  0
 12 39  1  0  0  0  0
 13 14  1  0  0  0  0
 14 18  1  0  0  0  0
 14 15  2  0  0  0  0
 15 16  1  0  0  0  0
 16 17  2  0  0  0  0
 17 18  1  0  0  0  0
 17 40  1  0  0  0  0
 18 19  1  0  0  0  0
 19 26  1  0  0  0  0
 19 20  1  0  0  0  0
 19 41  1  0  0  0  0
 20 21  1  0  0  0  0
 20 42  1  0  0  0  0
 20 43  1  0  0  0  0
 21 22  1  0  0  0  0
 21 24  1  0  0  0  0
 21 26  1  0  0  0  0
 22 23  1  0  0  0  0
 22 44  1  0  0  0  0
 22 45  1  0  0  0  0
 23 46  1  0  0  0  0
 24 25  1  0  0  0  0
 24 47  1  0  0  0  0
 24 48  1  0  0  0  0
 25 49  1  0  0  0  0
 26 50  1  0  0  0  0
 26 51  1  0  0  0  0
M  END
> <s_m_source_file>
AV-unprocessed.smi

> <i_m_source_file_index>
167

> <i_lp_mmshare_version>
43012

> <i_f3d_flags>
0

> <s_epik_input>
W09IXVtDSDJdW0NASF0oW0NIMl1bQ0BASF0xMilbQ0BIXShbQ0gyXVtDSDJdMSlOMmMobltjSF1uMyljKGMzNCluW2NIXW40W0NIXShbQ0gyXTUpW0NIMl1DNShbQ0gyXVtPSF0pW0NIMl1bT0hd

> <s_epik_cmdline>
J2VwaWtfcHl0aG9uJywgJy1waCcsICc3LjAnLCAnLXRuJywgJzgnLCAnLW1hJywgJzIwMCcsICctbWV0YWxfYmluZGluZycsICctaW1hZScsICc8aW5maWxlLm1hZT4nLCAnLW9tYWUnLCAnPG91dGZpbGUubWFlPic=

> <r_lp_tautomer_probability>
1

> <r_epik_Ionization_Penalty>
0.0047903

> <r_epik_Ionization_Penalty_Charging>
0

> <r_epik_Ionization_Penalty_Neutral>
0.0047903

> <r_epik_State_Penalty>
0.00341021

> <r_epik_Charging_Adjusted_Penalty>
0.00341021

> <i_epik_Tot_Q>
0

> <i_epik_Tot_abs_Q>
0

> <r_epik_Metal_State_Penalty>
-0

> <b_epik_Metal_Only>
0

> <s_lp_Force_Field>
OPLS_2005

> <r_lp_Energy>
89.0066

> <b_lp_Chiralities_Consistent>
1

> <s_lp_Variant>
AV-unprocessed.smi:167-2

> <Gold.Version>
5.8.1

> <Gold.Id.Protein>
6NUR|6NUR_protein|mol2

> <Gold.PLP.Fitness>
45.9869

> <Gold.PLP.PLP>
-33.5110

> <Gold.PLP.part.hbond>
-4.3917

> <Gold.PLP.part.metal>
0.0000

> <Gold.PLP.part.buried>
-5.0957

> <Gold.PLP.part.nonpolar>
-25.3429

> <Gold.PLP.part.repulsive>
0.4542

> <Gold.PLP.ligand.clash>
0.0000

> <Gold.PLP.ligand.torsion>
0.5853

> <Gold.PLP.Chemscore.Hbond>
3.1463

> <Gold.PLP.Chemscore.CHOScore>
1.2148

> <Gold.PLP.Chemscore.Metal>
0.0000

> <Gold.Chemscore.Hbonds>
donor molecule, donor type, donor heavy atom, donor atom, acceptor molecule, acceptor atom, score
      L1  H     1    27       P1  8028  1.00
      L1  H    23    46       P1 10747  1.00
      L1  H    25    49       P1 10186  0.99
      P1  H 10785 10796       L1    25  0.15
      L1  C    17    40       P1 10171  1.00
      L1  C    17    40       P1 10175  0.21

> <Gold.PLP.Chemscore.Internal.Correction>
0.5632

> <Gold.Rescore>
     Score         DG    S(hbond)    S(metal)    S(lipo)     H(rot)  DE(clash)    DE(int)     intcor
     10.87     -14.41       3.09        0.00      80.16       4.20       0.48       3.06       ----

> <Gold.Chemscore.Fitness>
10.8663

> <Gold.Chemscore.DG>
-14.4077

> <Gold.Chemscore.ZeroCoef>
-5.4800

> <Gold.Chemscore.Hbond>
3.0871

> <Gold.Chemscore.Metal>
0.0000

> <Gold.Chemscore.Lipo>
80.1578

> <Gold.Chemscore.Internal_Hbond>
0.0000

> <Gold.Chemscore.DEClash>
0.4801

> <Gold.Chemscore.DEInternal>
3.0613

> <Gold.Chemscore.Rot>
4.2038

> <Gold.Chemscore.Internal.Correction>
   9.000000E+99

> <Gold.Chemscore.Hbonds>
donor molecule, donor type, donor heavy atom, donor atom, acceptor molecule, acceptor atom, score
      L1  H     1    27       P1  8028  0.90
      L1  H    23    46       P1 10747  0.95
      L1  H    25    49       P1 10186  0.92
      P1  H 10785 10796       L1    25  0.16

> <Gold.Chemscore.Hbond.Weighted>
-10.3109

> <Gold.Chemscore.Metal.Weighted>
-0.0000

> <Gold.Chemscore.Lipo.Weighted>
-9.3785

> <Gold.Chemscore.Internal_Hbond.Weighted>
0.0000

> <Gold.Chemscore.DEClash.Weighted>
0.4801

> <Gold.Chemscore.DEInternal.Weighted>
3.0613

> <Gold.Chemscore.Rot.Weighted>
10.7617

> <Gold.Chemscore.Internal.Correction.Weighted>
   9.000000E+99

> <Gold.Protein.RotatedTorsions>
[ 6907 6896 6895 6894 ] final   55.41 input  -60.11 | X-H torsion
[ 7974 7965 7964 7962 ] final  106.83 input  175.53 | X-H torsion
[ 8008 7997 7996 7995 ] final   -8.91 input   59.86 | X-H torsion
[ 10167 10162 10161 10158 ] final   90.86 input  -65.29 | X-H torsion
[ 10718 10713 10712 10709 ] final   21.25 input   66.30 | X-H torsion
[ 10763 10752 10751 10750 ] final  158.38 input  -60.55 | X-H torsion
[ 11005 11000 10999 10996 ] final -161.91 input  -57.11 | X-H torsion

> <Gold.Protein.ActiveResidues>
 VAL166  LYS551  ARG553  GLY616  TRP617  ASP618  TYR619  PRO620  LYS621  CYS622 
 ASP623  PHE694  ASN695  SER759  ASP760  ASP761  ALA762  ILE779  LEU786  VAL792 
 PHE793  MET794  SER795  GLU796  ALA797  LYS798  CYS799  TRP800  GLU811  SER814 

> <Gold.Protein.RotatedAtoms>
  152.3536  134.6972  160.0228 H   0  0  0  0  0  0  0  0  0  0  0  0  # atno 6907 bound_to 6896
  151.7318  133.3312  159.3350 H   0  0  0  0  0  0  0  0  0  0  0  0  # atno 6908 bound_to 6896
  150.7556  134.6290  159.6221 H   0  0  0  0  0  0  0  0  0  0  0  0  # atno 6909 bound_to 6896
  145.3015  139.2568  143.3811 H   0  0  0  0  0  0  0  0  0  0  0  0  # atno 7974 bound_to 7965
  154.5697  140.2369  155.8211 H   0  0  0  0  0  0  0  0  0  0  0  0  # atno 8008 bound_to 7997
  156.2096  140.3030  155.9662 H   0  0  0  0  0  0  0  0  0  0  0  0  # atno 8009 bound_to 7997
  155.2736  140.0419  157.3000 H   0  0  0  0  0  0  0  0  0  0  0  0  # atno 8010 bound_to 7997
  139.8432  144.6631  150.9258 H   0  0  0  0  0  0  0  0  0  0  0  0  # atno 10167 bound_to 10162
  157.1358  130.6611  149.5965 H   0  0  0  0  0  0  0  0  0  0  0  0  # atno 10718 bound_to 10713
  154.2152  135.2784  155.2944 H   0  0  0  0  0  0  0  0  0  0  0  0  # atno 10763 bound_to 10752
  154.5747  135.5608  153.7131 H   0  0  0  0  0  0  0  0  0  0  0  0  # atno 10764 bound_to 10752
  153.0055  135.6330  154.2291 H   0  0  0  0  0  0  0  0  0  0  0  0  # atno 10765 bound_to 10752
  140.6151  134.4809  157.5219 H   0  0  0  0  0  0  0  0  0  0  0  0  # atno 11005 bound_to 11000
  146.3150  140.3530  142.8658 LP  0  0  0  0  0  0  0  0  0  0  0  0  # atno 17320 bound_to 7965
  144.9090  140.7734  143.5819 LP  0  0  0  0  0  0  0  0  0  0  0  0  # atno 17321 bound_to 7965
  140.7796  143.3894  151.1337 LP  0  0  0  0  0  0  0  0  0  0  0  0  # atno 17342 bound_to 10162
  139.7538  143.8738  152.3083 LP  0  0  0  0  0  0  0  0  0  0  0  0  # atno 17343 bound_to 10162
  155.9798  130.4795  150.6739 LP  0  0  0  0  0  0  0  0  0  0  0  0  # atno 17370 bound_to 10713
  157.4352  131.0854  151.0999 LP  0  0  0  0  0  0  0  0  0  0  0  0  # atno 17371 bound_to 10713
  139.9176  134.8214  156.1315 LP  0  0  0  0  0  0  0  0  0  0  0  0  # atno 17394 bound_to 11000
  141.0781  133.6766  156.2279 LP  0  0  0  0  0  0  0  0  0  0  0  0  # atno 17395 bound_to 11000

$$$$
