AV-unprocessed.smi:3284|AV-procd|sdf|12579|dock2
  -GOLD-   2272018503D 1   1.00000     0.00000
 Structure written by MMmdl.
 45 46  0  0  0  0  0  0  0  0  3 V2000
  152.9351  140.6536  158.6189 C   0  0  0  0  0  0  0  0  0  0  0  0
  152.6478  141.8143  159.5577 C   0  0  0  0  0  0  0  0  0  0  0  0
  152.8837  141.7056  160.8803 C   0  0  0  0  0  0  0  0  0  0  0  0
  152.6923  142.8234  161.8904 C   0  0  0  0  0  0  0  0  0  0  0  0
  152.0237  144.0719  161.2921 C   0  0  0  0  0  0  0  0  0  0  0  0
  152.4891  144.3249  159.8474 C   0  0  2  0  0  0  0  0  0  0  0  0
  152.0091  145.6875  159.3189 C   0  0  0  0  0  0  0  0  0  0  0  0
  152.1391  143.1191  158.9296 C   0  0  2  0  0  0  0  0  0  0  0  0
  150.6309  143.0548  158.5695 C   0  0  0  0  0  0  0  0  0  0  0  0
  150.3854  142.6797  157.1629 N   0  3  0  0  0  0  0  0  0  0  0  0
  150.0809  141.2490  156.9635 C   0  0  0  0  0  0  0  0  0  0  0  0
  150.0485  140.8944  155.4689 C   0  0  0  0  0  0  0  0  0  0  0  0
  148.7518  141.2316  154.7900 C   0  0  0  0  0  0  0  0  0  0  0  0
  148.1625  142.4348  154.7720 N   0  3  0  0  0  0  0  0  0  0  0  0
  147.0100  142.3937  154.0355 C   0  0  0  0  0  0  0  0  0  0  0  0
  146.8962  141.1113  153.5677 C   0  0  0  0  0  0  0  0  0  0  0  0
  147.9836  140.4221  154.0402 N   0  0  0  0  0  0  0  0  0  0  0  0
  148.2959  139.0141  153.7869 C   0  0  0  0  0  0  0  0  0  0  0  0
  153.5276  140.9877  157.7668 H   0  0  0  0  0  0  0  0  0  0  0  0
  152.0179  140.1978  158.2502 H   0  0  0  0  0  0  0  0  0  0  0  0
  153.5011  139.8717  159.1265 H   0  0  0  0  0  0  0  0  0  0  0  0
  153.2688  140.7785  161.2797 H   0  0  0  0  0  0  0  0  0  0  0  0
  152.1119  142.4550  162.7369 H   0  0  0  0  0  0  0  0  0  0  0  0
  153.6781  143.0855  162.2762 H   0  0  0  0  0  0  0  0  0  0  0  0
  150.9401  143.9542  161.3159 H   0  0  0  0  0  0  0  0  0  0  0  0
  152.2446  144.9345  161.9220 H   0  0  0  0  0  0  0  0  0  0  0  0
  153.5786  144.3888  159.8752 H   0  0  0  0  0  0  0  0  0  0  0  0
  150.9267  145.7942  159.3898 H   0  0  0  0  0  0  0  0  0  0  0  0
  152.2984  145.8322  158.2779 H   0  0  0  0  0  0  0  0  0  0  0  0
  152.4490  146.5012  159.8966 H   0  0  0  0  0  0  0  0  0  0  0  0
  152.6959  143.2644  158.0025 H   0  0  0  0  0  0  0  0  0  0  0  0
  150.1171  142.3446  159.2181 H   0  0  0  0  0  0  0  0  0  0  0  0
  150.1606  144.0250  158.7238 H   0  0  0  0  0  0  0  0  0  0  0  0
  149.6114  143.2282  156.8155 H   0  0  0  0  0  0  0  0  0  0  0  0
  150.8361  140.6469  157.4710 H   0  0  0  0  0  0  0  0  0  0  0  0
  149.1198  141.0254  157.4282 H   0  0  0  0  0  0  0  0  0  0  0  0
  150.8303  141.4254  154.9247 H   0  0  0  0  0  0  0  0  0  0  0  0
  150.2228  139.8262  155.3383 H   0  0  0  0  0  0  0  0  0  0  0  0
  146.3772  143.2586  153.8984 H   0  0  0  0  0  0  0  0  0  0  0  0
  146.1419  140.6516  152.9447 H   0  0  0  0  0  0  0  0  0  0  0  0
  147.5757  138.6015  153.0796 H   0  0  0  0  0  0  0  0  0  0  0  0
  148.2395  138.4584  154.7234 H   0  0  0  0  0  0  0  0  0  0  0  0
  149.2989  138.9341  153.3667 H   0  0  0  0  0  0  0  0  0  0  0  0
  151.2107  142.9119  156.6283 H   0  0  0  0  0  0  0  0  0  0  0  0
  148.5198  143.2602  155.2364 H   0  0  0  0  0  0  0  0  0  0  0  0
  1  2  1  0  0  0  0
  1 19  1  0  0  0  0
  1 20  1  0  0  0  0
  1 21  1  0  0  0  0
  2  8  1  0  0  0  0
  2  3  2  0  0  0  0
  3  4  1  0  0  0  0
  3 22  1  0  0  0  0
  4  5  1  0  0  0  0
  4 23  1  0  0  0  0
  4 24  1  0  0  0  0
  5  6  1  0  0  0  0
  5 25  1  0  0  0  0
  5 26  1  0  0  0  0
  6  7  1  0  0  0  0
  6  8  1  0  0  0  0
  6 27  1  0  0  0  0
  7 28  1  0  0  0  0
  7 29  1  0  0  0  0
  7 30  1  0  0  0  0
  8  9  1  0  0  0  0
  8 31  1  0  0  0  0
  9 10  1  0  0  0  0
  9 32  1  0  0  0  0
  9 33  1  0  0  0  0
 10 11  1  0  0  0  0
 10 34  1  0  0  0  0
 10 44  1  0  0  0  0
 11 12  1  0  0  0  0
 11 35  1  0  0  0  0
 11 36  1  0  0  0  0
 12 13  1  0  0  0  0
 12 37  1  0  0  0  0
 12 38  1  0  0  0  0
 13 17  1  0  0  0  0
 13 14  2  0  0  0  0
 14 15  1  0  0  0  0
 14 45  1  0  0  0  0
 15 16  2  0  0  0  0
 15 39  1  0  0  0  0
 16 17  1  0  0  0  0
 16 40  1  0  0  0  0
 17 18  1  0  0  0  0
 18 41  1  0  0  0  0
 18 42  1  0  0  0  0
 18 43  1  0  0  0  0
M  CHG  1  10   1
M  CHG  1  14   1
M  END
> <s_m_source_file>
AV-unprocessed.smi

> <i_m_source_file_index>
3284

> <i_lp_mmshare_version>
43012

> <i_f3d_flags>
0

> <s_epik_input>
W0NIM11DMT1bQ0hdW0NIMl1bQ0gyXVtDQEBIXShbQ0gzXSlbQ0BIXTFbQ0gyXVtOSF1bQ0gyXVtDSDJdYzJuW2NIXVtjSF1uMltDSDNd

> <s_epik_cmdline>
J2VwaWtfcHl0aG9uJywgJy1waCcsICc3LjAnLCAnLXRuJywgJzgnLCAnLW1hJywgJzIwMCcsICctbWV0YWxfYmluZGluZycsICctaW1hZScsICc8aW5maWxlLm1hZT4nLCAnLW9tYWUnLCAnPG91dGZpbGUubWFlPic=

> <r_lp_tautomer_probability>
1

> <r_epik_Ionization_Penalty>
0.892846

> <r_epik_Ionization_Penalty_Charging>
0.00275802

> <r_epik_Ionization_Penalty_Neutral>
0.890088

> <r_epik_State_Penalty>
0.485211

> <r_epik_Charging_Adjusted_Penalty>
0.487969

> <i_epik_Tot_Q>
2

> <i_epik_Tot_abs_Q>
2

> <r_epik_Metal_State_Penalty>
4.22898

> <b_epik_Metal_Only>
0

> <s_lp_Force_Field>
OPLS_2005

> <r_lp_Energy>
23.7341

> <b_lp_Chiralities_Consistent>
1

> <s_lp_Variant>
AV-unprocessed.smi:3284-8

> <Gold.Version>
5.8.1

> <Gold.Id.Protein>
6NUR|6NUR_protein|mol2

> <Gold.PLP.Fitness>
59.8382

> <Gold.PLP.PLP>
-46.6842

> <Gold.PLP.part.hbond>
-2.0000

> <Gold.PLP.part.metal>
0.0000

> <Gold.PLP.part.buried>
-4.0095

> <Gold.PLP.part.nonpolar>
-41.1458

> <Gold.PLP.part.repulsive>
0.2050

> <Gold.PLP.ligand.clash>
0.0000

> <Gold.PLP.ligand.torsion>
0.9546

> <Gold.PLP.Chemscore.Hbond>
4.0000

> <Gold.PLP.Chemscore.CHOScore>
1.0000

> <Gold.PLP.Chemscore.Metal>
0.0000

> <Gold.Chemscore.Hbonds>
donor molecule, donor type, donor heavy atom, donor atom, acceptor molecule, acceptor atom, score
      L1  H    10    34       P1  8028  2.00
      L1  H    14    45       P1  8028  2.00
      L1  C    16    40       P1 10175  1.00

> <Gold.PLP.Chemscore.Internal.Correction>
0.0632

> <Gold.Rescore>
     Score         DG    S(hbond)    S(metal)    S(lipo)     H(rot)  DE(clash)    DE(int)     intcor
     21.62     -22.63       1.96        0.00     127.82       1.70       0.08       0.93       ----

> <Gold.Chemscore.Fitness>
21.6201

> <Gold.Chemscore.DG>
-22.6330

> <Gold.Chemscore.ZeroCoef>
-5.4800

> <Gold.Chemscore.Hbond>
1.9610

> <Gold.Chemscore.Metal>
0.0000

> <Gold.Chemscore.Lipo>
127.8170

> <Gold.Chemscore.Internal_Hbond>
0.0000

> <Gold.Chemscore.DEClash>
0.0820

> <Gold.Chemscore.DEInternal>
0.9310

> <Gold.Chemscore.Rot>
1.6997

> <Gold.Chemscore.Internal.Correction>
   9.000000E+99

> <Gold.Chemscore.Hbonds>
donor molecule, donor type, donor heavy atom, donor atom, acceptor molecule, acceptor atom, score
      L1  H    10    34       P1  8028  0.90
      L1  H    14    45       P1  8028  0.94

> <Gold.Chemscore.Hbond.Weighted>
-6.5496

> <Gold.Chemscore.Metal.Weighted>
-0.0000

> <Gold.Chemscore.Lipo.Weighted>
-14.9546

> <Gold.Chemscore.Internal_Hbond.Weighted>
0.0000

> <Gold.Chemscore.DEClash.Weighted>
0.0820

> <Gold.Chemscore.DEInternal.Weighted>
0.9310

> <Gold.Chemscore.Rot.Weighted>
4.3512

> <Gold.Chemscore.Internal.Correction.Weighted>
   9.000000E+99

> <Gold.Protein.RotatedTorsions>
[ 6907 6896 6895 6894 ] final -112.16 input  -60.11 | X-H torsion
[ 7974 7965 7964 7962 ] final -151.24 input  175.53 | X-H torsion
[ 8008 7997 7996 7995 ] final  -83.16 input   59.86 | X-H torsion
[ 10167 10162 10161 10158 ] final   -9.24 input  -65.29 | X-H torsion
[ 10718 10713 10712 10709 ] final -162.15 input   66.30 | X-H torsion
[ 10763 10752 10751 10750 ] final   48.96 input  -60.55 | X-H torsion
[ 11005 11000 10999 10996 ] final -117.61 input  -57.11 | X-H torsion

> <Gold.Protein.ActiveResidues>
 VAL166  LYS551  ARG553  GLY616  TRP617  ASP618  TYR619  PRO620  LYS621  CYS622 
 ASP623  PHE694  ASN695  SER759  ASP760  ASP761  ALA762  ILE779  LEU786  VAL792 
 PHE793  MET794  SER795  GLU796  ALA797  LYS798  CYS799  TRP800  GLU811  SER814 

> <Gold.Protein.RotatedAtoms>
  150.7739  133.9130  159.3374 H   0  0  0  0  0  0  0  0  0  0  0  0  # atno 6907 bound_to 6896
  151.7009  135.0928  160.0260 H   0  0  0  0  0  0  0  0  0  0  0  0  # atno 6908 bound_to 6896
  152.3768  133.6454  159.6165 H   0  0  0  0  0  0  0  0  0  0  0  0  # atno 6909 bound_to 6896
  144.7861  140.4825  143.5805 H   0  0  0  0  0  0  0  0  0  0  0  0  # atno 7974 bound_to 7965
  154.6161  140.0623  156.9556 H   0  0  0  0  0  0  0  0  0  0  0  0  # atno 8008 bound_to 7997
  155.1893  140.3306  155.4343 H   0  0  0  0  0  0  0  0  0  0  0  0  # atno 8009 bound_to 7997
  156.2405  140.1884  156.6984 H   0  0  0  0  0  0  0  0  0  0  0  0  # atno 8010 bound_to 7997
  140.7082  143.5879  150.8924 H   0  0  0  0  0  0  0  0  0  0  0  0  # atno 10167 bound_to 10162
  156.6064  130.8832  151.2926 H   0  0  0  0  0  0  0  0  0  0  0  0  # atno 10718 bound_to 10713
  152.9789  135.5927  154.4011 H   0  0  0  0  0  0  0  0  0  0  0  0  # atno 10763 bound_to 10752
  154.3657  135.2767  155.2297 H   0  0  0  0  0  0  0  0  0  0  0  0  # atno 10764 bound_to 10752
  154.4274  135.6044  153.6102 H   0  0  0  0  0  0  0  0  0  0  0  0  # atno 10765 bound_to 10752
  141.0343  133.9933  157.3095 H   0  0  0  0  0  0  0  0  0  0  0  0  # atno 11005 bound_to 11000
  145.5917  139.1496  143.3178 LP  0  0  0  0  0  0  0  0  0  0  0  0  # atno 17320 bound_to 7965
  146.2094  140.6043  142.9066 LP  0  0  0  0  0  0  0  0  0  0  0  0  # atno 17321 bound_to 7965
  139.9605  143.6169  152.3003 LP  0  0  0  0  0  0  0  0  0  0  0  0  # atno 17342 bound_to 10162
  139.6720  144.7660  151.1765 LP  0  0  0  0  0  0  0  0  0  0  0  0  # atno 17343 bound_to 10162
  157.7266  130.9631  150.1663 LP  0  0  0  0  0  0  0  0  0  0  0  0  # atno 17370 bound_to 10713
  156.2426  130.3692  149.8320 LP  0  0  0  0  0  0  0  0  0  0  0  0  # atno 17371 bound_to 10713
  139.9230  135.0201  156.8132 LP  0  0  0  0  0  0  0  0  0  0  0  0  # atno 17394 bound_to 11000
  140.6350  133.9870  155.7680 LP  0  0  0  0  0  0  0  0  0  0  0  0  # atno 17395 bound_to 11000

$$$$
