AV-unprocessed.smi:1670|AV-procd|sdf|6696|dock2
  -GOLD-   22720 7433D 1   1.00000     0.00000
 Structure written by MMmdl.
 41 42  0  0  0  0  0  0  0  0  1 V2000
  147.8688  137.5708  155.8301 C   0  0  0  0  0  0  0  0  0  0  0  0
  147.3935  138.1029  154.4713 C   0  0  1  0  0  0  0  0  0  0  0  0
  148.2779  139.2702  153.9841 C   0  0  0  0  0  0  0  0  0  0  0  0
  149.6756  139.1003  154.3424 N   0  0  0  0  0  0  0  0  0  0  0  0
  150.5011  138.0259  154.0861 C   0  0  0  0  0  0  0  0  0  0  0  0
  151.7207  138.3121  154.6291 C   0  0  0  0  0  0  0  0  0  0  0  0
  151.5414  139.6024  155.2014 C   0  0  0  0  0  0  0  0  0  0  0  0
  150.3178  140.0736  155.0246 N   0  0  0  0  0  0  0  0  0  0  0  0
  147.3979  137.0076  153.5021 N   0  0  0  0  0  0  0  0  0  0  0  0
  146.5089  136.0044  153.4553 C   0  0  0  0  0  0  0  0  0  0  0  0
  145.5868  135.8580  154.2581 O   0  0  0  0  0  0  0  0  0  0  0  0
  146.7374  135.1877  152.4177 N   0  0  0  0  0  0  0  0  0  0  0  0
  145.9280  134.0238  152.0705 C   0  0  2  0  0  0  0  0  0  0  0  0
  146.5351  133.2811  150.8636 C   0  0  0  0  0  0  0  0  0  0  0  0
  145.6635  132.0856  150.4404 C   0  0  0  0  0  0  0  0  0  0  0  0
  144.2020  132.4920  150.1710 C   0  0  2  0  0  0  0  0  0  0  0  0
  144.1223  133.2625  148.9880 O   0  0  0  0  0  0  0  0  0  0  0  0
  143.6042  133.2777  151.3535 C   0  0  0  0  0  0  0  0  0  0  0  0
  144.4861  134.4690  151.7674 C   0  0  0  0  0  0  0  0  0  0  0  0
  147.8506  138.3559  156.5866 H   0  0  0  0  0  0  0  0  0  0  0  0
  148.8883  137.1877  155.7731 H   0  0  0  0  0  0  0  0  0  0  0  0
  147.2274  136.7616  156.1816 H   0  0  0  0  0  0  0  0  0  0  0  0
  146.3756  138.4724  154.6093 H   0  0  0  0  0  0  0  0  0  0  0  0
  148.2223  139.3519  152.8980 H   0  0  0  0  0  0  0  0  0  0  0  0
  147.9162  140.2190  154.3849 H   0  0  0  0  0  0  0  0  0  0  0  0
  150.1532  137.1547  153.5510 H   0  0  0  0  0  0  0  0  0  0  0  0
  152.6053  137.6928  154.6212 H   0  0  0  0  0  0  0  0  0  0  0  0
  152.2591  140.2066  155.7360 H   0  0  0  0  0  0  0  0  0  0  0  0
  148.1153  137.0353  152.7928 H   0  0  0  0  0  0  0  0  0  0  0  0
  147.5187  135.3942  151.8128 H   0  0  0  0  0  0  0  0  0  0  0  0
  145.8975  133.3439  152.9243 H   0  0  0  0  0  0  0  0  0  0  0  0
  146.6445  133.9683  150.0236 H   0  0  0  0  0  0  0  0  0  0  0  0
  147.5390  132.9298  151.1047 H   0  0  0  0  0  0  0  0  0  0  0  0
  146.0913  131.6029  149.5610 H   0  0  0  0  0  0  0  0  0  0  0  0
  145.6830  131.3386  151.2350 H   0  0  0  0  0  0  0  0  0  0  0  0
  143.6070  131.5935  150.0043 H   0  0  0  0  0  0  0  0  0  0  0  0
  144.9772  133.6218  148.8053 H   0  0  0  0  0  0  0  0  0  0  0  0
  142.5986  133.6225  151.1096 H   0  0  0  0  0  0  0  0  0  0  0  0
  143.4956  132.6067  152.2065 H   0  0  0  0  0  0  0  0  0  0  0  0
  144.0540  134.9554  152.6427 H   0  0  0  0  0  0  0  0  0  0  0  0
  144.4877  135.2148  150.9709 H   0  0  0  0  0  0  0  0  0  0  0  0
  1  2  1  0  0  0  0
  1 20  1  0  0  0  0
  1 21  1  0  0  0  0
  1 22  1  0  0  0  0
  2  3  1  0  0  0  0
  2  9  1  0  0  0  0
  2 23  1  0  0  0  0
  3  4  1  0  0  0  0
  3 24  1  0  0  0  0
  3 25  1  0  0  0  0
  4  8  1  0  0  0  0
  4  5  1  0  0  0  0
  5  6  2  0  0  0  0
  5 26  1  0  0  0  0
  6  7  1  0  0  0  0
  6 27  1  0  0  0  0
  7  8  2  0  0  0  0
  7 28  1  0  0  0  0
  9 10  1  0  0  0  0
  9 29  1  0  0  0  0
 10 11  2  0  0  0  0
 10 12  1  0  0  0  0
 12 13  1  0  0  0  0
 12 30  1  0  0  0  0
 13 19  1  0  0  0  0
 13 14  1  0  0  0  0
 13 31  1  0  0  0  0
 14 15  1  0  0  0  0
 14 32  1  0  0  0  0
 14 33  1  0  0  0  0
 15 16  1  0  0  0  0
 15 34  1  0  0  0  0
 15 35  1  0  0  0  0
 16 17  1  0  0  0  0
 16 18  1  0  0  0  0
 16 36  1  0  0  0  0
 17 37  1  0  0  0  0
 18 19  1  0  0  0  0
 18 38  1  0  0  0  0
 18 39  1  0  0  0  0
 19 40  1  0  0  0  0
 19 41  1  0  0  0  0
M  END
> <s_m_source_file>
AV-unprocessed.smi

> <i_m_source_file_index>
1670

> <i_lp_mmshare_version>
43012

> <i_f3d_flags>
0

> <s_epik_input>
bjFbY0hdW2NIXVtjSF1uMVtDSDJdW0NAQEhdKFtDSDNdKVtOSF1DKD1PKVtOSF1bQ0BASF0yW0NIMl1bQ0gyXVtDQEBIXShbT0hdKVtDSDJdW0NIMl0y

> <s_epik_cmdline>
J2VwaWtfcHl0aG9uJywgJy1waCcsICc3LjAnLCAnLXRuJywgJzgnLCAnLW1hJywgJzIwMCcsICctbWV0YWxfYmluZGluZycsICctaW1hZScsICc8aW5maWxlLm1hZT4nLCAnLW9tYWUnLCAnPG91dGZpbGUubWFlPic=

> <r_lp_tautomer_probability>
1

> <r_epik_Ionization_Penalty>
7.33369e-05

> <r_epik_Ionization_Penalty_Charging>
0

> <r_epik_Ionization_Penalty_Neutral>
7.33369e-05

> <r_epik_State_Penalty>
-0

> <r_epik_Charging_Adjusted_Penalty>
0

> <i_epik_Tot_Q>
0

> <i_epik_Tot_abs_Q>
0

> <r_epik_Metal_State_Penalty>
-0

> <b_epik_Metal_Only>
0

> <s_lp_Force_Field>
OPLS_2005

> <r_lp_Energy>
7.95732

> <b_lp_Chiralities_Consistent>
1

> <s_lp_Variant>
AV-unprocessed.smi:1670-4

> <Gold.Version>
5.8.1

> <Gold.Id.Protein>
6NUR|6NUR_protein|mol2

> <Gold.PLP.Fitness>
43.3237

> <Gold.PLP.PLP>
-32.6433

> <Gold.PLP.part.hbond>
-2.9909

> <Gold.PLP.part.metal>
0.0000

> <Gold.PLP.part.buried>
-3.9883

> <Gold.PLP.part.nonpolar>
-26.3551

> <Gold.PLP.part.repulsive>
0.1074

> <Gold.PLP.ligand.clash>
0.0000

> <Gold.PLP.ligand.torsion>
0.5139

> <Gold.PLP.Chemscore.Hbond>
2.8000

> <Gold.PLP.Chemscore.CHOScore>
1.0810

> <Gold.PLP.Chemscore.Metal>
0.0000

> <Gold.Chemscore.Hbonds>
donor molecule, donor type, donor heavy atom, donor atom, acceptor molecule, acceptor atom, score
      L1  H     9    29       P1  7948  0.81
      L1  H    12    30       P1  7948  0.82
      L1  H    17    37       P1  7921  0.96
      L1  C     5    26       P1  7948  0.94
      L1  C     5    26       P1  7949  0.12

> <Gold.PLP.Chemscore.Internal.Correction>
0.0653

> <Gold.Rescore>
     Score         DG    S(hbond)    S(metal)    S(lipo)     H(rot)  DE(clash)    DE(int)     intcor
     16.50     -17.35       2.66        0.00      74.27       2.22       0.29       0.56       ----

> <Gold.Chemscore.Fitness>
16.5021

> <Gold.Chemscore.DG>
-17.3508

> <Gold.Chemscore.ZeroCoef>
-5.4800

> <Gold.Chemscore.Hbond>
2.6558

> <Gold.Chemscore.Metal>
0.0000

> <Gold.Chemscore.Lipo>
74.2706

> <Gold.Chemscore.Internal_Hbond>
0.0000

> <Gold.Chemscore.DEClash>
0.2863

> <Gold.Chemscore.DEInternal>
0.5623

> <Gold.Chemscore.Rot>
2.2224

> <Gold.Chemscore.Internal.Correction>
   9.000000E+99

> <Gold.Chemscore.Hbonds>
donor molecule, donor type, donor heavy atom, donor atom, acceptor molecule, acceptor atom, score
      L1  H     9    29       P1  7948  0.77
      L1  H    12    30       P1  7948  0.79
      L1  H    17    37       P1  7921  0.76

> <Gold.Chemscore.Hbond.Weighted>
-8.8704

> <Gold.Chemscore.Metal.Weighted>
-0.0000

> <Gold.Chemscore.Lipo.Weighted>
-8.6897

> <Gold.Chemscore.Internal_Hbond.Weighted>
0.0000

> <Gold.Chemscore.DEClash.Weighted>
0.2863

> <Gold.Chemscore.DEInternal.Weighted>
0.5623

> <Gold.Chemscore.Rot.Weighted>
5.6893

> <Gold.Chemscore.Internal.Correction.Weighted>
   9.000000E+99

> <Gold.Protein.RotatedTorsions>
[ 6907 6896 6895 6894 ] final   34.13 input  -60.11 | X-H torsion
[ 7974 7965 7964 7962 ] final   69.24 input  175.53 | X-H torsion
[ 8008 7997 7996 7995 ] final   31.61 input   59.86 | X-H torsion
[ 10167 10162 10161 10158 ] final -144.34 input  -65.29 | X-H torsion
[ 10718 10713 10712 10709 ] final  -58.78 input   66.30 | X-H torsion
[ 10763 10752 10751 10750 ] final -163.00 input  -60.55 | X-H torsion
[ 11005 11000 10999 10996 ] final -115.19 input  -57.11 | X-H torsion

> <Gold.Protein.ActiveResidues>
 VAL166  LYS551  ARG553  GLY616  TRP617  ASP618  TYR619  PRO620  LYS621  CYS622 
 ASP623  PHE694  ASN695  SER759  ASP760  ASP761  ALA762  ILE779  LEU786  VAL792 
 PHE793  MET794  SER795  GLU796  ALA797  LYS798  CYS799  TRP800  GLU811  SER814 

> <Gold.Protein.RotatedAtoms>
  152.0981  134.9361  160.0570 H   0  0  0  0  0  0  0  0  0  0  0  0  # atno 6907 bound_to 6896
  152.0586  133.4047  159.4416 H   0  0  0  0  0  0  0  0  0  0  0  0  # atno 6908 bound_to 6896
  150.6838  134.3146  159.4804 H   0  0  0  0  0  0  0  0  0  0  0  0  # atno 6909 bound_to 6896
  145.7928  139.2942  143.1200 H   0  0  0  0  0  0  0  0  0  0  0  0  # atno 7974 bound_to 7965
  155.1092  140.3237  155.4526 H   0  0  0  0  0  0  0  0  0  0  0  0  # atno 8008 bound_to 7997
  156.2695  140.2047  156.6165 H   0  0  0  0  0  0  0  0  0  0  0  0  # atno 8009 bound_to 7997
  154.6769  140.0530  157.0212 H   0  0  0  0  0  0  0  0  0  0  0  0  # atno 8010 bound_to 7997
  139.7908  143.7969  152.2649 H   0  0  0  0  0  0  0  0  0  0  0  0  # atno 10167 bound_to 10162
  156.1110  130.4175  150.0624 H   0  0  0  0  0  0  0  0  0  0  0  0  # atno 10718 bound_to 10713
  154.7163  135.3016  154.9118 H   0  0  0  0  0  0  0  0  0  0  0  0  # atno 10763 bound_to 10752
  154.0004  135.6707  153.4763 H   0  0  0  0  0  0  0  0  0  0  0  0  # atno 10764 bound_to 10752
  153.0796  135.5016  154.8391 H   0  0  0  0  0  0  0  0  0  0  0  0  # atno 10765 bound_to 10752
  141.0503  133.9697  157.2847 H   0  0  0  0  0  0  0  0  0  0  0  0  # atno 11005 bound_to 11000
  145.9959  140.8562  143.0043 LP  0  0  0  0  0  0  0  0  0  0  0  0  # atno 17320 bound_to 7965
  144.6779  140.2283  143.7358 LP  0  0  0  0  0  0  0  0  0  0  0  0  # atno 17321 bound_to 7965
  139.8060  144.7355  150.9761 LP  0  0  0  0  0  0  0  0  0  0  0  0  # atno 17342 bound_to 10162
  140.7820  143.4298  151.0712 LP  0  0  0  0  0  0  0  0  0  0  0  0  # atno 17343 bound_to 10162
  156.8587  130.9484  151.3620 LP  0  0  0  0  0  0  0  0  0  0  0  0  # atno 17370 bound_to 10713
  157.6291  130.8715  149.9242 LP  0  0  0  0  0  0  0  0  0  0  0  0  # atno 17371 bound_to 10713
  139.9345  135.0197  156.8511 LP  0  0  0  0  0  0  0  0  0  0  0  0  # atno 17394 bound_to 11000
  140.6067  134.0120  155.7560 LP  0  0  0  0  0  0  0  0  0  0  0  0  # atno 17395 bound_to 11000

$$$$
