AV-unprocessed.smi:2058|AV-procd|sdf|8344|dock5
  -GOLD-   2272011 13D 1   1.00000     0.00000
 Structure written by MMmdl.
 42 43  0  0  0  0  0  0  0  0  1 V2000
  144.8192  137.4255  152.7150 C   0  0  0  0  0  0  0  0  0  0  0  0
  145.8570  137.7329  151.6241 C   0  0  2  0  0  0  0  0  0  0  0  0
  145.9173  136.6653  150.5119 C   0  0  0  0  0  0  0  0  0  0  0  0
  144.6269  136.3312  150.0419 O   0  0  0  0  0  0  0  0  0  0  0  0
  147.1753  137.9451  152.2178 N   0  0  0  0  0  0  0  0  0  0  0  0
  147.4705  138.8578  153.1544 C   0  0  0  0  0  0  0  0  0  0  0  0
  146.6371  139.6182  153.6459 O   0  0  0  0  0  0  0  0  0  0  0  0
  148.7747  138.8137  153.4772 N   0  0  0  0  0  0  0  0  0  0  0  0
  149.4957  139.6216  154.3987 C   0  0  0  0  0  0  0  0  0  0  0  0
  150.6908  139.1021  154.9323 C   0  0  0  0  0  0  0  0  0  0  0  0
  151.4391  139.8800  155.8356 C   0  0  0  0  0  0  0  0  0  0  0  0
  150.9753  141.1703  156.1825 C   0  0  0  0  0  0  0  0  0  0  0  0
  151.7073  141.9673  157.0898 N   0  0  0  0  0  0  0  0  0  0  0  0
  151.9634  141.3561  158.3958 C   0  0  0  0  0  0  0  0  0  0  0  0
  153.0852  142.0958  159.1448 C   0  0  0  0  0  0  0  0  0  0  0  0
  152.7814  143.5974  159.2491 C   0  0  0  0  0  0  0  0  0  0  0  0
  152.5285  144.1802  157.8511 C   0  0  0  0  0  0  0  0  0  0  0  0
  151.4197  143.4041  157.1197 C   0  0  0  0  0  0  0  0  0  0  0  0
  149.8344  141.6777  155.6554 N   0  0  0  0  0  0  0  0  0  0  0  0
  149.1187  140.9282  154.7906 C   0  0  0  0  0  0  0  0  0  0  0  0
  143.8291  137.2813  152.2819 H   0  0  0  0  0  0  0  0  0  0  0  0
  144.7488  138.2464  153.4294 H   0  0  0  0  0  0  0  0  0  0  0  0
  145.0738  136.5237  153.2726 H   0  0  0  0  0  0  0  0  0  0  0  0
  145.5491  138.6699  151.1566 H   0  0  0  0  0  0  0  0  0  0  0  0
  146.4957  137.0427  149.6685 H   0  0  0  0  0  0  0  0  0  0  0  0
  146.4210  135.7623  150.8586 H   0  0  0  0  0  0  0  0  0  0  0  0
  144.2018  137.1217  149.7469 H   0  0  0  0  0  0  0  0  0  0  0  0
  147.9232  137.3624  151.8718 H   0  0  0  0  0  0  0  0  0  0  0  0
  149.3145  138.0878  153.0291 H   0  0  0  0  0  0  0  0  0  0  0  0
  151.0352  138.1166  154.6544 H   0  0  0  0  0  0  0  0  0  0  0  0
  152.3612  139.4876  156.2379 H   0  0  0  0  0  0  0  0  0  0  0  0
  151.0430  141.3905  158.9802 H   0  0  0  0  0  0  0  0  0  0  0  0
  152.2338  140.3051  158.3051 H   0  0  0  0  0  0  0  0  0  0  0  0
  153.2137  141.6697  160.1399 H   0  0  0  0  0  0  0  0  0  0  0  0
  154.0306  141.9499  158.6207 H   0  0  0  0  0  0  0  0  0  0  0  0
  151.9038  143.7533  159.8778 H   0  0  0  0  0  0  0  0  0  0  0  0
  153.6097  144.1175  159.7312 H   0  0  0  0  0  0  0  0  0  0  0  0
  152.2580  145.2334  157.9269 H   0  0  0  0  0  0  0  0  0  0  0  0
  153.4487  144.1377  157.2669 H   0  0  0  0  0  0  0  0  0  0  0  0
  151.3278  143.7909  156.1038 H   0  0  0  0  0  0  0  0  0  0  0  0
  150.4614  143.5668  157.6149 H   0  0  0  0  0  0  0  0  0  0  0  0
  148.2381  141.4152  154.4033 H   0  0  0  0  0  0  0  0  0  0  0  0
  1  2  1  0  0  0  0
  1 21  1  0  0  0  0
  1 22  1  0  0  0  0
  1 23  1  0  0  0  0
  2  3  1  0  0  0  0
  2  5  1  0  0  0  0
  2 24  1  0  0  0  0
  3  4  1  0  0  0  0
  3 25  1  0  0  0  0
  3 26  1  0  0  0  0
  4 27  1  0  0  0  0
  5  6  1  0  0  0  0
  5 28  1  0  0  0  0
  6  7  2  0  0  0  0
  6  8  1  0  0  0  0
  8  9  1  0  0  0  0
  8 29  1  0  0  0  0
  9 20  1  0  0  0  0
  9 10  2  0  0  0  0
 10 11  1  0  0  0  0
 10 30  1  0  0  0  0
 11 12  2  0  0  0  0
 11 31  1  0  0  0  0
 12 13  1  0  0  0  0
 12 19  1  0  0  0  0
 13 18  1  0  0  0  0
 13 14  1  0  0  0  0
 14 15  1  0  0  0  0
 14 32  1  0  0  0  0
 14 33  1  0  0  0  0
 15 16  1  0  0  0  0
 15 34  1  0  0  0  0
 15 35  1  0  0  0  0
 16 17  1  0  0  0  0
 16 36  1  0  0  0  0
 16 37  1  0  0  0  0
 17 18  1  0  0  0  0
 17 38  1  0  0  0  0
 17 39  1  0  0  0  0
 18 40  1  0  0  0  0
 18 41  1  0  0  0  0
 19 20  2  0  0  0  0
 20 42  1  0  0  0  0
M  END
> <s_m_source_file>
AV-unprocessed.smi

> <i_m_source_file_index>
2058

> <i_lp_mmshare_version>
43012

> <i_f3d_flags>
0

> <s_epik_input>
W09IXVtDSDJdW0NAQEhdKFtDSDNdKVtOSF1DKD1PKVtOSF1jMVtjSF1bY0hdYyhuW2NIXTEpTjJbQ0gyXVtDSDJdW0NIMl1bQ0gyXVtDSDJdMg==

> <s_epik_cmdline>
J2VwaWtfcHl0aG9uJywgJy1waCcsICc3LjAnLCAnLXRuJywgJzgnLCAnLW1hJywgJzIwMCcsICctbWV0YWxfYmluZGluZycsICctaW1hZScsICc8aW5maWxlLm1hZT4nLCAnLW9tYWUnLCAnPG91dGZpbGUubWFlPic=

> <r_lp_tautomer_probability>
1

> <r_epik_Ionization_Penalty>
0.104828

> <r_epik_Ionization_Penalty_Charging>
0

> <r_epik_Ionization_Penalty_Neutral>
0.104828

> <r_epik_State_Penalty>
0.0887547

> <r_epik_Charging_Adjusted_Penalty>
0.0887547

> <i_epik_Tot_Q>
0

> <i_epik_Tot_abs_Q>
0

> <r_epik_Metal_State_Penalty>
0.0759464

> <b_epik_Metal_Only>
0

> <s_lp_Force_Field>
OPLS_2005

> <r_lp_Energy>
20.4208

> <b_lp_Chiralities_Consistent>
1

> <s_lp_Variant>
AV-unprocessed.smi:2058-1

> <Gold.Version>
5.8.1

> <Gold.Id.Protein>
6NUR|6NUR_protein|mol2

> <Gold.PLP.Fitness>
46.1815

> <Gold.PLP.PLP>
-39.3976

> <Gold.PLP.part.hbond>
-4.2230

> <Gold.PLP.part.metal>
0.0000

> <Gold.PLP.part.buried>
1.9108

> <Gold.PLP.part.nonpolar>
-38.9864

> <Gold.PLP.part.repulsive>
0.4688

> <Gold.PLP.ligand.clash>
0.0000

> <Gold.PLP.ligand.torsion>
0.4352

> <Gold.PLP.Chemscore.Hbond>
2.3994

> <Gold.PLP.Chemscore.CHOScore>
0.0000

> <Gold.PLP.Chemscore.Metal>
0.0000

> <Gold.Chemscore.Hbonds>
donor molecule, donor type, donor heavy atom, donor atom, acceptor molecule, acceptor atom, score
      L1  H     4    27       P1 10171  0.86
      L1  H     5    28       P1  7948  0.93
      L1  H     8    29       P1  7948  0.47

> <Gold.PLP.Chemscore.Internal.Correction>
0.4563

> <Gold.Rescore>
     Score         DG    S(hbond)    S(metal)    S(lipo)     H(rot)  DE(clash)    DE(int)     intcor
     15.89     -18.01       2.03        0.00      93.89       2.05       0.01       2.11       ----

> <Gold.Chemscore.Fitness>
15.8851

> <Gold.Chemscore.DG>
-18.0085

> <Gold.Chemscore.ZeroCoef>
-5.4800

> <Gold.Chemscore.Hbond>
2.0298

> <Gold.Chemscore.Metal>
0.0000

> <Gold.Chemscore.Lipo>
93.8884

> <Gold.Chemscore.Internal_Hbond>
0.0000

> <Gold.Chemscore.DEClash>
0.0106

> <Gold.Chemscore.DEInternal>
2.1127

> <Gold.Chemscore.Rot>
2.0453

> <Gold.Chemscore.Internal.Correction>
   9.000000E+99

> <Gold.Chemscore.Hbonds>
donor molecule, donor type, donor heavy atom, donor atom, acceptor molecule, acceptor atom, score
      L1  H     4    27       P1 10171  0.83
      L1  H     5    28       P1  7948  0.88
      L1  H     8    29       P1  7948  0.46

> <Gold.Chemscore.Hbond.Weighted>
-6.7795

> <Gold.Chemscore.Metal.Weighted>
-0.0000

> <Gold.Chemscore.Lipo.Weighted>
-10.9849

> <Gold.Chemscore.Internal_Hbond.Weighted>
0.0000

> <Gold.Chemscore.DEClash.Weighted>
0.0106

> <Gold.Chemscore.DEInternal.Weighted>
2.1127

> <Gold.Chemscore.Rot.Weighted>
5.2360

> <Gold.Chemscore.Internal.Correction.Weighted>
   9.000000E+99

> <Gold.Protein.RotatedTorsions>
[ 6907 6896 6895 6894 ] final   21.37 input  -60.11 | X-H torsion
[ 7974 7965 7964 7962 ] final  -34.86 input  175.53 | X-H torsion
[ 8008 7997 7996 7995 ] final  -62.96 input   59.86 | X-H torsion
[ 10167 10162 10161 10158 ] final   47.95 input  -65.29 | X-H torsion
[ 10718 10713 10712 10709 ] final  167.36 input   66.30 | X-H torsion
[ 10763 10752 10751 10750 ] final -116.86 input  -60.55 | X-H torsion
[ 11005 11000 10999 10996 ] final -146.54 input  -57.11 | X-H torsion

> <Gold.Protein.ActiveResidues>
 VAL166  LYS551  ARG553  GLY616  TRP617  ASP618  TYR619  PRO620  LYS621  CYS622 
 ASP623  PHE694  ASN695  SER759  ASP760  ASP761  ALA762  ILE779  LEU786  VAL792 
 PHE793  MET794  SER795  GLU796  ALA797  LYS798  CYS799  TRP800  GLU811  SER814 

> <Gold.Protein.RotatedAtoms>
  151.9108  135.0340  160.0513 H   0  0  0  0  0  0  0  0  0  0  0  0  # atno 6907 bound_to 6896
  152.2281  133.5032  159.5208 H   0  0  0  0  0  0  0  0  0  0  0  0  # atno 6908 bound_to 6896
  150.7018  134.1169  159.4063 H   0  0  0  0  0  0  0  0  0  0  0  0  # atno 6909 bound_to 6896
  146.0794  140.6090  142.8915 H   0  0  0  0  0  0  0  0  0  0  0  0  # atno 7974 bound_to 7965
  154.4528  140.0985  156.6668 H   0  0  0  0  0  0  0  0  0  0  0  0  # atno 8008 bound_to 7997
  155.5232  140.3479  155.4392 H   0  0  0  0  0  0  0  0  0  0  0  0  # atno 8009 bound_to 7997
  156.0716  140.1351  156.9811 H   0  0  0  0  0  0  0  0  0  0  0  0  # atno 8010 bound_to 7997
  140.2984  144.2963  150.6224 H   0  0  0  0  0  0  0  0  0  0  0  0  # atno 10167 bound_to 10162
  157.0527  131.0318  151.2675 H   0  0  0  0  0  0  0  0  0  0  0  0  # atno 10718 bound_to 10713
  154.8534  135.4330  154.1888 H   0  0  0  0  0  0  0  0  0  0  0  0  # atno 10763 bound_to 10752
  153.2961  135.6965  153.7253 H   0  0  0  0  0  0  0  0  0  0  0  0  # atno 10764 bound_to 10752
  153.6401  135.3469  155.3043 H   0  0  0  0  0  0  0  0  0  0  0  0  # atno 10765 bound_to 10752
  140.7809  134.3080  157.5045 H   0  0  0  0  0  0  0  0  0  0  0  0  # atno 11005 bound_to 11000
  144.7283  140.4594  143.6956 LP  0  0  0  0  0  0  0  0  0  0  0  0  # atno 17320 bound_to 7965
  145.6245  139.1528  143.3004 LP  0  0  0  0  0  0  0  0  0  0  0  0  # atno 17321 bound_to 7965
  140.5672  143.2185  151.7662 LP  0  0  0  0  0  0  0  0  0  0  0  0  # atno 17342 bound_to 10162
  139.4921  144.4267  151.9918 LP  0  0  0  0  0  0  0  0  0  0  0  0  # atno 17343 bound_to 10162
  157.5017  130.7884  149.7612 LP  0  0  0  0  0  0  0  0  0  0  0  0  # atno 17370 bound_to 10713
  156.0003  130.3884  150.2633 LP  0  0  0  0  0  0  0  0  0  0  0  0  # atno 17371 bound_to 10713
  139.8742  134.9318  156.3537 LP  0  0  0  0  0  0  0  0  0  0  0  0  # atno 17394 bound_to 11000
  140.9483  133.7468  156.0237 LP  0  0  0  0  0  0  0  0  0  0  0  0  # atno 17395 bound_to 11000

$$$$
