AV-unprocessed.smi:1416|AV-procd|sdf|5764|dock6
  -GOLD-   22720 5403D 1   1.00000     0.00000
 Structure written by MMmdl.
 44 45  0  0  0  0  0  0  0  0  1 V2000
  152.2638  144.5507  159.2933 C   0  0  0  0  0  0  0  0  0  0  0  0
  151.8228  144.2808  160.7344 C   0  0  0  0  0  0  0  0  0  0  0  0
  152.7022  142.8646  161.4459 S   0  0  0  0  0  0  0  0  0  0  0  0
  152.8151  141.8085  159.9725 C   0  0  0  0  0  0  0  0  0  0  0  0
  153.1356  140.3440  160.3238 C   0  0  0  0  0  0  0  0  0  0  0  0
  152.9817  139.3780  159.1432 C   0  0  0  0  0  0  0  0  0  0  0  0
  153.7692  139.4139  158.1972 O   0  0  0  0  0  0  0  0  0  0  0  0
  151.9606  138.5122  159.2153 N   0  0  0  0  0  0  0  0  0  0  0  0
  151.6451  137.5151  158.1996 C   0  0  0  0  0  0  0  0  0  0  0  0
  151.3202  138.1239  156.8453 C   0  0  0  0  0  0  0  0  0  0  0  0
  152.1255  137.8775  155.7138 C   0  0  0  0  0  0  0  0  0  0  0  0
  151.7736  138.4890  154.4966 C   0  0  0  0  0  0  0  0  0  0  0  0
  150.7030  139.2981  154.3569 N   0  0  0  0  0  0  0  0  0  0  0  0
  149.9192  139.5420  155.4365 C   0  0  0  0  0  0  0  0  0  0  0  0
  148.8003  140.3879  155.2739 N   0  0  0  0  0  0  0  0  0  0  0  0
  147.5483  139.8957  155.8442 C   0  0  0  0  0  0  0  0  0  0  0  0
  146.4953  141.0169  155.8746 C   0  0  0  0  0  0  0  0  0  0  0  0
  146.3314  141.5616  154.5694 O   0  0  0  0  0  0  0  0  0  0  0  0
  147.5388  142.1369  154.0813 C   0  0  0  0  0  0  0  0  0  0  0  0
  148.6261  141.0535  153.9838 C   0  0  0  0  0  0  0  0  0  0  0  0
  150.2052  138.9754  156.7021 C   0  0  0  0  0  0  0  0  0  0  0  0
  151.7285  145.4042  158.8771 H   0  0  0  0  0  0  0  0  0  0  0  0
  152.0664  143.6899  158.6540 H   0  0  0  0  0  0  0  0  0  0  0  0
  153.3307  144.7699  159.2431 H   0  0  0  0  0  0  0  0  0  0  0  0
  152.0095  145.1595  161.3524 H   0  0  0  0  0  0  0  0  0  0  0  0
  150.7508  144.0851  160.7671 H   0  0  0  0  0  0  0  0  0  0  0  0
  151.8874  141.8824  159.4035 H   0  0  0  0  0  0  0  0  0  0  0  0
  153.6022  142.2066  159.3316 H   0  0  0  0  0  0  0  0  0  0  0  0
  154.1680  140.2763  160.6679 H   0  0  0  0  0  0  0  0  0  0  0  0
  152.5120  140.0198  161.1586 H   0  0  0  0  0  0  0  0  0  0  0  0
  151.3594  138.5453  160.0260 H   0  0  0  0  0  0  0  0  0  0  0  0
  152.4922  136.8344  158.1035 H   0  0  0  0  0  0  0  0  0  0  0  0
  150.7883  136.9178  158.5152 H   0  0  0  0  0  0  0  0  0  0  0  0
  152.9990  137.2448  155.7706 H   0  0  0  0  0  0  0  0  0  0  0  0
  152.3695  138.3259  153.6109 H   0  0  0  0  0  0  0  0  0  0  0  0
  147.1892  139.0641  155.2363 H   0  0  0  0  0  0  0  0  0  0  0  0
  147.6860  139.5126  156.8544 H   0  0  0  0  0  0  0  0  0  0  0  0
  145.5382  140.6226  156.2168 H   0  0  0  0  0  0  0  0  0  0  0  0
  146.7843  141.8025  156.5750 H   0  0  0  0  0  0  0  0  0  0  0  0
  147.3535  142.5718  153.0993 H   0  0  0  0  0  0  0  0  0  0  0  0
  147.8574  142.9503  154.7351 H   0  0  0  0  0  0  0  0  0  0  0  0
  149.5636  141.5113  153.6653 H   0  0  0  0  0  0  0  0  0  0  0  0
  148.3500  140.3149  153.2299 H   0  0  0  0  0  0  0  0  0  0  0  0
  149.5894  139.1956  157.5614 H   0  0  0  0  0  0  0  0  0  0  0  0
  1  2  1  0  0  0  0
  1 22  1  0  0  0  0
  1 23  1  0  0  0  0
  1 24  1  0  0  0  0
  2  3  1  0  0  0  0
  2 25  1  0  0  0  0
  2 26  1  0  0  0  0
  3  4  1  0  0  0  0
  4  5  1  0  0  0  0
  4 27  1  0  0  0  0
  4 28  1  0  0  0  0
  5  6  1  0  0  0  0
  5 29  1  0  0  0  0
  5 30  1  0  0  0  0
  6  7  2  0  0  0  0
  6  8  1  0  0  0  0
  8  9  1  0  0  0  0
  8 31  1  0  0  0  0
  9 10  1  0  0  0  0
  9 32  1  0  0  0  0
  9 33  1  0  0  0  0
 10 21  1  0  0  0  0
 10 11  2  0  0  0  0
 11 12  1  0  0  0  0
 11 34  1  0  0  0  0
 12 13  2  0  0  0  0
 12 35  1  0  0  0  0
 13 14  1  0  0  0  0
 14 15  1  0  0  0  0
 14 21  2  0  0  0  0
 15 20  1  0  0  0  0
 15 16  1  0  0  0  0
 16 17  1  0  0  0  0
 16 36  1  0  0  0  0
 16 37  1  0  0  0  0
 17 18  1  0  0  0  0
 17 38  1  0  0  0  0
 17 39  1  0  0  0  0
 18 19  1  0  0  0  0
 19 20  1  0  0  0  0
 19 40  1  0  0  0  0
 19 41  1  0  0  0  0
 20 42  1  0  0  0  0
 20 43  1  0  0  0  0
 21 44  1  0  0  0  0
M  END
> <s_m_source_file>
AV-unprocessed.smi

> <i_m_source_file_index>
1416

> <i_lp_mmshare_version>
43012

> <i_f3d_flags>
0

> <s_epik_input>
W0NIM11bQ0gyXVNbQ0gyXVtDSDJdQyg9TylbTkhdW0NIMl1jMVtjSF1bY0hdbmMoW2NIXTEpTjJbQ0gyXVtDSDJdT1tDSDJdW0NIMl0y

> <s_epik_cmdline>
J2VwaWtfcHl0aG9uJywgJy1waCcsICc3LjAnLCAnLXRuJywgJzgnLCAnLW1hJywgJzIwMCcsICctbWV0YWxfYmluZGluZycsICctaW1hZScsICc8aW5maWxlLm1hZT4nLCAnLW9tYWUnLCAnPG91dGZpbGUubWFlPic=

> <r_lp_tautomer_probability>
1

> <r_epik_Ionization_Penalty>
0.00571449

> <r_epik_Ionization_Penalty_Charging>
0

> <r_epik_Ionization_Penalty_Neutral>
0.00571449

> <r_epik_State_Penalty>
0.00419227

> <r_epik_Charging_Adjusted_Penalty>
0.00419227

> <i_epik_Tot_Q>
0

> <i_epik_Tot_abs_Q>
0

> <r_epik_Metal_State_Penalty>
-0

> <b_epik_Metal_Only>
0

> <s_lp_Force_Field>
OPLS_2005

> <r_lp_Energy>
16.5768

> <b_lp_Chiralities_Consistent>
1

> <s_lp_Variant>
AV-unprocessed.smi:1416-1

> <Gold.Version>
5.8.1

> <Gold.Id.Protein>
6NUR|6NUR_protein|mol2

> <Gold.PLP.Fitness>
41.0901

> <Gold.PLP.PLP>
-35.8212

> <Gold.PLP.part.hbond>
-1.9913

> <Gold.PLP.part.metal>
0.0000

> <Gold.PLP.part.buried>
-5.1497

> <Gold.PLP.part.nonpolar>
-30.2305

> <Gold.PLP.part.repulsive>
0.4751

> <Gold.PLP.ligand.clash>
0.0000

> <Gold.PLP.ligand.torsion>
0.5025

> <Gold.PLP.Chemscore.Hbond>
1.9413

> <Gold.PLP.Chemscore.CHOScore>
0.0000

> <Gold.PLP.Chemscore.Metal>
0.0000

> <Gold.Chemscore.Hbonds>
donor molecule, donor type, donor heavy atom, donor atom, acceptor molecule, acceptor atom, score
      P1  H  7989  7998       L1    13  0.90
      P1  H  7997  8009       L1     7  1.00

> <Gold.PLP.Chemscore.Internal.Correction>
0.4501

> <Gold.Rescore>
     Score         DG    S(hbond)    S(metal)    S(lipo)     H(rot)  DE(clash)    DE(int)     intcor
     16.39     -17.03       1.31        0.00     102.12       1.87       0.18       0.46       ----

> <Gold.Chemscore.Fitness>
16.3928

> <Gold.Chemscore.DG>
-17.0296

> <Gold.Chemscore.ZeroCoef>
-5.4800

> <Gold.Chemscore.Hbond>
1.3142

> <Gold.Chemscore.Metal>
0.0000

> <Gold.Chemscore.Lipo>
102.1229

> <Gold.Chemscore.Internal_Hbond>
0.0000

> <Gold.Chemscore.DEClash>
0.1799

> <Gold.Chemscore.DEInternal>
0.4570

> <Gold.Chemscore.Rot>
1.8704

> <Gold.Chemscore.Internal.Correction>
   9.000000E+99

> <Gold.Chemscore.Hbonds>
donor molecule, donor type, donor heavy atom, donor atom, acceptor molecule, acceptor atom, score
      P1  H  7989  7998       L1    13  0.16
      P1  H  7997  8009       L1     7  0.94

> <Gold.Chemscore.Hbond.Weighted>
-4.3894

> <Gold.Chemscore.Metal.Weighted>
-0.0000

> <Gold.Chemscore.Lipo.Weighted>
-11.9484

> <Gold.Chemscore.Internal_Hbond.Weighted>
0.0000

> <Gold.Chemscore.DEClash.Weighted>
0.1799

> <Gold.Chemscore.DEInternal.Weighted>
0.4570

> <Gold.Chemscore.Rot.Weighted>
4.7881

> <Gold.Chemscore.Internal.Correction.Weighted>
   9.000000E+99

> <Gold.Protein.RotatedTorsions>
[ 6907 6896 6895 6894 ] final  -45.93 input  -60.11 | X-H torsion
[ 7974 7965 7964 7962 ] final  113.11 input  175.53 | X-H torsion
[ 8008 7997 7996 7995 ] final  152.02 input   59.86 | X-H torsion
[ 10167 10162 10161 10158 ] final  -85.65 input  -65.29 | X-H torsion
[ 10718 10713 10712 10709 ] final   31.56 input   66.30 | X-H torsion
[ 10763 10752 10751 10750 ] final -137.56 input  -60.55 | X-H torsion
[ 11005 11000 10999 10996 ] final  -85.50 input  -57.11 | X-H torsion

> <Gold.Protein.ActiveResidues>
 VAL166  LYS551  ARG553  GLY616  TRP617  ASP618  TYR619  PRO620  LYS621  CYS622 
 ASP623  PHE694  ASN695  SER759  ASP760  ASP761  ALA762  ILE779  LEU786  VAL792 
 PHE793  MET794  SER795  GLU796  ALA797  LYS798  CYS799  TRP800  GLU811  SER814 

> <Gold.Protein.RotatedAtoms>
  150.9167  134.8585  159.7461 H   0  0  0  0  0  0  0  0  0  0  0  0  # atno 6907 bound_to 6896
  152.4972  134.4279  159.9512 H   0  0  0  0  0  0  0  0  0  0  0  0  # atno 6908 bound_to 6896
  151.4316  133.3629  159.2804 H   0  0  0  0  0  0  0  0  0  0  0  0  # atno 6909 bound_to 6896
  145.2211  139.2861  143.4217 H   0  0  0  0  0  0  0  0  0  0  0  0  # atno 7974 bound_to 7965
  156.2648  140.2032  156.6267 H   0  0  0  0  0  0  0  0  0  0  0  0  # atno 8008 bound_to 7997
  154.6714  140.0549  157.0194 H   0  0  0  0  0  0  0  0  0  0  0  0  # atno 8009 bound_to 7997
  155.1131  140.3217  155.4519 H   0  0  0  0  0  0  0  0  0  0  0  0  # atno 8010 bound_to 7997
  140.4017  143.2660  151.9134 H   0  0  0  0  0  0  0  0  0  0  0  0  # atno 10167 bound_to 10162
  157.2740  130.7222  149.6520 H   0  0  0  0  0  0  0  0  0  0  0  0  # atno 10718 bound_to 10713
  154.8659  135.3638  154.5243 H   0  0  0  0  0  0  0  0  0  0  0  0  # atno 10763 bound_to 10752
  153.5872  135.7016  153.5443 H   0  0  0  0  0  0  0  0  0  0  0  0  # atno 10764 bound_to 10752
  153.3405  135.4099  155.1530 H   0  0  0  0  0  0  0  0  0  0  0  0  # atno 10765 bound_to 10752
  141.1640  133.7403  156.9024 H   0  0  0  0  0  0  0  0  0  0  0  0  # atno 11005 bound_to 11000
  146.3375  140.2517  142.8599 LP  0  0  0  0  0  0  0  0  0  0  0  0  # atno 17320 bound_to 7965
  144.9764  140.8418  143.5424 LP  0  0  0  0  0  0  0  0  0  0  0  0  # atno 17321 bound_to 7965
  139.4784  144.5627  151.8214 LP  0  0  0  0  0  0  0  0  0  0  0  0  # atno 17342 bound_to 10162
  140.4733  144.1556  150.5921 LP  0  0  0  0  0  0  0  0  0  0  0  0  # atno 17343 bound_to 10162
  155.9663  130.4359  150.5110 LP  0  0  0  0  0  0  0  0  0  0  0  0  # atno 17370 bound_to 10713
  157.3040  131.0651  151.2048 LP  0  0  0  0  0  0  0  0  0  0  0  0  # atno 17371 bound_to 10713
  140.1573  134.9189  157.2670 LP  0  0  0  0  0  0  0  0  0  0  0  0  # atno 17394 bound_to 11000
  140.2652  134.3524  155.7392 LP  0  0  0  0  0  0  0  0  0  0  0  0  # atno 17395 bound_to 11000

$$$$
