AV-unprocessed.smi:1006|AV-procd|sdf|4394|dock9
  -GOLD-   22720 2323D 1   1.00000     0.00000
 Structure written by MMmdl.
 46 48  0  0  0  0  0  0  0  0  2 V2000
  150.4910  131.4314  156.8618 C   0  0  0  0  0  0  0  0  0  0  0  0
  150.3134  132.6938  156.0454 C   0  0  0  0  0  0  0  0  0  0  0  0
  149.5667  132.6999  154.8467 C   0  0  0  0  0  0  0  0  0  0  0  0
  149.4706  133.9381  154.1773 C   0  0  0  0  0  0  0  0  0  0  0  0
  148.7570  134.0510  152.9870 N   0  0  0  0  0  0  0  0  0  0  0  0
  150.0571  135.0552  154.6586 N   0  0  0  0  0  0  0  0  0  0  0  0
  150.7388  134.9204  155.7988 C   0  0  0  0  0  0  0  0  0  0  0  0
  151.4783  136.3953  156.4487 S   0  0  0  0  0  0  0  0  0  0  0  0
  151.4050  137.4176  154.9532 C   0  0  0  0  0  0  0  0  0  0  0  0
  150.8905  138.8427  155.2282 C   0  0  2  0  0  0  0  0  0  0  0  0
  150.5724  139.4734  154.0044 O   0  0  0  0  0  0  0  0  0  0  0  0
  151.9028  139.7376  155.9721 C   0  0  0  0  0  0  0  0  0  0  0  0
  151.3099  140.9906  156.4606 N   0  0  0  0  0  0  0  0  0  0  0  0
  150.4826  141.8620  155.8222 C   0  0  0  0  0  0  0  0  0  0  0  0
  150.1947  142.8684  156.6928 N   0  3  0  0  0  0  0  0  0  0  0  0
  150.8465  142.6368  157.9058 C   0  0  0  0  0  0  0  0  0  0  0  0
  150.8562  143.3686  159.0873 C   0  0  0  0  0  0  0  0  0  0  0  0
  151.6201  142.8536  160.1588 C   0  0  0  0  0  0  0  0  0  0  0  0
  151.6472  143.6254  161.4671 C   0  0  0  0  0  0  0  0  0  0  0  0
  152.3446  141.6412  160.0220 C   0  0  0  0  0  0  0  0  0  0  0  0
  153.1539  141.0900  161.1836 C   0  0  0  0  0  0  0  0  0  0  0  0
  152.3289  140.9167  158.8091 C   0  0  0  0  0  0  0  0  0  0  0  0
  151.5676  141.4353  157.7637 C   0  0  0  0  0  0  0  0  0  0  0  0
  150.9018  133.8124  156.5243 N   0  0  0  0  0  0  0  0  0  0  0  0
  149.9737  130.5891  156.4017 H   0  0  0  0  0  0  0  0  0  0  0  0
  150.0899  131.5699  157.8662 H   0  0  0  0  0  0  0  0  0  0  0  0
  151.5482  131.1784  156.9443 H   0  0  0  0  0  0  0  0  0  0  0  0
  149.0968  131.8059  154.4631 H   0  0  0  0  0  0  0  0  0  0  0  0
  148.2923  133.2556  152.5735 H   0  0  0  0  0  0  0  0  0  0  0  0
  148.7676  134.9058  152.4497 H   0  0  0  0  0  0  0  0  0  0  0  0
  152.4132  137.4522  154.5414 H   0  0  0  0  0  0  0  0  0  0  0  0
  150.7758  136.9182  154.2156 H   0  0  0  0  0  0  0  0  0  0  0  0
  149.9749  138.7817  155.8180 H   0  0  0  0  0  0  0  0  0  0  0  0
  149.6706  139.7546  154.0334 H   0  0  0  0  0  0  0  0  0  0  0  0
  152.3623  139.2075  156.8066 H   0  0  0  0  0  0  0  0  0  0  0  0
  152.7180  140.0120  155.3011 H   0  0  0  0  0  0  0  0  0  0  0  0
  150.1170  141.7687  154.8096 H   0  0  0  0  0  0  0  0  0  0  0  0
  150.2991  144.2889  159.1849 H   0  0  0  0  0  0  0  0  0  0  0  0
  152.6708  143.8846  161.7393 H   0  0  0  0  0  0  0  0  0  0  0  0
  151.2142  143.0293  162.2712 H   0  0  0  0  0  0  0  0  0  0  0  0
  151.0783  144.5531  161.3950 H   0  0  0  0  0  0  0  0  0  0  0  0
  153.6223  140.1390  160.9279 H   0  0  0  0  0  0  0  0  0  0  0  0
  152.5147  140.9217  162.0506 H   0  0  0  0  0  0  0  0  0  0  0  0
  153.9441  141.7864  161.4642 H   0  0  0  0  0  0  0  0  0  0  0  0
  152.8794  139.9930  158.7098 H   0  0  0  0  0  0  0  0  0  0  0  0
  149.5931  143.6523  156.4739 H   0  0  0  0  0  0  0  0  0  0  0  0
  1  2  1  0  0  0  0
  1 25  1  0  0  0  0
  1 26  1  0  0  0  0
  1 27  1  0  0  0  0
  2 24  1  0  0  0  0
  2  3  2  0  0  0  0
  3  4  1  0  0  0  0
  3 28  1  0  0  0  0
  4  5  1  0  0  0  0
  4  6  2  0  0  0  0
  5 29  1  0  0  0  0
  5 30  1  0  0  0  0
  6  7  1  0  0  0  0
  7  8  1  0  0  0  0
  7 24  2  0  0  0  0
  8  9  1  0  0  0  0
  9 10  1  0  0  0  0
  9 31  1  0  0  0  0
  9 32  1  0  0  0  0
 10 11  1  0  0  0  0
 10 12  1  0  0  0  0
 10 33  1  0  0  0  0
 11 34  1  0  0  0  0
 12 13  1  0  0  0  0
 12 35  1  0  0  0  0
 12 36  1  0  0  0  0
 13 23  1  0  0  0  0
 13 14  1  0  0  0  0
 14 15  2  0  0  0  0
 14 37  1  0  0  0  0
 15 16  1  0  0  0  0
 15 46  1  0  0  0  0
 16 23  2  0  0  0  0
 16 17  1  0  0  0  0
 17 18  2  0  0  0  0
 17 38  1  0  0  0  0
 18 19  1  0  0  0  0
 18 20  1  0  0  0  0
 19 39  1  0  0  0  0
 19 40  1  0  0  0  0
 19 41  1  0  0  0  0
 20 21  1  0  0  0  0
 20 22  2  0  0  0  0
 21 42  1  0  0  0  0
 21 43  1  0  0  0  0
 21 44  1  0  0  0  0
 22 23  1  0  0  0  0
 22 45  1  0  0  0  0
M  CHG  1  15   1
M  END
> <s_m_source_file>
AV-unprocessed.smi

> <i_m_source_file_index>
1006

> <i_lp_mmshare_version>
43012

> <i_f3d_flags>
0

> <s_epik_input>
W0NIM11jMVtjSF1jKFtOSDJdKW5jKG4xKVNbQ0gyXVtDQEhdKFtPSF0pW0NIMl1uKFtjSF1uMiljKGMyMylbY0hdYyhbQ0gzXSljKFtjSF0zKVtDSDNd

> <s_epik_cmdline>
J2VwaWtfcHl0aG9uJywgJy1waCcsICc3LjAnLCAnLXRuJywgJzgnLCAnLW1hJywgJzIwMCcsICctbWV0YWxfYmluZGluZycsICctaW1hZScsICc8aW5maWxlLm1hZT4nLCAnLW9tYWUnLCAnPG91dGZpbGUubWFlPic=

> <r_epik_Ionization_Penalty>
1.4378

> <r_epik_Ionization_Penalty_Charging>
1.06724

> <r_epik_Ionization_Penalty_Neutral>
0.370564

> <r_epik_State_Penalty>
1.48666

> <r_epik_Charging_Adjusted_Penalty>
2.5539

> <i_epik_Tot_Q>
1

> <i_epik_Tot_abs_Q>
1

> <r_epik_Metal_State_Penalty>
1.38026

> <b_epik_Metal_Only>
0

> <s_lp_Force_Field>
OPLS_2005

> <r_lp_Energy>
8.71661

> <b_lp_Chiralities_Consistent>
1

> <s_lp_Variant>
AV-unprocessed.smi:1006-5

> <Gold.Version>
5.8.1

> <Gold.Id.Protein>
6NUR|6NUR_protein|mol2

> <Gold.PLP.Fitness>
59.6443

> <Gold.PLP.PLP>
-49.3174

> <Gold.PLP.part.hbond>
-4.0115

> <Gold.PLP.part.metal>
0.0000

> <Gold.PLP.part.buried>
-6.3026

> <Gold.PLP.part.nonpolar>
-39.2528

> <Gold.PLP.part.repulsive>
0.1884

> <Gold.PLP.ligand.clash>
0.0000

> <Gold.PLP.ligand.torsion>
0.8528

> <Gold.PLP.Chemscore.Hbond>
4.0000

> <Gold.PLP.Chemscore.CHOScore>
0.0000

> <Gold.PLP.Chemscore.Metal>
0.0000

> <Gold.Chemscore.Hbonds>
donor molecule, donor type, donor heavy atom, donor atom, acceptor molecule, acceptor atom, score
      L1  H     5    30       P1  7948  0.38
      L1  H    15    46       P1  8028  1.92
      P1  H  7989  7998       L1    11  1.00

> <Gold.PLP.Chemscore.Internal.Correction>
0.0325

> <Gold.Rescore>
     Score         DG    S(hbond)    S(metal)    S(lipo)     H(rot)  DE(clash)    DE(int)     intcor
     18.80     -20.56       2.86        0.00     110.48       2.89       0.03       1.74       ----

> <Gold.Chemscore.Fitness>
18.7975

> <Gold.Chemscore.DG>
-20.5648

> <Gold.Chemscore.ZeroCoef>
-5.4800

> <Gold.Chemscore.Hbond>
2.8622

> <Gold.Chemscore.Metal>
0.0000

> <Gold.Chemscore.Lipo>
110.4769

> <Gold.Chemscore.Internal_Hbond>
0.0000

> <Gold.Chemscore.DEClash>
0.0315

> <Gold.Chemscore.DEInternal>
1.7357

> <Gold.Chemscore.Rot>
2.8910

> <Gold.Chemscore.Internal.Correction>
   9.000000E+99

> <Gold.Chemscore.Hbonds>
donor molecule, donor type, donor heavy atom, donor atom, acceptor molecule, acceptor atom, score
      L1  H     5    30       P1  7948  0.02
      L1  H    15    46       P1  8028  0.91
      P1  H  7989  7998       L1    11  0.70

> <Gold.Chemscore.Hbond.Weighted>
-9.5599

> <Gold.Chemscore.Metal.Weighted>
-0.0000

> <Gold.Chemscore.Lipo.Weighted>
-12.9258

> <Gold.Chemscore.Internal_Hbond.Weighted>
0.0000

> <Gold.Chemscore.DEClash.Weighted>
0.0315

> <Gold.Chemscore.DEInternal.Weighted>
1.7357

> <Gold.Chemscore.Rot.Weighted>
7.4009

> <Gold.Chemscore.Internal.Correction.Weighted>
   9.000000E+99

> <Gold.Protein.RotatedTorsions>
[ 6907 6896 6895 6894 ] final -157.53 input  -60.11 | X-H torsion
[ 7974 7965 7964 7962 ] final  -24.07 input  175.53 | X-H torsion
[ 8008 7997 7996 7995 ] final  -99.06 input   59.86 | X-H torsion
[ 10167 10162 10161 10158 ] final  126.33 input  -65.29 | X-H torsion
[ 10718 10713 10712 10709 ] final   39.86 input   66.30 | X-H torsion
[ 10763 10752 10751 10750 ] final  174.09 input  -60.55 | X-H torsion
[ 11005 11000 10999 10996 ] final   24.21 input  -57.11 | X-H torsion

> <Gold.Protein.ActiveResidues>
 VAL166  LYS551  ARG553  GLY616  TRP617  ASP618  TYR619  PRO620  LYS621  CYS622 
 ASP623  PHE694  ASN695  SER759  ASP760  ASP761  ALA762  ILE779  LEU786  VAL792 
 PHE793  MET794  SER795  GLU796  ALA797  LYS798  CYS799  TRP800  GLU811  SER814 

> <Gold.Protein.RotatedAtoms>
  151.3043  133.4108  159.2641 H   0  0  0  0  0  0  0  0  0  0  0  0  # atno 6907 bound_to 6896
  151.0169  134.9440  159.8048 H   0  0  0  0  0  0  0  0  0  0  0  0  # atno 6908 bound_to 6896
  152.5314  134.3006  159.9129 H   0  0  0  0  0  0  0  0  0  0  0  0  # atno 6909 bound_to 6896
  146.1578  140.4701  142.8584 H   0  0  0  0  0  0  0  0  0  0  0  0  # atno 7974 bound_to 7965
  154.8097  140.0450  157.1334 H   0  0  0  0  0  0  0  0  0  0  0  0  # atno 8008 bound_to 7997
  154.9382  140.3049  155.5113 H   0  0  0  0  0  0  0  0  0  0  0  0  # atno 8009 bound_to 7997
  156.2970  140.2310  156.4449 H   0  0  0  0  0  0  0  0  0  0  0  0  # atno 8010 bound_to 7997
  139.5637  144.6898  151.3971 H   0  0  0  0  0  0  0  0  0  0  0  0  # atno 10167 bound_to 10162
  157.3755  130.7725  149.7152 H   0  0  0  0  0  0  0  0  0  0  0  0  # atno 10718 bound_to 10713
  154.4492  135.2764  155.1793 H   0  0  0  0  0  0  0  0  0  0  0  0  # atno 10763 bound_to 10752
  154.3628  135.6126  153.5703 H   0  0  0  0  0  0  0  0  0  0  0  0  # atno 10764 bound_to 10752
  152.9846  135.5838  154.4833 H   0  0  0  0  0  0  0  0  0  0  0  0  # atno 10765 bound_to 10752
  140.3612  134.2123  155.7672 H   0  0  0  0  0  0  0  0  0  0  0  0  # atno 11005 bound_to 11000
  144.7986  140.6170  143.6493 LP  0  0  0  0  0  0  0  0  0  0  0  0  # atno 17320 bound_to 7965
  145.4666  139.1507  143.3837 LP  0  0  0  0  0  0  0  0  0  0  0  0  # atno 17321 bound_to 7965
  140.6919  143.7842  150.7267 LP  0  0  0  0  0  0  0  0  0  0  0  0  # atno 17342 bound_to 10162
  140.1327  143.4512  152.2244 LP  0  0  0  0  0  0  0  0  0  0  0  0  # atno 17343 bound_to 10162
  155.9764  130.4075  150.3779 LP  0  0  0  0  0  0  0  0  0  0  0  0  # atno 17370 bound_to 10713
  157.1876  131.0407  151.2716 LP  0  0  0  0  0  0  0  0  0  0  0  0  # atno 17371 bound_to 10713
  141.1983  133.8038  157.0587 LP  0  0  0  0  0  0  0  0  0  0  0  0  # atno 17394 bound_to 11000
  140.0625  134.9747  157.1329 LP  0  0  0  0  0  0  0  0  0  0  0  0  # atno 17395 bound_to 11000

$$$$
