AV-unprocessed.smi:77|AV-procd|sdf|772|dock9
  -GOLD-   2262017123D 1   1.00000     0.00000
 Structure written by MMmdl.
 57 61  0  0  0  0  0  0  0  0  1 V2000
  152.6009  139.7735  158.9208 O   0  0  0  0  0  0  0  0  0  0  0  0
  152.0624  140.5833  158.1654 C   0  0  0  0  0  0  0  0  0  0  0  0
  151.2456  140.0950  156.9632 C   0  0  0  0  0  0  0  0  0  0  0  0
  151.0038  138.6488  156.9987 N   0  0  0  0  0  0  0  0  0  0  0  0
  149.7247  138.3207  157.2908 C   0  0  0  0  0  0  0  0  0  0  0  0
  148.7159  138.7497  156.4876 N   0  0  0  0  0  0  0  0  0  0  0  0
  147.4485  138.4625  156.8007 C   0  0  0  0  0  0  0  0  0  0  0  0
  146.9805  137.7859  157.8524 N   0  0  0  0  0  0  0  0  0  0  0  0
  147.9950  137.3522  158.6544 C   0  0  0  0  0  0  0  0  0  0  0  0
  149.3848  137.5617  158.4406 C   0  0  0  0  0  0  0  0  0  0  0  0
  150.1215  136.9616  159.4534 N   0  0  0  0  0  0  0  0  0  0  0  0
  149.2160  136.4435  160.2371 C   0  0  0  0  0  0  0  0  0  0  0  0
  147.9121  136.6594  159.8492 N   0  0  0  0  0  0  0  0  0  0  0  0
  146.7163  136.2229  160.5453 C   0  0  0  0  0  0  0  0  0  0  0  0
  146.9792  135.5149  161.9047 C   0  0  1  0  0  0  0  0  0  0  0  0
  147.7156  136.4955  162.8497 C   0  0  0  0  0  0  0  0  0  0  0  0
  147.1739  137.7976  162.7660 O   0  0  0  0  0  0  0  0  0  0  0  0
  145.6862  134.9427  162.5639 C   0  0  2  0  0  0  0  0  0  0  0  0
  145.0008  133.8299  161.7832 C   0  0  0  0  0  0  0  0  0  0  0  0
  143.6024  133.8244  162.3806 C   0  0  0  0  0  0  0  0  0  0  0  0
  143.3049  135.1972  162.5660 O   0  0  0  0  0  0  0  0  0  0  0  0
  144.5151  135.9323  162.7186 C   0  0  0  0  0  0  0  0  0  0  0  0
  151.5686  137.8687  155.9058 C   0  0  0  0  0  0  0  0  0  0  0  0
  152.6581  138.4787  155.0540 C   0  0  0  0  0  0  0  0  0  0  0  0
  151.2669  138.2973  154.4905 C   0  0  0  0  0  0  0  0  0  0  0  0
  152.1602  141.9124  158.3145 N   0  0  0  0  0  0  0  0  0  0  0  0
  152.8627  142.5797  159.3621 C   0  0  0  0  0  0  0  0  0  0  0  0
  152.0431  143.3124  160.4018 C   0  0  0  0  0  0  0  0  0  0  0  0
  152.8237  144.0926  159.3808 C   0  0  0  0  0  0  0  0  0  0  0  0
  150.3020  140.6404  156.8967 H   0  0  0  0  0  0  0  0  0  0  0  0
  151.8057  140.3452  156.0611 H   0  0  0  0  0  0  0  0  0  0  0  0
  146.7015  138.8370  156.1163 H   0  0  0  0  0  0  0  0  0  0  0  0
  149.4763  135.9070  161.1377 H   0  0  0  0  0  0  0  0  0  0  0  0
  146.0931  137.1064  160.6863 H   0  0  0  0  0  0  0  0  0  0  0  0
  146.1572  135.5587  159.8849 H   0  0  0  0  0  0  0  0  0  0  0  0
  147.6548  134.6762  161.7318 H   0  0  0  0  0  0  0  0  0  0  0  0
  147.6664  136.1494  163.8826 H   0  0  0  0  0  0  0  0  0  0  0  0
  148.7697  136.5860  162.5915 H   0  0  0  0  0  0  0  0  0  0  0  0
  146.5712  137.9193  163.4837 H   0  0  0  0  0  0  0  0  0  0  0  0
  145.9366  134.5464  163.5495 H   0  0  0  0  0  0  0  0  0  0  0  0
  144.9505  134.0800  160.7224 H   0  0  0  0  0  0  0  0  0  0  0  0
  145.4937  132.8629  161.8872 H   0  0  0  0  0  0  0  0  0  0  0  0
  142.8682  133.3373  161.7386 H   0  0  0  0  0  0  0  0  0  0  0  0
  143.5997  133.3230  163.3496 H   0  0  0  0  0  0  0  0  0  0  0  0
  144.5216  136.4266  163.6892 H   0  0  0  0  0  0  0  0  0  0  0  0
  144.5356  136.7022  161.9468 H   0  0  0  0  0  0  0  0  0  0  0  0
  151.6364  136.7949  156.0737 H   0  0  0  0  0  0  0  0  0  0  0  0
  152.9767  139.4940  155.2831 H   0  0  0  0  0  0  0  0  0  0  0  0
  153.4399  137.8156  154.6894 H   0  0  0  0  0  0  0  0  0  0  0  0
  151.1222  137.5142  153.7489 H   0  0  0  0  0  0  0  0  0  0  0  0
  150.6616  139.1909  154.3504 H   0  0  0  0  0  0  0  0  0  0  0  0
  151.6922  142.4982  157.6379 H   0  0  0  0  0  0  0  0  0  0  0  0
  153.7835  142.1202  159.7191 H   0  0  0  0  0  0  0  0  0  0  0  0
  150.9594  143.2933  160.3014 H   0  0  0  0  0  0  0  0  0  0  0  0
  152.4152  143.3115  161.4244 H   0  0  0  0  0  0  0  0  0  0  0  0
  153.7162  144.6131  159.7221 H   0  0  0  0  0  0  0  0  0  0  0  0
  152.2603  144.5981  158.5985 H   0  0  0  0  0  0  0  0  0  0  0  0
  1  2  2  0  0  0  0
  2  3  1  0  0  0  0
  2 26  1  0  0  0  0
  3  4  1  0  0  0  0
  3 30  1  0  0  0  0
  3 31  1  0  0  0  0
  4  5  1  0  0  0  0
  4 23  1  0  0  0  0
  5 10  1  0  0  0  0
  5  6  2  0  0  0  0
  6  7  1  0  0  0  0
  7  8  2  0  0  0  0
  7 32  1  0  0  0  0
  8  9  1  0  0  0  0
  9 13  1  0  0  0  0
  9 10  2  0  0  0  0
 10 11  1  0  0  0  0
 11 12  2  0  0  0  0
 12 13  1  0  0  0  0
 12 33  1  0  0  0  0
 13 14  1  0  0  0  0
 14 15  1  0  0  0  0
 14 34  1  0  0  0  0
 14 35  1  0  0  0  0
 15 16  1  0  0  0  0
 15 18  1  0  0  0  0
 15 36  1  0  0  0  0
 16 17  1  0  0  0  0
 16 37  1  0  0  0  0
 16 38  1  0  0  0  0
 17 39  1  0  0  0  0
 18 22  1  0  0  0  0
 18 19  1  0  0  0  0
 18 40  1  0  0  0  0
 19 20  1  0  0  0  0
 19 41  1  0  0  0  0
 19 42  1  0  0  0  0
 20 21  1  0  0  0  0
 20 43  1  0  0  0  0
 20 44  1  0  0  0  0
 21 22  1  0  0  0  0
 22 45  1  0  0  0  0
 22 46  1  0  0  0  0
 23 25  1  0  0  0  0
 23 24  1  0  0  0  0
 23 47  1  0  0  0  0
 24 25  1  0  0  0  0
 24 48  1  0  0  0  0
 24 49  1  0  0  0  0
 25 50  1  0  0  0  0
 25 51  1  0  0  0  0
 26 27  1  0  0  0  0
 26 52  1  0  0  0  0
 27 29  1  0  0  0  0
 27 28  1  0  0  0  0
 27 53  1  0  0  0  0
 28 29  1  0  0  0  0
 28 54  1  0  0  0  0
 28 55  1  0  0  0  0
 29 56  1  0  0  0  0
 29 57  1  0  0  0  0
M  END
> <s_m_source_file>
AV-unprocessed.smi

> <i_m_source_file_index>
77

> <i_lp_mmshare_version>
43012

> <i_f3d_flags>
0

> <s_epik_input>
W0NIMl0xW0NIMl1bQ0hdMVtOSF1DKD1PKVtDSDJdTihbQ0hdMltDSDJdW0NIMl0yKWMobltjSF1uMyljKGMzNCluW2NIXW40W0NIMl1bQ0BIXShbQ0gyXVtPSF0pW0NAQEhdNVtDSDJdW0NIMl1PW0NIMl01

> <s_epik_cmdline>
J2VwaWtfcHl0aG9uJywgJy1waCcsICc3LjAnLCAnLXRuJywgJzgnLCAnLW1hJywgJzIwMCcsICctbWV0YWxfYmluZGluZycsICctaW1hZScsICc8aW5maWxlLm1hZT4nLCAnLW9tYWUnLCAnPG91dGZpbGUubWFlPic=

> <r_lp_tautomer_probability>
1

> <r_epik_Ionization_Penalty>
0.000703847

> <r_epik_Ionization_Penalty_Charging>
0

> <r_epik_Ionization_Penalty_Neutral>
0.000703847

> <r_epik_State_Penalty>
0.00034025

> <r_epik_Charging_Adjusted_Penalty>
0.00034025

> <i_epik_Tot_Q>
0

> <i_epik_Tot_abs_Q>
0

> <r_epik_Metal_State_Penalty>
-0

> <b_epik_Metal_Only>
0

> <s_lp_Force_Field>
OPLS_2005

> <r_lp_Energy>
54.5586

> <b_lp_Chiralities_Consistent>
1

> <s_lp_Variant>
AV-unprocessed.smi:77-2

> <Gold.Version>
5.8.1

> <Gold.Id.Protein>
6NUR|6NUR_protein|mol2

> <Gold.PLP.Fitness>
47.0574

> <Gold.PLP.PLP>
-47.8422

> <Gold.PLP.part.hbond>
-2.4704

> <Gold.PLP.part.metal>
0.0000

> <Gold.PLP.part.buried>
-5.9942

> <Gold.PLP.part.nonpolar>
-38.8094

> <Gold.PLP.part.repulsive>
0.1480

> <Gold.PLP.ligand.clash>
0.0000

> <Gold.PLP.ligand.torsion>
1.9492

> <Gold.PLP.Chemscore.Hbond>
0.3901

> <Gold.PLP.Chemscore.CHOScore>
0.0000

> <Gold.PLP.Chemscore.Metal>
0.0000

> <Gold.Chemscore.Hbonds>
donor molecule, donor type, donor heavy atom, donor atom, acceptor molecule, acceptor atom, score
      P1  H  6896  6908       L1    11  0.10
      P1  H  6931  6943       L1    17  0.08
      P1  H  6934  6947       L1    17  0.19

> <Gold.PLP.Chemscore.Internal.Correction>
1.9432

> <Gold.Rescore>
     Score         DG    S(hbond)    S(metal)    S(lipo)     H(rot)  DE(clash)    DE(int)     intcor
      8.92     -10.90       0.53        0.00     113.72       3.77       0.05       1.93       ----

> <Gold.Chemscore.Fitness>
8.9175

> <Gold.Chemscore.DG>
-10.8971

> <Gold.Chemscore.ZeroCoef>
-5.4800

> <Gold.Chemscore.Hbond>
0.5288

> <Gold.Chemscore.Metal>
0.0000

> <Gold.Chemscore.Lipo>
113.7246

> <Gold.Chemscore.Internal_Hbond>
0.0000

> <Gold.Chemscore.DEClash>
0.0499

> <Gold.Chemscore.DEInternal>
1.9298

> <Gold.Chemscore.Rot>
3.7714

> <Gold.Chemscore.Internal.Correction>
   9.000000E+99

> <Gold.Chemscore.Hbonds>
donor molecule, donor type, donor heavy atom, donor atom, acceptor molecule, acceptor atom, score
      P1  H  6934  6947       L1    17  0.20

> <Gold.Chemscore.Hbond.Weighted>
-1.7662

> <Gold.Chemscore.Metal.Weighted>
-0.0000

> <Gold.Chemscore.Lipo.Weighted>
-13.3058

> <Gold.Chemscore.Internal_Hbond.Weighted>
0.0000

> <Gold.Chemscore.DEClash.Weighted>
0.0499

> <Gold.Chemscore.DEInternal.Weighted>
1.9298

> <Gold.Chemscore.Rot.Weighted>
9.6548

> <Gold.Chemscore.Internal.Correction.Weighted>
   9.000000E+99

> <Gold.Protein.RotatedTorsions>
[ 6907 6896 6895 6894 ] final -142.58 input  -60.11 | X-H torsion
[ 7974 7965 7964 7962 ] final -175.50 input  175.53 | X-H torsion
[ 8008 7997 7996 7995 ] final -137.80 input   59.86 | X-H torsion
[ 10167 10162 10161 10158 ] final  -97.79 input  -65.29 | X-H torsion
[ 10718 10713 10712 10709 ] final -105.76 input   66.30 | X-H torsion
[ 10763 10752 10751 10750 ] final -157.10 input  -60.55 | X-H torsion
[ 11005 11000 10999 10996 ] final -105.25 input  -57.11 | X-H torsion

> <Gold.Protein.ActiveResidues>
 VAL166  LYS551  ARG553  GLY616  TRP617  ASP618  TYR619  PRO620  LYS621  CYS622 
 ASP623  PHE694  ASN695  SER759  ASP760  ASP761  ALA762  ILE779  LEU786  VAL792 
 PHE793  MET794  SER795  GLU796  ALA797  LYS798  CYS799  TRP800  GLU811  SER814 

> <Gold.Protein.RotatedAtoms>
  151.0890  133.5330  159.2615 H   0  0  0  0  0  0  0  0  0  0  0  0  # atno 6907 bound_to 6896
  151.2205  135.0516  159.8957 H   0  0  0  0  0  0  0  0  0  0  0  0  # atno 6908 bound_to 6896
  152.5432  134.0693  159.8240 H   0  0  0  0  0  0  0  0  0  0  0  0  # atno 6909 bound_to 6896
  144.7128  140.1311  143.6398 H   0  0  0  0  0  0  0  0  0  0  0  0  # atno 7974 bound_to 7965
  155.4179  140.0516  157.3027 H   0  0  0  0  0  0  0  0  0  0  0  0  # atno 8008 bound_to 7997
  154.4916  140.2122  155.9495 H   0  0  0  0  0  0  0  0  0  0  0  0  # atno 8009 bound_to 7997
  156.1350  140.3165  155.8411 H   0  0  0  0  0  0  0  0  0  0  0  0  # atno 8010 bound_to 7997
  140.2798  143.3289  152.0453 H   0  0  0  0  0  0  0  0  0  0  0  0  # atno 10167 bound_to 10162
  156.0360  130.5579  150.7584 H   0  0  0  0  0  0  0  0  0  0  0  0  # atno 10718 bound_to 10713
  154.7662  135.3132  154.8282 H   0  0  0  0  0  0  0  0  0  0  0  0  # atno 10763 bound_to 10752
  153.9029  135.6814  153.4758 H   0  0  0  0  0  0  0  0  0  0  0  0  # atno 10764 bound_to 10752
  153.1268  135.4798  154.9218 H   0  0  0  0  0  0  0  0  0  0  0  0  # atno 10765 bound_to 10752
  141.1062  133.8792  157.1711 H   0  0  0  0  0  0  0  0  0  0  0  0  # atno 11005 bound_to 11000
  145.9286  139.2591  143.1338 LP  0  0  0  0  0  0  0  0  0  0  0  0  # atno 17320 bound_to 7965
  145.9546  140.8882  143.0242 LP  0  0  0  0  0  0  0  0  0  0  0  0  # atno 17321 bound_to 7965
  139.4966  144.6600  151.6487 LP  0  0  0  0  0  0  0  0  0  0  0  0  # atno 17342 bound_to 10162
  140.5821  143.9927  150.6274 LP  0  0  0  0  0  0  0  0  0  0  0  0  # atno 17343 bound_to 10162
  157.5110  131.0925  151.0198 LP  0  0  0  0  0  0  0  0  0  0  0  0  # atno 17370 bound_to 10713
  157.0553  130.5803  149.5377 LP  0  0  0  0  0  0  0  0  0  0  0  0  # atno 17371 bound_to 10713
  139.9934  135.0056  157.0027 LP  0  0  0  0  0  0  0  0  0  0  0  0  # atno 17394 bound_to 11000
  140.4895  134.1208  155.7230 LP  0  0  0  0  0  0  0  0  0  0  0  0  # atno 17395 bound_to 11000

$$$$
