AV-unprocessed.smi:1065|AV-procd|sdf|4667|dock8
  -GOLD-   22720 3183D 1   1.00000     0.00000
 Structure written by MMmdl.
 39 40  0  0  0  0  0  0  0  0  1 V2000
  153.6805  140.6401  159.6756 C   0  0  0  0  0  0  0  0  0  0  0  0
  153.2671  141.7606  160.6399 C   0  0  0  0  0  0  0  0  0  0  0  0
  152.7125  143.0196  159.9427 C   0  0  2  0  0  0  0  0  0  0  0  0
  152.4663  144.1467  160.9661 C   0  0  0  0  0  0  0  0  0  0  0  0
  151.9061  145.4172  160.3019 C   0  0  0  0  0  0  0  0  0  0  0  0
  150.6202  145.1450  159.4960 C   0  0  2  0  0  0  0  0  0  0  0  0
  149.4007  144.9022  160.4120 C   0  0  0  0  0  0  0  0  0  0  0  0
  148.1862  144.7066  159.6320 N   0  0  0  0  0  0  0  0  0  0  0  0
  147.1157  144.0075  160.0357 C   0  0  0  0  0  0  0  0  0  0  0  0
  147.0153  143.5021  161.1531 O   0  0  0  0  0  0  0  0  0  0  0  0
  145.9874  143.8444  159.0169 C   0  0  0  0  0  0  0  0  0  0  0  0
  145.9402  142.4851  158.5103 N   0  0  0  0  0  0  0  0  0  0  0  0
  146.0673  142.0060  157.2710 C   0  0  0  0  0  0  0  0  0  0  0  0
  145.9355  140.6887  157.2408 N   0  0  0  0  0  0  0  0  0  0  0  0
  145.7140  140.3636  158.5689 N   0  0  0  0  0  0  0  0  0  0  0  0
  145.7153  141.4254  159.3270 N   0  0  0  0  0  0  0  0  0  0  0  0
  150.8717  144.0085  158.4796 C   0  0  0  0  0  0  0  0  0  0  0  0
  151.4212  142.7354  159.1456 C   0  0  0  0  0  0  0  0  0  0  0  0
  154.1372  139.8134  160.2203 H   0  0  0  0  0  0  0  0  0  0  0  0
  154.4074  140.9964  158.9452 H   0  0  0  0  0  0  0  0  0  0  0  0
  152.8256  140.2378  159.1328 H   0  0  0  0  0  0  0  0  0  0  0  0
  152.5359  141.3778  161.3529 H   0  0  0  0  0  0  0  0  0  0  0  0
  154.1430  142.0376  161.2276 H   0  0  0  0  0  0  0  0  0  0  0  0
  153.4703  143.3740  159.2422 H   0  0  0  0  0  0  0  0  0  0  0  0
  151.7813  143.8005  161.7406 H   0  0  0  0  0  0  0  0  0  0  0  0
  153.3981  144.3924  161.4768 H   0  0  0  0  0  0  0  0  0  0  0  0
  151.7240  146.1828  161.0567 H   0  0  0  0  0  0  0  0  0  0  0  0
  152.6642  145.8284  159.6341 H   0  0  0  0  0  0  0  0  0  0  0  0
  150.4037  146.0487  158.9239 H   0  0  0  0  0  0  0  0  0  0  0  0
  149.5700  144.0361  161.0530 H   0  0  0  0  0  0  0  0  0  0  0  0
  149.2519  145.7573  161.0723 H   0  0  0  0  0  0  0  0  0  0  0  0
  148.1782  145.0903  158.6977 H   0  0  0  0  0  0  0  0  0  0  0  0
  145.0270  144.0794  159.4771 H   0  0  0  0  0  0  0  0  0  0  0  0
  146.1295  144.5395  158.1878 H   0  0  0  0  0  0  0  0  0  0  0  0
  146.2479  142.6178  156.3991 H   0  0  0  0  0  0  0  0  0  0  0  0
  149.9653  143.7738  157.9207 H   0  0  0  0  0  0  0  0  0  0  0  0
  151.5926  144.3527  157.7369 H   0  0  0  0  0  0  0  0  0  0  0  0
  151.6106  141.9926  158.3710 H   0  0  0  0  0  0  0  0  0  0  0  0
  150.6642  142.3042  159.8016 H   0  0  0  0  0  0  0  0  0  0  0  0
  1  2  1  0  0  0  0
  1 19  1  0  0  0  0
  1 20  1  0  0  0  0
  1 21  1  0  0  0  0
  2  3  1  0  0  0  0
  2 22  1  0  0  0  0
  2 23  1  0  0  0  0
  3 18  1  0  0  0  0
  3  4  1  0  0  0  0
  3 24  1  0  0  0  0
  4  5  1  0  0  0  0
  4 25  1  0  0  0  0
  4 26  1  0  0  0  0
  5  6  1  0  0  0  0
  5 27  1  0  0  0  0
  5 28  1  0  0  0  0
  6  7  1  0  0  0  0
  6 17  1  0  0  0  0
  6 29  1  0  0  0  0
  7  8  1  0  0  0  0
  7 30  1  0  0  0  0
  7 31  1  0  0  0  0
  8  9  1  0  0  0  0
  8 32  1  0  0  0  0
  9 10  2  0  0  0  0
  9 11  1  0  0  0  0
 11 12  1  0  0  0  0
 11 33  1  0  0  0  0
 11 34  1  0  0  0  0
 12 16  1  0  0  0  0
 12 13  1  0  0  0  0
 13 14  2  0  0  0  0
 13 35  1  0  0  0  0
 14 15  1  0  0  0  0
 15 16  2  0  0  0  0
 17 18  1  0  0  0  0
 17 36  1  0  0  0  0
 17 37  1  0  0  0  0
 18 38  1  0  0  0  0
 18 39  1  0  0  0  0
M  END
> <s_m_source_file>
AV-unprocessed.smi

> <i_m_source_file_index>
1065

> <i_lp_mmshare_version>
43012

> <i_f3d_flags>
0

> <s_epik_input>
W0NIM11bQ0gyXVtDQEBIXTFbQ0gyXVtDSDJdW0NASF0oW0NIMl1bQ0gyXTEpW0NIMl1bTkhdQyg9TylbQ0gyXW4yW2NIXW5ubjI=

> <s_epik_cmdline>
J2VwaWtfcHl0aG9uJywgJy1waCcsICc3LjAnLCAnLXRuJywgJzgnLCAnLW1hJywgJzIwMCcsICctbWV0YWxfYmluZGluZycsICctaW1hZScsICc8aW5maWxlLm1hZT4nLCAnLW9tYWUnLCAnPG91dGZpbGUubWFlPic=

> <r_lp_tautomer_probability>
1

> <r_epik_Ionization_Penalty>
4.54759e-07

> <r_epik_Ionization_Penalty_Charging>
0

> <r_epik_Ionization_Penalty_Neutral>
4.54759e-07

> <r_epik_State_Penalty>
-0

> <r_epik_Charging_Adjusted_Penalty>
0

> <i_epik_Tot_Q>
0

> <i_epik_Tot_abs_Q>
0

> <r_epik_Metal_State_Penalty>
-0

> <b_epik_Metal_Only>
0

> <s_lp_Force_Field>
OPLS_2005

> <r_lp_Energy>
15.297

> <b_lp_Chiralities_Consistent>
1

> <s_lp_Variant>
AV-unprocessed.smi:1065-2

> <Gold.Version>
5.8.1

> <Gold.Id.Protein>
6NUR|6NUR_protein|mol2

> <Gold.PLP.Fitness>
44.6524

> <Gold.PLP.PLP>
-36.6082

> <Gold.PLP.part.hbond>
-4.0000

> <Gold.PLP.part.metal>
0.0000

> <Gold.PLP.part.buried>
-7.0612

> <Gold.PLP.part.nonpolar>
-25.5795

> <Gold.PLP.part.repulsive>
0.1954

> <Gold.PLP.ligand.clash>
0.0000

> <Gold.PLP.ligand.torsion>
0.3324

> <Gold.PLP.Chemscore.Hbond>
2.8960

> <Gold.PLP.Chemscore.CHOScore>
0.0000

> <Gold.PLP.Chemscore.Metal>
0.0000

> <Gold.Chemscore.Hbonds>
donor molecule, donor type, donor heavy atom, donor atom, acceptor molecule, acceptor atom, score
      L1  H     8    32       P1  8029  1.00
      P1  H  6933  6944       L1    10  1.00
      P1  H  6934  6946       L1    16  0.87

> <Gold.PLP.Chemscore.Internal.Correction>
0.0210

> <Gold.Rescore>
     Score         DG    S(hbond)    S(metal)    S(lipo)     H(rot)  DE(clash)    DE(int)     intcor
     18.12     -18.54       2.54        0.00      92.72       2.45       0.01       0.41       ----

> <Gold.Chemscore.Fitness>
18.1166

> <Gold.Chemscore.DG>
-18.5436

> <Gold.Chemscore.ZeroCoef>
-5.4800

> <Gold.Chemscore.Hbond>
2.5421

> <Gold.Chemscore.Metal>
0.0000

> <Gold.Chemscore.Lipo>
92.7186

> <Gold.Chemscore.Internal_Hbond>
0.0000

> <Gold.Chemscore.DEClash>
0.0149

> <Gold.Chemscore.DEInternal>
0.4121

> <Gold.Chemscore.Rot>
2.4512

> <Gold.Chemscore.Internal.Correction>
   9.000000E+99

> <Gold.Chemscore.Hbonds>
donor molecule, donor type, donor heavy atom, donor atom, acceptor molecule, acceptor atom, score
      L1  H     8    32       P1  8029  1.00
      P1  H  6933  6944       L1    10  0.74
      P1  H  6934  6946       L1    16  0.19

> <Gold.Chemscore.Hbond.Weighted>
-8.4906

> <Gold.Chemscore.Metal.Weighted>
-0.0000

> <Gold.Chemscore.Lipo.Weighted>
-10.8481

> <Gold.Chemscore.Internal_Hbond.Weighted>
0.0000

> <Gold.Chemscore.DEClash.Weighted>
0.0149

> <Gold.Chemscore.DEInternal.Weighted>
0.4121

> <Gold.Chemscore.Rot.Weighted>
6.2750

> <Gold.Chemscore.Internal.Correction.Weighted>
   9.000000E+99

> <Gold.Protein.RotatedTorsions>
[ 6907 6896 6895 6894 ] final  -20.16 input  -60.11 | X-H torsion
[ 7974 7965 7964 7962 ] final   -6.01 input  175.53 | X-H torsion
[ 8008 7997 7996 7995 ] final   48.02 input   59.86 | X-H torsion
[ 10167 10162 10161 10158 ] final   81.34 input  -65.29 | X-H torsion
[ 10718 10713 10712 10709 ] final  -94.87 input   66.30 | X-H torsion
[ 10763 10752 10751 10750 ] final -168.52 input  -60.55 | X-H torsion
[ 11005 11000 10999 10996 ] final  -52.11 input  -57.11 | X-H torsion

> <Gold.Protein.ActiveResidues>
 VAL166  LYS551  ARG553  GLY616  TRP617  ASP618  TYR619  PRO620  LYS621  CYS622 
 ASP623  PHE694  ASN695  SER759  ASP760  ASP761  ALA762  ILE779  LEU786  VAL792 
 PHE793  MET794  SER795  GLU796  ALA797  LYS798  CYS799  TRP800  GLU811  SER814 

> <Gold.Protein.RotatedAtoms>
  151.2523  135.0626  159.9066 H   0  0  0  0  0  0  0  0  0  0  0  0  # atno 6907 bound_to 6896
  152.5378  134.0319  159.8039 H   0  0  0  0  0  0  0  0  0  0  0  0  # atno 6908 bound_to 6896
  151.0529  133.5559  159.2672 H   0  0  0  0  0  0  0  0  0  0  0  0  # atno 6909 bound_to 6896
  146.2340  140.2106  142.8335 H   0  0  0  0  0  0  0  0  0  0  0  0  # atno 7974 bound_to 7965
  155.3787  140.3427  155.4246 H   0  0  0  0  0  0  0  0  0  0  0  0  # atno 8008 bound_to 7997
  156.1622  140.1604  156.8625 H   0  0  0  0  0  0  0  0  0  0  0  0  # atno 8009 bound_to 7997
  154.5151  140.0780  156.8047 H   0  0  0  0  0  0  0  0  0  0  0  0  # atno 8010 bound_to 7997
  139.9403  144.6094  150.8258 H   0  0  0  0  0  0  0  0  0  0  0  0  # atno 10167 bound_to 10162
  156.0034  130.5085  150.5991 H   0  0  0  0  0  0  0  0  0  0  0  0  # atno 10718 bound_to 10713
  154.6620  135.2926  154.9854 H   0  0  0  0  0  0  0  0  0  0  0  0  # atno 10763 bound_to 10752
  154.0910  135.6590  153.4856 H   0  0  0  0  0  0  0  0  0  0  0  0  # atno 10764 bound_to 10752
  153.0435  135.5220  154.7575 H   0  0  0  0  0  0  0  0  0  0  0  0  # atno 10765 bound_to 10752
  141.0907  133.6633  156.3976 H   0  0  0  0  0  0  0  0  0  0  0  0  # atno 11005 bound_to 11000
  144.9710  140.8368  143.5455 LP  0  0  0  0  0  0  0  0  0  0  0  0  # atno 17320 bound_to 7965
  145.2087  139.2215  143.5154 LP  0  0  0  0  0  0  0  0  0  0  0  0  # atno 17321 bound_to 7965
  140.7613  143.3170  151.2709 LP  0  0  0  0  0  0  0  0  0  0  0  0  # atno 17342 bound_to 10162
  139.6710  144.0021  152.2753 LP  0  0  0  0  0  0  0  0  0  0  0  0  # atno 17343 bound_to 10162
  157.3843  131.0786  151.1450 LP  0  0  0  0  0  0  0  0  0  0  0  0  # atno 17370 bound_to 10713
  157.2162  130.6460  149.5793 LP  0  0  0  0  0  0  0  0  0  0  0  0  # atno 17371 bound_to 10713
  140.5259  134.6259  157.5334 LP  0  0  0  0  0  0  0  0  0  0  0  0  # atno 17394 bound_to 11000
  139.9732  134.7258  156.0000 LP  0  0  0  0  0  0  0  0  0  0  0  0  # atno 17395 bound_to 11000

$$$$
