AV-unprocessed.smi:3159|AV-procd|sdf|12050|dock8
  -GOLD-   2272017473D 1   1.00000     0.00000
 Structure written by MMmdl.
 35 36  0  0  0  0  0  0  0  0  1 V2000
  153.8765  141.6377  160.5330 C   0  0  0  0  0  0  0  0  0  0  0  0
  152.8922  142.2901  159.6076 C   0  0  0  0  0  0  0  0  0  0  0  0
  152.1495  141.6882  158.5509 C   0  0  0  0  0  0  0  0  0  0  0  0
  151.4250  142.7377  158.0548 C   0  0  0  0  0  0  0  0  0  0  0  0
  150.5349  142.7478  157.0266 N   0  0  0  0  0  0  0  0  0  0  0  0
  150.0295  141.7082  156.3398 C   0  0  0  0  0  0  0  0  0  0  0  0
  150.2966  140.5231  156.5391 O   0  0  0  0  0  0  0  0  0  0  0  0
  149.1833  142.1254  155.3867 N   0  0  0  0  0  0  0  0  0  0  0  0
  148.4638  141.2618  154.4550 C   0  0  0  0  0  0  0  0  0  0  0  0
  146.9599  141.5922  154.4100 C   0  0  1  0  0  0  0  0  0  0  0  0
  146.2920  141.7555  155.7619 C   0  0  0  0  0  0  0  0  0  0  0  0
  145.0272  142.5295  155.4021 C   0  0  0  0  0  0  0  0  0  0  0  0
  145.3566  143.3087  154.2553 O   0  0  0  0  0  0  0  0  0  0  0  0
  146.6448  142.9435  153.7702 C   0  0  0  0  0  0  0  0  0  0  0  0
  151.7314  143.8706  158.7787 N   0  0  0  0  0  0  0  0  0  0  0  0
  151.2371  145.2280  158.6494 C   0  0  0  0  0  0  0  0  0  0  0  0
  152.6396  143.5874  159.7368 N   0  0  0  0  0  0  0  0  0  0  0  0
  153.8692  140.5539  160.4151 H   0  0  0  0  0  0  0  0  0  0  0  0
  153.6445  141.8586  161.5751 H   0  0  0  0  0  0  0  0  0  0  0  0
  154.8903  141.9862  160.3347 H   0  0  0  0  0  0  0  0  0  0  0  0
  152.1623  140.6578  158.2292 H   0  0  0  0  0  0  0  0  0  0  0  0
  150.2170  143.6631  156.7439 H   0  0  0  0  0  0  0  0  0  0  0  0
  149.0242  143.1182  155.2958 H   0  0  0  0  0  0  0  0  0  0  0  0
  148.9011  141.3159  153.4564 H   0  0  0  0  0  0  0  0  0  0  0  0
  148.5982  140.2327  154.7887 H   0  0  0  0  0  0  0  0  0  0  0  0
  146.4339  140.8152  153.8522 H   0  0  0  0  0  0  0  0  0  0  0  0
  146.0801  140.8067  156.2560 H   0  0  0  0  0  0  0  0  0  0  0  0
  146.9190  142.3528  156.4254 H   0  0  0  0  0  0  0  0  0  0  0  0
  144.2240  141.8426  155.1334 H   0  0  0  0  0  0  0  0  0  0  0  0
  144.6767  143.1562  156.2224 H   0  0  0  0  0  0  0  0  0  0  0  0
  147.3606  143.7008  154.0933 H   0  0  0  0  0  0  0  0  0  0  0  0
  146.6632  142.9052  152.6809 H   0  0  0  0  0  0  0  0  0  0  0  0
  150.4894  145.2939  157.8592 H   0  0  0  0  0  0  0  0  0  0  0  0
  152.0632  145.8979  158.4093 H   0  0  0  0  0  0  0  0  0  0  0  0
  150.7834  145.5443  159.5892 H   0  0  0  0  0  0  0  0  0  0  0  0
  1  2  1  0  0  0  0
  1 18  1  0  0  0  0
  1 19  1  0  0  0  0
  1 20  1  0  0  0  0
  2 17  2  0  0  0  0
  2  3  1  0  0  0  0
  3  4  2  0  0  0  0
  3 21  1  0  0  0  0
  4  5  1  0  0  0  0
  4 15  1  0  0  0  0
  5  6  1  0  0  0  0
  5 22  1  0  0  0  0
  6  7  2  0  0  0  0
  6  8  1  0  0  0  0
  8  9  1  0  0  0  0
  8 23  1  0  0  0  0
  9 10  1  0  0  0  0
  9 24  1  0  0  0  0
  9 25  1  0  0  0  0
 10 14  1  0  0  0  0
 10 11  1  0  0  0  0
 10 26  1  0  0  0  0
 11 12  1  0  0  0  0
 11 27  1  0  0  0  0
 11 28  1  0  0  0  0
 12 13  1  0  0  0  0
 12 29  1  0  0  0  0
 12 30  1  0  0  0  0
 13 14  1  0  0  0  0
 14 31  1  0  0  0  0
 14 32  1  0  0  0  0
 15 16  1  0  0  0  0
 15 17  1  0  0  0  0
 16 33  1  0  0  0  0
 16 34  1  0  0  0  0
 16 35  1  0  0  0  0
M  END
> <s_m_source_file>
AV-unprocessed.smi

> <i_m_source_file_index>
3159

> <i_lp_mmshare_version>
43012

> <i_f3d_flags>
0

> <s_epik_input>
W0NIM11jMVtjSF1jKG4objEpW0NIM10pW05IXUMoPU8pW05IXVtDSDJdW0NAQEhdMltDSDJdW0NIMl1PW0NIMl0y

> <s_epik_cmdline>
J2VwaWtfcHl0aG9uJywgJy1waCcsICc3LjAnLCAnLXRuJywgJzgnLCAnLW1hJywgJzIwMCcsICctbWV0YWxfYmluZGluZycsICctaW1hZScsICc8aW5maWxlLm1hZT4nLCAnLW9tYWUnLCAnPG91dGZpbGUubWFlPic=

> <r_lp_tautomer_probability>
1

> <r_epik_Ionization_Penalty>
9.40319e-05

> <r_epik_Ionization_Penalty_Charging>
0

> <r_epik_Ionization_Penalty_Neutral>
9.40319e-05

> <r_epik_State_Penalty>
-0

> <r_epik_Charging_Adjusted_Penalty>
0

> <i_epik_Tot_Q>
0

> <i_epik_Tot_abs_Q>
0

> <r_epik_Metal_State_Penalty>
-0

> <b_epik_Metal_Only>
0

> <s_lp_Force_Field>
OPLS_2005

> <r_lp_Energy>
19.8906

> <b_lp_Chiralities_Consistent>
1

> <s_lp_Variant>
AV-unprocessed.smi:3159-2

> <Gold.Version>
5.8.1

> <Gold.Id.Protein>
6NUR|6NUR_protein|mol2

> <Gold.PLP.Fitness>
42.2011

> <Gold.PLP.PLP>
-36.5697

> <Gold.PLP.part.hbond>
-2.0000

> <Gold.PLP.part.metal>
0.0000

> <Gold.PLP.part.buried>
-7.0756

> <Gold.PLP.part.nonpolar>
-27.5751

> <Gold.PLP.part.repulsive>
0.4345

> <Gold.PLP.ligand.clash>
0.0000

> <Gold.PLP.ligand.torsion>
0.1269

> <Gold.PLP.Chemscore.Hbond>
1.9600

> <Gold.PLP.Chemscore.CHOScore>
0.0000

> <Gold.PLP.Chemscore.Metal>
0.0000

> <Gold.Chemscore.Hbonds>
donor molecule, donor type, donor heavy atom, donor atom, acceptor molecule, acceptor atom, score
      L1  H     5    22       P1  8028  0.96
      L1  H     8    23       P1  8028  1.00

> <Gold.PLP.Chemscore.Internal.Correction>
0.0052

> <Gold.Rescore>
     Score         DG    S(hbond)    S(metal)    S(lipo)     H(rot)  DE(clash)    DE(int)     intcor
     14.70     -16.23       1.96        0.00      63.21       1.25       0.01       1.52       ----

> <Gold.Chemscore.Fitness>
14.6986

> <Gold.Chemscore.DG>
-16.2329

> <Gold.Chemscore.ZeroCoef>
-5.4800

> <Gold.Chemscore.Hbond>
1.9616

> <Gold.Chemscore.Metal>
0.0000

> <Gold.Chemscore.Lipo>
63.2108

> <Gold.Chemscore.Internal_Hbond>
0.0000

> <Gold.Chemscore.DEClash>
0.0127

> <Gold.Chemscore.DEInternal>
1.5216

> <Gold.Chemscore.Rot>
1.2478

> <Gold.Chemscore.Internal.Correction>
   9.000000E+99

> <Gold.Chemscore.Hbonds>
donor molecule, donor type, donor heavy atom, donor atom, acceptor molecule, acceptor atom, score
      L1  H     5    22       P1  8028  0.89
      L1  H     8    23       P1  8028  0.99

> <Gold.Chemscore.Hbond.Weighted>
-6.5517

> <Gold.Chemscore.Metal.Weighted>
-0.0000

> <Gold.Chemscore.Lipo.Weighted>
-7.3957

> <Gold.Chemscore.Internal_Hbond.Weighted>
0.0000

> <Gold.Chemscore.DEClash.Weighted>
0.0127

> <Gold.Chemscore.DEInternal.Weighted>
1.5216

> <Gold.Chemscore.Rot.Weighted>
3.1944

> <Gold.Chemscore.Internal.Correction.Weighted>
   9.000000E+99

> <Gold.Protein.RotatedTorsions>
[ 6907 6896 6895 6894 ] final -121.04 input  -60.11 | X-H torsion
[ 7974 7965 7964 7962 ] final  -53.32 input  175.53 | X-H torsion
[ 8008 7997 7996 7995 ] final  -34.75 input   59.86 | X-H torsion
[ 10167 10162 10161 10158 ] final   29.39 input  -65.29 | X-H torsion
[ 10718 10713 10712 10709 ] final  -30.75 input   66.30 | X-H torsion
[ 10763 10752 10751 10750 ] final -177.73 input  -60.55 | X-H torsion
[ 11005 11000 10999 10996 ] final  139.00 input  -57.11 | X-H torsion

> <Gold.Protein.ActiveResidues>
 VAL166  LYS551  ARG553  GLY616  TRP617  ASP618  TYR619  PRO620  LYS621  CYS622 
 ASP623  PHE694  ASN695  SER759  ASP760  ASP761  ALA762  ILE779  LEU786  VAL792 
 PHE793  MET794  SER795  GLU796  ALA797  LYS798  CYS799  TRP800  GLU811  SER814 

> <Gold.Protein.RotatedAtoms>
  150.8447  133.7880  159.3047 H   0  0  0  0  0  0  0  0  0  0  0  0  # atno 6907 bound_to 6896
  151.5571  135.1065  159.9973 H   0  0  0  0  0  0  0  0  0  0  0  0  # atno 6908 bound_to 6896
  152.4503  133.7574  159.6784 H   0  0  0  0  0  0  0  0  0  0  0  0  # atno 6909 bound_to 6896
  145.8981  140.8016  142.9757 H   0  0  0  0  0  0  0  0  0  0  0  0  # atno 7974 bound_to 7965
  154.4113  140.1675  156.2099 H   0  0  0  0  0  0  0  0  0  0  0  0  # atno 8008 bound_to 7997
  155.9452  140.3405  155.6338 H   0  0  0  0  0  0  0  0  0  0  0  0  # atno 8009 bound_to 7997
  155.6939  140.0737  157.2428 H   0  0  0  0  0  0  0  0  0  0  0  0  # atno 8010 bound_to 7997
  140.4770  144.0675  150.6253 H   0  0  0  0  0  0  0  0  0  0  0  0  # atno 10167 bound_to 10162
  156.3959  130.4381  149.7359 H   0  0  0  0  0  0  0  0  0  0  0  0  # atno 10718 bound_to 10713
  154.5565  135.2817  155.0960 H   0  0  0  0  0  0  0  0  0  0  0  0  # atno 10763 bound_to 10752
  154.2385  135.6361  153.5203 H   0  0  0  0  0  0  0  0  0  0  0  0  # atno 10764 bound_to 10752
  153.0017  135.5554  154.6146 H   0  0  0  0  0  0  0  0  0  0  0  0  # atno 10765 bound_to 10752
  140.0223  134.9391  157.0500 H   0  0  0  0  0  0  0  0  0  0  0  0  # atno 11005 bound_to 11000
  144.6734  140.1634  143.7420 LP  0  0  0  0  0  0  0  0  0  0  0  0  # atno 17320 bound_to 7965
  145.8825  139.2330  143.1597 LP  0  0  0  0  0  0  0  0  0  0  0  0  # atno 17321 bound_to 7965
  140.3906  143.2754  152.0064 LP  0  0  0  0  0  0  0  0  0  0  0  0  # atno 17342 bound_to 10162
  139.4827  144.6080  151.7486 LP  0  0  0  0  0  0  0  0  0  0  0  0  # atno 17343 bound_to 10162
  156.4394  130.7854  151.2875 LP  0  0  0  0  0  0  0  0  0  0  0  0  # atno 17370 bound_to 10713
  157.7501  131.0129  150.3404 LP  0  0  0  0  0  0  0  0  0  0  0  0  # atno 17371 bound_to 10713
  140.4365  134.1725  155.7171 LP  0  0  0  0  0  0  0  0  0  0  0  0  # atno 17394 bound_to 11000
  141.1782  133.8470  157.1351 LP  0  0  0  0  0  0  0  0  0  0  0  0  # atno 17395 bound_to 11000

$$$$
