AV-unprocessed.smi:47|AV-procd|sdf|430|dock1
  -GOLD-   2262016303D 1   1.00000     0.00000
 Structure written by MMmdl.
 31 33  0  0  0  0  0  0  0  0  3 V2000
  148.3275  136.4065  154.7403 O   0  0  0  0  0  0  0  0  0  0  0  0
  149.1014  137.5551  155.0154 C   0  0  2  0  0  0  0  0  0  0  0  0
  148.7356  138.7305  154.1109 C   0  0  0  0  0  0  0  0  0  0  0  0
  149.9385  139.5818  154.0767 N   0  3  0  0  0  0  0  0  0  0  0  0
  151.1100  138.7631  154.4568 C   0  0  1  0  0  0  0  0  0  0  0  0
  151.7764  139.3460  155.6872 C   0  0  0  0  0  0  0  0  0  0  0  0
  152.8200  138.7796  156.3222 N   0  0  0  0  0  0  0  0  0  0  0  0
  153.0872  139.5586  157.3528 N   0  5  0  0  0  0  0  0  0  0  0  0
  152.2077  140.5718  157.3405 C   0  0  0  0  0  0  0  0  0  0  0  0
  152.2144  141.6369  158.3640 C   0  0  0  0  0  0  0  0  0  0  0  0
  151.5853  142.8779  158.1097 C   0  0  0  0  0  0  0  0  0  0  0  0
  151.5834  143.9031  159.0753 C   0  0  0  0  0  0  0  0  0  0  0  0
  152.2138  143.7020  160.3165 C   0  0  0  0  0  0  0  0  0  0  0  0
  152.8446  142.4743  160.5872 C   0  0  0  0  0  0  0  0  0  0  0  0
  152.8437  141.4522  159.6181 C   0  0  0  0  0  0  0  0  0  0  0  0
  151.3744  140.4632  156.3155 N   0  0  0  0  0  0  0  0  0  0  0  0
  150.5799  137.3425  154.7023 C   0  0  0  0  0  0  0  0  0  0  0  0
  148.9808  137.8386  156.0622 H   0  0  0  0  0  0  0  0  0  0  0  0
  151.8320  138.7623  153.6395 H   0  0  0  0  0  0  0  0  0  0  0  0
  148.3788  136.2232  153.8143 H   0  0  0  0  0  0  0  0  0  0  0  0
  148.5371  138.3845  153.0953 H   0  0  0  0  0  0  0  0  0  0  0  0
  147.8606  139.2791  154.4602 H   0  0  0  0  0  0  0  0  0  0  0  0
  150.0631  139.9981  153.1655 H   0  0  0  0  0  0  0  0  0  0  0  0
  151.0956  143.0520  157.1628 H   0  0  0  0  0  0  0  0  0  0  0  0
  151.0977  144.8440  158.8625 H   0  0  0  0  0  0  0  0  0  0  0  0
  152.2134  144.4869  161.0583 H   0  0  0  0  0  0  0  0  0  0  0  0
  153.3297  142.3145  161.5389 H   0  0  0  0  0  0  0  0  0  0  0  0
  153.3341  140.5179  159.8488 H   0  0  0  0  0  0  0  0  0  0  0  0
  151.1189  136.8022  155.4817 H   0  0  0  0  0  0  0  0  0  0  0  0
  150.6738  136.7668  153.7799 H   0  0  0  0  0  0  0  0  0  0  0  0
  149.8450  140.3071  154.7748 H   0  0  0  0  0  0  0  0  0  0  0  0
  1  2  1  0  0  0  0
  1 20  1  0  0  0  0
  2 18  1  0  0  0  0
  2 17  1  0  0  0  0
  2  3  1  0  0  0  0
  3  4  1  0  0  0  0
  3 21  1  0  0  0  0
  3 22  1  0  0  0  0
  4  5  1  0  0  0  0
  4 23  1  0  0  0  0
  4 31  1  0  0  0  0
  5 19  1  0  0  0  0
  5  6  1  0  0  0  0
  5 17  1  0  0  0  0
  6 16  1  0  0  0  0
  6  7  2  0  0  0  0
  7  8  1  0  0  0  0
  8  9  1  0  0  0  0
  9 10  1  0  0  0  0
  9 16  2  0  0  0  0
 10 15  1  0  0  0  0
 10 11  2  0  0  0  0
 11 12  1  0  0  0  0
 11 24  1  0  0  0  0
 12 13  2  0  0  0  0
 12 25  1  0  0  0  0
 13 14  1  0  0  0  0
 13 26  1  0  0  0  0
 14 15  2  0  0  0  0
 14 27  1  0  0  0  0
 15 28  1  0  0  0  0
 17 29  1  0  0  0  0
 17 30  1  0  0  0  0
M  CHG  1   4   1
M  CHG  1   8  -1
M  END
> <s_m_source_file>
AV-unprocessed.smi

> <i_m_source_file_index>
47

> <i_lp_mmshare_version>
43012

> <i_f3d_flags>
0

> <s_epik_input>
W09IXVtDQEhdMVtDSDJdW05IXVtDQEBIXShbQ0gyXTEpYzJuW25IXWMobjIpLWMzW2NIXVtjSF1bY0hdW2NIXVtjSF0z

> <s_epik_cmdline>
J2VwaWtfcHl0aG9uJywgJy1waCcsICc3LjAnLCAnLXRuJywgJzgnLCAnLW1hJywgJzIwMCcsICctbWV0YWxfYmluZGluZycsICctaW1hZScsICc8aW5maWxlLm1hZT4nLCAnLW9tYWUnLCAnPG91dGZpbGUubWFlPic=

> <r_lp_tautomer_probability>
1

> <r_epik_Ionization_Penalty>
1.09593

> <r_epik_Ionization_Penalty_Charging>
1.09593

> <r_epik_Ionization_Penalty_Neutral>
3.91329e-08

> <r_epik_State_Penalty>
0.690005

> <r_epik_Charging_Adjusted_Penalty>
1.78594

> <i_epik_Tot_Q>
0

> <i_epik_Tot_abs_Q>
2

> <r_epik_Metal_State_Penalty>
0.213596

> <b_epik_Metal_Only>
0

> <s_lp_Force_Field>
OPLS_2005

> <r_lp_Energy>
20.8085

> <b_lp_Chiralities_Consistent>
1

> <s_lp_Variant>
AV-unprocessed.smi:47-8

> <Gold.Version>
5.8.1

> <Gold.Id.Protein>
6NUR|6NUR_protein|mol2

> <Gold.PLP.Fitness>
46.0934

> <Gold.PLP.PLP>
-34.5103

> <Gold.PLP.part.hbond>
-4.0000

> <Gold.PLP.part.metal>
0.0000

> <Gold.PLP.part.buried>
-4.6690

> <Gold.PLP.part.nonpolar>
-26.1803

> <Gold.PLP.part.repulsive>
0.2695

> <Gold.PLP.ligand.clash>
0.0000

> <Gold.PLP.ligand.torsion>
0.1890

> <Gold.PLP.Chemscore.Hbond>
3.9833

> <Gold.PLP.Chemscore.CHOScore>
0.0000

> <Gold.PLP.Chemscore.Metal>
0.0000

> <Gold.Chemscore.Hbonds>
donor molecule, donor type, donor heavy atom, donor atom, acceptor molecule, acceptor atom, score
      L1  H     1    20       P1  7948  1.00
      L1  H     4    23       P1  7957  0.93
      P1  H  7997  8008       L1     8  1.90

> <Gold.PLP.Chemscore.Internal.Correction>
0.0110

> <Gold.Rescore>
     Score         DG    S(hbond)    S(metal)    S(lipo)     H(rot)  DE(clash)    DE(int)     intcor
     20.11     -20.38       2.62        0.00      84.89       1.48       0.15       0.12       ----

> <Gold.Chemscore.Fitness>
20.1133

> <Gold.Chemscore.DG>
-20.3803

> <Gold.Chemscore.ZeroCoef>
-5.4800

> <Gold.Chemscore.Hbond>
2.6221

> <Gold.Chemscore.Metal>
0.0000

> <Gold.Chemscore.Lipo>
84.8914

> <Gold.Chemscore.Internal_Hbond>
0.0000

> <Gold.Chemscore.DEClash>
0.1506

> <Gold.Chemscore.DEInternal>
0.1165

> <Gold.Chemscore.Rot>
1.4804

> <Gold.Chemscore.Internal.Correction>
   9.000000E+99

> <Gold.Chemscore.Hbonds>
donor molecule, donor type, donor heavy atom, donor atom, acceptor molecule, acceptor atom, score
      L1  H     1    20       P1  7948  0.93
      L1  H     4    23       P1  7957  0.85
      P1  H  7997  8008       L1     8  0.16

> <Gold.Chemscore.Hbond.Weighted>
-8.7579

> <Gold.Chemscore.Metal.Weighted>
-0.0000

> <Gold.Chemscore.Lipo.Weighted>
-9.9323

> <Gold.Chemscore.Internal_Hbond.Weighted>
0.0000

> <Gold.Chemscore.DEClash.Weighted>
0.1506

> <Gold.Chemscore.DEInternal.Weighted>
0.1165

> <Gold.Chemscore.Rot.Weighted>
3.7899

> <Gold.Chemscore.Internal.Correction.Weighted>
   9.000000E+99

> <Gold.Protein.RotatedTorsions>
[ 6907 6896 6895 6894 ] final    4.12 input  -60.11 | X-H torsion
[ 7974 7965 7964 7962 ] final  134.03 input  175.53 | X-H torsion
[ 8008 7997 7996 7995 ] final  -80.65 input   59.86 | X-H torsion
[ 10167 10162 10161 10158 ] final  155.54 input  -65.29 | X-H torsion
[ 10718 10713 10712 10709 ] final  157.93 input   66.30 | X-H torsion
[ 10763 10752 10751 10750 ] final   40.00 input  -60.55 | X-H torsion
[ 11005 11000 10999 10996 ] final  -22.85 input  -57.11 | X-H torsion

> <Gold.Protein.ActiveResidues>
 VAL166  LYS551  ARG553  GLY616  TRP617  ASP618  TYR619  PRO620  LYS621  CYS622 
 ASP623  PHE694  ASN695  SER759  ASP760  ASP761  ALA762  ILE779  LEU786  VAL792 
 PHE793  MET794  SER795  GLU796  ALA797  LYS798  CYS799  TRP800  GLU811  SER814 

> <Gold.Protein.RotatedAtoms>
  151.6361  135.1018  160.0131 H   0  0  0  0  0  0  0  0  0  0  0  0  # atno 6907 bound_to 6896
  152.4080  133.6914  159.6381 H   0  0  0  0  0  0  0  0  0  0  0  0  # atno 6908 bound_to 6896
  150.7972  133.8592  159.3268 H   0  0  0  0  0  0  0  0  0  0  0  0  # atno 6909 bound_to 6896
  144.9805  139.4509  143.5388 H   0  0  0  0  0  0  0  0  0  0  0  0  # atno 7974 bound_to 7965
  154.5905  140.0659  156.9231 H   0  0  0  0  0  0  0  0  0  0  0  0  # atno 8008 bound_to 7997
  155.2304  140.3337  155.4286 H   0  0  0  0  0  0  0  0  0  0  0  0  # atno 8009 bound_to 7997
  156.2252  140.1816  156.7365 H   0  0  0  0  0  0  0  0  0  0  0  0  # atno 8010 bound_to 7997
  139.4821  144.5089  151.8055 H   0  0  0  0  0  0  0  0  0  0  0  0  # atno 10167 bound_to 10162
  157.1848  131.0641  151.2112 H   0  0  0  0  0  0  0  0  0  0  0  0  # atno 10718 bound_to 10713
  152.9949  135.6204  154.2556 H   0  0  0  0  0  0  0  0  0  0  0  0  # atno 10763 bound_to 10752
  154.2294  135.2792  155.2897 H   0  0  0  0  0  0  0  0  0  0  0  0  # atno 10764 bound_to 10752
  154.5462  135.5746  153.6940 H   0  0  0  0  0  0  0  0  0  0  0  0  # atno 10765 bound_to 10752
  140.8696  133.7730  156.0170 H   0  0  0  0  0  0  0  0  0  0  0  0  # atno 11005 bound_to 11000
  146.3407  139.9075  142.8785 LP  0  0  0  0  0  0  0  0  0  0  0  0  # atno 17320 bound_to 7965
  145.2428  141.0015  143.3926 LP  0  0  0  0  0  0  0  0  0  0  0  0  # atno 17321 bound_to 7965
  140.4590  144.1749  150.5904 LP  0  0  0  0  0  0  0  0  0  0  0  0  # atno 17342 bound_to 10162
  140.4505  143.2489  151.9354 LP  0  0  0  0  0  0  0  0  0  0  0  0  # atno 17343 bound_to 10162
  157.3918  130.7286  149.6703 LP  0  0  0  0  0  0  0  0  0  0  0  0  # atno 17370 bound_to 10713
  155.9719  130.4144  150.4132 LP  0  0  0  0  0  0  0  0  0  0  0  0  # atno 17371 bound_to 10713
  140.8589  134.2865  157.5243 LP  0  0  0  0  0  0  0  0  0  0  0  0  # atno 17394 bound_to 11000
  139.8711  134.9507  156.4064 LP  0  0  0  0  0  0  0  0  0  0  0  0  # atno 17395 bound_to 11000

$$$$
