AV-unprocessed.smi:2265|AV-procd|sdf|9144|dock1
  -GOLD-   2272012353D 1   1.00000     0.00000
 Structure written by MMmdl.
 36 37  0  0  0  0  0  0  0  0  1 V2000
  144.7005  132.5435  150.2319 C   0  0  0  0  0  0  0  0  0  0  0  0
  145.7246  133.2550  151.1226 C   0  0  0  0  0  0  0  0  0  0  0  0
  145.8377  134.7526  150.8084 C   0  0  0  0  0  0  0  0  0  0  0  0
  144.7102  135.5585  151.4289 C   0  0  1  0  0  0  0  0  0  0  0  0
  144.4784  135.5512  152.9166 C   0  0  0  0  0  0  0  0  0  0  0  0
  144.9631  136.8159  152.2371 C   0  0  1  0  0  0  0  0  0  0  0  0
  146.3109  137.2226  152.5031 N   0  0  0  0  0  0  0  0  0  0  0  0
  146.7240  138.2264  153.2973 C   0  0  0  0  0  0  0  0  0  0  0  0
  145.9135  138.9026  153.9303 O   0  0  0  0  0  0  0  0  0  0  0  0
  148.0674  138.3660  153.3469 N   0  0  0  0  0  0  0  0  0  0  0  0
  148.8202  139.2807  154.0933 C   0  0  0  0  0  0  0  0  0  0  0  0
  148.3618  140.4383  154.4804 N   0  0  0  0  0  0  0  0  0  0  0  0
  149.1419  141.3250  155.2228 C   0  0  0  0  0  0  0  0  0  0  0  0
  150.4054  141.0135  155.5636 C   0  0  0  0  0  0  0  0  0  0  0  0
  150.9687  139.7884  155.1803 N   0  0  0  0  0  0  0  0  0  0  0  0
  152.3459  139.4988  155.5808 C   0  0  0  0  0  0  0  0  0  0  0  0
  150.2528  138.8831  154.4596 C   0  0  0  0  0  0  0  0  0  0  0  0
  150.7026  137.7917  154.1043 O   0  0  0  0  0  0  0  0  0  0  0  0
  144.6441  131.4826  150.4759 H   0  0  0  0  0  0  0  0  0  0  0  0
  144.9678  132.6291  149.1784 H   0  0  0  0  0  0  0  0  0  0  0  0
  143.7046  132.9681  150.3609 H   0  0  0  0  0  0  0  0  0  0  0  0
  145.4460  133.1200  152.1682 H   0  0  0  0  0  0  0  0  0  0  0  0
  146.6993  132.7815  150.9993 H   0  0  0  0  0  0  0  0  0  0  0  0
  146.7969  135.1291  151.1653 H   0  0  0  0  0  0  0  0  0  0  0  0
  145.8192  134.9105  149.7295 H   0  0  0  0  0  0  0  0  0  0  0  0
  143.8153  135.5851  150.8097 H   0  0  0  0  0  0  0  0  0  0  0  0
  143.4467  135.5293  153.2616 H   0  0  0  0  0  0  0  0  0  0  0  0
  145.1855  135.0014  153.5350 H   0  0  0  0  0  0  0  0  0  0  0  0
  144.2153  137.6037  152.1591 H   0  0  0  0  0  0  0  0  0  0  0  0
  147.0318  136.6374  152.1062 H   0  0  0  0  0  0  0  0  0  0  0  0
  148.5899  137.7141  152.7800 H   0  0  0  0  0  0  0  0  0  0  0  0
  148.6807  142.2602  155.5037 H   0  0  0  0  0  0  0  0  0  0  0  0
  151.0467  141.6661  156.1378 H   0  0  0  0  0  0  0  0  0  0  0  0
  152.3685  138.6659  156.2846 H   0  0  0  0  0  0  0  0  0  0  0  0
  152.8279  140.3506  156.0620 H   0  0  0  0  0  0  0  0  0  0  0  0
  152.9525  139.2293  154.7151 H   0  0  0  0  0  0  0  0  0  0  0  0
  1  2  1  0  0  0  0
  1 19  1  0  0  0  0
  1 20  1  0  0  0  0
  1 21  1  0  0  0  0
  2  3  1  0  0  0  0
  2 22  1  0  0  0  0
  2 23  1  0  0  0  0
  3  4  1  0  0  0  0
  3 24  1  0  0  0  0
  3 25  1  0  0  0  0
  4  6  1  0  0  0  0
  4  5  1  0  0  0  0
  4 26  1  0  0  0  0
  5  6  1  0  0  0  0
  5 27  1  0  0  0  0
  5 28  1  0  0  0  0
  6  7  1  0  0  0  0
  6 29  1  0  0  0  0
  7  8  1  0  0  0  0
  7 30  1  0  0  0  0
  8  9  2  0  0  0  0
  8 10  1  0  0  0  0
 10 11  1  0  0  0  0
 10 31  1  0  0  0  0
 11 17  1  0  0  0  0
 11 12  2  0  0  0  0
 12 13  1  0  0  0  0
 13 14  2  0  0  0  0
 13 32  1  0  0  0  0
 14 15  1  0  0  0  0
 14 33  1  0  0  0  0
 15 16  1  0  0  0  0
 15 17  1  0  0  0  0
 16 34  1  0  0  0  0
 16 35  1  0  0  0  0
 16 36  1  0  0  0  0
 17 18  2  0  0  0  0
M  END
> <s_m_source_file>
AV-unprocessed.smi

> <i_m_source_file_index>
2265

> <i_lp_mmshare_version>
43012

> <i_f3d_flags>
0

> <s_epik_input>
W0NIM11bQ0gyXVtDSDJdW0NAQEhdMVtDSDJdW0NASF0xW05IXUMoPU8pW05IXWMybltjSF1bY0hdbihbQ0gzXSljMj1P

> <s_epik_cmdline>
J2VwaWtfcHl0aG9uJywgJy1waCcsICc3LjAnLCAnLXRuJywgJzgnLCAnLW1hJywgJzIwMCcsICctbWV0YWxfYmluZGluZycsICctaW1hZScsICc8aW5maWxlLm1hZT4nLCAnLW9tYWUnLCAnPG91dGZpbGUubWFlPic=

> <r_lp_tautomer_probability>
1

> <r_epik_Ionization_Penalty>
0.000728552

> <r_epik_Ionization_Penalty_Charging>
1.67739e-07

> <r_epik_Ionization_Penalty_Neutral>
0.000728385

> <r_epik_State_Penalty>
-0

> <r_epik_Charging_Adjusted_Penalty>
1.67739e-07

> <i_epik_Tot_Q>
0

> <i_epik_Tot_abs_Q>
0

> <r_epik_Metal_State_Penalty>
-0

> <b_epik_Metal_Only>
0

> <s_lp_Force_Field>
OPLS_2005

> <r_lp_Energy>
43.9495

> <b_lp_Chiralities_Consistent>
1

> <s_lp_Variant>
AV-unprocessed.smi:2265-2

> <Gold.Version>
5.8.1

> <Gold.Id.Protein>
6NUR|6NUR_protein|mol2

> <Gold.PLP.Fitness>
39.6987

> <Gold.PLP.PLP>
-31.4827

> <Gold.PLP.part.hbond>
-2.6220

> <Gold.PLP.part.metal>
0.0000

> <Gold.PLP.part.buried>
-1.9198

> <Gold.PLP.part.nonpolar>
-26.9885

> <Gold.PLP.part.repulsive>
0.8227

> <Gold.PLP.ligand.clash>
0.0000

> <Gold.PLP.ligand.torsion>
0.7003

> <Gold.PLP.Chemscore.Hbond>
2.0000

> <Gold.PLP.Chemscore.CHOScore>
1.0000

> <Gold.PLP.Chemscore.Metal>
0.0000

> <Gold.Chemscore.Hbonds>
donor molecule, donor type, donor heavy atom, donor atom, acceptor molecule, acceptor atom, score
      L1  H     7    30       P1  7948  1.00
      L1  H    10    31       P1  7948  1.00
      L1  C    13    32       P1  8028  1.00

> <Gold.PLP.Chemscore.Internal.Correction>
0.6167

> <Gold.Rescore>
     Score         DG    S(hbond)    S(metal)    S(lipo)     H(rot)  DE(clash)    DE(int)     intcor
     12.97     -14.91       1.96        0.00      56.62       1.46       0.05       1.89       ----

> <Gold.Chemscore.Fitness>
12.9739

> <Gold.Chemscore.DG>
-14.9141

> <Gold.Chemscore.ZeroCoef>
-5.4800

> <Gold.Chemscore.Hbond>
1.9605

> <Gold.Chemscore.Metal>
0.0000

> <Gold.Chemscore.Lipo>
56.6232

> <Gold.Chemscore.Internal_Hbond>
0.0000

> <Gold.Chemscore.DEClash>
0.0472

> <Gold.Chemscore.DEInternal>
1.8930

> <Gold.Chemscore.Rot>
1.4604

> <Gold.Chemscore.Internal.Correction>
   9.000000E+99

> <Gold.Chemscore.Hbonds>
donor molecule, donor type, donor heavy atom, donor atom, acceptor molecule, acceptor atom, score
      L1  H     7    30       P1  7948  0.93
      L1  H    10    31       P1  7948  1.00

> <Gold.Chemscore.Hbond.Weighted>
-6.5479

> <Gold.Chemscore.Metal.Weighted>
-0.0000

> <Gold.Chemscore.Lipo.Weighted>
-6.6249

> <Gold.Chemscore.Internal_Hbond.Weighted>
0.0000

> <Gold.Chemscore.DEClash.Weighted>
0.0472

> <Gold.Chemscore.DEInternal.Weighted>
1.8930

> <Gold.Chemscore.Rot.Weighted>
3.7387

> <Gold.Chemscore.Internal.Correction.Weighted>
   9.000000E+99

> <Gold.Protein.RotatedTorsions>
[ 6907 6896 6895 6894 ] final -102.53 input  -60.11 | X-H torsion
[ 7974 7965 7964 7962 ] final -148.82 input  175.53 | X-H torsion
[ 8008 7997 7996 7995 ] final  -48.06 input   59.86 | X-H torsion
[ 10167 10162 10161 10158 ] final  157.06 input  -65.29 | X-H torsion
[ 10718 10713 10712 10709 ] final   14.20 input   66.30 | X-H torsion
[ 10763 10752 10751 10750 ] final   64.57 input  -60.55 | X-H torsion
[ 11005 11000 10999 10996 ] final  -99.52 input  -57.11 | X-H torsion

> <Gold.Protein.ActiveResidues>
 VAL166  LYS551  ARG553  GLY616  TRP617  ASP618  TYR619  PRO620  LYS621  CYS622 
 ASP623  PHE694  ASN695  SER759  ASP760  ASP761  ALA762  ILE779  LEU786  VAL792 
 PHE793  MET794  SER795  GLU796  ALA797  LYS798  CYS799  TRP800  GLU811  SER814 

> <Gold.Protein.RotatedAtoms>
  150.7200  134.0568  159.3816 H   0  0  0  0  0  0  0  0  0  0  0  0  # atno 6907 bound_to 6896
  151.8546  135.0543  160.0472 H   0  0  0  0  0  0  0  0  0  0  0  0  # atno 6908 bound_to 6896
  152.2764  133.5394  159.5507 H   0  0  0  0  0  0  0  0  0  0  0  0  # atno 6909 bound_to 6896
  144.8005  140.5146  143.5710 H   0  0  0  0  0  0  0  0  0  0  0  0  # atno 7974 bound_to 7965
  154.4024  140.1331  156.4277 H   0  0  0  0  0  0  0  0  0  0  0  0  # atno 8008 bound_to 7997
  155.7581  140.3486  155.5164 H   0  0  0  0  0  0  0  0  0  0  0  0  # atno 8009 bound_to 7997
  155.8885  140.0999  157.1425 H   0  0  0  0  0  0  0  0  0  0  0  0  # atno 8010 bound_to 7997
  139.4822  144.4952  151.8250 H   0  0  0  0  0  0  0  0  0  0  0  0  # atno 10167 bound_to 10162
  157.0357  130.6211  149.5742 H   0  0  0  0  0  0  0  0  0  0  0  0  # atno 10718 bound_to 10713
  153.0061  135.5388  154.6531 H   0  0  0  0  0  0  0  0  0  0  0  0  # atno 10763 bound_to 10752
  154.5758  135.2845  155.0784 H   0  0  0  0  0  0  0  0  0  0  0  0  # atno 10764 bound_to 10752
  154.1932  135.6496  153.5118 H   0  0  0  0  0  0  0  0  0  0  0  0  # atno 10765 bound_to 10752
  141.1306  133.8327  157.0982 H   0  0  0  0  0  0  0  0  0  0  0  0  # atno 11005 bound_to 11000
  145.5564  139.1478  143.3365 LP  0  0  0  0  0  0  0  0  0  0  0  0  # atno 17320 bound_to 7965
  146.2285  140.5701  142.8985 LP  0  0  0  0  0  0  0  0  0  0  0  0  # atno 17321 bound_to 7965
  140.4440  144.1948  150.5893 LP  0  0  0  0  0  0  0  0  0  0  0  0  # atno 17342 bound_to 10162
  140.4654  143.2433  151.9162 LP  0  0  0  0  0  0  0  0  0  0  0  0  # atno 17343 bound_to 10162
  156.0055  130.5140  150.7813 LP  0  0  0  0  0  0  0  0  0  0  0  0  # atno 17370 bound_to 10713
  157.5143  131.0927  151.0159 LP  0  0  0  0  0  0  0  0  0  0  0  0  # atno 17371 bound_to 10713
  140.0350  134.9883  157.0853 LP  0  0  0  0  0  0  0  0  0  0  0  0  # atno 17394 bound_to 11000
  140.4225  134.1866  155.7165 LP  0  0  0  0  0  0  0  0  0  0  0  0  # atno 17395 bound_to 11000

$$$$
