AV-unprocessed.smi:1422|AV-procd|sdf|5793|dock3
  -GOLD-   22720 5443D 1   1.00000     0.00000
 Structure written by MMmdl.
 31 32  0  0  0  0  0  0  0  0  1 V2000
  143.6647  132.3780  150.0579 C   0  0  0  0  0  0  0  0  0  0  0  0
  144.1504  133.5479  150.8429 C   0  0  0  0  0  0  0  0  0  0  0  0
  145.3213  134.2520  150.8341 C   0  0  0  0  0  0  0  0  0  0  0  0
  145.1101  135.2369  151.8356 C   0  0  0  0  0  0  0  0  0  0  0  0
  146.1136  136.1913  152.1406 N   0  0  0  0  0  0  0  0  0  0  0  0
  145.9566  137.3786  152.7500 C   0  0  0  0  0  0  0  0  0  0  0  0
  144.8847  137.8334  153.1510 O   0  0  0  0  0  0  0  0  0  0  0  0
  147.1269  138.0224  152.8695 N   0  0  0  0  0  0  0  0  0  0  0  0
  147.3122  139.3348  153.4813 C   0  0  0  0  0  0  0  0  0  0  0  0
  148.4767  139.3402  154.4895 C   0  0  1  0  0  0  0  0  0  0  0  0
  149.5949  138.3588  154.1939 C   0  0  0  0  0  0  0  0  0  0  0  0
  150.7454  138.9300  155.0178 C   0  0  0  0  0  0  0  0  0  0  0  0
  150.5288  140.3373  155.0713 O   0  0  0  0  0  0  0  0  0  0  0  0
  149.2532  140.6558  154.5240 C   0  0  0  0  0  0  0  0  0  0  0  0
  143.9181  135.1422  152.4045 N   0  0  0  0  0  0  0  0  0  0  0  0
  143.2971  134.0589  151.7716 O   0  0  0  0  0  0  0  0  0  0  0  0
  144.2702  132.2307  149.1635 H   0  0  0  0  0  0  0  0  0  0  0  0
  142.6306  132.5232  149.7442 H   0  0  0  0  0  0  0  0  0  0  0  0
  143.7135  131.4667  150.6541 H   0  0  0  0  0  0  0  0  0  0  0  0
  146.1872  134.0860  150.2107 H   0  0  0  0  0  0  0  0  0  0  0  0
  147.0523  135.9429  151.8657 H   0  0  0  0  0  0  0  0  0  0  0  0
  147.9554  137.5712  152.5100 H   0  0  0  0  0  0  0  0  0  0  0  0
  147.4574  140.1027  152.7194 H   0  0  0  0  0  0  0  0  0  0  0  0
  146.3866  139.5914  153.9968 H   0  0  0  0  0  0  0  0  0  0  0  0
  148.0912  139.1399  155.4908 H   0  0  0  0  0  0  0  0  0  0  0  0
  149.3511  137.3311  154.4647 H   0  0  0  0  0  0  0  0  0  0  0  0
  149.8490  138.3806  153.1330 H   0  0  0  0  0  0  0  0  0  0  0  0
  150.7164  138.5378  156.0349 H   0  0  0  0  0  0  0  0  0  0  0  0
  151.7198  138.6920  154.5906 H   0  0  0  0  0  0  0  0  0  0  0  0
  149.4003  141.0438  153.5150 H   0  0  0  0  0  0  0  0  0  0  0  0
  148.7490  141.4241  155.1106 H   0  0  0  0  0  0  0  0  0  0  0  0
  1  2  1  0  0  0  0
  1 17  1  0  0  0  0
  1 18  1  0  0  0  0
  1 19  1  0  0  0  0
  2 16  1  0  0  0  0
  2  3  2  0  0  0  0
  3  4  1  0  0  0  0
  3 20  1  0  0  0  0
  4  5  1  0  0  0  0
  4 15  2  0  0  0  0
  5  6  1  0  0  0  0
  5 21  1  0  0  0  0
  6  7  2  0  0  0  0
  6  8  1  0  0  0  0
  8  9  1  0  0  0  0
  8 22  1  0  0  0  0
  9 10  1  0  0  0  0
  9 23  1  0  0  0  0
  9 24  1  0  0  0  0
 10 14  1  0  0  0  0
 10 11  1  0  0  0  0
 10 25  1  0  0  0  0
 11 12  1  0  0  0  0
 11 26  1  0  0  0  0
 11 27  1  0  0  0  0
 12 13  1  0  0  0  0
 12 28  1  0  0  0  0
 12 29  1  0  0  0  0
 13 14  1  0  0  0  0
 14 30  1  0  0  0  0
 14 31  1  0  0  0  0
 15 16  1  0  0  0  0
M  END
> <s_m_source_file>
AV-unprocessed.smi

> <i_m_source_file_index>
1422

> <i_lp_mmshare_version>
43012

> <i_f3d_flags>
0

> <s_epik_input>
W0NIM11jMVtjSF1jKG5vMSlbTkhdQyg9TylbTkhdW0NIMl1bQ0BASF0yW0NIMl1bQ0gyXU9bQ0gyXTI=

> <s_epik_cmdline>
J2VwaWtfcHl0aG9uJywgJy1waCcsICc3LjAnLCAnLXRuJywgJzgnLCAnLW1hJywgJzIwMCcsICctbWV0YWxfYmluZGluZycsICctaW1hZScsICc8aW5maWxlLm1hZT4nLCAnLW9tYWUnLCAnPG91dGZpbGUubWFlPic=

> <r_lp_tautomer_probability>
1

> <r_epik_Ionization_Penalty>
2.27275e-05

> <r_epik_Ionization_Penalty_Charging>
0

> <r_epik_Ionization_Penalty_Neutral>
2.27275e-05

> <r_epik_State_Penalty>
-0

> <r_epik_Charging_Adjusted_Penalty>
0

> <i_epik_Tot_Q>
0

> <i_epik_Tot_abs_Q>
0

> <r_epik_Metal_State_Penalty>
-0

> <b_epik_Metal_Only>
0

> <s_lp_Force_Field>
OPLS_2005

> <r_lp_Energy>
16.3124

> <b_lp_Chiralities_Consistent>
1

> <s_lp_Variant>
AV-unprocessed.smi:1422-2

> <Gold.Version>
5.8.1

> <Gold.Id.Protein>
6NUR|6NUR_protein|mol2

> <Gold.PLP.Fitness>
33.7381

> <Gold.PLP.PLP>
-25.8904

> <Gold.PLP.part.hbond>
-3.0000

> <Gold.PLP.part.metal>
0.0000

> <Gold.PLP.part.buried>
-4.1299

> <Gold.PLP.part.nonpolar>
-21.2325

> <Gold.PLP.part.repulsive>
1.3158

> <Gold.PLP.ligand.clash>
0.0000

> <Gold.PLP.ligand.torsion>
0.5789

> <Gold.PLP.Chemscore.Hbond>
3.0000

> <Gold.PLP.Chemscore.CHOScore>
0.0000

> <Gold.PLP.Chemscore.Metal>
0.0000

> <Gold.Chemscore.Hbonds>
donor molecule, donor type, donor heavy atom, donor atom, acceptor molecule, acceptor atom, score
      L1  H     5    21       P1  7948  1.00
      L1  H     8    22       P1  7948  1.00
      P1  H  7989  7998       L1    13  0.81

> <Gold.PLP.Chemscore.Internal.Correction>
0.0054

> <Gold.Rescore>
     Score         DG    S(hbond)    S(metal)    S(lipo)     H(rot)  DE(clash)    DE(int)     intcor
     14.20     -15.48       1.96        0.00      57.93       1.30       0.07       1.22       ----

> <Gold.Chemscore.Fitness>
14.1964

> <Gold.Chemscore.DG>
-15.4796

> <Gold.Chemscore.ZeroCoef>
-5.4800

> <Gold.Chemscore.Hbond>
1.9583

> <Gold.Chemscore.Metal>
0.0000

> <Gold.Chemscore.Lipo>
57.9311

> <Gold.Chemscore.Internal_Hbond>
0.0000

> <Gold.Chemscore.DEClash>
0.0656

> <Gold.Chemscore.DEInternal>
1.2176

> <Gold.Chemscore.Rot>
1.2965

> <Gold.Chemscore.Internal.Correction>
   9.000000E+99

> <Gold.Chemscore.Hbonds>
donor molecule, donor type, donor heavy atom, donor atom, acceptor molecule, acceptor atom, score
      L1  H     5    21       P1  7948  0.97
      L1  H     8    22       P1  7948  0.99
      P1  H  7989  7998       L1    13  0.03

> <Gold.Chemscore.Hbond.Weighted>
-6.5409

> <Gold.Chemscore.Metal.Weighted>
-0.0000

> <Gold.Chemscore.Lipo.Weighted>
-6.7779

> <Gold.Chemscore.Internal_Hbond.Weighted>
0.0000

> <Gold.Chemscore.DEClash.Weighted>
0.0656

> <Gold.Chemscore.DEInternal.Weighted>
1.2176

> <Gold.Chemscore.Rot.Weighted>
3.3192

> <Gold.Chemscore.Internal.Correction.Weighted>
   9.000000E+99

> <Gold.Protein.RotatedTorsions>
[ 6907 6896 6895 6894 ] final   25.41 input  -60.11 | X-H torsion
[ 7974 7965 7964 7962 ] final   47.91 input  175.53 | X-H torsion
[ 8008 7997 7996 7995 ] final   30.38 input   59.86 | X-H torsion
[ 10167 10162 10161 10158 ] final -142.61 input  -65.29 | X-H torsion
[ 10718 10713 10712 10709 ] final   57.71 input   66.30 | X-H torsion
[ 10763 10752 10751 10750 ] final  134.56 input  -60.55 | X-H torsion
[ 11005 11000 10999 10996 ] final  -44.23 input  -57.11 | X-H torsion

> <Gold.Protein.ActiveResidues>
 VAL166  LYS551  ARG553  GLY616  TRP617  ASP618  TYR619  PRO620  LYS621  CYS622 
 ASP623  PHE694  ASN695  SER759  ASP760  ASP761  ALA762  ILE779  LEU786  VAL792 
 PHE793  MET794  SER795  GLU796  ALA797  LYS798  CYS799  TRP800  GLU811  SER814 

> <Gold.Protein.RotatedAtoms>
  151.9722  135.0071  160.0553 H   0  0  0  0  0  0  0  0  0  0  0  0  # atno 6907 bound_to 6896
  152.1773  133.4679  159.4948 H   0  0  0  0  0  0  0  0  0  0  0  0  # atno 6908 bound_to 6896
  150.6911  134.1795  159.4286 H   0  0  0  0  0  0  0  0  0  0  0  0  # atno 6909 bound_to 6896
  146.0253  139.4699  142.9871 H   0  0  0  0  0  0  0  0  0  0  0  0  # atno 7974 bound_to 7965
  155.0896  140.3218  155.4577 H   0  0  0  0  0  0  0  0  0  0  0  0  # atno 8008 bound_to 7997
  156.2746  140.2080  156.5969 H   0  0  0  0  0  0  0  0  0  0  0  0  # atno 8009 bound_to 7997
  154.6914  140.0516  157.0354 H   0  0  0  0  0  0  0  0  0  0  0  0  # atno 8010 bound_to 7997
  139.8072  143.7752  152.2661 H   0  0  0  0  0  0  0  0  0  0  0  0  # atno 10167 bound_to 10162
  157.5537  130.8784  149.9002 H   0  0  0  0  0  0  0  0  0  0  0  0  # atno 10718 bound_to 10713
  153.8256  135.3110  155.3414 H   0  0  0  0  0  0  0  0  0  0  0  0  # atno 10763 bound_to 10752
  154.7994  135.4735  154.0243 H   0  0  0  0  0  0  0  0  0  0  0  0  # atno 10764 bound_to 10752
  153.1666  135.6870  153.8757 H   0  0  0  0  0  0  0  0  0  0  0  0  # atno 10765 bound_to 10752
  141.0436  133.6770  156.2843 H   0  0  0  0  0  0  0  0  0  0  0  0  # atno 11005 bound_to 11000
  145.7127  141.0101  143.1444 LP  0  0  0  0  0  0  0  0  0  0  0  0  # atno 17320 bound_to 7965
  144.7007  139.8777  143.7445 LP  0  0  0  0  0  0  0  0  0  0  0  0  # atno 17321 bound_to 7965
  139.7890  144.7417  150.9981 LP  0  0  0  0  0  0  0  0  0  0  0  0  # atno 17342 bound_to 10162
  140.7819  143.4462  151.0480 LP  0  0  0  0  0  0  0  0  0  0  0  0  # atno 17343 bound_to 10162
  156.0599  130.3701  150.1006 LP  0  0  0  0  0  0  0  0  0  0  0  0  # atno 17370 bound_to 10713
  156.9176  130.9672  151.3553 LP  0  0  0  0  0  0  0  0  0  0  0  0  # atno 17371 bound_to 10713
  140.6188  134.5383  157.5544 LP  0  0  0  0  0  0  0  0  0  0  0  0  # atno 17394 bound_to 11000
  139.9295  134.7991  156.0972 LP  0  0  0  0  0  0  0  0  0  0  0  0  # atno 17395 bound_to 11000

$$$$
