AV-unprocessed.smi:3014|AV-procd|sdf|11466|dock9
  -GOLD-   2272016403D 1   1.00000     0.00000
 Structure written by MMmdl.
 45 46  0  0  0  0  0  0  0  0  1 V2000
  151.9280  145.9036  160.0642 C   0  0  0  0  0  0  0  0  0  0  0  0
  151.7229  144.4019  159.8197 C   0  0  2  0  0  0  0  0  0  0  0  0
  152.6913  143.5573  160.6701 C   0  0  0  0  0  0  0  0  0  0  0  0
  152.4995  142.0530  160.4216 C   0  0  0  0  0  0  0  0  0  0  0  0
  152.6362  141.7106  158.9288 C   0  0  0  0  0  0  0  0  0  0  0  0
  151.6719  142.5403  158.0631 C   0  0  1  0  0  0  0  0  0  0  0  0
  150.3479  142.1331  158.3848 O   0  0  0  0  0  0  0  0  0  0  0  0
  149.5338  141.8004  157.2667 C   0  0  0  0  0  0  0  0  0  0  0  0
  149.3915  140.2796  157.1643 C   0  0  0  0  0  0  0  0  0  0  0  0
  149.2716  139.7664  156.0520 O   0  0  0  0  0  0  0  0  0  0  0  0
  149.4213  139.5926  158.3226 N   0  0  0  0  0  0  0  0  0  0  0  0
  149.2802  138.1951  158.5206 C   0  0  0  0  0  0  0  0  0  0  0  0
  149.8690  137.3718  157.5370 C   0  0  0  0  0  0  0  0  0  0  0  0
  149.7493  135.9797  157.7109 C   0  0  0  0  0  0  0  0  0  0  0  0
  149.1037  135.4489  158.7693 N   0  0  0  0  0  0  0  0  0  0  0  0
  148.5753  136.2999  159.6571 C   0  0  0  0  0  0  0  0  0  0  0  0
  147.9097  135.7544  160.7585 N   0  0  0  0  0  0  0  0  0  0  0  0
  147.5172  136.5879  161.8914 C   0  0  0  0  0  0  0  0  0  0  0  0
  147.6084  134.3277  160.8293 C   0  0  0  0  0  0  0  0  0  0  0  0
  148.6370  137.6351  159.5740 N   0  0  0  0  0  0  0  0  0  0  0  0
  151.8688  144.0491  158.3255 C   0  0  0  0  0  0  0  0  0  0  0  0
  152.9314  146.2189  159.7766 H   0  0  0  0  0  0  0  0  0  0  0  0
  151.7899  146.1519  161.1169 H   0  0  0  0  0  0  0  0  0  0  0  0
  151.2150  146.4961  159.4904 H   0  0  0  0  0  0  0  0  0  0  0  0
  150.7046  144.1579  160.1262 H   0  0  0  0  0  0  0  0  0  0  0  0
  153.7210  143.8337  160.4395 H   0  0  0  0  0  0  0  0  0  0  0  0
  152.5438  143.7732  161.7289 H   0  0  0  0  0  0  0  0  0  0  0  0
  153.2290  141.4859  161.0002 H   0  0  0  0  0  0  0  0  0  0  0  0
  151.5167  141.7454  160.7810 H   0  0  0  0  0  0  0  0  0  0  0  0
  153.6620  141.8991  158.6096 H   0  0  0  0  0  0  0  0  0  0  0  0
  152.4576  140.6463  158.7724 H   0  0  0  0  0  0  0  0  0  0  0  0
  151.8761  142.3172  157.0144 H   0  0  0  0  0  0  0  0  0  0  0  0
  148.5400  142.2383  157.3597 H   0  0  0  0  0  0  0  0  0  0  0  0
  149.9812  142.1788  156.3468 H   0  0  0  0  0  0  0  0  0  0  0  0
  149.5429  140.1434  159.1600 H   0  0  0  0  0  0  0  0  0  0  0  0
  150.3907  137.7838  156.6856 H   0  0  0  0  0  0  0  0  0  0  0  0
  150.1748  135.2896  156.9976 H   0  0  0  0  0  0  0  0  0  0  0  0
  146.8738  137.4039  161.5602 H   0  0  0  0  0  0  0  0  0  0  0  0
  148.3984  137.0175  162.3688 H   0  0  0  0  0  0  0  0  0  0  0  0
  146.9714  136.0209  162.6456 H   0  0  0  0  0  0  0  0  0  0  0  0
  148.5247  133.7412  160.7530 H   0  0  0  0  0  0  0  0  0  0  0  0
  146.9458  134.0384  160.0131 H   0  0  0  0  0  0  0  0  0  0  0  0
  147.1205  134.0598  161.7666 H   0  0  0  0  0  0  0  0  0  0  0  0
  151.1698  144.6377  157.7322 H   0  0  0  0  0  0  0  0  0  0  0  0
  152.8633  144.3393  157.9839 H   0  0  0  0  0  0  0  0  0  0  0  0
  1  2  1  0  0  0  0
  1 22  1  0  0  0  0
  1 23  1  0  0  0  0
  1 24  1  0  0  0  0
  2 21  1  0  0  0  0
  2  3  1  0  0  0  0
  2 25  1  0  0  0  0
  3  4  1  0  0  0  0
  3 26  1  0  0  0  0
  3 27  1  0  0  0  0
  4  5  1  0  0  0  0
  4 28  1  0  0  0  0
  4 29  1  0  0  0  0
  5  6  1  0  0  0  0
  5 30  1  0  0  0  0
  5 31  1  0  0  0  0
  6  7  1  0  0  0  0
  6 21  1  0  0  0  0
  6 32  1  0  0  0  0
  7  8  1  0  0  0  0
  8  9  1  0  0  0  0
  8 33  1  0  0  0  0
  8 34  1  0  0  0  0
  9 10  2  0  0  0  0
  9 11  1  0  0  0  0
 11 12  1  0  0  0  0
 11 35  1  0  0  0  0
 12 20  1  0  0  0  0
 12 13  2  0  0  0  0
 13 14  1  0  0  0  0
 13 36  1  0  0  0  0
 14 15  2  0  0  0  0
 14 37  1  0  0  0  0
 15 16  1  0  0  0  0
 16 17  1  0  0  0  0
 16 20  2  0  0  0  0
 17 18  1  0  0  0  0
 17 19  1  0  0  0  0
 18 38  1  0  0  0  0
 18 39  1  0  0  0  0
 18 40  1  0  0  0  0
 19 41  1  0  0  0  0
 19 42  1  0  0  0  0
 19 43  1  0  0  0  0
 21 44  1  0  0  0  0
 21 45  1  0  0  0  0
M  END
> <s_m_source_file>
AV-unprocessed.smi

> <i_m_source_file_index>
3014

> <i_lp_mmshare_version>
43012

> <i_f3d_flags>
0

> <s_epik_input>
W0NIM11bQ0BASF0xW0NIMl1bQ0gyXVtDSDJdW0NASF0oW0NIMl0xKU9bQ0gyXUMoPU8pW05IXWMyW2NIXVtjSF1uYyhuMilOKFtDSDNdKVtDSDNd

> <s_epik_cmdline>
J2VwaWtfcHl0aG9uJywgJy1waCcsICc3LjAnLCAnLXRuJywgJzgnLCAnLW1hJywgJzIwMCcsICctbWV0YWxfYmluZGluZycsICctaW1hZScsICc8aW5maWxlLm1hZT4nLCAnLW9tYWUnLCAnPG91dGZpbGUubWFlPic=

> <r_lp_tautomer_probability>
1

> <r_epik_Ionization_Penalty>
0.000308195

> <r_epik_Ionization_Penalty_Charging>
0

> <r_epik_Ionization_Penalty_Neutral>
0.000308195

> <r_epik_State_Penalty>
-0

> <r_epik_Charging_Adjusted_Penalty>
0

> <i_epik_Tot_Q>
0

> <i_epik_Tot_abs_Q>
0

> <r_epik_Metal_State_Penalty>
-0

> <b_epik_Metal_Only>
0

> <s_lp_Force_Field>
OPLS_2005

> <r_lp_Energy>
6.70314

> <b_lp_Chiralities_Consistent>
1

> <s_lp_Variant>
AV-unprocessed.smi:3014-1

> <Gold.Version>
5.8.1

> <Gold.Id.Protein>
6NUR|6NUR_protein|mol2

> <Gold.PLP.Fitness>
39.0840

> <Gold.PLP.PLP>
-39.4777

> <Gold.PLP.part.hbond>
-2.9721

> <Gold.PLP.part.metal>
0.0000

> <Gold.PLP.part.buried>
-4.4698

> <Gold.PLP.part.nonpolar>
-32.6378

> <Gold.PLP.part.repulsive>
0.2805

> <Gold.PLP.ligand.clash>
0.0000

> <Gold.PLP.ligand.torsion>
1.7106

> <Gold.PLP.Chemscore.Hbond>
1.0000

> <Gold.PLP.Chemscore.CHOScore>
0.0000

> <Gold.PLP.Chemscore.Metal>
0.0000

> <Gold.Chemscore.Hbonds>
donor molecule, donor type, donor heavy atom, donor atom, acceptor molecule, acceptor atom, score
      P1  H  6896  6907       L1    15  0.83
      P1  H  6931  6943       L1    20  0.01
      P1  H  6934  6947       L1    20  0.03

> <Gold.PLP.Chemscore.Internal.Correction>
0.0276

> <Gold.Rescore>
     Score         DG    S(hbond)    S(metal)    S(lipo)     H(rot)  DE(clash)    DE(int)     intcor
     12.48     -15.47       0.48        0.00     103.02       1.43       0.06       2.93       ----

> <Gold.Chemscore.Fitness>
12.4790

> <Gold.Chemscore.DG>
-15.4724

> <Gold.Chemscore.ZeroCoef>
-5.4800

> <Gold.Chemscore.Hbond>
0.4798

> <Gold.Chemscore.Metal>
0.0000

> <Gold.Chemscore.Lipo>
103.0194

> <Gold.Chemscore.Internal_Hbond>
0.0000

> <Gold.Chemscore.DEClash>
0.0595

> <Gold.Chemscore.DEInternal>
2.9340

> <Gold.Chemscore.Rot>
1.4310

> <Gold.Chemscore.Internal.Correction>
   9.000000E+99

> <Gold.Chemscore.Hbonds>
donor molecule, donor type, donor heavy atom, donor atom, acceptor molecule, acceptor atom, score
      P1  H  6896  6907       L1    15  0.12
      P1  H  6931  6943       L1    20  0.01
      P1  H  6934  6947       L1    20  0.03

> <Gold.Chemscore.Hbond.Weighted>
-1.6024

> <Gold.Chemscore.Metal.Weighted>
-0.0000

> <Gold.Chemscore.Lipo.Weighted>
-12.0533

> <Gold.Chemscore.Internal_Hbond.Weighted>
0.0000

> <Gold.Chemscore.DEClash.Weighted>
0.0595

> <Gold.Chemscore.DEInternal.Weighted>
2.9340

> <Gold.Chemscore.Rot.Weighted>
3.6632

> <Gold.Chemscore.Internal.Correction.Weighted>
   9.000000E+99

> <Gold.Protein.RotatedTorsions>
[ 6907 6896 6895 6894 ] final  -91.63 input  -60.11 | X-H torsion
[ 7974 7965 7964 7962 ] final   96.85 input  175.53 | X-H torsion
[ 8008 7997 7996 7995 ] final -157.60 input   59.86 | X-H torsion
[ 10167 10162 10161 10158 ] final  -88.12 input  -65.29 | X-H torsion
[ 10718 10713 10712 10709 ] final  120.92 input   66.30 | X-H torsion
[ 10763 10752 10751 10750 ] final    3.30 input  -60.55 | X-H torsion
[ 11005 11000 10999 10996 ] final -158.38 input  -57.11 | X-H torsion

> <Gold.Protein.ActiveResidues>
 VAL166  LYS551  ARG553  GLY616  TRP617  ASP618  TYR619  PRO620  LYS621  CYS622 
 ASP623  PHE694  ASN695  SER759  ASP760  ASP761  ALA762  ILE779  LEU786  VAL792 
 PHE793  MET794  SER795  GLU796  ALA797  LYS798  CYS799  TRP800  GLU811  SER814 

> <Gold.Protein.RotatedAtoms>
  150.6895  134.2247  159.4410 H   0  0  0  0  0  0  0  0  0  0  0  0  # atno 6907 bound_to 6896
  152.0201  134.9825  160.0579 H   0  0  0  0  0  0  0  0  0  0  0  0  # atno 6908 bound_to 6896
  152.1405  133.4426  159.4801 H   0  0  0  0  0  0  0  0  0  0  0  0  # atno 6909 bound_to 6896
  145.4333  139.2308  143.3132 H   0  0  0  0  0  0  0  0  0  0  0  0  # atno 7974 bound_to 7965
  155.7348  140.0806  157.2272 H   0  0  0  0  0  0  0  0  0  0  0  0  # atno 8008 bound_to 7997
  154.4028  140.1588  156.2604 H   0  0  0  0  0  0  0  0  0  0  0  0  # atno 8009 bound_to 7997
  155.9075  140.3406  155.6076 H   0  0  0  0  0  0  0  0  0  0  0  0  # atno 8010 bound_to 7997
  140.3778  143.2763  151.9421 H   0  0  0  0  0  0  0  0  0  0  0  0  # atno 10167 bound_to 10162
  157.5855  131.1070  150.8102 H   0  0  0  0  0  0  0  0  0  0  0  0  # atno 10718 bound_to 10713
  153.2851  135.6944  153.7348 H   0  0  0  0  0  0  0  0  0  0  0  0  # atno 10763 bound_to 10752
  153.6320  135.3408  155.3045 H   0  0  0  0  0  0  0  0  0  0  0  0  # atno 10764 bound_to 10752
  154.8507  135.4411  154.1916 H   0  0  0  0  0  0  0  0  0  0  0  0  # atno 10765 bound_to 10752
  140.6542  134.4418  157.5235 H   0  0  0  0  0  0  0  0  0  0  0  0  # atno 11005 bound_to 11000
  146.2595  140.5072  142.8859 LP  0  0  0  0  0  0  0  0  0  0  0  0  # atno 17320 bound_to 7965
  144.8169  140.6483  143.6378 LP  0  0  0  0  0  0  0  0  0  0  0  0  # atno 17321 bound_to 7965
  139.4798  144.5847  151.7873 LP  0  0  0  0  0  0  0  0  0  0  0  0  # atno 17342 bound_to 10162
  140.4968  144.1228  150.5962 LP  0  0  0  0  0  0  0  0  0  0  0  0  # atno 17343 bound_to 10162
  156.8537  130.5089  149.5309 LP  0  0  0  0  0  0  0  0  0  0  0  0  # atno 17370 bound_to 10713
  156.0904  130.5891  150.9723 LP  0  0  0  0  0  0  0  0  0  0  0  0  # atno 17371 bound_to 10713
  139.9035  134.8501  156.1798 LP  0  0  0  0  0  0  0  0  0  0  0  0  # atno 17394 bound_to 11000
  141.0514  133.6887  156.1779 LP  0  0  0  0  0  0  0  0  0  0  0  0  # atno 17395 bound_to 11000

$$$$
