AV-unprocessed.smi:1809|AV-procd|sdf|7321|dock8
  -GOLD-   22720 8573D 1   1.00000     0.00000
 Structure written by MMmdl.
 39 41  0  0  0  0  0  0  0  0  3 V2000
  149.1700  141.2085  154.6476 C   0  0  0  0  0  0  0  0  0  0  0  0
  149.9750  139.9547  154.6176 C   0  0  0  0  0  0  0  0  0  0  0  0
  151.3071  139.9500  154.7083 N   0  0  0  0  0  0  0  0  0  0  0  0
  151.8297  138.6657  154.6605 N   0  0  0  0  0  0  0  0  0  0  0  0
  150.8883  137.7186  154.5456 C   0  0  0  0  0  0  0  0  0  0  0  0
  151.1889  136.4107  154.4798 N   0  5  0  0  0  0  0  0  0  0  0  0
  150.4528  135.5118  155.1708 C   0  0  0  0  0  0  0  0  0  0  0  0
  150.0538  135.6303  156.3317 O   0  0  0  0  0  0  0  0  0  0  0  0
  150.1549  134.4079  154.4715 N   0  0  0  0  0  0  0  0  0  0  0  0
  149.3638  133.2820  154.9558 C   0  0  0  0  0  0  0  0  0  0  0  0
  148.7974  132.4455  153.7961 C   0  0  2  0  0  0  0  0  0  0  0  0
  147.7318  133.2238  152.9900 C   0  0  0  0  0  0  0  0  0  0  0  0
  147.1732  132.3150  151.9725 N   0  3  2  0  0  0  0  0  0  0  0  0
  146.1474  132.8370  151.0540 C   0  0  0  0  0  0  0  0  0  0  0  0
  145.3787  131.5894  150.5740 C   0  0  0  0  0  0  0  0  0  0  0  0
  145.9164  130.4168  151.4154 C   0  0  0  0  0  0  0  0  0  0  0  0
  146.5980  131.1166  152.5870 C   0  0  1  0  0  0  0  0  0  0  0  0
  147.7006  130.3638  153.3429 C   0  0  0  0  0  0  0  0  0  0  0  0
  148.2210  131.2495  154.3353 O   0  0  0  0  0  0  0  0  0  0  0  0
  149.2487  138.3636  154.4663 S   0  0  0  0  0  0  0  0  0  0  0  0
  149.0566  141.5529  155.6755 H   0  0  0  0  0  0  0  0  0  0  0  0
  148.1807  141.0333  154.2247 H   0  0  0  0  0  0  0  0  0  0  0  0
  149.6632  141.9888  154.0675 H   0  0  0  0  0  0  0  0  0  0  0  0
  150.5033  134.3502  153.5255 H   0  0  0  0  0  0  0  0  0  0  0  0
  149.9980  132.6633  155.5913 H   0  0  0  0  0  0  0  0  0  0  0  0
  148.5559  133.6504  155.5905 H   0  0  0  0  0  0  0  0  0  0  0  0
  149.6094  132.1674  153.1217 H   0  0  0  0  0  0  0  0  0  0  0  0
  146.9382  133.5864  153.6451 H   0  0  0  0  0  0  0  0  0  0  0  0
  148.1769  134.0917  152.5025 H   0  0  0  0  0  0  0  0  0  0  0  0
  145.4750  133.5092  151.5894 H   0  0  0  0  0  0  0  0  0  0  0  0
  146.6023  133.3920  150.2332 H   0  0  0  0  0  0  0  0  0  0  0  0
  144.3080  131.7236  150.7326 H   0  0  0  0  0  0  0  0  0  0  0  0
  145.5323  131.4060  149.5099 H   0  0  0  0  0  0  0  0  0  0  0  0
  145.1324  129.7289  151.7335 H   0  0  0  0  0  0  0  0  0  0  0  0
  146.6480  129.8499  150.8375 H   0  0  0  0  0  0  0  0  0  0  0  0
  145.8275  131.4247  153.2978 H   0  0  0  0  0  0  0  0  0  0  0  0
  147.2953  129.4767  153.8296 H   0  0  0  0  0  0  0  0  0  0  0  0
  148.4955  130.0353  152.6715 H   0  0  0  0  0  0  0  0  0  0  0  0
  147.9417  132.0005  151.3969 H   0  0  0  0  0  0  0  0  0  0  0  0
  1  2  1  0  0  0  0
  1 21  1  0  0  0  0
  1 22  1  0  0  0  0
  1 23  1  0  0  0  0
  2 20  1  0  0  0  0
  2  3  2  0  0  0  0
  3  4  1  0  0  0  0
  4  5  2  0  0  0  0
  5  6  1  0  0  0  0
  5 20  1  0  0  0  0
  6  7  1  0  0  0  0
  7  8  2  0  0  0  0
  7  9  1  0  0  0  0
  9 10  1  0  0  0  0
  9 24  1  0  0  0  0
 10 11  1  0  0  0  0
 10 25  1  0  0  0  0
 10 26  1  0  0  0  0
 11 19  1  0  0  0  0
 11 12  1  0  0  0  0
 11 27  1  0  0  0  0
 12 13  1  0  0  0  0
 12 28  1  0  0  0  0
 12 29  1  0  0  0  0
 13 17  1  0  0  0  0
 13 14  1  0  0  0  0
 13 39  1  0  0  0  0
 14 15  1  0  0  0  0
 14 30  1  0  0  0  0
 14 31  1  0  0  0  0
 15 16  1  0  0  0  0
 15 32  1  0  0  0  0
 15 33  1  0  0  0  0
 16 17  1  0  0  0  0
 16 34  1  0  0  0  0
 16 35  1  0  0  0  0
 17 18  1  0  0  0  0
 17 36  1  0  0  0  0
 18 19  1  0  0  0  0
 18 37  1  0  0  0  0
 18 38  1  0  0  0  0
M  CHG  1   6  -1
M  CHG  1  13   1
M  END
> <s_m_source_file>
AV-unprocessed.smi

> <i_m_source_file_index>
1809

> <i_lp_mmshare_version>
43012

> <i_f3d_flags>
0

> <s_epik_input>
W0NIM11jMW5uYyhzMSlbTkhdQyg9TylbTkhdW0NIMl1bQ0BIXShbQ0gyXTIpT1tDSDJdW0NAQEhdKE4yMylbQ0gyXVtDSDJdW0NIMl0z

> <s_epik_cmdline>
J2VwaWtfcHl0aG9uJywgJy1waCcsICc3LjAnLCAnLXRuJywgJzgnLCAnLW1hJywgJzIwMCcsICctbWV0YWxfYmluZGluZycsICctaW1hZScsICc8aW5maWxlLm1hZT4nLCAnLW9tYWUnLCAnPG91dGZpbGUubWFlPic=

> <r_lp_tautomer_probability>
1

> <r_epik_Ionization_Penalty>
3.2601

> <r_epik_Ionization_Penalty_Charging>
3.1406

> <r_epik_Ionization_Penalty_Neutral>
0.119497

> <r_epik_State_Penalty>
3.08894

> <r_epik_Charging_Adjusted_Penalty>
6.22954

> <i_epik_Tot_Q>
0

> <i_epik_Tot_abs_Q>
2

> <r_epik_Metal_State_Penalty>
0.510807

> <b_epik_Metal_Only>
1

> <s_lp_Force_Field>
OPLS_2005

> <r_lp_Energy>
28.6606

> <b_lp_Chiralities_Consistent>
1

> <s_lp_Variant>
AV-unprocessed.smi:1809-13

> <Gold.Version>
5.8.1

> <Gold.Id.Protein>
6NUR|6NUR_protein|mol2

> <Gold.PLP.Fitness>
46.0167

> <Gold.PLP.PLP>
-35.7603

> <Gold.PLP.part.hbond>
-3.0000

> <Gold.PLP.part.metal>
0.0000

> <Gold.PLP.part.buried>
-6.0589

> <Gold.PLP.part.nonpolar>
-28.7558

> <Gold.PLP.part.repulsive>
0.9538

> <Gold.PLP.ligand.clash>
0.0000

> <Gold.PLP.ligand.torsion>
0.8769

> <Gold.PLP.Chemscore.Hbond>
4.0000

> <Gold.PLP.Chemscore.CHOScore>
0.0000

> <Gold.PLP.Chemscore.Metal>
0.0000

> <Gold.Chemscore.Hbonds>
donor molecule, donor type, donor heavy atom, donor atom, acceptor molecule, acceptor atom, score
      L1  H    13    39       P1 10747  1.00
      P1  H  7989  7998       L1     3  0.95
      P1  H 10752 10763       L1     6  2.00

> <Gold.PLP.Chemscore.Internal.Correction>
0.0103

> <Gold.Rescore>
     Score         DG    S(hbond)    S(metal)    S(lipo)     H(rot)  DE(clash)    DE(int)     intcor
     19.68     -20.53       2.80        0.00      77.69       1.32       0.07       0.78       ----

> <Gold.Chemscore.Fitness>
19.6847

> <Gold.Chemscore.DG>
-20.5323

> <Gold.Chemscore.ZeroCoef>
-5.4800

> <Gold.Chemscore.Hbond>
2.8004

> <Gold.Chemscore.Metal>
0.0000

> <Gold.Chemscore.Lipo>
77.6925

> <Gold.Chemscore.Internal_Hbond>
0.0000

> <Gold.Chemscore.DEClash>
0.0701

> <Gold.Chemscore.DEInternal>
0.7775

> <Gold.Chemscore.Rot>
1.3246

> <Gold.Chemscore.Internal.Correction>
   9.000000E+99

> <Gold.Chemscore.Hbonds>
donor molecule, donor type, donor heavy atom, donor atom, acceptor molecule, acceptor atom, score
      L1  H    13    39       P1 10747  0.99
      P1  H  7989  7998       L1     3  0.19
      P1  H 10752 10763       L1     6  0.50

> <Gold.Chemscore.Hbond.Weighted>
-9.3532

> <Gold.Chemscore.Metal.Weighted>
-0.0000

> <Gold.Chemscore.Lipo.Weighted>
-9.0900

> <Gold.Chemscore.Internal_Hbond.Weighted>
0.0000

> <Gold.Chemscore.DEClash.Weighted>
0.0701

> <Gold.Chemscore.DEInternal.Weighted>
0.7775

> <Gold.Chemscore.Rot.Weighted>
3.3910

> <Gold.Chemscore.Internal.Correction.Weighted>
   9.000000E+99

> <Gold.Protein.RotatedTorsions>
[ 6907 6896 6895 6894 ] final  110.42 input  -60.11 | X-H torsion
[ 7974 7965 7964 7962 ] final  106.10 input  175.53 | X-H torsion
[ 8008 7997 7996 7995 ] final  -12.30 input   59.86 | X-H torsion
[ 10167 10162 10161 10158 ] final -157.18 input  -65.29 | X-H torsion
[ 10718 10713 10712 10709 ] final  -49.61 input   66.30 | X-H torsion
[ 10763 10752 10751 10750 ] final   45.10 input  -60.55 | X-H torsion
[ 11005 11000 10999 10996 ] final  102.93 input  -57.11 | X-H torsion

> <Gold.Protein.ActiveResidues>
 VAL166  LYS551  ARG553  GLY616  TRP617  ASP618  TYR619  PRO620  LYS621  CYS622 
 ASP623  PHE694  ASN695  SER759  ASP760  ASP761  ALA762  ILE779  LEU786  VAL792 
 PHE793  MET794  SER795  GLU796  ALA797  LYS798  CYS799  TRP800  GLU811  SER814 

> <Gold.Protein.RotatedAtoms>
  152.5021  133.8804  159.7342 H   0  0  0  0  0  0  0  0  0  0  0  0  # atno 6907 bound_to 6896
  150.9267  133.6806  159.2826 H   0  0  0  0  0  0  0  0  0  0  0  0  # atno 6908 bound_to 6896
  151.4164  135.0996  159.9653 H   0  0  0  0  0  0  0  0  0  0  0  0  # atno 6909 bound_to 6896
  145.3110  139.2540  143.3763 H   0  0  0  0  0  0  0  0  0  0  0  0  # atno 7974 bound_to 7965
  154.5390  140.2280  155.8674 H   0  0  0  0  0  0  0  0  0  0  0  0  # atno 8008 bound_to 7997
  156.1839  140.3093  155.9164 H   0  0  0  0  0  0  0  0  0  0  0  0  # atno 8009 bound_to 7997
  155.3297  140.0444  157.3033 H   0  0  0  0  0  0  0  0  0  0  0  0  # atno 8010 bound_to 7997
  139.6791  143.9612  152.2327 H   0  0  0  0  0  0  0  0  0  0  0  0  # atno 10167 bound_to 10162
  156.1877  130.4152  149.9415 H   0  0  0  0  0  0  0  0  0  0  0  0  # atno 10718 bound_to 10713
  152.9830  135.6050  154.3381 H   0  0  0  0  0  0  0  0  0  0  0  0  # atno 10763 bound_to 10752
  154.3080  135.2771  155.2581 H   0  0  0  0  0  0  0  0  0  0  0  0  # atno 10764 bound_to 10752
  154.4804  135.5918  153.6441 H   0  0  0  0  0  0  0  0  0  0  0  0  # atno 10765 bound_to 10752
  139.8780  134.9243  156.5133 H   0  0  0  0  0  0  0  0  0  0  0  0  # atno 11005 bound_to 11000
  146.3117  140.3647  142.8668 LP  0  0  0  0  0  0  0  0  0  0  0  0  # atno 17320 bound_to 7965
  144.9015  140.7649  143.5864 LP  0  0  0  0  0  0  0  0  0  0  0  0  # atno 17321 bound_to 7965
  139.9397  144.6689  150.8279 LP  0  0  0  0  0  0  0  0  0  0  0  0  # atno 17342 bound_to 10162
  140.7646  143.3253  151.2530 LP  0  0  0  0  0  0  0  0  0  0  0  0  # atno 17343 bound_to 10162
  156.7165  130.8990  151.3614 LP  0  0  0  0  0  0  0  0  0  0  0  0  # atno 17370 bound_to 10713
  157.6909  130.9233  150.0512 LP  0  0  0  0  0  0  0  0  0  0  0  0  # atno 17371 bound_to 10713
  140.8504  133.8136  155.9163 LP  0  0  0  0  0  0  0  0  0  0  0  0  # atno 17394 bound_to 11000
  140.9150  134.2214  157.4962 LP  0  0  0  0  0  0  0  0  0  0  0  0  # atno 17395 bound_to 11000

$$$$
