AV-unprocessed.smi:2923|AV-procd|sdf|11204|dock9
  -GOLD-   2272016 93D 1   1.00000     0.00000
 Structure written by MMmdl.
 47 49  0  0  0  0  0  0  0  0  2 V2000
  157.9910  141.7645  168.3575 C   0  0  0  0  0  0  0  0  0  0  0  0
  157.2501  143.0181  168.3036 N   0  0  0  0  0  0  0  0  0  0  0  0
  157.3666  143.9899  169.3852 C   0  0  0  0  0  0  0  0  0  0  0  0
  156.3715  143.2684  167.2273 C   0  0  0  0  0  0  0  0  0  0  0  0
  156.1146  142.3274  166.2002 C   0  0  0  0  0  0  0  0  0  0  0  0
  155.2227  142.6525  165.1579 C   0  0  0  0  0  0  0  0  0  0  0  0
  154.5833  143.9095  165.1466 C   0  0  0  0  0  0  0  0  0  0  0  0
  153.7040  144.1969  164.0676 N   0  0  0  0  0  0  0  0  0  0  0  0
  153.3655  143.4101  163.0318 C   0  0  0  0  0  0  0  0  0  0  0  0
  153.8169  142.2861  162.8138 O   0  0  0  0  0  0  0  0  0  0  0  0
  152.4670  144.0099  162.2397 N   0  0  0  0  0  0  0  0  0  0  0  0
  151.9007  143.4097  161.0358 C   0  0  2  0  0  0  0  0  0  0  0  0
  152.9805  142.9243  160.0563 C   0  0  1  0  0  0  0  0  0  0  0  0
  153.1190  141.4554  159.7605 C   0  0  0  0  0  0  0  0  0  0  0  0
  152.3002  141.2864  158.4775 C   0  0  0  0  0  0  0  0  0  0  0  0
  151.4072  142.3977  158.4720 O   0  0  0  0  0  0  0  0  0  0  0  0
  152.1287  143.5300  158.9511 C   0  0  1  0  0  0  0  0  0  0  0  0
  151.4047  144.4278  159.9765 C   0  0  0  0  0  0  0  0  0  0  0  0
  149.8886  144.5446  159.8120 C   0  0  0  0  0  0  0  0  0  0  0  0
  151.9530  145.8600  160.0553 C   0  0  0  0  0  0  0  0  0  0  0  0
  154.8811  144.8201  166.1882 C   0  0  0  0  0  0  0  0  0  0  0  0
  155.7434  144.4679  167.1660 N   0  3  0  0  0  0  0  0  0  0  0  0
  157.3070  140.9159  168.3900 H   0  0  0  0  0  0  0  0  0  0  0  0
  158.6244  141.7163  169.2433 H   0  0  0  0  0  0  0  0  0  0  0  0
  158.6343  141.6616  167.4830 H   0  0  0  0  0  0  0  0  0  0  0  0
  157.7186  144.9487  169.0025 H   0  0  0  0  0  0  0  0  0  0  0  0
  158.0723  143.6552  170.1459 H   0  0  0  0  0  0  0  0  0  0  0  0
  156.4011  144.1420  169.8694 H   0  0  0  0  0  0  0  0  0  0  0  0
  156.5887  141.3573  166.1923 H   0  0  0  0  0  0  0  0  0  0  0  0
  155.0297  141.9343  164.3742 H   0  0  0  0  0  0  0  0  0  0  0  0
  153.3077  145.1254  164.0662 H   0  0  0  0  0  0  0  0  0  0  0  0
  152.1489  144.9362  162.4836 H   0  0  0  0  0  0  0  0  0  0  0  0
  151.1615  142.6314  161.2387 H   0  0  0  0  0  0  0  0  0  0  0  0
  153.9256  143.4584  160.1704 H   0  0  0  0  0  0  0  0  0  0  0  0
  154.1561  141.1510  159.6174 H   0  0  0  0  0  0  0  0  0  0  0  0
  152.7019  140.8546  160.5693 H   0  0  0  0  0  0  0  0  0  0  0  0
  152.9460  141.3466  157.6001 H   0  0  0  0  0  0  0  0  0  0  0  0
  151.7625  140.3388  158.4414 H   0  0  0  0  0  0  0  0  0  0  0  0
  152.7014  144.0440  158.1776 H   0  0  0  0  0  0  0  0  0  0  0  0
  149.6249  145.0627  158.8896 H   0  0  0  0  0  0  0  0  0  0  0  0
  149.4376  145.0917  160.6404 H   0  0  0  0  0  0  0  0  0  0  0  0
  149.4109  143.5650  159.7797 H   0  0  0  0  0  0  0  0  0  0  0  0
  151.7227  146.4241  159.1510 H   0  0  0  0  0  0  0  0  0  0  0  0
  153.0372  145.8727  160.1709 H   0  0  0  0  0  0  0  0  0  0  0  0
  151.5299  146.4085  160.8973 H   0  0  0  0  0  0  0  0  0  0  0  0
  154.4796  145.8180  166.2788 H   0  0  0  0  0  0  0  0  0  0  0  0
  155.9343  145.1485  167.9016 H   0  0  0  0  0  0  0  0  0  0  0  0
  1  2  1  0  0  0  0
  1 23  1  0  0  0  0
  1 24  1  0  0  0  0
  1 25  1  0  0  0  0
  2  3  1  0  0  0  0
  2  4  1  0  0  0  0
  3 26  1  0  0  0  0
  3 27  1  0  0  0  0
  3 28  1  0  0  0  0
  4 22  1  0  0  0  0
  4  5  2  0  0  0  0
  5  6  1  0  0  0  0
  5 29  1  0  0  0  0
  6  7  2  0  0  0  0
  6 30  1  0  0  0  0
  7  8  1  0  0  0  0
  7 21  1  0  0  0  0
  8  9  1  0  0  0  0
  8 31  1  0  0  0  0
  9 10  2  0  0  0  0
  9 11  1  0  0  0  0
 11 12  1  0  0  0  0
 11 32  1  0  0  0  0
 12 18  1  0  0  0  0
 12 13  1  0  0  0  0
 12 33  1  0  0  0  0
 13 17  1  0  0  0  0
 13 14  1  0  0  0  0
 13 34  1  0  0  0  0
 14 15  1  0  0  0  0
 14 35  1  0  0  0  0
 14 36  1  0  0  0  0
 15 16  1  0  0  0  0
 15 37  1  0  0  0  0
 15 38  1  0  0  0  0
 16 17  1  0  0  0  0
 17 18  1  0  0  0  0
 17 39  1  0  0  0  0
 18 19  1  0  0  0  0
 18 20  1  0  0  0  0
 19 40  1  0  0  0  0
 19 41  1  0  0  0  0
 19 42  1  0  0  0  0
 20 43  1  0  0  0  0
 20 44  1  0  0  0  0
 20 45  1  0  0  0  0
 21 22  2  0  0  0  0
 21 46  1  0  0  0  0
 22 47  1  0  0  0  0
M  CHG  1  22   1
M  END
> <s_m_source_file>
AV-unprocessed.smi

> <i_m_source_file_index>
2923

> <i_lp_mmshare_version>
43012

> <i_f3d_flags>
0

> <s_epik_input>
W0NIM11OKFtDSDNdKWMxW2NIXVtjSF1jKFtjSF1uMSlbTkhdQyg9TylbTkhdW0NASF0yQyhbQ0gzXSkoW0NIM10pW0NAQEhdKFtDQEhdMjMpT1tDSDJdW0NIMl0z

> <s_epik_cmdline>
J2VwaWtfcHl0aG9uJywgJy1waCcsICc3LjAnLCAnLXRuJywgJzgnLCAnLW1hJywgJzIwMCcsICctbWV0YWxfYmluZGluZycsICctaW1hZScsICc8aW5maWxlLm1hZT4nLCAnLW9tYWUnLCAnPG91dGZpbGUubWFlPic=

> <r_lp_tautomer_probability>
0.999994

> <r_epik_Ionization_Penalty>
0.252205

> <r_epik_Ionization_Penalty_Charging>
0.252185

> <r_epik_Ionization_Penalty_Neutral>
1.99479e-05

> <r_epik_State_Penalty>
0.243573

> <r_epik_Charging_Adjusted_Penalty>
0.495758

> <i_epik_Tot_Q>
1

> <i_epik_Tot_abs_Q>
1

> <r_epik_Metal_State_Penalty>
0.534372

> <b_epik_Metal_Only>
0

> <s_lp_Force_Field>
OPLS_2005

> <r_lp_Energy>
44.365

> <b_lp_Chiralities_Consistent>
1

> <s_lp_Variant>
AV-unprocessed.smi:2923-3

> <Gold.Version>
5.8.1

> <Gold.Id.Protein>
6NUR|6NUR_protein|mol2

> <Gold.PLP.Fitness>
44.3918

> <Gold.PLP.PLP>
-44.6278

> <Gold.PLP.part.hbond>
-2.1905

> <Gold.PLP.part.metal>
0.0000

> <Gold.PLP.part.buried>
-3.9402

> <Gold.PLP.part.nonpolar>
-37.3825

> <Gold.PLP.part.repulsive>
0.2579

> <Gold.PLP.ligand.clash>
0.0000

> <Gold.PLP.ligand.torsion>
0.2067

> <Gold.PLP.Chemscore.Hbond>
0.0000

> <Gold.PLP.Chemscore.CHOScore>
0.0000

> <Gold.PLP.Chemscore.Metal>
0.0000

> <Gold.PLP.Chemscore.Internal.Correction>
0.1773

> <Gold.Rescore>
     Score         DG    S(hbond)    S(metal)    S(lipo)     H(rot)  DE(clash)    DE(int)     intcor
     13.84     -17.25       0.00        0.00     122.45       1.00       0.64       2.77       ----

> <Gold.Chemscore.Fitness>
13.8374

> <Gold.Chemscore.DG>
-17.2470

> <Gold.Chemscore.ZeroCoef>
-5.4800

> <Gold.Chemscore.Hbond>
0.0000

> <Gold.Chemscore.Metal>
0.0000

> <Gold.Chemscore.Lipo>
122.4533

> <Gold.Chemscore.Internal_Hbond>
0.0000

> <Gold.Chemscore.DEClash>
0.6370

> <Gold.Chemscore.DEInternal>
2.7727

> <Gold.Chemscore.Rot>
1.0000

> <Gold.Chemscore.Internal.Correction>
   9.000000E+99

> <Gold.Chemscore.Hbond.Weighted>
-0.0000

> <Gold.Chemscore.Metal.Weighted>
-0.0000

> <Gold.Chemscore.Lipo.Weighted>
-14.3270

> <Gold.Chemscore.Internal_Hbond.Weighted>
0.0000

> <Gold.Chemscore.DEClash.Weighted>
0.6370

> <Gold.Chemscore.DEInternal.Weighted>
2.7727

> <Gold.Chemscore.Rot.Weighted>
2.5600

> <Gold.Chemscore.Internal.Correction.Weighted>
   9.000000E+99

> <Gold.Protein.RotatedTorsions>
[ 6907 6896 6895 6894 ] final    6.47 input  -60.11 | X-H torsion
[ 7974 7965 7964 7962 ] final  178.50 input  175.53 | X-H torsion
[ 8008 7997 7996 7995 ] final -147.24 input   59.86 | X-H torsion
[ 10167 10162 10161 10158 ] final  -99.49 input  -65.29 | X-H torsion
[ 10718 10713 10712 10709 ] final   -4.45 input   66.30 | X-H torsion
[ 10763 10752 10751 10750 ] final  -30.46 input  -60.55 | X-H torsion
[ 11005 11000 10999 10996 ] final   97.36 input  -57.11 | X-H torsion

> <Gold.Protein.ActiveResidues>
 VAL166  LYS551  ARG553  GLY616  TRP617  ASP618  TYR619  PRO620  LYS621  CYS622 
 ASP623  PHE694  ASN695  SER759  ASP760  ASP761  ALA762  ILE779  LEU786  VAL792 
 PHE793  MET794  SER795  GLU796  ALA797  LYS798  CYS799  TRP800  GLU811  SER814 

> <Gold.Protein.RotatedAtoms>
  151.6743  135.0971  160.0203 H   0  0  0  0  0  0  0  0  0  0  0  0  # atno 6907 bound_to 6896
  152.3873  133.6625  159.6217 H   0  0  0  0  0  0  0  0  0  0  0  0  # atno 6908 bound_to 6896
  150.7796  133.8930  159.3360 H   0  0  0  0  0  0  0  0  0  0  0  0  # atno 6909 bound_to 6896
  144.7155  140.0407  143.6437 H   0  0  0  0  0  0  0  0  0  0  0  0  # atno 7974 bound_to 7965
  155.5724  140.0635  157.2803 H   0  0  0  0  0  0  0  0  0  0  0  0  # atno 8008 bound_to 7997
  154.4357  140.1866  156.0938 H   0  0  0  0  0  0  0  0  0  0  0  0  # atno 8009 bound_to 7997
  156.0366  140.3300  155.7202 H   0  0  0  0  0  0  0  0  0  0  0  0  # atno 8010 bound_to 7997
  140.2619  143.3401  152.0617 H   0  0  0  0  0  0  0  0  0  0  0  0  # atno 10167 bound_to 10162
  156.7611  130.5270  149.5785 H   0  0  0  0  0  0  0  0  0  0  0  0  # atno 10718 bound_to 10713
  153.7814  135.6905  153.4888 H   0  0  0  0  0  0  0  0  0  0  0  0  # atno 10763 bound_to 10752
  153.1809  135.4507  155.0025 H   0  0  0  0  0  0  0  0  0  0  0  0  # atno 10764 bound_to 10752
  154.8080  135.3365  154.7317 H   0  0  0  0  0  0  0  0  0  0  0  0  # atno 10765 bound_to 10752
  139.8776  134.8997  156.4295 H   0  0  0  0  0  0  0  0  0  0  0  0  # atno 11005 bound_to 11000
  146.0026  139.3103  143.0918 LP  0  0  0  0  0  0  0  0  0  0  0  0  # atno 17320 bound_to 7965
  145.8775  140.9383  143.0618 LP  0  0  0  0  0  0  0  0  0  0  0  0  # atno 17321 bound_to 7965
  139.5014  144.6713  151.6236 LP  0  0  0  0  0  0  0  0  0  0  0  0  # atno 17342 bound_to 10162
  140.5959  143.9697  150.6354 LP  0  0  0  0  0  0  0  0  0  0  0  0  # atno 17343 bound_to 10162
  156.1338  130.6197  151.0372 LP  0  0  0  0  0  0  0  0  0  0  0  0  # atno 17370 bound_to 10713
  157.6734  131.0856  150.7556 LP  0  0  0  0  0  0  0  0  0  0  0  0  # atno 17371 bound_to 10713
  140.9077  133.7734  155.9754 LP  0  0  0  0  0  0  0  0  0  0  0  0  # atno 17394 bound_to 11000
  140.8581  134.2873  157.5246 LP  0  0  0  0  0  0  0  0  0  0  0  0  # atno 17395 bound_to 11000

$$$$
