AV-unprocessed.smi:2195|AV-procd|sdf|8905|dock2
  -GOLD-   2272012123D 1   1.00000     0.00000
 Structure written by MMmdl.
 39 41  0  0  0  0  0  0  0  0  1 V2000
  144.0461  144.5826  155.1585 C   0  0  0  0  0  0  0  0  0  0  0  0
  145.2113  143.6263  155.0078 C   0  0  0  0  0  0  0  0  0  0  0  0
  145.8919  143.5154  153.7791 C   0  0  0  0  0  0  0  0  0  0  0  0
  146.9750  142.6247  153.6499 C   0  0  0  0  0  0  0  0  0  0  0  0
  147.3953  141.8344  154.7396 C   0  0  0  0  0  0  0  0  0  0  0  0
  148.4656  140.9925  154.5258 O   0  0  0  0  0  0  0  0  0  0  0  0
  148.8540  140.1149  155.5749 C   0  0  0  0  0  0  0  0  0  0  0  0
  150.3884  140.0403  155.6141 C   0  0  1  0  0  0  0  0  0  0  0  0
  150.8475  139.5974  154.3515 O   0  0  0  0  0  0  0  0  0  0  0  0
  151.0249  141.4095  155.9234 C   0  0  0  0  0  0  0  0  0  0  0  0
  151.3539  141.5631  157.3294 N   0  0  0  0  0  0  0  0  0  0  0  0
  151.4386  140.5901  158.2570 C   0  0  0  0  0  0  0  0  0  0  0  0
  151.7562  140.9551  159.4962 N   0  0  0  0  0  0  0  0  0  0  0  0
  151.8923  142.3257  159.3569 C   0  0  0  0  0  0  0  0  0  0  0  0
  152.2208  143.3166  160.3098 C   0  0  0  0  0  0  0  0  0  0  0  0
  152.3013  144.6730  159.9313 C   0  0  0  0  0  0  0  0  0  0  0  0
  152.0556  145.0594  158.5975 C   0  0  0  0  0  0  0  0  0  0  0  0
  151.7277  144.0900  157.6301 C   0  0  0  0  0  0  0  0  0  0  0  0
  151.6478  142.7380  158.0122 C   0  0  0  0  0  0  0  0  0  0  0  0
  146.7035  141.9484  155.9719 C   0  0  0  0  0  0  0  0  0  0  0  0
  145.6199  142.8388  156.1019 C   0  0  0  0  0  0  0  0  0  0  0  0
  143.9229  145.2034  154.2705 H   0  0  0  0  0  0  0  0  0  0  0  0
  144.2046  145.2408  156.0129 H   0  0  0  0  0  0  0  0  0  0  0  0
  143.1213  144.0280  155.3186 H   0  0  0  0  0  0  0  0  0  0  0  0
  145.5878  144.1119  152.9314 H   0  0  0  0  0  0  0  0  0  0  0  0
  147.4900  142.5487  152.7036 H   0  0  0  0  0  0  0  0  0  0  0  0
  148.4577  140.4362  156.5400 H   0  0  0  0  0  0  0  0  0  0  0  0
  148.4499  139.1239  155.3611 H   0  0  0  0  0  0  0  0  0  0  0  0
  150.6995  139.3238  156.3755 H   0  0  0  0  0  0  0  0  0  0  0  0
  151.1198  138.6959  154.4329 H   0  0  0  0  0  0  0  0  0  0  0  0
  151.9316  141.5523  155.3332 H   0  0  0  0  0  0  0  0  0  0  0  0
  150.3430  142.2145  155.6467 H   0  0  0  0  0  0  0  0  0  0  0  0
  151.2530  139.5553  158.0088 H   0  0  0  0  0  0  0  0  0  0  0  0
  152.4108  143.0324  161.3341 H   0  0  0  0  0  0  0  0  0  0  0  0
  152.5526  145.4210  160.6691 H   0  0  0  0  0  0  0  0  0  0  0  0
  152.1188  146.1006  158.3172 H   0  0  0  0  0  0  0  0  0  0  0  0
  151.5388  144.3810  156.6074 H   0  0  0  0  0  0  0  0  0  0  0  0
  146.9839  141.3629  156.8343 H   0  0  0  0  0  0  0  0  0  0  0  0
  145.1020  142.9159  157.0467 H   0  0  0  0  0  0  0  0  0  0  0  0
  1  2  1  0  0  0  0
  1 22  1  0  0  0  0
  1 23  1  0  0  0  0
  1 24  1  0  0  0  0
  2 21  1  0  0  0  0
  2  3  2  0  0  0  0
  3  4  1  0  0  0  0
  3 25  1  0  0  0  0
  4  5  2  0  0  0  0
  4 26  1  0  0  0  0
  5  6  1  0  0  0  0
  5 20  1  0  0  0  0
  6  7  1  0  0  0  0
  7  8  1  0  0  0  0
  7 27  1  0  0  0  0
  7 28  1  0  0  0  0
  8  9  1  0  0  0  0
  8 10  1  0  0  0  0
  8 29  1  0  0  0  0
  9 30  1  0  0  0  0
 10 11  1  0  0  0  0
 10 31  1  0  0  0  0
 10 32  1  0  0  0  0
 11 19  1  0  0  0  0
 11 12  1  0  0  0  0
 12 13  2  0  0  0  0
 12 33  1  0  0  0  0
 13 14  1  0  0  0  0
 14 19  2  0  0  0  0
 14 15  1  0  0  0  0
 15 16  2  0  0  0  0
 15 34  1  0  0  0  0
 16 17  1  0  0  0  0
 16 35  1  0  0  0  0
 17 18  2  0  0  0  0
 17 36  1  0  0  0  0
 18 19  1  0  0  0  0
 18 37  1  0  0  0  0
 20 21  2  0  0  0  0
 20 38  1  0  0  0  0
 21 39  1  0  0  0  0
M  END
> <s_m_source_file>
AV-unprocessed.smi

> <i_m_source_file_index>
2195

> <i_lp_mmshare_version>
43012

> <i_f3d_flags>
0

> <s_epik_input>
W0NIM11jMVtjSF1bY0hdYyhbY0hdW2NIXTEpT1tDSDJdW0NASF0oW09IXSlbQ0gyXW4oW2NIXW4yKWMoYzIzKVtjSF1bY0hdW2NIXVtjSF0z

> <s_epik_cmdline>
J2VwaWtfcHl0aG9uJywgJy1waCcsICc3LjAnLCAnLXRuJywgJzgnLCAnLW1hJywgJzIwMCcsICctbWV0YWxfYmluZGluZycsICctaW1hZScsICc8aW5maWxlLm1hZT4nLCAnLW9tYWUnLCAnPG91dGZpbGUubWFlPic=

> <r_lp_tautomer_probability>
1

> <r_epik_Ionization_Penalty>
0.0609831

> <r_epik_Ionization_Penalty_Charging>
0

> <r_epik_Ionization_Penalty_Neutral>
0.0609831

> <r_epik_State_Penalty>
0.0529032

> <r_epik_Charging_Adjusted_Penalty>
0.0529032

> <i_epik_Tot_Q>
0

> <i_epik_Tot_abs_Q>
0

> <r_epik_Metal_State_Penalty>
5.53344e-05

> <b_epik_Metal_Only>
0

> <s_lp_Force_Field>
OPLS_2005

> <r_lp_Energy>
16.3269

> <b_lp_Chiralities_Consistent>
1

> <s_lp_Variant>
AV-unprocessed.smi:2195-2

> <Gold.Version>
5.8.1

> <Gold.Id.Protein>
6NUR|6NUR_protein|mol2

> <Gold.PLP.Fitness>
48.9968

> <Gold.PLP.PLP>
-47.8930

> <Gold.PLP.part.hbond>
-1.0000

> <Gold.PLP.part.metal>
0.0000

> <Gold.PLP.part.buried>
-8.1957

> <Gold.PLP.part.nonpolar>
-37.8442

> <Gold.PLP.part.repulsive>
0.1237

> <Gold.PLP.ligand.clash>
0.0000

> <Gold.PLP.ligand.torsion>
1.0032

> <Gold.PLP.Chemscore.Hbond>
1.0000

> <Gold.PLP.Chemscore.CHOScore>
0.0000

> <Gold.PLP.Chemscore.Metal>
0.0000

> <Gold.Chemscore.Hbonds>
donor molecule, donor type, donor heavy atom, donor atom, acceptor molecule, acceptor atom, score
      P1  H  7989  7998       L1     9  1.00

> <Gold.PLP.Chemscore.Internal.Correction>
0.1101

> <Gold.Rescore>
     Score         DG    S(hbond)    S(metal)    S(lipo)     H(rot)  DE(clash)    DE(int)     intcor
     16.14     -17.16       0.96        0.00     120.31       2.19       0.06       0.96       ----

> <Gold.Chemscore.Fitness>
16.1447

> <Gold.Chemscore.DG>
-17.1642

> <Gold.Chemscore.ZeroCoef>
-5.4800

> <Gold.Chemscore.Hbond>
0.9607

> <Gold.Chemscore.Metal>
0.0000

> <Gold.Chemscore.Lipo>
120.3073

> <Gold.Chemscore.Internal_Hbond>
0.0000

> <Gold.Chemscore.DEClash>
0.0575

> <Gold.Chemscore.DEInternal>
0.9620

> <Gold.Chemscore.Rot>
2.1877

> <Gold.Chemscore.Internal.Correction>
   9.000000E+99

> <Gold.Chemscore.Hbonds>
donor molecule, donor type, donor heavy atom, donor atom, acceptor molecule, acceptor atom, score
      P1  H  7989  7998       L1     9  0.82

> <Gold.Chemscore.Hbond.Weighted>
-3.2087

> <Gold.Chemscore.Metal.Weighted>
-0.0000

> <Gold.Chemscore.Lipo.Weighted>
-14.0760

> <Gold.Chemscore.Internal_Hbond.Weighted>
0.0000

> <Gold.Chemscore.DEClash.Weighted>
0.0575

> <Gold.Chemscore.DEInternal.Weighted>
0.9620

> <Gold.Chemscore.Rot.Weighted>
5.6005

> <Gold.Chemscore.Internal.Correction.Weighted>
   9.000000E+99

> <Gold.Protein.RotatedTorsions>
[ 6907 6896 6895 6894 ] final  164.15 input  -60.11 | X-H torsion
[ 7974 7965 7964 7962 ] final  146.86 input  175.53 | X-H torsion
[ 8008 7997 7996 7995 ] final  -84.46 input   59.86 | X-H torsion
[ 10167 10162 10161 10158 ] final  160.45 input  -65.29 | X-H torsion
[ 10718 10713 10712 10709 ] final -143.06 input   66.30 | X-H torsion
[ 10763 10752 10751 10750 ] final  144.43 input  -60.55 | X-H torsion
[ 11005 11000 10999 10996 ] final  -38.10 input  -57.11 | X-H torsion

> <Gold.Protein.ActiveResidues>
 VAL166  LYS551  ARG553  GLY616  TRP617  ASP618  TYR619  PRO620  LYS621  CYS622 
 ASP623  PHE694  ASN695  SER759  ASP760  ASP761  ALA762  ILE779  LEU786  VAL792 
 PHE793  MET794  SER795  GLU796  ALA797  LYS798  CYS799  TRP800  GLU811  SER814 

> <Gold.Protein.RotatedAtoms>
  151.9142  133.3569  159.3874 H   0  0  0  0  0  0  0  0  0  0  0  0  # atno 6907 bound_to 6896
  150.7051  134.4701  159.5430 H   0  0  0  0  0  0  0  0  0  0  0  0  # atno 6908 bound_to 6896
  152.2312  134.8320  160.0524 H   0  0  0  0  0  0  0  0  0  0  0  0  # atno 6909 bound_to 6896
  144.8637  139.5957  143.5919 H   0  0  0  0  0  0  0  0  0  0  0  0  # atno 7974 bound_to 7965
  154.6301  140.0604  156.9721 H   0  0  0  0  0  0  0  0  0  0  0  0  # atno 8008 bound_to 7997
  155.1680  140.3288  155.4380 H   0  0  0  0  0  0  0  0  0  0  0  0  # atno 8009 bound_to 7997
  156.2478  140.1919  156.6784 H   0  0  0  0  0  0  0  0  0  0  0  0  # atno 8010 bound_to 7997
  139.4840  144.4633  151.8675 H   0  0  0  0  0  0  0  0  0  0  0  0  # atno 10167 bound_to 10162
  156.3534  130.7700  151.1857 H   0  0  0  0  0  0  0  0  0  0  0  0  # atno 10718 bound_to 10713
  153.9888  135.2934  155.3414 H   0  0  0  0  0  0  0  0  0  0  0  0  # atno 10763 bound_to 10752
  154.7227  135.5102  153.8840 H   0  0  0  0  0  0  0  0  0  0  0  0  # atno 10764 bound_to 10752
  153.0820  135.6681  154.0142 H   0  0  0  0  0  0  0  0  0  0  0  0  # atno 10765 bound_to 10752
  141.0002  133.6959  156.2008 H   0  0  0  0  0  0  0  0  0  0  0  0  # atno 11005 bound_to 11000
  146.2880  139.7058  142.9182 LP  0  0  0  0  0  0  0  0  0  0  0  0  # atno 17320 bound_to 7965
  145.4262  141.0411  143.2936 LP  0  0  0  0  0  0  0  0  0  0  0  0  # atno 17321 bound_to 7965
  140.4097  144.2385  150.5889 LP  0  0  0  0  0  0  0  0  0  0  0  0  # atno 17342 bound_to 10162
  140.4978  143.2327  151.8723 LP  0  0  0  0  0  0  0  0  0  0  0  0  # atno 17343 bound_to 10162
  157.7464  131.0421  150.4677 LP  0  0  0  0  0  0  0  0  0  0  0  0  # atno 17370 bound_to 10713
  156.4876  130.4088  149.6425 LP  0  0  0  0  0  0  0  0  0  0  0  0  # atno 17371 bound_to 10713
  140.6902  134.4674  157.5588 LP  0  0  0  0  0  0  0  0  0  0  0  0  # atno 17394 bound_to 11000
  139.9035  134.8502  156.1800 LP  0  0  0  0  0  0  0  0  0  0  0  0  # atno 17395 bound_to 11000

$$$$
