AV-unprocessed.smi:199|AV-procd|sdf|1562|dock10
  -GOLD-   2262019433D 1   1.00000     0.00000
 Structure written by MMmdl.
 51 55  0  0  0  0  0  0  0  0  1 V2000
  151.3457  139.0814  157.9172 C   0  0  0  0  0  0  0  0  0  0  0  0
  151.8662  138.3808  156.6515 C   0  0  2  0  0  0  0  0  0  0  0  0
  153.0179  139.0420  156.1489 O   0  0  0  0  0  0  0  0  0  0  0  0
  153.2048  138.5904  154.8200 C   0  0  0  0  0  0  0  0  0  0  0  0
  151.7928  138.6311  154.2477 C   0  0  0  0  0  0  0  0  0  0  0  0
  150.8972  138.2883  155.4426 C   0  0  2  0  0  0  0  0  0  0  0  0
  149.8706  139.2641  155.5185 O   0  0  0  0  0  0  0  0  0  0  0  0
  150.2321  136.8974  155.2940 C   0  0  0  0  0  0  0  0  0  0  0  0
  149.7379  136.3547  156.5508 N   0  0  0  0  0  0  0  0  0  0  0  0
  150.0883  135.1547  157.1252 C   0  0  0  0  0  0  0  0  0  0  0  0
  149.4941  134.8856  158.2545 N   0  0  0  0  0  0  0  0  0  0  0  0
  148.6689  135.9811  158.4822 C   0  0  0  0  0  0  0  0  0  0  0  0
  147.7441  136.3423  159.5062 C   0  0  0  0  0  0  0  0  0  0  0  0
  147.4565  135.5652  160.5872 N   0  0  0  0  0  0  0  0  0  0  0  0
  147.6423  136.0813  161.9360 C   0  0  1  0  0  0  0  0  0  0  0  0
  146.4635  137.0585  162.1321 C   0  0  0  0  0  0  0  0  0  0  0  0
  145.3616  136.3675  161.3133 C   0  0  0  0  0  0  0  0  0  0  0  0
  146.0969  135.1020  160.8274 C   0  0  2  0  0  0  0  0  0  0  0  0
  146.2674  134.1335  162.0200 C   0  0  1  0  0  0  0  0  0  0  0  0
  146.6259  132.6969  161.5988 C   0  0  0  0  0  0  0  0  0  0  0  0
  147.8159  132.6895  160.8391 O   0  0  0  0  0  0  0  0  0  0  0  0
  147.4045  134.8295  162.7946 C   0  0  0  0  0  0  0  0  0  0  0  0
  147.1365  137.5537  159.3933 N   0  0  0  0  0  0  0  0  0  0  0  0
  147.3866  138.3457  158.3479 C   0  0  0  0  0  0  0  0  0  0  0  0
  148.2024  138.1299  157.3160 N   0  0  0  0  0  0  0  0  0  0  0  0
  148.8299  136.9247  157.4263 C   0  0  0  0  0  0  0  0  0  0  0  0
  150.4542  138.5869  158.3036 H   0  0  0  0  0  0  0  0  0  0  0  0
  151.0973  140.1252  157.7254 H   0  0  0  0  0  0  0  0  0  0  0  0
  152.0993  139.0632  158.7044 H   0  0  0  0  0  0  0  0  0  0  0  0
  152.1973  137.3786  156.9249 H   0  0  0  0  0  0  0  0  0  0  0  0
  153.9010  139.2246  154.2712 H   0  0  0  0  0  0  0  0  0  0  0  0
  153.5962  137.5718  154.8279 H   0  0  0  0  0  0  0  0  0  0  0  0
  151.5924  139.6402  153.8828 H   0  0  0  0  0  0  0  0  0  0  0  0
  151.6718  137.9511  153.4036 H   0  0  0  0  0  0  0  0  0  0  0  0
  150.2351  140.0551  155.8848 H   0  0  0  0  0  0  0  0  0  0  0  0
  149.3990  136.9461  154.5913 H   0  0  0  0  0  0  0  0  0  0  0  0
  150.9434  136.1869  154.8707 H   0  0  0  0  0  0  0  0  0  0  0  0
  150.7968  134.4759  156.6732 H   0  0  0  0  0  0  0  0  0  0  0  0
  148.6164  136.5331  162.1263 H   0  0  0  0  0  0  0  0  0  0  0  0
  146.1951  137.1856  163.1814 H   0  0  0  0  0  0  0  0  0  0  0  0
  146.6894  138.0425  161.7197 H   0  0  0  0  0  0  0  0  0  0  0  0
  144.4715  136.1422  161.9012 H   0  0  0  0  0  0  0  0  0  0  0  0
  145.0605  136.9910  160.4701 H   0  0  0  0  0  0  0  0  0  0  0  0
  145.6020  134.6262  159.9833 H   0  0  0  0  0  0  0  0  0  0  0  0
  145.3607  134.1045  162.6267 H   0  0  0  0  0  0  0  0  0  0  0  0
  146.7485  132.0508  162.4688 H   0  0  0  0  0  0  0  0  0  0  0  0
  145.8280  132.2720  160.9892 H   0  0  0  0  0  0  0  0  0  0  0  0
  147.6026  132.9076  159.9446 H   0  0  0  0  0  0  0  0  0  0  0  0
  148.3038  134.2123  162.8219 H   0  0  0  0  0  0  0  0  0  0  0  0
  147.1320  135.0691  163.8229 H   0  0  0  0  0  0  0  0  0  0  0  0
  146.8555  139.2861  158.3360 H   0  0  0  0  0  0  0  0  0  0  0  0
  1  2  1  0  0  0  0
  1 27  1  0  0  0  0
  1 28  1  0  0  0  0
  1 29  1  0  0  0  0
  2  6  1  0  0  0  0
  2  3  1  0  0  0  0
  2 30  1  0  0  0  0
  3  4  1  0  0  0  0
  4  5  1  0  0  0  0
  4 31  1  0  0  0  0
  4 32  1  0  0  0  0
  5  6  1  0  0  0  0
  5 33  1  0  0  0  0
  5 34  1  0  0  0  0
  6  7  1  0  0  0  0
  6  8  1  0  0  0  0
  7 35  1  0  0  0  0
  8  9  1  0  0  0  0
  8 36  1  0  0  0  0
  8 37  1  0  0  0  0
  9 26  1  0  0  0  0
  9 10  1  0  0  0  0
 10 11  2  0  0  0  0
 10 38  1  0  0  0  0
 11 12  1  0  0  0  0
 12 26  2  0  0  0  0
 12 13  1  0  0  0  0
 13 14  1  0  0  0  0
 13 23  2  0  0  0  0
 14 18  1  0  0  0  0
 14 15  1  0  0  0  0
 15 22  1  0  0  0  0
 15 16  1  0  0  0  0
 15 39  1  0  0  0  0
 16 17  1  0  0  0  0
 16 40  1  0  0  0  0
 16 41  1  0  0  0  0
 17 18  1  0  0  0  0
 17 42  1  0  0  0  0
 17 43  1  0  0  0  0
 18 19  1  0  0  0  0
 18 44  1  0  0  0  0
 19 20  1  0  0  0  0
 19 22  1  0  0  0  0
 19 45  1  0  0  0  0
 20 21  1  0  0  0  0
 20 46  1  0  0  0  0
 20 47  1  0  0  0  0
 21 48  1  0  0  0  0
 22 49  1  0  0  0  0
 22 50  1  0  0  0  0
 23 24  1  0  0  0  0
 24 25  2  0  0  0  0
 24 51  1  0  0  0  0
 25 26  1  0  0  0  0
M  END
> <s_m_source_file>
AV-unprocessed.smi

> <i_m_source_file_index>
199

> <i_lp_mmshare_version>
43012

> <i_f3d_flags>
0

> <s_epik_input>
W0NIMl0xW0NIMl1PW0NAQEhdKFtDSDNdKVtDQEBdMShbT0hdKVtDSDJdbihbY0hdbjIpYyhjMjMpbltjSF1uYzNOKFtDQEBIXTQ1KVtDQEhdKFtDSDJdW0NIMl00KVtDQEhdKFtDSDJdNSlbQ0gyXVtPSF0=

> <s_epik_cmdline>
J2VwaWtfcHl0aG9uJywgJy1waCcsICc3LjAnLCAnLXRuJywgJzgnLCAnLW1hJywgJzIwMCcsICctbWV0YWxfYmluZGluZycsICctaW1hZScsICc8aW5maWxlLm1hZT4nLCAnLW9tYWUnLCAnPG91dGZpbGUubWFlPic=

> <r_lp_tautomer_probability>
1

> <r_epik_Ionization_Penalty>
0.00583903

> <r_epik_Ionization_Penalty_Charging>
0

> <r_epik_Ionization_Penalty_Neutral>
0.00583903

> <r_epik_State_Penalty>
-0

> <r_epik_Charging_Adjusted_Penalty>
0

> <i_epik_Tot_Q>
0

> <i_epik_Tot_abs_Q>
0

> <r_epik_Metal_State_Penalty>
-0

> <b_epik_Metal_Only>
0

> <s_lp_Force_Field>
OPLS_2005

> <r_lp_Energy>
83.6045

> <b_lp_Chiralities_Consistent>
1

> <s_lp_Variant>
AV-unprocessed.smi:199-3

> <Gold.Version>
5.8.1

> <Gold.Id.Protein>
6NUR|6NUR_protein|mol2

> <Gold.PLP.Fitness>
42.2018

> <Gold.PLP.PLP>
-34.3541

> <Gold.PLP.part.hbond>
-3.0000

> <Gold.PLP.part.metal>
0.0000

> <Gold.PLP.part.buried>
-3.2286

> <Gold.PLP.part.nonpolar>
-27.2604

> <Gold.PLP.part.repulsive>
0.0000

> <Gold.PLP.ligand.clash>
0.0000

> <Gold.PLP.ligand.torsion>
0.2504

> <Gold.PLP.Chemscore.Hbond>
2.7680

> <Gold.PLP.Chemscore.CHOScore>
0.0000

> <Gold.PLP.Chemscore.Metal>
0.0000

> <Gold.Chemscore.Hbonds>
donor molecule, donor type, donor heavy atom, donor atom, acceptor molecule, acceptor atom, score
      P1  H  6896  6909       L1    11  1.00
      P1  H  6934  6947       L1    23  0.58
      P1  H  7997  8009       L1     3  1.00

> <Gold.PLP.Chemscore.Internal.Correction>
0.0445

> <Gold.Rescore>
     Score         DG    S(hbond)    S(metal)    S(lipo)     H(rot)  DE(clash)    DE(int)     intcor
      9.94     -15.99       2.13        0.00      96.21       3.07       1.75       4.30       ----

> <Gold.Chemscore.Fitness>
9.9418

> <Gold.Chemscore.DG>
-15.9928

> <Gold.Chemscore.ZeroCoef>
-5.4800

> <Gold.Chemscore.Hbond>
2.1325

> <Gold.Chemscore.Metal>
0.0000

> <Gold.Chemscore.Lipo>
96.2137

> <Gold.Chemscore.Internal_Hbond>
0.0000

> <Gold.Chemscore.DEClash>
1.7548

> <Gold.Chemscore.DEInternal>
4.2962

> <Gold.Chemscore.Rot>
3.0729

> <Gold.Chemscore.Internal.Correction>
   9.000000E+99

> <Gold.Chemscore.Hbonds>
donor molecule, donor type, donor heavy atom, donor atom, acceptor molecule, acceptor atom, score
      P1  H  6896  6909       L1    11  0.74
      P1  H  6934  6947       L1    23  0.11
      P1  H  7997  8009       L1     3  0.40

> <Gold.Chemscore.Hbond.Weighted>
-7.1225

> <Gold.Chemscore.Metal.Weighted>
-0.0000

> <Gold.Chemscore.Lipo.Weighted>
-11.2570

> <Gold.Chemscore.Internal_Hbond.Weighted>
0.0000

> <Gold.Chemscore.DEClash.Weighted>
1.7548

> <Gold.Chemscore.DEInternal.Weighted>
4.2962

> <Gold.Chemscore.Rot.Weighted>
7.8667

> <Gold.Chemscore.Internal.Correction.Weighted>
   9.000000E+99

> <Gold.Protein.RotatedTorsions>
[ 6907 6896 6895 6894 ] final   24.61 input  -60.11 | X-H torsion
[ 7974 7965 7964 7962 ] final -158.38 input  175.53 | X-H torsion
[ 8008 7997 7996 7995 ] final -165.52 input   59.86 | X-H torsion
[ 10167 10162 10161 10158 ] final -163.40 input  -65.29 | X-H torsion
[ 10718 10713 10712 10709 ] final  116.58 input   66.30 | X-H torsion
[ 10763 10752 10751 10750 ] final  -72.88 input  -60.55 | X-H torsion
[ 11005 11000 10999 10996 ] final  120.43 input  -57.11 | X-H torsion

> <Gold.Protein.ActiveResidues>
 VAL166  LYS551  ARG553  GLY616  TRP617  ASP618  TYR619  PRO620  LYS621  CYS622 
 ASP623  PHE694  ASN695  SER759  ASP760  ASP761  ALA762  ILE779  LEU786  VAL792 
 PHE793  MET794  SER795  GLU796  ALA797  LYS798  CYS799  TRP800  GLU811  SER814 

> <Gold.Protein.RotatedAtoms>
  151.9600  135.0128  160.0546 H   0  0  0  0  0  0  0  0  0  0  0  0  # atno 6907 bound_to 6896
  152.1877  133.4746  159.4999 H   0  0  0  0  0  0  0  0  0  0  0  0  # atno 6908 bound_to 6896
  150.6929  134.1670  159.4240 H   0  0  0  0  0  0  0  0  0  0  0  0  # atno 6909 bound_to 6896
  144.7508  140.3836  143.6049 H   0  0  0  0  0  0  0  0  0  0  0  0  # atno 7974 bound_to 7965
  155.8509  140.0963  157.1675 H   0  0  0  0  0  0  0  0  0  0  0  0  # atno 8008 bound_to 7997
  154.3985  140.1383  156.3905 H   0  0  0  0  0  0  0  0  0  0  0  0  # atno 8009 bound_to 7997
  155.7962  140.3454  155.5379 H   0  0  0  0  0  0  0  0  0  0  0  0  # atno 8010 bound_to 7997
  139.6323  144.0416  152.2026 H   0  0  0  0  0  0  0  0  0  0  0  0  # atno 10167 bound_to 10162
  157.6152  131.1027  150.7492 H   0  0  0  0  0  0  0  0  0  0  0  0  # atno 10718 bound_to 10713
  154.4518  135.5915  153.6196 H   0  0  0  0  0  0  0  0  0  0  0  0  # atno 10763 bound_to 10752
  152.9814  135.6023  154.3595 H   0  0  0  0  0  0  0  0  0  0  0  0  # atno 10764 bound_to 10752
  154.3457  135.2841  155.2377 H   0  0  0  0  0  0  0  0  0  0  0  0  # atno 10765 bound_to 10752
  139.9185  134.9634  156.7806 H   0  0  0  0  0  0  0  0  0  0  0  0  # atno 11005 bound_to 11000
  145.6952  139.1648  143.2624 LP  0  0  0  0  0  0  0  0  0  0  0  0  # atno 17320 bound_to 7965
  146.1455  140.6998  142.9347 LP  0  0  0  0  0  0  0  0  0  0  0  0  # atno 17321 bound_to 7965
  140.0084  144.6242  150.7668 LP  0  0  0  0  0  0  0  0  0  0  0  0  # atno 17342 bound_to 10162
  140.7446  143.2863  151.3455 LP  0  0  0  0  0  0  0  0  0  0  0  0  # atno 17343 bound_to 10162
  156.7861  130.4875  149.5392 LP  0  0  0  0  0  0  0  0  0  0  0  0  # atno 17370 bound_to 10713
  156.1270  130.6151  151.0278 LP  0  0  0  0  0  0  0  0  0  0  0  0  # atno 17371 bound_to 10713
  140.6547  133.9699  155.7773 LP  0  0  0  0  0  0  0  0  0  0  0  0  # atno 17394 bound_to 11000
  141.0684  134.0242  157.3561 LP  0  0  0  0  0  0  0  0  0  0  0  0  # atno 17395 bound_to 11000

$$$$
