AV-unprocessed.smi:1622|AV-procd|sdf|6497|dock1
  -GOLD-   22720 7163D 1   1.00000     0.00000
 Structure written by MMmdl.
 41 42  0  0  0  0  0  0  0  0  2 V2000
  149.6622  130.9921  154.8898 C   0  0  0  0  0  0  0  0  0  0  0  0
  148.5568  131.8295  154.2260 C   0  0  0  0  0  0  0  0  0  0  0  0
  148.9903  133.2568  153.7946 C   0  0  2  0  0  0  0  0  0  0  0  0
  149.5090  134.1134  154.9800 C   0  0  0  0  0  0  0  0  0  0  0  0
  149.7097  135.5144  154.6158 N   0  0  0  0  0  0  0  0  0  0  0  0
  150.0561  136.4966  155.4612 C   0  0  0  0  0  0  0  0  0  0  0  0
  150.2407  136.3222  156.6656 O   0  0  0  0  0  0  0  0  0  0  0  0
  150.1724  137.6735  154.8210 N   0  0  0  0  0  0  0  0  0  0  0  0
  150.5564  138.9306  155.3589 C   0  0  0  0  0  0  0  0  0  0  0  0
  151.3131  139.8208  154.7024 N   0  0  0  0  0  0  0  0  0  0  0  0
  151.5330  140.9670  155.4530 N   0  0  0  0  0  0  0  0  0  0  0  0
  150.9394  140.9103  156.6514 C   0  0  0  0  0  0  0  0  0  0  0  0
  151.0223  142.0182  157.6449 C   0  0  0  0  0  0  0  0  0  0  0  0
  150.0448  139.4274  156.9628 S   0  0  0  0  0  0  0  0  0  0  0  0
  147.9015  133.9560  153.0482 N   0  3  0  0  0  0  0  0  0  0  0  0
  147.3667  133.2347  151.8737 C   0  0  0  0  0  0  0  0  0  0  0  0
  146.0312  133.9038  151.5485 C   0  0  0  0  0  0  0  0  0  0  0  0
  145.5682  134.5407  152.8609 C   0  0  0  0  0  0  0  0  0  0  0  0
  146.7140  134.3196  153.8534 C   0  0  0  0  0  0  0  0  0  0  0  0
  149.2855  130.0047  155.1567 H   0  0  0  0  0  0  0  0  0  0  0  0
  150.0276  131.4603  155.8036 H   0  0  0  0  0  0  0  0  0  0  0  0
  150.5136  130.8458  154.2269 H   0  0  0  0  0  0  0  0  0  0  0  0
  148.1743  131.2830  153.3642 H   0  0  0  0  0  0  0  0  0  0  0  0
  147.7062  131.8883  154.9052 H   0  0  0  0  0  0  0  0  0  0  0  0
  149.8237  133.1376  153.1000 H   0  0  0  0  0  0  0  0  0  0  0  0
  148.7821  134.1195  155.7917 H   0  0  0  0  0  0  0  0  0  0  0  0
  150.4168  133.6740  155.3963 H   0  0  0  0  0  0  0  0  0  0  0  0
  149.5755  135.7536  153.6440 H   0  0  0  0  0  0  0  0  0  0  0  0
  149.9726  137.6702  153.8316 H   0  0  0  0  0  0  0  0  0  0  0  0
  151.9028  142.6340  157.4585 H   0  0  0  0  0  0  0  0  0  0  0  0
  151.0894  141.6127  158.6546 H   0  0  0  0  0  0  0  0  0  0  0  0
  150.1340  142.6460  157.5766 H   0  0  0  0  0  0  0  0  0  0  0  0
  148.0489  133.2690  151.0236 H   0  0  0  0  0  0  0  0  0  0  0  0
  147.1986  132.1884  152.1346 H   0  0  0  0  0  0  0  0  0  0  0  0
  146.1765  134.6797  150.7955 H   0  0  0  0  0  0  0  0  0  0  0  0
  145.3056  133.1928  151.1522 H   0  0  0  0  0  0  0  0  0  0  0  0
  145.3838  135.6059  152.7156 H   0  0  0  0  0  0  0  0  0  0  0  0
  144.6420  134.0941  153.2240 H   0  0  0  0  0  0  0  0  0  0  0  0
  146.4601  133.4949  154.5215 H   0  0  0  0  0  0  0  0  0  0  0  0
  146.8936  135.2047  154.4644 H   0  0  0  0  0  0  0  0  0  0  0  0
  148.2857  134.8223  152.6981 H   0  0  0  0  0  0  0  0  0  0  0  0
  1  2  1  0  0  0  0
  1 20  1  0  0  0  0
  1 21  1  0  0  0  0
  1 22  1  0  0  0  0
  2  3  1  0  0  0  0
  2 23  1  0  0  0  0
  2 24  1  0  0  0  0
  3  4  1  0  0  0  0
  3 15  1  0  0  0  0
  3 25  1  0  0  0  0
  4  5  1  0  0  0  0
  4 26  1  0  0  0  0
  4 27  1  0  0  0  0
  5  6  1  0  0  0  0
  5 28  1  0  0  0  0
  6  7  2  0  0  0  0
  6  8  1  0  0  0  0
  8  9  1  0  0  0  0
  8 29  1  0  0  0  0
  9 14  1  0  0  0  0
  9 10  2  0  0  0  0
 10 11  1  0  0  0  0
 11 12  2  0  0  0  0
 12 13  1  0  0  0  0
 12 14  1  0  0  0  0
 13 30  1  0  0  0  0
 13 31  1  0  0  0  0
 13 32  1  0  0  0  0
 15 19  1  0  0  0  0
 15 16  1  0  0  0  0
 15 41  1  0  0  0  0
 16 17  1  0  0  0  0
 16 33  1  0  0  0  0
 16 34  1  0  0  0  0
 17 18  1  0  0  0  0
 17 35  1  0  0  0  0
 17 36  1  0  0  0  0
 18 19  1  0  0  0  0
 18 37  1  0  0  0  0
 18 38  1  0  0  0  0
 19 39  1  0  0  0  0
 19 40  1  0  0  0  0
M  CHG  1  15   1
M  END
> <s_m_source_file>
AV-unprocessed.smi

> <i_m_source_file_index>
1622

> <i_lp_mmshare_version>
43012

> <i_f3d_flags>
0

> <s_epik_input>
W0NIMl0xW0NIMl1bQ0gyXVtDSDJdTjFbQ0BIXShbQ0gyXVtDSDNdKVtDSDJdW05IXUMoPU8pW05IXWMybm5jKHMyKVtDSDNd

> <s_epik_cmdline>
J2VwaWtfcHl0aG9uJywgJy1waCcsICc3LjAnLCAnLXRuJywgJzgnLCAnLW1hJywgJzIwMCcsICctbWV0YWxfYmluZGluZycsICctaW1hZScsICc8aW5maWxlLm1hZT4nLCAnLW9tYWUnLCAnPG91dGZpbGUubWFlPic=

> <r_lp_tautomer_probability>
1

> <r_epik_Ionization_Penalty>
0.00164835

> <r_epik_Ionization_Penalty_Charging>
0.00115997

> <r_epik_Ionization_Penalty_Neutral>
0.00048838

> <r_epik_State_Penalty>
-0

> <r_epik_Charging_Adjusted_Penalty>
0.00115997

> <i_epik_Tot_Q>
1

> <i_epik_Tot_abs_Q>
1

> <r_epik_Metal_State_Penalty>
0.216651

> <b_epik_Metal_Only>
0

> <s_lp_Force_Field>
OPLS_2005

> <r_lp_Energy>
32.351

> <b_lp_Chiralities_Consistent>
1

> <s_lp_Variant>
AV-unprocessed.smi:1622-1

> <Gold.Version>
5.8.1

> <Gold.Id.Protein>
6NUR|6NUR_protein|mol2

> <Gold.PLP.Fitness>
38.4079

> <Gold.PLP.PLP>
-28.8858

> <Gold.PLP.part.hbond>
-4.0456

> <Gold.PLP.part.metal>
0.0000

> <Gold.PLP.part.buried>
-2.8329

> <Gold.PLP.part.nonpolar>
-19.9593

> <Gold.PLP.part.repulsive>
0.1861

> <Gold.PLP.ligand.clash>
0.0000

> <Gold.PLP.ligand.torsion>
0.4071

> <Gold.PLP.Chemscore.Hbond>
3.4000

> <Gold.PLP.Chemscore.CHOScore>
0.0000

> <Gold.PLP.Chemscore.Metal>
0.0000

> <Gold.Chemscore.Hbonds>
donor molecule, donor type, donor heavy atom, donor atom, acceptor molecule, acceptor atom, score
      L1  H     5    28       P1  7948  1.00
      L1  H    15    41       P1  7948  2.00
      P1  H  7989  7998       L1    10  0.05

> <Gold.PLP.Chemscore.Internal.Correction>
0.1363

> <Gold.Rescore>
     Score         DG    S(hbond)    S(metal)    S(lipo)     H(rot)  DE(clash)    DE(int)     intcor
     15.06     -15.75       2.81        0.00      46.34       1.77       0.00       0.69       ----

> <Gold.Chemscore.Fitness>
15.0553

> <Gold.Chemscore.DG>
-15.7511

> <Gold.Chemscore.ZeroCoef>
-5.4800

> <Gold.Chemscore.Hbond>
2.8113

> <Gold.Chemscore.Metal>
0.0000

> <Gold.Chemscore.Lipo>
46.3445

> <Gold.Chemscore.Internal_Hbond>
0.0000

> <Gold.Chemscore.DEClash>
0.0038

> <Gold.Chemscore.DEInternal>
0.6921

> <Gold.Chemscore.Rot>
1.7738

> <Gold.Chemscore.Internal.Correction>
   9.000000E+99

> <Gold.Chemscore.Hbonds>
donor molecule, donor type, donor heavy atom, donor atom, acceptor molecule, acceptor atom, score
      L1  H     5    28       P1  7948  0.26
      L1  H    15    41       P1  7948  0.55

> <Gold.Chemscore.Hbond.Weighted>
-9.3899

> <Gold.Chemscore.Metal.Weighted>
-0.0000

> <Gold.Chemscore.Lipo.Weighted>
-5.4223

> <Gold.Chemscore.Internal_Hbond.Weighted>
0.0000

> <Gold.Chemscore.DEClash.Weighted>
0.0038

> <Gold.Chemscore.DEInternal.Weighted>
0.6921

> <Gold.Chemscore.Rot.Weighted>
4.5411

> <Gold.Chemscore.Internal.Correction.Weighted>
   9.000000E+99

> <Gold.Protein.RotatedTorsions>
[ 6907 6896 6895 6894 ] final  104.73 input  -60.11 | X-H torsion
[ 7974 7965 7964 7962 ] final -110.33 input  175.53 | X-H torsion
[ 8008 7997 7996 7995 ] final  -54.11 input   59.86 | X-H torsion
[ 10167 10162 10161 10158 ] final  153.24 input  -65.29 | X-H torsion
[ 10718 10713 10712 10709 ] final  101.27 input   66.30 | X-H torsion
[ 10763 10752 10751 10750 ] final  131.14 input  -60.55 | X-H torsion
[ 11005 11000 10999 10996 ] final  -89.85 input  -57.11 | X-H torsion

> <Gold.Protein.ActiveResidues>
 VAL166  LYS551  ARG553  GLY616  TRP617  ASP618  TYR619  PRO620  LYS621  CYS622 
 ASP623  PHE694  ASN695  SER759  ASP760  ASP761  ALA762  ILE779  LEU786  VAL792 
 PHE793  MET794  SER795  GLU796  ALA797  LYS798  CYS799  TRP800  GLU811  SER814 

> <Gold.Protein.RotatedAtoms>
  152.5254  133.9633  159.7727 H   0  0  0  0  0  0  0  0  0  0  0  0  # atno 6907 bound_to 6896
  150.9919  133.6133  159.2714 H   0  0  0  0  0  0  0  0  0  0  0  0  # atno 6908 bound_to 6896
  151.3273  135.0839  159.9379 H   0  0  0  0  0  0  0  0  0  0  0  0  # atno 6909 bound_to 6896
  145.1695  140.8919  143.3543 H   0  0  0  0  0  0  0  0  0  0  0  0  # atno 7974 bound_to 7965
  154.4153  140.1184  156.5263 H   0  0  0  0  0  0  0  0  0  0  0  0  # atno 8008 bound_to 7997
  155.6651  140.3496  155.4778 H   0  0  0  0  0  0  0  0  0  0  0  0  # atno 8009 bound_to 7997
  155.9680  140.1136  157.0827 H   0  0  0  0  0  0  0  0  0  0  0  0  # atno 8010 bound_to 7997
  139.4828  144.5290  151.7754 H   0  0  0  0  0  0  0  0  0  0  0  0  # atno 10167 bound_to 10162
  157.6833  131.0721  150.5227 H   0  0  0  0  0  0  0  0  0  0  0  0  # atno 10718 bound_to 10713
  153.7694  135.3184  155.3349 H   0  0  0  0  0  0  0  0  0  0  0  0  # atno 10763 bound_to 10752
  154.8202  135.4609  154.0759 H   0  0  0  0  0  0  0  0  0  0  0  0  # atno 10764 bound_to 10752
  153.2014  135.6923  153.8311 H   0  0  0  0  0  0  0  0  0  0  0  0  # atno 10765 bound_to 10752
  141.1577  133.7655  156.9654 H   0  0  0  0  0  0  0  0  0  0  0  0  # atno 11005 bound_to 11000
  145.0247  139.3393  143.6055 LP  0  0  0  0  0  0  0  0  0  0  0  0  # atno 17320 bound_to 7965
  146.3470  139.9561  142.8723 LP  0  0  0  0  0  0  0  0  0  0  0  0  # atno 17321 bound_to 7965
  140.4813  144.1445  150.5933 LP  0  0  0  0  0  0  0  0  0  0  0  0  # atno 17342 bound_to 10162
  140.4274  143.2583  151.9638 LP  0  0  0  0  0  0  0  0  0  0  0  0  # atno 17343 bound_to 10162
  156.5540  130.4239  149.6094 LP  0  0  0  0  0  0  0  0  0  0  0  0  # atno 17370 bound_to 10713
  156.2878  130.7107  151.1948 LP  0  0  0  0  0  0  0  0  0  0  0  0  # atno 17371 bound_to 10713
  140.1165  134.9444  157.2141 LP  0  0  0  0  0  0  0  0  0  0  0  0  # atno 17394 bound_to 11000
  140.3127  134.3006  155.7263 LP  0  0  0  0  0  0  0  0  0  0  0  0  # atno 17395 bound_to 11000

$$$$
