AV-unprocessed.smi:1652|AV-procd|sdf|6639|dock4
  -GOLD-   22720 7343D 1   1.00000     0.00000
 Structure written by MMmdl.
 38 40  0  0  0  0  0  0  0  0  1 V2000
  152.9955  139.2709  158.5461 O   0  0  0  0  0  0  0  0  0  0  0  0
  152.8490  140.4864  158.6784 C   0  0  0  0  0  0  0  0  0  0  0  0
  153.5020  141.2704  159.7381 C   0  0  0  0  0  0  0  0  0  0  0  0
  154.4067  140.5316  160.7208 C   0  0  0  0  0  0  0  0  0  0  0  0
  155.6799  140.5428  160.3237 F   0  0  0  0  0  0  0  0  0  0  0  0
  154.3520  141.0970  161.9273 F   0  0  0  0  0  0  0  0  0  0  0  0
  154.0275  139.2587  160.8393 F   0  0  0  0  0  0  0  0  0  0  0  0
  153.2898  142.6063  159.8243 C   0  0  0  0  0  0  0  0  0  0  0  0
  152.4199  143.2716  158.8757 C   0  0  0  0  0  0  0  0  0  0  0  0
  152.1328  144.7453  158.9185 C   0  0  0  0  0  0  0  0  0  0  0  0
  151.7271  145.4511  160.1924 C   0  0  0  0  0  0  0  0  0  0  0  0
  150.7261  145.2749  159.0737 C   0  0  0  0  0  0  0  0  0  0  0  0
  151.8530  142.5833  157.9430 N   0  0  0  0  0  0  0  0  0  0  0  0
  152.0577  141.2205  157.8419 N   0  0  0  0  0  0  0  0  0  0  0  0
  151.3194  140.5894  156.7403 C   0  0  0  0  0  0  0  0  0  0  0  0
  149.8798  140.2087  157.1495 C   0  0  2  0  0  0  0  0  0  0  0  0
  149.7296  138.8054  157.0614 O   0  0  0  0  0  0  0  0  0  0  0  0
  148.8595  140.9284  156.2796 C   0  0  0  0  0  0  0  0  0  0  0  0
  149.0056  140.9265  154.8756 C   0  0  0  0  0  0  0  0  0  0  0  0
  148.0606  141.5817  154.0621 C   0  0  0  0  0  0  0  0  0  0  0  0
  146.9626  142.2410  154.6474 C   0  0  0  0  0  0  0  0  0  0  0  0
  146.0543  142.8701  153.8649 F   0  0  0  0  0  0  0  0  0  0  0  0
  146.8092  142.2435  156.0470 C   0  0  0  0  0  0  0  0  0  0  0  0
  147.7533  141.5876  156.8609 C   0  0  0  0  0  0  0  0  0  0  0  0
  153.7608  143.1980  160.5947 H   0  0  0  0  0  0  0  0  0  0  0  0
  152.7954  145.2867  158.2456 H   0  0  0  0  0  0  0  0  0  0  0  0
  151.5777  144.8538  161.0901 H   0  0  0  0  0  0  0  0  0  0  0  0
  152.1240  146.4503  160.3590 H   0  0  0  0  0  0  0  0  0  0  0  0
  150.4555  146.1574  158.4976 H   0  0  0  0  0  0  0  0  0  0  0  0
  149.9237  144.5558  159.2293 H   0  0  0  0  0  0  0  0  0  0  0  0
  151.2735  141.3170  155.9275 H   0  0  0  0  0  0  0  0  0  0  0  0
  151.8465  139.7333  156.3150 H   0  0  0  0  0  0  0  0  0  0  0  0
  149.7028  140.4931  158.1878 H   0  0  0  0  0  0  0  0  0  0  0  0
  148.9370  138.5592  157.5131 H   0  0  0  0  0  0  0  0  0  0  0  0
  149.8418  140.4201  154.4159 H   0  0  0  0  0  0  0  0  0  0  0  0
  148.1776  141.5768  152.9884 H   0  0  0  0  0  0  0  0  0  0  0  0
  145.9661  142.7471  156.4969 H   0  0  0  0  0  0  0  0  0  0  0  0
  147.6242  141.5898  157.9335 H   0  0  0  0  0  0  0  0  0  0  0  0
  1  2  2  0  0  0  0
  2 14  1  0  0  0  0
  2  3  1  0  0  0  0
  3  4  1  0  0  0  0
  3  8  2  0  0  0  0
  4  5  1  0  0  0  0
  4  6  1  0  0  0  0
  4  7  1  0  0  0  0
  8  9  1  0  0  0  0
  8 25  1  0  0  0  0
  9 10  1  0  0  0  0
  9 13  2  0  0  0  0
 10 12  1  0  0  0  0
 10 11  1  0  0  0  0
 10 26  1  0  0  0  0
 11 12  1  0  0  0  0
 11 27  1  0  0  0  0
 11 28  1  0  0  0  0
 12 29  1  0  0  0  0
 12 30  1  0  0  0  0
 13 14  1  0  0  0  0
 14 15  1  0  0  0  0
 15 16  1  0  0  0  0
 15 31  1  0  0  0  0
 15 32  1  0  0  0  0
 16 17  1  0  0  0  0
 16 18  1  0  0  0  0
 16 33  1  0  0  0  0
 17 34  1  0  0  0  0
 18 24  1  0  0  0  0
 18 19  2  0  0  0  0
 19 20  1  0  0  0  0
 19 35  1  0  0  0  0
 20 21  2  0  0  0  0
 20 36  1  0  0  0  0
 21 22  1  0  0  0  0
 21 23  1  0  0  0  0
 23 24  2  0  0  0  0
 23 37  1  0  0  0  0
 24 38  1  0  0  0  0
M  END
> <s_m_source_file>
AV-unprocessed.smi

> <i_m_source_file_index>
1652

> <i_lp_mmshare_version>
43012

> <i_f3d_flags>
0

> <s_epik_input>
Tz1jMWMoQyhGKShGKUYpW2NIXWMoW0NIXTJbQ0gyXVtDSDJdMilubjFbQ0gyXVtDQEhdKFtPSF0pYzNbY0hdW2NIXWMoRilbY0hdW2NIXTM=

> <s_epik_cmdline>
J2VwaWtfcHl0aG9uJywgJy1waCcsICc3LjAnLCAnLXRuJywgJzgnLCAnLW1hJywgJzIwMCcsICctbWV0YWxfYmluZGluZycsICctaW1hZScsICc8aW5maWxlLm1hZT4nLCAnLW9tYWUnLCAnPG91dGZpbGUubWFlPic=

> <r_lp_tautomer_probability>
1

> <r_epik_Ionization_Penalty>
9.17026e-08

> <r_epik_Ionization_Penalty_Charging>
9.677e-10

> <r_epik_Ionization_Penalty_Neutral>
9.07349e-08

> <r_epik_State_Penalty>
-0

> <r_epik_Charging_Adjusted_Penalty>
9.677e-10

> <i_epik_Tot_Q>
0

> <i_epik_Tot_abs_Q>
0

> <r_epik_Metal_State_Penalty>
-0

> <b_epik_Metal_Only>
0

> <s_lp_Force_Field>
OPLS_2005

> <r_lp_Energy>
34.1346

> <b_lp_Chiralities_Consistent>
1

> <s_lp_Variant>
AV-unprocessed.smi:1652-1

> <Gold.Version>
5.8.1

> <Gold.Id.Protein>
6NUR|6NUR_protein|mol2

> <Gold.PLP.Fitness>
49.3530

> <Gold.PLP.PLP>
-53.9140

> <Gold.PLP.part.hbond>
0.0000

> <Gold.PLP.part.metal>
0.0000

> <Gold.PLP.part.buried>
-3.5486

> <Gold.PLP.part.nonpolar>
-48.6377

> <Gold.PLP.part.repulsive>
0.0389

> <Gold.PLP.ligand.clash>
0.0000

> <Gold.PLP.ligand.torsion>
2.6180

> <Gold.PLP.Chemscore.Hbond>
0.0000

> <Gold.PLP.Chemscore.CHOScore>
0.0000

> <Gold.PLP.Chemscore.Metal>
0.0000

> <Gold.PLP.Chemscore.Internal.Correction>
0.6751

> <Gold.Rescore>
     Score         DG    S(hbond)    S(metal)    S(lipo)     H(rot)  DE(clash)    DE(int)     intcor
      9.54     -13.53       0.00        0.00     116.93       2.20       0.13       3.85       ----

> <Gold.Chemscore.Fitness>
9.5422

> <Gold.Chemscore.DG>
-13.5279

> <Gold.Chemscore.ZeroCoef>
-5.4800

> <Gold.Chemscore.Hbond>
0.0000

> <Gold.Chemscore.Metal>
0.0000

> <Gold.Chemscore.Lipo>
116.9297

> <Gold.Chemscore.Internal_Hbond>
0.0000

> <Gold.Chemscore.DEClash>
0.1308

> <Gold.Chemscore.DEInternal>
3.8550

> <Gold.Chemscore.Rot>
2.2003

> <Gold.Chemscore.Internal.Correction>
   9.000000E+99

> <Gold.Chemscore.Hbond.Weighted>
-0.0000

> <Gold.Chemscore.Metal.Weighted>
-0.0000

> <Gold.Chemscore.Lipo.Weighted>
-13.6808

> <Gold.Chemscore.Internal_Hbond.Weighted>
0.0000

> <Gold.Chemscore.DEClash.Weighted>
0.1308

> <Gold.Chemscore.DEInternal.Weighted>
3.8550

> <Gold.Chemscore.Rot.Weighted>
5.6328

> <Gold.Chemscore.Internal.Correction.Weighted>
   9.000000E+99

> <Gold.Protein.RotatedTorsions>
[ 6907 6896 6895 6894 ] final -155.10 input  -60.11 | X-H torsion
[ 7974 7965 7964 7962 ] final   49.67 input  175.53 | X-H torsion
[ 8008 7997 7996 7995 ] final  -89.24 input   59.86 | X-H torsion
[ 10167 10162 10161 10158 ] final   13.45 input  -65.29 | X-H torsion
[ 10718 10713 10712 10709 ] final  141.34 input   66.30 | X-H torsion
[ 10763 10752 10751 10750 ] final   22.45 input  -60.55 | X-H torsion
[ 11005 11000 10999 10996 ] final  -57.12 input  -57.11 | X-H torsion

> <Gold.Protein.ActiveResidues>
 VAL166  LYS551  ARG553  GLY616  TRP617  ASP618  TYR619  PRO620  LYS621  CYS622 
 ASP623  PHE694  ASN695  SER759  ASP760  ASP761  ALA762  ILE779  LEU786  VAL792 
 PHE793  MET794  SER795  GLU796  ALA797  LYS798  CYS799  TRP800  GLU811  SER814 

> <Gold.Protein.RotatedAtoms>
  151.2674  133.4272  159.2619 H   0  0  0  0  0  0  0  0  0  0  0  0  # atno 6907 bound_to 6896
  151.0476  134.9651  159.8204 H   0  0  0  0  0  0  0  0  0  0  0  0  # atno 6908 bound_to 6896
  152.5377  134.2630  159.8995 H   0  0  0  0  0  0  0  0  0  0  0  0  # atno 6909 bound_to 6896
  146.0086  139.4518  142.9970 H   0  0  0  0  0  0  0  0  0  0  0  0  # atno 7974 bound_to 7965
  154.6842  140.0544  157.0297 H   0  0  0  0  0  0  0  0  0  0  0  0  # atno 8008 bound_to 7997
  155.0908  140.3219  155.4555 H   0  0  0  0  0  0  0  0  0  0  0  0  # atno 8009 bound_to 7997
  156.2705  140.2048  156.6035 H   0  0  0  0  0  0  0  0  0  0  0  0  # atno 8010 bound_to 7997
  140.6002  143.8620  150.6957 H   0  0  0  0  0  0  0  0  0  0  0  0  # atno 10167 bound_to 10162
  157.3931  131.1007  151.0626 H   0  0  0  0  0  0  0  0  0  0  0  0  # atno 10718 bound_to 10713
  153.0914  135.6648  153.9846 H   0  0  0  0  0  0  0  0  0  0  0  0  # atno 10763 bound_to 10752
  153.9442  135.2990  155.3443 H   0  0  0  0  0  0  0  0  0  0  0  0  # atno 10764 bound_to 10752
  154.7329  135.5115  153.9067 H   0  0  0  0  0  0  0  0  0  0  0  0  # atno 10765 bound_to 10752
  141.1150  133.6610  156.4722 H   0  0  0  0  0  0  0  0  0  0  0  0  # atno 11005 bound_to 11000
  145.7377  141.0019  143.1318 LP  0  0  0  0  0  0  0  0  0  0  0  0  # atno 17320 bound_to 7965
  144.6945  139.9061  143.7461 LP  0  0  0  0  0  0  0  0  0  0  0  0  # atno 17321 bound_to 7965
  140.2164  143.3843  152.1677 LP  0  0  0  0  0  0  0  0  0  0  0  0  # atno 17342 bound_to 10162
  139.5286  144.7132  151.5139 LP  0  0  0  0  0  0  0  0  0  0  0  0  # atno 17343 bound_to 10162
  157.1653  130.6243  149.5623 LP  0  0  0  0  0  0  0  0  0  0  0  0  # atno 17370 bound_to 10713
  155.9803  130.4803  150.6767 LP  0  0  0  0  0  0  0  0  0  0  0  0  # atno 17371 bound_to 10713
  140.4669  134.6789  157.5111 LP  0  0  0  0  0  0  0  0  0  0  0  0  # atno 17394 bound_to 11000
  140.0067  134.6752  155.9443 LP  0  0  0  0  0  0  0  0  0  0  0  0  # atno 17395 bound_to 11000

$$$$
