AV-unprocessed.smi:3195|AV-procd|sdf|12216|dock2
  -GOLD-   2272018 53D 1   1.00000     0.00000
 Structure written by MMmdl.
 30 31  0  0  0  0  0  0  0  0  3 V2000
  151.4848  138.2871  154.7539 C   0  0  0  0  0  0  0  0  0  0  0  0
  150.6282  139.4667  155.2453 C   0  0  2  0  0  0  0  0  0  0  0  0
  151.4290  140.3346  156.2398 C   0  0  0  0  0  0  0  0  0  0  0  0
  152.5801  140.0046  156.5314 O   0  0  0  0  0  0  0  0  0  0  0  0
  150.8088  141.4255  156.7304 N   0  0  0  0  0  0  0  0  0  0  0  0
  151.2934  142.3885  157.6585 C   0  0  0  0  0  0  0  0  0  0  0  0
  151.0365  143.7138  157.5243 N   0  3  0  0  0  0  0  0  0  0  0  0
  151.4829  144.6530  158.3857 C   0  0  0  0  0  0  0  0  0  0  0  0
  152.2602  144.2715  159.4960 C   0  0  0  0  0  0  0  0  0  0  0  0
  152.5571  142.9071  159.6842 C   0  0  0  0  0  0  0  0  0  0  0  0
  152.0715  141.9572  158.7605 C   0  0  0  0  0  0  0  0  0  0  0  0
  152.3613  140.6341  158.9437 O   0  5  0  0  0  0  0  0  0  0  0  0
  149.2833  138.9955  155.8479 C   0  0  0  0  0  0  0  0  0  0  0  0
  148.2324  139.5085  154.8796 C   0  0  0  0  0  0  0  0  0  0  0  0
  148.9256  140.7005  154.2404 C   0  0  0  0  0  0  0  0  0  0  0  0
  150.2622  140.2429  154.0992 O   0  0  0  0  0  0  0  0  0  0  0  0
  151.7570  137.6211  155.5738 H   0  0  0  0  0  0  0  0  0  0  0  0
  152.4071  138.6336  154.2860 H   0  0  0  0  0  0  0  0  0  0  0  0
  150.9455  137.6949  154.0140 H   0  0  0  0  0  0  0  0  0  0  0  0
  149.8652  141.5844  156.4057 H   0  0  0  0  0  0  0  0  0  0  0  0
  151.2067  145.6727  158.1610 H   0  0  0  0  0  0  0  0  0  0  0  0
  152.6242  145.0123  160.1922 H   0  0  0  0  0  0  0  0  0  0  0  0
  153.1528  142.5942  160.5294 H   0  0  0  0  0  0  0  0  0  0  0  0
  150.4750  144.0156  156.7273 H   0  0  0  0  0  0  0  0  0  0  0  0
  149.2248  137.9120  155.9605 H   0  0  0  0  0  0  0  0  0  0  0  0
  149.1056  139.4276  156.8344 H   0  0  0  0  0  0  0  0  0  0  0  0
  148.0248  138.7524  154.1214 H   0  0  0  0  0  0  0  0  0  0  0  0
  147.2927  139.7716  155.3658 H   0  0  0  0  0  0  0  0  0  0  0  0
  148.4911  140.9787  153.2802 H   0  0  0  0  0  0  0  0  0  0  0  0
  148.8974  141.5700  154.8989 H   0  0  0  0  0  0  0  0  0  0  0  0
  1  2  1  0  0  0  0
  1 17  1  0  0  0  0
  1 18  1  0  0  0  0
  1 19  1  0  0  0  0
  2 16  1  0  0  0  0
  2  3  1  0  0  0  0
  2 13  1  0  0  0  0
  3  4  2  0  0  0  0
  3  5  1  0  0  0  0
  5 20  1  0  0  0  0
  5  6  1  0  0  0  0
  6 11  2  0  0  0  0
  6  7  1  0  0  0  0
  7 24  1  0  0  0  0
  7  8  2  0  0  0  0
  8 21  1  0  0  0  0
  8  9  1  0  0  0  0
  9 22  1  0  0  0  0
  9 10  2  0  0  0  0
 10 11  1  0  0  0  0
 10 23  1  0  0  0  0
 11 12  1  0  0  0  0
 13 14  1  0  0  0  0
 13 25  1  0  0  0  0
 13 26  1  0  0  0  0
 14 15  1  0  0  0  0
 14 27  1  0  0  0  0
 14 28  1  0  0  0  0
 15 16  1  0  0  0  0
 15 29  1  0  0  0  0
 15 30  1  0  0  0  0
M  CHG  1   7   1
M  CHG  1  12  -1
M  END
> <s_m_source_file>
AV-unprocessed.smi

> <i_m_source_file_index>
3195

> <i_lp_mmshare_version>
43012

> <i_f3d_flags>
0

> <s_epik_input>
TzFbQ0gyXVtDSDJdW0NIMl1bQ0BAXTEoW0NIM10pQyg9TylbTkhdYzJuW2NIXVtjSF1bY0hdYzJbT0hd

> <s_epik_cmdline>
J2VwaWtfcHl0aG9uJywgJy1waCcsICc3LjAnLCAnLXRuJywgJzgnLCAnLW1hJywgJzIwMCcsICctbWV0YWxfYmluZGluZycsICctaW1hZScsICc8aW5maWxlLm1hZT4nLCAnLW9tYWUnLCAnPG91dGZpbGUubWFlPic=

> <r_lp_tautomer_probability>
0.56342

> <r_epik_Ionization_Penalty>
0.213843

> <r_epik_Ionization_Penalty_Charging>
0.0241245

> <r_epik_Ionization_Penalty_Neutral>
0.189718

> <r_epik_State_Penalty>
0.53074

> <r_epik_Charging_Adjusted_Penalty>
0.554865

> <i_epik_Tot_Q>
0

> <i_epik_Tot_abs_Q>
2

> <r_epik_Metal_State_Penalty>
2.53391

> <b_epik_Metal_Only>
0

> <s_lp_Force_Field>
OPLS_2005

> <r_lp_Energy>
20.8299

> <b_lp_Chiralities_Consistent>
1

> <s_lp_Variant>
AV-unprocessed.smi:3195-4

> <Gold.Version>
5.8.1

> <Gold.Id.Protein>
6NUR|6NUR_protein|mol2

> <Gold.PLP.Fitness>
44.4161

> <Gold.PLP.PLP>
-32.6271

> <Gold.PLP.part.hbond>
-3.0000

> <Gold.PLP.part.metal>
0.0000

> <Gold.PLP.part.buried>
-5.2084

> <Gold.PLP.part.nonpolar>
-25.7404

> <Gold.PLP.part.repulsive>
0.9296

> <Gold.PLP.ligand.clash>
0.0000

> <Gold.PLP.ligand.torsion>
0.3241

> <Gold.PLP.Chemscore.Hbond>
3.9760

> <Gold.PLP.Chemscore.CHOScore>
0.0000

> <Gold.PLP.Chemscore.Metal>
0.0000

> <Gold.Chemscore.Hbonds>
donor molecule, donor type, donor heavy atom, donor atom, acceptor molecule, acceptor atom, score
      L1  H     7    24       P1  8028  2.00
      P1  H  7989  7998       L1    16  0.94
      P1  H  7997  8009       L1     4  1.00

> <Gold.PLP.Chemscore.Internal.Correction>
0.5092

> <Gold.Rescore>
     Score         DG    S(hbond)    S(metal)    S(lipo)     H(rot)  DE(clash)    DE(int)     intcor
     16.52     -20.94       2.93        0.00      70.50       1.00       0.01       4.41       ----

> <Gold.Chemscore.Fitness>
16.5230

> <Gold.Chemscore.DG>
-20.9440

> <Gold.Chemscore.ZeroCoef>
-5.4800

> <Gold.Chemscore.Hbond>
2.9267

> <Gold.Chemscore.Metal>
0.0000

> <Gold.Chemscore.Lipo>
70.5026

> <Gold.Chemscore.Internal_Hbond>
0.0000

> <Gold.Chemscore.DEClash>
0.0089

> <Gold.Chemscore.DEInternal>
4.4121

> <Gold.Chemscore.Rot>
1.0000

> <Gold.Chemscore.Internal.Correction>
   9.000000E+99

> <Gold.Chemscore.Hbonds>
donor molecule, donor type, donor heavy atom, donor atom, acceptor molecule, acceptor atom, score
      L1  H     7    24       P1  8028  0.94
      P1  H  7989  7998       L1    16  0.60
      P1  H  7997  8009       L1     4  1.00

> <Gold.Chemscore.Hbond.Weighted>
-9.7752

> <Gold.Chemscore.Metal.Weighted>
-0.0000

> <Gold.Chemscore.Lipo.Weighted>
-8.2488

> <Gold.Chemscore.Internal_Hbond.Weighted>
0.0000

> <Gold.Chemscore.DEClash.Weighted>
0.0089

> <Gold.Chemscore.DEInternal.Weighted>
4.4121

> <Gold.Chemscore.Rot.Weighted>
2.5600

> <Gold.Chemscore.Internal.Correction.Weighted>
   9.000000E+99

> <Gold.Protein.RotatedTorsions>
[ 6907 6896 6895 6894 ] final -119.60 input  -60.11 | X-H torsion
[ 7974 7965 7964 7962 ] final -101.89 input  175.53 | X-H torsion
[ 8008 7997 7996 7995 ] final -163.66 input   59.86 | X-H torsion
[ 10167 10162 10161 10158 ] final   36.05 input  -65.29 | X-H torsion
[ 10718 10713 10712 10709 ] final   94.17 input   66.30 | X-H torsion
[ 10763 10752 10751 10750 ] final   40.58 input  -60.55 | X-H torsion
[ 11005 11000 10999 10996 ] final  -88.41 input  -57.11 | X-H torsion

> <Gold.Protein.ActiveResidues>
 VAL166  LYS551  ARG553  GLY616  TRP617  ASP618  TYR619  PRO620  LYS621  CYS622 
 ASP623  PHE694  ASN695  SER759  ASP760  ASP761  ALA762  ILE779  LEU786  VAL792 
 PHE793  MET794  SER795  GLU796  ALA797  LYS798  CYS799  TRP800  GLU811  SER814 

> <Gold.Protein.RotatedAtoms>
  150.8319  133.8077  159.3094 H   0  0  0  0  0  0  0  0  0  0  0  0  # atno 6907 bound_to 6896
  151.5804  135.1057  160.0025 H   0  0  0  0  0  0  0  0  0  0  0  0  # atno 6908 bound_to 6896
  152.4397  133.7384  159.6683 H   0  0  0  0  0  0  0  0  0  0  0  0  # atno 6909 bound_to 6896
  145.2757  140.9312  143.2960 H   0  0  0  0  0  0  0  0  0  0  0  0  # atno 7974 bound_to 7965
  155.8245  140.0924  157.1829 H   0  0  0  0  0  0  0  0  0  0  0  0  # atno 8008 bound_to 7997
  154.3979  140.1430  156.3600 H   0  0  0  0  0  0  0  0  0  0  0  0  # atno 8009 bound_to 7997
  155.8231  140.3445  155.5529 H   0  0  0  0  0  0  0  0  0  0  0  0  # atno 8010 bound_to 7997
  140.4164  144.1521  150.6143 H   0  0  0  0  0  0  0  0  0  0  0  0  # atno 10167 bound_to 10162
  157.6950  131.0503  150.4146 H   0  0  0  0  0  0  0  0  0  0  0  0  # atno 10718 bound_to 10713
  152.9932  135.6187  154.2650 H   0  0  0  0  0  0  0  0  0  0  0  0  # atno 10763 bound_to 10752
  154.2384  135.2789  155.2865 H   0  0  0  0  0  0  0  0  0  0  0  0  # atno 10764 bound_to 10752
  154.5390  135.5766  153.6881 H   0  0  0  0  0  0  0  0  0  0  0  0  # atno 10765 bound_to 10752
  141.1602  133.7568  156.9447 H   0  0  0  0  0  0  0  0  0  0  0  0  # atno 11005 bound_to 11000
  144.9296  139.4314  143.6501 LP  0  0  0  0  0  0  0  0  0  0  0  0  # atno 17320 bound_to 7965
  146.3232  139.8200  142.8928 LP  0  0  0  0  0  0  0  0  0  0  0  0  # atno 17321 bound_to 7965
  140.4582  143.2459  151.9256 LP  0  0  0  0  0  0  0  0  0  0  0  0  # atno 17342 bound_to 10162
  139.4782  144.5494  151.8409 LP  0  0  0  0  0  0  0  0  0  0  0  0  # atno 17343 bound_to 10162
  156.4526  130.4015  149.6626 LP  0  0  0  0  0  0  0  0  0  0  0  0  # atno 17370 bound_to 10713
  156.3770  130.7559  151.2548 LP  0  0  0  0  0  0  0  0  0  0  0  0  # atno 17371 bound_to 10713
  140.1298  134.9363  157.2320 LP  0  0  0  0  0  0  0  0  0  0  0  0  # atno 17394 bound_to 11000
  140.2968  134.3178  155.7300 LP  0  0  0  0  0  0  0  0  0  0  0  0  # atno 17395 bound_to 11000

$$$$
