AV-unprocessed.smi:2980|AV-procd|sdf|11373|dock2
  -GOLD-   2272016293D 1   1.00000     0.00000
 Structure written by MMmdl.
 39 40  0  0  0  0  0  0  0  0  2 V2000
  154.9431  137.4000  159.3364 C   0  0  0  0  0  0  0  0  0  0  0  0
  153.5882  138.0379  159.0222 C   0  0  0  0  0  0  0  0  0  0  0  0
  153.7571  138.9609  157.9610 O   0  0  0  0  0  0  0  0  0  0  0  0
  152.5563  139.6310  157.6142 C   0  0  0  0  0  0  0  0  0  0  0  0
  152.0753  140.4796  158.7997 C   0  0  0  0  0  0  0  0  0  0  0  0
  151.5333  141.7813  158.3756 N   0  0  0  0  0  0  0  0  0  0  0  0
  150.8829  142.1392  157.2295 C   0  0  0  0  0  0  0  0  0  0  0  0
  150.5560  141.2659  156.0609 C   0  0  0  0  0  0  0  0  0  0  0  0
  149.0621  141.3355  155.7049 C   0  0  0  0  0  0  0  0  0  0  0  0
  148.7069  140.5467  154.4366 C   0  0  0  0  0  0  0  0  0  0  0  0
  149.6067  140.8588  153.3940 O   0  0  0  0  0  0  0  0  0  0  0  0
  150.5972  143.4684  157.3265 N   0  3  0  0  0  0  0  0  0  0  0  0
  151.0686  143.9672  158.5407 C   0  0  0  0  0  0  0  0  0  0  0  0
  151.0153  145.2487  159.0801 C   0  0  0  0  0  0  0  0  0  0  0  0
  151.6027  145.4260  160.3498 C   0  0  0  0  0  0  0  0  0  0  0  0
  152.2131  144.3536  161.0319 C   0  0  0  0  0  0  0  0  0  0  0  0
  152.2599  143.0588  160.4748 C   0  0  0  0  0  0  0  0  0  0  0  0
  151.6742  142.8904  159.2199 C   0  0  0  0  0  0  0  0  0  0  0  0
  154.8554  136.6800  160.1502 H   0  0  0  0  0  0  0  0  0  0  0  0
  155.6709  138.1550  159.6340 H   0  0  0  0  0  0  0  0  0  0  0  0
  155.3398  136.8760  158.4663 H   0  0  0  0  0  0  0  0  0  0  0  0
  152.8700  137.2664  158.7413 H   0  0  0  0  0  0  0  0  0  0  0  0
  153.2007  138.5469  159.9060 H   0  0  0  0  0  0  0  0  0  0  0  0
  152.7225  140.2679  156.7443 H   0  0  0  0  0  0  0  0  0  0  0  0
  151.7877  138.9058  157.3434 H   0  0  0  0  0  0  0  0  0  0  0  0
  151.2963  139.9503  159.3477 H   0  0  0  0  0  0  0  0  0  0  0  0
  152.8833  140.6428  159.5127 H   0  0  0  0  0  0  0  0  0  0  0  0
  151.1651  141.5578  155.2061 H   0  0  0  0  0  0  0  0  0  0  0  0
  150.8354  140.2396  156.3014 H   0  0  0  0  0  0  0  0  0  0  0  0
  148.4807  140.9381  156.5378 H   0  0  0  0  0  0  0  0  0  0  0  0
  148.7515  142.3746  155.5873 H   0  0  0  0  0  0  0  0  0  0  0  0
  148.7269  139.4731  154.6268 H   0  0  0  0  0  0  0  0  0  0  0  0
  147.6978  140.7979  154.1087 H   0  0  0  0  0  0  0  0  0  0  0  0
  149.4915  140.2296  152.6980 H   0  0  0  0  0  0  0  0  0  0  0  0
  150.5510  146.0721  158.5575 H   0  0  0  0  0  0  0  0  0  0  0  0
  151.5870  146.4039  160.8085 H   0  0  0  0  0  0  0  0  0  0  0  0
  152.6561  144.5272  162.0017 H   0  0  0  0  0  0  0  0  0  0  0  0
  152.7364  142.2472  161.0043 H   0  0  0  0  0  0  0  0  0  0  0  0
  150.1177  143.9957  156.6085 H   0  0  0  0  0  0  0  0  0  0  0  0
  1  2  1  0  0  0  0
  1 19  1  0  0  0  0
  1 20  1  0  0  0  0
  1 21  1  0  0  0  0
  2  3  1  0  0  0  0
  2 22  1  0  0  0  0
  2 23  1  0  0  0  0
  3  4  1  0  0  0  0
  4  5  1  0  0  0  0
  4 24  1  0  0  0  0
  4 25  1  0  0  0  0
  5  6  1  0  0  0  0
  5 26  1  0  0  0  0
  5 27  1  0  0  0  0
  6 18  1  0  0  0  0
  6  7  1  0  0  0  0
  7  8  1  0  0  0  0
  7 12  2  0  0  0  0
  8  9  1  0  0  0  0
  8 28  1  0  0  0  0
  8 29  1  0  0  0  0
  9 10  1  0  0  0  0
  9 30  1  0  0  0  0
  9 31  1  0  0  0  0
 10 11  1  0  0  0  0
 10 32  1  0  0  0  0
 10 33  1  0  0  0  0
 11 34  1  0  0  0  0
 12 13  1  0  0  0  0
 12 39  1  0  0  0  0
 13 18  2  0  0  0  0
 13 14  1  0  0  0  0
 14 15  2  0  0  0  0
 14 35  1  0  0  0  0
 15 16  1  0  0  0  0
 15 36  1  0  0  0  0
 16 17  2  0  0  0  0
 16 37  1  0  0  0  0
 17 18  1  0  0  0  0
 17 38  1  0  0  0  0
M  CHG  1  12   1
M  END
> <s_m_source_file>
AV-unprocessed.smi

> <i_m_source_file_index>
2980

> <i_lp_mmshare_version>
43012

> <i_f3d_flags>
0

> <s_epik_input>
W0NIM11bQ0gyXU9bQ0gyXVtDSDJdbihjKG4xKVtDSDJdW0NIMl1bQ0gyXVtPSF0pYyhjMTIpW2NIXVtjSF1bY0hdW2NIXTI=

> <s_epik_cmdline>
J2VwaWtfcHl0aG9uJywgJy1waCcsICc3LjAnLCAnLXRuJywgJzgnLCAnLW1hJywgJzIwMCcsICctbWV0YWxfYmluZGluZycsICctaW1hZScsICc8aW5maWxlLm1hZT4nLCAnLW9tYWUnLCAnPG91dGZpbGUubWFlPic=

> <r_epik_Ionization_Penalty>
0.813193

> <r_epik_Ionization_Penalty_Charging>
0.813193

> <r_epik_Ionization_Penalty_Neutral>
1.64912e-07

> <r_epik_State_Penalty>
0.845533

> <r_epik_Charging_Adjusted_Penalty>
1.65873

> <i_epik_Tot_Q>
1

> <i_epik_Tot_abs_Q>
1

> <r_epik_Metal_State_Penalty>
4.77586

> <b_epik_Metal_Only>
0

> <s_lp_Force_Field>
OPLS_2005

> <r_lp_Energy>
11.2721

> <b_lp_Chiralities_Consistent>
1

> <s_lp_Variant>
AV-unprocessed.smi:2980-2

> <Gold.Version>
5.8.1

> <Gold.Id.Protein>
6NUR|6NUR_protein|mol2

> <Gold.PLP.Fitness>
56.2804

> <Gold.PLP.PLP>
-42.3098

> <Gold.PLP.part.hbond>
-4.4190

> <Gold.PLP.part.metal>
0.0000

> <Gold.PLP.part.buried>
-5.4656

> <Gold.PLP.part.nonpolar>
-32.5222

> <Gold.PLP.part.repulsive>
0.0000

> <Gold.PLP.ligand.clash>
0.0000

> <Gold.PLP.ligand.torsion>
0.7357

> <Gold.PLP.Chemscore.Hbond>
5.0960

> <Gold.PLP.Chemscore.CHOScore>
0.0000

> <Gold.PLP.Chemscore.Metal>
0.0000

> <Gold.Chemscore.Hbonds>
donor molecule, donor type, donor heavy atom, donor atom, acceptor molecule, acceptor atom, score
      L1  H    11    34       P1  7957  0.85
      L1  H    12    39       P1  8028  2.00
      P1  H  7989  7998       L1    11  0.26
      P1  H  7997  8010       L1     3  0.98
      P1  H  8011  8017       L1    11  0.90

> <Gold.PLP.Chemscore.Internal.Correction>
0.1539

> <Gold.Rescore>
     Score         DG    S(hbond)    S(metal)    S(lipo)     H(rot)  DE(clash)    DE(int)     intcor
     19.64     -21.67       3.00        0.00     109.25       2.58       0.21       1.83       ----

> <Gold.Chemscore.Fitness>
19.6378

> <Gold.Chemscore.DG>
-21.6736

> <Gold.Chemscore.ZeroCoef>
-5.4800

> <Gold.Chemscore.Hbond>
2.9975

> <Gold.Chemscore.Metal>
0.0000

> <Gold.Chemscore.Lipo>
109.2544

> <Gold.Chemscore.Internal_Hbond>
0.0000

> <Gold.Chemscore.DEClash>
0.2062

> <Gold.Chemscore.DEInternal>
1.8297

> <Gold.Chemscore.Rot>
2.5784

> <Gold.Chemscore.Internal.Correction>
   9.000000E+99

> <Gold.Chemscore.Hbonds>
donor molecule, donor type, donor heavy atom, donor atom, acceptor molecule, acceptor atom, score
      L1  H    11    34       P1  7957  0.81
      L1  H    12    39       P1  8028  1.00
      P1  H  7989  7998       L1    11  0.06
      P1  H  7997  8010       L1     3  0.28
      P1  H  8011  8017       L1    11  0.18

> <Gold.Chemscore.Hbond.Weighted>
-10.0116

> <Gold.Chemscore.Metal.Weighted>
-0.0000

> <Gold.Chemscore.Lipo.Weighted>
-12.7828

> <Gold.Chemscore.Internal_Hbond.Weighted>
0.0000

> <Gold.Chemscore.DEClash.Weighted>
0.2062

> <Gold.Chemscore.DEInternal.Weighted>
1.8297

> <Gold.Chemscore.Rot.Weighted>
6.6007

> <Gold.Chemscore.Internal.Correction.Weighted>
   9.000000E+99

> <Gold.Protein.RotatedTorsions>
[ 6907 6896 6895 6894 ] final  -81.22 input  -60.11 | X-H torsion
[ 7974 7965 7964 7962 ] final  136.96 input  175.53 | X-H torsion
[ 8008 7997 7996 7995 ] final    8.70 input   59.86 | X-H torsion
[ 10167 10162 10161 10158 ] final  140.63 input  -65.29 | X-H torsion
[ 10718 10713 10712 10709 ] final -159.43 input   66.30 | X-H torsion
[ 10763 10752 10751 10750 ] final  -94.75 input  -60.55 | X-H torsion
[ 11005 11000 10999 10996 ] final  136.63 input  -57.11 | X-H torsion

> <Gold.Protein.ActiveResidues>
 VAL166  LYS551  ARG553  GLY616  TRP617  ASP618  TYR619  PRO620  LYS621  CYS622 
 ASP623  PHE694  ASN695  SER759  ASP760  ASP761  ALA762  ILE779  LEU786  VAL792 
 PHE793  MET794  SER795  GLU796  ALA797  LYS798  CYS799  TRP800  GLU811  SER814 

> <Gold.Protein.RotatedAtoms>
  150.6916  134.3851  159.5051 H   0  0  0  0  0  0  0  0  0  0  0  0  # atno 6907 bound_to 6896
  152.1647  134.8880  160.0548 H   0  0  0  0  0  0  0  0  0  0  0  0  # atno 6908 bound_to 6896
  151.9929  133.3762  159.4188 H   0  0  0  0  0  0  0  0  0  0  0  0  # atno 6909 bound_to 6896
  144.9514  139.4814  143.5524 H   0  0  0  0  0  0  0  0  0  0  0  0  # atno 7974 bound_to 7965
  154.7703  140.2801  155.6143 H   0  0  0  0  0  0  0  0  0  0  0  0  # atno 8008 bound_to 7997
  156.2932  140.2642  156.2432 H   0  0  0  0  0  0  0  0  0  0  0  0  # atno 8009 bound_to 7997
  154.9908  140.0373  157.2308 H   0  0  0  0  0  0  0  0  0  0  0  0  # atno 8010 bound_to 7997
  139.5043  144.6222  151.6024 H   0  0  0  0  0  0  0  0  0  0  0  0  # atno 10167 bound_to 10162
  156.5680  130.8676  151.2829 H   0  0  0  0  0  0  0  0  0  0  0  0  # atno 10718 bound_to 10713
  154.7084  135.5146  153.8630 H   0  0  0  0  0  0  0  0  0  0  0  0  # atno 10763 bound_to 10752
  153.0760  135.6616  154.0153 H   0  0  0  0  0  0  0  0  0  0  0  0  # atno 10764 bound_to 10752
  154.0000  135.3012  155.3383 H   0  0  0  0  0  0  0  0  0  0  0  0  # atno 10765 bound_to 10752
  140.0059  134.9459  157.0173 H   0  0  0  0  0  0  0  0  0  0  0  0  # atno 11005 bound_to 11000
  146.3322  139.8602  142.8857 LP  0  0  0  0  0  0  0  0  0  0  0  0  # atno 17320 bound_to 7965
  145.2838  141.0147  143.3702 LP  0  0  0  0  0  0  0  0  0  0  0  0  # atno 17321 bound_to 7965
  140.5928  143.9750  150.6335 LP  0  0  0  0  0  0  0  0  0  0  0  0  # atno 17342 bound_to 10162
  140.2936  143.3308  152.1039 LP  0  0  0  0  0  0  0  0  0  0  0  0  # atno 17343 bound_to 10162
  157.7354  130.9762  150.2081 LP  0  0  0  0  0  0  0  0  0  0  0  0  # atno 17370 bound_to 10713
  156.2740  130.3725  149.8003 LP  0  0  0  0  0  0  0  0  0  0  0  0  # atno 17371 bound_to 10713
  140.4643  134.1452  155.7195 LP  0  0  0  0  0  0  0  0  0  0  0  0  # atno 17394 bound_to 11000
  141.1676  133.8672  157.1668 LP  0  0  0  0  0  0  0  0  0  0  0  0  # atno 17395 bound_to 11000

$$$$
