AV-unprocessed.smi:287|AV-procd|sdf|2186|dock8
  -GOLD-   2262021573D 1   1.00000     0.00000
 Structure written by MMmdl.
 55 58  0  0  0  0  0  0  0  0  1 V2000
  151.6396  142.6197  158.0164 C   0  0  0  0  0  0  0  0  0  0  0  0
  151.4871  141.2689  157.4058 C   0  0  0  0  0  0  0  0  0  0  0  0
  151.1333  140.8283  156.1641 C   0  0  0  0  0  0  0  0  0  0  0  0
  151.1824  139.4024  156.1871 C   0  0  0  0  0  0  0  0  0  0  0  0
  150.8744  138.4795  155.0152 C   0  0  2  0  0  0  0  0  0  0  0  0
  152.1482  137.7296  154.5917 C   0  0  0  0  0  0  0  0  0  0  0  0
  150.4497  139.1786  153.8612 O   0  0  0  0  0  0  0  0  0  0  0  0
  149.7466  137.4739  155.3417 C   0  0  0  0  0  0  0  0  0  0  0  0
  148.4213  138.0841  155.3128 N   0  0  0  0  0  0  0  0  0  0  0  0
  147.4873  137.6432  154.4454 C   0  0  0  0  0  0  0  0  0  0  0  0
  146.9402  138.4751  153.5211 N   0  0  0  0  0  0  0  0  0  0  0  0
  146.0217  138.0115  152.6682 C   0  0  0  0  0  0  0  0  0  0  0  0
  145.5215  136.7777  152.5703 N   0  0  0  0  0  0  0  0  0  0  0  0
  146.0659  135.9396  153.4993 C   0  0  0  0  0  0  0  0  0  0  0  0
  147.0472  136.2950  154.4659 C   0  0  0  0  0  0  0  0  0  0  0  0
  147.3675  135.1888  155.2416 N   0  0  0  0  0  0  0  0  0  0  0  0
  146.6186  134.2358  154.7555 C   0  0  0  0  0  0  0  0  0  0  0  0
  145.8039  134.6007  153.7066 N   0  0  0  0  0  0  0  0  0  0  0  0
  144.8534  133.7348  152.9472 C   0  0  2  0  0  0  0  0  0  0  0  0
  145.5995  132.8778  152.1433 O   0  0  0  0  0  0  0  0  0  0  0  0
  144.8750  132.6372  150.9474 C   0  0  2  0  0  0  0  0  0  0  0  0
  145.7837  132.0351  149.8609 C   0  0  0  0  0  0  0  0  0  0  0  0
  147.0392  132.6808  149.8607 O   0  0  0  0  0  0  0  0  0  0  0  0
  144.2182  133.9929  150.6430 C   0  0  2  0  0  0  0  0  0  0  0  0
  145.0860  134.8433  149.9178 O   0  0  0  0  0  0  0  0  0  0  0  0
  143.9409  134.5716  152.0303 C   0  0  1  0  0  0  0  0  0  0  0  0
  142.5793  134.3756  152.3562 O   0  0  0  0  0  0  0  0  0  0  0  0
  151.5540  139.0855  157.4718 C   0  0  0  0  0  0  0  0  0  0  0  0
  151.7879  137.8023  158.1985 C   0  0  0  0  0  0  0  0  0  0  0  0
  151.7435  140.2113  158.2155 O   0  0  0  0  0  0  0  0  0  0  0  0
  144.3127  133.1688  153.7077 H   0  0  0  0  0  0  0  0  0  0  0  0
  144.0920  131.9175  151.1946 H   0  0  0  0  0  0  0  0  0  0  0  0
  143.3114  133.8692  150.0495 H   0  0  0  0  0  0  0  0  0  0  0  0
  144.1765  135.6354  152.0949 H   0  0  0  0  0  0  0  0  0  0  0  0
  151.5440  143.4007  157.2618 H   0  0  0  0  0  0  0  0  0  0  0  0
  152.6175  142.7235  158.4868 H   0  0  0  0  0  0  0  0  0  0  0  0
  150.8773  142.7885  158.7769 H   0  0  0  0  0  0  0  0  0  0  0  0
  150.8763  141.4588  155.3258 H   0  0  0  0  0  0  0  0  0  0  0  0
  152.5425  137.1259  155.4099 H   0  0  0  0  0  0  0  0  0  0  0  0
  152.9343  138.4222  154.2879 H   0  0  0  0  0  0  0  0  0  0  0  0
  151.9572  137.0580  153.7535 H   0  0  0  0  0  0  0  0  0  0  0  0
  149.6200  138.8218  153.5836 H   0  0  0  0  0  0  0  0  0  0  0  0
  149.7838  136.6123  154.6733 H   0  0  0  0  0  0  0  0  0  0  0  0
  149.9046  137.0921  156.3517 H   0  0  0  0  0  0  0  0  0  0  0  0
  148.2377  138.7760  156.0257 H   0  0  0  0  0  0  0  0  0  0  0  0
  145.6327  138.7313  151.9633 H   0  0  0  0  0  0  0  0  0  0  0  0
  146.6413  133.2316  155.1531 H   0  0  0  0  0  0  0  0  0  0  0  0
  145.9179  130.9617  149.9950 H   0  0  0  0  0  0  0  0  0  0  0  0
  145.3294  132.1748  148.8798 H   0  0  0  0  0  0  0  0  0  0  0  0
  147.7084  132.0369  149.6856 H   0  0  0  0  0  0  0  0  0  0  0  0
  145.2276  134.4655  149.0622 H   0  0  0  0  0  0  0  0  0  0  0  0
  142.1066  134.1775  151.5623 H   0  0  0  0  0  0  0  0  0  0  0  0
  150.9102  137.1588  158.1382 H   0  0  0  0  0  0  0  0  0  0  0  0
  152.0021  137.9783  159.2530 H   0  0  0  0  0  0  0  0  0  0  0  0
  152.6336  137.2650  157.7695 H   0  0  0  0  0  0  0  0  0  0  0  0
  1  2  1  0  0  0  0
  1 35  1  0  0  0  0
  1 36  1  0  0  0  0
  1 37  1  0  0  0  0
  2 30  1  0  0  0  0
  2  3  2  0  0  0  0
  3  4  1  0  0  0  0
  3 38  1  0  0  0  0
  4  5  1  0  0  0  0
  4 28  2  0  0  0  0
  5  6  1  0  0  0  0
  5  7  1  0  0  0  0
  5  8  1  0  0  0  0
  6 39  1  0  0  0  0
  6 40  1  0  0  0  0
  6 41  1  0  0  0  0
  7 42  1  0  0  0  0
  8  9  1  0  0  0  0
  8 43  1  0  0  0  0
  8 44  1  0  0  0  0
  9 10  1  0  0  0  0
  9 45  1  0  0  0  0
 10 15  1  0  0  0  0
 10 11  2  0  0  0  0
 11 12  1  0  0  0  0
 12 13  2  0  0  0  0
 12 46  1  0  0  0  0
 13 14  1  0  0  0  0
 14 18  1  0  0  0  0
 14 15  2  0  0  0  0
 15 16  1  0  0  0  0
 16 17  2  0  0  0  0
 17 18  1  0  0  0  0
 17 47  1  0  0  0  0
 18 19  1  0  0  0  0
 19 31  1  0  0  0  0
 19 26  1  0  0  0  0
 19 20  1  0  0  0  0
 20 21  1  0  0  0  0
 21 32  1  0  0  0  0
 21 22  1  0  0  0  0
 21 24  1  0  0  0  0
 22 23  1  0  0  0  0
 22 48  1  0  0  0  0
 22 49  1  0  0  0  0
 23 50  1  0  0  0  0
 24 33  1  0  0  0  0
 24 25  1  0  0  0  0
 24 26  1  0  0  0  0
 25 51  1  0  0  0  0
 26 34  1  0  0  0  0
 26 27  1  0  0  0  0
 27 52  1  0  0  0  0
 28 29  1  0  0  0  0
 28 30  1  0  0  0  0
 29 53  1  0  0  0  0
 29 54  1  0  0  0  0
 29 55  1  0  0  0  0
M  END
> <s_m_source_file>
AV-unprocessed.smi

> <i_m_source_file_index>
287

> <i_lp_mmshare_version>
43012

> <i_f3d_flags>
0

> <s_epik_input>
W0NIM11jMVtjSF1jKGMobzEpW0NIM10pW0NAQF0oW0NIM10pKFtPSF0pW0NIMl1bTkhdYyhuW2NIXW4yKWMoYzIzKW5bY0hdbjNbQ0BASF00T1tDQEhdKFtDSDJdW09IXSlbQ0BASF0oW09IXSlbQ0BIXTRbT0hd

> <s_epik_cmdline>
J2VwaWtfcHl0aG9uJywgJy1waCcsICc3LjAnLCAnLXRuJywgJzgnLCAnLW1hJywgJzIwMCcsICctbWV0YWxfYmluZGluZycsICctaW1hZScsICc8aW5maWxlLm1hZT4nLCAnLW9tYWUnLCAnPG91dGZpbGUubWFlPic=

> <r_lp_tautomer_probability>
1

> <r_epik_Ionization_Penalty>
0.000992612

> <r_epik_Ionization_Penalty_Charging>
0

> <r_epik_Ionization_Penalty_Neutral>
0.000992612

> <r_epik_State_Penalty>
-0

> <r_epik_Charging_Adjusted_Penalty>
0

> <i_epik_Tot_Q>
0

> <i_epik_Tot_abs_Q>
0

> <r_epik_Metal_State_Penalty>
-0

> <b_epik_Metal_Only>
0

> <s_epik_Chemistry_Notes>
This compound contains an acetal/aminal-like group ( X-CH(R)-Y where X, Y are N, S, or O) that may be acid/base labile, releasing an aldehyde.

> <s_lp_Force_Field>
OPLS_2005

> <r_lp_Energy>
38.0531

> <b_lp_Chiralities_Consistent>
1

> <s_lp_Variant>
AV-unprocessed.smi:287-10

> <Gold.Version>
5.8.1

> <Gold.Id.Protein>
6NUR|6NUR_protein|mol2

> <Gold.PLP.Fitness>
50.7598

> <Gold.PLP.PLP>
-39.1041

> <Gold.PLP.part.hbond>
-5.7878

> <Gold.PLP.part.metal>
0.0000

> <Gold.PLP.part.buried>
-5.2596

> <Gold.PLP.part.nonpolar>
-29.8909

> <Gold.PLP.part.repulsive>
0.5909

> <Gold.PLP.ligand.clash>
0.0000

> <Gold.PLP.ligand.torsion>
1.2124

> <Gold.PLP.Chemscore.Hbond>
2.8668

> <Gold.PLP.Chemscore.CHOScore>
1.7870

> <Gold.PLP.Chemscore.Metal>
0.0000

> <Gold.Chemscore.Hbonds>
donor molecule, donor type, donor heavy atom, donor atom, acceptor molecule, acceptor atom, score
      L1  H    23    50       P1 10747  1.00
      L1  H    25    51       P1  7921  0.77
      L1  H    27    52       P1 10186  0.15
      P1  H  7989  7998       L1     7  0.88
      L1  C    12    46       P1 10171  0.39
      L1  C    12    46       P1 10175  0.64

> <Gold.PLP.Chemscore.Internal.Correction>
0.1192

> <Gold.Rescore>
     Score         DG    S(hbond)    S(metal)    S(lipo)     H(rot)  DE(clash)    DE(int)     intcor
      8.44     -11.14       2.80        0.00      83.84       5.27       0.07       2.64       ----

> <Gold.Chemscore.Fitness>
8.4361

> <Gold.Chemscore.DG>
-11.1424

> <Gold.Chemscore.ZeroCoef>
-5.4800

> <Gold.Chemscore.Hbond>
2.7954

> <Gold.Chemscore.Metal>
0.0000

> <Gold.Chemscore.Lipo>
83.8428

> <Gold.Chemscore.Internal_Hbond>
0.0000

> <Gold.Chemscore.DEClash>
0.0684

> <Gold.Chemscore.DEInternal>
2.6379

> <Gold.Chemscore.Rot>
5.2672

> <Gold.Chemscore.Internal.Correction>
   9.000000E+99

> <Gold.Chemscore.Hbonds>
donor molecule, donor type, donor heavy atom, donor atom, acceptor molecule, acceptor atom, score
      L1  H    23    50       P1 10747  0.96
      L1  H    25    51       P1  7921  0.76
      P1  H  7989  7998       L1     7  0.70

> <Gold.Chemscore.Hbond.Weighted>
-9.3367

> <Gold.Chemscore.Metal.Weighted>
-0.0000

> <Gold.Chemscore.Lipo.Weighted>
-9.8096

> <Gold.Chemscore.Internal_Hbond.Weighted>
0.0000

> <Gold.Chemscore.DEClash.Weighted>
0.0684

> <Gold.Chemscore.DEInternal.Weighted>
2.6379

> <Gold.Chemscore.Rot.Weighted>
13.4839

> <Gold.Chemscore.Internal.Correction.Weighted>
   9.000000E+99

> <Gold.Protein.RotatedTorsions>
[ 6907 6896 6895 6894 ] final -110.08 input  -60.11 | X-H torsion
[ 7974 7965 7964 7962 ] final   89.08 input  175.53 | X-H torsion
[ 8008 7997 7996 7995 ] final   50.69 input   59.86 | X-H torsion
[ 10167 10162 10161 10158 ] final   74.33 input  -65.29 | X-H torsion
[ 10718 10713 10712 10709 ] final -145.35 input   66.30 | X-H torsion
[ 10763 10752 10751 10750 ] final   13.76 input  -60.55 | X-H torsion
[ 11005 11000 10999 10996 ] final   -3.43 input  -57.11 | X-H torsion

> <Gold.Protein.ActiveResidues>
 VAL166  LYS551  ARG553  GLY616  TRP617  ASP618  TYR619  PRO620  LYS621  CYS622 
 ASP623  PHE694  ASN695  SER759  ASP760  ASP761  ALA762  ILE779  LEU786  VAL792 
 PHE793  MET794  SER795  GLU796  ALA797  LYS798  CYS799  TRP800  GLU811  SER814 

> <Gold.Protein.RotatedAtoms>
  150.7602  133.9434  159.3463 H   0  0  0  0  0  0  0  0  0  0  0  0  # atno 6907 bound_to 6896
  151.7345  135.0866  160.0315 H   0  0  0  0  0  0  0  0  0  0  0  0  # atno 6908 bound_to 6896
  152.3568  133.6210  159.6021 H   0  0  0  0  0  0  0  0  0  0  0  0  # atno 6909 bound_to 6896
  145.5371  139.2286  143.2586 H   0  0  0  0  0  0  0  0  0  0  0  0  # atno 7974 bound_to 7965
  155.4229  140.3447  155.4273 H   0  0  0  0  0  0  0  0  0  0  0  0  # atno 8008 bound_to 7997
  156.1382  140.1534  156.8992 H   0  0  0  0  0  0  0  0  0  0  0  0  # atno 8009 bound_to 7997
  154.4949  140.0830  156.7656 H   0  0  0  0  0  0  0  0  0  0  0  0  # atno 8010 bound_to 7997
  140.0149  144.5585  150.7628 H   0  0  0  0  0  0  0  0  0  0  0  0  # atno 10167 bound_to 10162
  156.3814  130.7839  151.2031 H   0  0  0  0  0  0  0  0  0  0  0  0  # atno 10718 bound_to 10713
  153.1689  135.6809  153.8636 H   0  0  0  0  0  0  0  0  0  0  0  0  # atno 10763 bound_to 10752
  153.8007  135.3156  155.3391 H   0  0  0  0  0  0  0  0  0  0  0  0  # atno 10764 bound_to 10752
  154.7984  135.4793  154.0308 H   0  0  0  0  0  0  0  0  0  0  0  0  # atno 10765 bound_to 10752
  140.6693  133.9251  155.8484 H   0  0  0  0  0  0  0  0  0  0  0  0  # atno 11005 bound_to 11000
  146.2006  140.6189  142.9104 LP  0  0  0  0  0  0  0  0  0  0  0  0  # atno 17320 bound_to 7965
  144.7596  140.5390  143.6745 LP  0  0  0  0  0  0  0  0  0  0  0  0  # atno 17321 bound_to 7965
  140.7366  143.2755  151.3754 LP  0  0  0  0  0  0  0  0  0  0  0  0  # atno 17342 bound_to 10162
  139.6179  144.0965  152.2363 LP  0  0  0  0  0  0  0  0  0  0  0  0  # atno 17343 bound_to 10162
  157.7492  131.0343  150.4311 LP  0  0  0  0  0  0  0  0  0  0  0  0  # atno 17370 bound_to 10713
  156.4555  130.4021  149.6609 LP  0  0  0  0  0  0  0  0  0  0  0  0  # atno 17371 bound_to 10713
  141.0405  134.0629  157.3908 LP  0  0  0  0  0  0  0  0  0  0  0  0  # atno 17394 bound_to 11000
  139.8987  135.0155  156.7160 LP  0  0  0  0  0  0  0  0  0  0  0  0  # atno 17395 bound_to 11000

$$$$
