AV-unprocessed.smi:2283|AV-procd|sdf|9200|dock3
  -GOLD-   2272012413D 1   1.00000     0.00000
 Structure written by MMmdl.
 37 38  0  0  0  0  0  0  0  0  1 V2000
  152.7166  142.9009  162.1884 C   0  0  0  0  0  0  0  0  0  0  0  0
  152.4660  143.5176  160.8226 C   0  0  0  0  0  0  0  0  0  0  0  0
  152.1790  144.8979  160.7483 C   0  0  0  0  0  0  0  0  0  0  0  0
  151.9547  145.5171  159.5053 C   0  0  0  0  0  0  0  0  0  0  0  0
  152.0199  144.7586  158.3238 C   0  0  0  0  0  0  0  0  0  0  0  0
  152.3032  143.3820  158.3882 C   0  0  0  0  0  0  0  0  0  0  0  0
  152.5199  142.7443  159.6321 C   0  0  0  0  0  0  0  0  0  0  0  0
  152.8317  141.2480  159.6594 C   0  0  1  0  0  0  0  0  0  0  0  0
  152.7463  140.6765  158.3683 O   0  0  0  0  0  0  0  0  0  0  0  0
  154.2475  140.9951  160.2260 C   0  0  0  0  0  0  0  0  0  0  0  0
  154.4368  139.6025  160.6696 N   0  0  0  0  0  0  0  0  0  0  0  0
  154.5770  139.4022  162.0533 C   0  0  0  0  0  0  0  0  0  0  0  0
  154.7414  138.2232  162.5570 N   0  0  0  0  0  0  0  0  0  0  0  0
  154.7821  137.1065  161.7175 C   0  0  0  0  0  0  0  0  0  0  0  0
  154.9766  135.7704  162.4123 C   0  0  0  0  0  0  0  0  0  0  0  0
  154.6534  137.2314  160.3683 C   0  0  0  0  0  0  0  0  0  0  0  0
  154.6892  136.0514  159.4051 C   0  0  0  0  0  0  0  0  0  0  0  0
  154.4675  138.5681  159.7803 C   0  0  0  0  0  0  0  0  0  0  0  0
  154.3463  138.7509  158.5676 O   0  0  0  0  0  0  0  0  0  0  0  0
  152.7514  143.6626  162.9679 H   0  0  0  0  0  0  0  0  0  0  0  0
  153.6690  142.3714  162.2025 H   0  0  0  0  0  0  0  0  0  0  0  0
  151.9214  142.1997  162.4425 H   0  0  0  0  0  0  0  0  0  0  0  0
  152.1322  145.4929  161.6487 H   0  0  0  0  0  0  0  0  0  0  0  0
  151.7373  146.5741  159.4584 H   0  0  0  0  0  0  0  0  0  0  0  0
  151.8543  145.2322  157.3672 H   0  0  0  0  0  0  0  0  0  0  0  0
  152.3563  142.8161  157.4696 H   0  0  0  0  0  0  0  0  0  0  0  0
  152.0894  140.7313  160.2659 H   0  0  0  0  0  0  0  0  0  0  0  0
  153.6147  140.6437  157.9970 H   0  0  0  0  0  0  0  0  0  0  0  0
  155.0083  141.3041  159.5068 H   0  0  0  0  0  0  0  0  0  0  0  0
  154.4095  141.6530  161.0826 H   0  0  0  0  0  0  0  0  0  0  0  0
  154.5342  140.3052  162.6645 H   0  0  0  0  0  0  0  0  0  0  0  0
  154.1332  135.1091  162.2120 H   0  0  0  0  0  0  0  0  0  0  0  0
  155.0559  135.8919  163.4933 H   0  0  0  0  0  0  0  0  0  0  0  0
  155.8898  135.2878  162.0628 H   0  0  0  0  0  0  0  0  0  0  0  0
  155.5081  136.1701  158.6948 H   0  0  0  0  0  0  0  0  0  0  0  0
  153.7570  135.9988  158.8415 H   0  0  0  0  0  0  0  0  0  0  0  0
  154.8240  135.0932  159.9037 H   0  0  0  0  0  0  0  0  0  0  0  0
  1  2  1  0  0  0  0
  1 20  1  0  0  0  0
  1 21  1  0  0  0  0
  1 22  1  0  0  0  0
  2  7  1  0  0  0  0
  2  3  2  0  0  0  0
  3  4  1  0  0  0  0
  3 23  1  0  0  0  0
  4  5  2  0  0  0  0
  4 24  1  0  0  0  0
  5  6  1  0  0  0  0
  5 25  1  0  0  0  0
  6  7  2  0  0  0  0
  6 26  1  0  0  0  0
  7  8  1  0  0  0  0
  8  9  1  0  0  0  0
  8 10  1  0  0  0  0
  8 27  1  0  0  0  0
  9 28  1  0  0  0  0
 10 11  1  0  0  0  0
 10 29  1  0  0  0  0
 10 30  1  0  0  0  0
 11 18  1  0  0  0  0
 11 12  1  0  0  0  0
 12 13  2  0  0  0  0
 12 31  1  0  0  0  0
 13 14  1  0  0  0  0
 14 15  1  0  0  0  0
 14 16  2  0  0  0  0
 15 32  1  0  0  0  0
 15 33  1  0  0  0  0
 15 34  1  0  0  0  0
 16 17  1  0  0  0  0
 16 18  1  0  0  0  0
 17 35  1  0  0  0  0
 17 36  1  0  0  0  0
 17 37  1  0  0  0  0
 18 19  2  0  0  0  0
M  END
> <s_m_source_file>
AV-unprocessed.smi

> <i_m_source_file_index>
2283

> <i_lp_mmshare_version>
43012

> <i_f3d_flags>
0

> <s_epik_input>
W0NIM11jMVtjSF1bY0hdW2NIXVtjSF1jMVtDQEhdKFtPSF0pW0NIMl1uMltjSF1uYyhbQ0gzXSljKFtDSDNdKWMyPU8=

> <s_epik_cmdline>
J2VwaWtfcHl0aG9uJywgJy1waCcsICc3LjAnLCAnLXRuJywgJzgnLCAnLW1hJywgJzIwMCcsICctbWV0YWxfYmluZGluZycsICctaW1hZScsICc8aW5maWxlLm1hZT4nLCAnLW9tYWUnLCAnPG91dGZpbGUubWFlPic=

> <r_lp_tautomer_probability>
1

> <r_epik_Ionization_Penalty>
5.07259e-05

> <r_epik_Ionization_Penalty_Charging>
7.56727e-08

> <r_epik_Ionization_Penalty_Neutral>
5.06502e-05

> <r_epik_State_Penalty>
-0

> <r_epik_Charging_Adjusted_Penalty>
7.56727e-08

> <i_epik_Tot_Q>
0

> <i_epik_Tot_abs_Q>
0

> <r_epik_Metal_State_Penalty>
-0

> <b_epik_Metal_Only>
0

> <s_lp_Force_Field>
OPLS_2005

> <r_lp_Energy>
21.1785

> <b_lp_Chiralities_Consistent>
1

> <s_lp_Variant>
AV-unprocessed.smi:2283-2

> <Gold.Version>
5.8.1

> <Gold.Id.Protein>
6NUR|6NUR_protein|mol2

> <Gold.PLP.Fitness>
47.2239

> <Gold.PLP.PLP>
-44.9716

> <Gold.PLP.part.hbond>
-1.3236

> <Gold.PLP.part.metal>
0.0000

> <Gold.PLP.part.buried>
-5.0034

> <Gold.PLP.part.nonpolar>
-38.8166

> <Gold.PLP.part.repulsive>
0.0000

> <Gold.PLP.ligand.clash>
0.3055

> <Gold.PLP.ligand.torsion>
0.2262

> <Gold.PLP.Chemscore.Hbond>
1.0000

> <Gold.PLP.Chemscore.CHOScore>
0.0000

> <Gold.PLP.Chemscore.Metal>
0.0000

> <Gold.Chemscore.Hbonds>
donor molecule, donor type, donor heavy atom, donor atom, acceptor molecule, acceptor atom, score
      P1  H  7997  8008       L1    19  1.00

> <Gold.PLP.Chemscore.Internal.Correction>
0.0102

> <Gold.Rescore>
     Score         DG    S(hbond)    S(metal)    S(lipo)     H(rot)  DE(clash)    DE(int)     intcor
     16.42     -18.44       1.00        0.00     123.97       1.91       0.09       1.94       ----

> <Gold.Chemscore.Fitness>
16.4207

> <Gold.Chemscore.DG>
-18.4422

> <Gold.Chemscore.ZeroCoef>
-5.4800

> <Gold.Chemscore.Hbond>
0.9992

> <Gold.Chemscore.Metal>
0.0000

> <Gold.Chemscore.Lipo>
123.9709

> <Gold.Chemscore.Internal_Hbond>
0.0000

> <Gold.Chemscore.DEClash>
0.0851

> <Gold.Chemscore.DEInternal>
1.9364

> <Gold.Chemscore.Rot>
1.9061

> <Gold.Chemscore.Internal.Correction>
   9.000000E+99

> <Gold.Chemscore.Hbonds>
donor molecule, donor type, donor heavy atom, donor atom, acceptor molecule, acceptor atom, score
      P1  H  7997  8008       L1    19  0.99

> <Gold.Chemscore.Hbond.Weighted>
-3.3374

> <Gold.Chemscore.Metal.Weighted>
-0.0000

> <Gold.Chemscore.Lipo.Weighted>
-14.5046

> <Gold.Chemscore.Internal_Hbond.Weighted>
0.0000

> <Gold.Chemscore.DEClash.Weighted>
0.0851

> <Gold.Chemscore.DEInternal.Weighted>
1.9364

> <Gold.Chemscore.Rot.Weighted>
4.8797

> <Gold.Chemscore.Internal.Correction.Weighted>
   9.000000E+99

> <Gold.Protein.RotatedTorsions>
[ 6907 6896 6895 6894 ] final   90.68 input  -60.11 | X-H torsion
[ 7974 7965 7964 7962 ] final -148.09 input  175.53 | X-H torsion
[ 8008 7997 7996 7995 ] final  -96.70 input   59.86 | X-H torsion
[ 10167 10162 10161 10158 ] final   88.79 input  -65.29 | X-H torsion
[ 10718 10713 10712 10709 ] final  116.06 input   66.30 | X-H torsion
[ 10763 10752 10751 10750 ] final   25.51 input  -60.55 | X-H torsion
[ 11005 11000 10999 10996 ] final -179.50 input  -57.11 | X-H torsion

> <Gold.Protein.ActiveResidues>
 VAL166  LYS551  ARG553  GLY616  TRP617  ASP618  TYR619  PRO620  LYS621  CYS622 
 ASP623  PHE694  ASN695  SER759  ASP760  ASP761  ALA762  ILE779  LEU786  VAL792 
 PHE793  MET794  SER795  GLU796  ALA797  LYS798  CYS799  TRP800  GLU811  SER814 

> <Gold.Protein.RotatedAtoms>
  152.5446  134.1774  159.8621 H   0  0  0  0  0  0  0  0  0  0  0  0  # atno 6907 bound_to 6896
  151.1779  133.4736  159.2601 H   0  0  0  0  0  0  0  0  0  0  0  0  # atno 6908 bound_to 6896
  151.1208  135.0090  159.8593 H   0  0  0  0  0  0  0  0  0  0  0  0  # atno 6909 bound_to 6896
  144.8051  140.5242  143.5680 H   0  0  0  0  0  0  0  0  0  0  0  0  # atno 7974 bound_to 7965
  154.7779  140.0469  157.1103 H   0  0  0  0  0  0  0  0  0  0  0  0  # atno 8008 bound_to 7997
  154.9741  140.3093  155.4955 H   0  0  0  0  0  0  0  0  0  0  0  0  # atno 8009 bound_to 7997
  156.2932  140.2248  156.4835 H   0  0  0  0  0  0  0  0  0  0  0  0  # atno 8010 bound_to 7997
  139.8637  144.6530  150.9028 H   0  0  0  0  0  0  0  0  0  0  0  0  # atno 10167 bound_to 10162
  157.6184  131.1020  150.7419 H   0  0  0  0  0  0  0  0  0  0  0  0  # atno 10718 bound_to 10713
  153.0687  135.6581  154.0296 H   0  0  0  0  0  0  0  0  0  0  0  0  # atno 10763 bound_to 10752
  153.9947  135.2942  155.3410 H   0  0  0  0  0  0  0  0  0  0  0  0  # atno 10764 bound_to 10752
  154.7054  135.5227  153.8656 H   0  0  0  0  0  0  0  0  0  0  0  0  # atno 10765 bound_to 10752
  140.4180  134.6632  157.4649 H   0  0  0  0  0  0  0  0  0  0  0  0  # atno 11005 bound_to 11000
  145.5457  139.1476  143.3422 LP  0  0  0  0  0  0  0  0  0  0  0  0  # atno 17320 bound_to 7965
  146.2341  140.5596  142.8962 LP  0  0  0  0  0  0  0  0  0  0  0  0  # atno 17321 bound_to 7965
  140.7771  143.3722  151.1628 LP  0  0  0  0  0  0  0  0  0  0  0  0  # atno 17342 bound_to 10162
  139.7349  143.9014  152.3031 LP  0  0  0  0  0  0  0  0  0  0  0  0  # atno 17343 bound_to 10162
  156.7782  130.4850  149.5406 LP  0  0  0  0  0  0  0  0  0  0  0  0  # atno 17370 bound_to 10713
  156.1316  130.6182  151.0342 LP  0  0  0  0  0  0  0  0  0  0  0  0  # atno 17371 bound_to 10713
  140.0220  134.6532  155.9225 LP  0  0  0  0  0  0  0  0  0  0  0  0  # atno 17394 bound_to 11000
  141.1795  133.6544  156.4963 LP  0  0  0  0  0  0  0  0  0  0  0  0  # atno 17395 bound_to 11000

$$$$
