AV-unprocessed.smi:481|AV-procd|sdf|2681|dock3
  -GOLD-   2262023103D 1   1.00000     0.00000
 Structure written by MMmdl.
 43 45  0  0  0  0  0  0  0  0  1 V2000
  148.6137  136.1082  157.9619 C   0  0  0  0  0  0  0  0  0  0  0  0
  148.5938  134.7024  157.7696 O   0  0  0  0  0  0  0  0  0  0  0  0
  149.4443  134.2483  156.7261 C   0  0  0  0  0  0  0  0  0  0  0  0
  148.8160  134.4680  155.3396 C   0  0  0  0  0  0  0  0  0  0  0  0
  148.6498  135.8877  155.0497 N   0  0  0  0  0  0  0  0  0  0  0  0
  147.5216  136.5285  154.6513 C   0  0  0  0  0  0  0  0  0  0  0  0
  146.3388  135.7960  154.4778 N   0  0  0  0  0  0  0  0  0  0  0  0
  145.1918  136.3546  154.0889 N   0  0  0  0  0  0  0  0  0  0  0  0
  144.5541  135.9535  153.0366 C   0  0  0  0  0  0  0  0  0  0  0  0
  144.8669  134.7858  152.1843 C   0  0  0  0  0  0  0  0  0  0  0  0
  146.1862  134.4636  151.7850 C   0  0  0  0  0  0  0  0  0  0  0  0
  146.4324  133.3410  150.9711 C   0  0  0  0  0  0  0  0  0  0  0  0
  145.3651  132.5218  150.5585 C   0  0  0  0  0  0  0  0  0  0  0  0
  144.0521  132.8230  150.9665 C   0  0  0  0  0  0  0  0  0  0  0  0
  143.8060  133.9467  151.7795 C   0  0  0  0  0  0  0  0  0  0  0  0
  147.6727  137.8451  154.4587 N   0  0  0  0  0  0  0  0  0  0  0  0
  149.0100  138.0559  154.7586 C   0  0  0  0  0  0  0  0  0  0  0  0
  149.6113  136.8948  155.1216 C   0  0  0  0  0  0  0  0  0  0  0  0
  151.0264  136.8248  155.5053 C   0  0  0  0  0  0  0  0  0  0  0  0
  151.5838  135.7853  155.8509 O   0  0  0  0  0  0  0  0  0  0  0  0
  151.6529  138.0252  155.4423 N   0  0  0  0  0  0  0  0  0  0  0  0
  151.1104  139.2283  155.0810 C   0  0  0  0  0  0  0  0  0  0  0  0
  151.8103  140.2408  155.0718 O   0  0  0  0  0  0  0  0  0  0  0  0
  149.7821  139.2521  154.7392 N   0  0  0  0  0  0  0  0  0  0  0  0
  149.1487  140.5129  154.3485 C   0  0  0  0  0  0  0  0  0  0  0  0
  152.6308  138.0333  155.6931 H   0  0  0  0  0  0  0  0  0  0  0  0
  147.9808  136.3659  158.8109 H   0  0  0  0  0  0  0  0  0  0  0  0
  148.2326  136.6433  157.0924 H   0  0  0  0  0  0  0  0  0  0  0  0
  149.6221  136.4633  158.1778 H   0  0  0  0  0  0  0  0  0  0  0  0
  150.4269  134.7179  156.7939 H   0  0  0  0  0  0  0  0  0  0  0  0
  149.6028  133.1807  156.8808 H   0  0  0  0  0  0  0  0  0  0  0  0
  149.4331  134.0161  154.5640 H   0  0  0  0  0  0  0  0  0  0  0  0
  147.8479  133.9742  155.2648 H   0  0  0  0  0  0  0  0  0  0  0  0
  146.3056  134.9335  155.0019 H   0  0  0  0  0  0  0  0  0  0  0  0
  143.6914  136.5464  152.7320 H   0  0  0  0  0  0  0  0  0  0  0  0
  147.0213  135.0713  152.1008 H   0  0  0  0  0  0  0  0  0  0  0  0
  147.4417  133.1071  150.6659 H   0  0  0  0  0  0  0  0  0  0  0  0
  145.5538  131.6605  149.9347 H   0  0  0  0  0  0  0  0  0  0  0  0
  143.2324  132.1923  150.6555 H   0  0  0  0  0  0  0  0  0  0  0  0
  142.7917  134.1655  152.0816 H   0  0  0  0  0  0  0  0  0  0  0  0
  149.2059  141.2372  155.1623 H   0  0  0  0  0  0  0  0  0  0  0  0
  148.0960  140.3928  154.0932 H   0  0  0  0  0  0  0  0  0  0  0  0
  149.6483  140.9388  153.4774 H   0  0  0  0  0  0  0  0  0  0  0  0
  1  2  1  0  0  0  0
  1 27  1  0  0  0  0
  1 28  1  0  0  0  0
  1 29  1  0  0  0  0
  2  3  1  0  0  0  0
  3  4  1  0  0  0  0
  3 30  1  0  0  0  0
  3 31  1  0  0  0  0
  4  5  1  0  0  0  0
  4 32  1  0  0  0  0
  4 33  1  0  0  0  0
  5 18  1  0  0  0  0
  5  6  1  0  0  0  0
  6  7  1  0  0  0  0
  6 16  2  0  0  0  0
  7  8  1  0  0  0  0
  7 34  1  0  0  0  0
  8  9  2  0  0  0  0
  9 10  1  0  0  0  0
  9 35  1  0  0  0  0
 10 15  1  0  0  0  0
 10 11  2  0  0  0  0
 11 12  1  0  0  0  0
 11 36  1  0  0  0  0
 12 13  2  0  0  0  0
 12 37  1  0  0  0  0
 13 14  1  0  0  0  0
 13 38  1  0  0  0  0
 14 15  2  0  0  0  0
 14 39  1  0  0  0  0
 15 40  1  0  0  0  0
 16 17  1  0  0  0  0
 17 24  1  0  0  0  0
 17 18  2  0  0  0  0
 18 19  1  0  0  0  0
 19 20  2  0  0  0  0
 19 21  1  0  0  0  0
 21 26  1  0  0  0  0
 21 22  1  0  0  0  0
 22 23  2  0  0  0  0
 22 24  1  0  0  0  0
 24 25  1  0  0  0  0
 25 41  1  0  0  0  0
 25 42  1  0  0  0  0
 25 43  1  0  0  0  0
M  END
> <s_m_source_file>
AV-unprocessed.smi

> <i_m_source_file_index>
481

> <i_lp_mmshare_version>
43012

> <i_f3d_flags>
0

> <s_epik_input>
W0NIM11uMWMoPU8pW25IXWMoPU8pYyhjMTIpbihbQ0gyXVtDSDJdT1tDSDNdKWMobjIpW05IXS9OPVtDSF0vYzNbY0hdW2NIXVtjSF1bY0hdW2NIXTM=

> <s_epik_cmdline>
J2VwaWtfcHl0aG9uJywgJy1waCcsICc3LjAnLCAnLXRuJywgJzgnLCAnLW1hJywgJzIwMCcsICctbWV0YWxfYmluZGluZycsICctaW1hZScsICc8aW5maWxlLm1hZT4nLCAnLW9tYWUnLCAnPG91dGZpbGUubWFlPic=

> <r_epik_Ionization_Penalty>
0.000595515

> <r_epik_Ionization_Penalty_Charging>
0.000305988

> <r_epik_Ionization_Penalty_Neutral>
0.000289528

> <r_epik_State_Penalty>
0.000184189

> <r_epik_Charging_Adjusted_Penalty>
0.000490177

> <i_epik_Tot_Q>
0

> <i_epik_Tot_abs_Q>
0

> <r_epik_Metal_State_Penalty>
0.173754

> <b_epik_Metal_Only>
0

> <s_epik_Chemistry_Notes>
This compound has an imine and may undergo hydrolysis.

> <s_lp_Force_Field>
OPLS_2005

> <r_lp_Energy>
46.456

> <b_lp_Chiralities_Consistent>
1

> <s_lp_Variant>
AV-unprocessed.smi:481-2

> <Gold.Version>
5.8.1

> <Gold.Id.Protein>
6NUR|6NUR_protein|mol2

> <Gold.PLP.Fitness>
36.0869

> <Gold.PLP.PLP>
-31.4272

> <Gold.PLP.part.hbond>
-2.0000

> <Gold.PLP.part.metal>
0.0000

> <Gold.PLP.part.buried>
-4.0929

> <Gold.PLP.part.nonpolar>
-25.5693

> <Gold.PLP.part.repulsive>
0.3682

> <Gold.PLP.ligand.clash>
0.0000

> <Gold.PLP.ligand.torsion>
0.7674

> <Gold.PLP.Chemscore.Hbond>
1.8800

> <Gold.PLP.Chemscore.CHOScore>
0.0000

> <Gold.PLP.Chemscore.Metal>
0.0000

> <Gold.Chemscore.Hbonds>
donor molecule, donor type, donor heavy atom, donor atom, acceptor molecule, acceptor atom, score
      P1  H  7989  7998       L1    23  0.86
      P1  H 10752 10764       L1    20  1.00

> <Gold.PLP.Chemscore.Internal.Correction>
0.5544

> <Gold.Rescore>
     Score         DG    S(hbond)    S(metal)    S(lipo)     H(rot)  DE(clash)    DE(int)     intcor
     10.47     -14.74       1.77        0.00      62.35       1.54       0.07       4.19       ----

> <Gold.Chemscore.Fitness>
10.4728

> <Gold.Chemscore.DG>
-14.7401

> <Gold.Chemscore.ZeroCoef>
-5.4800

> <Gold.Chemscore.Hbond>
1.7693

> <Gold.Chemscore.Metal>
0.0000

> <Gold.Chemscore.Lipo>
62.3461

> <Gold.Chemscore.Internal_Hbond>
0.0000

> <Gold.Chemscore.DEClash>
0.0745

> <Gold.Chemscore.DEInternal>
4.1928

> <Gold.Chemscore.Rot>
1.5406

> <Gold.Chemscore.Internal.Correction>
   9.000000E+99

> <Gold.Chemscore.Hbonds>
donor molecule, donor type, donor heavy atom, donor atom, acceptor molecule, acceptor atom, score
      P1  H  7989  7998       L1    23  0.47
      P1  H 10752 10764       L1    20  0.65

> <Gold.Chemscore.Hbond.Weighted>
-5.9095

> <Gold.Chemscore.Metal.Weighted>
-0.0000

> <Gold.Chemscore.Lipo.Weighted>
-7.2945

> <Gold.Chemscore.Internal_Hbond.Weighted>
0.0000

> <Gold.Chemscore.DEClash.Weighted>
0.0745

> <Gold.Chemscore.DEInternal.Weighted>
4.1928

> <Gold.Chemscore.Rot.Weighted>
3.9440

> <Gold.Chemscore.Internal.Correction.Weighted>
   9.000000E+99

> <Gold.Protein.RotatedTorsions>
[ 6907 6896 6895 6894 ] final  158.82 input  -60.11 | X-H torsion
[ 7974 7965 7964 7962 ] final    1.77 input  175.53 | X-H torsion
[ 8008 7997 7996 7995 ] final -143.26 input   59.86 | X-H torsion
[ 10167 10162 10161 10158 ] final  176.59 input  -65.29 | X-H torsion
[ 10718 10713 10712 10709 ] final   58.64 input   66.30 | X-H torsion
[ 10763 10752 10751 10750 ] final  -48.43 input  -60.55 | X-H torsion
[ 11005 11000 10999 10996 ] final  110.84 input  -57.11 | X-H torsion

> <Gold.Protein.ActiveResidues>
 VAL166  LYS551  ARG553  GLY616  TRP617  ASP618  TYR619  PRO620  LYS621  CYS622 
 ASP623  PHE694  ASN695  SER759  ASP760  ASP761  ALA762  ILE779  LEU786  VAL792 
 PHE793  MET794  SER795  GLU796  ALA797  LYS798  CYS799  TRP800  GLU811  SER814 

> <Gold.Protein.RotatedAtoms>
  151.9947  133.3803  159.4157 H   0  0  0  0  0  0  0  0  0  0  0  0  # atno 6907 bound_to 6896
  150.6917  134.3898  159.5081 H   0  0  0  0  0  0  0  0  0  0  0  0  # atno 6908 bound_to 6896
  152.1637  134.8891  160.0590 H   0  0  0  0  0  0  0  0  0  0  0  0  # atno 6909 bound_to 6896
  146.2441  140.0937  142.8351 H   0  0  0  0  0  0  0  0  0  0  0  0  # atno 7974 bound_to 7965
  155.5077  140.0581  157.2928 H   0  0  0  0  0  0  0  0  0  0  0  0  # atno 8008 bound_to 7997
  154.4563  140.1974  156.0319 H   0  0  0  0  0  0  0  0  0  0  0  0  # atno 8009 bound_to 7997
  156.0805  140.3247  155.7692 H   0  0  0  0  0  0  0  0  0  0  0  0  # atno 8010 bound_to 7997
  139.5220  144.2898  152.0474 H   0  0  0  0  0  0  0  0  0  0  0  0  # atno 10167 bound_to 10162
  157.5612  130.8837  149.9115 H   0  0  0  0  0  0  0  0  0  0  0  0  # atno 10718 bound_to 10713
  154.0776  135.6596  153.4833 H   0  0  0  0  0  0  0  0  0  0  0  0  # atno 10763 bound_to 10752
  153.0367  135.5172  154.7505 H   0  0  0  0  0  0  0  0  0  0  0  0  # atno 10764 bound_to 10752
  154.6590  135.3012  154.9858 H   0  0  0  0  0  0  0  0  0  0  0  0  # atno 10765 bound_to 10752
  139.8890  134.9494  156.6341 H   0  0  0  0  0  0  0  0  0  0  0  0  # atno 11005 bound_to 11000
  145.0628  140.9100  143.4928 LP  0  0  0  0  0  0  0  0  0  0  0  0  # atno 17320 bound_to 7965
  145.1056  139.2792  143.5664 LP  0  0  0  0  0  0  0  0  0  0  0  0  # atno 17321 bound_to 7965
  140.2349  144.4330  150.6284 LP  0  0  0  0  0  0  0  0  0  0  0  0  # atno 17342 bound_to 10162
  140.6330  143.2190  151.6455 LP  0  0  0  0  0  0  0  0  0  0  0  0  # atno 17343 bound_to 10162
  156.0665  130.3691  150.0868 LP  0  0  0  0  0  0  0  0  0  0  0  0  # atno 17370 bound_to 10713
  156.9031  130.9627  151.3573 LP  0  0  0  0  0  0  0  0  0  0  0  0  # atno 17371 bound_to 10713
  140.7644  133.8790  155.8443 LP  0  0  0  0  0  0  0  0  0  0  0  0  # atno 17394 bound_to 11000
  140.9895  134.1298  157.4421 LP  0  0  0  0  0  0  0  0  0  0  0  0  # atno 17395 bound_to 11000

$$$$
