AV-unprocessed.smi:2060|AV-procd|sdf|8354|dock9
  -GOLD-   2272011 23D 1   1.00000     0.00000
 Structure written by MMmdl.
 45 46  0  0  0  0  0  0  0  0  1 V2000
  147.1490  142.5745  153.7943 C   0  0  0  0  0  0  0  0  0  0  0  0
  146.5295  141.3478  154.4887 C   0  0  0  0  0  0  0  0  0  0  0  0
  147.1504  139.9673  154.1030 C   0  0  1  0  0  0  0  0  0  0  0  0
  146.4869  138.9149  155.0318 C   0  0  0  0  0  0  0  0  0  0  0  0
  146.7565  139.6483  152.6234 C   0  0  0  0  0  0  0  0  0  0  0  0
  146.8657  138.2328  152.2693 N   0  0  0  0  0  0  0  0  0  0  0  0
  145.8611  137.3443  152.2679 C   0  0  0  0  0  0  0  0  0  0  0  0
  144.7027  137.6265  152.5739 O   0  0  0  0  0  0  0  0  0  0  0  0
  146.2914  136.1294  151.8885 N   0  0  0  0  0  0  0  0  0  0  0  0
  145.5394  134.9366  151.7312 C   0  0  0  0  0  0  0  0  0  0  0  0
  145.9685  133.7474  151.0724 C   0  0  0  0  0  0  0  0  0  0  0  0
  144.8929  132.9161  151.2096 C   0  0  0  0  0  0  0  0  0  0  0  0
  144.6316  131.5152  150.7733 C   0  0  0  0  0  0  0  0  0  0  0  0
  143.8946  133.5410  151.8902 O   0  0  0  0  0  0  0  0  0  0  0  0
  144.3173  134.8338  152.2206 N   0  0  0  0  0  0  0  0  0  0  0  0
  148.6285  139.9720  154.2980 N   0  0  0  0  0  0  0  0  0  0  0  0
  149.2874  138.6727  154.1173 C   0  0  0  0  0  0  0  0  0  0  0  0
  150.8194  138.7872  154.1907 C   0  0  0  0  0  0  0  0  0  0  0  0
  151.1977  139.3704  155.4317 O   0  0  0  0  0  0  0  0  0  0  0  0
  150.6248  140.6582  155.6235 C   0  0  0  0  0  0  0  0  0  0  0  0
  149.0910  140.5587  155.5616 C   0  0  0  0  0  0  0  0  0  0  0  0
  146.6514  143.4880  154.1200 H   0  0  0  0  0  0  0  0  0  0  0  0
  147.0504  142.5213  152.7101 H   0  0  0  0  0  0  0  0  0  0  0  0
  148.2072  142.6820  154.0301 H   0  0  0  0  0  0  0  0  0  0  0  0
  146.6162  141.5070  155.5640 H   0  0  0  0  0  0  0  0  0  0  0  0
  145.4557  141.3453  154.3017 H   0  0  0  0  0  0  0  0  0  0  0  0
  145.4070  139.0492  155.0985 H   0  0  0  0  0  0  0  0  0  0  0  0
  146.8788  138.9688  156.0479 H   0  0  0  0  0  0  0  0  0  0  0  0
  146.6482  137.8973  154.6756 H   0  0  0  0  0  0  0  0  0  0  0  0
  145.7173  139.9198  152.4409 H   0  0  0  0  0  0  0  0  0  0  0  0
  147.3426  140.2447  151.9240 H   0  0  0  0  0  0  0  0  0  0  0  0
  147.7834  137.9071  152.0028 H   0  0  0  0  0  0  0  0  0  0  0  0
  147.2756  136.0478  151.6801 H   0  0  0  0  0  0  0  0  0  0  0  0
  146.9027  133.5230  150.5807 H   0  0  0  0  0  0  0  0  0  0  0  0
  145.4053  131.1704  150.0871 H   0  0  0  0  0  0  0  0  0  0  0  0
  143.6706  131.4402  150.2643 H   0  0  0  0  0  0  0  0  0  0  0  0
  144.6151  130.8419  151.6304 H   0  0  0  0  0  0  0  0  0  0  0  0
  148.9559  137.9712  154.8827 H   0  0  0  0  0  0  0  0  0  0  0  0
  149.0316  138.2345  153.1546 H   0  0  0  0  0  0  0  0  0  0  0  0
  151.2770  137.8012  154.1075 H   0  0  0  0  0  0  0  0  0  0  0  0
  151.2018  139.3885  153.3645 H   0  0  0  0  0  0  0  0  0  0  0  0
  150.9399  141.0473  156.5917 H   0  0  0  0  0  0  0  0  0  0  0  0
  150.9975  141.3479  154.8647 H   0  0  0  0  0  0  0  0  0  0  0  0
  148.6891  141.5614  155.6966 H   0  0  0  0  0  0  0  0  0  0  0  0
  148.7463  139.9622  156.4059 H   0  0  0  0  0  0  0  0  0  0  0  0
  1  2  1  0  0  0  0
  1 22  1  0  0  0  0
  1 23  1  0  0  0  0
  1 24  1  0  0  0  0
  2  3  1  0  0  0  0
  2 25  1  0  0  0  0
  2 26  1  0  0  0  0
  3  4  1  0  0  0  0
  3  5  1  0  0  0  0
  3 16  1  0  0  0  0
  4 27  1  0  0  0  0
  4 28  1  0  0  0  0
  4 29  1  0  0  0  0
  5  6  1  0  0  0  0
  5 30  1  0  0  0  0
  5 31  1  0  0  0  0
  6  7  1  0  0  0  0
  6 32  1  0  0  0  0
  7  8  2  0  0  0  0
  7  9  1  0  0  0  0
  9 10  1  0  0  0  0
  9 33  1  0  0  0  0
 10 15  2  0  0  0  0
 10 11  1  0  0  0  0
 11 12  2  0  0  0  0
 11 34  1  0  0  0  0
 12 13  1  0  0  0  0
 12 14  1  0  0  0  0
 13 35  1  0  0  0  0
 13 36  1  0  0  0  0
 13 37  1  0  0  0  0
 14 15  1  0  0  0  0
 16 21  1  0  0  0  0
 16 17  1  0  0  0  0
 17 18  1  0  0  0  0
 17 38  1  0  0  0  0
 17 39  1  0  0  0  0
 18 19  1  0  0  0  0
 18 40  1  0  0  0  0
 18 41  1  0  0  0  0
 19 20  1  0  0  0  0
 20 21  1  0  0  0  0
 20 42  1  0  0  0  0
 20 43  1  0  0  0  0
 21 44  1  0  0  0  0
 21 45  1  0  0  0  0
M  END
> <s_m_source_file>
AV-unprocessed.smi

> <i_m_source_file_index>
2060

> <i_lp_mmshare_version>
43012

> <i_f3d_flags>
0

> <s_epik_input>
W0NIMl0xW0NIMl1PW0NIMl1bQ0gyXU4xW0NAQF0oW0NIM10pKFtDSDJdW0NIM10pW0NIMl1bTkhdQyg9TylbTkhdYzJbY0hdYyhbQ0gzXSlvbjI=

> <s_epik_cmdline>
J2VwaWtfcHl0aG9uJywgJy1waCcsICc3LjAnLCAnLXRuJywgJzgnLCAnLW1hJywgJzIwMCcsICctbWV0YWxfYmluZGluZycsICctaW1hZScsICc8aW5maWxlLm1hZT4nLCAnLW9tYWUnLCAnPG91dGZpbGUubWFlPic=

> <r_epik_Ionization_Penalty>
0.289127

> <r_epik_Ionization_Penalty_Charging>
0

> <r_epik_Ionization_Penalty_Neutral>
0.289127

> <r_epik_State_Penalty>
0.282056

> <r_epik_Charging_Adjusted_Penalty>
0.282056

> <i_epik_Tot_Q>
0

> <i_epik_Tot_abs_Q>
0

> <r_epik_Metal_State_Penalty>
0.284526

> <b_epik_Metal_Only>
0

> <s_lp_Force_Field>
OPLS_2005

> <r_lp_Energy>
41.8264

> <b_lp_Chiralities_Consistent>
1

> <s_lp_Variant>
AV-unprocessed.smi:2060-1

> <Gold.Version>
5.8.1

> <Gold.Id.Protein>
6NUR|6NUR_protein|mol2

> <Gold.PLP.Fitness>
36.1087

> <Gold.PLP.PLP>
-31.6480

> <Gold.PLP.part.hbond>
-2.0000

> <Gold.PLP.part.metal>
0.0000

> <Gold.PLP.part.buried>
-5.7741

> <Gold.PLP.part.nonpolar>
-24.7123

> <Gold.PLP.part.repulsive>
1.3716

> <Gold.PLP.ligand.clash>
0.0000

> <Gold.PLP.ligand.torsion>
0.6263

> <Gold.PLP.Chemscore.Hbond>
1.8640

> <Gold.PLP.Chemscore.CHOScore>
0.0000

> <Gold.PLP.Chemscore.Metal>
0.0000

> <Gold.Chemscore.Hbonds>
donor molecule, donor type, donor heavy atom, donor atom, acceptor molecule, acceptor atom, score
      L1  H     6    32       P1  7948  0.88
      L1  H     9    33       P1  7948  1.00

> <Gold.PLP.Chemscore.Internal.Correction>
0.1214

> <Gold.Rescore>
     Score         DG    S(hbond)    S(metal)    S(lipo)     H(rot)  DE(clash)    DE(int)     intcor
     12.98     -16.29       1.93        0.00      74.85       1.71       0.64       2.67       ----

> <Gold.Chemscore.Fitness>
12.9831

> <Gold.Chemscore.DG>
-16.2883

> <Gold.Chemscore.ZeroCoef>
-5.4800

> <Gold.Chemscore.Hbond>
1.9279

> <Gold.Chemscore.Metal>
0.0000

> <Gold.Chemscore.Lipo>
74.8522

> <Gold.Chemscore.Internal_Hbond>
0.0000

> <Gold.Chemscore.DEClash>
0.6389

> <Gold.Chemscore.DEInternal>
2.6663

> <Gold.Chemscore.Rot>
1.7143

> <Gold.Chemscore.Internal.Correction>
   9.000000E+99

> <Gold.Chemscore.Hbonds>
donor molecule, donor type, donor heavy atom, donor atom, acceptor molecule, acceptor atom, score
      L1  H     6    32       P1  7948  0.82
      L1  H     9    33       P1  7948  1.00

> <Gold.Chemscore.Hbond.Weighted>
-6.4391

> <Gold.Chemscore.Metal.Weighted>
-0.0000

> <Gold.Chemscore.Lipo.Weighted>
-8.7577

> <Gold.Chemscore.Internal_Hbond.Weighted>
0.0000

> <Gold.Chemscore.DEClash.Weighted>
0.6389

> <Gold.Chemscore.DEInternal.Weighted>
2.6663

> <Gold.Chemscore.Rot.Weighted>
4.3885

> <Gold.Chemscore.Internal.Correction.Weighted>
   9.000000E+99

> <Gold.Protein.RotatedTorsions>
[ 6907 6896 6895 6894 ] final   -9.10 input  -60.11 | X-H torsion
[ 7974 7965 7964 7962 ] final   23.24 input  175.53 | X-H torsion
[ 8008 7997 7996 7995 ] final  -39.79 input   59.86 | X-H torsion
[ 10167 10162 10161 10158 ] final  -71.16 input  -65.29 | X-H torsion
[ 10718 10713 10712 10709 ] final  -75.22 input   66.30 | X-H torsion
[ 10763 10752 10751 10750 ] final  -92.84 input  -60.55 | X-H torsion
[ 11005 11000 10999 10996 ] final   85.84 input  -57.11 | X-H torsion

> <Gold.Protein.ActiveResidues>
 VAL166  LYS551  ARG553  GLY616  TRP617  ASP618  TYR619  PRO620  LYS621  CYS622 
 ASP623  PHE694  ASN695  SER759  ASP760  ASP761  ALA762  ILE779  LEU786  VAL792 
 PHE793  MET794  SER795  GLU796  ALA797  LYS798  CYS799  TRP800  GLU811  SER814 

> <Gold.Protein.RotatedAtoms>
  151.4231  135.1000  159.9619 H   0  0  0  0  0  0  0  0  0  0  0  0  # atno 6907 bound_to 6896
  152.4982  133.8689  159.7298 H   0  0  0  0  0  0  0  0  0  0  0  0  # atno 6908 bound_to 6896
  150.9209  133.6824  159.2860 H   0  0  0  0  0  0  0  0  0  0  0  0  # atno 6909 bound_to 6896
  146.1993  139.7772  142.8773 H   0  0  0  0  0  0  0  0  0  0  0  0  # atno 7974 bound_to 7965
  154.4019  140.1542  156.2920 H   0  0  0  0  0  0  0  0  0  0  0  0  # atno 8008 bound_to 7997
  155.8777  140.3445  155.5843 H   0  0  0  0  0  0  0  0  0  0  0  0  # atno 8009 bound_to 7997
  155.7703  140.0829  157.2102 H   0  0  0  0  0  0  0  0  0  0  0  0  # atno 8010 bound_to 7997
  140.5295  143.2323  151.7287 H   0  0  0  0  0  0  0  0  0  0  0  0  # atno 10167 bound_to 10162
  156.0215  130.4435  150.3010 H   0  0  0  0  0  0  0  0  0  0  0  0  # atno 10718 bound_to 10713
  154.6901  135.5216  153.8380 H   0  0  0  0  0  0  0  0  0  0  0  0  # atno 10763 bound_to 10752
  153.0626  135.6573  154.0438 H   0  0  0  0  0  0  0  0  0  0  0  0  # atno 10764 bound_to 10752
  154.0313  135.2985  155.3348 H   0  0  0  0  0  0  0  0  0  0  0  0  # atno 10765 bound_to 10752
  139.8960  134.8314  156.2638 H   0  0  0  0  0  0  0  0  0  0  0  0  # atno 11005 bound_to 11000
  145.3538  141.0313  143.3323 LP  0  0  0  0  0  0  0  0  0  0  0  0  # atno 17320 bound_to 7965
  144.8648  139.5124  143.6795 LP  0  0  0  0  0  0  0  0  0  0  0  0  # atno 17321 bound_to 7965
  139.4949  144.4135  152.0055 LP  0  0  0  0  0  0  0  0  0  0  0  0  # atno 17342 bound_to 10162
  140.3236  144.3399  150.6003 LP  0  0  0  0  0  0  0  0  0  0  0  0  # atno 17343 bound_to 10162
  157.1113  131.0222  151.3047 LP  0  0  0  0  0  0  0  0  0  0  0  0  # atno 17370 bound_to 10713
  157.4702  130.7704  149.7317 LP  0  0  0  0  0  0  0  0  0  0  0  0  # atno 17371 bound_to 10713
  141.0145  133.7076  156.1166 LP  0  0  0  0  0  0  0  0  0  0  0  0  # atno 17394 bound_to 11000
  140.7321  134.4243  157.5565 LP  0  0  0  0  0  0  0  0  0  0  0  0  # atno 17395 bound_to 11000

$$$$
