AV-unprocessed.smi:2772|AV-procd|sdf|10665|dock5
  -GOLD-   2272015113D 1   1.00000     0.00000
 Structure written by MMmdl.
 55 57  0  0  0  0  0  0  0  0  3 V2000
  151.1489  142.0336  156.2596 C   0  0  0  0  0  0  0  0  0  0  0  0
  150.2759  141.0491  155.5100 C   0  0  0  0  0  0  0  0  0  0  0  0
  148.8855  141.2546  155.3949 C   0  0  0  0  0  0  0  0  0  0  0  0
  148.1213  140.3068  154.6871 C   0  0  0  0  0  0  0  0  0  0  0  0
  148.7740  139.1825  154.1263 C   0  0  0  0  0  0  0  0  0  0  0  0
  148.1184  138.1712  153.3739 N   0  0  0  0  0  0  0  0  0  0  0  0
  146.8231  138.0983  153.0231 C   0  0  0  0  0  0  0  0  0  0  0  0
  145.9532  138.9088  153.3407 O   0  0  0  0  0  0  0  0  0  0  0  0
  146.5845  137.0029  152.2873 N   0  0  0  0  0  0  0  0  0  0  0  0
  145.2886  136.6053  151.7428 C   0  0  2  0  0  0  0  0  0  0  0  0
  144.4075  136.0148  152.8596 C   0  0  0  0  0  0  0  0  0  0  0  0
  143.1068  135.4179  152.2873 C   0  0  0  0  0  0  0  0  0  0  0  0
  143.3800  134.3840  151.2475 N   0  3  2  0  0  0  0  0  0  0  0  0
  143.9397  133.0858  151.7620 C   0  0  2  0  0  0  0  0  0  0  0  0
  145.2883  133.2783  152.5017 C   0  0  0  0  0  0  0  0  0  0  0  0
  145.9068  131.9462  152.9594 C   0  0  0  0  0  0  0  0  0  0  0  0
  146.0921  131.0219  151.8176 N   0  3  1  0  0  0  0  0  0  0  0  0
  146.7981  129.7811  152.2041 C   0  0  0  0  0  0  0  0  0  0  0  0
  144.8086  130.7519  151.1307 C   0  0  0  0  0  0  0  0  0  0  0  0
  144.1630  132.0541  150.6268 C   0  0  0  0  0  0  0  0  0  0  0  0
  144.1421  135.0116  150.1296 C   0  0  0  0  0  0  0  0  0  0  0  0
  145.4902  135.5847  150.6075 C   0  0  0  0  0  0  0  0  0  0  0  0
  150.1719  139.0846  154.2903 C   0  0  0  0  0  0  0  0  0  0  0  0
  150.9117  139.9882  154.9679 N   0  0  0  0  0  0  0  0  0  0  0  0
  150.5600  142.8558  156.6670 H   0  0  0  0  0  0  0  0  0  0  0  0
  151.9043  142.4533  155.5947 H   0  0  0  0  0  0  0  0  0  0  0  0
  151.6569  141.5369  157.0867 H   0  0  0  0  0  0  0  0  0  0  0  0
  148.4119  142.1207  155.8332 H   0  0  0  0  0  0  0  0  0  0  0  0
  147.0604  140.4688  154.5770 H   0  0  0  0  0  0  0  0  0  0  0  0
  148.6959  137.3849  153.1143 H   0  0  0  0  0  0  0  0  0  0  0  0
  147.3659  136.3961  152.0865 H   0  0  0  0  0  0  0  0  0  0  0  0
  144.7674  137.4686  151.3248 H   0  0  0  0  0  0  0  0  0  0  0  0
  144.9563  135.2510  153.4116 H   0  0  0  0  0  0  0  0  0  0  0  0
  144.1641  136.7930  153.5839 H   0  0  0  0  0  0  0  0  0  0  0  0
  142.4655  135.0447  153.0827 H   0  0  0  0  0  0  0  0  0  0  0  0
  142.5271  136.2179  151.8241 H   0  0  0  0  0  0  0  0  0  0  0  0
  143.2319  132.6545  152.4700 H   0  0  0  0  0  0  0  0  0  0  0  0
  145.9936  133.8049  151.8570 H   0  0  0  0  0  0  0  0  0  0  0  0
  145.1620  133.8886  153.3946 H   0  0  0  0  0  0  0  0  0  0  0  0
  146.8706  132.1372  153.4334 H   0  0  0  0  0  0  0  0  0  0  0  0
  145.2719  131.4757  153.7122 H   0  0  0  0  0  0  0  0  0  0  0  0
  146.2171  129.2077  152.9278 H   0  0  0  0  0  0  0  0  0  0  0  0
  147.7669  130.0119  152.6484 H   0  0  0  0  0  0  0  0  0  0  0  0
  146.9760  129.1515  151.3316 H   0  0  0  0  0  0  0  0  0  0  0  0
  144.9809  130.0820  150.2871 H   0  0  0  0  0  0  0  0  0  0  0  0
  144.1302  130.2347  151.8116 H   0  0  0  0  0  0  0  0  0  0  0  0
  143.2205  131.7769  150.1572 H   0  0  0  0  0  0  0  0  0  0  0  0
  144.7869  132.4914  149.8458 H   0  0  0  0  0  0  0  0  0  0  0  0
  144.2805  134.3327  149.2909 H   0  0  0  0  0  0  0  0  0  0  0  0
  143.5387  135.8246  149.7231 H   0  0  0  0  0  0  0  0  0  0  0  0
  146.0007  136.0635  149.7711 H   0  0  0  0  0  0  0  0  0  0  0  0
  146.1438  134.7757  150.9360 H   0  0  0  0  0  0  0  0  0  0  0  0
  150.7158  138.2519  153.8688 H   0  0  0  0  0  0  0  0  0  0  0  0
  142.4783  134.1466  150.8585 H   0  0  0  0  0  0  0  0  0  0  0  0
  146.6885  131.4928  151.1519 H   0  0  0  0  0  0  0  0  0  0  0  0
  1  2  1  0  0  0  0
  1 25  1  0  0  0  0
  1 26  1  0  0  0  0
  1 27  1  0  0  0  0
  2 24  1  0  0  0  0
  2  3  2  0  0  0  0
  3  4  1  0  0  0  0
  3 28  1  0  0  0  0
  4  5  2  0  0  0  0
  4 29  1  0  0  0  0
  5  6  1  0  0  0  0
  5 23  1  0  0  0  0
  6  7  1  0  0  0  0
  6 30  1  0  0  0  0
  7  8  2  0  0  0  0
  7  9  1  0  0  0  0
  9 10  1  0  0  0  0
  9 31  1  0  0  0  0
 10 22  1  0  0  0  0
 10 11  1  0  0  0  0
 10 32  1  0  0  0  0
 11 12  1  0  0  0  0
 11 33  1  0  0  0  0
 11 34  1  0  0  0  0
 12 13  1  0  0  0  0
 12 35  1  0  0  0  0
 12 36  1  0  0  0  0
 13 14  1  0  0  0  0
 13 21  1  0  0  0  0
 13 54  1  0  0  0  0
 14 20  1  0  0  0  0
 14 15  1  0  0  0  0
 14 37  1  0  0  0  0
 15 16  1  0  0  0  0
 15 38  1  0  0  0  0
 15 39  1  0  0  0  0
 16 17  1  0  0  0  0
 16 40  1  0  0  0  0
 16 41  1  0  0  0  0
 17 18  1  0  0  0  0
 17 19  1  0  0  0  0
 17 55  1  0  0  0  0
 18 42  1  0  0  0  0
 18 43  1  0  0  0  0
 18 44  1  0  0  0  0
 19 20  1  0  0  0  0
 19 45  1  0  0  0  0
 19 46  1  0  0  0  0
 20 47  1  0  0  0  0
 20 48  1  0  0  0  0
 21 22  1  0  0  0  0
 21 49  1  0  0  0  0
 21 50  1  0  0  0  0
 22 51  1  0  0  0  0
 22 52  1  0  0  0  0
 23 24  2  0  0  0  0
 23 53  1  0  0  0  0
M  CHG  1  13   1
M  CHG  1  17   1
M  END
> <s_m_source_file>
AV-unprocessed.smi

> <i_m_source_file_index>
2772

> <i_lp_mmshare_version>
43012

> <i_f3d_flags>
0

> <s_epik_input>
W0NIM11jMVtjSF1bY0hdYyhbY0hdbjEpW05IXUMoPU8pW05IXVtDSF0yW0NIMl1bQ0gyXU4oW0NIMl1bQ0gyXTIpW0NIXTNbQ0gyXVtDSDJdTihbQ0gzXSlbQ0gyXVtDSDJdMw==

> <s_epik_cmdline>
J2VwaWtfcHl0aG9uJywgJy1waCcsICc3LjAnLCAnLXRuJywgJzgnLCAnLW1hJywgJzIwMCcsICctbWV0YWxfYmluZGluZycsICctaW1hZScsICc8aW5maWxlLm1hZT4nLCAnLW9tYWUnLCAnPG91dGZpbGUubWFlPic=

> <r_epik_Ionization_Penalty>
0.196786

> <r_epik_Ionization_Penalty_Charging>
0.180787

> <r_epik_Ionization_Penalty_Neutral>
0.0159988

> <r_epik_State_Penalty>
0.163322

> <r_epik_Charging_Adjusted_Penalty>
0.344109

> <i_epik_Tot_Q>
2

> <i_epik_Tot_abs_Q>
2

> <r_epik_Metal_State_Penalty>
0.163596

> <b_epik_Metal_Only>
0

> <s_lp_Force_Field>
OPLS_2005

> <r_lp_Energy>
45.3322

> <b_lp_Chiralities_Consistent>
1

> <s_lp_Variant>
AV-unprocessed.smi:2772-2

> <Gold.Version>
5.8.1

> <Gold.Id.Protein>
6NUR|6NUR_protein|mol2

> <Gold.PLP.Fitness>
48.1055

> <Gold.PLP.PLP>
-38.5147

> <Gold.PLP.part.hbond>
-4.3851

> <Gold.PLP.part.metal>
0.0000

> <Gold.PLP.part.buried>
-4.2081

> <Gold.PLP.part.nonpolar>
-32.7053

> <Gold.PLP.part.repulsive>
2.2738

> <Gold.PLP.ligand.clash>
3.6655

> <Gold.PLP.ligand.torsion>
0.2659

> <Gold.PLP.Chemscore.Hbond>
4.5820

> <Gold.PLP.Chemscore.CHOScore>
0.0000

> <Gold.PLP.Chemscore.Metal>
0.0000

> <Gold.Chemscore.Hbonds>
donor molecule, donor type, donor heavy atom, donor atom, acceptor molecule, acceptor atom, score
      L1  H     6    30       P1  7948  0.86
      L1  H     9    31       P1  7948  0.98
      L1  H    13    54       P1 10186  2.00
      P1  H  7989  7998       L1    24  0.76

> <Gold.PLP.Chemscore.Internal.Correction>
0.0421

> <Gold.Rescore>
     Score         DG    S(hbond)    S(metal)    S(lipo)     H(rot)  DE(clash)    DE(int)     intcor
     17.87     -24.28       2.58        0.00     113.38       1.21       2.57       3.84       ----

> <Gold.Chemscore.Fitness>
17.8687

> <Gold.Chemscore.DG>
-24.2793

> <Gold.Chemscore.ZeroCoef>
-5.4800

> <Gold.Chemscore.Hbond>
2.5837

> <Gold.Chemscore.Metal>
0.0000

> <Gold.Chemscore.Lipo>
113.3790

> <Gold.Chemscore.Internal_Hbond>
0.0000

> <Gold.Chemscore.DEClash>
2.5692

> <Gold.Chemscore.DEInternal>
3.8414

> <Gold.Chemscore.Rot>
1.2092

> <Gold.Chemscore.Internal.Correction>
   9.000000E+99

> <Gold.Chemscore.Hbonds>
donor molecule, donor type, donor heavy atom, donor atom, acceptor molecule, acceptor atom, score
      L1  H     6    30       P1  7948  0.85
      L1  H     9    31       P1  7948  0.92
      L1  H    13    54       P1 10186  0.37
      P1  H  7989  7998       L1    24  0.03

> <Gold.Chemscore.Hbond.Weighted>
-8.6294

> <Gold.Chemscore.Metal.Weighted>
-0.0000

> <Gold.Chemscore.Lipo.Weighted>
-13.2653

> <Gold.Chemscore.Internal_Hbond.Weighted>
0.0000

> <Gold.Chemscore.DEClash.Weighted>
2.5692

> <Gold.Chemscore.DEInternal.Weighted>
3.8414

> <Gold.Chemscore.Rot.Weighted>
3.0955

> <Gold.Chemscore.Internal.Correction.Weighted>
   9.000000E+99

> <Gold.Protein.RotatedTorsions>
[ 6907 6896 6895 6894 ] final  149.93 input  -60.11 | X-H torsion
[ 7974 7965 7964 7962 ] final    0.55 input  175.53 | X-H torsion
[ 8008 7997 7996 7995 ] final  163.83 input   59.86 | X-H torsion
[ 10167 10162 10161 10158 ] final -139.31 input  -65.29 | X-H torsion
[ 10718 10713 10712 10709 ] final -172.17 input   66.30 | X-H torsion
[ 10763 10752 10751 10750 ] final -117.56 input  -60.55 | X-H torsion
[ 11005 11000 10999 10996 ] final -103.27 input  -57.11 | X-H torsion

> <Gold.Protein.ActiveResidues>
 VAL166  LYS551  ARG553  GLY616  TRP617  ASP618  TYR619  PRO620  LYS621  CYS622 
 ASP623  PHE694  ASN695  SER759  ASP760  ASP761  ALA762  ILE779  LEU786  VAL792 
 PHE793  MET794  SER795  GLU796  ALA797  LYS798  CYS799  TRP800  GLU811  SER814 

> <Gold.Protein.RotatedAtoms>
  152.1213  133.4355  159.4676 H   0  0  0  0  0  0  0  0  0  0  0  0  # atno 6907 bound_to 6896
  150.6872  134.2531  159.4528 H   0  0  0  0  0  0  0  0  0  0  0  0  # atno 6908 bound_to 6896
  152.0408  134.9712  160.0624 H   0  0  0  0  0  0  0  0  0  0  0  0  # atno 6909 bound_to 6896
  146.2435  140.1121  142.8343 H   0  0  0  0  0  0  0  0  0  0  0  0  # atno 7974 bound_to 7965
  156.1926  140.1713  156.8061 H   0  0  0  0  0  0  0  0  0  0  0  0  # atno 8008 bound_to 7997
  154.5490  140.0721  156.8669 H   0  0  0  0  0  0  0  0  0  0  0  0  # atno 8009 bound_to 7997
  155.3065  140.3365  155.4248 H   0  0  0  0  0  0  0  0  0  0  0  0  # atno 8010 bound_to 7997
  139.8392  143.7345  152.2664 H   0  0  0  0  0  0  0  0  0  0  0  0  # atno 10167 bound_to 10162
  156.7516  130.9380  151.3115 H   0  0  0  0  0  0  0  0  0  0  0  0  # atno 10718 bound_to 10713
  154.8559  135.4305  154.2000 H   0  0  0  0  0  0  0  0  0  0  0  0  # atno 10763 bound_to 10752
  153.3049  135.6971  153.7175 H   0  0  0  0  0  0  0  0  0  0  0  0  # atno 10764 bound_to 10752
  153.6290  135.3488  155.3010 H   0  0  0  0  0  0  0  0  0  0  0  0  # atno 10765 bound_to 10752
  141.1153  133.8626  157.1465 H   0  0  0  0  0  0  0  0  0  0  0  0  # atno 11005 bound_to 11000
  145.0478  140.8994  143.5014 LP  0  0  0  0  0  0  0  0  0  0  0  0  # atno 17320 bound_to 7965
  145.1214  139.2691  143.5587 LP  0  0  0  0  0  0  0  0  0  0  0  0  # atno 17321 bound_to 7965
  139.7576  144.7516  151.0411 LP  0  0  0  0  0  0  0  0  0  0  0  0  # atno 17342 bound_to 10162
  140.7800  143.4787  151.0047 LP  0  0  0  0  0  0  0  0  0  0  0  0  # atno 17343 bound_to 10162
  157.6774  130.9108  150.0184 LP  0  0  0  0  0  0  0  0  0  0  0  0  # atno 17370 bound_to 10713
  156.1397  130.3642  149.9601 LP  0  0  0  0  0  0  0  0  0  0  0  0  # atno 17371 bound_to 10713
  140.0071  135.0004  157.0317 LP  0  0  0  0  0  0  0  0  0  0  0  0  # atno 17394 bound_to 11000
  140.4663  134.1433  155.7197 LP  0  0  0  0  0  0  0  0  0  0  0  0  # atno 17395 bound_to 11000

$$$$
