AV-unprocessed.smi:1308|AV-procd|sdf|5442|dock7
  -GOLD-   22720 5 13D 1   1.00000     0.00000
 Structure written by MMmdl.
 44 44  0  0  0  0  0  0  0  0  2 V2000
  147.0195  136.4115  162.5278 C   0  0  0  0  0  0  0  0  0  0  0  0
  147.5223  136.5711  161.1089 C   0  0  0  0  0  0  0  0  0  0  0  0
  146.6869  136.5336  160.1418 N   0  0  0  0  0  0  0  0  0  0  0  0
  147.1489  136.6761  158.8226 C   0  0  0  0  0  0  0  0  0  0  0  0
  146.0894  136.6082  157.7367 C   0  0  0  0  0  0  0  0  0  0  0  0
  148.4735  136.8577  158.5549 C   0  0  0  0  0  0  0  0  0  0  0  0
  149.0287  137.0025  157.1366 C   0  0  0  0  0  0  0  0  0  0  0  0
  149.1980  138.4364  156.6283 C   0  0  0  0  0  0  0  0  0  0  0  0
  148.6633  138.7801  155.5744 O   0  0  0  0  0  0  0  0  0  0  0  0
  149.9318  139.2609  157.3932 N   0  0  0  0  0  0  0  0  0  0  0  0
  150.2478  140.6575  157.1060 C   0  0  2  0  0  0  0  0  0  0  0  0
  151.1836  140.7145  155.8908 C   0  0  0  0  0  0  0  0  0  0  0  0
  150.8747  141.3373  158.3389 C   0  0  0  0  0  0  0  0  0  0  0  0
  151.2863  142.8023  158.0964 C   0  0  0  0  0  0  0  0  0  0  0  0
  151.9149  143.4925  159.3237 C   0  0  0  0  0  0  0  0  0  0  0  0
  152.2079  144.9816  159.0734 C   0  0  0  0  0  0  0  0  0  0  0  0
  153.1932  142.7608  159.7598 C   0  0  0  0  0  0  0  0  0  0  0  0
  149.4041  136.8930  159.6974 C   0  0  0  0  0  0  0  0  0  0  0  0
  150.6118  137.0346  159.5096 O   0  0  0  0  0  0  0  0  0  0  0  0
  148.8777  136.7501  160.9468 N   0  5  0  0  0  0  0  0  0  0  0  0
  145.9652  136.1321  162.5422 H   0  0  0  0  0  0  0  0  0  0  0  0
  147.1339  137.3473  163.0757 H   0  0  0  0  0  0  0  0  0  0  0  0
  147.5840  135.6354  163.0458 H   0  0  0  0  0  0  0  0  0  0  0  0
  146.0249  137.5590  157.2076 H   0  0  0  0  0  0  0  0  0  0  0  0
  145.1066  136.3907  158.1566 H   0  0  0  0  0  0  0  0  0  0  0  0
  146.3255  135.8245  157.0168 H   0  0  0  0  0  0  0  0  0  0  0  0
  150.0001  136.5092  157.0939 H   0  0  0  0  0  0  0  0  0  0  0  0
  148.4123  136.4565  156.4220 H   0  0  0  0  0  0  0  0  0  0  0  0
  150.3177  138.8791  158.2454 H   0  0  0  0  0  0  0  0  0  0  0  0
  149.3396  141.2015  156.8413 H   0  0  0  0  0  0  0  0  0  0  0  0
  151.4245  141.7447  155.6281 H   0  0  0  0  0  0  0  0  0  0  0  0
  150.7205  140.2520  155.0184 H   0  0  0  0  0  0  0  0  0  0  0  0
  152.1208  140.1919  156.0860 H   0  0  0  0  0  0  0  0  0  0  0  0
  150.1738  141.2816  159.1721 H   0  0  0  0  0  0  0  0  0  0  0  0
  151.7550  140.7700  158.6430 H   0  0  0  0  0  0  0  0  0  0  0  0
  152.0040  142.8235  157.2752 H   0  0  0  0  0  0  0  0  0  0  0  0
  150.4258  143.3809  157.7586 H   0  0  0  0  0  0  0  0  0  0  0  0
  151.2067  143.4245  160.1504 H   0  0  0  0  0  0  0  0  0  0  0  0
  152.8768  145.1163  158.2229 H   0  0  0  0  0  0  0  0  0  0  0  0
  152.6817  145.4382  159.9428 H   0  0  0  0  0  0  0  0  0  0  0  0
  151.2963  145.5441  158.8741 H   0  0  0  0  0  0  0  0  0  0  0  0
  153.9501  142.7852  158.9750 H   0  0  0  0  0  0  0  0  0  0  0  0
  152.9897  141.7152  159.9928 H   0  0  0  0  0  0  0  0  0  0  0  0
  153.6234  143.2165  160.6520 H   0  0  0  0  0  0  0  0  0  0  0  0
  1  2  1  0  0  0  0
  1 21  1  0  0  0  0
  1 22  1  0  0  0  0
  1 23  1  0  0  0  0
  2 20  1  0  0  0  0
  2  3  2  0  0  0  0
  3  4  1  0  0  0  0
  4  5  1  0  0  0  0
  4  6  2  0  0  0  0
  5 24  1  0  0  0  0
  5 25  1  0  0  0  0
  5 26  1  0  0  0  0
  6  7  1  0  0  0  0
  6 18  1  0  0  0  0
  7  8  1  0  0  0  0
  7 27  1  0  0  0  0
  7 28  1  0  0  0  0
  8  9  2  0  0  0  0
  8 10  1  0  0  0  0
 10 11  1  0  0  0  0
 10 29  1  0  0  0  0
 11 12  1  0  0  0  0
 11 13  1  0  0  0  0
 11 30  1  0  0  0  0
 12 31  1  0  0  0  0
 12 32  1  0  0  0  0
 12 33  1  0  0  0  0
 13 14  1  0  0  0  0
 13 34  1  0  0  0  0
 13 35  1  0  0  0  0
 14 15  1  0  0  0  0
 14 36  1  0  0  0  0
 14 37  1  0  0  0  0
 15 16  1  0  0  0  0
 15 17  1  0  0  0  0
 15 38  1  0  0  0  0
 16 39  1  0  0  0  0
 16 40  1  0  0  0  0
 16 41  1  0  0  0  0
 17 42  1  0  0  0  0
 17 43  1  0  0  0  0
 17 44  1  0  0  0  0
 18 19  2  0  0  0  0
 18 20  1  0  0  0  0
M  CHG  1  20  -1
M  END
> <s_m_source_file>
AV-unprocessed.smi

> <i_m_source_file_index>
1308

> <i_lp_mmshare_version>
43012

> <i_f3d_flags>
0

> <s_epik_input>
W0NIM11jMW5jKFtDSDNdKWMoYyg9TylbbkhdMSlbQ0gyXUMoPU8pW05IXVtDQEhdKFtDSDNdKVtDSDJdW0NIMl1bQ0hdKFtDSDNdKVtDSDNd

> <s_epik_cmdline>
J2VwaWtfcHl0aG9uJywgJy1waCcsICc3LjAnLCAnLXRuJywgJzgnLCAnLW1hJywgJzIwMCcsICctbWV0YWxfYmluZGluZycsICctaW1hZScsICc8aW5maWxlLm1hZT4nLCAnLW9tYWUnLCAnPG91dGZpbGUubWFlPic=

> <r_lp_tautomer_probability>
0.839158

> <r_epik_Ionization_Penalty>
6.61719

> <r_epik_Ionization_Penalty_Charging>
7.20681e-08

> <r_epik_Ionization_Penalty_Neutral>
6.61719

> <r_epik_State_Penalty>
4.43758

> <r_epik_Charging_Adjusted_Penalty>
4.43758

> <i_epik_Tot_Q>
-1

> <i_epik_Tot_abs_Q>
1

> <r_epik_Metal_State_Penalty>
0.801586

> <b_epik_Metal_Only>
1

> <s_lp_Force_Field>
OPLS_2005

> <r_lp_Energy>
8.43775

> <b_lp_Chiralities_Consistent>
1

> <s_lp_Variant>
AV-unprocessed.smi:1308-5

> <Gold.Version>
5.8.1

> <Gold.Id.Protein>
6NUR|6NUR_protein|mol2

> <Gold.PLP.Fitness>
40.6602

> <Gold.PLP.PLP>
-32.5570

> <Gold.PLP.part.hbond>
-1.9735

> <Gold.PLP.part.metal>
0.0000

> <Gold.PLP.part.buried>
-3.5926

> <Gold.PLP.part.nonpolar>
-27.4941

> <Gold.PLP.part.repulsive>
0.0878

> <Gold.PLP.ligand.clash>
0.0000

> <Gold.PLP.ligand.torsion>
0.4796

> <Gold.PLP.Chemscore.Hbond>
2.9913

> <Gold.PLP.Chemscore.CHOScore>
0.0000

> <Gold.PLP.Chemscore.Metal>
0.0000

> <Gold.Chemscore.Hbonds>
donor molecule, donor type, donor heavy atom, donor atom, acceptor molecule, acceptor atom, score
      P1  H  6896  6907       L1    19  0.96
      P1  H  6931  6943       L1    20  1.88

> <Gold.PLP.Chemscore.Internal.Correction>
0.0887

> <Gold.Rescore>
     Score         DG    S(hbond)    S(metal)    S(lipo)     H(rot)  DE(clash)    DE(int)     intcor
     13.75     -14.26       1.39        0.00      77.32       1.91       0.02       0.50       ----

> <Gold.Chemscore.Fitness>
13.7478

> <Gold.Chemscore.DG>
-14.2623

> <Gold.Chemscore.ZeroCoef>
-5.4800

> <Gold.Chemscore.Hbond>
1.3862

> <Gold.Chemscore.Metal>
0.0000

> <Gold.Chemscore.Lipo>
77.3211

> <Gold.Chemscore.Internal_Hbond>
0.0000

> <Gold.Chemscore.DEClash>
0.0195

> <Gold.Chemscore.DEInternal>
0.4950

> <Gold.Chemscore.Rot>
1.9118

> <Gold.Chemscore.Internal.Correction>
   9.000000E+99

> <Gold.Chemscore.Hbonds>
donor molecule, donor type, donor heavy atom, donor atom, acceptor molecule, acceptor atom, score
      P1  H  6896  6907       L1    19  0.23
      P1  H  6931  6943       L1    20  0.16

> <Gold.Chemscore.Hbond.Weighted>
-4.6300

> <Gold.Chemscore.Metal.Weighted>
-0.0000

> <Gold.Chemscore.Lipo.Weighted>
-9.0466

> <Gold.Chemscore.Internal_Hbond.Weighted>
0.0000

> <Gold.Chemscore.DEClash.Weighted>
0.0195

> <Gold.Chemscore.DEInternal.Weighted>
0.4950

> <Gold.Chemscore.Rot.Weighted>
4.8943

> <Gold.Chemscore.Internal.Correction.Weighted>
   9.000000E+99

> <Gold.Protein.RotatedTorsions>
[ 6907 6896 6895 6894 ] final  -17.83 input  -60.11 | X-H torsion
[ 7974 7965 7964 7962 ] final   99.78 input  175.53 | X-H torsion
[ 8008 7997 7996 7995 ] final  -58.13 input   59.86 | X-H torsion
[ 10167 10162 10161 10158 ] final   52.17 input  -65.29 | X-H torsion
[ 10718 10713 10712 10709 ] final  -40.20 input   66.30 | X-H torsion
[ 10763 10752 10751 10750 ] final  121.53 input  -60.55 | X-H torsion
[ 11005 11000 10999 10996 ] final   47.84 input  -57.11 | X-H torsion

> <Gold.Protein.ActiveResidues>
 VAL166  LYS551  ARG553  GLY616  TRP617  ASP618  TYR619  PRO620  LYS621  CYS622 
 ASP623  PHE694  ASN695  SER759  ASP760  ASP761  ALA762  ILE779  LEU786  VAL792 
 PHE793  MET794  SER795  GLU796  ALA797  LYS798  CYS799  TRP800  GLU811  SER814 

> <Gold.Protein.RotatedAtoms>
  151.2874  135.0732  159.9191 H   0  0  0  0  0  0  0  0  0  0  0  0  # atno 6907 bound_to 6896
  152.5323  133.9967  159.7886 H   0  0  0  0  0  0  0  0  0  0  0  0  # atno 6908 bound_to 6896
  151.0231  133.5807  159.2699 H   0  0  0  0  0  0  0  0  0  0  0  0  # atno 6909 bound_to 6896
  145.3944  139.2357  143.3334 H   0  0  0  0  0  0  0  0  0  0  0  0  # atno 7974 bound_to 7965
  154.4296  140.1091  156.5908 H   0  0  0  0  0  0  0  0  0  0  0  0  # atno 8008 bound_to 7997
  155.6014  140.3493  155.4576 H   0  0  0  0  0  0  0  0  0  0  0  0  # atno 8009 bound_to 7997
  156.0170  140.1231  157.0385 H   0  0  0  0  0  0  0  0  0  0  0  0  # atno 8010 bound_to 7997
  140.2542  144.3445  150.6338 H   0  0  0  0  0  0  0  0  0  0  0  0  # atno 10167 bound_to 10162
  156.2840  130.4220  149.8307 H   0  0  0  0  0  0  0  0  0  0  0  0  # atno 10718 bound_to 10713
  153.6156  135.3422  155.2993 H   0  0  0  0  0  0  0  0  0  0  0  0  # atno 10763 bound_to 10752
  154.8610  135.4260  154.2262 H   0  0  0  0  0  0  0  0  0  0  0  0  # atno 10764 bound_to 10752
  153.3123  135.7032  153.7177 H   0  0  0  0  0  0  0  0  0  0  0  0  # atno 10765 bound_to 10752
  140.1243  134.4788  155.8572 H   0  0  0  0  0  0  0  0  0  0  0  0  # atno 11005 bound_to 11000
  146.2782  140.4631  142.8787 LP  0  0  0  0  0  0  0  0  0  0  0  0  # atno 17320 bound_to 7965
  144.8418  140.6868  143.6225 LP  0  0  0  0  0  0  0  0  0  0  0  0  # atno 17321 bound_to 7965
  140.6017  143.2167  151.7060 LP  0  0  0  0  0  0  0  0  0  0  0  0  # atno 17342 bound_to 10162
  139.5037  144.3783  152.0402 LP  0  0  0  0  0  0  0  0  0  0  0  0  # atno 17343 bound_to 10162
  156.5744  130.8439  151.3365 LP  0  0  0  0  0  0  0  0  0  0  0  0  # atno 17370 bound_to 10713
  157.7323  130.9713  150.1921 LP  0  0  0  0  0  0  0  0  0  0  0  0  # atno 17371 bound_to 10713
  141.2158  133.6772  156.6949 LP  0  0  0  0  0  0  0  0  0  0  0  0  # atno 17394 bound_to 11000
  140.2924  134.8230  157.4028 LP  0  0  0  0  0  0  0  0  0  0  0  0  # atno 17395 bound_to 11000

$$$$
