AV-unprocessed.smi:34|AV-procd|sdf|236|dock2
  -GOLD-   2262015573D 1   1.00000     0.00000
 Structure written by MMmdl.
 54 58  0  0  0  0  0  0  0  0  2 V2000
  149.4224  141.2471  157.1664 O   0  0  0  0  0  0  0  0  0  0  0  0
  150.5167  141.8104  157.2389 C   0  0  0  0  0  0  0  0  0  0  0  0
  151.6848  141.4391  156.6564 N   0  5  0  0  0  0  0  0  0  0  0  0
  151.8457  140.1795  156.2216 C   0  0  0  0  0  0  0  0  0  0  0  0
  152.6754  139.9145  155.1803 N   0  0  0  0  0  0  0  0  0  0  0  0
  152.8312  138.6597  154.7421 C   0  0  0  0  0  0  0  0  0  0  0  0
  152.2595  137.5371  155.1879 N   0  0  0  0  0  0  0  0  0  0  0  0
  151.4154  137.7899  156.2304 C   0  0  0  0  0  0  0  0  0  0  0  0
  151.1587  139.0740  156.7948 C   0  0  0  0  0  0  0  0  0  0  0  0
  150.2525  138.9804  157.8404 N   0  0  0  0  0  0  0  0  0  0  0  0
  150.0070  137.6727  157.8671 C   0  0  0  0  0  0  0  0  0  0  0  0
  150.6442  136.9010  156.9644 N   0  0  0  0  0  0  0  0  0  0  0  0
  150.5275  135.4169  156.8087 C   0  0  1  0  0  0  0  0  0  0  0  0
  149.5543  134.9312  157.6821 O   0  0  0  0  0  0  0  0  0  0  0  0
  148.7621  133.9268  157.0481 C   0  0  1  0  0  0  0  0  0  0  0  0
  147.3088  134.4181  156.9882 C   0  0  0  0  0  0  0  0  0  0  0  0
  146.8287  134.6297  158.3062 O   0  0  0  0  0  0  0  0  0  0  0  0
  147.1468  135.7595  158.9676 C   0  0  0  0  0  0  0  0  0  0  0  0
  147.4386  136.8188  158.4087 O   0  0  0  0  0  0  0  0  0  0  0  0
  147.1102  135.5940  160.4495 C   0  0  0  0  0  0  0  0  0  0  0  0
  146.8251  134.3216  160.9978 C   0  0  0  0  0  0  0  0  0  0  0  0
  146.7843  134.1343  162.3932 C   0  0  0  0  0  0  0  0  0  0  0  0
  147.0269  135.2175  163.2575 C   0  0  0  0  0  0  0  0  0  0  0  0
  147.3112  136.4884  162.7248 C   0  0  0  0  0  0  0  0  0  0  0  0
  147.3537  136.6775  161.3295 C   0  0  0  0  0  0  0  0  0  0  0  0
  149.3840  133.6983  155.6643 C   0  0  2  0  0  0  0  0  0  0  0  0
  150.2498  132.6852  155.7297 F   0  0  0  0  0  0  0  0  0  0  0  0
  150.1409  134.9830  155.3881 C   0  0  1  0  0  0  0  0  0  0  0  0
  149.3412  135.9168  154.6859 O   0  0  0  0  0  0  0  0  0  0  0  0
  150.6500  143.0263  158.1166 C   0  0  0  0  0  0  0  0  0  0  0  0
  149.5533  143.4450  158.9040 C   0  0  0  0  0  0  0  0  0  0  0  0
  149.6494  144.5939  159.7134 C   0  0  0  0  0  0  0  0  0  0  0  0
  150.8409  145.3427  159.7363 C   0  0  0  0  0  0  0  0  0  0  0  0
  151.9350  144.9438  158.9461 C   0  0  0  0  0  0  0  0  0  0  0  0
  151.8397  143.7949  158.1368 C   0  0  0  0  0  0  0  0  0  0  0  0
  153.5125  138.5377  153.9133 H   0  0  0  0  0  0  0  0  0  0  0  0
  149.3239  137.2494  158.5886 H   0  0  0  0  0  0  0  0  0  0  0  0
  151.4983  135.0230  157.1134 H   0  0  0  0  0  0  0  0  0  0  0  0
  148.8073  133.0175  157.6489 H   0  0  0  0  0  0  0  0  0  0  0  0
  147.2616  135.3596  156.4392 H   0  0  0  0  0  0  0  0  0  0  0  0
  146.6778  133.7007  156.4622 H   0  0  0  0  0  0  0  0  0  0  0  0
  146.6341  133.4752  160.3539 H   0  0  0  0  0  0  0  0  0  0  0  0
  146.5664  133.1578  162.8003 H   0  0  0  0  0  0  0  0  0  0  0  0
  146.9953  135.0736  164.3274 H   0  0  0  0  0  0  0  0  0  0  0  0
  147.4972  137.3208  163.3873 H   0  0  0  0  0  0  0  0  0  0  0  0
  147.5760  137.6656  160.9543 H   0  0  0  0  0  0  0  0  0  0  0  0
  148.6583  133.4412  154.8911 H   0  0  0  0  0  0  0  0  0  0  0  0
  151.0443  134.8100  154.8021 H   0  0  0  0  0  0  0  0  0  0  0  0
  149.3236  135.6718  153.7732 H   0  0  0  0  0  0  0  0  0  0  0  0
  148.6309  142.8823  158.8963 H   0  0  0  0  0  0  0  0  0  0  0  0
  148.8075  144.9007  160.3157 H   0  0  0  0  0  0  0  0  0  0  0  0
  150.9143  146.2241  160.3560 H   0  0  0  0  0  0  0  0  0  0  0  0
  152.8478  145.5206  158.9574 H   0  0  0  0  0  0  0  0  0  0  0  0
  152.6874  143.5121  157.5295 H   0  0  0  0  0  0  0  0  0  0  0  0
  1  2  2  0  0  0  0
  2  3  1  0  0  0  0
  2 30  1  0  0  0  0
  3  4  1  0  0  0  0
  4  9  1  0  0  0  0
  4  5  2  0  0  0  0
  5  6  1  0  0  0  0
  6  7  2  0  0  0  0
  6 36  1  0  0  0  0
  7  8  1  0  0  0  0
  8 12  1  0  0  0  0
  8  9  2  0  0  0  0
  9 10  1  0  0  0  0
 10 11  2  0  0  0  0
 11 12  1  0  0  0  0
 11 37  1  0  0  0  0
 12 13  1  0  0  0  0
 13 28  1  0  0  0  0
 13 14  1  0  0  0  0
 13 38  1  0  0  0  0
 14 15  1  0  0  0  0
 15 16  1  0  0  0  0
 15 26  1  0  0  0  0
 15 39  1  0  0  0  0
 16 17  1  0  0  0  0
 16 40  1  0  0  0  0
 16 41  1  0  0  0  0
 17 18  1  0  0  0  0
 18 19  2  0  0  0  0
 18 20  1  0  0  0  0
 20 25  1  0  0  0  0
 20 21  2  0  0  0  0
 21 22  1  0  0  0  0
 21 42  1  0  0  0  0
 22 23  2  0  0  0  0
 22 43  1  0  0  0  0
 23 24  1  0  0  0  0
 23 44  1  0  0  0  0
 24 25  2  0  0  0  0
 24 45  1  0  0  0  0
 25 46  1  0  0  0  0
 26 27  1  0  0  0  0
 26 28  1  0  0  0  0
 26 47  1  0  0  0  0
 28 29  1  0  0  0  0
 28 48  1  0  0  0  0
 29 49  1  0  0  0  0
 30 35  1  0  0  0  0
 30 31  2  0  0  0  0
 31 32  1  0  0  0  0
 31 50  1  0  0  0  0
 32 33  2  0  0  0  0
 32 51  1  0  0  0  0
 33 34  1  0  0  0  0
 33 52  1  0  0  0  0
 34 35  2  0  0  0  0
 34 53  1  0  0  0  0
 35 54  1  0  0  0  0
M  CHG  1   3  -1
M  END
> <s_m_source_file>
AV-unprocessed.smi

> <i_m_source_file_index>
34

> <i_lp_mmshare_version>
43012

> <i_f3d_flags>
0

> <s_epik_input>
W2NIXTFbY0hdW2NIXVtjSF1bY0hdYzFDKD1PKVtOSF1jKG5bY0hdbjIpYyhjMjMpbltjSF1uM1tDQEBIXTRPW0NASF0oW0NAQEhdKEYpW0NASF00W09IXSlbQ0gyXU9DKD1PKWM1W2NIXVtjSF1bY0hdW2NIXVtjSF01

> <s_epik_cmdline>
J2VwaWtfcHl0aG9uJywgJy1waCcsICc3LjAnLCAnLXRuJywgJzgnLCAnLW1hJywgJzIwMCcsICctbWV0YWxfYmluZGluZycsICctaW1hZScsICc8aW5maWxlLm1hZT4nLCAnLW9tYWUnLCAnPG91dGZpbGUubWFlPic=

> <r_lp_tautomer_probability>
1

> <r_epik_Ionization_Penalty>
4.33227

> <r_epik_Ionization_Penalty_Charging>
3.41027

> <r_epik_Ionization_Penalty_Neutral>
0.922001

> <r_epik_State_Penalty>
3.41358

> <r_epik_Charging_Adjusted_Penalty>
6.82385

> <i_epik_Tot_Q>
-1

> <i_epik_Tot_abs_Q>
1

> <r_epik_Metal_State_Penalty>
0.496292

> <b_epik_Metal_Only>
1

> <s_epik_Chemistry_Notes>
This compound has an ester and may undergo hydrolysis at high or low pH. This compound contains an acetal/aminal-like group ( X-CH(R)-Y where X, Y are N, S, or O) that may be acid/base labile, releasing an aldehyde.

> <s_lp_Force_Field>
OPLS_2005

> <r_lp_Energy>
54.5703

> <b_lp_Chiralities_Consistent>
1

> <s_lp_Variant>
AV-unprocessed.smi:34-22

> <Gold.Version>
5.8.1

> <Gold.Id.Protein>
6NUR|6NUR_protein|mol2

> <Gold.PLP.Fitness>
68.4562

> <Gold.PLP.PLP>
-57.6753

> <Gold.PLP.part.hbond>
-5.0000

> <Gold.PLP.part.metal>
0.0000

> <Gold.PLP.part.buried>
-5.7359

> <Gold.PLP.part.nonpolar>
-48.7976

> <Gold.PLP.part.repulsive>
0.1700

> <Gold.PLP.ligand.clash>
0.0000

> <Gold.PLP.ligand.torsion>
0.7834

> <Gold.PLP.Chemscore.Hbond>
3.8293

> <Gold.PLP.Chemscore.CHOScore>
0.0000

> <Gold.PLP.Chemscore.Metal>
0.0000

> <Gold.Chemscore.Hbonds>
donor molecule, donor type, donor heavy atom, donor atom, acceptor molecule, acceptor atom, score
      L1  H    29    49       P1  7948  0.98
      P1  H  6896  6909       L1    14  0.62
      P1  H  7989  7998       L1     5  0.34
      P1  H  7997  8010       L1     5  0.90
      P1  H 10752 10765       L1     7  0.54

> <Gold.PLP.Chemscore.Internal.Correction>
0.8599

> <Gold.Rescore>
     Score         DG    S(hbond)    S(metal)    S(lipo)     H(rot)  DE(clash)    DE(int)     intcor
     16.52     -19.27       2.03        0.00     119.00       2.69       1.49       1.27       ----

> <Gold.Chemscore.Fitness>
16.5161

> <Gold.Chemscore.DG>
-19.2709

> <Gold.Chemscore.ZeroCoef>
-5.4800

> <Gold.Chemscore.Hbond>
2.0255

> <Gold.Chemscore.Metal>
0.0000

> <Gold.Chemscore.Lipo>
119.0012

> <Gold.Chemscore.Internal_Hbond>
0.0000

> <Gold.Chemscore.DEClash>
1.4895

> <Gold.Chemscore.DEInternal>
1.2653

> <Gold.Chemscore.Rot>
2.6944

> <Gold.Chemscore.Internal.Correction>
   9.000000E+99

> <Gold.Chemscore.Hbonds>
donor molecule, donor type, donor heavy atom, donor atom, acceptor molecule, acceptor atom, score
      L1  H    29    49       P1  7948  0.50
      P1  H  6896  6909       L1    14  0.21
      P1  H  7989  7998       L1     5  0.05
      P1  H  7997  8010       L1     5  0.11
      P1  H 10752 10765       L1     7  0.53

> <Gold.Chemscore.Hbond.Weighted>
-6.7653

> <Gold.Chemscore.Metal.Weighted>
-0.0000

> <Gold.Chemscore.Lipo.Weighted>
-13.9231

> <Gold.Chemscore.Internal_Hbond.Weighted>
0.0000

> <Gold.Chemscore.DEClash.Weighted>
1.4895

> <Gold.Chemscore.DEInternal.Weighted>
1.2653

> <Gold.Chemscore.Rot.Weighted>
6.8975

> <Gold.Chemscore.Internal.Correction.Weighted>
   9.000000E+99

> <Gold.Protein.RotatedTorsions>
[ 6907 6896 6895 6894 ] final   17.46 input  -60.11 | X-H torsion
[ 7974 7965 7964 7962 ] final  118.44 input  175.53 | X-H torsion
[ 8008 7997 7996 7995 ] final  109.46 input   59.86 | X-H torsion
[ 10167 10162 10161 10158 ] final  -79.07 input  -65.29 | X-H torsion
[ 10718 10713 10712 10709 ] final  -28.04 input   66.30 | X-H torsion
[ 10763 10752 10751 10750 ] final  176.02 input  -60.55 | X-H torsion
[ 11005 11000 10999 10996 ] final  175.34 input  -57.11 | X-H torsion

> <Gold.Protein.ActiveResidues>
 VAL166  LYS551  ARG553  GLY616  TRP617  ASP618  TYR619  PRO620  LYS621  CYS622 
 ASP623  PHE694  ASN695  SER759  ASP760  ASP761  ALA762  ILE779  LEU786  VAL792 
 PHE793  MET794  SER795  GLU796  ALA797  LYS798  CYS799  TRP800  GLU811  SER814 

> <Gold.Protein.RotatedAtoms>
  151.8499  135.0561  160.0457 H   0  0  0  0  0  0  0  0  0  0  0  0  # atno 6907 bound_to 6896
  152.2744  133.5408  159.5467 H   0  0  0  0  0  0  0  0  0  0  0  0  # atno 6908 bound_to 6896
  150.7164  134.0568  159.3860 H   0  0  0  0  0  0  0  0  0  0  0  0  # atno 6909 bound_to 6896
  145.1552  139.3187  143.4546 H   0  0  0  0  0  0  0  0  0  0  0  0  # atno 7974 bound_to 7965
  156.1980  140.3057  155.9468 H   0  0  0  0  0  0  0  0  0  0  0  0  # atno 8008 bound_to 7997
  155.3020  140.0447  157.3047 H   0  0  0  0  0  0  0  0  0  0  0  0  # atno 8009 bound_to 7997
  154.5535  140.2298  155.8457 H   0  0  0  0  0  0  0  0  0  0  0  0  # atno 8010 bound_to 7997
  140.4625  143.2449  151.8326 H   0  0  0  0  0  0  0  0  0  0  0  0  # atno 10167 bound_to 10162
  156.4304  130.4444  149.7121 H   0  0  0  0  0  0  0  0  0  0  0  0  # atno 10718 bound_to 10713
  154.4754  135.2772  155.1611 H   0  0  0  0  0  0  0  0  0  0  0  0  # atno 10763 bound_to 10752
  154.3343  135.6183  153.5569 H   0  0  0  0  0  0  0  0  0  0  0  0  # atno 10764 bound_to 10752
  152.9869  135.5773  154.5144 H   0  0  0  0  0  0  0  0  0  0  0  0  # atno 10765 bound_to 10752
  140.3611  134.7112  157.4331 H   0  0  0  0  0  0  0  0  0  0  0  0  # atno 11005 bound_to 11000
  146.3489  140.1642  142.8590 LP  0  0  0  0  0  0  0  0  0  0  0  0  # atno 17320 bound_to 7965
  145.0388  140.8929  143.5065 LP  0  0  0  0  0  0  0  0  0  0  0  0  # atno 17321 bound_to 7965
  139.4808  144.4990  151.9086 LP  0  0  0  0  0  0  0  0  0  0  0  0  # atno 17342 bound_to 10162
  140.4075  144.2412  150.5890 LP  0  0  0  0  0  0  0  0  0  0  0  0  # atno 17343 bound_to 10162
  156.4027  130.7682  151.2691 LP  0  0  0  0  0  0  0  0  0  0  0  0  # atno 17370 bound_to 10713
  157.7508  131.0235  150.3837 LP  0  0  0  0  0  0  0  0  0  0  0  0  # atno 17371 bound_to 10713
  140.0626  134.5974  155.8731 LP  0  0  0  0  0  0  0  0  0  0  0  0  # atno 17394 bound_to 11000
  141.1984  133.6601  156.5789 LP  0  0  0  0  0  0  0  0  0  0  0  0  # atno 17395 bound_to 11000

$$$$
