AV-unprocessed.smi:1535|AV-procd|sdf|6181|dock1
  -GOLD-   22720 6343D 1   1.00000     0.00000
 Structure written by MMmdl.
 47 48  0  0  0  0  0  0  0  0  2 V2000
  154.9957  140.8720  163.0865 C   0  0  0  0  0  0  0  0  0  0  0  0
  154.1302  141.1325  161.8661 C   0  0  0  0  0  0  0  0  0  0  0  0
  154.2420  140.2745  160.7487 C   0  0  0  0  0  0  0  0  0  0  0  0
  153.4562  140.4826  159.5941 C   0  0  0  0  0  0  0  0  0  0  0  0
  153.4015  139.7782  158.4035 N   0  0  0  0  0  0  0  0  0  0  0  0
  152.4821  140.4623  157.7288 C   0  0  0  0  0  0  0  0  0  0  0  0
  151.9367  141.5314  158.3409 N   0  0  0  0  0  0  0  0  0  0  0  0
  150.9256  142.4287  157.8109 C   0  0  0  0  0  0  0  0  0  0  0  0
  149.6322  141.6880  157.4205 C   0  0  1  0  0  0  0  0  0  0  0  0
  148.5553  142.6057  157.3925 O   0  0  0  0  0  0  0  0  0  0  0  0
  149.7449  141.0139  156.0388 C   0  0  0  0  0  0  0  0  0  0  0  0
  149.4572  139.5588  156.1080 N   0  3  1  0  0  0  0  0  0  0  0  0
  148.0858  139.2816  156.5933 C   0  0  0  0  0  0  0  0  0  0  0  0
  149.7705  138.8360  154.8476 C   0  0  0  0  0  0  0  0  0  0  0  0
  151.0922  138.0525  154.9417 C   0  0  2  0  0  0  0  0  0  0  0  0
  151.1838  137.2244  156.2325 C   0  0  0  0  0  0  0  0  0  0  0  0
  152.2415  138.9649  154.8326 C   0  0  0  0  0  0  0  0  0  0  0  0
  153.1442  139.6825  154.7458 N   0  0  0  0  0  0  0  0  0  0  0  0
  152.5494  141.5826  159.5878 C   0  0  0  0  0  0  0  0  0  0  0  0
  152.4272  142.4420  160.6939 C   0  0  0  0  0  0  0  0  0  0  0  0
  153.2180  142.2181  161.8403 C   0  0  0  0  0  0  0  0  0  0  0  0
  153.0764  143.1500  163.0310 C   0  0  0  0  0  0  0  0  0  0  0  0
  155.6842  140.0436  162.9169 H   0  0  0  0  0  0  0  0  0  0  0  0
  154.3749  140.6211  163.9469 H   0  0  0  0  0  0  0  0  0  0  0  0
  155.5887  141.7531  163.3319 H   0  0  0  0  0  0  0  0  0  0  0  0
  154.9349  139.4461  160.7691 H   0  0  0  0  0  0  0  0  0  0  0  0
  152.1912  140.1714  156.7297 H   0  0  0  0  0  0  0  0  0  0  0  0
  150.7174  143.2022  158.5518 H   0  0  0  0  0  0  0  0  0  0  0  0
  151.3473  142.9346  156.9415 H   0  0  0  0  0  0  0  0  0  0  0  0
  149.4133  140.9429  158.1853 H   0  0  0  0  0  0  0  0  0  0  0  0
  148.6313  143.1405  156.6166 H   0  0  0  0  0  0  0  0  0  0  0  0
  149.0493  141.5037  155.3550 H   0  0  0  0  0  0  0  0  0  0  0  0
  150.7396  141.1616  155.6145 H   0  0  0  0  0  0  0  0  0  0  0  0
  147.3394  139.6887  155.9098 H   0  0  0  0  0  0  0  0  0  0  0  0
  147.9278  139.7278  157.5757 H   0  0  0  0  0  0  0  0  0  0  0  0
  147.9110  138.2104  156.6908 H   0  0  0  0  0  0  0  0  0  0  0  0
  148.9454  138.1651  154.6020 H   0  0  0  0  0  0  0  0  0  0  0  0
  149.8418  139.5303  154.0100 H   0  0  0  0  0  0  0  0  0  0  0  0
  151.1784  137.3794  154.0889 H   0  0  0  0  0  0  0  0  0  0  0  0
  152.1321  136.6894  156.2849 H   0  0  0  0  0  0  0  0  0  0  0  0
  150.3863  136.4833  156.2906 H   0  0  0  0  0  0  0  0  0  0  0  0
  151.1137  137.8606  157.1154 H   0  0  0  0  0  0  0  0  0  0  0  0
  151.7301  143.2661  160.6606 H   0  0  0  0  0  0  0  0  0  0  0  0
  152.2695  143.8677  162.8801 H   0  0  0  0  0  0  0  0  0  0  0  0
  153.9991  143.7089  163.1886 H   0  0  0  0  0  0  0  0  0  0  0  0
  152.8536  142.5853  163.9366 H   0  0  0  0  0  0  0  0  0  0  0  0
  150.0853  139.1967  156.8120 H   0  0  0  0  0  0  0  0  0  0  0  0
  1  2  1  0  0  0  0
  1 23  1  0  0  0  0
  1 24  1  0  0  0  0
  1 25  1  0  0  0  0
  2 21  1  0  0  0  0
  2  3  2  0  0  0  0
  3  4  1  0  0  0  0
  3 26  1  0  0  0  0
  4 19  2  0  0  0  0
  4  5  1  0  0  0  0
  5  6  2  0  0  0  0
  6  7  1  0  0  0  0
  6 27  1  0  0  0  0
  7  8  1  0  0  0  0
  7 19  1  0  0  0  0
  8  9  1  0  0  0  0
  8 28  1  0  0  0  0
  8 29  1  0  0  0  0
  9 10  1  0  0  0  0
  9 11  1  0  0  0  0
  9 30  1  0  0  0  0
 10 31  1  0  0  0  0
 11 12  1  0  0  0  0
 11 32  1  0  0  0  0
 11 33  1  0  0  0  0
 12 13  1  0  0  0  0
 12 14  1  0  0  0  0
 12 47  1  0  0  0  0
 13 34  1  0  0  0  0
 13 35  1  0  0  0  0
 13 36  1  0  0  0  0
 14 15  1  0  0  0  0
 14 37  1  0  0  0  0
 14 38  1  0  0  0  0
 15 16  1  0  0  0  0
 15 17  1  0  0  0  0
 15 39  1  0  0  0  0
 16 40  1  0  0  0  0
 16 41  1  0  0  0  0
 16 42  1  0  0  0  0
 17 18  3  0  0  0  0
 19 20  1  0  0  0  0
 20 21  2  0  0  0  0
 20 43  1  0  0  0  0
 21 22  1  0  0  0  0
 22 44  1  0  0  0  0
 22 45  1  0  0  0  0
 22 46  1  0  0  0  0
M  CHG  1  12   1
M  END
> <s_m_source_file>
AV-unprocessed.smi

> <i_m_source_file_index>
1535

> <i_lp_mmshare_version>
43012

> <i_f3d_flags>
0

> <s_epik_input>
W0NIM11jKFtjSF0xKWMoW0NIM10pW2NIXWMoYzEyKW4oW2NIXW4yKVtDSDJdW0NASF0oW09IXSlbQ0gyXU4oW0NIM10pW0NIMl1bQ0BIXShbQ0gzXSlDI04=

> <s_epik_cmdline>
J2VwaWtfcHl0aG9uJywgJy1waCcsICc3LjAnLCAnLXRuJywgJzgnLCAnLW1hJywgJzIwMCcsICctbWV0YWxfYmluZGluZycsICctaW1hZScsICc8aW5maWxlLm1hZT4nLCAnLW9tYWUnLCAnPG91dGZpbGUubWFlPic=

> <r_epik_Ionization_Penalty>
2.21058

> <r_epik_Ionization_Penalty_Charging>
2.12381

> <r_epik_Ionization_Penalty_Neutral>
0.0867699

> <r_epik_State_Penalty>
2.36208

> <r_epik_Charging_Adjusted_Penalty>
4.48589

> <i_epik_Tot_Q>
1

> <i_epik_Tot_abs_Q>
1

> <r_epik_Metal_State_Penalty>
2.2818

> <b_epik_Metal_Only>
0

> <s_lp_Force_Field>
OPLS_2005

> <r_lp_Energy>
17.3963

> <b_lp_Chiralities_Consistent>
1

> <s_lp_Variant>
AV-unprocessed.smi:1535-12

> <Gold.Version>
5.8.1

> <Gold.Id.Protein>
6NUR|6NUR_protein|mol2

> <Gold.PLP.Fitness>
49.7102

> <Gold.PLP.PLP>
-43.7810

> <Gold.PLP.part.hbond>
-4.0000

> <Gold.PLP.part.metal>
0.0000

> <Gold.PLP.part.buried>
-1.2709

> <Gold.PLP.part.nonpolar>
-36.7893

> <Gold.PLP.part.repulsive>
0.0439

> <Gold.PLP.ligand.clash>
0.0000

> <Gold.PLP.ligand.torsion>
1.7314

> <Gold.PLP.Chemscore.Hbond>
2.9772

> <Gold.PLP.Chemscore.CHOScore>
0.0000

> <Gold.PLP.Chemscore.Metal>
0.0000

> <Gold.Chemscore.Hbonds>
donor molecule, donor type, donor heavy atom, donor atom, acceptor molecule, acceptor atom, score
      L1  H    10    31       P1  8028  1.00
      P1  H  7989  7998       L1    18  0.02
      P1  H  7997  8008       L1    18  1.00
      P1  H  7997  8010       L1     5  0.93

> <Gold.PLP.Chemscore.Internal.Correction>
0.4604

> <Gold.Rescore>
     Score         DG    S(hbond)    S(metal)    S(lipo)     H(rot)  DE(clash)    DE(int)     intcor
     17.00     -19.25       1.97        0.00     118.30       2.60       0.42       1.83       ----

> <Gold.Chemscore.Fitness>
17.0030

> <Gold.Chemscore.DG>
-19.2493

> <Gold.Chemscore.ZeroCoef>
-5.4800

> <Gold.Chemscore.Hbond>
1.9739

> <Gold.Chemscore.Metal>
0.0000

> <Gold.Chemscore.Lipo>
118.2952

> <Gold.Chemscore.Internal_Hbond>
0.0000

> <Gold.Chemscore.DEClash>
0.4165

> <Gold.Chemscore.DEInternal>
1.8297

> <Gold.Chemscore.Rot>
2.6031

> <Gold.Chemscore.Internal.Correction>
   9.000000E+99

> <Gold.Chemscore.Hbonds>
donor molecule, donor type, donor heavy atom, donor atom, acceptor molecule, acceptor atom, score
      L1  H    10    31       P1  8028  0.77
      P1  H  7997  8008       L1    18  0.95
      P1  H  7997  8010       L1     5  0.21

> <Gold.Chemscore.Hbond.Weighted>
-6.5927

> <Gold.Chemscore.Metal.Weighted>
-0.0000

> <Gold.Chemscore.Lipo.Weighted>
-13.8405

> <Gold.Chemscore.Internal_Hbond.Weighted>
0.0000

> <Gold.Chemscore.DEClash.Weighted>
0.4165

> <Gold.Chemscore.DEInternal.Weighted>
1.8297

> <Gold.Chemscore.Rot.Weighted>
6.6640

> <Gold.Chemscore.Internal.Correction.Weighted>
   9.000000E+99

> <Gold.Protein.RotatedTorsions>
[ 6907 6896 6895 6894 ] final   -1.36 input  -60.11 | X-H torsion
[ 7974 7965 7964 7962 ] final  179.40 input  175.53 | X-H torsion
[ 8008 7997 7996 7995 ] final   10.83 input   59.86 | X-H torsion
[ 10167 10162 10161 10158 ] final   85.06 input  -65.29 | X-H torsion
[ 10718 10713 10712 10709 ] final -127.41 input   66.30 | X-H torsion
[ 10763 10752 10751 10750 ] final   15.82 input  -60.55 | X-H torsion
[ 11005 11000 10999 10996 ] final -122.01 input  -57.11 | X-H torsion

> <Gold.Protein.ActiveResidues>
 VAL166  LYS551  ARG553  GLY616  TRP617  ASP618  TYR619  PRO620  LYS621  CYS622 
 ASP623  PHE694  ASN695  SER759  ASP760  ASP761  ALA762  ILE779  LEU786  VAL792 
 PHE793  MET794  SER795  GLU796  ALA797  LYS798  CYS799  TRP800  GLU811  SER814 

> <Gold.Protein.RotatedAtoms>
  151.5473  135.1068  159.9940 H   0  0  0  0  0  0  0  0  0  0  0  0  # atno 6907 bound_to 6896
  152.4508  133.7621  159.6763 H   0  0  0  0  0  0  0  0  0  0  0  0  # atno 6908 bound_to 6896
  150.8435  133.7831  159.3076 H   0  0  0  0  0  0  0  0  0  0  0  0  # atno 6909 bound_to 6896
  144.7146  140.0543  143.6434 H   0  0  0  0  0  0  0  0  0  0  0  0  # atno 7974 bound_to 7965
  154.7986  140.2848  155.5938 H   0  0  0  0  0  0  0  0  0  0  0  0  # atno 8008 bound_to 7997
  156.2974  140.2591  156.2779 H   0  0  0  0  0  0  0  0  0  0  0  0  # atno 8009 bound_to 7997
  154.9585  140.0378  157.2168 H   0  0  0  0  0  0  0  0  0  0  0  0  # atno 8010 bound_to 7997
  139.9016  144.6326  150.8631 H   0  0  0  0  0  0  0  0  0  0  0  0  # atno 10167 bound_to 10162
  156.1854  130.6760  151.0358 H   0  0  0  0  0  0  0  0  0  0  0  0  # atno 10718 bound_to 10713
  153.1489  135.6774  153.8912 H   0  0  0  0  0  0  0  0  0  0  0  0  # atno 10763 bound_to 10752
  153.8345  135.3113  155.3422 H   0  0  0  0  0  0  0  0  0  0  0  0  # atno 10764 bound_to 10752
  154.7847  135.4869  154.0006 H   0  0  0  0  0  0  0  0  0  0  0  0  # atno 10765 bound_to 10752
  141.0028  134.0378  157.3516 H   0  0  0  0  0  0  0  0  0  0  0  0  # atno 11005 bound_to 11000
  145.9918  139.3021  143.0980 LP  0  0  0  0  0  0  0  0  0  0  0  0  # atno 17320 bound_to 7965
  145.8894  140.9313  143.0560 LP  0  0  0  0  0  0  0  0  0  0  0  0  # atno 17321 bound_to 7965
  140.7705  143.3432  151.2164 LP  0  0  0  0  0  0  0  0  0  0  0  0  # atno 17342 bound_to 10162
  139.7020  143.9517  152.2910 LP  0  0  0  0  0  0  0  0  0  0  0  0  # atno 17343 bound_to 10162
  157.6895  131.0814  150.7147 LP  0  0  0  0  0  0  0  0  0  0  0  0  # atno 17370 bound_to 10713
  156.7203  130.4678  149.5524 LP  0  0  0  0  0  0  0  0  0  0  0  0  # atno 17371 bound_to 10713
  139.9047  135.0176  156.7433 LP  0  0  0  0  0  0  0  0  0  0  0  0  # atno 17394 bound_to 11000
  140.6862  133.9430  155.7939 LP  0  0  0  0  0  0  0  0  0  0  0  0  # atno 17395 bound_to 11000

$$$$
