AV-unprocessed.smi:36|AV-procd|sdf|285|dock2
  -GOLD-   2262016 63D 1   1.00000     0.00000
 Structure written by MMmdl.
 64 67  0  0  0  0  0  0  0  0  1 V2000
  147.8638  135.7796  161.5613 C   0  0  0  0  0  0  0  0  0  0  0  0
  146.9419  134.5490  161.5718 C   0  0  0  0  0  0  0  0  0  0  0  0
  147.7063  133.3272  162.1084 C   0  0  0  0  0  0  0  0  0  0  0  0
  145.7155  134.8231  162.4584 C   0  0  0  0  0  0  0  0  0  0  0  0
  146.3514  134.1816  159.7921 Si  0  0  0  0  0  0  0  0  0  0  0  0
  145.1706  132.6924  159.7576 C   0  0  0  0  0  0  0  0  0  0  0  0
  145.4875  135.6947  159.0325 C   0  0  0  0  0  0  0  0  0  0  0  0
  147.7171  133.8229  158.8570 O   0  0  0  0  0  0  0  0  0  0  0  0
  147.6726  133.4250  157.5009 C   0  0  0  0  0  0  0  0  0  0  0  0
  149.1030  133.1956  156.9755 C   0  0  2  0  0  0  0  0  0  0  0  0
  149.9411  134.1938  157.5677 O   0  0  0  0  0  0  0  0  0  0  0  0
  150.6075  134.9013  156.5716 C   0  0  2  0  0  0  0  0  0  0  0  0
  150.8022  136.3116  157.0205 N   0  0  0  0  0  0  0  0  0  0  0  0
  149.8309  137.2423  157.3158 C   0  0  0  0  0  0  0  0  0  0  0  0
  150.2719  138.4179  157.6762 N   0  0  0  0  0  0  0  0  0  0  0  0
  151.6538  138.2910  157.6176 C   0  0  0  0  0  0  0  0  0  0  0  0
  152.7335  139.1771  157.8716 C   0  0  0  0  0  0  0  0  0  0  0  0
  152.4910  140.4514  158.2603 N   0  0  0  0  0  0  0  0  0  0  0  0
  153.1354  141.2052  159.3218 C   0  0  0  0  0  0  0  0  0  0  0  0
  154.0648  140.7430  159.9841 O   0  0  0  0  0  0  0  0  0  0  0  0
  152.6575  142.6157  159.5116 C   0  0  0  0  0  0  0  0  0  0  0  0
  152.6493  143.1917  160.8020 C   0  0  0  0  0  0  0  0  0  0  0  0
  152.1903  144.5096  160.9919 C   0  0  0  0  0  0  0  0  0  0  0  0
  151.7273  145.2600  159.8949 C   0  0  0  0  0  0  0  0  0  0  0  0
  151.7203  144.6901  158.6079 C   0  0  0  0  0  0  0  0  0  0  0  0
  152.1798  143.3722  158.4164 C   0  0  0  0  0  0  0  0  0  0  0  0
  153.9923  138.6923  157.7048 N   0  0  0  0  0  0  0  0  0  0  0  0
  154.1801  137.4282  157.3135 C   0  0  0  0  0  0  0  0  0  0  0  0
  153.2660  136.4950  157.0417 N   0  0  0  0  0  0  0  0  0  0  0  0
  151.9992  136.9726  157.2079 C   0  0  0  0  0  0  0  0  0  0  0  0
  149.7300  134.8158  155.3330 C   0  0  0  0  0  0  0  0  0  0  0  0
  149.2767  133.3769  155.4516 C   0  0  2  0  0  0  0  0  0  0  0  0
  148.1171  133.1295  154.6812 O   0  0  0  0  0  0  0  0  0  0  0  0
  148.2238  136.0127  162.5639 H   0  0  0  0  0  0  0  0  0  0  0  0
  147.3440  136.6617  161.1864 H   0  0  0  0  0  0  0  0  0  0  0  0
  148.7367  135.6178  160.9283 H   0  0  0  0  0  0  0  0  0  0  0  0
  148.5872  133.1112  161.5032 H   0  0  0  0  0  0  0  0  0  0  0  0
  147.0788  132.4352  162.1060 H   0  0  0  0  0  0  0  0  0  0  0  0
  148.0446  133.4888  163.1325 H   0  0  0  0  0  0  0  0  0  0  0  0
  146.0085  135.0210  163.4901 H   0  0  0  0  0  0  0  0  0  0  0  0
  145.0337  133.9717  162.4665 H   0  0  0  0  0  0  0  0  0  0  0  0
  145.1547  135.6888  162.1057 H   0  0  0  0  0  0  0  0  0  0  0  0
  144.2754  132.8777  160.3509 H   0  0  0  0  0  0  0  0  0  0  0  0
  145.6441  131.7954  160.1556 H   0  0  0  0  0  0  0  0  0  0  0  0
  144.8441  132.4652  158.7431 H   0  0  0  0  0  0  0  0  0  0  0  0
  144.6026  135.9785  159.6016 H   0  0  0  0  0  0  0  0  0  0  0  0
  145.1648  135.5005  158.0100 H   0  0  0  0  0  0  0  0  0  0  0  0
  146.1478  136.5610  159.0037 H   0  0  0  0  0  0  0  0  0  0  0  0
  147.0820  132.5118  157.4232 H   0  0  0  0  0  0  0  0  0  0  0  0
  147.1565  134.1868  156.9172 H   0  0  0  0  0  0  0  0  0  0  0  0
  149.4514  132.2049  157.2663 H   0  0  0  0  0  0  0  0  0  0  0  0
  151.6091  134.4958  156.4202 H   0  0  0  0  0  0  0  0  0  0  0  0
  148.7754  137.0203  157.2549 H   0  0  0  0  0  0  0  0  0  0  0  0
  151.7661  140.9372  157.7525 H   0  0  0  0  0  0  0  0  0  0  0  0
  153.0006  142.6287  161.6549 H   0  0  0  0  0  0  0  0  0  0  0  0
  152.1924  144.9442  161.9807 H   0  0  0  0  0  0  0  0  0  0  0  0
  151.3747  146.2703  160.0411 H   0  0  0  0  0  0  0  0  0  0  0  0
  151.3593  145.2629  157.7665 H   0  0  0  0  0  0  0  0  0  0  0  0
  152.1574  142.9510  157.4219 H   0  0  0  0  0  0  0  0  0  0  0  0
  155.2096  137.1214  157.2012 H   0  0  0  0  0  0  0  0  0  0  0  0
  148.8894  135.5059  155.4188 H   0  0  0  0  0  0  0  0  0  0  0  0
  150.2941  135.0340  154.4258 H   0  0  0  0  0  0  0  0  0  0  0  0
  150.0754  132.7219  155.0998 H   0  0  0  0  0  0  0  0  0  0  0  0
  147.9153  132.2074  154.7287 H   0  0  0  0  0  0  0  0  0  0  0  0
  1  2  1  0  0  0  0
  1 34  1  0  0  0  0
  1 35  1  0  0  0  0
  1 36  1  0  0  0  0
  2  3  1  0  0  0  0
  2  4  1  0  0  0  0
  2  5  1  0  0  0  0
  3 37  1  0  0  0  0
  3 38  1  0  0  0  0
  3 39  1  0  0  0  0
  4 40  1  0  0  0  0
  4 41  1  0  0  0  0
  4 42  1  0  0  0  0
  5  6  1  0  0  0  0
  5  7  1  0  0  0  0
  5  8  1  0  0  0  0
  6 43  1  0  0  0  0
  6 44  1  0  0  0  0
  6 45  1  0  0  0  0
  7 46  1  0  0  0  0
  7 47  1  0  0  0  0
  7 48  1  0  0  0  0
  8  9  1  0  0  0  0
  9 10  1  0  0  0  0
  9 49  1  0  0  0  0
  9 50  1  0  0  0  0
 10 32  1  0  0  0  0
 10 11  1  0  0  0  0
 10 51  1  0  0  0  0
 11 12  1  0  0  0  0
 12 13  1  0  0  0  0
 12 31  1  0  0  0  0
 12 52  1  0  0  0  0
 13 30  1  0  0  0  0
 13 14  1  0  0  0  0
 14 15  2  0  0  0  0
 14 53  1  0  0  0  0
 15 16  1  0  0  0  0
 16 30  2  0  0  0  0
 16 17  1  0  0  0  0
 17 18  1  0  0  0  0
 17 27  2  0  0  0  0
 18 19  1  0  0  0  0
 18 54  1  0  0  0  0
 19 20  2  0  0  0  0
 19 21  1  0  0  0  0
 21 26  1  0  0  0  0
 21 22  2  0  0  0  0
 22 23  1  0  0  0  0
 22 55  1  0  0  0  0
 23 24  2  0  0  0  0
 23 56  1  0  0  0  0
 24 25  1  0  0  0  0
 24 57  1  0  0  0  0
 25 26  2  0  0  0  0
 25 58  1  0  0  0  0
 26 59  1  0  0  0  0
 27 28  1  0  0  0  0
 28 29  2  0  0  0  0
 28 60  1  0  0  0  0
 29 30  1  0  0  0  0
 31 32  1  0  0  0  0
 31 61  1  0  0  0  0
 31 62  1  0  0  0  0
 32 33  1  0  0  0  0
 32 63  1  0  0  0  0
 33 64  1  0  0  0  0
M  END
> <s_m_source_file>
AV-unprocessed.smi

> <i_m_source_file_index>
36

> <i_lp_mmshare_version>
43012

> <i_f3d_flags>
0

> <s_epik_input>
W0NIM11DKFtDSDNdKShbQ0gzXSlbU2ldKFtDSDNdKShbQ0gzXSlPW0NIMl1bQ0BASF0xT1tDQEhdKFtDSDJdW0NASF0xW09IXSluKFtjSF1uMiljKGMyMyluW2NIXW5jM1tOSF1DKD1PKWM0W2NIXVtjSF1bY0hdW2NIXVtjSF00

> <s_epik_cmdline>
J2VwaWtfcHl0aG9uJywgJy1waCcsICc3LjAnLCAnLXRuJywgJzgnLCAnLW1hJywgJzIwMCcsICctbWV0YWxfYmluZGluZycsICctaW1hZScsICc8aW5maWxlLm1hZT4nLCAnLW9tYWUnLCAnPG91dGZpbGUubWFlPic=

> <r_lp_tautomer_probability>
1

> <r_epik_Ionization_Penalty>
0.00150433

> <r_epik_Ionization_Penalty_Charging>
0

> <r_epik_Ionization_Penalty_Neutral>
0.00150433

> <r_epik_State_Penalty>
0.00724046

> <r_epik_Charging_Adjusted_Penalty>
0.00724046

> <i_epik_Tot_Q>
0

> <i_epik_Tot_abs_Q>
0

> <r_epik_Metal_State_Penalty>
0.323355

> <b_epik_Metal_Only>
0

> <s_epik_Chemistry_Notes>
This compound contains an acetal/aminal-like group ( X-CH(R)-Y where X, Y are N, S, or O) that may be acid/base labile, releasing an aldehyde.

> <s_lp_Force_Field>
OPLS_2005

> <r_lp_Energy>
39.4689

> <b_lp_Chiralities_Consistent>
1

> <s_lp_Variant>
AV-unprocessed.smi:36-7

> <Gold.Version>
5.8.1

> <Gold.Id.Protein>
6NUR|6NUR_protein|mol2

> <Gold.PLP.Fitness>
57.6851

> <Gold.PLP.PLP>
-50.9259

> <Gold.PLP.part.hbond>
-3.0000

> <Gold.PLP.part.metal>
0.0000

> <Gold.PLP.part.buried>
-7.6119

> <Gold.PLP.part.nonpolar>
-40.4921

> <Gold.PLP.part.repulsive>
0.0896

> <Gold.PLP.ligand.clash>
0.0000

> <Gold.PLP.ligand.torsion>
1.1477

> <Gold.PLP.Chemscore.Hbond>
2.9600

> <Gold.PLP.Chemscore.CHOScore>
0.0000

> <Gold.PLP.Chemscore.Metal>
0.0000

> <Gold.Chemscore.Hbonds>
donor molecule, donor type, donor heavy atom, donor atom, acceptor molecule, acceptor atom, score
      P1  H  6896  6907       L1    11  0.96
      P1  H  7997  8008       L1    27  0.95
      P1  H 10752 10765       L1    29  0.96

> <Gold.PLP.Chemscore.Internal.Correction>
0.1747

> <Gold.Rescore>
     Score         DG    S(hbond)    S(metal)    S(lipo)     H(rot)  DE(clash)    DE(int)     intcor
     19.52     -21.31       2.55        0.00     121.67       2.70       0.04       1.74       ----

> <Gold.Chemscore.Fitness>
19.5244

> <Gold.Chemscore.DG>
-21.3078

> <Gold.Chemscore.ZeroCoef>
-5.4800

> <Gold.Chemscore.Hbond>
2.5493

> <Gold.Chemscore.Metal>
0.0000

> <Gold.Chemscore.Lipo>
121.6720

> <Gold.Chemscore.Internal_Hbond>
0.0000

> <Gold.Chemscore.DEClash>
0.0411

> <Gold.Chemscore.DEInternal>
1.7423

> <Gold.Chemscore.Rot>
2.7041

> <Gold.Chemscore.Internal.Correction>
   9.000000E+99

> <Gold.Chemscore.Hbonds>
donor molecule, donor type, donor heavy atom, donor atom, acceptor molecule, acceptor atom, score
      P1  H  6896  6907       L1    11  0.89
      P1  H  7997  8008       L1    27  0.21
      P1  H 10752 10765       L1    29  0.76

> <Gold.Chemscore.Hbond.Weighted>
-8.5146

> <Gold.Chemscore.Metal.Weighted>
-0.0000

> <Gold.Chemscore.Lipo.Weighted>
-14.2356

> <Gold.Chemscore.Internal_Hbond.Weighted>
0.0000

> <Gold.Chemscore.DEClash.Weighted>
0.0411

> <Gold.Chemscore.DEInternal.Weighted>
1.7423

> <Gold.Chemscore.Rot.Weighted>
6.9225

> <Gold.Chemscore.Internal.Correction.Weighted>
   9.000000E+99

> <Gold.Protein.RotatedTorsions>
[ 6907 6896 6895 6894 ] final -113.87 input  -60.11 | X-H torsion
[ 7974 7965 7964 7962 ] final -149.91 input  175.53 | X-H torsion
[ 8008 7997 7996 7995 ] final  -91.84 input   59.86 | X-H torsion
[ 10167 10162 10161 10158 ] final  152.70 input  -65.29 | X-H torsion
[ 10718 10713 10712 10709 ] final -116.86 input   66.30 | X-H torsion
[ 10763 10752 10751 10750 ] final -120.32 input  -60.55 | X-H torsion
[ 11005 11000 10999 10996 ] final   37.35 input  -57.11 | X-H torsion

> <Gold.Protein.ActiveResidues>
 VAL166  LYS551  ARG553  GLY616  TRP617  ASP618  TYR619  PRO620  LYS621  CYS622 
 ASP623  PHE694  ASN695  SER759  ASP760  ASP761  ALA762  ILE779  LEU786  VAL792 
 PHE793  MET794  SER795  GLU796  ALA797  LYS798  CYS799  TRP800  GLU811  SER814 

> <Gold.Protein.RotatedAtoms>
  150.7860  133.8882  159.3305 H   0  0  0  0  0  0  0  0  0  0  0  0  # atno 6907 bound_to 6896
  151.6733  135.0971  160.0211 H   0  0  0  0  0  0  0  0  0  0  0  0  # atno 6908 bound_to 6896
  152.3924  133.6660  159.6284 H   0  0  0  0  0  0  0  0  0  0  0  0  # atno 6909 bound_to 6896
  144.7939  140.5002  143.5753 H   0  0  0  0  0  0  0  0  0  0  0  0  # atno 7974 bound_to 7965
  154.7157  140.0515  157.0592 H   0  0  0  0  0  0  0  0  0  0  0  0  # atno 8008 bound_to 7997
  155.0495  140.3177  155.4678 H   0  0  0  0  0  0  0  0  0  0  0  0  # atno 8009 bound_to 7997
  156.2802  140.2118  156.5621 H   0  0  0  0  0  0  0  0  0  0  0  0  # atno 8010 bound_to 7997
  139.4831  144.5335  151.7683 H   0  0  0  0  0  0  0  0  0  0  0  0  # atno 10167 bound_to 10162
  156.0993  130.6158  150.9089 H   0  0  0  0  0  0  0  0  0  0  0  0  # atno 10718 bound_to 10713
  154.8641  135.4207  154.2440 H   0  0  0  0  0  0  0  0  0  0  0  0  # atno 10763 bound_to 10752
  153.3400  135.6993  153.6881 H   0  0  0  0  0  0  0  0  0  0  0  0  # atno 10764 bound_to 10752
  153.5863  135.3563  155.2867 H   0  0  0  0  0  0  0  0  0  0  0  0  # atno 10765 bound_to 10752
  140.2234  134.3613  155.7995 H   0  0  0  0  0  0  0  0  0  0  0  0  # atno 11005 bound_to 11000
  145.5723  139.1484  143.3281 LP  0  0  0  0  0  0  0  0  0  0  0  0  # atno 17320 bound_to 7965
  146.2201  140.5856  142.9021 LP  0  0  0  0  0  0  0  0  0  0  0  0  # atno 17321 bound_to 7965
  140.4865  144.1374  150.5942 LP  0  0  0  0  0  0  0  0  0  0  0  0  # atno 17342 bound_to 10162
  140.4220  143.2607  151.9704 LP  0  0  0  0  0  0  0  0  0  0  0  0  # atno 17343 bound_to 10162
  157.6160  131.0933  150.8710 LP  0  0  0  0  0  0  0  0  0  0  0  0  # atno 17370 bound_to 10713
  156.8841  130.5190  149.5289 LP  0  0  0  0  0  0  0  0  0  0  0  0  # atno 17371 bound_to 10713
  141.2222  133.7206  156.8613 LP  0  0  0  0  0  0  0  0  0  0  0  0  # atno 17394 bound_to 11000
  140.1826  134.9023  157.2966 LP  0  0  0  0  0  0  0  0  0  0  0  0  # atno 17395 bound_to 11000

$$$$
