AV-unprocessed.smi:265|AV-procd|sdf|2015|dock10
  -GOLD-   2262021213D 1   1.00000     0.00000
 Structure written by MMmdl.
 52 56  0  0  0  0  0  0  0  0  1 V2000
  150.9432  132.9853  156.7607 C   0  0  0  0  0  0  0  0  0  0  0  0
  149.7329  132.8718  155.8217 C   0  0  2  0  0  0  0  0  0  0  0  0
  149.9806  131.9184  154.7912 O   0  0  0  0  0  0  0  0  0  0  0  0
  149.3682  132.3374  153.5747 C   0  0  0  0  0  0  0  0  0  0  0  0
  148.5169  133.5498  153.9388 C   0  0  0  0  0  0  0  0  0  0  0  0
  149.2933  134.1601  155.0994 C   0  0  1  0  0  0  0  0  0  0  0  0
  148.4013  134.8984  155.9138 O   0  0  0  0  0  0  0  0  0  0  0  0
  150.4687  135.0743  154.6592 C   0  0  0  0  0  0  0  0  0  0  0  0
  150.7574  136.1526  155.5923 N   0  0  0  0  0  0  0  0  0  0  0  0
  151.1673  136.0283  156.9004 C   0  0  0  0  0  0  0  0  0  0  0  0
  151.3670  137.1538  157.5306 N   0  0  0  0  0  0  0  0  0  0  0  0
  151.0751  138.1298  156.5848 C   0  0  0  0  0  0  0  0  0  0  0  0
  151.0892  139.5535  156.5914 C   0  0  0  0  0  0  0  0  0  0  0  0
  151.4192  140.2798  157.6895 N   0  0  0  0  0  0  0  0  0  0  0  0
  152.6581  139.9230  158.3898 C   0  0  0  0  0  0  0  0  0  0  0  0
  152.7278  140.5853  159.7786 C   0  0  0  0  0  0  0  0  0  0  0  0
  152.5227  142.0994  159.6451 C   0  0  2  0  0  0  0  0  0  0  0  0
  152.4808  142.7448  160.9088 O   0  0  0  0  0  0  0  0  0  0  0  0
  152.4493  144.1733  160.8154 C   0  0  0  0  0  0  0  0  0  0  0  0
  151.4170  144.6833  159.7871 C   0  0  0  0  0  0  0  0  0  0  0  0
  151.1038  145.8713  159.7720 O   0  0  0  0  0  0  0  0  0  0  0  0
  150.9180  143.8060  158.9008 N   0  0  0  0  0  0  0  0  0  0  0  0
  151.1718  142.3730  158.9659 C   0  0  1  0  0  0  0  0  0  0  0  0
  151.1386  141.7133  157.5780 C   0  0  0  0  0  0  0  0  0  0  0  0
  150.7534  140.1869  155.4354 N   0  0  0  0  0  0  0  0  0  0  0  0
  150.4177  139.4816  154.3511 C   0  0  0  0  0  0  0  0  0  0  0  0
  150.3555  138.1572  154.2041 N   0  0  0  0  0  0  0  0  0  0  0  0
  150.6991  137.5152  155.3569 C   0  0  0  0  0  0  0  0  0  0  0  0
  153.3429  142.5137  159.0545 H   0  0  0  0  0  0  0  0  0  0  0  0
  150.3741  141.9415  159.5732 H   0  0  0  0  0  0  0  0  0  0  0  0
  150.7717  133.7357  157.5325 H   0  0  0  0  0  0  0  0  0  0  0  0
  151.8511  133.2544  156.2209 H   0  0  0  0  0  0  0  0  0  0  0  0
  151.1326  132.0346  157.2594 H   0  0  0  0  0  0  0  0  0  0  0  0
  148.8875  132.4840  156.3937 H   0  0  0  0  0  0  0  0  0  0  0  0
  150.1504  132.6148  152.8674 H   0  0  0  0  0  0  0  0  0  0  0  0
  148.7785  131.5365  153.1287 H   0  0  0  0  0  0  0  0  0  0  0  0
  148.3439  134.2213  153.0983 H   0  0  0  0  0  0  0  0  0  0  0  0
  147.5395  133.2033  154.2797 H   0  0  0  0  0  0  0  0  0  0  0  0
  147.8883  134.2901  156.4235 H   0  0  0  0  0  0  0  0  0  0  0  0
  151.3801  134.4889  154.5316 H   0  0  0  0  0  0  0  0  0  0  0  0
  150.2575  135.5185  153.6859 H   0  0  0  0  0  0  0  0  0  0  0  0
  151.3134  135.0697  157.3767 H   0  0  0  0  0  0  0  0  0  0  0  0
  152.7237  138.8399  158.5022 H   0  0  0  0  0  0  0  0  0  0  0  0
  153.5127  140.2368  157.7885 H   0  0  0  0  0  0  0  0  0  0  0  0
  151.9602  140.1618  160.4279 H   0  0  0  0  0  0  0  0  0  0  0  0
  153.6881  140.3730  160.2491 H   0  0  0  0  0  0  0  0  0  0  0  0
  152.2273  144.5888  161.7987 H   0  0  0  0  0  0  0  0  0  0  0  0
  153.4369  144.5359  160.5280 H   0  0  0  0  0  0  0  0  0  0  0  0
  150.2685  144.1373  158.2022 H   0  0  0  0  0  0  0  0  0  0  0  0
  151.8867  142.1680  156.9270 H   0  0  0  0  0  0  0  0  0  0  0  0
  150.1689  141.8925  157.1147 H   0  0  0  0  0  0  0  0  0  0  0  0
  150.1636  140.0615  153.4761 H   0  0  0  0  0  0  0  0  0  0  0  0
  1  2  1  0  0  0  0
  1 31  1  0  0  0  0
  1 32  1  0  0  0  0
  1 33  1  0  0  0  0
  2  6  1  0  0  0  0
  2  3  1  0  0  0  0
  2 34  1  0  0  0  0
  3  4  1  0  0  0  0
  4  5  1  0  0  0  0
  4 35  1  0  0  0  0
  4 36  1  0  0  0  0
  5  6  1  0  0  0  0
  5 37  1  0  0  0  0
  5 38  1  0  0  0  0
  6  7  1  0  0  0  0
  6  8  1  0  0  0  0
  7 39  1  0  0  0  0
  8  9  1  0  0  0  0
  8 40  1  0  0  0  0
  8 41  1  0  0  0  0
  9 28  1  0  0  0  0
  9 10  1  0  0  0  0
 10 11  2  0  0  0  0
 10 42  1  0  0  0  0
 11 12  1  0  0  0  0
 12 28  2  0  0  0  0
 12 13  1  0  0  0  0
 13 14  1  0  0  0  0
 13 25  2  0  0  0  0
 14 24  1  0  0  0  0
 14 15  1  0  0  0  0
 15 16  1  0  0  0  0
 15 43  1  0  0  0  0
 15 44  1  0  0  0  0
 16 17  1  0  0  0  0
 16 45  1  0  0  0  0
 16 46  1  0  0  0  0
 17 29  1  0  0  0  0
 17 23  1  0  0  0  0
 17 18  1  0  0  0  0
 18 19  1  0  0  0  0
 19 20  1  0  0  0  0
 19 47  1  0  0  0  0
 19 48  1  0  0  0  0
 20 21  2  0  0  0  0
 20 22  1  0  0  0  0
 22 23  1  0  0  0  0
 22 49  1  0  0  0  0
 23 30  1  0  0  0  0
 23 24  1  0  0  0  0
 24 50  1  0  0  0  0
 24 51  1  0  0  0  0
 25 26  1  0  0  0  0
 26 27  2  0  0  0  0
 26 52  1  0  0  0  0
 27 28  1  0  0  0  0
M  END
> <s_m_source_file>
AV-unprocessed.smi

> <i_m_source_file_index>
265

> <i_lp_mmshare_version>
43012

> <i_f3d_flags>
0

> <s_epik_input>
W0NIMl0xW0NIMl1PW0NAQEhdKFtDSDNdKVtDQEBdMShbT0hdKVtDSDJdbihbY0hdbjIpYyhjMjMpbltjSF1uYzNOKFtDSDJdW0NIMl00KVtDSDJdW0NAQEhdKFtDQEhdNDUpW05IXUMoPU8pW0NIMl1PNQ==

> <s_epik_cmdline>
J2VwaWtfcHl0aG9uJywgJy1waCcsICc3LjAnLCAnLXRuJywgJzgnLCAnLW1hJywgJzIwMCcsICctbWV0YWxfYmluZGluZycsICctaW1hZScsICc8aW5maWxlLm1hZT4nLCAnLW9tYWUnLCAnPG91dGZpbGUubWFlPic=

> <r_lp_tautomer_probability>
1

> <r_epik_Ionization_Penalty>
0.00221504

> <r_epik_Ionization_Penalty_Charging>
0

> <r_epik_Ionization_Penalty_Neutral>
0.00221504

> <r_epik_State_Penalty>
-0

> <r_epik_Charging_Adjusted_Penalty>
0

> <i_epik_Tot_Q>
0

> <i_epik_Tot_abs_Q>
0

> <r_epik_Metal_State_Penalty>
-0

> <b_epik_Metal_Only>
0

> <s_lp_Force_Field>
OPLS_2005

> <r_lp_Energy>
45.3858

> <b_lp_Chiralities_Consistent>
1

> <s_lp_Variant>
AV-unprocessed.smi:265-1

> <Gold.Version>
5.8.1

> <Gold.Id.Protein>
6NUR|6NUR_protein|mol2

> <Gold.PLP.Fitness>
42.2108

> <Gold.PLP.PLP>
-40.5097

> <Gold.PLP.part.hbond>
-2.6010

> <Gold.PLP.part.metal>
0.0000

> <Gold.PLP.part.buried>
-6.8217

> <Gold.PLP.part.nonpolar>
-31.7247

> <Gold.PLP.part.repulsive>
0.5947

> <Gold.PLP.ligand.clash>
0.0000

> <Gold.PLP.ligand.torsion>
0.8610

> <Gold.PLP.Chemscore.Hbond>
0.0000

> <Gold.PLP.Chemscore.CHOScore>
1.0000

> <Gold.PLP.Chemscore.Metal>
0.0000

> <Gold.Chemscore.Hbonds>
donor molecule, donor type, donor heavy atom, donor atom, acceptor molecule, acceptor atom, score
      L1  C    26    52       P1  7957  1.00

> <Gold.PLP.Chemscore.Internal.Correction>
0.4232

> <Gold.Rescore>
     Score         DG    S(hbond)    S(metal)    S(lipo)     H(rot)  DE(clash)    DE(int)     intcor
      8.21      -9.15       0.00        0.00      80.48       2.25       0.03       0.91       ----

> <Gold.Chemscore.Fitness>
8.2092

> <Gold.Chemscore.DG>
-9.1482

> <Gold.Chemscore.ZeroCoef>
-5.4800

> <Gold.Chemscore.Hbond>
0.0000

> <Gold.Chemscore.Metal>
0.0000

> <Gold.Chemscore.Lipo>
80.4797

> <Gold.Chemscore.Internal_Hbond>
0.0000

> <Gold.Chemscore.DEClash>
0.0292

> <Gold.Chemscore.DEInternal>
0.9098

> <Gold.Chemscore.Rot>
2.2453

> <Gold.Chemscore.Internal.Correction>
   9.000000E+99

> <Gold.Chemscore.Hbond.Weighted>
-0.0000

> <Gold.Chemscore.Metal.Weighted>
-0.0000

> <Gold.Chemscore.Lipo.Weighted>
-9.4161

> <Gold.Chemscore.Internal_Hbond.Weighted>
0.0000

> <Gold.Chemscore.DEClash.Weighted>
0.0292

> <Gold.Chemscore.DEInternal.Weighted>
0.9098

> <Gold.Chemscore.Rot.Weighted>
5.7479

> <Gold.Chemscore.Internal.Correction.Weighted>
   9.000000E+99

> <Gold.Protein.RotatedTorsions>
[ 6907 6896 6895 6894 ] final   42.98 input  -60.11 | X-H torsion
[ 7974 7965 7964 7962 ] final -176.32 input  175.53 | X-H torsion
[ 8008 7997 7996 7995 ] final   13.60 input   59.86 | X-H torsion
[ 10167 10162 10161 10158 ] final  -54.53 input  -65.29 | X-H torsion
[ 10718 10713 10712 10709 ] final   32.17 input   66.30 | X-H torsion
[ 10763 10752 10751 10750 ] final   15.80 input  -60.55 | X-H torsion
[ 11005 11000 10999 10996 ] final -156.64 input  -57.11 | X-H torsion

> <Gold.Protein.ActiveResidues>
 VAL166  LYS551  ARG553  GLY616  TRP617  ASP618  TYR619  PRO620  LYS621  CYS622 
 ASP623  PHE694  ASN695  SER759  ASP760  ASP761  ALA762  ILE779  LEU786  VAL792 
 PHE793  MET794  SER795  GLU796  ALA797  LYS798  CYS799  TRP800  GLU811  SER814 

> <Gold.Protein.RotatedAtoms>
  152.2146  134.8470  160.0493 H   0  0  0  0  0  0  0  0  0  0  0  0  # atno 6907 bound_to 6896
  151.9276  133.3597  159.3927 H   0  0  0  0  0  0  0  0  0  0  0  0  # atno 6908 bound_to 6896
  150.6984  134.4496  159.5374 H   0  0  0  0  0  0  0  0  0  0  0  0  # atno 6909 bound_to 6896
  144.7127  140.1189  143.6406 H   0  0  0  0  0  0  0  0  0  0  0  0  # atno 7974 bound_to 7965
  154.8368  140.2908  155.5686 H   0  0  0  0  0  0  0  0  0  0  0  0  # atno 8008 bound_to 7997
  156.3009  140.2521  156.3234 H   0  0  0  0  0  0  0  0  0  0  0  0  # atno 8009 bound_to 7997
  154.9170  140.0387  157.1966 H   0  0  0  0  0  0  0  0  0  0  0  0  # atno 8010 bound_to 7997
  140.6425  143.2516  151.4949 H   0  0  0  0  0  0  0  0  0  0  0  0  # atno 10167 bound_to 10162
  157.2818  130.7259  149.6561 H   0  0  0  0  0  0  0  0  0  0  0  0  # atno 10718 bound_to 10713
  153.1490  135.6775  153.8910 H   0  0  0  0  0  0  0  0  0  0  0  0  # atno 10763 bound_to 10752
  153.8343  135.3113  155.3422 H   0  0  0  0  0  0  0  0  0  0  0  0  # atno 10764 bound_to 10752
  154.7848  135.4868  154.0007 H   0  0  0  0  0  0  0  0  0  0  0  0  # atno 10765 bound_to 10752
  140.6733  134.4223  157.5230 H   0  0  0  0  0  0  0  0  0  0  0  0  # atno 11005 bound_to 11000
  145.9389  139.2655  143.1280 LP  0  0  0  0  0  0  0  0  0  0  0  0  # atno 17320 bound_to 7965
  145.9445  140.8955  143.0291 LP  0  0  0  0  0  0  0  0  0  0  0  0  # atno 17321 bound_to 7965
  139.5635  144.2099  152.1728 LP  0  0  0  0  0  0  0  0  0  0  0  0  # atno 17342 bound_to 10162
  140.1374  144.5233  150.6765 LP  0  0  0  0  0  0  0  0  0  0  0  0  # atno 17343 bound_to 10162
  155.9664  130.4336  150.5012 LP  0  0  0  0  0  0  0  0  0  0  0  0  # atno 17370 bound_to 10713
  157.2957  131.0635  151.2103 LP  0  0  0  0  0  0  0  0  0  0  0  0  # atno 17371 bound_to 10713
  139.8974  134.8636  156.2044 LP  0  0  0  0  0  0  0  0  0  0  0  0  # atno 17394 bound_to 11000
  141.0375  133.6955  156.1538 LP  0  0  0  0  0  0  0  0  0  0  0  0  # atno 17395 bound_to 11000

$$$$
