AV-unprocessed.smi:1368|AV-procd|sdf|5575|dock8
  -GOLD-   22720 5173D 1   1.00000     0.00000
 Structure written by MMmdl.
 46 48  0  0  0  0  0  0  0  0  1 V2000
  142.1320  147.2570  155.2754 C   0  0  0  0  0  0  0  0  0  0  0  0
  143.1458  146.3596  154.5722 C   0  0  0  0  0  0  0  0  0  0  0  0
  143.4656  146.6095  153.4110 O   0  0  0  0  0  0  0  0  0  0  0  0
  143.6039  145.3195  155.2939 N   0  0  0  0  0  0  0  0  0  0  0  0
  144.5512  144.3236  154.9287 C   0  0  0  0  0  0  0  0  0  0  0  0
  145.0750  144.3822  153.6216 C   0  0  0  0  0  0  0  0  0  0  0  0
  146.0050  143.4222  153.1797 C   0  0  0  0  0  0  0  0  0  0  0  0
  146.4251  142.3791  154.0286 C   0  0  0  0  0  0  0  0  0  0  0  0
  147.3395  141.4837  153.5163 O   0  0  0  0  0  0  0  0  0  0  0  0
  147.7509  140.3990  154.3379 C   0  0  0  0  0  0  0  0  0  0  0  0
  149.1201  140.7274  154.9539 C   0  0  2  0  0  0  0  0  0  0  0  0
  150.1221  140.4175  154.0052 O   0  0  0  0  0  0  0  0  0  0  0  0
  149.3735  139.9185  156.2425 C   0  0  0  0  0  0  0  0  0  0  0  0
  150.6231  140.2744  156.9022 N   0  0  0  0  0  0  0  0  0  0  0  0
  151.7784  139.5659  156.9392 C   0  0  0  0  0  0  0  0  0  0  0  0
  151.9151  138.2416  156.2574 C   0  0  0  0  0  0  0  0  0  0  0  0
  152.7827  140.1247  157.6145 N   0  0  0  0  0  0  0  0  0  0  0  0
  152.2275  141.3100  158.0567 C   0  0  0  0  0  0  0  0  0  0  0  0
  152.7856  142.3540  158.8289 C   0  0  0  0  0  0  0  0  0  0  0  0
  152.0139  143.4862  159.1628 C   0  0  0  0  0  0  0  0  0  0  0  0
  150.6757  143.5906  158.7311 C   0  0  0  0  0  0  0  0  0  0  0  0
  150.1006  142.5627  157.9595 C   0  0  0  0  0  0  0  0  0  0  0  0
  150.8753  141.4349  157.6280 C   0  0  0  0  0  0  0  0  0  0  0  0
  145.8870  142.3101  155.3377 C   0  0  0  0  0  0  0  0  0  0  0  0
  144.9566  143.2697  155.7819 C   0  0  0  0  0  0  0  0  0  0  0  0
  142.2857  147.2564  156.3551 H   0  0  0  0  0  0  0  0  0  0  0  0
  141.1181  146.9120  155.0711 H   0  0  0  0  0  0  0  0  0  0  0  0
  142.2218  148.2847  154.9220 H   0  0  0  0  0  0  0  0  0  0  0  0
  143.1816  145.1984  156.2029 H   0  0  0  0  0  0  0  0  0  0  0  0
  144.7688  145.1705  152.9492 H   0  0  0  0  0  0  0  0  0  0  0  0
  146.4004  143.4872  152.1764 H   0  0  0  0  0  0  0  0  0  0  0  0
  147.0171  140.2785  155.1366 H   0  0  0  0  0  0  0  0  0  0  0  0
  147.7926  139.4618  153.7794 H   0  0  0  0  0  0  0  0  0  0  0  0
  149.1708  141.7920  155.1834 H   0  0  0  0  0  0  0  0  0  0  0  0
  149.7187  140.3588  153.1524 H   0  0  0  0  0  0  0  0  0  0  0  0
  148.5538  140.0627  156.9466 H   0  0  0  0  0  0  0  0  0  0  0  0
  149.3918  138.8510  156.0192 H   0  0  0  0  0  0  0  0  0  0  0  0
  152.9086  137.8253  156.4279 H   0  0  0  0  0  0  0  0  0  0  0  0
  151.7710  138.3532  155.1828 H   0  0  0  0  0  0  0  0  0  0  0  0
  151.1787  137.5369  156.6432 H   0  0  0  0  0  0  0  0  0  0  0  0
  153.8097  142.2833  159.1651 H   0  0  0  0  0  0  0  0  0  0  0  0
  152.4504  144.2781  159.7536 H   0  0  0  0  0  0  0  0  0  0  0  0
  150.0904  144.4599  158.9931 H   0  0  0  0  0  0  0  0  0  0  0  0
  149.0753  142.6377  157.6291 H   0  0  0  0  0  0  0  0  0  0  0  0
  146.1680  141.5258  156.0238 H   0  0  0  0  0  0  0  0  0  0  0  0
  144.5588  143.1651  156.7791 H   0  0  0  0  0  0  0  0  0  0  0  0
  1  2  1  0  0  0  0
  1 26  1  0  0  0  0
  1 27  1  0  0  0  0
  1 28  1  0  0  0  0
  2  3  2  0  0  0  0
  2  4  1  0  0  0  0
  4  5  1  0  0  0  0
  4 29  1  0  0  0  0
  5 25  1  0  0  0  0
  5  6  2  0  0  0  0
  6  7  1  0  0  0  0
  6 30  1  0  0  0  0
  7  8  2  0  0  0  0
  7 31  1  0  0  0  0
  8  9  1  0  0  0  0
  8 24  1  0  0  0  0
  9 10  1  0  0  0  0
 10 11  1  0  0  0  0
 10 32  1  0  0  0  0
 10 33  1  0  0  0  0
 11 12  1  0  0  0  0
 11 13  1  0  0  0  0
 11 34  1  0  0  0  0
 12 35  1  0  0  0  0
 13 14  1  0  0  0  0
 13 36  1  0  0  0  0
 13 37  1  0  0  0  0
 14 23  1  0  0  0  0
 14 15  1  0  0  0  0
 15 16  1  0  0  0  0
 15 17  2  0  0  0  0
 16 38  1  0  0  0  0
 16 39  1  0  0  0  0
 16 40  1  0  0  0  0
 17 18  1  0  0  0  0
 18 23  2  0  0  0  0
 18 19  1  0  0  0  0
 19 20  2  0  0  0  0
 19 41  1  0  0  0  0
 20 21  1  0  0  0  0
 20 42  1  0  0  0  0
 21 22  2  0  0  0  0
 21 43  1  0  0  0  0
 22 23  1  0  0  0  0
 22 44  1  0  0  0  0
 24 25  2  0  0  0  0
 24 45  1  0  0  0  0
 25 46  1  0  0  0  0
M  END
> <s_m_source_file>
AV-unprocessed.smi

> <i_m_source_file_index>
1368

> <i_lp_mmshare_version>
43012

> <i_f3d_flags>
0

> <s_epik_input>
W0NIM11DKD1PKVtOSF1jMVtjSF1bY0hdYyhbY0hdW2NIXTEpT1tDSDJdW0NASF0oW09IXSlbQ0gyXW4oYyhuMilbQ0gzXSljKGMyMylbY0hdW2NIXVtjSF1bY0hdMw==

> <s_epik_cmdline>
J2VwaWtfcHl0aG9uJywgJy1waCcsICc3LjAnLCAnLXRuJywgJzgnLCAnLW1hJywgJzIwMCcsICctbWV0YWxfYmluZGluZycsICctaW1hZScsICc8aW5maWxlLm1hZT4nLCAnLW9tYWUnLCAnPG91dGZpbGUubWFlPic=

> <r_lp_tautomer_probability>
1

> <r_epik_Ionization_Penalty>
0.119634

> <r_epik_Ionization_Penalty_Charging>
0

> <r_epik_Ionization_Penalty_Neutral>
0.119634

> <r_epik_State_Penalty>
0.10919

> <r_epik_Charging_Adjusted_Penalty>
0.10919

> <i_epik_Tot_Q>
0

> <i_epik_Tot_abs_Q>
0

> <r_epik_Metal_State_Penalty>
0.0906856

> <b_epik_Metal_Only>
0

> <s_lp_Force_Field>
OPLS_2005

> <r_lp_Energy>
21.7849

> <b_lp_Chiralities_Consistent>
1

> <s_lp_Variant>
AV-unprocessed.smi:1368-1

> <Gold.Version>
5.8.1

> <Gold.Id.Protein>
6NUR|6NUR_protein|mol2

> <Gold.PLP.Fitness>
51.3026

> <Gold.PLP.PLP>
-44.9626

> <Gold.PLP.part.hbond>
-4.8176

> <Gold.PLP.part.metal>
0.0000

> <Gold.PLP.part.buried>
-7.0463

> <Gold.PLP.part.nonpolar>
-32.3629

> <Gold.PLP.part.repulsive>
0.2759

> <Gold.PLP.ligand.clash>
0.0000

> <Gold.PLP.ligand.torsion>
0.6970

> <Gold.PLP.Chemscore.Hbond>
2.5630

> <Gold.PLP.Chemscore.CHOScore>
0.0000

> <Gold.PLP.Chemscore.Metal>
0.0000

> <Gold.Chemscore.Hbonds>
donor molecule, donor type, donor heavy atom, donor atom, acceptor molecule, acceptor atom, score
      L1  H    12    35       P1  7957  1.00
      P1  H  7989  7998       L1    12  0.63
      P1  H  7997  8009       L1    17  1.00

> <Gold.PLP.Chemscore.Internal.Correction>
0.0450

> <Gold.Rescore>
     Score         DG    S(hbond)    S(metal)    S(lipo)     H(rot)  DE(clash)    DE(int)     intcor
     16.80     -19.28       2.11        0.00     110.14       2.39       0.22       2.26       ----

> <Gold.Chemscore.Fitness>
16.8030

> <Gold.Chemscore.DG>
-19.2820

> <Gold.Chemscore.ZeroCoef>
-5.4800

> <Gold.Chemscore.Hbond>
2.1069

> <Gold.Chemscore.Metal>
0.0000

> <Gold.Chemscore.Lipo>
110.1450

> <Gold.Chemscore.Internal_Hbond>
0.0000

> <Gold.Chemscore.DEClash>
0.2213

> <Gold.Chemscore.DEInternal>
2.2577

> <Gold.Chemscore.Rot>
2.3914

> <Gold.Chemscore.Internal.Correction>
   9.000000E+99

> <Gold.Chemscore.Hbonds>
donor molecule, donor type, donor heavy atom, donor atom, acceptor molecule, acceptor atom, score
      L1  H    12    35       P1  7957  0.93
      P1  H  7989  7998       L1    12  0.09
      P1  H  7997  8009       L1    17  0.88

> <Gold.Chemscore.Hbond.Weighted>
-7.0370

> <Gold.Chemscore.Metal.Weighted>
-0.0000

> <Gold.Chemscore.Lipo.Weighted>
-12.8870

> <Gold.Chemscore.Internal_Hbond.Weighted>
0.0000

> <Gold.Chemscore.DEClash.Weighted>
0.2213

> <Gold.Chemscore.DEInternal.Weighted>
2.2577

> <Gold.Chemscore.Rot.Weighted>
6.1220

> <Gold.Chemscore.Internal.Correction.Weighted>
   9.000000E+99

> <Gold.Protein.RotatedTorsions>
[ 6907 6896 6895 6894 ] final  -79.37 input  -60.11 | X-H torsion
[ 7974 7965 7964 7962 ] final  -99.84 input  175.53 | X-H torsion
[ 8008 7997 7996 7995 ] final  171.68 input   59.86 | X-H torsion
[ 10167 10162 10161 10158 ] final  123.92 input  -65.29 | X-H torsion
[ 10718 10713 10712 10709 ] final  156.42 input   66.30 | X-H torsion
[ 10763 10752 10751 10750 ] final  -62.62 input  -60.55 | X-H torsion
[ 11005 11000 10999 10996 ] final -104.70 input  -57.11 | X-H torsion

> <Gold.Protein.ActiveResidues>
 VAL166  LYS551  ARG553  GLY616  TRP617  ASP618  TYR619  PRO620  LYS621  CYS622 
 ASP623  PHE694  ASN695  SER759  ASP760  ASP761  ALA762  ILE779  LEU786  VAL792 
 PHE793  MET794  SER795  GLU796  ALA797  LYS798  CYS799  TRP800  GLU811  SER814 

> <Gold.Protein.RotatedAtoms>
  150.6951  134.4131  159.5170 H   0  0  0  0  0  0  0  0  0  0  0  0  # atno 6907 bound_to 6896
  152.1886  134.8689  160.0529 H   0  0  0  0  0  0  0  0  0  0  0  0  # atno 6908 bound_to 6896
  151.9653  133.3673  159.4087 H   0  0  0  0  0  0  0  0  0  0  0  0  # atno 6909 bound_to 6896
  145.3023  140.9380  143.2816 H   0  0  0  0  0  0  0  0  0  0  0  0  # atno 7974 bound_to 7965
  156.1248  140.1505  156.9152 H   0  0  0  0  0  0  0  0  0  0  0  0  # atno 8008 bound_to 7997
  154.4863  140.0864  156.7534 H   0  0  0  0  0  0  0  0  0  0  0  0  # atno 8009 bound_to 7997
  155.4364  140.3429  155.4287 H   0  0  0  0  0  0  0  0  0  0  0  0  # atno 8010 bound_to 7997
  139.5771  144.6969  151.3624 H   0  0  0  0  0  0  0  0  0  0  0  0  # atno 10167 bound_to 10162
  157.2051  131.0685  151.2002 H   0  0  0  0  0  0  0  0  0  0  0  0  # atno 10718 bound_to 10713
  154.3026  135.6231  153.5431 H   0  0  0  0  0  0  0  0  0  0  0  0  # atno 10763 bound_to 10752
  152.9838  135.5682  154.5267 H   0  0  0  0  0  0  0  0  0  0  0  0  # atno 10764 bound_to 10752
  154.4900  135.2867  155.1480 H   0  0  0  0  0  0  0  0  0  0  0  0  # atno 10765 bound_to 10752
  141.1088  133.8745  157.1643 H   0  0  0  0  0  0  0  0  0  0  0  0  # atno 11005 bound_to 11000
  144.9083  139.4561  143.6599 LP  0  0  0  0  0  0  0  0  0  0  0  0  # atno 17320 bound_to 7965
  146.3147  139.7877  142.8992 LP  0  0  0  0  0  0  0  0  0  0  0  0  # atno 17321 bound_to 7965
  140.7053  143.7530  150.7471 LP  0  0  0  0  0  0  0  0  0  0  0  0  # atno 17342 bound_to 10162
  140.1052  143.4750  152.2402 LP  0  0  0  0  0  0  0  0  0  0  0  0  # atno 17343 bound_to 10162
  157.3728  130.7190  149.6576 LP  0  0  0  0  0  0  0  0  0  0  0  0  # atno 17370 bound_to 10713
  155.9696  130.4194  150.4373 LP  0  0  0  0  0  0  0  0  0  0  0  0  # atno 17371 bound_to 10713
  139.9971  135.0042  157.0107 LP  0  0  0  0  0  0  0  0  0  0  0  0  # atno 17394 bound_to 11000
  140.4831  134.1269  155.7220 LP  0  0  0  0  0  0  0  0  0  0  0  0  # atno 17395 bound_to 11000

$$$$
