AV-unprocessed.smi:63|AV-procd|sdf|607|dock10
  -GOLD-   2262016503D 1   1.00000     0.00000
 Structure written by MMmdl.
 29 30  0  0  0  0  0  0  0  0  1 V2000
  151.7796  144.7784  159.9630 C   0  0  0  0  0  0  0  0  0  0  0  0
  151.6757  143.5016  159.1556 C   0  0  0  0  0  0  0  0  0  0  0  0
  152.2990  142.3193  159.5949 C   0  0  0  0  0  0  0  0  0  0  0  0
  152.1592  141.1786  158.7862 C   0  0  0  0  0  0  0  0  0  0  0  0
  151.4079  141.2971  157.5945 C   0  0  0  0  0  0  0  0  0  0  0  0
  151.2445  140.1818  156.7452 N   0  0  0  0  0  0  0  0  0  0  0  0
  152.1348  139.0471  156.9690 C   0  0  0  0  0  0  0  0  0  0  0  0
  152.4475  138.4674  155.5871 C   0  0  0  0  0  0  0  0  0  0  0  0
  151.2963  138.9637  154.7192 C   0  0  0  0  0  0  0  0  0  0  0  0
  150.9899  140.3420  155.3141 C   0  0  1  0  0  0  0  0  0  0  0  0
  149.5596  140.8291  155.0056 C   0  0  0  0  0  0  0  0  0  0  0  0
  149.4233  141.0918  153.6254 O   0  0  0  0  0  0  0  0  0  0  0  0
  150.8355  142.4763  157.2406 N   0  0  0  0  0  0  0  0  0  0  0  0
  150.9656  143.5644  158.0069 N   0  0  0  0  0  0  0  0  0  0  0  0
  151.5382  144.5867  161.0089 H   0  0  0  0  0  0  0  0  0  0  0  0
  151.0954  145.5424  159.5914 H   0  0  0  0  0  0  0  0  0  0  0  0
  152.7942  145.1739  159.9112 H   0  0  0  0  0  0  0  0  0  0  0  0
  152.8623  142.2869  160.5159 H   0  0  0  0  0  0  0  0  0  0  0  0
  152.6128  140.2436  159.0803 H   0  0  0  0  0  0  0  0  0  0  0  0
  153.0522  139.3297  157.4872 H   0  0  0  0  0  0  0  0  0  0  0  0
  151.6127  138.3118  157.5822 H   0  0  0  0  0  0  0  0  0  0  0  0
  153.3868  138.8825  155.2193 H   0  0  0  0  0  0  0  0  0  0  0  0
  152.5395  137.3810  155.5939 H   0  0  0  0  0  0  0  0  0  0  0  0
  151.5517  139.0063  153.6602 H   0  0  0  0  0  0  0  0  0  0  0  0
  150.4393  138.2981  154.8336 H   0  0  0  0  0  0  0  0  0  0  0  0
  151.7126  141.0580  154.9189 H   0  0  0  0  0  0  0  0  0  0  0  0
  148.8219  140.0840  155.3052 H   0  0  0  0  0  0  0  0  0  0  0  0
  149.3241  141.7455  155.5458 H   0  0  0  0  0  0  0  0  0  0  0  0
  149.6499  140.3086  153.1476 H   0  0  0  0  0  0  0  0  0  0  0  0
  1  2  1  0  0  0  0
  1 15  1  0  0  0  0
  1 16  1  0  0  0  0
  1 17  1  0  0  0  0
  2 14  1  0  0  0  0
  2  3  2  0  0  0  0
  3  4  1  0  0  0  0
  3 18  1  0  0  0  0
  4  5  2  0  0  0  0
  4 19  1  0  0  0  0
  5  6  1  0  0  0  0
  5 13  1  0  0  0  0
  6 10  1  0  0  0  0
  6  7  1  0  0  0  0
  7  8  1  0  0  0  0
  7 20  1  0  0  0  0
  7 21  1  0  0  0  0
  8  9  1  0  0  0  0
  8 22  1  0  0  0  0
  8 23  1  0  0  0  0
  9 10  1  0  0  0  0
  9 24  1  0  0  0  0
  9 25  1  0  0  0  0
 10 11  1  0  0  0  0
 10 26  1  0  0  0  0
 11 12  1  0  0  0  0
 11 27  1  0  0  0  0
 11 28  1  0  0  0  0
 12 29  1  0  0  0  0
 13 14  2  0  0  0  0
M  END
> <s_m_source_file>
AV-unprocessed.smi

> <i_m_source_file_index>
63

> <i_lp_mmshare_version>
43012

> <i_f3d_flags>
0

> <s_epik_input>
W0NIM11jMVtjSF1bY0hdYyhubjEpTjJbQ0gyXVtDSDJdW0NIMl1bQ0BIXTJbQ0gyXVtPSF0=

> <s_epik_cmdline>
J2VwaWtfcHl0aG9uJywgJy1waCcsICc3LjAnLCAnLXRuJywgJzgnLCAnLW1hJywgJzIwMCcsICctbWV0YWxfYmluZGluZycsICctaW1hZScsICc8aW5maWxlLm1hZT4nLCAnLW9tYWUnLCAnPG91dGZpbGUubWFlPic=

> <r_lp_tautomer_probability>
1

> <r_epik_Ionization_Penalty>
4.30639e-05

> <r_epik_Ionization_Penalty_Charging>
0

> <r_epik_Ionization_Penalty_Neutral>
4.30639e-05

> <r_epik_State_Penalty>
-0

> <r_epik_Charging_Adjusted_Penalty>
0

> <i_epik_Tot_Q>
0

> <i_epik_Tot_abs_Q>
0

> <r_epik_Metal_State_Penalty>
-0

> <b_epik_Metal_Only>
0

> <s_lp_Force_Field>
OPLS_2005

> <r_lp_Energy>
32.9321

> <b_lp_Chiralities_Consistent>
1

> <s_lp_Variant>
AV-unprocessed.smi:63-1

> <Gold.Version>
5.8.1

> <Gold.Id.Protein>
6NUR|6NUR_protein|mol2

> <Gold.PLP.Fitness>
35.1555

> <Gold.PLP.PLP>
-31.2783

> <Gold.PLP.part.hbond>
-3.0000

> <Gold.PLP.part.metal>
0.0000

> <Gold.PLP.part.buried>
-2.1648

> <Gold.PLP.part.nonpolar>
-26.0444

> <Gold.PLP.part.repulsive>
0.2448

> <Gold.PLP.ligand.clash>
0.0000

> <Gold.PLP.ligand.torsion>
0.5666

> <Gold.PLP.Chemscore.Hbond>
1.5520

> <Gold.PLP.Chemscore.CHOScore>
0.0000

> <Gold.PLP.Chemscore.Metal>
0.0000

> <Gold.Chemscore.Hbonds>
donor molecule, donor type, donor heavy atom, donor atom, acceptor molecule, acceptor atom, score
      L1  H    12    29       P1  7957  0.54
      P1  H  8011  8017       L1    12  0.99

> <Gold.PLP.Chemscore.Internal.Correction>
0.3545

> <Gold.Rescore>
     Score         DG    S(hbond)    S(metal)    S(lipo)     H(rot)  DE(clash)    DE(int)     intcor
     12.99     -13.85       1.19        0.00      75.01       1.71       0.37       0.48       ----

> <Gold.Chemscore.Fitness>
12.9931

> <Gold.Chemscore.DG>
-13.8493

> <Gold.Chemscore.ZeroCoef>
-5.4800

> <Gold.Chemscore.Hbond>
1.1917

> <Gold.Chemscore.Metal>
0.0000

> <Gold.Chemscore.Lipo>
75.0110

> <Gold.Chemscore.Internal_Hbond>
0.0000

> <Gold.Chemscore.DEClash>
0.3733

> <Gold.Chemscore.DEInternal>
0.4829

> <Gold.Chemscore.Rot>
1.7138

> <Gold.Chemscore.Internal.Correction>
   9.000000E+99

> <Gold.Chemscore.Hbonds>
donor molecule, donor type, donor heavy atom, donor atom, acceptor molecule, acceptor atom, score
      L1  H    12    29       P1  7957  0.52
      P1  H  8011  8017       L1    12  0.28

> <Gold.Chemscore.Hbond.Weighted>
-3.9803

> <Gold.Chemscore.Metal.Weighted>
-0.0000

> <Gold.Chemscore.Lipo.Weighted>
-8.7763

> <Gold.Chemscore.Internal_Hbond.Weighted>
0.0000

> <Gold.Chemscore.DEClash.Weighted>
0.3733

> <Gold.Chemscore.DEInternal.Weighted>
0.4829

> <Gold.Chemscore.Rot.Weighted>
4.3872

> <Gold.Chemscore.Internal.Correction.Weighted>
   9.000000E+99

> <Gold.Protein.RotatedTorsions>
[ 6907 6896 6895 6894 ] final -100.72 input  -60.11 | X-H torsion
[ 7974 7965 7964 7962 ] final   18.34 input  175.53 | X-H torsion
[ 8008 7997 7996 7995 ] final  111.63 input   59.86 | X-H torsion
[ 10167 10162 10161 10158 ] final   95.45 input  -65.29 | X-H torsion
[ 10718 10713 10712 10709 ] final  -29.71 input   66.30 | X-H torsion
[ 10763 10752 10751 10750 ] final  154.01 input  -60.55 | X-H torsion
[ 11005 11000 10999 10996 ] final  -71.04 input  -57.11 | X-H torsion

> <Gold.Protein.ActiveResidues>
 VAL166  LYS551  ARG553  GLY616  TRP617  ASP618  TYR619  PRO620  LYS621  CYS622 
 ASP623  PHE694  ASN695  SER759  ASP760  ASP761  ALA762  ILE779  LEU786  VAL792 
 PHE793  MET794  SER795  GLU796  ALA797  LYS798  CYS799  TRP800  GLU811  SER814 

> <Gold.Protein.RotatedAtoms>
  150.7126  134.0844  159.3909 H   0  0  0  0  0  0  0  0  0  0  0  0  # atno 6907 bound_to 6896
  151.8829  135.0444  160.0500 H   0  0  0  0  0  0  0  0  0  0  0  0  # atno 6908 bound_to 6896
  152.2553  133.5215  159.5386 H   0  0  0  0  0  0  0  0  0  0  0  0  # atno 6909 bound_to 6896
  146.2188  139.8472  142.8629 H   0  0  0  0  0  0  0  0  0  0  0  0  # atno 7974 bound_to 7965
  156.2137  140.3015  155.9791 H   0  0  0  0  0  0  0  0  0  0  0  0  # atno 8008 bound_to 7997
  155.2659  140.0431  157.3019 H   0  0  0  0  0  0  0  0  0  0  0  0  # atno 8009 bound_to 7997
  154.5736  140.2355  155.8163 H   0  0  0  0  0  0  0  0  0  0  0  0  # atno 8010 bound_to 7997
  139.7988  144.6822  150.9793 H   0  0  0  0  0  0  0  0  0  0  0  0  # atno 10167 bound_to 10162
  156.4090  130.4404  149.7266 H   0  0  0  0  0  0  0  0  0  0  0  0  # atno 10718 bound_to 10713
  154.1455  135.2818  155.3149 H   0  0  0  0  0  0  0  0  0  0  0  0  # atno 10763 bound_to 10752
  154.6256  135.5453  153.7626 H   0  0  0  0  0  0  0  0  0  0  0  0  # atno 10764 bound_to 10752
  153.0237  135.6450  154.1601 H   0  0  0  0  0  0  0  0  0  0  0  0  # atno 10765 bound_to 10752
  141.1585  133.6806  156.6845 H   0  0  0  0  0  0  0  0  0  0  0  0  # atno 11005 bound_to 11000
  145.2839  141.0147  143.3702 LP  0  0  0  0  0  0  0  0  0  0  0  0  # atno 17320 bound_to 7965
  144.9129  139.4506  143.6578 LP  0  0  0  0  0  0  0  0  0  0  0  0  # atno 17321 bound_to 7965
  140.7820  143.4304  151.0704 LP  0  0  0  0  0  0  0  0  0  0  0  0  # atno 17342 bound_to 10162
  139.7977  143.8129  152.3159 LP  0  0  0  0  0  0  0  0  0  0  0  0  # atno 17343 bound_to 10162
  156.4252  130.7788  151.2806 LP  0  0  0  0  0  0  0  0  0  0  0  0  # atno 17370 bound_to 10713
  157.7506  131.0171  150.3570 LP  0  0  0  0  0  0  0  0  0  0  0  0  # atno 17371 bound_to 10713
  140.3077  134.8111  157.4151 LP  0  0  0  0  0  0  0  0  0  0  0  0  # atno 17394 bound_to 11000
  140.1205  134.5225  155.8187 LP  0  0  0  0  0  0  0  0  0  0  0  0  # atno 17395 bound_to 11000

$$$$
