AV-unprocessed.smi:2271|AV-procd|sdf|9161|dock4
  -GOLD-   2272012373D 1   1.00000     0.00000
 Structure written by MMmdl.
 46 47  0  0  0  0  0  0  0  0  2 V2000
  153.4990  141.2659  160.3580 C   0  0  0  0  0  0  0  0  0  0  0  0
  152.6945  142.4208  159.7998 C   0  0  0  0  0  0  0  0  0  0  0  0
  152.7753  143.7049  160.3731 C   0  0  0  0  0  0  0  0  0  0  0  0
  152.0038  144.7343  159.8048 C   0  0  0  0  0  0  0  0  0  0  0  0
  151.1895  144.4397  158.6945 C   0  0  0  0  0  0  0  0  0  0  0  0
  151.1652  143.1237  158.1802 C   0  0  0  0  0  0  0  0  0  0  0  0
  150.3151  142.9300  157.0589 N   0  0  0  0  0  0  0  0  0  0  0  0
  150.1912  141.8326  156.2920 C   0  0  0  0  0  0  0  0  0  0  0  0
  150.7964  140.7734  156.4607 O   0  0  0  0  0  0  0  0  0  0  0  0
  149.3182  142.0326  155.2931 N   0  0  0  0  0  0  0  0  0  0  0  0
  148.9527  141.0474  154.2788 C   0  0  0  0  0  0  0  0  0  0  0  0
  147.6366  141.4077  153.5486 C   0  0  2  0  0  0  0  0  0  0  0  0
  146.4413  141.4849  154.5167 C   0  0  0  0  0  0  0  0  0  0  0  0
  145.9752  140.0926  154.9825 C   0  0  0  0  0  0  0  0  0  0  0  0
  145.6516  139.2128  153.8296 N   0  3  2  0  0  0  0  0  0  0  0  0
  145.0909  137.9069  154.2620 C   0  0  0  0  0  0  0  0  0  0  0  0
  144.6027  137.0478  153.0826 C   0  0  0  0  0  0  0  0  0  0  0  0
  143.5456  137.7010  152.4123 O   0  0  0  0  0  0  0  0  0  0  0  0
  146.8031  139.0809  152.8986 C   0  0  0  0  0  0  0  0  0  0  0  0
  147.2638  140.4582  152.3912 C   0  0  0  0  0  0  0  0  0  0  0  0
  151.9140  142.1379  158.7347 N   0  0  0  0  0  0  0  0  0  0  0  0
  153.9973  141.5439  161.2871 H   0  0  0  0  0  0  0  0  0  0  0  0
  154.2600  140.9552  159.6419 H   0  0  0  0  0  0  0  0  0  0  0  0
  152.8506  140.4135  160.5631 H   0  0  0  0  0  0  0  0  0  0  0  0
  153.4108  143.8994  161.2246 H   0  0  0  0  0  0  0  0  0  0  0  0
  152.0359  145.7337  160.2127 H   0  0  0  0  0  0  0  0  0  0  0  0
  150.5917  145.2197  158.2455 H   0  0  0  0  0  0  0  0  0  0  0  0
  149.7436  143.7227  156.8066 H   0  0  0  0  0  0  0  0  0  0  0  0
  148.8674  142.9340  155.2312 H   0  0  0  0  0  0  0  0  0  0  0  0
  149.7706  140.9001  153.5727 H   0  0  0  0  0  0  0  0  0  0  0  0
  148.8311  140.0925  154.7908 H   0  0  0  0  0  0  0  0  0  0  0  0
  147.7768  142.4030  153.1242 H   0  0  0  0  0  0  0  0  0  0  0  0
  146.6919  142.1036  155.3791 H   0  0  0  0  0  0  0  0  0  0  0  0
  145.6102  141.9863  154.0188 H   0  0  0  0  0  0  0  0  0  0  0  0
  146.7375  139.6190  155.6024 H   0  0  0  0  0  0  0  0  0  0  0  0
  145.0911  140.2094  155.6104 H   0  0  0  0  0  0  0  0  0  0  0  0
  145.8401  137.3651  154.8412 H   0  0  0  0  0  0  0  0  0  0  0  0
  144.2479  138.0716  154.9348 H   0  0  0  0  0  0  0  0  0  0  0  0
  145.4006  136.8183  152.3776 H   0  0  0  0  0  0  0  0  0  0  0  0
  144.2304  136.0926  153.4543 H   0  0  0  0  0  0  0  0  0  0  0  0
  143.8099  138.5897  152.2262 H   0  0  0  0  0  0  0  0  0  0  0  0
  147.6218  138.5625  153.3989 H   0  0  0  0  0  0  0  0  0  0  0  0
  146.5286  138.4702  152.0397 H   0  0  0  0  0  0  0  0  0  0  0  0
  146.4548  140.9056  151.8121 H   0  0  0  0  0  0  0  0  0  0  0  0
  148.0919  140.3447  151.6927 H   0  0  0  0  0  0  0  0  0  0  0  0
  144.9136  139.6786  153.3204 H   0  0  0  0  0  0  0  0  0  0  0  0
  1  2  1  0  0  0  0
  1 22  1  0  0  0  0
  1 23  1  0  0  0  0
  1 24  1  0  0  0  0
  2 21  1  0  0  0  0
  2  3  2  0  0  0  0
  3  4  1  0  0  0  0
  3 25  1  0  0  0  0
  4  5  2  0  0  0  0
  4 26  1  0  0  0  0
  5  6  1  0  0  0  0
  5 27  1  0  0  0  0
  6  7  1  0  0  0  0
  6 21  2  0  0  0  0
  7  8  1  0  0  0  0
  7 28  1  0  0  0  0
  8  9  2  0  0  0  0
  8 10  1  0  0  0  0
 10 11  1  0  0  0  0
 10 29  1  0  0  0  0
 11 12  1  0  0  0  0
 11 30  1  0  0  0  0
 11 31  1  0  0  0  0
 12 20  1  0  0  0  0
 12 13  1  0  0  0  0
 12 32  1  0  0  0  0
 13 14  1  0  0  0  0
 13 33  1  0  0  0  0
 13 34  1  0  0  0  0
 14 15  1  0  0  0  0
 14 35  1  0  0  0  0
 14 36  1  0  0  0  0
 15 16  1  0  0  0  0
 15 19  1  0  0  0  0
 15 46  1  0  0  0  0
 16 17  1  0  0  0  0
 16 37  1  0  0  0  0
 16 38  1  0  0  0  0
 17 18  1  0  0  0  0
 17 39  1  0  0  0  0
 17 40  1  0  0  0  0
 18 41  1  0  0  0  0
 19 20  1  0  0  0  0
 19 42  1  0  0  0  0
 19 43  1  0  0  0  0
 20 44  1  0  0  0  0
 20 45  1  0  0  0  0
M  CHG  1  15   1
M  END
> <s_m_source_file>
AV-unprocessed.smi

> <i_m_source_file_index>
2271

> <i_lp_mmshare_version>
43012

> <i_f3d_flags>
0

> <s_epik_input>
W0NIM11jMVtjSF1bY0hdW2NIXWMobjEpW05IXUMoPU8pW05IXVtDSDJdW0NIXTJbQ0gyXVtDSDJdTihbQ0gyXVtDSDJdMilbQ0gyXVtDSDJdW09IXQ==

> <s_epik_cmdline>
J2VwaWtfcHl0aG9uJywgJy1waCcsICc3LjAnLCAnLXRuJywgJzgnLCAnLW1hJywgJzIwMCcsICctbWV0YWxfYmluZGluZycsICctaW1hZScsICc8aW5maWxlLm1hZT4nLCAnLW9tYWUnLCAnPG91dGZpbGUubWFlPic=

> <r_epik_Ionization_Penalty>
0.00184663

> <r_epik_Ionization_Penalty_Charging>
0.00177223

> <r_epik_Ionization_Penalty_Neutral>
7.44064e-05

> <r_epik_State_Penalty>
0.00120075

> <r_epik_Charging_Adjusted_Penalty>
0.00297297

> <i_epik_Tot_Q>
1

> <i_epik_Tot_abs_Q>
1

> <r_epik_Metal_State_Penalty>
-0

> <b_epik_Metal_Only>
0

> <s_lp_Force_Field>
OPLS_2005

> <r_lp_Energy>
20.3482

> <b_lp_Chiralities_Consistent>
1

> <s_lp_Variant>
AV-unprocessed.smi:2271-2

> <Gold.Version>
5.8.1

> <Gold.Id.Protein>
6NUR|6NUR_protein|mol2

> <Gold.PLP.Fitness>
57.9451

> <Gold.PLP.PLP>
-43.2134

> <Gold.PLP.part.hbond>
-5.0000

> <Gold.PLP.part.metal>
0.0000

> <Gold.PLP.part.buried>
-4.1207

> <Gold.PLP.part.nonpolar>
-34.8100

> <Gold.PLP.part.repulsive>
0.2243

> <Gold.PLP.ligand.clash>
0.0000

> <Gold.PLP.ligand.torsion>
0.1481

> <Gold.PLP.Chemscore.Hbond>
4.9920

> <Gold.PLP.Chemscore.CHOScore>
0.0000

> <Gold.PLP.Chemscore.Metal>
0.0000

> <Gold.Chemscore.Hbonds>
donor molecule, donor type, donor heavy atom, donor atom, acceptor molecule, acceptor atom, score
      L1  H     7    28       P1  8028  1.00
      L1  H    10    29       P1  8028  0.99
      L1  H    15    46       P1 10175  2.00
      L1  H    18    41       P1 10175  1.00

> <Gold.PLP.Chemscore.Internal.Correction>
0.0519

> <Gold.Rescore>
     Score         DG    S(hbond)    S(metal)    S(lipo)     H(rot)  DE(clash)    DE(int)     intcor
     22.24     -23.88       3.95        0.00      96.78       2.39       0.22       1.42       ----

> <Gold.Chemscore.Fitness>
22.2385

> <Gold.Chemscore.DG>
-23.8821

> <Gold.Chemscore.ZeroCoef>
-5.4800

> <Gold.Chemscore.Hbond>
3.9540

> <Gold.Chemscore.Metal>
0.0000

> <Gold.Chemscore.Lipo>
96.7783

> <Gold.Chemscore.Internal_Hbond>
0.0000

> <Gold.Chemscore.DEClash>
0.2217

> <Gold.Chemscore.DEInternal>
1.4219

> <Gold.Chemscore.Rot>
2.3935

> <Gold.Chemscore.Internal.Correction>
   9.000000E+99

> <Gold.Chemscore.Hbonds>
donor molecule, donor type, donor heavy atom, donor atom, acceptor molecule, acceptor atom, score
      L1  H     7    28       P1  8028  0.96
      L1  H    10    29       P1  8028  0.93
      L1  H    15    46       P1 10175  1.00
      L1  H    18    41       P1 10175  0.96

> <Gold.Chemscore.Hbond.Weighted>
-13.2065

> <Gold.Chemscore.Metal.Weighted>
-0.0000

> <Gold.Chemscore.Lipo.Weighted>
-11.3231

> <Gold.Chemscore.Internal_Hbond.Weighted>
0.0000

> <Gold.Chemscore.DEClash.Weighted>
0.2217

> <Gold.Chemscore.DEInternal.Weighted>
1.4219

> <Gold.Chemscore.Rot.Weighted>
6.1274

> <Gold.Chemscore.Internal.Correction.Weighted>
   9.000000E+99

> <Gold.Protein.RotatedTorsions>
[ 6907 6896 6895 6894 ] final   -0.61 input  -60.11 | X-H torsion
[ 7974 7965 7964 7962 ] final   87.44 input  175.53 | X-H torsion
[ 8008 7997 7996 7995 ] final  171.41 input   59.86 | X-H torsion
[ 10167 10162 10161 10158 ] final -137.74 input  -65.29 | X-H torsion
[ 10718 10713 10712 10709 ] final  138.65 input   66.30 | X-H torsion
[ 10763 10752 10751 10750 ] final  157.84 input  -60.55 | X-H torsion
[ 11005 11000 10999 10996 ] final   69.72 input  -57.11 | X-H torsion

> <Gold.Protein.ActiveResidues>
 VAL166  LYS551  ARG553  GLY616  TRP617  ASP618  TYR619  PRO620  LYS621  CYS622 
 ASP623  PHE694  ASN695  SER759  ASP760  ASP761  ALA762  ILE779  LEU786  VAL792 
 PHE793  MET794  SER795  GLU796  ALA797  LYS798  CYS799  TRP800  GLU811  SER814 

> <Gold.Protein.RotatedAtoms>
  151.5594  135.1066  159.9968 H   0  0  0  0  0  0  0  0  0  0  0  0  # atno 6907 bound_to 6896
  152.4454  133.7522  159.6711 H   0  0  0  0  0  0  0  0  0  0  0  0  # atno 6908 bound_to 6896
  150.8368  133.7933  159.3100 H   0  0  0  0  0  0  0  0  0  0  0  0  # atno 6909 bound_to 6896
  145.5589  139.2302  143.2470 H   0  0  0  0  0  0  0  0  0  0  0  0  # atno 7974 bound_to 7965
  156.1273  140.1512  156.9117 H   0  0  0  0  0  0  0  0  0  0  0  0  # atno 8008 bound_to 7997
  154.4882  140.0859  156.7574 H   0  0  0  0  0  0  0  0  0  0  0  0  # atno 8009 bound_to 7997
  155.4319  140.3427  155.4283 H   0  0  0  0  0  0  0  0  0  0  0  0  # atno 8010 bound_to 7997
  139.8547  143.7153  152.2655 H   0  0  0  0  0  0  0  0  0  0  0  0  # atno 10167 bound_to 10162
  157.4230  131.1040  151.0333 H   0  0  0  0  0  0  0  0  0  0  0  0  # atno 10718 bound_to 10713
  154.2066  135.2788  155.2973 H   0  0  0  0  0  0  0  0  0  0  0  0  # atno 10763 bound_to 10752
  154.5812  135.5589  153.7191 H   0  0  0  0  0  0  0  0  0  0  0  0  # atno 10764 bound_to 10752
  153.0074  135.6345  154.2204 H   0  0  0  0  0  0  0  0  0  0  0  0  # atno 10765 bound_to 10752
  139.9638  134.7016  156.0589 H   0  0  0  0  0  0  0  0  0  0  0  0  # atno 11005 bound_to 11000
  146.1865  140.6413  142.9165 LP  0  0  0  0  0  0  0  0  0  0  0  0  # atno 17320 bound_to 7965
  144.7493  140.5148  143.6813 LP  0  0  0  0  0  0  0  0  0  0  0  0  # atno 17321 bound_to 7965
  139.7431  144.7554  151.0622 LP  0  0  0  0  0  0  0  0  0  0  0  0  # atno 17342 bound_to 10162
  140.7783  143.4949  150.9846 LP  0  0  0  0  0  0  0  0  0  0  0  0  # atno 17343 bound_to 10162
  157.1257  130.6080  149.5516 LP  0  0  0  0  0  0  0  0  0  0  0  0  # atno 17370 bound_to 10713
  155.9887  130.4931  150.7181 LP  0  0  0  0  0  0  0  0  0  0  0  0  # atno 17371 bound_to 10713
  141.1316  133.6585  156.3481 LP  0  0  0  0  0  0  0  0  0  0  0  0  # atno 17394 bound_to 11000
  140.5442  134.6091  157.5389 LP  0  0  0  0  0  0  0  0  0  0  0  0  # atno 17395 bound_to 11000

$$$$
