AV-unprocessed.smi:1947|AV-procd|sdf|7871|dock1
  -GOLD-   2272010 23D 1   1.00000     0.00000
 Structure written by MMmdl.
 38 39  0  0  0  0  0  0  0  0  2 V2000
  152.8883  141.2381  159.6005 C   0  0  0  0  0  0  0  0  0  0  0  0
  152.1176  141.4728  158.2920 C   0  0  2  0  0  0  0  0  0  0  0  0
  150.6893  141.9933  158.5522 C   0  0  0  0  0  0  0  0  0  0  0  0
  149.9366  142.2596  157.2388 C   0  0  0  0  0  0  0  0  0  0  0  0
  149.9175  141.0120  156.3427 C   0  0  0  0  0  0  0  0  0  0  0  0
  151.3415  140.4942  156.0802 C   0  0  0  0  0  0  0  0  0  0  0  0
  152.0969  140.2130  157.3974 C   0  0  2  0  0  0  0  0  0  0  0  0
  151.4535  139.1644  158.1111 O   0  0  0  0  0  0  0  0  0  0  0  0
  151.1636  138.0090  157.3386 C   0  0  0  0  0  0  0  0  0  0  0  0
  150.8433  136.8542  158.2919 C   0  0  0  0  0  0  0  0  0  0  0  0
  149.7649  137.2352  159.1946 N   0  0  0  0  0  0  0  0  0  0  0  0
  148.8848  136.3945  159.7518 C   0  0  0  0  0  0  0  0  0  0  0  0
  148.9473  135.1879  159.5055 O   0  0  0  0  0  0  0  0  0  0  0  0
  147.9893  137.0043  160.5614 N   0  5  0  0  0  0  0  0  0  0  0  0
  147.1277  136.2719  161.2860 C   0  0  0  0  0  0  0  0  0  0  0  0
  145.8633  136.6646  161.5101 N   0  0  0  0  0  0  0  0  0  0  0  0
  145.1439  135.7698  162.2907 N   0  0  0  0  0  0  0  0  0  0  0  0
  145.8901  134.7232  162.6426 C   0  0  0  0  0  0  0  0  0  0  0  0
  147.5392  134.7364  162.0546 S   0  0  0  0  0  0  0  0  0  0  0  0
  152.4047  140.4813  160.2189 H   0  0  0  0  0  0  0  0  0  0  0  0
  152.9507  142.1546  160.1877 H   0  0  0  0  0  0  0  0  0  0  0  0
  153.9068  140.9041  159.4015 H   0  0  0  0  0  0  0  0  0  0  0  0
  152.6531  142.2508  157.7458 H   0  0  0  0  0  0  0  0  0  0  0  0
  150.1333  141.2690  159.1495 H   0  0  0  0  0  0  0  0  0  0  0  0
  150.7278  142.9104  159.1408 H   0  0  0  0  0  0  0  0  0  0  0  0
  148.9162  142.5788  157.4533 H   0  0  0  0  0  0  0  0  0  0  0  0
  150.4128  143.0839  156.7065 H   0  0  0  0  0  0  0  0  0  0  0  0
  149.3234  140.2293  156.8168 H   0  0  0  0  0  0  0  0  0  0  0  0
  149.4252  141.2410  155.3972 H   0  0  0  0  0  0  0  0  0  0  0  0
  151.3000  139.6029  155.4550 H   0  0  0  0  0  0  0  0  0  0  0  0
  151.8921  141.2380  155.5033 H   0  0  0  0  0  0  0  0  0  0  0  0
  153.1273  139.9286  157.1755 H   0  0  0  0  0  0  0  0  0  0  0  0
  150.3230  138.1737  156.6642 H   0  0  0  0  0  0  0  0  0  0  0  0
  152.0292  137.7613  156.7230 H   0  0  0  0  0  0  0  0  0  0  0  0
  150.5384  135.9766  157.7204 H   0  0  0  0  0  0  0  0  0  0  0  0
  151.7305  136.5780  158.8642 H   0  0  0  0  0  0  0  0  0  0  0  0
  149.6850  138.2151  159.4238 H   0  0  0  0  0  0  0  0  0  0  0  0
  145.4679  133.9404  163.2545 H   0  0  0  0  0  0  0  0  0  0  0  0
  1  2  1  0  0  0  0
  1 20  1  0  0  0  0
  1 21  1  0  0  0  0
  1 22  1  0  0  0  0
  2  7  1  0  0  0  0
  2  3  1  0  0  0  0
  2 23  1  0  0  0  0
  3  4  1  0  0  0  0
  3 24  1  0  0  0  0
  3 25  1  0  0  0  0
  4  5  1  0  0  0  0
  4 26  1  0  0  0  0
  4 27  1  0  0  0  0
  5  6  1  0  0  0  0
  5 28  1  0  0  0  0
  5 29  1  0  0  0  0
  6  7  1  0  0  0  0
  6 30  1  0  0  0  0
  6 31  1  0  0  0  0
  7  8  1  0  0  0  0
  7 32  1  0  0  0  0
  8  9  1  0  0  0  0
  9 10  1  0  0  0  0
  9 33  1  0  0  0  0
  9 34  1  0  0  0  0
 10 11  1  0  0  0  0
 10 35  1  0  0  0  0
 10 36  1  0  0  0  0
 11 12  1  0  0  0  0
 11 37  1  0  0  0  0
 12 13  2  0  0  0  0
 12 14  1  0  0  0  0
 14 15  1  0  0  0  0
 15 19  1  0  0  0  0
 15 16  2  0  0  0  0
 16 17  1  0  0  0  0
 17 18  2  0  0  0  0
 18 19  1  0  0  0  0
 18 38  1  0  0  0  0
M  CHG  1  14  -1
M  END
> <s_m_source_file>
AV-unprocessed.smi

> <i_m_source_file_index>
1947

> <i_lp_mmshare_version>
43012

> <i_f3d_flags>
0

> <s_epik_input>
W0NIM11bQ0BASF0xW0NIMl1bQ0gyXVtDSDJdW0NIMl1bQ0BIXTFPW0NIMl1bQ0gyXVtOSF1DKD1PKVtOSF1jMm5uW2NIXXMy

> <s_epik_cmdline>
J2VwaWtfcHl0aG9uJywgJy1waCcsICc3LjAnLCAnLXRuJywgJzgnLCAnLW1hJywgJzIwMCcsICctbWV0YWxfYmluZGluZycsICctaW1hZScsICc8aW5maWxlLm1hZT4nLCAnLW9tYWUnLCAnPG91dGZpbGUubWFlPic=

> <r_lp_tautomer_probability>
1

> <r_epik_Ionization_Penalty>
3.35961

> <r_epik_Ionization_Penalty_Charging>
3.31977

> <r_epik_Ionization_Penalty_Neutral>
0.0398394

> <r_epik_State_Penalty>
3.31759

> <r_epik_Charging_Adjusted_Penalty>
6.63736

> <i_epik_Tot_Q>
-1

> <i_epik_Tot_abs_Q>
1

> <r_epik_Metal_State_Penalty>
0.484557

> <b_epik_Metal_Only>
1

> <s_lp_Force_Field>
OPLS_2005

> <r_lp_Energy>
9.4778

> <b_lp_Chiralities_Consistent>
1

> <s_lp_Variant>
AV-unprocessed.smi:1947-7

> <Gold.Version>
5.8.1

> <Gold.Id.Protein>
6NUR|6NUR_protein|mol2

> <Gold.PLP.Fitness>
40.7418

> <Gold.PLP.PLP>
-28.8283

> <Gold.PLP.part.hbond>
-3.0000

> <Gold.PLP.part.metal>
0.0000

> <Gold.PLP.part.buried>
-3.7592

> <Gold.PLP.part.nonpolar>
-23.1357

> <Gold.PLP.part.repulsive>
0.2256

> <Gold.PLP.ligand.clash>
0.0000

> <Gold.PLP.ligand.torsion>
0.5857

> <Gold.PLP.Chemscore.Hbond>
4.2640

> <Gold.PLP.Chemscore.CHOScore>
0.0000

> <Gold.PLP.Chemscore.Metal>
0.0000

> <Gold.Chemscore.Hbonds>
donor molecule, donor type, donor heavy atom, donor atom, acceptor molecule, acceptor atom, score
      P1  H  6896  6908       L1    13  1.00
      P1  H  6931  6943       L1    14  1.40
      P1  H  6934  6947       L1    14  0.94

> <Gold.PLP.Chemscore.Internal.Correction>
0.2929

> <Gold.Rescore>
     Score         DG    S(hbond)    S(metal)    S(lipo)     H(rot)  DE(clash)    DE(int)     intcor
     13.20     -15.10       1.71        0.00      75.07       1.90       0.11       1.79       ----

> <Gold.Chemscore.Fitness>
13.1988

> <Gold.Chemscore.DG>
-15.1007

> <Gold.Chemscore.ZeroCoef>
-5.4800

> <Gold.Chemscore.Hbond>
1.7058

> <Gold.Chemscore.Metal>
0.0000

> <Gold.Chemscore.Lipo>
75.0692

> <Gold.Chemscore.Internal_Hbond>
0.0000

> <Gold.Chemscore.DEClash>
0.1133

> <Gold.Chemscore.DEInternal>
1.7886

> <Gold.Chemscore.Rot>
1.8984

> <Gold.Chemscore.Internal.Correction>
   9.000000E+99

> <Gold.Chemscore.Hbonds>
donor molecule, donor type, donor heavy atom, donor atom, acceptor molecule, acceptor atom, score
      P1  H  6896  6908       L1    13  0.85
      P1  H  6931  6943       L1    14  0.29
      P1  H  6934  6947       L1    14  0.14

> <Gold.Chemscore.Hbond.Weighted>
-5.6974

> <Gold.Chemscore.Metal.Weighted>
-0.0000

> <Gold.Chemscore.Lipo.Weighted>
-8.7831

> <Gold.Chemscore.Internal_Hbond.Weighted>
0.0000

> <Gold.Chemscore.DEClash.Weighted>
0.1133

> <Gold.Chemscore.DEInternal.Weighted>
1.7886

> <Gold.Chemscore.Rot.Weighted>
4.8598

> <Gold.Chemscore.Internal.Correction.Weighted>
   9.000000E+99

> <Gold.Protein.RotatedTorsions>
[ 6907 6896 6895 6894 ] final  167.78 input  -60.11 | X-H torsion
[ 7974 7965 7964 7962 ] final -134.70 input  175.53 | X-H torsion
[ 8008 7997 7996 7995 ] final    4.73 input   59.86 | X-H torsion
[ 10167 10162 10161 10158 ] final  -15.19 input  -65.29 | X-H torsion
[ 10718 10713 10712 10709 ] final  179.26 input   66.30 | X-H torsion
[ 10763 10752 10751 10750 ] final -174.56 input  -60.55 | X-H torsion
[ 11005 11000 10999 10996 ] final  102.74 input  -57.11 | X-H torsion

> <Gold.Protein.ActiveResidues>
 VAL166  LYS551  ARG553  GLY616  TRP617  ASP618  TYR619  PRO620  LYS621  CYS622 
 ASP623  PHE694  ASN695  SER759  ASP760  ASP761  ALA762  ILE779  LEU786  VAL792 
 PHE793  MET794  SER795  GLU796  ALA797  LYS798  CYS799  TRP800  GLU811  SER814 

> <Gold.Protein.RotatedAtoms>
  151.8580  133.3452  159.3694 H   0  0  0  0  0  0  0  0  0  0  0  0  # atno 6907 bound_to 6896
  150.7187  134.5234  159.5674 H   0  0  0  0  0  0  0  0  0  0  0  0  # atno 6908 bound_to 6896
  152.2742  134.7900  160.0459 H   0  0  0  0  0  0  0  0  0  0  0  0  # atno 6909 bound_to 6896
  144.9079  140.6857  143.5043 H   0  0  0  0  0  0  0  0  0  0  0  0  # atno 7974 bound_to 7965
  154.7195  140.2709  155.6554 H   0  0  0  0  0  0  0  0  0  0  0  0  # atno 8008 bound_to 7997
  156.2819  140.2737  156.1787 H   0  0  0  0  0  0  0  0  0  0  0  0  # atno 8009 bound_to 7997
  155.0526  140.0371  157.2539 H   0  0  0  0  0  0  0  0  0  0  0  0  # atno 8010 bound_to 7997
  140.7214  143.5243  150.9596 H   0  0  0  0  0  0  0  0  0  0  0  0  # atno 10167 bound_to 10162
  156.8784  130.9807  151.3065 H   0  0  0  0  0  0  0  0  0  0  0  0  # atno 10718 bound_to 10713
  154.5948  135.2848  155.0598 H   0  0  0  0  0  0  0  0  0  0  0  0  # atno 10763 bound_to 10752
  154.1885  135.6444  153.5057 H   0  0  0  0  0  0  0  0  0  0  0  0  # atno 10764 bound_to 10752
  153.0134  135.5440  154.6646 H   0  0  0  0  0  0  0  0  0  0  0  0  # atno 10765 bound_to 10752
  139.8779  134.9236  156.5104 H   0  0  0  0  0  0  0  0  0  0  0  0  # atno 11005 bound_to 11000
  145.3503  139.1708  143.4438 LP  0  0  0  0  0  0  0  0  0  0  0  0  # atno 17320 bound_to 7965
  146.3143  140.3555  142.8660 LP  0  0  0  0  0  0  0  0  0  0  0  0  # atno 17321 bound_to 7965
  139.8961  143.6893  152.3138 LP  0  0  0  0  0  0  0  0  0  0  0  0  # atno 17342 bound_to 10162
  139.7226  144.7599  151.0931 LP  0  0  0  0  0  0  0  0  0  0  0  0  # atno 17343 bound_to 10162
  157.6155  130.8615  149.9021 LP  0  0  0  0  0  0  0  0  0  0  0  0  # atno 17370 bound_to 10713
  156.0690  130.3688  150.0817 LP  0  0  0  0  0  0  0  0  0  0  0  0  # atno 17371 bound_to 10713
  140.8524  133.8122  155.9182 LP  0  0  0  0  0  0  0  0  0  0  0  0  # atno 17394 bound_to 11000
  140.9131  134.2236  157.4973 LP  0  0  0  0  0  0  0  0  0  0  0  0  # atno 17395 bound_to 11000

$$$$
