AV-unprocessed.smi:1232|AV-procd|sdf|5167|dock5
  -GOLD-   22720 4243D 1   1.00000     0.00000
 Structure written by MMmdl.
 53 54  0  0  0  0  0  0  0  0  1 V2000
  147.4906  133.5167  152.2544 C   0  0  0  0  0  0  0  0  0  0  0  0
  147.9494  133.8587  153.6675 C   0  0  0  0  0  0  0  0  0  0  0  0
  147.5974  133.1598  154.6175 O   0  0  0  0  0  0  0  0  0  0  0  0
  148.7325  134.9425  153.7923 N   0  0  0  0  0  0  0  0  0  0  0  0
  149.2607  135.4702  155.0525 C   0  0  2  0  0  0  0  0  0  0  0  0
  148.8272  136.9424  155.1810 C   0  0  0  0  0  0  0  0  0  0  0  0
  148.3383  137.3607  156.2319 O   0  0  0  0  0  0  0  0  0  0  0  0
  149.0190  137.7146  154.1002 N   0  0  0  0  0  0  0  0  0  0  0  0
  148.7397  139.1453  154.0378 C   0  0  0  0  0  0  0  0  0  0  0  0
  149.5793  139.9853  154.9910 C   0  0  0  0  0  0  0  0  0  0  0  0
  150.9740  139.8100  155.1145 C   0  0  0  0  0  0  0  0  0  0  0  0
  151.6860  140.6121  156.0255 C   0  0  0  0  0  0  0  0  0  0  0  0
  150.9870  141.5769  156.7883 C   0  0  0  0  0  0  0  0  0  0  0  0
  151.6820  142.3822  157.7154 N   0  0  0  0  0  0  0  0  0  0  0  0
  151.2149  143.7513  157.9204 C   0  0  0  0  0  0  0  0  0  0  0  0
  152.2479  144.5497  158.7320 C   0  0  0  0  0  0  0  0  0  0  0  0
  152.5250  143.8725  159.9538 O   0  0  0  0  0  0  0  0  0  0  0  0
  153.0805  142.5780  159.7365 C   0  0  1  0  0  0  0  0  0  0  0  0
  153.4260  141.9676  161.0989 C   0  0  0  0  0  0  0  0  0  0  0  0
  152.0707  141.7152  158.9551 C   0  0  0  0  0  0  0  0  0  0  0  0
  149.6500  141.7579  156.6516 N   0  0  0  0  0  0  0  0  0  0  0  0
  148.9717  140.9826  155.7796 C   0  0  0  0  0  0  0  0  0  0  0  0
  150.8137  135.3612  155.0349 C   0  0  0  0  0  0  0  0  0  0  0  0
  151.2832  133.8938  154.9873 C   0  0  0  0  0  0  0  0  0  0  0  0
  151.4840  136.0661  156.2327 C   0  0  0  0  0  0  0  0  0  0  0  0
  146.7349  134.2284  151.9213 H   0  0  0  0  0  0  0  0  0  0  0  0
  147.0581  132.5161  152.2191 H   0  0  0  0  0  0  0  0  0  0  0  0
  148.3288  133.5504  151.5579 H   0  0  0  0  0  0  0  0  0  0  0  0
  148.9642  135.4568  152.9551 H   0  0  0  0  0  0  0  0  0  0  0  0
  148.8647  134.8886  155.8881 H   0  0  0  0  0  0  0  0  0  0  0  0
  149.4209  137.2899  153.2770 H   0  0  0  0  0  0  0  0  0  0  0  0
  148.9330  139.4861  153.0205 H   0  0  0  0  0  0  0  0  0  0  0  0
  147.6787  139.3187  154.2266 H   0  0  0  0  0  0  0  0  0  0  0  0
  151.4986  139.0731  154.5247 H   0  0  0  0  0  0  0  0  0  0  0  0
  152.7543  140.4874  156.1204 H   0  0  0  0  0  0  0  0  0  0  0  0
  151.0500  144.2417  156.9603 H   0  0  0  0  0  0  0  0  0  0  0  0
  150.2598  143.7325  158.4473 H   0  0  0  0  0  0  0  0  0  0  0  0
  153.1686  144.6868  158.1624 H   0  0  0  0  0  0  0  0  0  0  0  0
  151.8618  145.5439  158.9562 H   0  0  0  0  0  0  0  0  0  0  0  0
  154.0010  142.6772  159.1583 H   0  0  0  0  0  0  0  0  0  0  0  0
  153.8658  140.9768  160.9845 H   0  0  0  0  0  0  0  0  0  0  0  0
  152.5384  141.8702  161.7249 H   0  0  0  0  0  0  0  0  0  0  0  0
  154.1440  142.5901  161.6332 H   0  0  0  0  0  0  0  0  0  0  0  0
  151.1756  141.5471  159.5557 H   0  0  0  0  0  0  0  0  0  0  0  0
  152.5101  140.7373  158.7628 H   0  0  0  0  0  0  0  0  0  0  0  0
  147.9085  141.1620  155.7151 H   0  0  0  0  0  0  0  0  0  0  0  0
  151.1841  135.8435  154.1283 H   0  0  0  0  0  0  0  0  0  0  0  0
  150.9292  133.3383  155.8565 H   0  0  0  0  0  0  0  0  0  0  0  0
  152.3717  133.8298  154.9752 H   0  0  0  0  0  0  0  0  0  0  0  0
  150.9263  133.3784  154.0956 H   0  0  0  0  0  0  0  0  0  0  0  0
  151.1224  135.6647  157.1799 H   0  0  0  0  0  0  0  0  0  0  0  0
  151.3013  137.1407  156.2337 H   0  0  0  0  0  0  0  0  0  0  0  0
  152.5660  135.9332  156.2096 H   0  0  0  0  0  0  0  0  0  0  0  0
  1  2  1  0  0  0  0
  1 26  1  0  0  0  0
  1 27  1  0  0  0  0
  1 28  1  0  0  0  0
  2  3  2  0  0  0  0
  2  4  1  0  0  0  0
  4  5  1  0  0  0  0
  4 29  1  0  0  0  0
  5  6  1  0  0  0  0
  5 23  1  0  0  0  0
  5 30  1  0  0  0  0
  6  7  2  0  0  0  0
  6  8  1  0  0  0  0
  8  9  1  0  0  0  0
  8 31  1  0  0  0  0
  9 10  1  0  0  0  0
  9 32  1  0  0  0  0
  9 33  1  0  0  0  0
 10 22  1  0  0  0  0
 10 11  2  0  0  0  0
 11 12  1  0  0  0  0
 11 34  1  0  0  0  0
 12 13  2  0  0  0  0
 12 35  1  0  0  0  0
 13 14  1  0  0  0  0
 13 21  1  0  0  0  0
 14 20  1  0  0  0  0
 14 15  1  0  0  0  0
 15 16  1  0  0  0  0
 15 36  1  0  0  0  0
 15 37  1  0  0  0  0
 16 17  1  0  0  0  0
 16 38  1  0  0  0  0
 16 39  1  0  0  0  0
 17 18  1  0  0  0  0
 18 19  1  0  0  0  0
 18 20  1  0  0  0  0
 18 40  1  0  0  0  0
 19 41  1  0  0  0  0
 19 42  1  0  0  0  0
 19 43  1  0  0  0  0
 20 44  1  0  0  0  0
 20 45  1  0  0  0  0
 21 22  2  0  0  0  0
 22 46  1  0  0  0  0
 23 24  1  0  0  0  0
 23 25  1  0  0  0  0
 23 47  1  0  0  0  0
 24 48  1  0  0  0  0
 24 49  1  0  0  0  0
 24 50  1  0  0  0  0
 25 51  1  0  0  0  0
 25 52  1  0  0  0  0
 25 53  1  0  0  0  0
M  END
> <s_m_source_file>
AV-unprocessed.smi

> <i_m_source_file_index>
1232

> <i_lp_mmshare_version>
43012

> <i_f3d_flags>
0

> <s_epik_input>
W0NIM11DKD1PKVtOSF1bQ0BASF0oW0NIXShbQ0gzXSlbQ0gzXSlDKD1PKVtOSF1bQ0gyXWMxW2NIXVtjSF1jKG5bY0hdMSlOMltDSDJdW0NIMl1PW0NAQEhdKFtDSDNdKVtDSDJdMg==

> <s_epik_cmdline>
J2VwaWtfcHl0aG9uJywgJy1waCcsICc3LjAnLCAnLXRuJywgJzgnLCAnLW1hJywgJzIwMCcsICctbWV0YWxfYmluZGluZycsICctaW1hZScsICc8aW5maWxlLm1hZT4nLCAnLW9tYWUnLCAnPG91dGZpbGUubWFlPic=

> <r_lp_tautomer_probability>
1

> <r_epik_Ionization_Penalty>
0.00557618

> <r_epik_Ionization_Penalty_Charging>
0

> <r_epik_Ionization_Penalty_Neutral>
0.00557618

> <r_epik_State_Penalty>
0.00408363

> <r_epik_Charging_Adjusted_Penalty>
0.00408363

> <i_epik_Tot_Q>
0

> <i_epik_Tot_abs_Q>
0

> <r_epik_Metal_State_Penalty>
-0

> <b_epik_Metal_Only>
0

> <s_lp_Force_Field>
OPLS_2005

> <r_lp_Energy>
17.3881

> <b_lp_Chiralities_Consistent>
1

> <s_lp_Variant>
AV-unprocessed.smi:1232-1

> <Gold.Version>
5.8.1

> <Gold.Id.Protein>
6NUR|6NUR_protein|mol2

> <Gold.PLP.Fitness>
46.7545

> <Gold.PLP.PLP>
-42.6849

> <Gold.PLP.part.hbond>
-2.0000

> <Gold.PLP.part.metal>
0.0000

> <Gold.PLP.part.buried>
-4.5269

> <Gold.PLP.part.nonpolar>
-36.6168

> <Gold.PLP.part.repulsive>
0.5279

> <Gold.PLP.ligand.clash>
0.0000

> <Gold.PLP.ligand.torsion>
1.0361

> <Gold.PLP.Chemscore.Hbond>
1.9280

> <Gold.PLP.Chemscore.CHOScore>
0.0000

> <Gold.PLP.Chemscore.Metal>
0.0000

> <Gold.Chemscore.Hbonds>
donor molecule, donor type, donor heavy atom, donor atom, acceptor molecule, acceptor atom, score
      L1  H     4    29       P1  7948  0.44
      L1  H     8    31       P1  7948  0.85

> <Gold.PLP.Chemscore.Internal.Correction>
0.3578

> <Gold.Rescore>
     Score         DG    S(hbond)    S(metal)    S(lipo)     H(rot)  DE(clash)    DE(int)     intcor
     18.51     -19.33       1.96        0.00     108.97       2.13       0.23       0.60       ----

> <Gold.Chemscore.Fitness>
18.5056

> <Gold.Chemscore.DG>
-19.3332

> <Gold.Chemscore.ZeroCoef>
-5.4800

> <Gold.Chemscore.Hbond>
1.9642

> <Gold.Chemscore.Metal>
0.0000

> <Gold.Chemscore.Lipo>
108.9746

> <Gold.Chemscore.Internal_Hbond>
0.0000

> <Gold.Chemscore.DEClash>
0.2258

> <Gold.Chemscore.DEInternal>
0.6018

> <Gold.Chemscore.Rot>
2.1317

> <Gold.Chemscore.Internal.Correction>
   9.000000E+99

> <Gold.Chemscore.Hbonds>
donor molecule, donor type, donor heavy atom, donor atom, acceptor molecule, acceptor atom, score
      L1  H     4    29       P1  7948  0.19
      L1  H     8    31       P1  7948  0.77

> <Gold.Chemscore.Hbond.Weighted>
-6.5604

> <Gold.Chemscore.Metal.Weighted>
-0.0000

> <Gold.Chemscore.Lipo.Weighted>
-12.7500

> <Gold.Chemscore.Internal_Hbond.Weighted>
0.0000

> <Gold.Chemscore.DEClash.Weighted>
0.2258

> <Gold.Chemscore.DEInternal.Weighted>
0.6018

> <Gold.Chemscore.Rot.Weighted>
5.4572

> <Gold.Chemscore.Internal.Correction.Weighted>
   9.000000E+99

> <Gold.Protein.RotatedTorsions>
[ 6907 6896 6895 6894 ] final  -74.76 input  -60.11 | X-H torsion
[ 7974 7965 7964 7962 ] final -107.45 input  175.53 | X-H torsion
[ 8008 7997 7996 7995 ] final   64.43 input   59.86 | X-H torsion
[ 10167 10162 10161 10158 ] final -171.38 input  -65.29 | X-H torsion
[ 10718 10713 10712 10709 ] final   64.05 input   66.30 | X-H torsion
[ 10763 10752 10751 10750 ] final   96.99 input  -60.55 | X-H torsion
[ 11005 11000 10999 10996 ] final   94.15 input  -57.11 | X-H torsion

> <Gold.Protein.ActiveResidues>
 VAL166  LYS551  ARG553  GLY616  TRP617  ASP618  TYR619  PRO620  LYS621  CYS622 
 ASP623  PHE694  ASN695  SER759  ASP760  ASP761  ALA762  ILE779  LEU786  VAL792 
 PHE793  MET794  SER795  GLU796  ALA797  LYS798  CYS799  TRP800  GLU811  SER814 

> <Gold.Protein.RotatedAtoms>
  150.7082  134.4821  159.5474 H   0  0  0  0  0  0  0  0  0  0  0  0  # atno 6907 bound_to 6896
  152.2456  134.8182  160.0463 H   0  0  0  0  0  0  0  0  0  0  0  0  # atno 6908 bound_to 6896
  151.8948  133.3489  159.3847 H   0  0  0  0  0  0  0  0  0  0  0  0  # atno 6909 bound_to 6896
  145.2052  140.9073  143.3346 H   0  0  0  0  0  0  0  0  0  0  0  0  # atno 7974 bound_to 7965
  155.6460  140.3497  155.4731 H   0  0  0  0  0  0  0  0  0  0  0  0  # atno 8008 bound_to 7997
  155.9887  140.1189  157.0682 H   0  0  0  0  0  0  0  0  0  0  0  0  # atno 8009 bound_to 7997
  154.4212  140.1124  156.5522 H   0  0  0  0  0  0  0  0  0  0  0  0  # atno 8010 bound_to 7997
  139.5806  144.1433  152.1509 H   0  0  0  0  0  0  0  0  0  0  0  0  # atno 10167 bound_to 10162
  157.6013  130.9139  149.9795 H   0  0  0  0  0  0  0  0  0  0  0  0  # atno 10718 bound_to 10713
  153.2715  135.4199  155.0992 H   0  0  0  0  0  0  0  0  0  0  0  0  # atno 10763 bound_to 10752
  154.8457  135.3473  154.6238 H   0  0  0  0  0  0  0  0  0  0  0  0  # atno 10764 bound_to 10752
  153.6657  135.7046  153.5220 H   0  0  0  0  0  0  0  0  0  0  0  0  # atno 10765 bound_to 10752
  139.8802  134.8829  156.3822 H   0  0  0  0  0  0  0  0  0  0  0  0  # atno 11005 bound_to 11000
  144.9909  139.3690  143.6215 LP  0  0  0  0  0  0  0  0  0  0  0  0  # atno 17320 bound_to 7965
  146.3409  139.9091  142.8783 LP  0  0  0  0  0  0  0  0  0  0  0  0  # atno 17321 bound_to 7965
  140.0985  144.5560  150.7005 LP  0  0  0  0  0  0  0  0  0  0  0  0  # atno 17342 bound_to 10162
  140.7084  143.2486  151.4656 LP  0  0  0  0  0  0  0  0  0  0  0  0  # atno 17343 bound_to 10162
  156.1087  130.3651  150.0087 LP  0  0  0  0  0  0  0  0  0  0  0  0  # atno 17370 bound_to 10713
  156.8189  130.9351  151.3642 LP  0  0  0  0  0  0  0  0  0  0  0  0  # atno 17371 bound_to 10713
  140.9391  133.7527  156.0123 LP  0  0  0  0  0  0  0  0  0  0  0  0  # atno 17394 bound_to 11000
  140.8241  134.3255  157.5372 LP  0  0  0  0  0  0  0  0  0  0  0  0  # atno 17395 bound_to 11000

$$$$
