AV-unprocessed.smi:1997|AV-procd|sdf|8089|dock4
  -GOLD-   2272010303D 1   1.00000     0.00000
 Structure written by MMmdl.
 36 38  0  0  0  0  0  0  0  0  2 V2000
  151.1931  139.9809  158.2566 O   0  0  0  0  0  0  0  0  0  0  0  0
  152.3699  140.1668  158.5756 C   0  0  0  0  0  0  0  0  0  0  0  0
  153.3739  139.2640  158.4946 N   0  5  0  0  0  0  0  0  0  0  0  0
  153.4961  138.3108  159.4330 C   0  0  0  0  0  0  0  0  0  0  0  0
  153.4474  137.0035  159.1407 N   0  0  0  0  0  0  0  0  0  0  0  0
  153.5967  136.1905  160.2549 N   0  0  0  0  0  0  0  0  0  0  0  0
  153.7625  136.8971  161.3754 C   0  0  0  0  0  0  0  0  0  0  0  0
  153.9409  136.2524  162.7090 C   0  0  0  0  0  0  0  0  0  0  0  0
  153.2100  136.7744  163.9246 C   0  0  0  0  0  0  0  0  0  0  0  0
  154.7048  136.9371  163.8213 C   0  0  0  0  0  0  0  0  0  0  0  0
  153.7584  138.6385  161.1455 S   0  0  0  0  0  0  0  0  0  0  0  0
  152.7519  141.3581  159.0610 N   0  0  0  0  0  0  0  0  0  0  0  0
  151.8897  142.5245  159.2712 C   0  0  1  0  0  0  0  0  0  0  0  0
  152.7952  143.7049  159.6919 C   0  0  0  0  0  0  0  0  0  0  0  0
  152.0537  144.8139  160.4588 C   0  0  0  0  0  0  0  0  0  0  0  0
  150.9812  145.5587  159.6494 C   0  0  0  0  0  0  0  0  0  0  0  0
  149.8266  144.6588  159.1768 C   0  0  0  0  0  0  0  0  0  0  0  0
  150.1982  143.8550  158.0200 N   0  0  0  0  0  0  0  0  0  0  0  0
  151.1382  142.8987  157.9721 C   0  0  0  0  0  0  0  0  0  0  0  0
  151.3975  142.3374  156.9079 O   0  0  0  0  0  0  0  0  0  0  0  0
  154.0524  135.1751  162.6034 H   0  0  0  0  0  0  0  0  0  0  0  0
  152.5982  137.6660  163.8015 H   0  0  0  0  0  0  0  0  0  0  0  0
  152.8312  136.0422  164.6347 H   0  0  0  0  0  0  0  0  0  0  0  0
  155.3240  136.3128  164.4619 H   0  0  0  0  0  0  0  0  0  0  0  0
  155.0833  137.9416  163.6440 H   0  0  0  0  0  0  0  0  0  0  0  0
  153.7267  141.4667  159.2989 H   0  0  0  0  0  0  0  0  0  0  0  0
  151.1764  142.2989  160.0657 H   0  0  0  0  0  0  0  0  0  0  0  0
  153.5795  143.3317  160.3524 H   0  0  0  0  0  0  0  0  0  0  0  0
  153.3166  144.1246  158.8297 H   0  0  0  0  0  0  0  0  0  0  0  0
  151.6012  144.3909  161.3566 H   0  0  0  0  0  0  0  0  0  0  0  0
  152.7863  145.5404  160.8113 H   0  0  0  0  0  0  0  0  0  0  0  0
  150.5681  146.3461  160.2804 H   0  0  0  0  0  0  0  0  0  0  0  0
  151.4361  146.0662  158.7977 H   0  0  0  0  0  0  0  0  0  0  0  0
  149.4628  144.0229  159.9853 H   0  0  0  0  0  0  0  0  0  0  0  0
  148.9854  145.2835  158.8761 H   0  0  0  0  0  0  0  0  0  0  0  0
  149.7172  144.0651  157.1577 H   0  0  0  0  0  0  0  0  0  0  0  0
  1  2  2  0  0  0  0
  2  3  1  0  0  0  0
  2 12  1  0  0  0  0
  3  4  1  0  0  0  0
  4 11  1  0  0  0  0
  4  5  2  0  0  0  0
  5  6  1  0  0  0  0
  6  7  2  0  0  0  0
  7  8  1  0  0  0  0
  7 11  1  0  0  0  0
  8 10  1  0  0  0  0
  8  9  1  0  0  0  0
  8 21  1  0  0  0  0
  9 10  1  0  0  0  0
  9 22  1  0  0  0  0
  9 23  1  0  0  0  0
 10 24  1  0  0  0  0
 10 25  1  0  0  0  0
 12 13  1  0  0  0  0
 12 26  1  0  0  0  0
 13 19  1  0  0  0  0
 13 14  1  0  0  0  0
 13 27  1  0  0  0  0
 14 15  1  0  0  0  0
 14 28  1  0  0  0  0
 14 29  1  0  0  0  0
 15 16  1  0  0  0  0
 15 30  1  0  0  0  0
 15 31  1  0  0  0  0
 16 17  1  0  0  0  0
 16 32  1  0  0  0  0
 16 33  1  0  0  0  0
 17 18  1  0  0  0  0
 17 34  1  0  0  0  0
 17 35  1  0  0  0  0
 18 19  1  0  0  0  0
 18 36  1  0  0  0  0
 19 20  2  0  0  0  0
M  CHG  1   3  -1
M  END
> <s_m_source_file>
AV-unprocessed.smi

> <i_m_source_file_index>
1997

> <i_lp_mmshare_version>
43012

> <i_f3d_flags>
0

> <s_epik_input>
W0NIMl0xW0NIMl1bQ0hdMWMoczIpbm5jMltOSF1DKD1PKVtOSF1bQ0BASF0zW0NIMl1bQ0gyXVtDSDJdW0NIMl1bTkhdQzM9Tw==

> <s_epik_cmdline>
J2VwaWtfcHl0aG9uJywgJy1waCcsICc3LjAnLCAnLXRuJywgJzgnLCAnLW1hJywgJzIwMCcsICctbWV0YWxfYmluZGluZycsICctaW1hZScsICc8aW5maWxlLm1hZT4nLCAnLW9tYWUnLCAnPG91dGZpbGUubWFlPic=

> <r_lp_tautomer_probability>
1

> <r_epik_Ionization_Penalty>
4.47229

> <r_epik_Ionization_Penalty_Charging>
4.32584

> <r_epik_Ionization_Penalty_Neutral>
0.146443

> <r_epik_State_Penalty>
4.32544

> <r_epik_Charging_Adjusted_Penalty>
8.65129

> <i_epik_Tot_Q>
-1

> <i_epik_Tot_abs_Q>
1

> <r_epik_Metal_State_Penalty>
0.738743

> <b_epik_Metal_Only>
1

> <s_lp_Force_Field>
OPLS_2005

> <r_lp_Energy>
7.41149

> <b_lp_Chiralities_Consistent>
1

> <s_lp_Variant>
AV-unprocessed.smi:1997-4

> <Gold.Version>
5.8.1

> <Gold.Id.Protein>
6NUR|6NUR_protein|mol2

> <Gold.PLP.Fitness>
44.8750

> <Gold.PLP.PLP>
-36.5444

> <Gold.PLP.part.hbond>
-3.0461

> <Gold.PLP.part.metal>
0.0000

> <Gold.PLP.part.buried>
-5.0644

> <Gold.PLP.part.nonpolar>
-29.1123

> <Gold.PLP.part.repulsive>
0.2062

> <Gold.PLP.ligand.clash>
0.0000

> <Gold.PLP.ligand.torsion>
1.9000

> <Gold.PLP.Chemscore.Hbond>
4.0000

> <Gold.PLP.Chemscore.CHOScore>
0.0000

> <Gold.PLP.Chemscore.Metal>
0.0000

> <Gold.Chemscore.Hbonds>
donor molecule, donor type, donor heavy atom, donor atom, acceptor molecule, acceptor atom, score
      L1  H    18    36       P1  8028  1.00
      P1  H  6896  6909       L1     6  1.00
      P1  H  7997  8008       L1     3  1.92

> <Gold.PLP.Chemscore.Internal.Correction>
0.1307

> <Gold.Rescore>
     Score         DG    S(hbond)    S(metal)    S(lipo)     H(rot)  DE(clash)    DE(int)     intcor
     13.31     -19.20       2.06        0.00      86.23       1.27       0.18       5.71       ----

> <Gold.Chemscore.Fitness>
13.3119

> <Gold.Chemscore.DG>
-19.1985

> <Gold.Chemscore.ZeroCoef>
-5.4800

> <Gold.Chemscore.Hbond>
2.0630

> <Gold.Chemscore.Metal>
0.0000

> <Gold.Chemscore.Lipo>
86.2318

> <Gold.Chemscore.Internal_Hbond>
0.0000

> <Gold.Chemscore.DEClash>
0.1753

> <Gold.Chemscore.DEInternal>
5.7113

> <Gold.Chemscore.Rot>
1.2738

> <Gold.Chemscore.Internal.Correction>
   9.000000E+99

> <Gold.Chemscore.Hbonds>
donor molecule, donor type, donor heavy atom, donor atom, acceptor molecule, acceptor atom, score
      L1  H    18    36       P1  8028  0.65
      P1  H  6896  6909       L1     6  0.50
      P1  H  7997  8008       L1     3  0.46

> <Gold.Chemscore.Hbond.Weighted>
-6.8904

> <Gold.Chemscore.Metal.Weighted>
-0.0000

> <Gold.Chemscore.Lipo.Weighted>
-10.0891

> <Gold.Chemscore.Internal_Hbond.Weighted>
0.0000

> <Gold.Chemscore.DEClash.Weighted>
0.1753

> <Gold.Chemscore.DEInternal.Weighted>
5.7113

> <Gold.Chemscore.Rot.Weighted>
3.2610

> <Gold.Chemscore.Internal.Correction.Weighted>
   9.000000E+99

> <Gold.Protein.RotatedTorsions>
[ 6907 6896 6895 6894 ] final  167.45 input  -60.11 | X-H torsion
[ 7974 7965 7964 7962 ] final   80.22 input  175.53 | X-H torsion
[ 8008 7997 7996 7995 ] final  -90.11 input   59.86 | X-H torsion
[ 10167 10162 10161 10158 ] final  125.13 input  -65.29 | X-H torsion
[ 10718 10713 10712 10709 ] final  167.62 input   66.30 | X-H torsion
[ 10763 10752 10751 10750 ] final  -18.24 input  -60.55 | X-H torsion
[ 11005 11000 10999 10996 ] final -116.96 input  -57.11 | X-H torsion

> <Gold.Protein.ActiveResidues>
 VAL166  LYS551  ARG553  GLY616  TRP617  ASP618  TYR619  PRO620  LYS621  CYS622 
 ASP623  PHE694  ASN695  SER759  ASP760  ASP761  ALA762  ILE779  LEU786  VAL792 
 PHE793  MET794  SER795  GLU796  ALA797  LYS798  CYS799  TRP800  GLU811  SER814 

> <Gold.Protein.RotatedAtoms>
  151.8631  133.3461  159.3709 H   0  0  0  0  0  0  0  0  0  0  0  0  # atno 6907 bound_to 6896
  150.7173  134.5187  159.5652 H   0  0  0  0  0  0  0  0  0  0  0  0  # atno 6908 bound_to 6896
  152.2704  134.7939  160.0466 H   0  0  0  0  0  0  0  0  0  0  0  0  # atno 6909 bound_to 6896
  145.6541  139.2455  143.1960 H   0  0  0  0  0  0  0  0  0  0  0  0  # atno 7974 bound_to 7965
  154.6946  140.0534  157.0398 H   0  0  0  0  0  0  0  0  0  0  0  0  # atno 8008 bound_to 7997
  155.0769  140.3205  155.4594 H   0  0  0  0  0  0  0  0  0  0  0  0  # atno 8009 bound_to 7997
  156.2740  140.2072  156.5896 H   0  0  0  0  0  0  0  0  0  0  0  0  # atno 8010 bound_to 7997
  139.5702  144.6935  151.3798 H   0  0  0  0  0  0  0  0  0  0  0  0  # atno 10167 bound_to 10162
  157.0489  131.0308  151.2687 H   0  0  0  0  0  0  0  0  0  0  0  0  # atno 10718 bound_to 10713
  153.5862  135.7003  153.5442 H   0  0  0  0  0  0  0  0  0  0  0  0  # atno 10763 bound_to 10752
  153.3218  135.4072  155.1423 H   0  0  0  0  0  0  0  0  0  0  0  0  # atno 10764 bound_to 10752
  154.8609  135.3697  154.5391 H   0  0  0  0  0  0  0  0  0  0  0  0  # atno 10765 bound_to 10752
  141.0387  133.9869  157.3029 H   0  0  0  0  0  0  0  0  0  0  0  0  # atno 11005 bound_to 11000
  146.1179  140.7346  142.9471 LP  0  0  0  0  0  0  0  0  0  0  0  0  # atno 17320 bound_to 7965
  144.7112  140.4045  143.7079 LP  0  0  0  0  0  0  0  0  0  0  0  0  # atno 17321 bound_to 7965
  140.6987  143.7686  150.7367 LP  0  0  0  0  0  0  0  0  0  0  0  0  # atno 17342 bound_to 10162
  140.1190  143.4629  152.2324 LP  0  0  0  0  0  0  0  0  0  0  0  0  # atno 17343 bound_to 10162
  157.5045  130.7900  149.7640 LP  0  0  0  0  0  0  0  0  0  0  0  0  # atno 17370 bound_to 10713
  156.0014  130.3878  150.2593 LP  0  0  0  0  0  0  0  0  0  0  0  0  # atno 17371 bound_to 10713
  139.9260  135.0201  156.8234 LP  0  0  0  0  0  0  0  0  0  0  0  0  # atno 17394 bound_to 11000
  140.6274  133.9937  155.7646 LP  0  0  0  0  0  0  0  0  0  0  0  0  # atno 17395 bound_to 11000

$$$$
