AV-unprocessed.smi:3028|AV-procd|sdf|11521|dock9
  -GOLD-   2272016463D 1   1.00000     0.00000
 Structure written by MMmdl.
 47 48  0  0  0  0  0  0  0  0  1 V2000
  151.3447  143.1854  158.3088 C   0  0  0  0  0  0  0  0  0  0  0  0
  151.0160  141.9755  157.4829 C   0  0  0  0  0  0  0  0  0  0  0  0
  151.7014  140.7283  157.4457 C   0  0  0  0  0  0  0  0  0  0  0  0
  151.1551  139.8658  156.6048 N   0  0  0  0  0  0  0  0  0  0  0  0
  150.1029  140.5267  156.0747 N   0  0  0  0  0  0  0  0  0  0  0  0
  149.2571  139.8701  155.0851 C   0  0  2  0  0  0  0  0  0  0  0  0
  149.9397  138.5748  154.6056 C   0  0  0  0  0  0  0  0  0  0  0  0
  148.8859  140.8223  153.9160 C   0  0  2  0  0  0  0  0  0  0  0  0
  147.9221  141.9525  154.3405 C   0  0  0  0  0  0  0  0  0  0  0  0
  148.2627  140.0242  152.8627 N   0  0  0  0  0  0  0  0  0  0  0  0
  146.9263  139.5222  153.2152 C   0  0  0  0  0  0  0  0  0  0  0  0
  146.3851  138.5017  152.2012 C   0  0  0  0  0  0  0  0  0  0  0  0
  146.9126  138.3837  151.0957 O   0  0  0  0  0  0  0  0  0  0  0  0
  145.3341  137.7365  152.5416 N   0  0  0  0  0  0  0  0  0  0  0  0
  144.6729  136.7156  151.7313 C   0  0  0  0  0  0  0  0  0  0  0  0
  143.6303  135.9750  152.5824 C   0  0  0  0  0  0  0  0  0  0  0  0
  143.0292  134.7948  151.8016 C   0  0  0  0  0  0  0  0  0  0  0  0
  144.0644  133.9171  151.3717 O   0  0  0  0  0  0  0  0  0  0  0  0
  144.9855  134.5391  150.4821 C   0  0  0  0  0  0  0  0  0  0  0  0
  145.6968  135.7031  151.1908 C   0  0  0  0  0  0  0  0  0  0  0  0
  149.9975  141.8036  156.5889 C   0  0  0  0  0  0  0  0  0  0  0  0
  152.1042  142.9694  159.0606 H   0  0  0  0  0  0  0  0  0  0  0  0
  150.4689  143.5630  158.8368 H   0  0  0  0  0  0  0  0  0  0  0  0
  151.7256  144.0000  157.6925 H   0  0  0  0  0  0  0  0  0  0  0  0
  152.5767  140.4263  158.0019 H   0  0  0  0  0  0  0  0  0  0  0  0
  148.3326  139.5834  155.5912 H   0  0  0  0  0  0  0  0  0  0  0  0
  149.2876  137.9957  153.9517 H   0  0  0  0  0  0  0  0  0  0  0  0
  150.1992  137.9357  155.4501 H   0  0  0  0  0  0  0  0  0  0  0  0
  150.8566  138.7864  154.0546 H   0  0  0  0  0  0  0  0  0  0  0  0
  149.8069  141.2685  153.5371 H   0  0  0  0  0  0  0  0  0  0  0  0
  148.3574  142.5837  155.1151 H   0  0  0  0  0  0  0  0  0  0  0  0
  146.9880  141.5486  154.7322 H   0  0  0  0  0  0  0  0  0  0  0  0
  147.6757  142.6152  153.5118 H   0  0  0  0  0  0  0  0  0  0  0  0
  148.8843  139.2793  152.5813 H   0  0  0  0  0  0  0  0  0  0  0  0
  146.9579  139.0452  154.1940 H   0  0  0  0  0  0  0  0  0  0  0  0
  146.2327  140.3612  153.2757 H   0  0  0  0  0  0  0  0  0  0  0  0
  144.9526  137.8790  153.4657 H   0  0  0  0  0  0  0  0  0  0  0  0
  144.1484  137.1741  150.8922 H   0  0  0  0  0  0  0  0  0  0  0  0
  144.0939  135.5994  153.4959 H   0  0  0  0  0  0  0  0  0  0  0  0
  142.8397  136.6594  152.8922 H   0  0  0  0  0  0  0  0  0  0  0  0
  142.3382  134.2395  152.4361 H   0  0  0  0  0  0  0  0  0  0  0  0
  142.4572  135.1475  150.9420 H   0  0  0  0  0  0  0  0  0  0  0  0
  145.7147  133.7977  150.1554 H   0  0  0  0  0  0  0  0  0  0  0  0
  144.4653  134.8883  149.5887 H   0  0  0  0  0  0  0  0  0  0  0  0
  146.3914  136.1868  150.5038 H   0  0  0  0  0  0  0  0  0  0  0  0
  146.2970  135.3081  152.0119 H   0  0  0  0  0  0  0  0  0  0  0  0
  149.2134  142.4785  156.2780 H   0  0  0  0  0  0  0  0  0  0  0  0
  1  2  1  0  0  0  0
  1 22  1  0  0  0  0
  1 23  1  0  0  0  0
  1 24  1  0  0  0  0
  2 21  2  0  0  0  0
  2  3  1  0  0  0  0
  3  4  2  0  0  0  0
  3 25  1  0  0  0  0
  4  5  1  0  0  0  0
  5  6  1  0  0  0  0
  5 21  1  0  0  0  0
  6  7  1  0  0  0  0
  6  8  1  0  0  0  0
  6 26  1  0  0  0  0
  7 27  1  0  0  0  0
  7 28  1  0  0  0  0
  7 29  1  0  0  0  0
  8  9  1  0  0  0  0
  8 10  1  0  0  0  0
  8 30  1  0  0  0  0
  9 31  1  0  0  0  0
  9 32  1  0  0  0  0
  9 33  1  0  0  0  0
 10 11  1  0  0  0  0
 10 34  1  0  0  0  0
 11 12  1  0  0  0  0
 11 35  1  0  0  0  0
 11 36  1  0  0  0  0
 12 13  2  0  0  0  0
 12 14  1  0  0  0  0
 14 15  1  0  0  0  0
 14 37  1  0  0  0  0
 15 20  1  0  0  0  0
 15 16  1  0  0  0  0
 15 38  1  0  0  0  0
 16 17  1  0  0  0  0
 16 39  1  0  0  0  0
 16 40  1  0  0  0  0
 17 18  1  0  0  0  0
 17 41  1  0  0  0  0
 17 42  1  0  0  0  0
 18 19  1  0  0  0  0
 19 20  1  0  0  0  0
 19 43  1  0  0  0  0
 19 44  1  0  0  0  0
 20 45  1  0  0  0  0
 20 46  1  0  0  0  0
 21 47  1  0  0  0  0
M  END
> <s_m_source_file>
AV-unprocessed.smi

> <i_m_source_file_index>
3028

> <i_lp_mmshare_version>
43012

> <i_f3d_flags>
0

> <s_epik_input>
W0NIM11jMVtjSF1ubihbY0hdMSlbQ0BIXShbQ0gzXSlbQ0BIXShbQ0gzXSlbTkhdW0NIMl1DKD1PKVtOSF1bQ0hdMltDSDJdW0NIMl1PW0NIMl1bQ0gyXTI=

> <s_epik_cmdline>
J2VwaWtfcHl0aG9uJywgJy1waCcsICc3LjAnLCAnLXRuJywgJzgnLCAnLW1hJywgJzIwMCcsICctbWV0YWxfYmluZGluZycsICctaW1hZScsICc8aW5maWxlLm1hZT4nLCAnLW9tYWUnLCAnPG91dGZpbGUubWFlPic=

> <r_lp_tautomer_probability>
1

> <r_epik_Ionization_Penalty>
0.88617

> <r_epik_Ionization_Penalty_Charging>
0

> <r_epik_Ionization_Penalty_Neutral>
0.88617

> <r_epik_State_Penalty>
0.921066

> <r_epik_Charging_Adjusted_Penalty>
0.921066

> <i_epik_Tot_Q>
0

> <i_epik_Tot_abs_Q>
0

> <r_epik_Metal_State_Penalty>
0.917309

> <b_epik_Metal_Only>
0

> <s_lp_Force_Field>
OPLS_2005

> <r_lp_Energy>
19.247

> <b_lp_Chiralities_Consistent>
1

> <s_lp_Variant>
AV-unprocessed.smi:3028-5

> <Gold.Version>
5.8.1

> <Gold.Id.Protein>
6NUR|6NUR_protein|mol2

> <Gold.PLP.Fitness>
41.7514

> <Gold.PLP.PLP>
-36.5912

> <Gold.PLP.part.hbond>
-1.1203

> <Gold.PLP.part.metal>
0.0000

> <Gold.PLP.part.buried>
-2.5733

> <Gold.PLP.part.nonpolar>
-33.4190

> <Gold.PLP.part.repulsive>
0.6302

> <Gold.PLP.ligand.clash>
0.0000

> <Gold.PLP.ligand.torsion>
0.8188

> <Gold.PLP.Chemscore.Hbond>
1.2400

> <Gold.PLP.Chemscore.CHOScore>
1.0000

> <Gold.PLP.Chemscore.Metal>
0.0000

> <Gold.Chemscore.Hbonds>
donor molecule, donor type, donor heavy atom, donor atom, acceptor molecule, acceptor atom, score
      P1  H  7954  7966       L1    13  1.00
      L1  C    21    47       P1  8028  1.00

> <Gold.PLP.Chemscore.Internal.Correction>
0.0779

> <Gold.Rescore>
     Score         DG    S(hbond)    S(metal)    S(lipo)     H(rot)  DE(clash)    DE(int)     intcor
     13.77     -14.80       1.23        0.00      86.63       1.92       0.45       0.59       ----

> <Gold.Chemscore.Fitness>
13.7700

> <Gold.Chemscore.DG>
-14.8027

> <Gold.Chemscore.ZeroCoef>
-5.4800

> <Gold.Chemscore.Hbond>
1.2307

> <Gold.Chemscore.Metal>
0.0000

> <Gold.Chemscore.Lipo>
86.6304

> <Gold.Chemscore.Internal_Hbond>
0.0000

> <Gold.Chemscore.DEClash>
0.4464

> <Gold.Chemscore.DEInternal>
0.5863

> <Gold.Chemscore.Rot>
1.9233

> <Gold.Chemscore.Internal.Correction>
   9.000000E+99

> <Gold.Chemscore.Hbonds>
donor molecule, donor type, donor heavy atom, donor atom, acceptor molecule, acceptor atom, score
      L1  H    10    34       P1  7957  0.06
      P1  H  7954  7966       L1    13  0.99

> <Gold.Chemscore.Hbond.Weighted>
-4.1105

> <Gold.Chemscore.Metal.Weighted>
-0.0000

> <Gold.Chemscore.Lipo.Weighted>
-10.1358

> <Gold.Chemscore.Internal_Hbond.Weighted>
0.0000

> <Gold.Chemscore.DEClash.Weighted>
0.4464

> <Gold.Chemscore.DEInternal.Weighted>
0.5863

> <Gold.Chemscore.Rot.Weighted>
4.9235

> <Gold.Chemscore.Internal.Correction.Weighted>
   9.000000E+99

> <Gold.Protein.RotatedTorsions>
[ 6907 6896 6895 6894 ] final   -1.78 input  -60.11 | X-H torsion
[ 7974 7965 7964 7962 ] final -118.70 input  175.53 | X-H torsion
[ 8008 7997 7996 7995 ] final -179.06 input   59.86 | X-H torsion
[ 10167 10162 10161 10158 ] final   95.50 input  -65.29 | X-H torsion
[ 10718 10713 10712 10709 ] final   59.66 input   66.30 | X-H torsion
[ 10763 10752 10751 10750 ] final   48.63 input  -60.55 | X-H torsion
[ 11005 11000 10999 10996 ] final   35.96 input  -57.11 | X-H torsion

> <Gold.Protein.ActiveResidues>
 VAL166  LYS551  ARG553  GLY616  TRP617  ASP618  TYR619  PRO620  LYS621  CYS622 
 ASP623  PHE694  ASN695  SER759  ASP760  ASP761  ALA762  ILE779  LEU786  VAL792 
 PHE793  MET794  SER795  GLU796  ALA797  LYS798  CYS799  TRP800  GLU811  SER814 

> <Gold.Protein.RotatedAtoms>
  151.5405  135.1068  159.9924 H   0  0  0  0  0  0  0  0  0  0  0  0  # atno 6907 bound_to 6896
  152.4537  133.7676  159.6792 H   0  0  0  0  0  0  0  0  0  0  0  0  # atno 6908 bound_to 6896
  150.8474  133.7774  159.3062 H   0  0  0  0  0  0  0  0  0  0  0  0  # atno 6909 bound_to 6896
  145.0708  140.8358  143.4096 H   0  0  0  0  0  0  0  0  0  0  0  0  # atno 7974 bound_to 7965
  156.0261  140.1272  157.0307 H   0  0  0  0  0  0  0  0  0  0  0  0  # atno 8008 bound_to 7997
  154.4331  140.1059  156.6103 H   0  0  0  0  0  0  0  0  0  0  0  0  # atno 8009 bound_to 7997
  155.5874  140.3469  155.4559 H   0  0  0  0  0  0  0  0  0  0  0  0  # atno 8010 bound_to 7997
  139.7982  144.6824  150.9800 H   0  0  0  0  0  0  0  0  0  0  0  0  # atno 10167 bound_to 10162
  157.5693  130.8895  149.9239 H   0  0  0  0  0  0  0  0  0  0  0  0  # atno 10718 bound_to 10713
  152.9791  135.5938  154.3958 H   0  0  0  0  0  0  0  0  0  0  0  0  # atno 10763 bound_to 10752
  154.3609  135.2767  155.2322 H   0  0  0  0  0  0  0  0  0  0  0  0  # atno 10764 bound_to 10752
  154.4320  135.6034  153.6130 H   0  0  0  0  0  0  0  0  0  0  0  0  # atno 10765 bound_to 10752
  140.2374  134.3455  155.7939 H   0  0  0  0  0  0  0  0  0  0  0  0  # atno 11005 bound_to 11000
  145.1295  139.2641  143.5547 LP  0  0  0  0  0  0  0  0  0  0  0  0  # atno 17320 bound_to 7965
  146.3528  140.0941  142.8611 LP  0  0  0  0  0  0  0  0  0  0  0  0  # atno 17321 bound_to 7965
  140.7820  143.4309  151.0696 LP  0  0  0  0  0  0  0  0  0  0  0  0  # atno 17342 bound_to 10162
  139.7982  143.8121  152.3160 LP  0  0  0  0  0  0  0  0  0  0  0  0  # atno 17343 bound_to 10162
  156.0739  130.3681  150.0718 LP  0  0  0  0  0  0  0  0  0  0  0  0  # atno 17370 bound_to 10713
  156.8873  130.9577  151.3592 LP  0  0  0  0  0  0  0  0  0  0  0  0  # atno 17371 bound_to 10713
  141.2213  133.7279  156.8830 LP  0  0  0  0  0  0  0  0  0  0  0  0  # atno 17394 bound_to 11000
  140.1688  134.9114  157.2808 LP  0  0  0  0  0  0  0  0  0  0  0  0  # atno 17395 bound_to 11000

$$$$
