AV-unprocessed.smi:1703|AV-procd|sdf|6862|dock4
  -GOLD-   22720 8 53D 1   1.00000     0.00000
 Structure written by MMmdl.
 49 51  0  0  0  0  0  0  0  0  2 V2000
  147.2712  140.0690  152.8266 C   0  0  0  0  0  0  0  0  0  0  0  0
  147.9828  140.3430  154.1560 C   0  0  1  0  0  0  0  0  0  0  0  0
  148.4707  141.8047  154.2591 C   0  0  0  0  0  0  0  0  0  0  0  0
  149.0395  142.1029  155.5987 N   0  3  2  0  0  0  0  0  0  0  0  0
  150.4243  141.6039  155.8153 C   0  0  0  0  0  0  0  0  0  0  0  0
  151.0894  142.2301  157.0563 C   0  0  1  0  0  0  0  0  0  0  0  0
  150.4997  143.4930  157.2999 O   0  0  0  0  0  0  0  0  0  0  0  0
  150.9259  141.3315  158.2985 C   0  0  0  0  0  0  0  0  0  0  0  0
  152.1356  140.5893  158.6275 N   0  0  0  0  0  0  0  0  0  0  0  0
  152.7350  139.6018  157.9149 C   0  0  0  0  0  0  0  0  0  0  0  0
  152.1901  139.1109  156.6083 C   0  0  0  0  0  0  0  0  0  0  0  0
  153.0862  139.3042  155.5349 O   0  0  0  0  0  0  0  0  0  0  0  0
  153.8413  139.0877  158.4529 N   0  0  0  0  0  0  0  0  0  0  0  0
  153.9700  139.8033  159.6270 C   0  0  0  0  0  0  0  0  0  0  0  0
  154.9452  139.7266  160.6470 C   0  0  0  0  0  0  0  0  0  0  0  0
  154.8690  140.5728  161.7726 C   0  0  0  0  0  0  0  0  0  0  0  0
  153.8193  141.5062  161.8941 C   0  0  0  0  0  0  0  0  0  0  0  0
  152.8370  141.5989  160.8895 C   0  0  0  0  0  0  0  0  0  0  0  0
  152.9173  140.7516  159.7678 C   0  0  0  0  0  0  0  0  0  0  0  0
  148.0895  141.7054  156.6659 C   0  0  0  0  0  0  0  0  0  0  0  0
  147.6462  140.2378  156.5020 C   0  0  1  0  0  0  0  0  0  0  0  0
  146.6042  139.8309  157.5493 C   0  0  0  0  0  0  0  0  0  0  0  0
  147.0660  140.0761  155.2121 O   0  0  0  0  0  0  0  0  0  0  0  0
  147.9360  140.2488  151.9812 H   0  0  0  0  0  0  0  0  0  0  0  0
  146.3963  140.7088  152.7066 H   0  0  0  0  0  0  0  0  0  0  0  0
  146.9360  139.0332  152.7698 H   0  0  0  0  0  0  0  0  0  0  0  0
  148.8262  139.6560  154.2347 H   0  0  0  0  0  0  0  0  0  0  0  0
  149.1884  142.0257  153.4699 H   0  0  0  0  0  0  0  0  0  0  0  0
  147.6276  142.4781  154.0979 H   0  0  0  0  0  0  0  0  0  0  0  0
  150.4099  140.5205  155.9444 H   0  0  0  0  0  0  0  0  0  0  0  0
  151.0297  141.7896  154.9283 H   0  0  0  0  0  0  0  0  0  0  0  0
  152.1516  142.3883  156.8760 H   0  0  0  0  0  0  0  0  0  0  0  0
  150.1491  143.8270  156.4882 H   0  0  0  0  0  0  0  0  0  0  0  0
  150.6434  141.9319  159.1642 H   0  0  0  0  0  0  0  0  0  0  0  0
  150.1095  140.6251  158.1482 H   0  0  0  0  0  0  0  0  0  0  0  0
  151.9379  138.0538  156.6842 H   0  0  0  0  0  0  0  0  0  0  0  0
  151.2625  139.6389  156.3843 H   0  0  0  0  0  0  0  0  0  0  0  0
  153.1984  138.4808  155.0854 H   0  0  0  0  0  0  0  0  0  0  0  0
  155.7534  139.0151  160.5635 H   0  0  0  0  0  0  0  0  0  0  0  0
  155.6197  140.5053  162.5464 H   0  0  0  0  0  0  0  0  0  0  0  0
  153.7686  142.1507  162.7594 H   0  0  0  0  0  0  0  0  0  0  0  0
  152.0333  142.3137  160.9815 H   0  0  0  0  0  0  0  0  0  0  0  0
  148.5273  141.8747  157.6503 H   0  0  0  0  0  0  0  0  0  0  0  0
  147.2172  142.3579  156.6051 H   0  0  0  0  0  0  0  0  0  0  0  0
  148.5064  139.5730  156.5972 H   0  0  0  0  0  0  0  0  0  0  0  0
  147.0029  139.9302  158.5592 H   0  0  0  0  0  0  0  0  0  0  0  0
  146.3002  138.7928  157.4134 H   0  0  0  0  0  0  0  0  0  0  0  0
  145.7102  140.4513  157.4800 H   0  0  0  0  0  0  0  0  0  0  0  0
  149.1170  143.1086  155.6620 H   0  0  0  0  0  0  0  0  0  0  0  0
  1  2  1  0  0  0  0
  1 24  1  0  0  0  0
  1 25  1  0  0  0  0
  1 26  1  0  0  0  0
  2 23  1  0  0  0  0
  2  3  1  0  0  0  0
  2 27  1  0  0  0  0
  3  4  1  0  0  0  0
  3 28  1  0  0  0  0
  3 29  1  0  0  0  0
  4  5  1  0  0  0  0
  4 20  1  0  0  0  0
  4 49  1  0  0  0  0
  5  6  1  0  0  0  0
  5 30  1  0  0  0  0
  5 31  1  0  0  0  0
  6  7  1  0  0  0  0
  6  8  1  0  0  0  0
  6 32  1  0  0  0  0
  7 33  1  0  0  0  0
  8  9  1  0  0  0  0
  8 34  1  0  0  0  0
  8 35  1  0  0  0  0
  9 19  1  0  0  0  0
  9 10  1  0  0  0  0
 10 11  1  0  0  0  0
 10 13  2  0  0  0  0
 11 12  1  0  0  0  0
 11 36  1  0  0  0  0
 11 37  1  0  0  0  0
 12 38  1  0  0  0  0
 13 14  1  0  0  0  0
 14 19  2  0  0  0  0
 14 15  1  0  0  0  0
 15 16  2  0  0  0  0
 15 39  1  0  0  0  0
 16 17  1  0  0  0  0
 16 40  1  0  0  0  0
 17 18  2  0  0  0  0
 17 41  1  0  0  0  0
 18 19  1  0  0  0  0
 18 42  1  0  0  0  0
 20 21  1  0  0  0  0
 20 43  1  0  0  0  0
 20 44  1  0  0  0  0
 21 22  1  0  0  0  0
 21 23  1  0  0  0  0
 21 45  1  0  0  0  0
 22 46  1  0  0  0  0
 22 47  1  0  0  0  0
 22 48  1  0  0  0  0
M  CHG  1   4   1
M  END
> <s_m_source_file>
AV-unprocessed.smi

> <i_m_source_file_index>
1703

> <i_lp_mmshare_version>
43012

> <i_f3d_flags>
0

> <s_epik_input>
W0NIM11bQ0BASF0xW0NIMl1OKFtDSDJdW0NASF0oTzEpW0NIM10pW0NIMl1bQ0BIXShbT0hdKVtDSDJdbihjKG4yKVtDSDJdW09IXSljKGMyMylbY0hdW2NIXVtjSF1bY0hdMw==

> <s_epik_cmdline>
J2VwaWtfcHl0aG9uJywgJy1waCcsICc3LjAnLCAnLXRuJywgJzgnLCAnLW1hJywgJzIwMCcsICctbWV0YWxfYmluZGluZycsICctaW1hZScsICc8aW5maWxlLm1hZT4nLCAnLW9tYWUnLCAnPG91dGZpbGUubWFlPic=

> <r_epik_Ionization_Penalty>
0.655661

> <r_epik_Ionization_Penalty_Charging>
0.608065

> <r_epik_Ionization_Penalty_Neutral>
0.0475963

> <r_epik_State_Penalty>
0.695267

> <r_epik_Charging_Adjusted_Penalty>
1.30333

> <i_epik_Tot_Q>
1

> <i_epik_Tot_abs_Q>
1

> <r_epik_Metal_State_Penalty>
0.653591

> <b_epik_Metal_Only>
0

> <s_lp_Force_Field>
OPLS_2005

> <r_lp_Energy>
23.9002

> <b_lp_Chiralities_Consistent>
1

> <s_lp_Variant>
AV-unprocessed.smi:1703-10

> <Gold.Version>
5.8.1

> <Gold.Id.Protein>
6NUR|6NUR_protein|mol2

> <Gold.PLP.Fitness>
51.2966

> <Gold.PLP.PLP>
-39.2971

> <Gold.PLP.part.hbond>
-3.8357

> <Gold.PLP.part.metal>
0.0000

> <Gold.PLP.part.buried>
-2.3640

> <Gold.PLP.part.nonpolar>
-33.4813

> <Gold.PLP.part.repulsive>
0.1547

> <Gold.PLP.ligand.clash>
0.0000

> <Gold.PLP.ligand.torsion>
1.1747

> <Gold.PLP.Chemscore.Hbond>
4.7520

> <Gold.PLP.Chemscore.CHOScore>
0.0000

> <Gold.PLP.Chemscore.Metal>
0.0000

> <Gold.Chemscore.Hbonds>
donor molecule, donor type, donor heavy atom, donor atom, acceptor molecule, acceptor atom, score
      L1  H     4    49       P1  8028  2.00
      L1  H     7    33       P1  8028  0.96
      P1  H  7997  8009       L1    13  0.84
      P1  H  7997  8010       L1    12  0.82

> <Gold.PLP.Chemscore.Internal.Correction>
0.0930

> <Gold.Rescore>
     Score         DG    S(hbond)    S(metal)    S(lipo)     H(rot)  DE(clash)    DE(int)     intcor
     17.12     -18.87       2.79        0.00      99.63       2.96       0.55       1.21       ----

> <Gold.Chemscore.Fitness>
17.1207

> <Gold.Chemscore.DG>
-18.8735

> <Gold.Chemscore.ZeroCoef>
-5.4800

> <Gold.Chemscore.Hbond>
2.7894

> <Gold.Chemscore.Metal>
0.0000

> <Gold.Chemscore.Lipo>
99.6341

> <Gold.Chemscore.Internal_Hbond>
0.0000

> <Gold.Chemscore.DEClash>
0.5468

> <Gold.Chemscore.DEInternal>
1.2059

> <Gold.Chemscore.Rot>
2.9611

> <Gold.Chemscore.Internal.Correction>
   9.000000E+99

> <Gold.Chemscore.Hbonds>
donor molecule, donor type, donor heavy atom, donor atom, acceptor molecule, acceptor atom, score
      L1  H     4    49       P1  8028  0.99
      L1  H     7    33       P1  8028  0.92
      P1  H  7997  8009       L1    13  0.04
      P1  H  7997  8010       L1    12  0.69

> <Gold.Chemscore.Hbond.Weighted>
-9.3166

> <Gold.Chemscore.Metal.Weighted>
-0.0000

> <Gold.Chemscore.Lipo.Weighted>
-11.6572

> <Gold.Chemscore.Internal_Hbond.Weighted>
0.0000

> <Gold.Chemscore.DEClash.Weighted>
0.5468

> <Gold.Chemscore.DEInternal.Weighted>
1.2059

> <Gold.Chemscore.Rot.Weighted>
7.5803

> <Gold.Chemscore.Internal.Correction.Weighted>
   9.000000E+99

> <Gold.Protein.RotatedTorsions>
[ 6907 6896 6895 6894 ] final  121.53 input  -60.11 | X-H torsion
[ 7974 7965 7964 7962 ] final  163.68 input  175.53 | X-H torsion
[ 8008 7997 7996 7995 ] final  119.62 input   59.86 | X-H torsion
[ 10167 10162 10161 10158 ] final  169.31 input  -65.29 | X-H torsion
[ 10718 10713 10712 10709 ] final -115.35 input   66.30 | X-H torsion
[ 10763 10752 10751 10750 ] final -171.80 input  -60.55 | X-H torsion
[ 11005 11000 10999 10996 ] final  117.62 input  -57.11 | X-H torsion

> <Gold.Protein.ActiveResidues>
 VAL166  LYS551  ARG553  GLY616  TRP617  ASP618  TYR619  PRO620  LYS621  CYS622 
 ASP623  PHE694  ASN695  SER759  ASP760  ASP761  ALA762  ILE779  LEU786  VAL792 
 PHE793  MET794  SER795  GLU796  ALA797  LYS798  CYS799  TRP800  GLU811  SER814 

> <Gold.Protein.RotatedAtoms>
  152.4315  133.7285  159.6573 H   0  0  0  0  0  0  0  0  0  0  0  0  # atno 6907 bound_to 6896
  150.8194  133.8269  159.3152 H   0  0  0  0  0  0  0  0  0  0  0  0  # atno 6908 bound_to 6896
  151.5955  135.1053  160.0100 H   0  0  0  0  0  0  0  0  0  0  0  0  # atno 6909 bound_to 6896
  144.7579  139.8217  143.6343 H   0  0  0  0  0  0  0  0  0  0  0  0  # atno 7974 bound_to 7965
  156.2604  140.2849  156.1020 H   0  0  0  0  0  0  0  0  0  0  0  0  # atno 8008 bound_to 7997
  155.1349  140.0394  157.2801 H   0  0  0  0  0  0  0  0  0  0  0  0  # atno 8009 bound_to 7997
  154.6572  140.2558  155.7155 H   0  0  0  0  0  0  0  0  0  0  0  0  # atno 8010 bound_to 7997
  139.4989  144.3720  151.9715 H   0  0  0  0  0  0  0  0  0  0  0  0  # atno 10167 bound_to 10162
  156.0890  130.6076  150.8894 H   0  0  0  0  0  0  0  0  0  0  0  0  # atno 10718 bound_to 10713
  154.6264  135.2881  155.0267 H   0  0  0  0  0  0  0  0  0  0  0  0  # atno 10763 bound_to 10752
  154.1443  135.6513  153.4953 H   0  0  0  0  0  0  0  0  0  0  0  0  # atno 10764 bound_to 10752
  153.0259  135.5340  154.7074 H   0  0  0  0  0  0  0  0  0  0  0  0  # atno 10765 bound_to 10752
  139.9081  134.9612  156.7378 H   0  0  0  0  0  0  0  0  0  0  0  0  # atno 11005 bound_to 11000
  146.1610  139.4724  142.9988 LP  0  0  0  0  0  0  0  0  0  0  0  0  # atno 17320 bound_to 7965
  145.6718  141.0214  143.1653 LP  0  0  0  0  0  0  0  0  0  0  0  0  # atno 17321 bound_to 7965
  140.3156  144.3488  150.6022 LP  0  0  0  0  0  0  0  0  0  0  0  0  # atno 17342 bound_to 10162
  140.5764  143.2176  151.7507 LP  0  0  0  0  0  0  0  0  0  0  0  0  # atno 17343 bound_to 10162
  157.6033  131.0940  150.8923 LP  0  0  0  0  0  0  0  0  0  0  0  0  # atno 17370 bound_to 10713
  156.9076  130.5269  149.5281 LP  0  0  0  0  0  0  0  0  0  0  0  0  # atno 17371 bound_to 10713
  140.6874  133.9421  155.7946 LP  0  0  0  0  0  0  0  0  0  0  0  0  # atno 17394 bound_to 11000
  141.0467  134.0544  157.3836 LP  0  0  0  0  0  0  0  0  0  0  0  0  # atno 17395 bound_to 11000

$$$$
