AV-unprocessed.smi:1965|AV-procd|sdf|7936|dock6
  -GOLD-   2272010103D 1   1.00000     0.00000
 Structure written by MMmdl.
 37 39  0  0  0  0  0  0  0  0  2 V2000
  153.0073  139.5886  157.4071 O   0  0  0  0  0  0  0  0  0  0  0  0
  152.1673  140.4403  157.6912 C   0  0  0  0  0  0  0  0  0  0  0  0
  151.0004  140.5225  157.0181 N   0  0  0  0  0  0  0  0  0  0  0  0
  150.4843  139.7496  155.9379 C   0  0  0  0  0  0  0  0  0  0  0  0
  149.2035  139.7339  155.5454 N   0  0  0  0  0  0  0  0  0  0  0  0
  149.0001  138.9009  154.4421 C   0  0  0  0  0  0  0  0  0  0  0  0
  150.1462  138.2915  153.9965 C   0  0  0  0  0  0  0  0  0  0  0  0
  151.5341  138.7438  154.9493 S   0  0  0  0  0  0  0  0  0  0  0  0
  152.3460  141.3381  158.6746 N   0  0  0  0  0  0  0  0  0  0  0  0
  153.5441  141.4758  159.4996 C   0  0  2  0  0  0  0  0  0  0  0  0
  153.9195  140.1727  160.2318 C   0  0  0  0  0  0  0  0  0  0  0  0
  154.3183  140.6195  161.6420 C   0  0  0  0  0  0  0  0  0  0  0  0
  153.4515  141.7800  161.8760 N   0  3  1  0  0  0  0  0  0  0  0  0
  153.7198  142.6370  163.0485 C   0  0  0  0  0  0  0  0  0  0  0  0
  152.5748  143.6650  163.1742 C   0  0  0  0  0  0  0  0  0  0  0  0
  152.3359  144.4396  161.8582 C   0  0  0  0  0  0  0  0  0  0  0  0
  152.1920  143.4882  160.6508 C   0  0  0  0  0  0  0  0  0  0  0  0
  153.4032  142.5386  160.6144 C   0  0  2  0  0  0  0  0  0  0  0  0
  150.3513  141.2021  157.3879 H   0  0  0  0  0  0  0  0  0  0  0  0
  148.0045  138.8010  154.0354 H   0  0  0  0  0  0  0  0  0  0  0  0
  150.2579  137.6090  153.1669 H   0  0  0  0  0  0  0  0  0  0  0  0
  151.5993  141.9979  158.8416 H   0  0  0  0  0  0  0  0  0  0  0  0
  154.3863  141.7561  158.8640 H   0  0  0  0  0  0  0  0  0  0  0  0
  153.0544  139.5107  160.2965 H   0  0  0  0  0  0  0  0  0  0  0  0
  154.7158  139.6229  159.7293 H   0  0  0  0  0  0  0  0  0  0  0  0
  154.1691  139.8404  162.3901 H   0  0  0  0  0  0  0  0  0  0  0  0
  155.3642  140.9292  161.6656 H   0  0  0  0  0  0  0  0  0  0  0  0
  153.7750  142.0235  163.9484 H   0  0  0  0  0  0  0  0  0  0  0  0
  154.6828  143.1374  162.9366 H   0  0  0  0  0  0  0  0  0  0  0  0
  151.6568  143.1436  163.4491 H   0  0  0  0  0  0  0  0  0  0  0  0
  152.7850  144.3621  163.9861 H   0  0  0  0  0  0  0  0  0  0  0  0
  151.4485  145.0667  161.9489 H   0  0  0  0  0  0  0  0  0  0  0  0
  153.1732  145.1165  161.6842 H   0  0  0  0  0  0  0  0  0  0  0  0
  151.2644  142.9198  160.7314 H   0  0  0  0  0  0  0  0  0  0  0  0
  152.1314  144.0677  159.7292 H   0  0  0  0  0  0  0  0  0  0  0  0
  154.3062  143.1514  160.5668 H   0  0  0  0  0  0  0  0  0  0  0  0
  152.5252  141.3990  162.0065 H   0  0  0  0  0  0  0  0  0  0  0  0
  1  2  2  0  0  0  0
  2  3  1  0  0  0  0
  2  9  1  0  0  0  0
  3  4  1  0  0  0  0
  3 19  1  0  0  0  0
  4  8  1  0  0  0  0
  4  5  2  0  0  0  0
  5  6  1  0  0  0  0
  6  7  2  0  0  0  0
  6 20  1  0  0  0  0
  7  8  1  0  0  0  0
  7 21  1  0  0  0  0
  9 10  1  0  0  0  0
  9 22  1  0  0  0  0
 10 18  1  0  0  0  0
 10 11  1  0  0  0  0
 10 23  1  0  0  0  0
 11 12  1  0  0  0  0
 11 24  1  0  0  0  0
 11 25  1  0  0  0  0
 12 13  1  0  0  0  0
 12 26  1  0  0  0  0
 12 27  1  0  0  0  0
 13 18  1  0  0  0  0
 13 14  1  0  0  0  0
 13 37  1  0  0  0  0
 14 15  1  0  0  0  0
 14 28  1  0  0  0  0
 14 29  1  0  0  0  0
 15 16  1  0  0  0  0
 15 30  1  0  0  0  0
 15 31  1  0  0  0  0
 16 17  1  0  0  0  0
 16 32  1  0  0  0  0
 16 33  1  0  0  0  0
 17 18  1  0  0  0  0
 17 34  1  0  0  0  0
 17 35  1  0  0  0  0
 18 36  1  0  0  0  0
M  CHG  1  13   1
M  END
> <s_m_source_file>
AV-unprocessed.smi

> <i_m_source_file_index>
1965

> <i_lp_mmshare_version>
43012

> <i_f3d_flags>
0

> <s_epik_input>
czFbY0hdW2NIXW5jMVtOSF1DKD1PKVtOSF1bQ0BIXShbQ0gyXVtDSDJdMilbQ0BASF0oTjIzKVtDSDJdW0NIMl1bQ0gyXVtDSDJdMw==

> <s_epik_cmdline>
J2VwaWtfcHl0aG9uJywgJy1waCcsICc3LjAnLCAnLXRuJywgJzgnLCAnLW1hJywgJzIwMCcsICctbWV0YWxfYmluZGluZycsICctaW1hZScsICc8aW5maWxlLm1hZT4nLCAnLW9tYWUnLCAnPG91dGZpbGUubWFlPic=

> <r_lp_tautomer_probability>
1

> <r_epik_Ionization_Penalty>
0.00125962

> <r_epik_Ionization_Penalty_Charging>
0.00107044

> <r_epik_Ionization_Penalty_Neutral>
0.000189176

> <r_epik_State_Penalty>
-0

> <r_epik_Charging_Adjusted_Penalty>
0.00107044

> <i_epik_Tot_Q>
1

> <i_epik_Tot_abs_Q>
1

> <r_epik_Metal_State_Penalty>
0.0179285

> <b_epik_Metal_Only>
0

> <s_lp_Force_Field>
OPLS_2005

> <r_lp_Energy>
42.3256

> <b_lp_Chiralities_Consistent>
1

> <s_lp_Variant>
AV-unprocessed.smi:1965-5

> <Gold.Version>
5.8.1

> <Gold.Id.Protein>
6NUR|6NUR_protein|mol2

> <Gold.PLP.Fitness>
40.4090

> <Gold.PLP.PLP>
-34.5613

> <Gold.PLP.part.hbond>
-1.0000

> <Gold.PLP.part.metal>
0.0000

> <Gold.PLP.part.buried>
1.8740

> <Gold.PLP.part.nonpolar>
-34.5212

> <Gold.PLP.part.repulsive>
0.2506

> <Gold.PLP.ligand.clash>
0.0000

> <Gold.PLP.ligand.torsion>
0.0762

> <Gold.PLP.Chemscore.Hbond>
1.0000

> <Gold.PLP.Chemscore.CHOScore>
0.9998

> <Gold.PLP.Chemscore.Metal>
0.0000

> <Gold.Chemscore.Hbonds>
donor molecule, donor type, donor heavy atom, donor atom, acceptor molecule, acceptor atom, score
      P1  H  7997  8009       L1     1  1.00
      L1  C     7    21       P1  7948  0.79
      L1  C     7    21       P1  7949  0.22

> <Gold.PLP.Chemscore.Internal.Correction>
0.0009

> <Gold.Rescore>
     Score         DG    S(hbond)    S(metal)    S(lipo)     H(rot)  DE(clash)    DE(int)     intcor
     15.23     -18.90       0.99        0.00     108.30       1.00       1.52       2.15       ----

> <Gold.Chemscore.Fitness>
15.2272

> <Gold.Chemscore.DG>
-18.9002

> <Gold.Chemscore.ZeroCoef>
-5.4800

> <Gold.Chemscore.Hbond>
0.9906

> <Gold.Chemscore.Metal>
0.0000

> <Gold.Chemscore.Lipo>
108.3043

> <Gold.Chemscore.Internal_Hbond>
0.0000

> <Gold.Chemscore.DEClash>
1.5230

> <Gold.Chemscore.DEInternal>
2.1499

> <Gold.Chemscore.Rot>
1.0000

> <Gold.Chemscore.Internal.Correction>
   9.000000E+99

> <Gold.Chemscore.Hbonds>
donor molecule, donor type, donor heavy atom, donor atom, acceptor molecule, acceptor atom, score
      P1  H  7997  8009       L1     1  0.96

> <Gold.Chemscore.Hbond.Weighted>
-3.3085

> <Gold.Chemscore.Metal.Weighted>
-0.0000

> <Gold.Chemscore.Lipo.Weighted>
-12.6716

> <Gold.Chemscore.Internal_Hbond.Weighted>
0.0000

> <Gold.Chemscore.DEClash.Weighted>
1.5230

> <Gold.Chemscore.DEInternal.Weighted>
2.1499

> <Gold.Chemscore.Rot.Weighted>
2.5600

> <Gold.Chemscore.Internal.Correction.Weighted>
   9.000000E+99

> <Gold.Protein.RotatedTorsions>
[ 6907 6896 6895 6894 ] final  120.54 input  -60.11 | X-H torsion
[ 7974 7965 7964 7962 ] final  -81.03 input  175.53 | X-H torsion
[ 8008 7997 7996 7995 ] final  168.21 input   59.86 | X-H torsion
[ 10167 10162 10161 10158 ] final  -12.45 input  -65.29 | X-H torsion
[ 10718 10713 10712 10709 ] final -179.55 input   66.30 | X-H torsion
[ 10763 10752 10751 10750 ] final  -22.41 input  -60.55 | X-H torsion
[ 11005 11000 10999 10996 ] final   -1.22 input  -57.11 | X-H torsion

> <Gold.Protein.ActiveResidues>
 VAL166  LYS551  ARG553  GLY616  TRP617  ASP618  TYR619  PRO620  LYS621  CYS622 
 ASP623  PHE694  ASN695  SER759  ASP760  ASP761  ALA762  ILE779  LEU786  VAL792 
 PHE793  MET794  SER795  GLU796  ALA797  LYS798  CYS799  TRP800  GLU811  SER814 

> <Gold.Protein.RotatedAtoms>
  152.4390  133.7413  159.6642 H   0  0  0  0  0  0  0  0  0  0  0  0  # atno 6907 bound_to 6896
  150.8278  133.8132  159.3117 H   0  0  0  0  0  0  0  0  0  0  0  0  # atno 6908 bound_to 6896
  151.5795  135.1061  160.0065 H   0  0  0  0  0  0  0  0  0  0  0  0  # atno 6909 bound_to 6896
  145.5520  140.9495  143.1494 H   0  0  0  0  0  0  0  0  0  0  0  0  # atno 7974 bound_to 7965
  156.1566  140.1596  156.8682 H   0  0  0  0  0  0  0  0  0  0  0  0  # atno 8008 bound_to 7997
  154.5121  140.0798  156.8046 H   0  0  0  0  0  0  0  0  0  0  0  0  # atno 8009 bound_to 7997
  155.3790  140.3404  155.4248 H   0  0  0  0  0  0  0  0  0  0  0  0  # atno 8010 bound_to 7997
  140.7161  143.5531  150.9278 H   0  0  0  0  0  0  0  0  0  0  0  0  # atno 10167 bound_to 10162
  156.8608  130.9751  151.3083 H   0  0  0  0  0  0  0  0  0  0  0  0  # atno 10718 bound_to 10713
  153.6514  135.6980  153.5207 H   0  0  0  0  0  0  0  0  0  0  0  0  # atno 10763 bound_to 10752
  153.2703  135.4217  155.0980 H   0  0  0  0  0  0  0  0  0  0  0  0  # atno 10764 bound_to 10752
  154.8475  135.3577  154.6059 H   0  0  0  0  0  0  0  0  0  0  0  0  # atno 10765 bound_to 10752
  140.6449  133.9456  155.8347 H   0  0  0  0  0  0  0  0  0  0  0  0  # atno 11005 bound_to 11000
  144.7524  139.7159  143.7267 LP  0  0  0  0  0  0  0  0  0  0  0  0  # atno 17320 bound_to 7965
  146.1910  139.5150  142.9805 LP  0  0  0  0  0  0  0  0  0  0  0  0  # atno 17321 bound_to 7965
  139.9256  143.6554  152.3087 LP  0  0  0  0  0  0  0  0  0  0  0  0  # atno 17342 bound_to 10162
  139.6987  144.7638  151.1312 LP  0  0  0  0  0  0  0  0  0  0  0  0  # atno 17343 bound_to 10162
  157.6251  130.8685  149.9176 LP  0  0  0  0  0  0  0  0  0  0  0  0  # atno 17370 bound_to 10713
  156.0778  130.3677  150.0642 LP  0  0  0  0  0  0  0  0  0  0  0  0  # atno 17371 bound_to 10713
  141.0579  134.0389  157.3697 LP  0  0  0  0  0  0  0  0  0  0  0  0  # atno 17394 bound_to 11000
  139.9067  135.0181  156.7514 LP  0  0  0  0  0  0  0  0  0  0  0  0  # atno 17395 bound_to 11000

$$$$
