AV-unprocessed.smi:1543|AV-procd|sdf|6207|dock2
  -GOLD-   22720 6373D 1   1.00000     0.00000
 Structure written by MMmdl.
 48 49  0  0  0  0  0  0  0  0  1 V2000
  145.9400  143.9083  158.0725 C   0  0  0  0  0  0  0  0  0  0  0  0
  145.8709  142.5858  157.3012 C   0  0  1  0  0  0  0  0  0  0  0  0
  146.8214  142.5703  156.0914 C   0  0  0  0  0  0  0  0  0  0  0  0
  146.8038  141.2799  155.3962 N   0  0  0  0  0  0  0  0  0  0  0  0
  147.5687  141.2442  154.1175 C   0  0  0  0  0  0  0  0  0  0  0  0
  147.1087  140.1107  153.1694 C   0  0  0  0  0  0  0  0  0  0  0  0
  147.4185  142.5785  153.3430 C   0  0  0  0  0  0  0  0  0  0  0  0
  149.0942  141.0492  154.3626 C   0  0  0  0  0  0  0  0  0  0  0  0
  149.6668  142.0998  155.2043 N   0  0  0  0  0  0  0  0  0  0  0  0
  150.2589  141.9212  156.3930 C   0  0  0  0  0  0  0  0  0  0  0  0
  150.3730  140.8236  156.9368 O   0  0  0  0  0  0  0  0  0  0  0  0
  150.6964  143.0916  156.8894 N   0  0  0  0  0  0  0  0  0  0  0  0
  151.3565  143.3639  158.1197 C   0  0  0  0  0  0  0  0  0  0  0  0
  151.8726  144.6264  158.5034 C   0  0  0  0  0  0  0  0  0  0  0  0
  152.5012  144.7517  159.7575 C   0  0  0  0  0  0  0  0  0  0  0  0
  152.5884  143.6151  160.5839 C   0  0  0  0  0  0  0  0  0  0  0  0
  152.0950  142.4084  160.2362 N   0  0  0  0  0  0  0  0  0  0  0  0
  151.4943  142.2961  159.0323 C   0  0  0  0  0  0  0  0  0  0  0  0
  147.1573  140.2283  156.3568 C   0  0  0  0  0  0  0  0  0  0  0  0
  146.2573  140.2310  157.6084 C   0  0  2  0  0  0  0  0  0  0  0  0
  144.8445  139.6840  157.3424 C   0  0  0  0  0  0  0  0  0  0  0  0
  146.2215  141.5323  158.1938 O   0  0  0  0  0  0  0  0  0  0  0  0
  145.6714  144.7500  157.4336 H   0  0  0  0  0  0  0  0  0  0  0  0
  146.9433  144.0879  158.4596 H   0  0  0  0  0  0  0  0  0  0  0  0
  145.2528  143.9017  158.9189 H   0  0  0  0  0  0  0  0  0  0  0  0
  144.8453  142.4449  156.9586 H   0  0  0  0  0  0  0  0  0  0  0  0
  146.5171  143.3754  155.4259 H   0  0  0  0  0  0  0  0  0  0  0  0
  147.8330  142.8026  156.4255 H   0  0  0  0  0  0  0  0  0  0  0  0
  147.6864  140.1166  152.2446 H   0  0  0  0  0  0  0  0  0  0  0  0
  146.0617  140.2112  152.8840 H   0  0  0  0  0  0  0  0  0  0  0  0
  147.2376  139.1243  153.6151 H   0  0  0  0  0  0  0  0  0  0  0  0
  148.1139  142.6349  152.5045 H   0  0  0  0  0  0  0  0  0  0  0  0
  147.6126  143.4399  153.9833 H   0  0  0  0  0  0  0  0  0  0  0  0
  146.4224  142.7019  152.9188 H   0  0  0  0  0  0  0  0  0  0  0  0
  149.2951  140.0919  154.8430 H   0  0  0  0  0  0  0  0  0  0  0  0
  149.6233  140.9858  153.4099 H   0  0  0  0  0  0  0  0  0  0  0  0
  149.6277  143.0380  154.8336 H   0  0  0  0  0  0  0  0  0  0  0  0
  150.5012  143.9044  156.3233 H   0  0  0  0  0  0  0  0  0  0  0  0
  151.7996  145.5005  157.8769 H   0  0  0  0  0  0  0  0  0  0  0  0
  152.9065  145.6995  160.0791 H   0  0  0  0  0  0  0  0  0  0  0  0
  153.0652  143.6775  161.5509 H   0  0  0  0  0  0  0  0  0  0  0  0
  151.1125  141.3154  158.7887 H   0  0  0  0  0  0  0  0  0  0  0  0
  147.0957  139.2417  155.9013 H   0  0  0  0  0  0  0  0  0  0  0  0
  148.1903  140.3583  156.6798 H   0  0  0  0  0  0  0  0  0  0  0  0
  146.7155  139.5765  158.3501 H   0  0  0  0  0  0  0  0  0  0  0  0
  144.8876  138.6452  157.0147 H   0  0  0  0  0  0  0  0  0  0  0  0
  144.3256  140.2472  156.5671 H   0  0  0  0  0  0  0  0  0  0  0  0
  144.2368  139.7202  158.2467 H   0  0  0  0  0  0  0  0  0  0  0  0
  1  2  1  0  0  0  0
  1 23  1  0  0  0  0
  1 24  1  0  0  0  0
  1 25  1  0  0  0  0
  2 22  1  0  0  0  0
  2  3  1  0  0  0  0
  2 26  1  0  0  0  0
  3  4  1  0  0  0  0
  3 27  1  0  0  0  0
  3 28  1  0  0  0  0
  4  5  1  0  0  0  0
  4 19  1  0  0  0  0
  5  6  1  0  0  0  0
  5  7  1  0  0  0  0
  5  8  1  0  0  0  0
  6 29  1  0  0  0  0
  6 30  1  0  0  0  0
  6 31  1  0  0  0  0
  7 32  1  0  0  0  0
  7 33  1  0  0  0  0
  7 34  1  0  0  0  0
  8  9  1  0  0  0  0
  8 35  1  0  0  0  0
  8 36  1  0  0  0  0
  9 10  1  0  0  0  0
  9 37  1  0  0  0  0
 10 11  2  0  0  0  0
 10 12  1  0  0  0  0
 12 13  1  0  0  0  0
 12 38  1  0  0  0  0
 13 18  1  0  0  0  0
 13 14  2  0  0  0  0
 14 15  1  0  0  0  0
 14 39  1  0  0  0  0
 15 16  2  0  0  0  0
 15 40  1  0  0  0  0
 16 17  1  0  0  0  0
 16 41  1  0  0  0  0
 17 18  2  0  0  0  0
 18 42  1  0  0  0  0
 19 20  1  0  0  0  0
 19 43  1  0  0  0  0
 19 44  1  0  0  0  0
 20 21  1  0  0  0  0
 20 22  1  0  0  0  0
 20 45  1  0  0  0  0
 21 46  1  0  0  0  0
 21 47  1  0  0  0  0
 21 48  1  0  0  0  0
M  END
> <s_m_source_file>
AV-unprocessed.smi

> <i_m_source_file_index>
1543

> <i_lp_mmshare_version>
43012

> <i_f3d_flags>
0

> <s_epik_input>
W0NIM11bQ0BASF0xW0NIMl1OKFtDSDJdW0NASF0oTzEpW0NIM10pQyhbQ0gzXSkoW0NIM10pW0NIMl1bTkhdQyg9TylbTkhdYzJbY0hdW2NIXVtjSF1uW2NIXTI=

> <s_epik_cmdline>
J2VwaWtfcHl0aG9uJywgJy1waCcsICc3LjAnLCAnLXRuJywgJzgnLCAnLW1hJywgJzIwMCcsICctbWV0YWxfYmluZGluZycsICctaW1hZScsICc8aW5maWxlLm1hZT4nLCAnLW9tYWUnLCAnPG91dGZpbGUubWFlPic=

> <r_epik_Ionization_Penalty>
0.270794

> <r_epik_Ionization_Penalty_Charging>
0

> <r_epik_Ionization_Penalty_Neutral>
0.270794

> <r_epik_State_Penalty>
0.268291

> <r_epik_Charging_Adjusted_Penalty>
0.268291

> <i_epik_Tot_Q>
0

> <i_epik_Tot_abs_Q>
0

> <r_epik_Metal_State_Penalty>
0.264827

> <b_epik_Metal_Only>
0

> <s_lp_Force_Field>
OPLS_2005

> <r_lp_Energy>
46.1399

> <b_lp_Chiralities_Consistent>
1

> <s_lp_Variant>
AV-unprocessed.smi:1543-3

> <Gold.Version>
5.8.1

> <Gold.Id.Protein>
6NUR|6NUR_protein|mol2

> <Gold.PLP.Fitness>
42.4487

> <Gold.PLP.PLP>
-37.1546

> <Gold.PLP.part.hbond>
-3.0000

> <Gold.PLP.part.metal>
0.0000

> <Gold.PLP.part.buried>
-7.3589

> <Gold.PLP.part.nonpolar>
-27.0558

> <Gold.PLP.part.repulsive>
0.2831

> <Gold.PLP.ligand.clash>
0.0000

> <Gold.PLP.ligand.torsion>
0.5039

> <Gold.PLP.Chemscore.Hbond>
2.0801

> <Gold.PLP.Chemscore.CHOScore>
0.0000

> <Gold.PLP.Chemscore.Metal>
0.0000

> <Gold.Chemscore.Hbonds>
donor molecule, donor type, donor heavy atom, donor atom, acceptor molecule, acceptor atom, score
      L1  H     9    37       P1  8028  0.62
      L1  H    12    38       P1  8028  0.70

> <Gold.PLP.Chemscore.Internal.Correction>
0.0618

> <Gold.Rescore>
     Score         DG    S(hbond)    S(metal)    S(lipo)     H(rot)  DE(clash)    DE(int)     intcor
     17.41     -19.63       2.22        0.00      88.83       1.43       0.03       2.19       ----

> <Gold.Chemscore.Fitness>
17.4089

> <Gold.Chemscore.DG>
-19.6299

> <Gold.Chemscore.ZeroCoef>
-5.4800

> <Gold.Chemscore.Hbond>
2.2202

> <Gold.Chemscore.Metal>
0.0000

> <Gold.Chemscore.Lipo>
88.8288

> <Gold.Chemscore.Internal_Hbond>
0.0000

> <Gold.Chemscore.DEClash>
0.0324

> <Gold.Chemscore.DEInternal>
2.1885

> <Gold.Chemscore.Rot>
1.4291

> <Gold.Chemscore.Internal.Correction>
   9.000000E+99

> <Gold.Chemscore.Hbonds>
donor molecule, donor type, donor heavy atom, donor atom, acceptor molecule, acceptor atom, score
      L1  H     9    37       P1  8028  0.60
      L1  H    12    38       P1  8028  0.70

> <Gold.Chemscore.Hbond.Weighted>
-7.4155

> <Gold.Chemscore.Metal.Weighted>
-0.0000

> <Gold.Chemscore.Lipo.Weighted>
-10.3930

> <Gold.Chemscore.Internal_Hbond.Weighted>
0.0000

> <Gold.Chemscore.DEClash.Weighted>
0.0324

> <Gold.Chemscore.DEInternal.Weighted>
2.1885

> <Gold.Chemscore.Rot.Weighted>
3.6586

> <Gold.Chemscore.Internal.Correction.Weighted>
   9.000000E+99

> <Gold.Protein.RotatedTorsions>
[ 6907 6896 6895 6894 ] final   45.62 input  -60.11 | X-H torsion
[ 7974 7965 7964 7962 ] final   -3.00 input  175.53 | X-H torsion
[ 8008 7997 7996 7995 ] final -113.78 input   59.86 | X-H torsion
[ 10167 10162 10161 10158 ] final  -84.86 input  -65.29 | X-H torsion
[ 10718 10713 10712 10709 ] final   30.30 input   66.30 | X-H torsion
[ 10763 10752 10751 10750 ] final -133.99 input  -60.55 | X-H torsion
[ 11005 11000 10999 10996 ] final   62.87 input  -57.11 | X-H torsion

> <Gold.Protein.ActiveResidues>
 VAL166  LYS551  ARG553  GLY616  TRP617  ASP618  TYR619  PRO620  LYS621  CYS622 
 ASP623  PHE694  ASN695  SER759  ASP760  ASP761  ALA762  ILE779  LEU786  VAL792 
 PHE793  MET794  SER795  GLU796  ALA797  LYS798  CYS799  TRP800  GLU811  SER814 

> <Gold.Protein.RotatedAtoms>
  152.2467  134.8174  160.0451 H   0  0  0  0  0  0  0  0  0  0  0  0  # atno 6907 bound_to 6896
  151.8869  133.3502  159.3793 H   0  0  0  0  0  0  0  0  0  0  0  0  # atno 6908 bound_to 6896
  150.7071  134.4889  159.5550 H   0  0  0  0  0  0  0  0  0  0  0  0  # atno 6909 bound_to 6896
  146.2396  140.1656  142.8332 H   0  0  0  0  0  0  0  0  0  0  0  0  # atno 7974 bound_to 7965
  155.0261  140.0393  157.2456 H   0  0  0  0  0  0  0  0  0  0  0  0  # atno 8008 bound_to 7997
  154.7337  140.2735  155.6410 H   0  0  0  0  0  0  0  0  0  0  0  0  # atno 8009 bound_to 7997
  156.2847  140.2679  156.2044 H   0  0  0  0  0  0  0  0  0  0  0  0  # atno 8010 bound_to 7997
  140.4092  143.2630  151.9040 H   0  0  0  0  0  0  0  0  0  0  0  0  # atno 10167 bound_to 10162
  157.2578  130.7146  149.6438 H   0  0  0  0  0  0  0  0  0  0  0  0  # atno 10718 bound_to 10713
  154.8725  135.3749  154.4662 H   0  0  0  0  0  0  0  0  0  0  0  0  # atno 10763 bound_to 10752
  153.5326  135.7027  153.5681 H   0  0  0  0  0  0  0  0  0  0  0  0  # atno 10764 bound_to 10752
  153.3878  135.3980  155.1867 H   0  0  0  0  0  0  0  0  0  0  0  0  # atno 10765 bound_to 10752
  140.0062  134.6365  155.9851 H   0  0  0  0  0  0  0  0  0  0  0  0  # atno 11005 bound_to 11000
  145.0053  140.8668  143.5257 LP  0  0  0  0  0  0  0  0  0  0  0  0  # atno 17320 bound_to 7965
  145.1681  139.2419  143.5356 LP  0  0  0  0  0  0  0  0  0  0  0  0  # atno 17321 bound_to 7965
  139.4783  144.5554  151.8321 LP  0  0  0  0  0  0  0  0  0  0  0  0  # atno 17342 bound_to 10162
  140.4656  144.1660  150.5911 LP  0  0  0  0  0  0  0  0  0  0  0  0  # atno 17343 bound_to 10162
  155.9664  130.4407  150.5310 LP  0  0  0  0  0  0  0  0  0  0  0  0  # atno 17370 bound_to 10713
  157.3208  131.0681  151.1933 LP  0  0  0  0  0  0  0  0  0  0  0  0  # atno 17371 bound_to 10713
  141.1679  133.6537  156.4544 LP  0  0  0  0  0  0  0  0  0  0  0  0  # atno 17394 bound_to 11000
  140.4636  134.6818  157.5097 LP  0  0  0  0  0  0  0  0  0  0  0  0  # atno 17395 bound_to 11000

$$$$
