AV-unprocessed.smi:2492|AV-procd|sdf|9817|dock2
  -GOLD-   2272013443D 1   1.00000     0.00000
 Structure written by MMmdl.
 32 33  0  0  0  0  0  0  0  0  2 V2000
  153.3972  142.0760  161.9953 C   0  0  0  0  0  0  0  0  0  0  0  0
  152.1476  143.3832  162.1138 S   0  0  0  0  0  0  0  0  0  0  0  0
  152.4035  144.2169  160.5208 C   0  0  2  0  0  0  0  0  0  0  0  0
  151.3033  145.2271  160.2062 C   0  0  0  0  0  0  0  0  0  0  0  0
  151.4104  145.4375  158.6956 C   0  0  0  0  0  0  0  0  0  0  0  0
  151.9268  144.1046  158.1164 C   0  0  2  0  0  0  0  0  0  0  0  0
  150.8918  143.4093  157.3539 N   0  0  0  0  0  0  0  0  0  0  0  0
  150.8915  142.1068  157.0349 C   0  0  0  0  0  0  0  0  0  0  0  0
  151.8297  141.3878  157.3862 O   0  0  0  0  0  0  0  0  0  0  0  0
  149.8063  141.7195  156.3268 N   0  5  0  0  0  0  0  0  0  0  0  0
  149.7176  140.4589  155.8720 C   0  0  0  0  0  0  0  0  0  0  0  0
  150.7361  139.6183  155.6859 N   0  0  0  0  0  0  0  0  0  0  0  0
  150.1002  138.5051  155.2325 C   0  0  0  0  0  0  0  0  0  0  0  0
  150.8198  137.2524  154.8668 C   0  0  0  0  0  0  0  0  0  0  0  0
  148.7818  138.5908  155.1385 N   0  0  0  0  0  0  0  0  0  0  0  0
  148.5174  139.8983  155.5697 O   0  0  0  0  0  0  0  0  0  0  0  0
  152.3760  143.2605  159.3242 C   0  0  0  0  0  0  0  0  0  0  0  0
  153.4059  141.4819  162.9091 H   0  0  0  0  0  0  0  0  0  0  0  0
  154.3882  142.5077  161.8536 H   0  0  0  0  0  0  0  0  0  0  0  0
  153.1814  141.4132  161.1575 H   0  0  0  0  0  0  0  0  0  0  0  0
  153.3615  144.7382  160.5445 H   0  0  0  0  0  0  0  0  0  0  0  0
  150.3265  144.8038  160.4453 H   0  0  0  0  0  0  0  0  0  0  0  0
  151.4115  146.1560  160.7665 H   0  0  0  0  0  0  0  0  0  0  0  0
  150.4634  145.7632  158.2628 H   0  0  0  0  0  0  0  0  0  0  0  0
  152.1403  146.2221  158.4923 H   0  0  0  0  0  0  0  0  0  0  0  0
  152.7863  144.2971  157.4716 H   0  0  0  0  0  0  0  0  0  0  0  0
  150.1055  143.9613  157.0443 H   0  0  0  0  0  0  0  0  0  0  0  0
  150.6845  136.5008  155.6448 H   0  0  0  0  0  0  0  0  0  0  0  0
  151.8872  137.4422  154.7501 H   0  0  0  0  0  0  0  0  0  0  0  0
  150.4369  136.8539  153.9266 H   0  0  0  0  0  0  0  0  0  0  0  0
  153.3449  142.7902  159.1543 H   0  0  0  0  0  0  0  0  0  0  0  0
  151.6593  142.4599  159.5157 H   0  0  0  0  0  0  0  0  0  0  0  0
  1  2  1  0  0  0  0
  1 18  1  0  0  0  0
  1 19  1  0  0  0  0
  1 20  1  0  0  0  0
  2  3  1  0  0  0  0
  3 17  1  0  0  0  0
  3  4  1  0  0  0  0
  3 21  1  0  0  0  0
  4  5  1  0  0  0  0
  4 22  1  0  0  0  0
  4 23  1  0  0  0  0
  5  6  1  0  0  0  0
  5 24  1  0  0  0  0
  5 25  1  0  0  0  0
  6  7  1  0  0  0  0
  6 17  1  0  0  0  0
  6 26  1  0  0  0  0
  7  8  1  0  0  0  0
  7 27  1  0  0  0  0
  8  9  2  0  0  0  0
  8 10  1  0  0  0  0
 10 11  1  0  0  0  0
 11 16  1  0  0  0  0
 11 12  2  0  0  0  0
 12 13  1  0  0  0  0
 13 14  1  0  0  0  0
 13 15  2  0  0  0  0
 14 28  1  0  0  0  0
 14 29  1  0  0  0  0
 14 30  1  0  0  0  0
 15 16  1  0  0  0  0
 17 31  1  0  0  0  0
 17 32  1  0  0  0  0
M  CHG  1  10  -1
M  END
> <s_m_source_file>
AV-unprocessed.smi

> <i_m_source_file_index>
2492

> <i_lp_mmshare_version>
43012

> <i_f3d_flags>
0

> <s_epik_input>
W0NIM11TW0NAQEhdMVtDSDJdW0NIMl1bQ0BIXShbQ0gyXTEpW05IXUMoPU8pW05IXWMybmMoW0NIM10pbm8y

> <s_epik_cmdline>
J2VwaWtfcHl0aG9uJywgJy1waCcsICc3LjAnLCAnLXRuJywgJzgnLCAnLW1hJywgJzIwMCcsICctbWV0YWxfYmluZGluZycsICctaW1hZScsICc8aW5maWxlLm1hZT4nLCAnLW9tYWUnLCAnPG91dGZpbGUubWFlPic=

> <r_lp_tautomer_probability>
1

> <r_epik_Ionization_Penalty>
6.26454

> <r_epik_Ionization_Penalty_Charging>
6.26445

> <r_epik_Ionization_Penalty_Neutral>
9.05726e-05

> <r_epik_State_Penalty>
6.26444

> <r_epik_Charging_Adjusted_Penalty>
12.5289

> <i_epik_Tot_Q>
-1

> <i_epik_Tot_abs_Q>
1

> <r_epik_Metal_State_Penalty>
2.20125

> <b_epik_Metal_Only>
1

> <s_lp_Force_Field>
OPLS_2005

> <r_lp_Energy>
10.8343

> <b_lp_Chiralities_Consistent>
1

> <s_lp_Variant>
AV-unprocessed.smi:2492-7

> <Gold.Version>
5.8.1

> <Gold.Id.Protein>
6NUR|6NUR_protein|mol2

> <Gold.PLP.Fitness>
41.7572

> <Gold.PLP.PLP>
-36.5547

> <Gold.PLP.part.hbond>
-2.0000

> <Gold.PLP.part.metal>
0.0000

> <Gold.PLP.part.buried>
-0.8295

> <Gold.PLP.part.nonpolar>
-34.8427

> <Gold.PLP.part.repulsive>
0.3912

> <Gold.PLP.ligand.clash>
0.0062

> <Gold.PLP.ligand.torsion>
0.3981

> <Gold.PLP.Chemscore.Hbond>
1.9920

> <Gold.PLP.Chemscore.CHOScore>
0.0000

> <Gold.PLP.Chemscore.Metal>
0.0000

> <Gold.Chemscore.Hbonds>
donor molecule, donor type, donor heavy atom, donor atom, acceptor molecule, acceptor atom, score
      L1  H     7    27       P1  8028  1.00

> <Gold.PLP.Chemscore.Internal.Correction>
0.0288

> <Gold.Rescore>
     Score         DG    S(hbond)    S(metal)    S(lipo)     H(rot)  DE(clash)    DE(int)     intcor
     11.99     -16.63       1.02        0.00      93.96       1.27       1.51       3.13       ----

> <Gold.Chemscore.Fitness>
11.9888

> <Gold.Chemscore.DG>
-16.6335

> <Gold.Chemscore.ZeroCoef>
-5.4800

> <Gold.Chemscore.Hbond>
1.0222

> <Gold.Chemscore.Metal>
0.0000

> <Gold.Chemscore.Lipo>
93.9624

> <Gold.Chemscore.Internal_Hbond>
0.0000

> <Gold.Chemscore.DEClash>
1.5144

> <Gold.Chemscore.DEInternal>
3.1303

> <Gold.Chemscore.Rot>
1.2712

> <Gold.Chemscore.Internal.Correction>
   9.000000E+99

> <Gold.Chemscore.Hbonds>
donor molecule, donor type, donor heavy atom, donor atom, acceptor molecule, acceptor atom, score
      L1  H     7    27       P1  8028  0.91

> <Gold.Chemscore.Hbond.Weighted>
-3.4140

> <Gold.Chemscore.Metal.Weighted>
-0.0000

> <Gold.Chemscore.Lipo.Weighted>
-10.9936

> <Gold.Chemscore.Internal_Hbond.Weighted>
0.0000

> <Gold.Chemscore.DEClash.Weighted>
1.5144

> <Gold.Chemscore.DEInternal.Weighted>
3.1303

> <Gold.Chemscore.Rot.Weighted>
3.2542

> <Gold.Chemscore.Internal.Correction.Weighted>
   9.000000E+99

> <Gold.Protein.RotatedTorsions>
[ 6907 6896 6895 6894 ] final  -80.17 input  -60.11 | X-H torsion
[ 7974 7965 7964 7962 ] final   77.16 input  175.53 | X-H torsion
[ 8008 7997 7996 7995 ] final  -71.93 input   59.86 | X-H torsion
[ 10167 10162 10161 10158 ] final -140.38 input  -65.29 | X-H torsion
[ 10718 10713 10712 10709 ] final   56.93 input   66.30 | X-H torsion
[ 10763 10752 10751 10750 ] final -158.32 input  -60.55 | X-H torsion
[ 11005 11000 10999 10996 ] final -176.25 input  -57.11 | X-H torsion

> <Gold.Protein.ActiveResidues>
 VAL166  LYS551  ARG553  GLY616  TRP617  ASP618  TYR619  PRO620  LYS621  CYS622 
 ASP623  PHE694  ASN695  SER759  ASP760  ASP761  ALA762  ILE779  LEU786  VAL792 
 PHE793  MET794  SER795  GLU796  ALA797  LYS798  CYS799  TRP800  GLU811  SER814 

> <Gold.Protein.RotatedAtoms>
  150.6935  134.4010  159.5118 H   0  0  0  0  0  0  0  0  0  0  0  0  # atno 6907 bound_to 6896
  152.1783  134.8773  160.0537 H   0  0  0  0  0  0  0  0  0  0  0  0  # atno 6908 bound_to 6896
  151.9773  133.3711  159.4131 H   0  0  0  0  0  0  0  0  0  0  0  0  # atno 6909 bound_to 6896
  145.6936  139.2560  143.1745 H   0  0  0  0  0  0  0  0  0  0  0  0  # atno 7974 bound_to 7965
  154.5126  140.0806  156.8020 H   0  0  0  0  0  0  0  0  0  0  0  0  # atno 8008 bound_to 7997
  155.3751  140.3425  155.4226 H   0  0  0  0  0  0  0  0  0  0  0  0  # atno 8009 bound_to 7997
  156.1591  140.1582  156.8630 H   0  0  0  0  0  0  0  0  0  0  0  0  # atno 8010 bound_to 7997
  139.8287  143.7475  152.2666 H   0  0  0  0  0  0  0  0  0  0  0  0  # atno 10167 bound_to 10162
  157.5472  130.8739  149.8909 H   0  0  0  0  0  0  0  0  0  0  0  0  # atno 10718 bound_to 10713
  154.7566  135.3106  154.8458 H   0  0  0  0  0  0  0  0  0  0  0  0  # atno 10763 bound_to 10752
  153.9231  135.6793  153.4751 H   0  0  0  0  0  0  0  0  0  0  0  0  # atno 10764 bound_to 10752
  153.1164  135.4843  154.9052 H   0  0  0  0  0  0  0  0  0  0  0  0  # atno 10765 bound_to 10752
  140.4542  134.6315  157.4814 H   0  0  0  0  0  0  0  0  0  0  0  0  # atno 11005 bound_to 11000
  146.0860  140.7710  142.9618 LP  0  0  0  0  0  0  0  0  0  0  0  0  # atno 17320 bound_to 7965
  144.6989  140.3563  143.7172 LP  0  0  0  0  0  0  0  0  0  0  0  0  # atno 17321 bound_to 7965
  139.7676  144.7487  151.0271 LP  0  0  0  0  0  0  0  0  0  0  0  0  # atno 17342 bound_to 10162
  140.7808  143.4680  151.0185 LP  0  0  0  0  0  0  0  0  0  0  0  0  # atno 17343 bound_to 10162
  156.0546  130.3711  150.1121 LP  0  0  0  0  0  0  0  0  0  0  0  0  # atno 17370 bound_to 10713
  156.9297  130.9710  151.3535 LP  0  0  0  0  0  0  0  0  0  0  0  0  # atno 17371 bound_to 10713
  139.9987  134.6870  155.9566 LP  0  0  0  0  0  0  0  0  0  0  0  0  # atno 17394 bound_to 11000
  141.1651  133.6537  156.4450 LP  0  0  0  0  0  0  0  0  0  0  0  0  # atno 17395 bound_to 11000

$$$$
