AV-unprocessed.smi:2273|AV-procd|sdf|9166|dock1
  -GOLD-   2272012373D 1   1.00000     0.00000
 Structure written by MMmdl.
 53 54  0  0  0  0  0  0  0  0  1 V2000
  149.9175  136.3409  155.0497 C   0  0  0  0  0  0  0  0  0  0  0  0
  150.7253  137.4287  155.7704 C   0  0  0  0  0  0  0  0  0  0  0  0
  150.9294  138.7609  154.9975 C   0  0  0  0  0  0  0  0  0  0  0  0
  152.0634  139.5905  155.6576 C   0  0  0  0  0  0  0  0  0  0  0  0
  151.6032  140.5821  156.7376 C   0  0  0  0  0  0  0  0  0  0  0  0
  149.6062  139.5774  154.8790 C   0  0  2  0  0  0  0  0  0  0  0  0
  148.5158  138.8494  154.0591 C   0  0  0  0  0  0  0  0  0  0  0  0
  147.2176  139.6758  154.0201 C   0  0  2  0  0  0  0  0  0  0  0  0
  146.2000  139.0337  153.1850 N   0  0  0  0  0  0  0  0  0  0  0  0
  145.6135  137.8362  153.3653 C   0  0  0  0  0  0  0  0  0  0  0  0
  145.9123  137.1107  154.3126 O   0  0  0  0  0  0  0  0  0  0  0  0
  144.7068  137.5159  152.4198 N   0  0  0  0  0  0  0  0  0  0  0  0
  143.9512  136.3364  152.3428 C   0  0  0  0  0  0  0  0  0  0  0  0
  142.8206  136.2353  153.0900 C   0  0  0  0  0  0  0  0  0  0  0  0
  142.3388  137.3776  153.9706 C   0  0  0  0  0  0  0  0  0  0  0  0
  142.0446  135.0141  153.0312 C   0  0  0  0  0  0  0  0  0  0  0  0
  142.4614  134.0055  152.2542 C   0  0  0  0  0  0  0  0  0  0  0  0
  143.6434  134.0927  151.5049 N   0  0  0  0  0  0  0  0  0  0  0  0
  144.0250  132.9281  150.7016 C   0  0  0  0  0  0  0  0  0  0  0  0
  144.4448  135.1962  151.5324 C   0  0  0  0  0  0  0  0  0  0  0  0
  145.5197  135.2097  150.9282 O   0  0  0  0  0  0  0  0  0  0  0  0
  147.5363  141.0734  153.4744 C   0  0  0  0  0  0  0  0  0  0  0  0
  148.7004  141.7012  154.2557 C   0  0  0  0  0  0  0  0  0  0  0  0
  149.8274  140.8306  154.2294 O   0  0  0  0  0  0  0  0  0  0  0  0
  149.9527  135.4058  155.6094 H   0  0  0  0  0  0  0  0  0  0  0  0
  150.3168  136.1425  154.0549 H   0  0  0  0  0  0  0  0  0  0  0  0
  148.8670  136.6156  154.9564 H   0  0  0  0  0  0  0  0  0  0  0  0
  150.2594  137.6333  156.7352 H   0  0  0  0  0  0  0  0  0  0  0  0
  151.6961  136.9900  155.9960 H   0  0  0  0  0  0  0  0  0  0  0  0
  151.2679  138.5212  153.9886 H   0  0  0  0  0  0  0  0  0  0  0  0
  152.7697  138.9191  156.1462 H   0  0  0  0  0  0  0  0  0  0  0  0
  152.6300  140.1224  154.8921 H   0  0  0  0  0  0  0  0  0  0  0  0
  152.4633  141.0071  157.2553 H   0  0  0  0  0  0  0  0  0  0  0  0
  150.9781  140.0918  157.4846 H   0  0  0  0  0  0  0  0  0  0  0  0
  151.0424  141.4158  156.3162 H   0  0  0  0  0  0  0  0  0  0  0  0
  149.2398  139.7855  155.8861 H   0  0  0  0  0  0  0  0  0  0  0  0
  148.8769  138.6874  153.0422 H   0  0  0  0  0  0  0  0  0  0  0  0
  148.3125  137.8609  154.4611 H   0  0  0  0  0  0  0  0  0  0  0  0
  146.8313  139.7901  155.0350 H   0  0  0  0  0  0  0  0  0  0  0  0
  145.9008  139.5614  152.3774 H   0  0  0  0  0  0  0  0  0  0  0  0
  144.6346  138.1348  151.6259 H   0  0  0  0  0  0  0  0  0  0  0  0
  141.3985  137.1279  154.4626 H   0  0  0  0  0  0  0  0  0  0  0  0
  142.1777  138.2781  153.3770 H   0  0  0  0  0  0  0  0  0  0  0  0
  143.0745  137.5993  154.7444 H   0  0  0  0  0  0  0  0  0  0  0  0
  141.1317  134.9150  153.6002 H   0  0  0  0  0  0  0  0  0  0  0  0
  141.9236  133.0726  152.1674 H   0  0  0  0  0  0  0  0  0  0  0  0
  144.1769  133.2123  149.6592 H   0  0  0  0  0  0  0  0  0  0  0  0
  143.2693  132.1420  150.7139 H   0  0  0  0  0  0  0  0  0  0  0  0
  144.9538  132.4950  151.0749 H   0  0  0  0  0  0  0  0  0  0  0  0
  147.8081  141.0066  152.4198 H   0  0  0  0  0  0  0  0  0  0  0  0
  146.6567  141.7157  153.5311 H   0  0  0  0  0  0  0  0  0  0  0  0
  148.9813  142.6533  153.8059 H   0  0  0  0  0  0  0  0  0  0  0  0
  148.4113  141.9100  155.2868 H   0  0  0  0  0  0  0  0  0  0  0  0
  1  2  1  0  0  0  0
  1 25  1  0  0  0  0
  1 26  1  0  0  0  0
  1 27  1  0  0  0  0
  2  3  1  0  0  0  0
  2 28  1  0  0  0  0
  2 29  1  0  0  0  0
  3  4  1  0  0  0  0
  3  6  1  0  0  0  0
  3 30  1  0  0  0  0
  4  5  1  0  0  0  0
  4 31  1  0  0  0  0
  4 32  1  0  0  0  0
  5 33  1  0  0  0  0
  5 34  1  0  0  0  0
  5 35  1  0  0  0  0
  6 24  1  0  0  0  0
  6  7  1  0  0  0  0
  6 36  1  0  0  0  0
  7  8  1  0  0  0  0
  7 37  1  0  0  0  0
  7 38  1  0  0  0  0
  8  9  1  0  0  0  0
  8 22  1  0  0  0  0
  8 39  1  0  0  0  0
  9 10  1  0  0  0  0
  9 40  1  0  0  0  0
 10 11  2  0  0  0  0
 10 12  1  0  0  0  0
 12 13  1  0  0  0  0
 12 41  1  0  0  0  0
 13 20  1  0  0  0  0
 13 14  2  0  0  0  0
 14 15  1  0  0  0  0
 14 16  1  0  0  0  0
 15 42  1  0  0  0  0
 15 43  1  0  0  0  0
 15 44  1  0  0  0  0
 16 17  2  0  0  0  0
 16 45  1  0  0  0  0
 17 18  1  0  0  0  0
 17 46  1  0  0  0  0
 18 19  1  0  0  0  0
 18 20  1  0  0  0  0
 19 47  1  0  0  0  0
 19 48  1  0  0  0  0
 19 49  1  0  0  0  0
 20 21  2  0  0  0  0
 22 23  1  0  0  0  0
 22 50  1  0  0  0  0
 22 51  1  0  0  0  0
 23 24  1  0  0  0  0
 23 52  1  0  0  0  0
 23 53  1  0  0  0  0
M  END
> <s_m_source_file>
AV-unprocessed.smi

> <i_m_source_file_index>
2273

> <i_lp_mmshare_version>
43012

> <i_f3d_flags>
0

> <s_epik_input>
W0NIM11bQ0gyXVtDSF0oW0NIMl1bQ0gzXSlbQ0BASF0xW0NIMl1bQ0BIXShbQ0gyXVtDSDJdTzEpW05IXUMoPU8pW05IXWMyYyhbQ0gzXSlbY0hdW2NIXW4oW0NIM10pYzI9Tw==

> <s_epik_cmdline>
J2VwaWtfcHl0aG9uJywgJy1waCcsICc3LjAnLCAnLXRuJywgJzgnLCAnLW1hJywgJzIwMCcsICctbWV0YWxfYmluZGluZycsICctaW1hZScsICc8aW5maWxlLm1hZT4nLCAnLW9tYWUnLCAnPG91dGZpbGUubWFlPic=

> <r_lp_tautomer_probability>
1

> <r_epik_Ionization_Penalty>
2.66245e-05

> <r_epik_Ionization_Penalty_Charging>
6.91055e-06

> <r_epik_Ionization_Penalty_Neutral>
1.97139e-05

> <r_epik_State_Penalty>
-0

> <r_epik_Charging_Adjusted_Penalty>
6.91055e-06

> <i_epik_Tot_Q>
0

> <i_epik_Tot_abs_Q>
0

> <r_epik_Metal_State_Penalty>
-0

> <b_epik_Metal_Only>
0

> <s_lp_Force_Field>
OPLS_2005

> <r_lp_Energy>
42.9176

> <b_lp_Chiralities_Consistent>
1

> <s_lp_Variant>
AV-unprocessed.smi:2273-3

> <Gold.Version>
5.8.1

> <Gold.Id.Protein>
6NUR|6NUR_protein|mol2

> <Gold.PLP.Fitness>
45.6876

> <Gold.PLP.PLP>
-42.3939

> <Gold.PLP.part.hbond>
-3.5066

> <Gold.PLP.part.metal>
0.0000

> <Gold.PLP.part.buried>
-5.1084

> <Gold.PLP.part.nonpolar>
-34.4397

> <Gold.PLP.part.repulsive>
0.4676

> <Gold.PLP.ligand.clash>
0.0000

> <Gold.PLP.ligand.torsion>
1.2199

> <Gold.PLP.Chemscore.Hbond>
1.6080

> <Gold.PLP.Chemscore.CHOScore>
0.0000

> <Gold.PLP.Chemscore.Metal>
0.0000

> <Gold.Chemscore.Hbonds>
donor molecule, donor type, donor heavy atom, donor atom, acceptor molecule, acceptor atom, score
      L1  H     9    40       P1 10175  0.03
      L1  H    12    41       P1 10171  1.00
      P1  H  7989  7998       L1    24  0.61

> <Gold.PLP.Chemscore.Internal.Correction>
0.9094

> <Gold.Rescore>
     Score         DG    S(hbond)    S(metal)    S(lipo)     H(rot)  DE(clash)    DE(int)     intcor
     15.40     -17.60       1.48        0.00      92.48       1.42       0.06       2.14       ----

> <Gold.Chemscore.Fitness>
15.3985

> <Gold.Chemscore.DG>
-17.5969

> <Gold.Chemscore.ZeroCoef>
-5.4800

> <Gold.Chemscore.Hbond>
1.4793

> <Gold.Chemscore.Metal>
0.0000

> <Gold.Chemscore.Lipo>
92.4829

> <Gold.Chemscore.Internal_Hbond>
0.0000

> <Gold.Chemscore.DEClash>
0.0630

> <Gold.Chemscore.DEInternal>
2.1353

> <Gold.Chemscore.Rot>
1.4236

> <Gold.Chemscore.Internal.Correction>
   9.000000E+99

> <Gold.Chemscore.Hbonds>
donor molecule, donor type, donor heavy atom, donor atom, acceptor molecule, acceptor atom, score
      L1  H     9    40       P1 10175  0.04
      L1  H    12    41       P1 10171  0.90
      P1  H  7989  7998       L1    24  0.47

> <Gold.Chemscore.Hbond.Weighted>
-4.9409

> <Gold.Chemscore.Metal.Weighted>
-0.0000

> <Gold.Chemscore.Lipo.Weighted>
-10.8205

> <Gold.Chemscore.Internal_Hbond.Weighted>
0.0000

> <Gold.Chemscore.DEClash.Weighted>
0.0630

> <Gold.Chemscore.DEInternal.Weighted>
2.1353

> <Gold.Chemscore.Rot.Weighted>
3.6445

> <Gold.Chemscore.Internal.Correction.Weighted>
   9.000000E+99

> <Gold.Protein.RotatedTorsions>
[ 6907 6896 6895 6894 ] final -130.03 input  -60.11 | X-H torsion
[ 7974 7965 7964 7962 ] final  -89.29 input  175.53 | X-H torsion
[ 8008 7997 7996 7995 ] final   79.79 input   59.86 | X-H torsion
[ 10167 10162 10161 10158 ] final -136.19 input  -65.29 | X-H torsion
[ 10718 10713 10712 10709 ] final   19.25 input   66.30 | X-H torsion
[ 10763 10752 10751 10750 ] final   95.69 input  -60.55 | X-H torsion
[ 11005 11000 10999 10996 ] final   19.51 input  -57.11 | X-H torsion

> <Gold.Protein.ActiveResidues>
 VAL166  LYS551  ARG553  GLY616  TRP617  ASP618  TYR619  PRO620  LYS621  CYS622 
 ASP623  PHE694  ASN695  SER759  ASP760  ASP761  ALA762  ILE779  LEU786  VAL792 
 PHE793  MET794  SER795  GLU796  ALA797  LYS798  CYS799  TRP800  GLU811  SER814 

> <Gold.Protein.RotatedAtoms>
  150.9353  133.6720  159.2801 H   0  0  0  0  0  0  0  0  0  0  0  0  # atno 6907 bound_to 6896
  151.4128  135.0986  159.9600 H   0  0  0  0  0  0  0  0  0  0  0  0  # atno 6908 bound_to 6896
  152.5044  133.8822  159.7407 H   0  0  0  0  0  0  0  0  0  0  0  0  # atno 6909 bound_to 6896
  145.4418  140.9559  143.2071 H   0  0  0  0  0  0  0  0  0  0  0  0  # atno 7974 bound_to 7965
  155.8746  140.3447  155.5845 H   0  0  0  0  0  0  0  0  0  0  0  0  # atno 8008 bound_to 7997
  155.7789  140.0855  157.2088 H   0  0  0  0  0  0  0  0  0  0  0  0  # atno 8009 bound_to 7997
  154.4020  140.1504  156.3016 H   0  0  0  0  0  0  0  0  0  0  0  0  # atno 8010 bound_to 7997
  139.8703  143.6966  152.2640 H   0  0  0  0  0  0  0  0  0  0  0  0  # atno 10167 bound_to 10162
  157.1079  130.6496  149.5889 H   0  0  0  0  0  0  0  0  0  0  0  0  # atno 10718 bound_to 10713
  153.2562  135.4245  155.0848 H   0  0  0  0  0  0  0  0  0  0  0  0  # atno 10763 bound_to 10752
  154.8402  135.3438  154.6443 H   0  0  0  0  0  0  0  0  0  0  0  0  # atno 10764 bound_to 10752
  153.6863  135.7036  153.5160 H   0  0  0  0  0  0  0  0  0  0  0  0  # atno 10765 bound_to 10752
  140.4129  134.1600  155.7668 H   0  0  0  0  0  0  0  0  0  0  0  0  # atno 11005 bound_to 11000
  144.8117  139.5950  143.7026 LP  0  0  0  0  0  0  0  0  0  0  0  0  # atno 17320 bound_to 7965
  146.2552  139.6287  142.9399 LP  0  0  0  0  0  0  0  0  0  0  0  0  # atno 17321 bound_to 7965
  139.7290  144.7586  151.0832 LP  0  0  0  0  0  0  0  0  0  0  0  0  # atno 17342 bound_to 10162
  140.7762  143.5111  150.9651 LP  0  0  0  0  0  0  0  0  0  0  0  0  # atno 17343 bound_to 10162
  155.9857  130.4889  150.7047 LP  0  0  0  0  0  0  0  0  0  0  0  0  # atno 17370 bound_to 10713
  157.4585  131.0880  151.0771 LP  0  0  0  0  0  0  0  0  0  0  0  0  # atno 17371 bound_to 10713
  141.1814  133.8405  157.1243 LP  0  0  0  0  0  0  0  0  0  0  0  0  # atno 17394 bound_to 11000
  140.0255  134.9926  157.0677 LP  0  0  0  0  0  0  0  0  0  0  0  0  # atno 17395 bound_to 11000

$$$$
