AV-unprocessed.smi:1022|AV-procd|sdf|4461|dock1
  -GOLD-   22720 2433D 1   1.00000     0.00000
 Structure written by MMmdl.
 32 33  0  0  0  0  0  0  0  0  2 V2000
  153.5775  141.7737  159.4163 C   0  0  0  0  0  0  0  0  0  0  0  0
  152.7429  141.0397  158.5384 O   0  0  0  0  0  0  0  0  0  0  0  0
  152.2031  139.8761  159.1463 C   0  0  0  0  0  0  0  0  0  0  0  0
  151.4024  139.0615  158.1136 C   0  0  1  0  0  0  0  0  0  0  0  0
  152.2078  138.7872  156.8357 C   0  0  0  0  0  0  0  0  0  0  0  0
  150.9391  137.8006  158.6894 N   0  0  0  0  0  0  0  0  0  0  0  0
  149.6616  137.4273  158.8543 C   0  0  0  0  0  0  0  0  0  0  0  0
  148.7495  138.1780  158.5001 O   0  0  0  0  0  0  0  0  0  0  0  0
  149.5197  136.2086  159.4235 N   0  5  0  0  0  0  0  0  0  0  0  0
  148.5738  136.0098  160.3562 C   0  0  0  0  0  0  0  0  0  0  0  0
  148.0203  137.0179  161.0449 N   0  0  0  0  0  0  0  0  0  0  0  0
  147.0644  136.5939  161.9567 N   0  0  0  0  0  0  0  0  0  0  0  0
  146.9039  135.2686  161.9387 C   0  0  0  0  0  0  0  0  0  0  0  0
  145.9354  134.5689  162.8324 C   0  0  0  0  0  0  0  0  0  0  0  0
  144.8617  133.6740  162.2569 C   0  0  0  0  0  0  0  0  0  0  0  0
  144.4812  134.9816  162.9035 C   0  0  0  0  0  0  0  0  0  0  0  0
  147.9206  134.4275  160.7792 S   0  0  0  0  0  0  0  0  0  0  0  0
  153.9613  142.6559  158.9042 H   0  0  0  0  0  0  0  0  0  0  0  0
  154.4299  141.1756  159.7409 H   0  0  0  0  0  0  0  0  0  0  0  0
  153.0273  142.1075  160.2969 H   0  0  0  0  0  0  0  0  0  0  0  0
  153.0064  139.2672  159.5645 H   0  0  0  0  0  0  0  0  0  0  0  0
  151.5546  140.1612  159.9761 H   0  0  0  0  0  0  0  0  0  0  0  0
  150.5300  139.6490  157.8222 H   0  0  0  0  0  0  0  0  0  0  0  0
  152.5394  139.7179  156.3749 H   0  0  0  0  0  0  0  0  0  0  0  0
  151.6053  138.2522  156.1009 H   0  0  0  0  0  0  0  0  0  0  0  0
  153.0925  138.1840  157.0424 H   0  0  0  0  0  0  0  0  0  0  0  0
  151.6509  137.1555  158.9994 H   0  0  0  0  0  0  0  0  0  0  0  0
  146.4209  134.2559  163.7548 H   0  0  0  0  0  0  0  0  0  0  0  0
  144.7856  133.6092  161.1731 H   0  0  0  0  0  0  0  0  0  0  0  0
  144.6291  132.7583  162.7967 H   0  0  0  0  0  0  0  0  0  0  0  0
  143.9956  134.9387  163.8760 H   0  0  0  0  0  0  0  0  0  0  0  0
  144.1391  135.7792  162.2469 H   0  0  0  0  0  0  0  0  0  0  0  0
  1  2  1  0  0  0  0
  1 18  1  0  0  0  0
  1 19  1  0  0  0  0
  1 20  1  0  0  0  0
  2  3  1  0  0  0  0
  3  4  1  0  0  0  0
  3 21  1  0  0  0  0
  3 22  1  0  0  0  0
  4  5  1  0  0  0  0
  4  6  1  0  0  0  0
  4 23  1  0  0  0  0
  5 24  1  0  0  0  0
  5 25  1  0  0  0  0
  5 26  1  0  0  0  0
  6  7  1  0  0  0  0
  6 27  1  0  0  0  0
  7  8  2  0  0  0  0
  7  9  1  0  0  0  0
  9 10  1  0  0  0  0
 10 17  1  0  0  0  0
 10 11  2  0  0  0  0
 11 12  1  0  0  0  0
 12 13  2  0  0  0  0
 13 14  1  0  0  0  0
 13 17  1  0  0  0  0
 14 16  1  0  0  0  0
 14 15  1  0  0  0  0
 14 28  1  0  0  0  0
 15 16  1  0  0  0  0
 15 29  1  0  0  0  0
 15 30  1  0  0  0  0
 16 31  1  0  0  0  0
 16 32  1  0  0  0  0
M  CHG  1   9  -1
M  END
> <s_m_source_file>
AV-unprocessed.smi

> <i_m_source_file_index>
1022

> <i_lp_mmshare_version>
43012

> <i_f3d_flags>
0

> <s_epik_input>
W0NIM11PW0NIMl1bQ0BIXShbQ0gzXSlbTkhdQyg9TylbTkhdYzFubmMoczEpW0NIXTJbQ0gyXVtDSDJdMg==

> <s_epik_cmdline>
J2VwaWtfcHl0aG9uJywgJy1waCcsICc3LjAnLCAnLXRuJywgJzgnLCAnLW1hJywgJzIwMCcsICctbWV0YWxfYmluZGluZycsICctaW1hZScsICc8aW5maWxlLm1hZT4nLCAnLW9tYWUnLCAnPG91dGZpbGUubWFlPic=

> <r_lp_tautomer_probability>
1

> <r_epik_Ionization_Penalty>
3.79487

> <r_epik_Ionization_Penalty_Charging>
3.64217

> <r_epik_Ionization_Penalty_Neutral>
0.152695

> <r_epik_State_Penalty>
3.6409

> <r_epik_Charging_Adjusted_Penalty>
7.28307

> <i_epik_Tot_Q>
-1

> <i_epik_Tot_abs_Q>
1

> <r_epik_Metal_State_Penalty>
0.534129

> <b_epik_Metal_Only>
1

> <s_lp_Force_Field>
OPLS_2005

> <r_lp_Energy>
0.506403

> <b_lp_Chiralities_Consistent>
1

> <s_lp_Variant>
AV-unprocessed.smi:1022-4

> <Gold.Version>
5.8.1

> <Gold.Id.Protein>
6NUR|6NUR_protein|mol2

> <Gold.PLP.Fitness>
38.9091

> <Gold.PLP.PLP>
-28.8095

> <Gold.PLP.part.hbond>
-3.3093

> <Gold.PLP.part.metal>
0.0000

> <Gold.PLP.part.buried>
-5.2523

> <Gold.PLP.part.nonpolar>
-21.4918

> <Gold.PLP.part.repulsive>
0.1489

> <Gold.PLP.ligand.clash>
0.0000

> <Gold.PLP.ligand.torsion>
0.5244

> <Gold.PLP.Chemscore.Hbond>
3.6173

> <Gold.PLP.Chemscore.CHOScore>
0.0000

> <Gold.PLP.Chemscore.Metal>
0.0000

> <Gold.Chemscore.Hbonds>
donor molecule, donor type, donor heavy atom, donor atom, acceptor molecule, acceptor atom, score
      P1  H  6896  6909       L1     9  2.00
      P1  H  6931  6943       L1    11  1.00
      P1  H  6934  6947       L1    11  0.32

> <Gold.PLP.Chemscore.Internal.Correction>
0.2966

> <Gold.Rescore>
     Score         DG    S(hbond)    S(metal)    S(lipo)     H(rot)  DE(clash)    DE(int)     intcor
     13.44     -14.42       1.95        0.00      57.88       1.69       0.00       0.97       ----

> <Gold.Chemscore.Fitness>
13.4435

> <Gold.Chemscore.DG>
-14.4224

> <Gold.Chemscore.ZeroCoef>
-5.4800

> <Gold.Chemscore.Hbond>
1.9469

> <Gold.Chemscore.Metal>
0.0000

> <Gold.Chemscore.Lipo>
57.8753

> <Gold.Chemscore.Internal_Hbond>
0.0000

> <Gold.Chemscore.DEClash>
0.0048

> <Gold.Chemscore.DEInternal>
0.9740

> <Gold.Chemscore.Rot>
1.6921

> <Gold.Chemscore.Internal.Correction>
   9.000000E+99

> <Gold.Chemscore.Hbonds>
donor molecule, donor type, donor heavy atom, donor atom, acceptor molecule, acceptor atom, score
      P1  H  6896  6909       L1     9  0.50
      P1  H  6931  6943       L1    11  0.57
      P1  H  6934  6947       L1    11  0.03

> <Gold.Chemscore.Hbond.Weighted>
-6.5026

> <Gold.Chemscore.Metal.Weighted>
-0.0000

> <Gold.Chemscore.Lipo.Weighted>
-6.7714

> <Gold.Chemscore.Internal_Hbond.Weighted>
0.0000

> <Gold.Chemscore.DEClash.Weighted>
0.0048

> <Gold.Chemscore.DEInternal.Weighted>
0.9740

> <Gold.Chemscore.Rot.Weighted>
4.3317

> <Gold.Chemscore.Internal.Correction.Weighted>
   9.000000E+99

> <Gold.Protein.RotatedTorsions>
[ 6907 6896 6895 6894 ] final   60.49 input  -60.11 | X-H torsion
[ 7974 7965 7964 7962 ] final  115.90 input  175.53 | X-H torsion
[ 8008 7997 7996 7995 ] final   36.66 input   59.86 | X-H torsion
[ 10167 10162 10161 10158 ] final  -15.24 input  -65.29 | X-H torsion
[ 10718 10713 10712 10709 ] final   34.46 input   66.30 | X-H torsion
[ 10763 10752 10751 10750 ] final  174.58 input  -60.55 | X-H torsion
[ 11005 11000 10999 10996 ] final   61.54 input  -57.11 | X-H torsion

> <Gold.Protein.ActiveResidues>
 VAL166  LYS551  ARG553  GLY616  TRP617  ASP618  TYR619  PRO620  LYS621  CYS622 
 ASP623  PHE694  ASN695  SER759  ASP760  ASP761  ALA762  ILE779  LEU786  VAL792 
 PHE793  MET794  SER795  GLU796  ALA797  LYS798  CYS799  TRP800  GLU811  SER814 

> <Gold.Protein.RotatedAtoms>
  152.4007  134.6291  160.0070 H   0  0  0  0  0  0  0  0  0  0  0  0  # atno 6907 bound_to 6896
  151.6497  133.3316  159.3157 H   0  0  0  0  0  0  0  0  0  0  0  0  # atno 6908 bound_to 6896
  150.7908  134.6972  159.6574 H   0  0  0  0  0  0  0  0  0  0  0  0  # atno 6909 bound_to 6896
  145.1862  139.3024  143.4392 H   0  0  0  0  0  0  0  0  0  0  0  0  # atno 7974 bound_to 7965
  155.1911  140.3308  155.4358 H   0  0  0  0  0  0  0  0  0  0  0  0  # atno 8008 bound_to 7997
  156.2442  140.1910  156.6954 H   0  0  0  0  0  0  0  0  0  0  0  0  # atno 8009 bound_to 7997
  154.6205  140.0596  156.9595 H   0  0  0  0  0  0  0  0  0  0  0  0  # atno 8010 bound_to 7997
  140.7215  143.5238  150.9601 H   0  0  0  0  0  0  0  0  0  0  0  0  # atno 10167 bound_to 10162
  157.3106  130.7397  149.6722 H   0  0  0  0  0  0  0  0  0  0  0  0  # atno 10718 bound_to 10713
  154.4559  135.2766  155.1748 H   0  0  0  0  0  0  0  0  0  0  0  0  # atno 10763 bound_to 10752
  154.3556  135.6140  153.5668 H   0  0  0  0  0  0  0  0  0  0  0  0  # atno 10764 bound_to 10752
  152.9850  135.5822  154.4912 H   0  0  0  0  0  0  0  0  0  0  0  0  # atno 10765 bound_to 10752
  140.0154  134.6233  155.9717 H   0  0  0  0  0  0  0  0  0  0  0  0  # atno 11005 bound_to 11000
  146.3444  140.2059  142.8589 LP  0  0  0  0  0  0  0  0  0  0  0  0  # atno 17320 bound_to 7965
  145.0086  140.8695  143.5238 LP  0  0  0  0  0  0  0  0  0  0  0  0  # atno 17321 bound_to 7965
  139.8957  143.6898  152.3139 LP  0  0  0  0  0  0  0  0  0  0  0  0  # atno 17342 bound_to 10162
  139.7230  144.7599  151.0925 LP  0  0  0  0  0  0  0  0  0  0  0  0  # atno 17343 bound_to 10162
  155.9677  130.4252  150.4645 LP  0  0  0  0  0  0  0  0  0  0  0  0  # atno 17370 bound_to 10713
  157.2642  131.0573  151.2301 LP  0  0  0  0  0  0  0  0  0  0  0  0  # atno 17371 bound_to 10713
  141.1739  133.6539  156.4755 LP  0  0  0  0  0  0  0  0  0  0  0  0  # atno 17394 bound_to 11000
  140.4480  134.6955  157.5025 LP  0  0  0  0  0  0  0  0  0  0  0  0  # atno 17395 bound_to 11000

$$$$
