AV-unprocessed.smi:45|AV-procd|sdf|409|dock8
  -GOLD-   2262016263D 1   1.00000     0.00000
 Structure written by MMmdl.
 61 64  0  0  0  0  0  0  0  0  2 V2000
  150.5145  140.1747  154.9874 C   0  0  0  0  0  0  0  0  0  0  0  0
  149.3959  139.3769  154.6281 O   0  0  0  0  0  0  0  0  0  0  0  0
  149.4686  138.0165  154.8446 C   0  0  0  0  0  0  0  0  0  0  0  0
  150.6766  137.2754  154.8083 C   0  0  0  0  0  0  0  0  0  0  0  0
  150.6691  135.8838  155.0212 C   0  0  0  0  0  0  0  0  0  0  0  0
  149.4614  135.2062  155.2766 C   0  0  0  0  0  0  0  0  0  0  0  0
  149.4896  133.6980  155.4898 C   0  0  0  0  0  0  0  0  0  0  0  0
  149.6918  132.8741  154.3019 N   0  0  0  0  0  0  0  0  0  0  0  0
  148.6169  132.2953  153.6021 C   0  0  0  0  0  0  0  0  0  0  0  0
  147.7982  133.1138  152.9024 N   0  0  0  0  0  0  0  0  0  0  0  0
  146.7688  132.6118  152.2071 C   0  0  0  0  0  0  0  0  0  0  0  0
  145.9330  133.4735  151.5019 N   0  0  0  0  0  0  0  0  0  0  0  0
  146.1338  134.9171  151.5249 C   0  0  0  0  0  0  0  0  0  0  0  0
  144.7422  135.5334  151.3923 C   0  0  0  0  0  0  0  0  0  0  0  0
  143.9808  134.4861  150.5891 C   0  0  0  0  0  0  0  0  0  0  0  0
  144.5672  133.1561  151.0852 C   0  0  1  0  0  0  0  0  0  0  0  0
  144.5100  132.0459  150.0162 C   0  0  0  0  0  0  0  0  0  0  0  0
  143.2166  131.9816  149.4551 O   0  0  0  0  0  0  0  0  0  0  0  0
  146.5179  131.2945  152.1595 N   0  3  0  0  0  0  0  0  0  0  0  0
  147.3046  130.4310  152.8440 C   0  0  0  0  0  0  0  0  0  0  0  0
  148.4026  130.8939  153.6001 C   0  0  0  0  0  0  0  0  0  0  0  0
  149.2431  129.9254  154.3890 C   0  0  0  0  0  0  0  0  0  0  0  0
  149.1083  128.7085  154.2602 O   0  0  0  0  0  0  0  0  0  0  0  0
  150.1151  130.4872  155.2412 N   0  0  0  0  0  0  0  0  0  0  0  0
  151.0595  129.7493  156.0721 C   0  0  0  0  0  0  0  0  0  0  0  0
  152.5041  129.9791  155.6612 C   0  0  0  0  0  0  0  0  0  0  0  0
  153.2511  130.7305  156.4757 N   0  0  0  0  0  0  0  0  0  0  0  0
  154.5383  130.9267  156.1169 C   0  0  0  0  0  0  0  0  0  0  0  0
  155.0728  130.3668  154.9391 C   0  0  0  0  0  0  0  0  0  0  0  0
  154.1899  129.5927  154.1596 C   0  0  0  0  0  0  0  0  0  0  0  0
  152.9032  129.3998  154.5233 N   0  0  0  0  0  0  0  0  0  0  0  0
  148.2592  135.9431  155.3389 C   0  0  0  0  0  0  0  0  0  0  0  0
  148.2627  137.3334  155.1164 C   0  0  0  0  0  0  0  0  0  0  0  0
  146.7674  138.1956  155.1739 Cl  0  0  0  0  0  0  0  0  0  0  0  0
  144.0201  132.8376  151.9739 H   0  0  0  0  0  0  0  0  0  0  0  0
  150.3042  141.2168  154.7470 H   0  0  0  0  0  0  0  0  0  0  0  0
  151.4073  139.8820  154.4331 H   0  0  0  0  0  0  0  0  0  0  0  0
  150.7173  140.1184  156.0578 H   0  0  0  0  0  0  0  0  0  0  0  0
  151.6255  137.7500  154.6097 H   0  0  0  0  0  0  0  0  0  0  0  0
  151.5986  135.3351  154.9799 H   0  0  0  0  0  0  0  0  0  0  0  0
  150.2630  133.4539  156.2193 H   0  0  0  0  0  0  0  0  0  0  0  0
  148.5417  133.4053  155.9418 H   0  0  0  0  0  0  0  0  0  0  0  0
  150.6173  132.4990  154.1468 H   0  0  0  0  0  0  0  0  0  0  0  0
  146.6258  135.2516  152.4392 H   0  0  0  0  0  0  0  0  0  0  0  0
  146.7619  135.1965  150.6785 H   0  0  0  0  0  0  0  0  0  0  0  0
  144.2885  135.6422  152.3784 H   0  0  0  0  0  0  0  0  0  0  0  0
  144.7550  136.5138  150.9152 H   0  0  0  0  0  0  0  0  0  0  0  0
  142.9007  134.5484  150.7260 H   0  0  0  0  0  0  0  0  0  0  0  0
  144.1912  134.6251  149.5274 H   0  0  0  0  0  0  0  0  0  0  0  0
  145.2371  132.2282  149.2243 H   0  0  0  0  0  0  0  0  0  0  0  0
  144.7435  131.0706  150.4403 H   0  0  0  0  0  0  0  0  0  0  0  0
  142.5906  131.8652  150.1539 H   0  0  0  0  0  0  0  0  0  0  0  0
  147.0190  129.3914  152.7690 H   0  0  0  0  0  0  0  0  0  0  0  0
  150.1534  131.4943  155.2975 H   0  0  0  0  0  0  0  0  0  0  0  0
  150.9341  130.0722  157.1060 H   0  0  0  0  0  0  0  0  0  0  0  0
  150.8191  128.6843  156.0524 H   0  0  0  0  0  0  0  0  0  0  0  0
  155.1445  131.5344  156.7721 H   0  0  0  0  0  0  0  0  0  0  0  0
  156.1017  130.5222  154.6501 H   0  0  0  0  0  0  0  0  0  0  0  0
  154.5167  129.1267  153.2420 H   0  0  0  0  0  0  0  0  0  0  0  0
  147.3224  135.4478  155.5483 H   0  0  0  0  0  0  0  0  0  0  0  0
  145.7273  130.9352  151.6239 H   0  0  0  0  0  0  0  0  0  0  0  0
  1  2  1  0  0  0  0
  1 36  1  0  0  0  0
  1 37  1  0  0  0  0
  1 38  1  0  0  0  0
  2  3  1  0  0  0  0
  3 33  1  0  0  0  0
  3  4  2  0  0  0  0
  4  5  1  0  0  0  0
  4 39  1  0  0  0  0
  5  6  2  0  0  0  0
  5 40  1  0  0  0  0
  6  7  1  0  0  0  0
  6 32  1  0  0  0  0
  7  8  1  0  0  0  0
  7 41  1  0  0  0  0
  7 42  1  0  0  0  0
  8  9  1  0  0  0  0
  8 43  1  0  0  0  0
  9 21  1  0  0  0  0
  9 10  2  0  0  0  0
 10 11  1  0  0  0  0
 11 12  1  0  0  0  0
 11 19  2  0  0  0  0
 12 16  1  0  0  0  0
 12 13  1  0  0  0  0
 13 14  1  0  0  0  0
 13 44  1  0  0  0  0
 13 45  1  0  0  0  0
 14 15  1  0  0  0  0
 14 46  1  0  0  0  0
 14 47  1  0  0  0  0
 15 16  1  0  0  0  0
 15 48  1  0  0  0  0
 15 49  1  0  0  0  0
 16 35  1  0  0  0  0
 16 17  1  0  0  0  0
 17 18  1  0  0  0  0
 17 50  1  0  0  0  0
 17 51  1  0  0  0  0
 18 52  1  0  0  0  0
 19 20  1  0  0  0  0
 19 61  1  0  0  0  0
 20 21  2  0  0  0  0
 20 53  1  0  0  0  0
 21 22  1  0  0  0  0
 22 23  2  0  0  0  0
 22 24  1  0  0  0  0
 24 25  1  0  0  0  0
 24 54  1  0  0  0  0
 25 26  1  0  0  0  0
 25 55  1  0  0  0  0
 25 56  1  0  0  0  0
 26 31  1  0  0  0  0
 26 27  2  0  0  0  0
 27 28  1  0  0  0  0
 28 29  2  0  0  0  0
 28 57  1  0  0  0  0
 29 30  1  0  0  0  0
 29 58  1  0  0  0  0
 30 31  2  0  0  0  0
 30 59  1  0  0  0  0
 32 33  2  0  0  0  0
 32 60  1  0  0  0  0
 33 34  1  0  0  0  0
M  CHG  1  19   1
M  END
> <s_m_source_file>
AV-unprocessed.smi

> <i_m_source_file_index>
45

> <i_lp_mmshare_version>
43012

> <i_f3d_flags>
0

> <s_epik_input>
W0NIM11PYzFbY0hdW2NIXWMoW2NIXWMxQ2wpW0NIMl1bTkhdYzJuYyhOM1tDSDJdW0NIMl1bQ0gyXVtDQEhdM1tDSDJdW09IXSluW2NIXWMyQyg9TylbTkhdW0NIMl1jNG5bY0hdW2NIXVtjSF1uNA==

> <s_epik_cmdline>
J2VwaWtfcHl0aG9uJywgJy1waCcsICc3LjAnLCAnLXRuJywgJzgnLCAnLW1hJywgJzIwMCcsICctbWV0YWxfYmluZGluZycsICctaW1hZScsICc8aW5maWxlLm1hZT4nLCAnLW9tYWUnLCAnPG91dGZpbGUubWFlPic=

> <r_lp_tautomer_probability>
0.575011

> <r_epik_Ionization_Penalty>
1.61454

> <r_epik_Ionization_Penalty_Charging>
1.61448

> <r_epik_Ionization_Penalty_Neutral>
6.30284e-05

> <r_epik_State_Penalty>
1.91123

> <r_epik_Charging_Adjusted_Penalty>
3.52572

> <i_epik_Tot_Q>
1

> <i_epik_Tot_abs_Q>
1

> <r_epik_Metal_State_Penalty>
1.95488

> <b_epik_Metal_Only>
0

> <s_epik_Chemistry_Notes>
This compound contains an electron-poor aromatic ring that is susceptible to covalent hydrolysis at low pH, typically resulting in measured values for nitrogen ring protonation that are around two units higher than predicted values.

> <s_lp_Force_Field>
OPLS_2005

> <r_lp_Energy>
32.8606

> <b_lp_Chiralities_Consistent>
1

> <s_lp_Variant>
AV-unprocessed.smi:45-3

> <Gold.Version>
5.8.1

> <Gold.Id.Protein>
6NUR|6NUR_protein|mol2

> <Gold.PLP.Fitness>
49.2197

> <Gold.PLP.PLP>
-49.1680

> <Gold.PLP.part.hbond>
-2.8574

> <Gold.PLP.part.metal>
0.0000

> <Gold.PLP.part.buried>
-4.3600

> <Gold.PLP.part.nonpolar>
-43.1441

> <Gold.PLP.part.repulsive>
0.4895

> <Gold.PLP.ligand.clash>
0.0000

> <Gold.PLP.ligand.torsion>
1.7407

> <Gold.PLP.Chemscore.Hbond>
1.0234

> <Gold.PLP.Chemscore.CHOScore>
0.0000

> <Gold.PLP.Chemscore.Metal>
0.0000

> <Gold.Chemscore.Hbonds>
donor molecule, donor type, donor heavy atom, donor atom, acceptor molecule, acceptor atom, score
      L1  H    18    52       P1 10952  0.02
      P1  H 10785 10796       L1    18  0.90

> <Gold.PLP.Chemscore.Internal.Correction>
0.4629

> <Gold.Rescore>
     Score         DG    S(hbond)    S(metal)    S(lipo)     H(rot)  DE(clash)    DE(int)     intcor
      8.14     -12.53       0.77        0.00     102.67       2.94       0.13       4.26       ----

> <Gold.Chemscore.Fitness>
8.1354

> <Gold.Chemscore.DG>
-12.5287

> <Gold.Chemscore.ZeroCoef>
-5.4800

> <Gold.Chemscore.Hbond>
0.7670

> <Gold.Chemscore.Metal>
0.0000

> <Gold.Chemscore.Lipo>
102.6669

> <Gold.Chemscore.Internal_Hbond>
0.0000

> <Gold.Chemscore.DEClash>
0.1328

> <Gold.Chemscore.DEInternal>
4.2606

> <Gold.Chemscore.Rot>
2.9395

> <Gold.Chemscore.Internal.Correction>
   9.000000E+99

> <Gold.Chemscore.Hbonds>
donor molecule, donor type, donor heavy atom, donor atom, acceptor molecule, acceptor atom, score
      L1  H    18    52       P1 10952  0.03
      P1  H 10785 10796       L1    18  0.05

> <Gold.Chemscore.Hbond.Weighted>
-2.5619

> <Gold.Chemscore.Metal.Weighted>
-0.0000

> <Gold.Chemscore.Lipo.Weighted>
-12.0120

> <Gold.Chemscore.Internal_Hbond.Weighted>
0.0000

> <Gold.Chemscore.DEClash.Weighted>
0.1328

> <Gold.Chemscore.DEInternal.Weighted>
4.2606

> <Gold.Chemscore.Rot.Weighted>
7.5251

> <Gold.Chemscore.Internal.Correction.Weighted>
   9.000000E+99

> <Gold.Protein.RotatedTorsions>
[ 6907 6896 6895 6894 ] final -129.04 input  -60.11 | X-H torsion
[ 7974 7965 7964 7962 ] final  -47.75 input  175.53 | X-H torsion
[ 8008 7997 7996 7995 ] final  -52.42 input   59.86 | X-H torsion
[ 10167 10162 10161 10158 ] final  -68.95 input  -65.29 | X-H torsion
[ 10718 10713 10712 10709 ] final    3.22 input   66.30 | X-H torsion
[ 10763 10752 10751 10750 ] final  111.55 input  -60.55 | X-H torsion
[ 11005 11000 10999 10996 ] final  164.04 input  -57.11 | X-H torsion

> <Gold.Protein.ActiveResidues>
 VAL166  LYS551  ARG553  GLY616  TRP617  ASP618  TYR619  PRO620  LYS621  CYS622 
 ASP623  PHE694  ASN695  SER759  ASP760  ASP761  ALA762  ILE779  LEU786  VAL792 
 PHE793  MET794  SER795  GLU796  ALA797  LYS798  CYS799  TRP800  GLU811  SER814 

> <Gold.Protein.RotatedAtoms>
  150.9244  133.6841  159.2824 H   0  0  0  0  0  0  0  0  0  0  0  0  # atno 6907 bound_to 6896
  151.4284  135.1005  159.9644 H   0  0  0  0  0  0  0  0  0  0  0  0  # atno 6908 bound_to 6896
  152.4995  133.8680  159.7339 H   0  0  0  0  0  0  0  0  0  0  0  0  # atno 6909 bound_to 6896
  145.9583  140.7504  142.9470 H   0  0  0  0  0  0  0  0  0  0  0  0  # atno 7974 bound_to 7965
  154.4106  140.1224  156.4989 H   0  0  0  0  0  0  0  0  0  0  0  0  # atno 8008 bound_to 7997
  155.6915  140.3495  155.4876 H   0  0  0  0  0  0  0  0  0  0  0  0  # atno 8009 bound_to 7997
  155.9464  140.1096  157.1003 H   0  0  0  0  0  0  0  0  0  0  0  0  # atno 8010 bound_to 7997
  140.5468  143.2313  151.6986 H   0  0  0  0  0  0  0  0  0  0  0  0  # atno 10167 bound_to 10162
  156.8747  130.5632  149.5655 H   0  0  0  0  0  0  0  0  0  0  0  0  # atno 10718 bound_to 10713
  153.4650  135.3713  155.2359 H   0  0  0  0  0  0  0  0  0  0  0  0  # atno 10763 bound_to 10752
  154.8757  135.3918  154.3879 H   0  0  0  0  0  0  0  0  0  0  0  0  # atno 10764 bound_to 10752
  153.4459  135.7085  153.6204 H   0  0  0  0  0  0  0  0  0  0  0  0  # atno 10765 bound_to 10752
  140.2419  134.8044  157.3419 H   0  0  0  0  0  0  0  0  0  0  0  0  # atno 11005 bound_to 11000
  144.6810  140.2549  143.7326 LP  0  0  0  0  0  0  0  0  0  0  0  0  # atno 17320 bound_to 7965
  145.8075  139.1989  143.2012 LP  0  0  0  0  0  0  0  0  0  0  0  0  # atno 17321 bound_to 7965
  139.5011  144.3881  152.0307 LP  0  0  0  0  0  0  0  0  0  0  0  0  # atno 17342 bound_to 10162
  140.2995  144.3663  150.6064 LP  0  0  0  0  0  0  0  0  0  0  0  0  # atno 17343 bound_to 10162
  156.0708  130.5741  150.9380 LP  0  0  0  0  0  0  0  0  0  0  0  0  # atno 17370 bound_to 10713
  157.6175  131.0932  150.8683 LP  0  0  0  0  0  0  0  0  0  0  0  0  # atno 17371 bound_to 10713
  140.1645  134.4687  155.7872 LP  0  0  0  0  0  0  0  0  0  0  0  0  # atno 17394 bound_to 11000
  141.2210  133.6915  156.7601 LP  0  0  0  0  0  0  0  0  0  0  0  0  # atno 17395 bound_to 11000

$$$$
