AV-unprocessed.smi:786|AV-procd|sdf|3721|dock1
  -GOLD-   22720 1143D 1   1.00000     0.00000
 Structure written by MMmdl.
 39 40  0  0  0  0  0  0  0  0  1 V2000
  150.9030  138.7848  157.0940 O   0  0  0  0  0  0  0  0  0  0  0  0
  151.0245  138.3167  158.4825 S   0  0  0  0  0  0  0  0  0  0  0  0
  151.3642  136.9140  158.7655 O   0  0  0  0  0  0  0  0  0  0  0  0
  152.2041  139.4052  159.4046 C   0  0  0  0  0  0  0  0  0  0  0  0
  151.7161  140.8641  159.5241 C   0  0  0  0  0  0  0  0  0  0  0  0
  151.3824  141.5069  158.1642 C   0  0  0  0  0  0  0  0  0  0  0  0
  150.9760  142.9792  158.3413 C   0  0  0  0  0  0  0  0  0  0  0  0
  152.0153  143.6951  158.9995 O   0  0  0  0  0  0  0  0  0  0  0  0
  152.2814  143.2053  160.3090 C   0  0  0  0  0  0  0  0  0  0  0  0
  152.7552  141.7443  160.2383 C   0  0  0  0  0  0  0  0  0  0  0  0
  149.5162  138.6471  159.2542 N   0  0  0  0  0  0  0  0  0  0  0  0
  148.3194  137.8755  158.9190 C   0  0  0  0  0  0  0  0  0  0  0  0
  148.5239  136.3963  159.2719 C   0  0  0  0  0  0  0  0  0  0  0  0
  147.7380  135.9862  160.5033 C   0  0  0  0  0  0  0  0  0  0  0  0
  147.4479  134.6280  160.7538 C   0  0  0  0  0  0  0  0  0  0  0  0
  146.7214  134.2999  161.9148 C   0  0  0  0  0  0  0  0  0  0  0  0
  146.3153  135.3368  162.7764 C   0  0  0  0  0  0  0  0  0  0  0  0
  146.6564  136.6617  162.4377 C   0  0  0  0  0  0  0  0  0  0  0  0
  147.3536  136.9871  161.3276 N   0  0  0  0  0  0  0  0  0  0  0  0
  152.3607  138.9581  160.3856 H   0  0  0  0  0  0  0  0  0  0  0  0
  153.1659  139.3689  158.8927 H   0  0  0  0  0  0  0  0  0  0  0  0
  150.8145  140.8696  160.1384 H   0  0  0  0  0  0  0  0  0  0  0  0
  152.2513  141.4528  157.5072 H   0  0  0  0  0  0  0  0  0  0  0  0
  150.5813  140.9706  157.6589 H   0  0  0  0  0  0  0  0  0  0  0  0
  150.7963  143.4367  157.3683 H   0  0  0  0  0  0  0  0  0  0  0  0
  150.0471  143.0616  158.9074 H   0  0  0  0  0  0  0  0  0  0  0  0
  153.0511  143.8269  160.7666 H   0  0  0  0  0  0  0  0  0  0  0  0
  151.3891  143.2955  160.9305 H   0  0  0  0  0  0  0  0  0  0  0  0
  152.9402  141.3692  161.2455 H   0  0  0  0  0  0  0  0  0  0  0  0
  153.7074  141.6977  159.7080 H   0  0  0  0  0  0  0  0  0  0  0  0
  149.6026  138.9029  160.2377 H   0  0  0  0  0  0  0  0  0  0  0  0
  147.4651  138.2746  159.4667 H   0  0  0  0  0  0  0  0  0  0  0  0
  148.1072  137.9884  157.8556 H   0  0  0  0  0  0  0  0  0  0  0  0
  148.2222  135.7658  158.4341 H   0  0  0  0  0  0  0  0  0  0  0  0
  149.5829  136.1967  159.4404 H   0  0  0  0  0  0  0  0  0  0  0  0
  147.7748  133.8541  160.0746 H   0  0  0  0  0  0  0  0  0  0  0  0
  146.4802  133.2714  162.1400 H   0  0  0  0  0  0  0  0  0  0  0  0
  145.7565  135.1227  163.6755 H   0  0  0  0  0  0  0  0  0  0  0  0
  146.3618  137.4816  163.0755 H   0  0  0  0  0  0  0  0  0  0  0  0
  1  2  2  0  0  0  0
  2  3  2  0  0  0  0
  2  4  1  0  0  0  0
  2 11  1  0  0  0  0
  4  5  1  0  0  0  0
  4 20  1  0  0  0  0
  4 21  1  0  0  0  0
  5 10  1  0  0  0  0
  5  6  1  0  0  0  0
  5 22  1  0  0  0  0
  6  7  1  0  0  0  0
  6 23  1  0  0  0  0
  6 24  1  0  0  0  0
  7  8  1  0  0  0  0
  7 25  1  0  0  0  0
  7 26  1  0  0  0  0
  8  9  1  0  0  0  0
  9 10  1  0  0  0  0
  9 27  1  0  0  0  0
  9 28  1  0  0  0  0
 10 29  1  0  0  0  0
 10 30  1  0  0  0  0
 11 12  1  0  0  0  0
 11 31  1  0  0  0  0
 12 13  1  0  0  0  0
 12 32  1  0  0  0  0
 12 33  1  0  0  0  0
 13 14  1  0  0  0  0
 13 34  1  0  0  0  0
 13 35  1  0  0  0  0
 14 19  1  0  0  0  0
 14 15  2  0  0  0  0
 15 16  1  0  0  0  0
 15 36  1  0  0  0  0
 16 17  2  0  0  0  0
 16 37  1  0  0  0  0
 17 18  1  0  0  0  0
 17 38  1  0  0  0  0
 18 19  2  0  0  0  0
 18 39  1  0  0  0  0
M  END
> <s_m_source_file>
AV-unprocessed.smi

> <i_m_source_file_index>
786

> <i_lp_mmshare_version>
43012

> <i_f3d_flags>
0

> <s_epik_input>
W0NIMl0xW0NIMl1PW0NIMl1bQ0gyXVtDSF0xW0NIMl1TKD1PKSg9TylbTkhdW0NIMl1bQ0gyXWMyW2NIXVtjSF1bY0hdW2NIXW4y

> <s_epik_cmdline>
J2VwaWtfcHl0aG9uJywgJy1waCcsICc3LjAnLCAnLXRuJywgJzgnLCAnLW1hJywgJzIwMCcsICctbWV0YWxfYmluZGluZycsICctaW1hZScsICc8aW5maWxlLm1hZT4nLCAnLW9tYWUnLCAnPG91dGZpbGUubWFlPic=

> <r_epik_Ionization_Penalty>
0.0207022

> <r_epik_Ionization_Penalty_Charging>
0

> <r_epik_Ionization_Penalty_Neutral>
0.0207022

> <r_epik_State_Penalty>
0.0165999

> <r_epik_Charging_Adjusted_Penalty>
0.0165999

> <i_epik_Tot_Q>
0

> <i_epik_Tot_abs_Q>
0

> <r_epik_Metal_State_Penalty>
0.0248737

> <b_epik_Metal_Only>
0

> <s_lp_Force_Field>
OPLS_2005

> <r_lp_Energy>
3.32782

> <b_lp_Chiralities_Consistent>
1

> <s_lp_Variant>
AV-unprocessed.smi:786-1

> <Gold.Version>
5.8.1

> <Gold.Id.Protein>
6NUR|6NUR_protein|mol2

> <Gold.PLP.Fitness>
45.6283

> <Gold.PLP.PLP>
-38.8111

> <Gold.PLP.part.hbond>
-4.0000

> <Gold.PLP.part.metal>
0.0000

> <Gold.PLP.part.buried>
-5.2119

> <Gold.PLP.part.nonpolar>
-30.6056

> <Gold.PLP.part.repulsive>
0.0293

> <Gold.PLP.ligand.clash>
0.0000

> <Gold.PLP.ligand.torsion>
0.8696

> <Gold.PLP.Chemscore.Hbond>
2.7366

> <Gold.PLP.Chemscore.CHOScore>
0.0000

> <Gold.PLP.Chemscore.Metal>
0.0000

> <Gold.Chemscore.Hbonds>
donor molecule, donor type, donor heavy atom, donor atom, acceptor molecule, acceptor atom, score
      P1  H  6896  6907       L1     3  0.67
      P1  H  6931  6943       L1    19  0.62
      P1  H  6934  6947       L1    19  0.88

> <Gold.PLP.Chemscore.Internal.Correction>
0.3466

> <Gold.Rescore>
     Score         DG    S(hbond)    S(metal)    S(lipo)     H(rot)  DE(clash)    DE(int)     intcor
     15.92     -18.62       1.90        0.00      97.63       1.81       0.09       2.60       ----

> <Gold.Chemscore.Fitness>
15.9241

> <Gold.Chemscore.DG>
-18.6183

> <Gold.Chemscore.ZeroCoef>
-5.4800

> <Gold.Chemscore.Hbond>
1.9038

> <Gold.Chemscore.Metal>
0.0000

> <Gold.Chemscore.Lipo>
97.6307

> <Gold.Chemscore.Internal_Hbond>
0.0000

> <Gold.Chemscore.DEClash>
0.0934

> <Gold.Chemscore.DEInternal>
2.6008

> <Gold.Chemscore.Rot>
1.8138

> <Gold.Chemscore.Internal.Correction>
   9.000000E+99

> <Gold.Chemscore.Hbonds>
donor molecule, donor type, donor heavy atom, donor atom, acceptor molecule, acceptor atom, score
      P1  H  6896  6907       L1     3  0.66
      P1  H  6931  6943       L1    19  0.31
      P1  H  6934  6947       L1    19  0.60

> <Gold.Chemscore.Hbond.Weighted>
-6.3588

> <Gold.Chemscore.Metal.Weighted>
-0.0000

> <Gold.Chemscore.Lipo.Weighted>
-11.4228

> <Gold.Chemscore.Internal_Hbond.Weighted>
0.0000

> <Gold.Chemscore.DEClash.Weighted>
0.0934

> <Gold.Chemscore.DEInternal.Weighted>
2.6008

> <Gold.Chemscore.Rot.Weighted>
4.6432

> <Gold.Chemscore.Internal.Correction.Weighted>
   9.000000E+99

> <Gold.Protein.RotatedTorsions>
[ 6907 6896 6895 6894 ] final   -1.48 input  -60.11 | X-H torsion
[ 7974 7965 7964 7962 ] final    4.30 input  175.53 | X-H torsion
[ 8008 7997 7996 7995 ] final   92.91 input   59.86 | X-H torsion
[ 10167 10162 10161 10158 ] final  -43.08 input  -65.29 | X-H torsion
[ 10718 10713 10712 10709 ] final  127.46 input   66.30 | X-H torsion
[ 10763 10752 10751 10750 ] final  -49.95 input  -60.55 | X-H torsion
[ 11005 11000 10999 10996 ] final   50.41 input  -57.11 | X-H torsion

> <Gold.Protein.ActiveResidues>
 VAL166  LYS551  ARG553  GLY616  TRP617  ASP618  TYR619  PRO620  LYS621  CYS622 
 ASP623  PHE694  ASN695  SER759  ASP760  ASP761  ALA762  ILE779  LEU786  VAL792 
 PHE793  MET794  SER795  GLU796  ALA797  LYS798  CYS799  TRP800  GLU811  SER814 

> <Gold.Protein.RotatedAtoms>
  151.5453  135.1068  159.9936 H   0  0  0  0  0  0  0  0  0  0  0  0  # atno 6907 bound_to 6896
  152.4516  133.7637  159.6771 H   0  0  0  0  0  0  0  0  0  0  0  0  # atno 6908 bound_to 6896
  150.8447  133.7814  159.3072 H   0  0  0  0  0  0  0  0  0  0  0  0  # atno 6909 bound_to 6896
  146.2444  140.0555  142.8372 H   0  0  0  0  0  0  0  0  0  0  0  0  # atno 7974 bound_to 7965
  156.0407  140.3319  155.7241 H   0  0  0  0  0  0  0  0  0  0  0  0  # atno 8008 bound_to 7997
  155.5748  140.0631  157.2815 H   0  0  0  0  0  0  0  0  0  0  0  0  # atno 8009 bound_to 7997
  154.4392  140.1854  156.0904 H   0  0  0  0  0  0  0  0  0  0  0  0  # atno 8010 bound_to 7997
  140.6947  143.3002  151.3300 H   0  0  0  0  0  0  0  0  0  0  0  0  # atno 10167 bound_to 10162
  157.5331  131.1098  150.8978 H   0  0  0  0  0  0  0  0  0  0  0  0  # atno 10718 bound_to 10713
  154.1025  135.6561  153.4870 H   0  0  0  0  0  0  0  0  0  0  0  0  # atno 10763 bound_to 10752
  153.0284  135.5228  154.7272 H   0  0  0  0  0  0  0  0  0  0  0  0  # atno 10764 bound_to 10752
  154.6429  135.2990  155.0051 H   0  0  0  0  0  0  0  0  0  0  0  0  # atno 10765 bound_to 10752
  140.1020  134.5069  155.8754 H   0  0  0  0  0  0  0  0  0  0  0  0  # atno 11005 bound_to 11000
  145.0946  140.9307  143.4748 LP  0  0  0  0  0  0  0  0  0  0  0  0  # atno 17320 bound_to 7965
  145.0735  139.3013  143.5820 LP  0  0  0  0  0  0  0  0  0  0  0  0  # atno 17321 bound_to 7965
  139.6388  144.0580  152.2537 LP  0  0  0  0  0  0  0  0  0  0  0  0  # atno 17342 bound_to 10162
  140.0078  144.6246  150.7673 LP  0  0  0  0  0  0  0  0  0  0  0  0  # atno 17343 bound_to 10162
  156.9553  130.5435  149.5284 LP  0  0  0  0  0  0  0  0  0  0  0  0  # atno 17370 bound_to 10713
  156.0438  130.5517  150.8832 LP  0  0  0  0  0  0  0  0  0  0  0  0  # atno 17371 bound_to 10713
  141.2108  133.6699  156.6536 LP  0  0  0  0  0  0  0  0  0  0  0  0  # atno 17394 bound_to 11000
  140.3207  134.8010  157.4250 LP  0  0  0  0  0  0  0  0  0  0  0  0  # atno 17395 bound_to 11000

$$$$
