AV-unprocessed.smi:2709|AV-procd|sdf|10463|dock2
  -GOLD-   2272014503D 1   1.00000     0.00000
 Structure written by MMmdl.
 40 42  0  0  0  0  0  0  0  0  1 V2000
  142.3016  136.1806  154.2386 C   0  0  0  0  0  0  0  0  0  0  0  0
  143.2861  136.7561  153.3945 O   0  0  0  0  0  0  0  0  0  0  0  0
  144.3419  135.8667  153.0566 C   0  0  1  0  0  0  0  0  0  0  0  0
  143.8208  134.4845  152.6391 C   0  0  0  0  0  0  0  0  0  0  0  0
  144.8481  133.9783  151.6336 C   0  0  0  0  0  0  0  0  0  0  0  0
  145.2346  135.2288  150.8461 C   0  0  0  0  0  0  0  0  0  0  0  0
  145.1244  136.4045  151.8384 C   0  0  2  0  0  0  0  0  0  0  0  0
  146.4448  136.8815  152.2439 N   0  0  0  0  0  0  0  0  0  0  0  0
  146.6721  137.8895  153.0972 C   0  0  0  0  0  0  0  0  0  0  0  0
  145.7756  138.5353  153.6393 O   0  0  0  0  0  0  0  0  0  0  0  0
  147.9893  138.0800  153.2822 N   0  0  0  0  0  0  0  0  0  0  0  0
  148.6366  139.0641  154.0766 C   0  0  0  0  0  0  0  0  0  0  0  0
  150.0455  139.0638  154.1496 C   0  0  0  0  0  0  0  0  0  0  0  0
  150.7263  139.9785  154.8727 N   0  0  0  0  0  0  0  0  0  0  0  0
  150.0015  140.8919  155.5246 C   0  0  0  0  0  0  0  0  0  0  0  0
  150.7588  141.9271  156.2970 C   0  0  0  0  0  0  0  0  0  0  0  0
  151.6761  141.5312  157.4364 C   0  0  0  0  0  0  0  0  0  0  0  0
  150.3879  142.2476  157.7305 C   0  0  0  0  0  0  0  0  0  0  0  0
  148.6709  141.0094  155.5109 N   0  0  0  0  0  0  0  0  0  0  0  0
  147.9816  140.0972  154.7917 C   0  0  0  0  0  0  0  0  0  0  0  0
  141.5457  136.9285  154.4772 H   0  0  0  0  0  0  0  0  0  0  0  0
  142.7386  135.8360  155.1765 H   0  0  0  0  0  0  0  0  0  0  0  0
  141.7991  135.3413  153.7572 H   0  0  0  0  0  0  0  0  0  0  0  0
  145.0197  135.7503  153.9054 H   0  0  0  0  0  0  0  0  0  0  0  0
  143.6931  133.8085  153.4850 H   0  0  0  0  0  0  0  0  0  0  0  0
  142.8534  134.5855  152.1448 H   0  0  0  0  0  0  0  0  0  0  0  0
  145.7199  133.5884  152.1604 H   0  0  0  0  0  0  0  0  0  0  0  0
  144.4576  133.1846  150.9965 H   0  0  0  0  0  0  0  0  0  0  0  0
  146.2187  135.1344  150.3851 H   0  0  0  0  0  0  0  0  0  0  0  0
  144.5179  135.3768  150.0372 H   0  0  0  0  0  0  0  0  0  0  0  0
  144.5720  137.2213  151.3690 H   0  0  0  0  0  0  0  0  0  0  0  0
  147.2407  136.4018  151.8502 H   0  0  0  0  0  0  0  0  0  0  0  0
  148.6019  137.4199  152.8260 H   0  0  0  0  0  0  0  0  0  0  0  0
  150.6327  138.3244  153.6249 H   0  0  0  0  0  0  0  0  0  0  0  0
  151.0698  142.7499  155.6560 H   0  0  0  0  0  0  0  0  0  0  0  0
  151.7334  140.4771  157.7008 H   0  0  0  0  0  0  0  0  0  0  0  0
  152.6010  142.0919  157.5546 H   0  0  0  0  0  0  0  0  0  0  0  0
  150.4496  143.2879  158.0428 H   0  0  0  0  0  0  0  0  0  0  0  0
  149.5889  141.6694  158.1905 H   0  0  0  0  0  0  0  0  0  0  0  0
  146.9106  140.2256  154.7856 H   0  0  0  0  0  0  0  0  0  0  0  0
  1  2  1  0  0  0  0
  1 21  1  0  0  0  0
  1 22  1  0  0  0  0
  1 23  1  0  0  0  0
  2  3  1  0  0  0  0
  3  7  1  0  0  0  0
  3  4  1  0  0  0  0
  3 24  1  0  0  0  0
  4  5  1  0  0  0  0
  4 25  1  0  0  0  0
  4 26  1  0  0  0  0
  5  6  1  0  0  0  0
  5 27  1  0  0  0  0
  5 28  1  0  0  0  0
  6  7  1  0  0  0  0
  6 29  1  0  0  0  0
  6 30  1  0  0  0  0
  7  8  1  0  0  0  0
  7 31  1  0  0  0  0
  8  9  1  0  0  0  0
  8 32  1  0  0  0  0
  9 10  2  0  0  0  0
  9 11  1  0  0  0  0
 11 12  1  0  0  0  0
 11 33  1  0  0  0  0
 12 20  1  0  0  0  0
 12 13  2  0  0  0  0
 13 14  1  0  0  0  0
 13 34  1  0  0  0  0
 14 15  2  0  0  0  0
 15 16  1  0  0  0  0
 15 19  1  0  0  0  0
 16 18  1  0  0  0  0
 16 17  1  0  0  0  0
 16 35  1  0  0  0  0
 17 18  1  0  0  0  0
 17 36  1  0  0  0  0
 17 37  1  0  0  0  0
 18 38  1  0  0  0  0
 18 39  1  0  0  0  0
 19 20  2  0  0  0  0
 20 40  1  0  0  0  0
M  END
> <s_m_source_file>
AV-unprocessed.smi

> <i_m_source_file_index>
2709

> <i_lp_mmshare_version>
43012

> <i_f3d_flags>
0

> <s_epik_input>
W0NIM11PW0NAQEhdMVtDSDJdW0NIMl1bQ0gyXVtDQEhdMVtOSF1DKD1PKVtOSF1jMltjSF1uYyhuW2NIXTIpW0NIXTNbQ0gyXVtDSDJdMw==

> <s_epik_cmdline>
J2VwaWtfcHl0aG9uJywgJy1waCcsICc3LjAnLCAnLXRuJywgJzgnLCAnLW1hJywgJzIwMCcsICctbWV0YWxfYmluZGluZycsICctaW1hZScsICc8aW5maWxlLm1hZT4nLCAnLW9tYWUnLCAnPG91dGZpbGUubWFlPic=

> <r_lp_tautomer_probability>
1

> <r_epik_Ionization_Penalty>
2.49969e-05

> <r_epik_Ionization_Penalty_Charging>
0

> <r_epik_Ionization_Penalty_Neutral>
2.49969e-05

> <r_epik_State_Penalty>
-0

> <r_epik_Charging_Adjusted_Penalty>
0

> <i_epik_Tot_Q>
0

> <i_epik_Tot_abs_Q>
0

> <r_epik_Metal_State_Penalty>
-0

> <b_epik_Metal_Only>
0

> <s_lp_Force_Field>
OPLS_2005

> <r_lp_Energy>
19.78

> <b_lp_Chiralities_Consistent>
1

> <s_lp_Variant>
AV-unprocessed.smi:2709-4

> <Gold.Version>
5.8.1

> <Gold.Id.Protein>
6NUR|6NUR_protein|mol2

> <Gold.PLP.Fitness>
38.0186

> <Gold.PLP.PLP>
-29.4497

> <Gold.PLP.part.hbond>
-3.1054

> <Gold.PLP.part.metal>
0.0000

> <Gold.PLP.part.buried>
-4.0490

> <Gold.PLP.part.nonpolar>
-23.5222

> <Gold.PLP.part.repulsive>
1.2380

> <Gold.PLP.ligand.clash>
0.0000

> <Gold.PLP.ligand.torsion>
0.2197

> <Gold.PLP.Chemscore.Hbond>
2.9600

> <Gold.PLP.Chemscore.CHOScore>
0.0000

> <Gold.PLP.Chemscore.Metal>
0.0000

> <Gold.Chemscore.Hbonds>
donor molecule, donor type, donor heavy atom, donor atom, acceptor molecule, acceptor atom, score
      L1  H     8    32       P1  7948  0.94
      L1  H    11    33       P1  7948  1.00
      P1  H  7989  7998       L1    14  1.00

> <Gold.PLP.Chemscore.Internal.Correction>
0.1284

> <Gold.Rescore>
     Score         DG    S(hbond)    S(metal)    S(lipo)     H(rot)  DE(clash)    DE(int)     intcor
     15.18     -16.67       2.13        0.00      65.72       1.41       0.16       1.33       ----

> <Gold.Chemscore.Fitness>
15.1785

> <Gold.Chemscore.DG>
-16.6718

> <Gold.Chemscore.ZeroCoef>
-5.4800

> <Gold.Chemscore.Hbond>
2.1306

> <Gold.Chemscore.Metal>
0.0000

> <Gold.Chemscore.Lipo>
65.7156

> <Gold.Chemscore.Internal_Hbond>
0.0000

> <Gold.Chemscore.DEClash>
0.1606

> <Gold.Chemscore.DEInternal>
1.3327

> <Gold.Chemscore.Rot>
1.4114

> <Gold.Chemscore.Internal.Correction>
   9.000000E+99

> <Gold.Chemscore.Hbonds>
donor molecule, donor type, donor heavy atom, donor atom, acceptor molecule, acceptor atom, score
      L1  H     8    32       P1  7948  0.91
      L1  H    11    33       P1  7948  0.94
      P1  H  7989  7998       L1    14  0.15

> <Gold.Chemscore.Hbond.Weighted>
-7.1163

> <Gold.Chemscore.Metal.Weighted>
-0.0000

> <Gold.Chemscore.Lipo.Weighted>
-7.6887

> <Gold.Chemscore.Internal_Hbond.Weighted>
0.0000

> <Gold.Chemscore.DEClash.Weighted>
0.1606

> <Gold.Chemscore.DEInternal.Weighted>
1.3327

> <Gold.Chemscore.Rot.Weighted>
3.6133

> <Gold.Chemscore.Internal.Correction.Weighted>
   9.000000E+99

> <Gold.Protein.RotatedTorsions>
[ 6907 6896 6895 6894 ] final   49.35 input  -60.11 | X-H torsion
[ 7974 7965 7964 7962 ] final  126.32 input  175.53 | X-H torsion
[ 8008 7997 7996 7995 ] final   32.28 input   59.86 | X-H torsion
[ 10167 10162 10161 10158 ] final   80.42 input  -65.29 | X-H torsion
[ 10718 10713 10712 10709 ] final -123.05 input   66.30 | X-H torsion
[ 10763 10752 10751 10750 ] final   16.64 input  -60.55 | X-H torsion
[ 11005 11000 10999 10996 ] final    7.87 input  -57.11 | X-H torsion

> <Gold.Protein.ActiveResidues>
 VAL166  LYS551  ARG553  GLY616  TRP617  ASP618  TYR619  PRO620  LYS621  CYS622 
 ASP623  PHE694  ASN695  SER759  ASP760  ASP761  ALA762  ILE779  LEU786  VAL792 
 PHE793  MET794  SER795  GLU796  ALA797  LYS798  CYS799  TRP800  GLU811  SER814 

> <Gold.Protein.RotatedAtoms>
  152.2898  134.7734  160.0379 H   0  0  0  0  0  0  0  0  0  0  0  0  # atno 6907 bound_to 6896
  151.8284  133.3399  159.3614 H   0  0  0  0  0  0  0  0  0  0  0  0  # atno 6908 bound_to 6896
  150.7225  134.5435  159.5803 H   0  0  0  0  0  0  0  0  0  0  0  0  # atno 6909 bound_to 6896
  145.0630  139.3790  143.4996 H   0  0  0  0  0  0  0  0  0  0  0  0  # atno 7974 bound_to 7965
  155.1200  140.3247  155.4500 H   0  0  0  0  0  0  0  0  0  0  0  0  # atno 8008 bound_to 7997
  156.2666  140.2029  156.6270 H   0  0  0  0  0  0  0  0  0  0  0  0  # atno 8009 bound_to 7997
  154.6691  140.0538  157.0133 H   0  0  0  0  0  0  0  0  0  0  0  0  # atno 8010 bound_to 7997
  139.9499  144.6033  150.8170 H   0  0  0  0  0  0  0  0  0  0  0  0  # atno 10167 bound_to 10162
  156.1470  130.6507  150.9856 H   0  0  0  0  0  0  0  0  0  0  0  0  # atno 10718 bound_to 10713
  153.1412  135.6760  153.9024 H   0  0  0  0  0  0  0  0  0  0  0  0  # atno 10763 bound_to 10752
  153.8480  135.3097  155.3432 H   0  0  0  0  0  0  0  0  0  0  0  0  # atno 10764 bound_to 10752
  154.7789  135.4899  153.9886 H   0  0  0  0  0  0  0  0  0  0  0  0  # atno 10765 bound_to 10752
  140.5434  134.0353  155.7912 H   0  0  0  0  0  0  0  0  0  0  0  0  # atno 11005 bound_to 11000
  146.3525  140.0338  142.8648 LP  0  0  0  0  0  0  0  0  0  0  0  0  # atno 17320 bound_to 7965
  145.1385  140.9558  143.4502 LP  0  0  0  0  0  0  0  0  0  0  0  0  # atno 17321 bound_to 7965
  140.7586  143.3110  151.2845 LP  0  0  0  0  0  0  0  0  0  0  0  0  # atno 17342 bound_to 10162
  139.6636  144.0144  152.2709 LP  0  0  0  0  0  0  0  0  0  0  0  0  # atno 17343 bound_to 10162
  157.6625  131.0878  150.7806 LP  0  0  0  0  0  0  0  0  0  0  0  0  # atno 17370 bound_to 10713
  156.7877  130.4880  149.5390 LP  0  0  0  0  0  0  0  0  0  0  0  0  # atno 17371 bound_to 10713
  141.1214  133.9455  157.2722 LP  0  0  0  0  0  0  0  0  0  0  0  0  # atno 17394 bound_to 11000
  139.9492  135.0178  156.8944 LP  0  0  0  0  0  0  0  0  0  0  0  0  # atno 17395 bound_to 11000

$$$$
