AV-unprocessed.smi:3301|AV-procd|sdf|12653|dock1
  -GOLD-   2272018583D 1   1.00000     0.00000
 Structure written by MMmdl.
 37 38  0  0  0  0  0  0  0  0  2 V2000
  148.2052  141.2599  157.0626 C   0  0  0  0  0  0  0  0  0  0  0  0
  149.5163  141.3689  156.2674 C   0  0  1  0  0  0  0  0  0  0  0  0
  149.2920  141.6752  154.7705 C   0  0  0  0  0  0  0  0  0  0  0  0
  148.5790  140.6021  154.0714 N   0  0  0  0  0  0  0  0  0  0  0  0
  147.3316  140.6715  153.5064 C   0  0  0  0  0  0  0  0  0  0  0  0
  147.0749  139.4347  152.9730 C   0  0  0  0  0  0  0  0  0  0  0  0
  148.1740  138.6623  153.2385 N   0  3  0  0  0  0  0  0  0  0  0  0
  149.0864  139.3731  153.9095 C   0  0  0  0  0  0  0  0  0  0  0  0
  150.3609  142.3957  156.8704 N   0  0  0  0  0  0  0  0  0  0  0  0
  151.4603  142.1605  157.6033 C   0  0  0  0  0  0  0  0  0  0  0  0
  151.8680  141.0269  157.8613 O   0  0  0  0  0  0  0  0  0  0  0  0
  152.1943  143.3975  158.1360 C   0  0  0  0  0  0  0  0  0  0  0  0
  152.5488  143.2859  159.5518 N   0  0  0  0  0  0  0  0  0  0  0  0
  153.3329  142.1610  160.0350 C   0  0  0  0  0  0  0  0  0  0  0  0
  153.3499  142.3094  161.5634 C   0  0  0  0  0  0  0  0  0  0  0  0
  152.8036  143.7111  161.8570 C   0  0  0  0  0  0  0  0  0  0  0  0
  152.2441  144.1609  160.5183 C   0  0  0  0  0  0  0  0  0  0  0  0
  151.6030  145.2015  160.3777 O   0  0  0  0  0  0  0  0  0  0  0  0
  147.5815  140.4444  156.6962 H   0  0  0  0  0  0  0  0  0  0  0  0
  147.6239  142.1803  156.9970 H   0  0  0  0  0  0  0  0  0  0  0  0
  148.4024  141.0654  158.1174 H   0  0  0  0  0  0  0  0  0  0  0  0
  150.0291  140.4089  156.3538 H   0  0  0  0  0  0  0  0  0  0  0  0
  148.7304  142.6026  154.6468 H   0  0  0  0  0  0  0  0  0  0  0  0
  150.2444  141.8133  154.2567 H   0  0  0  0  0  0  0  0  0  0  0  0
  146.7362  141.5731  153.5249 H   0  0  0  0  0  0  0  0  0  0  0  0
  146.2150  139.0561  152.4398 H   0  0  0  0  0  0  0  0  0  0  0  0
  150.0450  139.0233  154.2495 H   0  0  0  0  0  0  0  0  0  0  0  0
  150.0936  143.3571  156.7148 H   0  0  0  0  0  0  0  0  0  0  0  0
  153.1002  143.5709  157.5524 H   0  0  0  0  0  0  0  0  0  0  0  0
  151.5567  144.2692  157.9846 H   0  0  0  0  0  0  0  0  0  0  0  0
  152.8946  141.2103  159.7286 H   0  0  0  0  0  0  0  0  0  0  0  0
  154.3415  142.2215  159.6234 H   0  0  0  0  0  0  0  0  0  0  0  0
  152.7067  141.5564  162.0213 H   0  0  0  0  0  0  0  0  0  0  0  0
  154.3532  142.1722  161.9682 H   0  0  0  0  0  0  0  0  0  0  0  0
  152.0310  143.6990  162.6265 H   0  0  0  0  0  0  0  0  0  0  0  0
  153.5972  144.3918  162.1665 H   0  0  0  0  0  0  0  0  0  0  0  0
  148.2823  137.6928  152.9680 H   0  0  0  0  0  0  0  0  0  0  0  0
  1  2  1  0  0  0  0
  1 19  1  0  0  0  0
  1 20  1  0  0  0  0
  1 21  1  0  0  0  0
  2  3  1  0  0  0  0
  2  9  1  0  0  0  0
  2 22  1  0  0  0  0
  3  4  1  0  0  0  0
  3 23  1  0  0  0  0
  3 24  1  0  0  0  0
  4  8  1  0  0  0  0
  4  5  1  0  0  0  0
  5  6  2  0  0  0  0
  5 25  1  0  0  0  0
  6  7  1  0  0  0  0
  6 26  1  0  0  0  0
  7  8  2  0  0  0  0
  7 37  1  0  0  0  0
  8 27  1  0  0  0  0
  9 10  1  0  0  0  0
  9 28  1  0  0  0  0
 10 11  2  0  0  0  0
 10 12  1  0  0  0  0
 12 13  1  0  0  0  0
 12 29  1  0  0  0  0
 12 30  1  0  0  0  0
 13 17  1  0  0  0  0
 13 14  1  0  0  0  0
 14 15  1  0  0  0  0
 14 31  1  0  0  0  0
 14 32  1  0  0  0  0
 15 16  1  0  0  0  0
 15 33  1  0  0  0  0
 15 34  1  0  0  0  0
 16 17  1  0  0  0  0
 16 35  1  0  0  0  0
 16 36  1  0  0  0  0
 17 18  2  0  0  0  0
M  CHG  1   7   1
M  END
> <s_m_source_file>
AV-unprocessed.smi

> <i_m_source_file_index>
3301

> <i_lp_mmshare_version>
43012

> <i_f3d_flags>
0

> <s_epik_input>
W2NIXTFuW2NIXVtjSF1uMVtDSDJdW0NAQEhdKFtDSDNdKVtOSF1DKD1PKVtDSDJdTjJbQ0gyXVtDSDJdW0NIMl1DMj1P

> <s_epik_cmdline>
J2VwaWtfcHl0aG9uJywgJy1waCcsICc3LjAnLCAnLXRuJywgJzgnLCAnLW1hJywgJzIwMCcsICctbWV0YWxfYmluZGluZycsICctaW1hZScsICc8aW5maWxlLm1hZT4nLCAnLW9tYWUnLCAnPG91dGZpbGUubWFlPic=

> <r_lp_tautomer_probability>
1

> <r_epik_Ionization_Penalty>
0.254232

> <r_epik_Ionization_Penalty_Charging>
0

> <r_epik_Ionization_Penalty_Neutral>
0.254232

> <r_epik_State_Penalty>
0.245698

> <r_epik_Charging_Adjusted_Penalty>
0.245698

> <i_epik_Tot_Q>
1

> <i_epik_Tot_abs_Q>
1

> <r_epik_Metal_State_Penalty>
0.5358

> <b_epik_Metal_Only>
0

> <s_lp_Force_Field>
OPLS_2005

> <r_lp_Energy>
15.9577

> <b_lp_Chiralities_Consistent>
1

> <s_lp_Variant>
AV-unprocessed.smi:3301-2

> <Gold.Version>
5.8.1

> <Gold.Id.Protein>
6NUR|6NUR_protein|mol2

> <Gold.PLP.Fitness>
52.2827

> <Gold.PLP.PLP>
-43.9960

> <Gold.PLP.part.hbond>
-3.0000

> <Gold.PLP.part.metal>
0.0000

> <Gold.PLP.part.buried>
-1.1909

> <Gold.PLP.part.nonpolar>
-38.6595

> <Gold.PLP.part.repulsive>
0.2738

> <Gold.PLP.ligand.clash>
0.0000

> <Gold.PLP.ligand.torsion>
0.3560

> <Gold.PLP.Chemscore.Hbond>
2.9760

> <Gold.PLP.Chemscore.CHOScore>
0.0000

> <Gold.PLP.Chemscore.Metal>
0.0000

> <Gold.Chemscore.Hbonds>
donor molecule, donor type, donor heavy atom, donor atom, acceptor molecule, acceptor atom, score
      L1  H     7    37       P1  7948  2.00
      L1  H     9    28       P1  8028  0.81

> <Gold.PLP.Chemscore.Internal.Correction>
0.0706

> <Gold.Rescore>
     Score         DG    S(hbond)    S(metal)    S(lipo)     H(rot)  DE(clash)    DE(int)     intcor
     13.81     -14.62       1.82        0.00      77.45       2.35       0.35       0.46       ----

> <Gold.Chemscore.Fitness>
13.8070

> <Gold.Chemscore.DG>
-14.6214

> <Gold.Chemscore.ZeroCoef>
-5.4800

> <Gold.Chemscore.Hbond>
1.8229

> <Gold.Chemscore.Metal>
0.0000

> <Gold.Chemscore.Lipo>
77.4461

> <Gold.Chemscore.Internal_Hbond>
0.0000

> <Gold.Chemscore.DEClash>
0.3547

> <Gold.Chemscore.DEInternal>
0.4597

> <Gold.Chemscore.Rot>
2.3470

> <Gold.Chemscore.Internal.Correction>
   9.000000E+99

> <Gold.Chemscore.Hbonds>
donor molecule, donor type, donor heavy atom, donor atom, acceptor molecule, acceptor atom, score
      L1  H     7    37       P1  7948  0.97
      L1  H     9    28       P1  8028  0.77

> <Gold.Chemscore.Hbond.Weighted>
-6.0886

> <Gold.Chemscore.Metal.Weighted>
-0.0000

> <Gold.Chemscore.Lipo.Weighted>
-9.0612

> <Gold.Chemscore.Internal_Hbond.Weighted>
0.0000

> <Gold.Chemscore.DEClash.Weighted>
0.3547

> <Gold.Chemscore.DEInternal.Weighted>
0.4597

> <Gold.Chemscore.Rot.Weighted>
6.0083

> <Gold.Chemscore.Internal.Correction.Weighted>
   9.000000E+99

> <Gold.Protein.RotatedTorsions>
[ 6907 6896 6895 6894 ] final -179.84 input  -60.11 | X-H torsion
[ 7974 7965 7964 7962 ] final -165.53 input  175.53 | X-H torsion
[ 8008 7997 7996 7995 ] final   46.11 input   59.86 | X-H torsion
[ 10167 10162 10161 10158 ] final -121.03 input  -65.29 | X-H torsion
[ 10718 10713 10712 10709 ] final   57.38 input   66.30 | X-H torsion
[ 10763 10752 10751 10750 ] final  145.20 input  -60.55 | X-H torsion
[ 11005 11000 10999 10996 ] final  101.98 input  -57.11 | X-H torsion

> <Gold.Protein.ActiveResidues>
 VAL166  LYS551  ARG553  GLY616  TRP617  ASP618  TYR619  PRO620  LYS621  CYS622 
 ASP623  PHE694  ASN695  SER759  ASP760  ASP761  ALA762  ILE779  LEU786  VAL792 
 PHE793  MET794  SER795  GLU796  ALA797  LYS798  CYS799  TRP800  GLU811  SER814 

> <Gold.Protein.RotatedAtoms>
  151.6599  133.3317  159.3171 H   0  0  0  0  0  0  0  0  0  0  0  0  # atno 6907 bound_to 6896
  150.7918  134.6952  159.6528 H   0  0  0  0  0  0  0  0  0  0  0  0  # atno 6908 bound_to 6896
  152.3999  134.6307  160.0126 H   0  0  0  0  0  0  0  0  0  0  0  0  # atno 6909 bound_to 6896
  144.7268  140.2800  143.6237 H   0  0  0  0  0  0  0  0  0  0  0  0  # atno 7974 bound_to 7965
  155.3471  140.3411  155.4239 H   0  0  0  0  0  0  0  0  0  0  0  0  # atno 8008 bound_to 7997
  156.1783  140.1655  156.8357 H   0  0  0  0  0  0  0  0  0  0  0  0  # atno 8009 bound_to 7997
  154.5306  140.0746  156.8321 H   0  0  0  0  0  0  0  0  0  0  0  0  # atno 8010 bound_to 7997
  140.0295  143.5263  152.2183 H   0  0  0  0  0  0  0  0  0  0  0  0  # atno 10167 bound_to 10162
  157.5510  130.8765  149.8962 H   0  0  0  0  0  0  0  0  0  0  0  0  # atno 10718 bound_to 10713
  154.0014  135.2923  155.3402 H   0  0  0  0  0  0  0  0  0  0  0  0  # atno 10763 bound_to 10752
  154.7157  135.5130  153.8737 H   0  0  0  0  0  0  0  0  0  0  0  0  # atno 10764 bound_to 10752
  153.0764  135.6665  154.0255 H   0  0  0  0  0  0  0  0  0  0  0  0  # atno 10765 bound_to 10752
  139.8775  134.9205  156.4988 H   0  0  0  0  0  0  0  0  0  0  0  0  # atno 11005 bound_to 11000
  145.7958  139.1945  143.2076 LP  0  0  0  0  0  0  0  0  0  0  0  0  # atno 17320 bound_to 7965
  146.0718  140.7861  142.9684 LP  0  0  0  0  0  0  0  0  0  0  0  0  # atno 17321 bound_to 7965
  139.6086  144.7603  151.3005 LP  0  0  0  0  0  0  0  0  0  0  0  0  # atno 17342 bound_to 10162
  140.7308  143.6869  150.7954 LP  0  0  0  0  0  0  0  0  0  0  0  0  # atno 17343 bound_to 10162
  156.0576  130.3705  150.1055 LP  0  0  0  0  0  0  0  0  0  0  0  0  # atno 17370 bound_to 10713
  156.9228  130.9688  151.3546 LP  0  0  0  0  0  0  0  0  0  0  0  0  # atno 17371 bound_to 10713
  140.8604  133.8064  155.9260 LP  0  0  0  0  0  0  0  0  0  0  0  0  # atno 17394 bound_to 11000
  140.9055  134.2326  157.5017 LP  0  0  0  0  0  0  0  0  0  0  0  0  # atno 17395 bound_to 11000

$$$$
