AV-unprocessed.smi:751|AV-procd|sdf|3594|dock4
  -GOLD-   22720 0583D 1   1.00000     0.00000
 Structure written by MMmdl.
 32 33  0  0  0  0  0  0  0  0  1 V2000
  154.8578  138.7846  161.0027 N   0  0  0  0  0  0  0  0  0  0  0  0
  154.2589  139.7392  160.7407 C   0  0  0  0  0  0  0  0  0  0  0  0
  153.5045  140.9415  160.4109 C   0  0  0  0  0  0  0  0  0  0  0  0
  153.4197  141.9691  161.3726 C   0  0  0  0  0  0  0  0  0  0  0  0
  152.6955  143.1338  161.0709 C   0  0  0  0  0  0  0  0  0  0  0  0
  152.0802  143.2217  159.8077 C   0  0  0  0  0  0  0  0  0  0  0  0
  151.2765  144.4458  159.3923 C   0  0  0  0  0  0  0  0  0  0  0  0
  150.8167  144.3352  158.1453 F   0  0  0  0  0  0  0  0  0  0  0  0
  150.2371  144.5994  160.2133 F   0  0  0  0  0  0  0  0  0  0  0  0
  152.0446  145.5332  159.4637 F   0  0  0  0  0  0  0  0  0  0  0  0
  152.1643  142.2339  158.8902 N   0  0  0  0  0  0  0  0  0  0  0  0
  152.8591  141.0957  159.1530 C   0  0  0  0  0  0  0  0  0  0  0  0
  152.9131  140.0813  158.1504 N   0  0  0  0  0  0  0  0  0  0  0  0
  152.4182  138.7754  158.5741 C   0  0  0  0  0  0  0  0  0  0  0  0
  151.8176  138.6534  157.1756 C   0  0  0  0  0  0  0  0  0  0  0  0
  150.4905  138.1566  157.2072 O   0  0  0  0  0  0  0  0  0  0  0  0
  149.6226  138.8482  156.3227 C   0  0  0  0  0  0  0  0  0  0  0  0
  149.9263  138.4197  154.8877 C   0  0  0  0  0  0  0  0  0  0  0  0
  149.5853  137.1766  154.5368 N   0  0  0  0  0  0  0  0  0  0  0  0
  150.4481  139.2056  154.1000 O   0  0  0  0  0  0  0  0  0  0  0  0
  151.9091  140.1777  157.0943 C   0  0  0  0  0  0  0  0  0  0  0  0
  153.9035  141.8703  162.3340 H   0  0  0  0  0  0  0  0  0  0  0  0
  152.6198  143.9316  161.7948 H   0  0  0  0  0  0  0  0  0  0  0  0
  153.2086  138.0552  158.7859 H   0  0  0  0  0  0  0  0  0  0  0  0
  151.6670  138.8112  159.3646 H   0  0  0  0  0  0  0  0  0  0  0  0
  152.4767  138.1328  156.4772 H   0  0  0  0  0  0  0  0  0  0  0  0
  148.5788  138.6217  156.5453 H   0  0  0  0  0  0  0  0  0  0  0  0
  149.7611  139.9257  156.4253 H   0  0  0  0  0  0  0  0  0  0  0  0
  149.7624  136.8551  153.5958 H   0  0  0  0  0  0  0  0  0  0  0  0
  149.1467  136.5663  155.2107 H   0  0  0  0  0  0  0  0  0  0  0  0
  150.9835  140.6787  157.3816 H   0  0  0  0  0  0  0  0  0  0  0  0
  152.3036  140.5500  156.1486 H   0  0  0  0  0  0  0  0  0  0  0  0
  1  2  3  0  0  0  0
  2  3  1  0  0  0  0
  3 12  1  0  0  0  0
  3  4  2  0  0  0  0
  4  5  1  0  0  0  0
  4 22  1  0  0  0  0
  5  6  2  0  0  0  0
  5 23  1  0  0  0  0
  6  7  1  0  0  0  0
  6 11  1  0  0  0  0
  7  8  1  0  0  0  0
  7  9  1  0  0  0  0
  7 10  1  0  0  0  0
 11 12  2  0  0  0  0
 12 13  1  0  0  0  0
 13 21  1  0  0  0  0
 13 14  1  0  0  0  0
 14 15  1  0  0  0  0
 14 24  1  0  0  0  0
 14 25  1  0  0  0  0
 15 16  1  0  0  0  0
 15 21  1  0  0  0  0
 15 26  1  0  0  0  0
 16 17  1  0  0  0  0
 17 18  1  0  0  0  0
 17 27  1  0  0  0  0
 17 28  1  0  0  0  0
 18 19  1  0  0  0  0
 18 20  2  0  0  0  0
 19 29  1  0  0  0  0
 19 30  1  0  0  0  0
 21 31  1  0  0  0  0
 21 32  1  0  0  0  0
M  END
> <s_m_source_file>
AV-unprocessed.smi

> <i_m_source_file_index>
751

> <i_lp_mmshare_version>
43012

> <i_f3d_flags>
0

> <s_epik_input>
TiNDYzFbY0hdW2NIXWMoQyhGKShGKUYpbmMxTjJbQ0gyXVtDSF0oW0NIMl0yKU9bQ0gyXUMoPU8pW05IMl0=

> <s_epik_cmdline>
J2VwaWtfcHl0aG9uJywgJy1waCcsICc3LjAnLCAnLXRuJywgJzgnLCAnLW1hJywgJzIwMCcsICctbWV0YWxfYmluZGluZycsICctaW1hZScsICc8aW5maWxlLm1hZT4nLCAnLW9tYWUnLCAnPG91dGZpbGUubWFlPic=

> <r_lp_tautomer_probability>
1

> <r_epik_Ionization_Penalty>
6.47511e-08

> <r_epik_Ionization_Penalty_Charging>
0

> <r_epik_Ionization_Penalty_Neutral>
6.47511e-08

> <r_epik_State_Penalty>
-0

> <r_epik_Charging_Adjusted_Penalty>
0

> <i_epik_Tot_Q>
0

> <i_epik_Tot_abs_Q>
0

> <r_epik_Metal_State_Penalty>
-0

> <b_epik_Metal_Only>
0

> <s_lp_Force_Field>
OPLS_2005

> <r_lp_Energy>
25.0077

> <b_lp_Chiralities_Consistent>
1

> <s_lp_Variant>
AV-unprocessed.smi:751-1

> <Gold.Version>
5.8.1

> <Gold.Id.Protein>
6NUR|6NUR_protein|mol2

> <Gold.PLP.Fitness>
48.4253

> <Gold.PLP.PLP>
-40.8444

> <Gold.PLP.part.hbond>
-3.0000

> <Gold.PLP.part.metal>
0.0000

> <Gold.PLP.part.buried>
-5.7671

> <Gold.PLP.part.nonpolar>
-32.9122

> <Gold.PLP.part.repulsive>
0.5603

> <Gold.PLP.ligand.clash>
0.0000

> <Gold.PLP.ligand.torsion>
0.7881

> <Gold.PLP.Chemscore.Hbond>
2.9276

> <Gold.PLP.Chemscore.CHOScore>
0.0000

> <Gold.PLP.Chemscore.Metal>
0.0000

> <Gold.Chemscore.Hbonds>
donor molecule, donor type, donor heavy atom, donor atom, acceptor molecule, acceptor atom, score
      L1  H    19    29       P1  7948  0.96
      P1  H  7989  7998       L1    20  0.78
      P1  H  7997  8008       L1    13  0.95

> <Gold.PLP.Chemscore.Internal.Correction>
0.3744

> <Gold.Rescore>
     Score         DG    S(hbond)    S(metal)    S(lipo)     H(rot)  DE(clash)    DE(int)     intcor
     13.61     -15.08       2.34        0.00      71.87       2.59       0.66       0.81       ----

> <Gold.Chemscore.Fitness>
13.6054

> <Gold.Chemscore.DG>
-15.0832

> <Gold.Chemscore.ZeroCoef>
-5.4800

> <Gold.Chemscore.Hbond>
2.3418

> <Gold.Chemscore.Metal>
0.0000

> <Gold.Chemscore.Lipo>
71.8700

> <Gold.Chemscore.Internal_Hbond>
0.0000

> <Gold.Chemscore.DEClash>
0.6643

> <Gold.Chemscore.DEInternal>
0.8135

> <Gold.Chemscore.Rot>
2.5888

> <Gold.Chemscore.Internal.Correction>
   9.000000E+99

> <Gold.Chemscore.Hbonds>
donor molecule, donor type, donor heavy atom, donor atom, acceptor molecule, acceptor atom, score
      L1  H    19    29       P1  7948  0.50
      P1  H  7989  7998       L1    20  0.76
      P1  H  7997  8008       L1    13  0.17

> <Gold.Chemscore.Hbond.Weighted>
-7.8216

> <Gold.Chemscore.Metal.Weighted>
-0.0000

> <Gold.Chemscore.Lipo.Weighted>
-8.4088

> <Gold.Chemscore.Internal_Hbond.Weighted>
0.0000

> <Gold.Chemscore.DEClash.Weighted>
0.6643

> <Gold.Chemscore.DEInternal.Weighted>
0.8135

> <Gold.Chemscore.Rot.Weighted>
6.6272

> <Gold.Chemscore.Internal.Correction.Weighted>
   9.000000E+99

> <Gold.Protein.RotatedTorsions>
[ 6907 6896 6895 6894 ] final -114.12 input  -60.11 | X-H torsion
[ 7974 7965 7964 7962 ] final   59.57 input  175.53 | X-H torsion
[ 8008 7997 7996 7995 ] final  -83.63 input   59.86 | X-H torsion
[ 10167 10162 10161 10158 ] final  135.22 input  -65.29 | X-H torsion
[ 10718 10713 10712 10709 ] final  126.30 input   66.30 | X-H torsion
[ 10763 10752 10751 10750 ] final  101.23 input  -60.55 | X-H torsion
[ 11005 11000 10999 10996 ] final  155.56 input  -57.11 | X-H torsion

> <Gold.Protein.ActiveResidues>
 VAL166  LYS551  ARG553  GLY616  TRP617  ASP618  TYR619  PRO620  LYS621  CYS622 
 ASP623  PHE694  ASN695  SER759  ASP760  ASP761  ALA762  ILE779  LEU786  VAL792 
 PHE793  MET794  SER795  GLU796  ALA797  LYS798  CYS799  TRP800  GLU811  SER814 

> <Gold.Protein.RotatedAtoms>
  150.7879  133.8847  159.3295 H   0  0  0  0  0  0  0  0  0  0  0  0  # atno 6907 bound_to 6896
  151.6692  135.0976  160.0204 H   0  0  0  0  0  0  0  0  0  0  0  0  # atno 6908 bound_to 6896
  152.3947  133.6690  159.6301 H   0  0  0  0  0  0  0  0  0  0  0  0  # atno 6909 bound_to 6896
  145.9057  139.3615  143.0566 H   0  0  0  0  0  0  0  0  0  0  0  0  # atno 7974 bound_to 7965
  154.6212  140.0616  156.9617 H   0  0  0  0  0  0  0  0  0  0  0  0  # atno 8008 bound_to 7997
  155.1815  140.3299  155.4356 H   0  0  0  0  0  0  0  0  0  0  0  0  # atno 8009 bound_to 7997
  156.2432  140.1897  156.6911 H   0  0  0  0  0  0  0  0  0  0  0  0  # atno 8010 bound_to 7997
  139.5226  144.6528  151.5251 H   0  0  0  0  0  0  0  0  0  0  0  0  # atno 10167 bound_to 10162
  157.5431  131.1096  150.8826 H   0  0  0  0  0  0  0  0  0  0  0  0  # atno 10718 bound_to 10713
  153.3240  135.4051  155.1441 H   0  0  0  0  0  0  0  0  0  0  0  0  # atno 10763 bound_to 10752
  154.8607  135.3594  154.5558 H   0  0  0  0  0  0  0  0  0  0  0  0  # atno 10764 bound_to 10752
  153.5993  135.7071  153.5450 H   0  0  0  0  0  0  0  0  0  0  0  0  # atno 10765 bound_to 10752
  140.1592  134.8621  157.2553 H   0  0  0  0  0  0  0  0  0  0  0  0  # atno 11005 bound_to 11000
  145.8735  140.9406  143.0638 LP  0  0  0  0  0  0  0  0  0  0  0  0  # atno 17320 bound_to 7965
  144.6739  140.0686  143.7473 LP  0  0  0  0  0  0  0  0  0  0  0  0  # atno 17321 bound_to 7965
  140.6340  143.9020  150.6631 LP  0  0  0  0  0  0  0  0  0  0  0  0  # atno 17342 bound_to 10162
  140.2333  143.3719  152.1547 LP  0  0  0  0  0  0  0  0  0  0  0  0  # atno 17343 bound_to 10162
  156.9373  130.5372  149.5279 LP  0  0  0  0  0  0  0  0  0  0  0  0  # atno 17370 bound_to 10713
  156.0513  130.5582  150.8995 LP  0  0  0  0  0  0  0  0  0  0  0  0  # atno 17371 bound_to 10713
  140.2510  134.3683  155.7442 LP  0  0  0  0  0  0  0  0  0  0  0  0  # atno 17394 bound_to 11000
  141.2207  133.7316  156.8935 LP  0  0  0  0  0  0  0  0  0  0  0  0  # atno 17395 bound_to 11000

$$$$
