AV-unprocessed.smi:3227|AV-procd|sdf|12317|dock10
  -GOLD-   2272018163D 1   1.00000     0.00000
 Structure written by MMmdl.
 37 38  0  0  0  0  0  0  0  0  1 V2000
  151.1813  137.7843  160.2584 C   0  0  0  0  0  0  0  0  0  0  0  0
  152.5792  138.1364  160.4644 N   0  0  0  0  0  0  0  0  0  0  0  0
  153.1432  137.7944  161.7642 C   0  0  0  0  0  0  0  0  0  0  0  0
  152.9069  139.4095  159.9562 C   0  0  0  0  0  0  0  0  0  0  0  0
  153.2260  140.3712  160.8572 N   0  0  0  0  0  0  0  0  0  0  0  0
  153.5263  141.6081  160.4125 C   0  0  0  0  0  0  0  0  0  0  0  0
  153.5322  141.9547  159.0503 C   0  0  0  0  0  0  0  0  0  0  0  0
  153.2054  140.9636  158.1077 C   0  0  0  0  0  0  0  0  0  0  0  0
  152.8723  139.6627  158.5579 C   0  0  0  0  0  0  0  0  0  0  0  0
  152.5771  138.5978  157.6591 N   0  0  0  0  0  0  0  0  0  0  0  0
  152.1681  138.6734  156.3797 C   0  0  0  0  0  0  0  0  0  0  0  0
  151.9587  139.7232  155.7726 O   0  0  0  0  0  0  0  0  0  0  0  0
  151.9277  137.3399  155.6751 C   0  0  0  0  0  0  0  0  0  0  0  0
  151.4946  137.6002  154.3504 O   0  0  0  0  0  0  0  0  0  0  0  0
  152.5305  137.4351  153.3979 C   0  0  0  0  0  0  0  0  0  0  0  0
  153.0161  136.0020  153.4387 C   0  0  0  0  0  0  0  0  0  0  0  0
  152.4914  134.9786  152.4571 C   0  0  0  0  0  0  0  0  0  0  0  0
  152.0943  134.8994  153.9089 C   0  0  0  0  0  0  0  0  0  0  0  0
  150.9103  137.8196  159.2033 H   0  0  0  0  0  0  0  0  0  0  0  0
  150.5311  138.4709  160.8018 H   0  0  0  0  0  0  0  0  0  0  0  0
  150.9858  136.7742  160.6190 H   0  0  0  0  0  0  0  0  0  0  0  0
  154.1924  138.0864  161.8236 H   0  0  0  0  0  0  0  0  0  0  0  0
  153.0862  136.7180  161.9275 H   0  0  0  0  0  0  0  0  0  0  0  0
  152.5981  138.2901  162.5681 H   0  0  0  0  0  0  0  0  0  0  0  0
  153.7756  142.3415  161.1650 H   0  0  0  0  0  0  0  0  0  0  0  0
  153.7901  142.9548  158.7350 H   0  0  0  0  0  0  0  0  0  0  0  0
  153.2352  141.2126  157.0581 H   0  0  0  0  0  0  0  0  0  0  0  0
  152.6024  137.6724  158.0626 H   0  0  0  0  0  0  0  0  0  0  0  0
  152.8582  136.7702  155.6682 H   0  0  0  0  0  0  0  0  0  0  0  0
  151.1803  136.7507  156.2101 H   0  0  0  0  0  0  0  0  0  0  0  0
  152.1609  137.6540  152.3951 H   0  0  0  0  0  0  0  0  0  0  0  0
  153.3588  138.1140  153.6072 H   0  0  0  0  0  0  0  0  0  0  0  0
  154.0591  135.8995  153.7324 H   0  0  0  0  0  0  0  0  0  0  0  0
  151.7330  135.2995  151.7458 H   0  0  0  0  0  0  0  0  0  0  0  0
  153.1935  134.2348  152.0858 H   0  0  0  0  0  0  0  0  0  0  0  0
  152.5302  134.1015  154.5070 H   0  0  0  0  0  0  0  0  0  0  0  0
  151.0703  135.1665  154.1632 H   0  0  0  0  0  0  0  0  0  0  0  0
  1  2  1  0  0  0  0
  1 19  1  0  0  0  0
  1 20  1  0  0  0  0
  1 21  1  0  0  0  0
  2  3  1  0  0  0  0
  2  4  1  0  0  0  0
  3 22  1  0  0  0  0
  3 23  1  0  0  0  0
  3 24  1  0  0  0  0
  4  9  1  0  0  0  0
  4  5  2  0  0  0  0
  5  6  1  0  0  0  0
  6  7  2  0  0  0  0
  6 25  1  0  0  0  0
  7  8  1  0  0  0  0
  7 26  1  0  0  0  0
  8  9  2  0  0  0  0
  8 27  1  0  0  0  0
  9 10  1  0  0  0  0
 10 11  1  0  0  0  0
 10 28  1  0  0  0  0
 11 12  2  0  0  0  0
 11 13  1  0  0  0  0
 13 14  1  0  0  0  0
 13 29  1  0  0  0  0
 13 30  1  0  0  0  0
 14 15  1  0  0  0  0
 15 16  1  0  0  0  0
 15 31  1  0  0  0  0
 15 32  1  0  0  0  0
 16 18  1  0  0  0  0
 16 17  1  0  0  0  0
 16 33  1  0  0  0  0
 17 18  1  0  0  0  0
 17 34  1  0  0  0  0
 17 35  1  0  0  0  0
 18 36  1  0  0  0  0
 18 37  1  0  0  0  0
M  END
> <s_m_source_file>
AV-unprocessed.smi

> <i_m_source_file_index>
3227

> <i_lp_mmshare_version>
43012

> <i_f3d_flags>
0

> <s_epik_input>
W0NIM11OKFtDSDNdKWMxbltjSF1bY0hdW2NIXWMxW05IXUMoPU8pW0NIMl1PW0NIMl1bQ0hdMltDSDJdW0NIMl0y

> <s_epik_cmdline>
J2VwaWtfcHl0aG9uJywgJy1waCcsICc3LjAnLCAnLXRuJywgJzgnLCAnLW1hJywgJzIwMCcsICctbWV0YWxfYmluZGluZycsICctaW1hZScsICc8aW5maWxlLm1hZT4nLCAnLW9tYWUnLCAnPG91dGZpbGUubWFlPic=

> <r_lp_tautomer_probability>
1

> <r_epik_Ionization_Penalty>
0.25353

> <r_epik_Ionization_Penalty_Charging>
0

> <r_epik_Ionization_Penalty_Neutral>
0.25353

> <r_epik_State_Penalty>
0.244789

> <r_epik_Charging_Adjusted_Penalty>
0.244789

> <i_epik_Tot_Q>
0

> <i_epik_Tot_abs_Q>
0

> <r_epik_Metal_State_Penalty>
0.170372

> <b_epik_Metal_Only>
0

> <s_lp_Force_Field>
OPLS_2005

> <r_lp_Energy>
22.5303

> <b_lp_Chiralities_Consistent>
1

> <s_lp_Variant>
AV-unprocessed.smi:3227-1

> <Gold.Version>
5.8.1

> <Gold.Id.Protein>
6NUR|6NUR_protein|mol2

> <Gold.PLP.Fitness>
44.0876

> <Gold.PLP.PLP>
-40.8352

> <Gold.PLP.part.hbond>
-1.6292

> <Gold.PLP.part.metal>
0.0000

> <Gold.PLP.part.buried>
-3.1176

> <Gold.PLP.part.nonpolar>
-33.6119

> <Gold.PLP.part.repulsive>
0.1774

> <Gold.PLP.ligand.clash>
0.0000

> <Gold.PLP.ligand.torsion>
1.2573

> <Gold.PLP.Chemscore.Hbond>
1.6338

> <Gold.PLP.Chemscore.CHOScore>
0.0000

> <Gold.PLP.Chemscore.Metal>
0.0000

> <Gold.PLP.Chemscore.Internal.Correction>
0.8657

> <Gold.Rescore>
     Score         DG    S(hbond)    S(metal)    S(lipo)     H(rot)  DE(clash)    DE(int)     intcor
     11.41     -14.55       0.65        0.00      95.70       1.68       0.81       2.33       ----

> <Gold.Chemscore.Fitness>
11.4130

> <Gold.Chemscore.DG>
-14.5521

> <Gold.Chemscore.ZeroCoef>
-5.4800

> <Gold.Chemscore.Hbond>
0.6492

> <Gold.Chemscore.Metal>
0.0000

> <Gold.Chemscore.Lipo>
95.7033

> <Gold.Chemscore.Internal_Hbond>
0.0000

> <Gold.Chemscore.DEClash>
0.8053

> <Gold.Chemscore.DEInternal>
2.3338

> <Gold.Chemscore.Rot>
1.6771

> <Gold.Chemscore.Internal.Correction>
   9.000000E+99

> <Gold.Chemscore.Hbond.Weighted>
-2.1683

> <Gold.Chemscore.Metal.Weighted>
-0.0000

> <Gold.Chemscore.Lipo.Weighted>
-11.1973

> <Gold.Chemscore.Internal_Hbond.Weighted>
0.0000

> <Gold.Chemscore.DEClash.Weighted>
0.8053

> <Gold.Chemscore.DEInternal.Weighted>
2.3338

> <Gold.Chemscore.Rot.Weighted>
4.2935

> <Gold.Chemscore.Internal.Correction.Weighted>
   9.000000E+99

> <Gold.Protein.RotatedTorsions>
[ 6907 6896 6895 6894 ] final -106.94 input  -60.11 | X-H torsion
[ 7974 7965 7964 7962 ] final  -64.66 input  175.53 | X-H torsion
[ 8008 7997 7996 7995 ] final  -40.99 input   59.86 | X-H torsion
[ 10167 10162 10161 10158 ] final   48.86 input  -65.29 | X-H torsion
[ 10718 10713 10712 10709 ] final  176.23 input   66.30 | X-H torsion
[ 10763 10752 10751 10750 ] final -179.40 input  -60.55 | X-H torsion
[ 11005 11000 10999 10996 ] final  106.28 input  -57.11 | X-H torsion

> <Gold.Protein.ActiveResidues>
 VAL166  LYS551  ARG553  GLY616  TRP617  ASP618  TYR619  PRO620  LYS621  CYS622 
 ASP623  PHE694  ASN695  SER759  ASP760  ASP761  ALA762  ILE779  LEU786  VAL792 
 PHE793  MET794  SER795  GLU796  ALA797  LYS798  CYS799  TRP800  GLU811  SER814 

> <Gold.Protein.RotatedAtoms>
  150.7416  133.9901  159.3603 H   0  0  0  0  0  0  0  0  0  0  0  0  # atno 6907 bound_to 6896
  151.7848  135.0750  160.0388 H   0  0  0  0  0  0  0  0  0  0  0  0  # atno 6908 bound_to 6896
  152.3249  133.5857  159.5806 H   0  0  0  0  0  0  0  0  0  0  0  0  # atno 6909 bound_to 6896
  145.7639  140.8847  143.0415 H   0  0  0  0  0  0  0  0  0  0  0  0  # atno 7974 bound_to 7965
  154.4007  140.1511  156.3117 H   0  0  0  0  0  0  0  0  0  0  0  0  # atno 8008 bound_to 7997
  155.8609  140.3453  155.5734 H   0  0  0  0  0  0  0  0  0  0  0  0  # atno 8009 bound_to 7997
  155.7881  140.0853  157.2014 H   0  0  0  0  0  0  0  0  0  0  0  0  # atno 8010 bound_to 7997
  140.2888  144.3070  150.6245 H   0  0  0  0  0  0  0  0  0  0  0  0  # atno 10167 bound_to 10162
  156.9231  130.9947  151.3001 H   0  0  0  0  0  0  0  0  0  0  0  0  # atno 10718 bound_to 10713
  154.5356  135.2802  155.1141 H   0  0  0  0  0  0  0  0  0  0  0  0  # atno 10763 bound_to 10752
  154.2644  135.6315  153.5290 H   0  0  0  0  0  0  0  0  0  0  0  0  # atno 10764 bound_to 10752
  152.9967  135.5613  154.5881 H   0  0  0  0  0  0  0  0  0  0  0  0  # atno 10765 bound_to 10752
  139.8812  134.9364  156.5643 H   0  0  0  0  0  0  0  0  0  0  0  0  # atno 11005 bound_to 11000
  144.6825  139.9762  143.7483 LP  0  0  0  0  0  0  0  0  0  0  0  0  # atno 17320 bound_to 7965
  146.0236  139.3273  143.0798 LP  0  0  0  0  0  0  0  0  0  0  0  0  # atno 17321 bound_to 7965
  140.5749  143.2177  151.7532 LP  0  0  0  0  0  0  0  0  0  0  0  0  # atno 17342 bound_to 10162
  139.4943  144.4163  152.0026 LP  0  0  0  0  0  0  0  0  0  0  0  0  # atno 17343 bound_to 10162
  157.5895  130.8433  149.8638 LP  0  0  0  0  0  0  0  0  0  0  0  0  # atno 17370 bound_to 10713
  156.0481  130.3723  150.1267 LP  0  0  0  0  0  0  0  0  0  0  0  0  # atno 17371 bound_to 10713
  140.8146  133.8402  155.8840 LP  0  0  0  0  0  0  0  0  0  0  0  0  # atno 17394 bound_to 11000
  140.9475  134.1822  157.4753 LP  0  0  0  0  0  0  0  0  0  0  0  0  # atno 17395 bound_to 11000

$$$$
