AV-unprocessed.smi:2462|AV-procd|sdf|9718|dock9
  -GOLD-   2272013363D 1   1.00000     0.00000
 Structure written by MMmdl.
 40 41  0  0  0  0  0  0  0  0  1 V2000
  147.5654  137.9279  154.6041 C   0  0  0  0  0  0  0  0  0  0  0  0
  148.4895  139.0970  154.8960 C   0  0  0  0  0  0  0  0  0  0  0  0
  147.8573  140.2951  155.2380 N   0  0  0  0  0  0  0  0  0  0  0  0
  148.5652  141.3390  155.5215 C   0  0  0  0  0  0  0  0  0  0  0  0
  149.9715  141.3098  155.4999 N   0  0  0  0  0  0  0  0  0  0  0  0
  150.6665  142.5655  155.8513 C   0  0  0  0  0  0  0  0  0  0  0  0
  150.9322  142.7688  157.3736 C   0  0  1  0  0  0  0  0  0  0  0  0
  149.7005  143.1326  157.9697 O   0  0  0  0  0  0  0  0  0  0  0  0
  151.3437  141.4174  158.0073 C   0  0  0  0  0  0  0  0  0  0  0  0
  151.6877  141.5232  159.5043 C   0  0  0  0  0  0  0  0  0  0  0  0
  152.7730  142.5824  159.7625 C   0  0  2  0  0  0  0  0  0  0  0  0
  153.1217  142.6790  161.2543 C   0  0  0  0  0  0  0  0  0  0  0  0
  152.3276  143.9420  159.1977 C   0  0  0  0  0  0  0  0  0  0  0  0
  151.9905  143.8538  157.6986 C   0  0  0  0  0  0  0  0  0  0  0  0
  150.6646  140.1917  155.1354 C   0  0  0  0  0  0  0  0  0  0  0  0
  151.8946  140.1842  155.0655 O   0  0  0  0  0  0  0  0  0  0  0  0
  149.8459  139.0059  154.8350 C   0  0  0  0  0  0  0  0  0  0  0  0
  150.5890  137.7269  154.4696 C   0  0  0  0  0  0  0  0  0  0  0  0
  147.7341  137.5484  153.5960 H   0  0  0  0  0  0  0  0  0  0  0  0
  146.5174  138.2211  154.6790 H   0  0  0  0  0  0  0  0  0  0  0  0
  147.7377  137.1199  155.3156 H   0  0  0  0  0  0  0  0  0  0  0  0
  148.1183  142.2949  155.7997 H   0  0  0  0  0  0  0  0  0  0  0  0
  151.6004  142.6505  155.2920 H   0  0  0  0  0  0  0  0  0  0  0  0
  150.0774  143.4081  155.4839 H   0  0  0  0  0  0  0  0  0  0  0  0
  149.3284  143.8475  157.4763 H   0  0  0  0  0  0  0  0  0  0  0  0
  150.5544  140.6776  157.8649 H   0  0  0  0  0  0  0  0  0  0  0  0
  152.2179  141.0261  157.4848 H   0  0  0  0  0  0  0  0  0  0  0  0
  150.7897  141.7653  160.0743 H   0  0  0  0  0  0  0  0  0  0  0  0
  152.0243  140.5513  159.8665 H   0  0  0  0  0  0  0  0  0  0  0  0
  153.6766  142.2766  159.2328 H   0  0  0  0  0  0  0  0  0  0  0  0
  152.2563  142.9793  161.8459 H   0  0  0  0  0  0  0  0  0  0  0  0
  153.9124  143.4099  161.4265 H   0  0  0  0  0  0  0  0  0  0  0  0
  153.4710  141.7202  161.6384 H   0  0  0  0  0  0  0  0  0  0  0  0
  151.4600  144.3064  159.7494 H   0  0  0  0  0  0  0  0  0  0  0  0
  153.1151  144.6816  159.3466 H   0  0  0  0  0  0  0  0  0  0  0  0
  152.9079  143.6356  157.1507 H   0  0  0  0  0  0  0  0  0  0  0  0
  151.6541  144.8329  157.3554 H   0  0  0  0  0  0  0  0  0  0  0  0
  151.2720  137.4462  155.2724 H   0  0  0  0  0  0  0  0  0  0  0  0
  151.1766  137.8796  153.5636 H   0  0  0  0  0  0  0  0  0  0  0  0
  149.9275  136.8801  154.2942 H   0  0  0  0  0  0  0  0  0  0  0  0
  1  2  1  0  0  0  0
  1 19  1  0  0  0  0
  1 20  1  0  0  0  0
  1 21  1  0  0  0  0
  2 17  2  0  0  0  0
  2  3  1  0  0  0  0
  3  4  2  0  0  0  0
  4  5  1  0  0  0  0
  4 22  1  0  0  0  0
  5  6  1  0  0  0  0
  5 15  1  0  0  0  0
  6  7  1  0  0  0  0
  6 23  1  0  0  0  0
  6 24  1  0  0  0  0
  7 14  1  0  0  0  0
  7  8  1  0  0  0  0
  7  9  1  0  0  0  0
  8 25  1  0  0  0  0
  9 10  1  0  0  0  0
  9 26  1  0  0  0  0
  9 27  1  0  0  0  0
 10 11  1  0  0  0  0
 10 28  1  0  0  0  0
 10 29  1  0  0  0  0
 11 12  1  0  0  0  0
 11 13  1  0  0  0  0
 11 30  1  0  0  0  0
 12 31  1  0  0  0  0
 12 32  1  0  0  0  0
 12 33  1  0  0  0  0
 13 14  1  0  0  0  0
 13 34  1  0  0  0  0
 13 35  1  0  0  0  0
 14 36  1  0  0  0  0
 14 37  1  0  0  0  0
 15 16  2  0  0  0  0
 15 17  1  0  0  0  0
 17 18  1  0  0  0  0
 18 38  1  0  0  0  0
 18 39  1  0  0  0  0
 18 40  1  0  0  0  0
M  END
> <s_m_source_file>
AV-unprocessed.smi

> <i_m_source_file_index>
2462

> <i_lp_mmshare_version>
43012

> <i_f3d_flags>
0

> <s_epik_input>
W0NIM11jMW5bY0hdbihjKD1PKWMxW0NIM10pW0NIMl1bQ0BAXTIoW09IXSlbQ0gyXVtDSDJdW0NAQEhdKFtDSDNdKVtDSDJdW0NIMl0y

> <s_epik_cmdline>
J2VwaWtfcHl0aG9uJywgJy1waCcsICc3LjAnLCAnLXRuJywgJzgnLCAnLW1hJywgJzIwMCcsICctbWV0YWxfYmluZGluZycsICctaW1hZScsICc8aW5maWxlLm1hZT4nLCAnLW9tYWUnLCAnPG91dGZpbGUubWFlPic=

> <r_lp_tautomer_probability>
1

> <r_epik_Ionization_Penalty>
0.000179745

> <r_epik_Ionization_Penalty_Charging>
2.35483e-07

> <r_epik_Ionization_Penalty_Neutral>
0.00017951

> <r_epik_State_Penalty>
-0

> <r_epik_Charging_Adjusted_Penalty>
2.35483e-07

> <i_epik_Tot_Q>
0

> <i_epik_Tot_abs_Q>
0

> <r_epik_Metal_State_Penalty>
-0

> <b_epik_Metal_Only>
0

> <s_lp_Force_Field>
OPLS_2005

> <r_lp_Energy>
24.8563

> <b_lp_Chiralities_Consistent>
1

> <s_lp_Variant>
AV-unprocessed.smi:2462-2

> <Gold.Version>
5.8.1

> <Gold.Id.Protein>
6NUR|6NUR_protein|mol2

> <Gold.PLP.Fitness>
40.4947

> <Gold.PLP.PLP>
-35.0079

> <Gold.PLP.part.hbond>
-2.0000

> <Gold.PLP.part.metal>
0.0000

> <Gold.PLP.part.buried>
0.0952

> <Gold.PLP.part.nonpolar>
-33.1020

> <Gold.PLP.part.repulsive>
0.0904

> <Gold.PLP.ligand.clash>
0.0000

> <Gold.PLP.ligand.torsion>
0.5824

> <Gold.PLP.Chemscore.Hbond>
1.2040

> <Gold.PLP.Chemscore.CHOScore>
0.9930

> <Gold.PLP.Chemscore.Metal>
0.0000

> <Gold.Chemscore.Hbonds>
donor molecule, donor type, donor heavy atom, donor atom, acceptor molecule, acceptor atom, score
      L1  H     8    25       P1  8028  0.98
      P1  H  7989  7998       L1    16  0.21
      L1  C     4    22       P1  8028  0.99

> <Gold.PLP.Chemscore.Internal.Correction>
0.0608

> <Gold.Rescore>
     Score         DG    S(hbond)    S(metal)    S(lipo)     H(rot)  DE(clash)    DE(int)     intcor
     12.61     -15.74       0.93        0.00      97.92       1.68       2.63       0.50       ----

> <Gold.Chemscore.Fitness>
12.6094

> <Gold.Chemscore.DG>
-15.7409

> <Gold.Chemscore.ZeroCoef>
-5.4800

> <Gold.Chemscore.Hbond>
0.9265

> <Gold.Chemscore.Metal>
0.0000

> <Gold.Chemscore.Lipo>
97.9167

> <Gold.Chemscore.Internal_Hbond>
0.0000

> <Gold.Chemscore.DEClash>
2.6331

> <Gold.Chemscore.DEInternal>
0.4984

> <Gold.Chemscore.Rot>
1.6758

> <Gold.Chemscore.Internal.Correction>
   9.000000E+99

> <Gold.Chemscore.Hbonds>
donor molecule, donor type, donor heavy atom, donor atom, acceptor molecule, acceptor atom, score
      L1  H     8    25       P1  8028  0.26

> <Gold.Chemscore.Hbond.Weighted>
-3.0946

> <Gold.Chemscore.Metal.Weighted>
-0.0000

> <Gold.Chemscore.Lipo.Weighted>
-11.4563

> <Gold.Chemscore.Internal_Hbond.Weighted>
0.0000

> <Gold.Chemscore.DEClash.Weighted>
2.6331

> <Gold.Chemscore.DEInternal.Weighted>
0.4984

> <Gold.Chemscore.Rot.Weighted>
4.2899

> <Gold.Chemscore.Internal.Correction.Weighted>
   9.000000E+99

> <Gold.Protein.RotatedTorsions>
[ 6907 6896 6895 6894 ] final  -53.21 input  -60.11 | X-H torsion
[ 7974 7965 7964 7962 ] final    6.59 input  175.53 | X-H torsion
[ 8008 7997 7996 7995 ] final  167.09 input   59.86 | X-H torsion
[ 10167 10162 10161 10158 ] final  -88.44 input  -65.29 | X-H torsion
[ 10718 10713 10712 10709 ] final   96.09 input   66.30 | X-H torsion
[ 10763 10752 10751 10750 ] final   23.61 input  -60.55 | X-H torsion
[ 11005 11000 10999 10996 ] final  154.20 input  -57.11 | X-H torsion

> <Gold.Protein.ActiveResidues>
 VAL166  LYS551  ARG553  GLY616  TRP617  ASP618  TYR619  PRO620  LYS621  CYS622 
 ASP623  PHE694  ASN695  SER759  ASP760  ASP761  ALA762  ILE779  LEU786  VAL792 
 PHE793  MET794  SER795  GLU796  ALA797  LYS798  CYS799  TRP800  GLU811  SER814 

> <Gold.Protein.RotatedAtoms>
  150.8448  134.7752  159.6960 H   0  0  0  0  0  0  0  0  0  0  0  0  # atno 6907 bound_to 6896
  152.4527  134.5356  159.9833 H   0  0  0  0  0  0  0  0  0  0  0  0  # atno 6908 bound_to 6896
  151.5488  133.3383  159.2985 H   0  0  0  0  0  0  0  0  0  0  0  0  # atno 6909 bound_to 6896
  146.2433  140.0211  142.8398 H   0  0  0  0  0  0  0  0  0  0  0  0  # atno 7974 bound_to 7965
  156.1663  140.1626  156.8525 H   0  0  0  0  0  0  0  0  0  0  0  0  # atno 8008 bound_to 7997
  154.5211  140.0778  156.8208 H   0  0  0  0  0  0  0  0  0  0  0  0  # atno 8009 bound_to 7997
  155.3605  140.3395  155.4243 H   0  0  0  0  0  0  0  0  0  0  0  0  # atno 8010 bound_to 7997
  140.3746  143.2777  151.9458 H   0  0  0  0  0  0  0  0  0  0  0  0  # atno 10167 bound_to 10162
  157.6931  131.0567  150.4438 H   0  0  0  0  0  0  0  0  0  0  0  0  # atno 10718 bound_to 10713
  153.0825  135.6623  154.0015 H   0  0  0  0  0  0  0  0  0  0  0  0  # atno 10763 bound_to 10752
  153.9633  135.2972  155.3433 H   0  0  0  0  0  0  0  0  0  0  0  0  # atno 10764 bound_to 10752
  154.7228  135.5157  153.8910 H   0  0  0  0  0  0  0  0  0  0  0  0  # atno 10765 bound_to 10752
  140.1467  134.8702  157.2402 H   0  0  0  0  0  0  0  0  0  0  0  0  # atno 11005 bound_to 11000
  145.1240  140.9479  143.4583 LP  0  0  0  0  0  0  0  0  0  0  0  0  # atno 17320 bound_to 7965
  145.0453  139.3226  143.5956 LP  0  0  0  0  0  0  0  0  0  0  0  0  # atno 17321 bound_to 7965
  139.4800  144.5875  151.7829 LP  0  0  0  0  0  0  0  0  0  0  0  0  # atno 17342 bound_to 10162
  140.4998  144.1185  150.5968 LP  0  0  0  0  0  0  0  0  0  0  0  0  # atno 17343 bound_to 10162
  156.4795  130.4070  149.6470 LP  0  0  0  0  0  0  0  0  0  0  0  0  # atno 17370 bound_to 10713
  156.3521  130.7437  151.2398 LP  0  0  0  0  0  0  0  0  0  0  0  0  # atno 17371 bound_to 10713
  140.2655  134.3521  155.7391 LP  0  0  0  0  0  0  0  0  0  0  0  0  # atno 17394 bound_to 11000
  141.2193  133.7393  156.9144 LP  0  0  0  0  0  0  0  0  0  0  0  0  # atno 17395 bound_to 11000

$$$$
