AV-unprocessed.smi:2568|AV-procd|sdf|10101|dock7
  -GOLD-   2272014113D 1   1.00000     0.00000
 Structure written by MMmdl.
 23 24  0  0  0  0  0  0  0  0  2 V2000
  153.7689  140.1900  160.2236 C   0  0  0  0  0  0  0  0  0  0  0  0
  153.0940  139.9708  158.8893 C   0  0  0  0  0  0  0  0  0  0  0  0
  153.6039  139.2875  157.8496 N   0  5  0  0  0  0  0  0  0  0  0  0
  152.7480  139.2976  156.8479 N   0  0  0  0  0  0  0  0  0  0  0  0
  151.6969  140.0109  157.2818 C   0  0  0  0  0  0  0  0  0  0  0  0
  150.4399  140.2627  156.4721 C   0  0  1  0  0  0  0  0  0  0  0  0
  150.1196  141.7694  156.3993 C   0  0  0  0  0  0  0  0  0  0  0  0
  148.9104  142.0030  155.6092 N   0  0  0  0  0  0  0  0  0  0  0  0
  149.0199  141.4005  154.2825 C   0  0  0  0  0  0  0  0  0  0  0  0
  149.3617  139.9057  154.4026 C   0  0  0  0  0  0  0  0  0  0  0  0
  150.5656  139.7535  155.1456 O   0  0  0  0  0  0  0  0  0  0  0  0
  151.8925  140.4214  158.5440 N   0  0  0  0  0  0  0  0  0  0  0  0
  154.7260  139.6695  160.2615 H   0  0  0  0  0  0  0  0  0  0  0  0
  153.1398  139.8167  161.0315 H   0  0  0  0  0  0  0  0  0  0  0  0
  153.9465  141.2532  160.3850 H   0  0  0  0  0  0  0  0  0  0  0  0
  149.6241  139.7380  156.9734 H   0  0  0  0  0  0  0  0  0  0  0  0
  149.9896  142.1725  157.4039 H   0  0  0  0  0  0  0  0  0  0  0  0
  150.9614  142.3021  155.9548 H   0  0  0  0  0  0  0  0  0  0  0  0
  148.7536  143.0013  155.5180 H   0  0  0  0  0  0  0  0  0  0  0  0
  148.0861  141.5290  153.7350 H   0  0  0  0  0  0  0  0  0  0  0  0
  149.7947  141.9079  153.7065 H   0  0  0  0  0  0  0  0  0  0  0  0
  148.5499  139.3538  154.8794 H   0  0  0  0  0  0  0  0  0  0  0  0
  149.5019  139.4726  153.4122 H   0  0  0  0  0  0  0  0  0  0  0  0
  1 13  1  0  0  0  0
  1 14  1  0  0  0  0
  1 15  1  0  0  0  0
  1  2  1  0  0  0  0
  2 12  2  0  0  0  0
  2  3  1  0  0  0  0
  3  4  1  0  0  0  0
  4  5  2  0  0  0  0
  5 12  1  0  0  0  0
  5  6  1  0  0  0  0
  6 11  1  0  0  0  0
  6  7  1  0  0  0  0
  6 16  1  0  0  0  0
  7  8  1  0  0  0  0
  7 17  1  0  0  0  0
  7 18  1  0  0  0  0
  8  9  1  0  0  0  0
  8 19  1  0  0  0  0
  9 10  1  0  0  0  0
  9 20  1  0  0  0  0
  9 21  1  0  0  0  0
 10 11  1  0  0  0  0
 10 22  1  0  0  0  0
 10 23  1  0  0  0  0
M  CHG  1   3  -1
M  END
> <s_m_source_file>
AV-unprocessed.smi

> <i_m_source_file_index>
2568

> <i_lp_mmshare_version>
43012

> <i_f3d_flags>
0

> <s_epik_input>
W0NIM11jMW5bbkhdYyhuMSlbQ0BASF0yW0NIMl1bTkhdW0NIMl1bQ0gyXU8y

> <s_epik_cmdline>
J2VwaWtfcHl0aG9uJywgJy1waCcsICc3LjAnLCAnLXRuJywgJzgnLCAnLW1hJywgJzIwMCcsICctbWV0YWxfYmluZGluZycsICctaW1hZScsICc8aW5maWxlLm1hZT4nLCAnLW9tYWUnLCAnPG91dGZpbGUubWFlPic=

> <r_epik_Ionization_Penalty>
17.7898

> <r_epik_Ionization_Penalty_Charging>
16.2165

> <r_epik_Ionization_Penalty_Neutral>
1.5733

> <r_epik_State_Penalty>
6.78491

> <r_epik_Charging_Adjusted_Penalty>
23.0014

> <i_epik_Tot_Q>
-1

> <i_epik_Tot_abs_Q>
1

> <r_epik_Metal_State_Penalty>
3.02615

> <b_epik_Metal_Only>
1

> <s_lp_Force_Field>
OPLS_2005

> <r_lp_Energy>
14.4772

> <b_lp_Chiralities_Consistent>
1

> <s_lp_Variant>
AV-unprocessed.smi:2568-14

> <Gold.Version>
5.8.1

> <Gold.Id.Protein>
6NUR|6NUR_protein|mol2

> <Gold.PLP.Fitness>
28.5211

> <Gold.PLP.PLP>
-19.0856

> <Gold.PLP.part.hbond>
-3.1243

> <Gold.PLP.part.metal>
0.0000

> <Gold.PLP.part.buried>
-1.5708

> <Gold.PLP.part.nonpolar>
-14.1201

> <Gold.PLP.part.repulsive>
0.0460

> <Gold.PLP.ligand.clash>
0.0000

> <Gold.PLP.ligand.torsion>
0.0506

> <Gold.PLP.Chemscore.Hbond>
3.1755

> <Gold.PLP.Chemscore.CHOScore>
0.0000

> <Gold.PLP.Chemscore.Metal>
0.0000

> <Gold.Chemscore.Hbonds>
donor molecule, donor type, donor heavy atom, donor atom, acceptor molecule, acceptor atom, score
      L1  H     8    19       P1  8028  1.00
      P1  H  7989  7998       L1    11  0.18
      P1  H  7997  8009       L1     3  2.00

> <Gold.PLP.Chemscore.Internal.Correction>
0.0103

> <Gold.Rescore>
     Score         DG    S(hbond)    S(metal)    S(lipo)     H(rot)  DE(clash)    DE(int)     intcor
     12.18     -12.49       1.63        0.00      35.32       1.00       0.28       0.02       ----

> <Gold.Chemscore.Fitness>
12.1827

> <Gold.Chemscore.DG>
-12.4859

> <Gold.Chemscore.ZeroCoef>
-5.4800

> <Gold.Chemscore.Hbond>
1.6269

> <Gold.Chemscore.Metal>
0.0000

> <Gold.Chemscore.Lipo>
35.3169

> <Gold.Chemscore.Internal_Hbond>
0.0000

> <Gold.Chemscore.DEClash>
0.2824

> <Gold.Chemscore.DEInternal>
0.0208

> <Gold.Chemscore.Rot>
1.0000

> <Gold.Chemscore.Internal.Correction>
   9.000000E+99

> <Gold.Chemscore.Hbonds>
donor molecule, donor type, donor heavy atom, donor atom, acceptor molecule, acceptor atom, score
      L1  H     8    19       P1  8028  1.00
      P1  H  7997  8009       L1     3  0.20

> <Gold.Chemscore.Hbond.Weighted>
-5.4338

> <Gold.Chemscore.Metal.Weighted>
-0.0000

> <Gold.Chemscore.Lipo.Weighted>
-4.1321

> <Gold.Chemscore.Internal_Hbond.Weighted>
0.0000

> <Gold.Chemscore.DEClash.Weighted>
0.2824

> <Gold.Chemscore.DEInternal.Weighted>
0.0208

> <Gold.Chemscore.Rot.Weighted>
2.5600

> <Gold.Chemscore.Internal.Correction.Weighted>
   9.000000E+99

> <Gold.Protein.RotatedTorsions>
[ 6907 6896 6895 6894 ] final   91.49 input  -60.11 | X-H torsion
[ 7974 7965 7964 7962 ] final  -35.02 input  175.53 | X-H torsion
[ 8008 7997 7996 7995 ] final  139.20 input   59.86 | X-H torsion
[ 10167 10162 10161 10158 ] final   31.04 input  -65.29 | X-H torsion
[ 10718 10713 10712 10709 ] final  -23.14 input   66.30 | X-H torsion
[ 10763 10752 10751 10750 ] final -141.39 input  -60.55 | X-H torsion
[ 11005 11000 10999 10996 ] final -119.67 input  -57.11 | X-H torsion

> <Gold.Protein.ActiveResidues>
 VAL166  LYS551  ARG553  GLY616  TRP617  ASP618  TYR619  PRO620  LYS621  CYS622 
 ASP623  PHE694  ASN695  SER759  ASP760  ASP761  ALA762  ILE779  LEU786  VAL792 
 PHE793  MET794  SER795  GLU796  ALA797  LYS798  CYS799  TRP800  GLU811  SER814 

> <Gold.Protein.RotatedAtoms>
  152.5450  134.1648  159.8572 H   0  0  0  0  0  0  0  0  0  0  0  0  # atno 6907 bound_to 6896
  151.1663  133.4805  159.2601 H   0  0  0  0  0  0  0  0  0  0  0  0  # atno 6908 bound_to 6896
  151.1320  135.0146  159.8642 H   0  0  0  0  0  0  0  0  0  0  0  0  # atno 6909 bound_to 6896
  146.0781  140.6109  142.8921 H   0  0  0  0  0  0  0  0  0  0  0  0  # atno 7974 bound_to 7965
  156.2991  140.2373  156.4199 H   0  0  0  0  0  0  0  0  0  0  0  0  # atno 8008 bound_to 7997
  154.8365  140.0430  157.1532 H   0  0  0  0  0  0  0  0  0  0  0  0  # atno 8009 bound_to 7997
  154.9150  140.2996  155.5249 H   0  0  0  0  0  0  0  0  0  0  0  0  # atno 8010 bound_to 7997
  140.4624  144.0886  150.6216 H   0  0  0  0  0  0  0  0  0  0  0  0  # atno 10167 bound_to 10162
  156.4950  130.4575  149.6733 H   0  0  0  0  0  0  0  0  0  0  0  0  # atno 10718 bound_to 10713
  154.8546  135.3525  154.5861 H   0  0  0  0  0  0  0  0  0  0  0  0  # atno 10763 bound_to 10752
  153.6471  135.6996  153.5226 H   0  0  0  0  0  0  0  0  0  0  0  0  # atno 10764 bound_to 10752
  153.2924  135.4231  155.1137 H   0  0  0  0  0  0  0  0  0  0  0  0  # atno 10765 bound_to 10752
  141.0199  134.0140  157.3297 H   0  0  0  0  0  0  0  0  0  0  0  0  # atno 11005 bound_to 11000
  144.7275  140.4570  143.6962 LP  0  0  0  0  0  0  0  0  0  0  0  0  # atno 17320 bound_to 7965
  145.6268  139.1531  143.2991 LP  0  0  0  0  0  0  0  0  0  0  0  0  # atno 17321 bound_to 7965
  140.4077  143.2672  151.9871 LP  0  0  0  0  0  0  0  0  0  0  0  0  # atno 17342 bound_to 10162
  139.4808  144.5943  151.7718 LP  0  0  0  0  0  0  0  0  0  0  0  0  # atno 17343 bound_to 10162
  156.3389  130.7371  151.2313 LP  0  0  0  0  0  0  0  0  0  0  0  0  # atno 17370 bound_to 10713
  157.7469  131.0409  150.4621 LP  0  0  0  0  0  0  0  0  0  0  0  0  # atno 17371 bound_to 10713
  139.9139  135.0194  156.7805 LP  0  0  0  0  0  0  0  0  0  0  0  0  # atno 17394 bound_to 11000
  140.6591  133.9661  155.7795 LP  0  0  0  0  0  0  0  0  0  0  0  0  # atno 17395 bound_to 11000

$$$$
