AV-unprocessed.smi:1240|AV-procd|sdf|5211|dock7
  -GOLD-   22720 4303D 1   1.00000     0.00000
 Structure written by MMmdl.
 48 50  0  0  0  0  0  0  0  0  4 V2000
  148.3109  132.3930  153.8933 O   0  0  0  0  0  0  0  0  0  0  0  0
  148.3450  133.5937  153.6002 C   0  0  0  0  0  0  0  0  0  0  0  0
  149.0911  134.5692  154.1832 N   0  5  0  0  0  0  0  0  0  0  0  0
  150.3476  134.3387  154.8947 C   0  0  0  0  0  0  0  0  0  0  0  0
  150.6280  135.4864  155.9285 C   0  0  2  0  0  0  0  0  0  0  0  0
  149.5123  135.6824  157.0082 C   0  0  2  0  0  0  0  0  0  0  0  0
  149.9398  136.5556  158.1797 C   0  0  0  0  0  0  0  0  0  0  0  0
  148.8843  136.2411  159.2332 C   0  0  0  0  0  0  0  0  0  0  0  0
  148.5169  134.8857  159.0125 O   0  0  0  0  0  0  0  0  0  0  0  0
  149.0651  134.4286  157.7807 C   0  0  0  0  0  0  0  0  0  0  0  0
  150.9569  136.8162  155.3028 N   0  3  0  0  0  0  0  0  0  0  0  0
  149.7973  137.6933  154.9906 C   0  0  0  0  0  0  0  0  0  0  0  0
  150.2451  138.8518  154.0840 C   0  0  0  0  0  0  0  0  0  0  0  0
  151.3024  139.5721  154.7074 O   0  0  0  0  0  0  0  0  0  0  0  0
  152.4483  138.7585  154.9310 C   0  0  0  0  0  0  0  0  0  0  0  0
  152.0847  137.6037  155.8775 C   0  0  0  0  0  0  0  0  0  0  0  0
  147.6045  134.0647  152.5808 N   0  0  0  0  0  0  0  0  0  0  0  0
  146.6913  133.3678  151.7449 C   0  0  0  0  0  0  0  0  0  0  0  0
  145.8474  134.1340  150.9110 C   0  0  0  0  0  0  0  0  0  0  0  0
  144.9120  133.4819  150.0825 C   0  0  0  0  0  0  0  0  0  0  0  0
  144.8204  132.1347  150.1021 N   0  3  0  0  0  0  0  0  0  0  0  0
  145.5926  131.3616  150.8959 C   0  0  0  0  0  0  0  0  0  0  0  0
  146.5465  131.9575  151.7457 C   0  0  0  0  0  0  0  0  0  0  0  0
  150.3097  133.3872  155.4250 H   0  0  0  0  0  0  0  0  0  0  0  0
  151.1984  134.2587  154.2170 H   0  0  0  0  0  0  0  0  0  0  0  0
  151.5303  135.2074  156.4757 H   0  0  0  0  0  0  0  0  0  0  0  0
  148.6249  136.1354  156.5613 H   0  0  0  0  0  0  0  0  0  0  0  0
  150.9252  136.2538  158.5388 H   0  0  0  0  0  0  0  0  0  0  0  0
  149.9767  137.6182  157.9374 H   0  0  0  0  0  0  0  0  0  0  0  0
  149.2492  136.3960  160.2490 H   0  0  0  0  0  0  0  0  0  0  0  0
  148.0035  136.8680  159.0890 H   0  0  0  0  0  0  0  0  0  0  0  0
  148.3323  133.8356  157.2329 H   0  0  0  0  0  0  0  0  0  0  0  0
  149.9185  133.7873  158.0059 H   0  0  0  0  0  0  0  0  0  0  0  0
  149.0164  137.1200  154.4898 H   0  0  0  0  0  0  0  0  0  0  0  0
  149.3642  138.0947  155.9075 H   0  0  0  0  0  0  0  0  0  0  0  0
  150.5683  138.4811  153.1098 H   0  0  0  0  0  0  0  0  0  0  0  0
  149.4123  139.5318  153.9046 H   0  0  0  0  0  0  0  0  0  0  0  0
  152.8318  138.3787  153.9827 H   0  0  0  0  0  0  0  0  0  0  0  0
  153.2360  139.3705  155.3706 H   0  0  0  0  0  0  0  0  0  0  0  0
  151.8116  138.0131  156.8509 H   0  0  0  0  0  0  0  0  0  0  0  0
  152.9591  136.9715  156.0281 H   0  0  0  0  0  0  0  0  0  0  0  0
  147.7723  135.0294  152.3354 H   0  0  0  0  0  0  0  0  0  0  0  0
  145.9203  135.2120  150.8997 H   0  0  0  0  0  0  0  0  0  0  0  0
  144.2376  133.9941  149.4120 H   0  0  0  0  0  0  0  0  0  0  0  0
  145.4211  130.2969  150.8338 H   0  0  0  0  0  0  0  0  0  0  0  0
  147.1409  131.3284  152.3910 H   0  0  0  0  0  0  0  0  0  0  0  0
  151.2933  136.5467  154.3899 H   0  0  0  0  0  0  0  0  0  0  0  0
  144.1354  131.6823  149.4963 H   0  0  0  0  0  0  0  0  0  0  0  0
  1  2  2  0  0  0  0
  2  3  1  0  0  0  0
  2 17  1  0  0  0  0
  3  4  1  0  0  0  0
  4  5  1  0  0  0  0
  4 24  1  0  0  0  0
  4 25  1  0  0  0  0
  5  6  1  0  0  0  0
  5 11  1  0  0  0  0
  5 26  1  0  0  0  0
  6 10  1  0  0  0  0
  6  7  1  0  0  0  0
  6 27  1  0  0  0  0
  7  8  1  0  0  0  0
  7 28  1  0  0  0  0
  7 29  1  0  0  0  0
  8  9  1  0  0  0  0
  8 30  1  0  0  0  0
  8 31  1  0  0  0  0
  9 10  1  0  0  0  0
 10 32  1  0  0  0  0
 10 33  1  0  0  0  0
 11 16  1  0  0  0  0
 11 12  1  0  0  0  0
 11 47  1  0  0  0  0
 12 13  1  0  0  0  0
 12 34  1  0  0  0  0
 12 35  1  0  0  0  0
 13 14  1  0  0  0  0
 13 36  1  0  0  0  0
 13 37  1  0  0  0  0
 14 15  1  0  0  0  0
 15 16  1  0  0  0  0
 15 38  1  0  0  0  0
 15 39  1  0  0  0  0
 16 40  1  0  0  0  0
 16 41  1  0  0  0  0
 17 18  1  0  0  0  0
 17 42  1  0  0  0  0
 18 23  1  0  0  0  0
 18 19  2  0  0  0  0
 19 20  1  0  0  0  0
 19 43  1  0  0  0  0
 20 21  2  0  0  0  0
 20 44  1  0  0  0  0
 21 22  1  0  0  0  0
 21 48  1  0  0  0  0
 22 23  2  0  0  0  0
 22 45  1  0  0  0  0
 23 46  1  0  0  0  0
M  CHG  1   3  -1
M  CHG  1  11   1
M  CHG  1  21   1
M  END
> <s_m_source_file>
AV-unprocessed.smi

> <i_m_source_file_index>
1240

> <i_lp_mmshare_version>
43012

> <i_f3d_flags>
0

> <s_epik_input>
W2NIXTFbY0hdbltjSF1bY0hdYzFbTkhdQyg9TylbTkhdW0NIMl1bQ0BIXShbQ0BASF0yW0NIMl1bQ0gyXU9bQ0gyXTIpTjNbQ0gyXVtDSDJdT1tDSDJdW0NIMl0z

> <s_epik_cmdline>
J2VwaWtfcHl0aG9uJywgJy1waCcsICc3LjAnLCAnLXRuJywgJzgnLCAnLW1hJywgJzIwMCcsICctbWV0YWxfYmluZGluZycsICctaW1hZScsICc8aW5maWxlLm1hZT4nLCAnLW9tYWUnLCAnPG91dGZpbGUubWFlPic=

> <r_epik_Ionization_Penalty>
8.41087

> <r_epik_Ionization_Penalty_Charging>
8.41087

> <r_epik_Ionization_Penalty_Neutral>
3.12936e-06

> <r_epik_State_Penalty>
8.81894

> <r_epik_Charging_Adjusted_Penalty>
17.2298

> <i_epik_Tot_Q>
1

> <i_epik_Tot_abs_Q>
3

> <r_epik_Metal_State_Penalty>
4.82983

> <b_epik_Metal_Only>
1

> <s_lp_Force_Field>
OPLS_2005

> <r_lp_Energy>
48.2206

> <b_lp_Chiralities_Consistent>
1

> <s_lp_Variant>
AV-unprocessed.smi:1240-17

> <Gold.Version>
5.8.1

> <Gold.Id.Protein>
6NUR|6NUR_protein|mol2

> <Gold.PLP.Fitness>
37.1608

> <Gold.PLP.PLP>
-33.2705

> <Gold.PLP.part.hbond>
-2.0000

> <Gold.PLP.part.metal>
0.0000

> <Gold.PLP.part.buried>
-6.6627

> <Gold.PLP.part.nonpolar>
-25.3395

> <Gold.PLP.part.repulsive>
1.1173

> <Gold.PLP.ligand.clash>
0.0000

> <Gold.PLP.ligand.torsion>
1.2081

> <Gold.PLP.Chemscore.Hbond>
2.0000

> <Gold.PLP.Chemscore.CHOScore>
0.0000

> <Gold.PLP.Chemscore.Metal>
0.0000

> <Gold.Chemscore.Hbonds>
donor molecule, donor type, donor heavy atom, donor atom, acceptor molecule, acceptor atom, score
      L1  H    17    42       P1  7948  0.91
      P1  H  7989  7998       L1    14  1.00

> <Gold.PLP.Chemscore.Internal.Correction>
0.3065

> <Gold.Rescore>
     Score         DG    S(hbond)    S(metal)    S(lipo)     H(rot)  DE(clash)    DE(int)     intcor
     13.36     -15.80       1.46        0.00      83.83       1.70       0.22       2.22       ----

> <Gold.Chemscore.Fitness>
13.3616

> <Gold.Chemscore.DG>
-15.7975

> <Gold.Chemscore.ZeroCoef>
-5.4800

> <Gold.Chemscore.Hbond>
1.4571

> <Gold.Chemscore.Metal>
0.0000

> <Gold.Chemscore.Lipo>
83.8308

> <Gold.Chemscore.Internal_Hbond>
0.0000

> <Gold.Chemscore.DEClash>
0.2178

> <Gold.Chemscore.DEInternal>
2.2181

> <Gold.Chemscore.Rot>
1.7021

> <Gold.Chemscore.Internal.Correction>
   9.000000E+99

> <Gold.Chemscore.Hbonds>
donor molecule, donor type, donor heavy atom, donor atom, acceptor molecule, acceptor atom, score
      L1  H    17    42       P1  7948  0.82
      P1  H  7989  7998       L1    14  0.27

> <Gold.Chemscore.Hbond.Weighted>
-4.8668

> <Gold.Chemscore.Metal.Weighted>
-0.0000

> <Gold.Chemscore.Lipo.Weighted>
-9.8082

> <Gold.Chemscore.Internal_Hbond.Weighted>
0.0000

> <Gold.Chemscore.DEClash.Weighted>
0.2178

> <Gold.Chemscore.DEInternal.Weighted>
2.2181

> <Gold.Chemscore.Rot.Weighted>
4.3575

> <Gold.Chemscore.Internal.Correction.Weighted>
   9.000000E+99

> <Gold.Protein.RotatedTorsions>
[ 6907 6896 6895 6894 ] final   29.59 input  -60.11 | X-H torsion
[ 7974 7965 7964 7962 ] final   48.37 input  175.53 | X-H torsion
[ 8008 7997 7996 7995 ] final  -81.71 input   59.86 | X-H torsion
[ 10167 10162 10161 10158 ] final   12.01 input  -65.29 | X-H torsion
[ 10718 10713 10712 10709 ] final  105.03 input   66.30 | X-H torsion
[ 10763 10752 10751 10750 ] final -124.18 input  -60.55 | X-H torsion
[ 11005 11000 10999 10996 ] final   43.51 input  -57.11 | X-H torsion

> <Gold.Protein.ActiveResidues>
 VAL166  LYS551  ARG553  GLY616  TRP617  ASP618  TYR619  PRO620  LYS621  CYS622 
 ASP623  PHE694  ASN695  SER759  ASP760  ASP761  ALA762  ILE779  LEU786  VAL792 
 PHE793  MET794  SER795  GLU796  ALA797  LYS798  CYS799  TRP800  GLU811  SER814 

> <Gold.Protein.RotatedAtoms>
  152.0337  134.9753  160.0572 H   0  0  0  0  0  0  0  0  0  0  0  0  # atno 6907 bound_to 6896
  152.1219  133.4353  159.4688 H   0  0  0  0  0  0  0  0  0  0  0  0  # atno 6908 bound_to 6896
  150.6849  134.2443  159.4528 H   0  0  0  0  0  0  0  0  0  0  0  0  # atno 6909 bound_to 6896
  146.0211  139.4652  142.9897 H   0  0  0  0  0  0  0  0  0  0  0  0  # atno 7974 bound_to 7965
  154.6012  140.0644  156.9370 H   0  0  0  0  0  0  0  0  0  0  0  0  # atno 8008 bound_to 7997
  155.2130  140.3324  155.4308 H   0  0  0  0  0  0  0  0  0  0  0  0  # atno 8009 bound_to 7997
  156.2319  140.1845  156.7204 H   0  0  0  0  0  0  0  0  0  0  0  0  # atno 8010 bound_to 7997
  140.6095  143.8437  150.7050 H   0  0  0  0  0  0  0  0  0  0  0  0  # atno 10167 bound_to 10162
  157.6720  131.0818  150.5795 H   0  0  0  0  0  0  0  0  0  0  0  0  # atno 10718 bound_to 10713
  154.8719  135.4072  154.3064 H   0  0  0  0  0  0  0  0  0  0  0  0  # atno 10763 bound_to 10752
  153.3915  135.7015  153.6497 H   0  0  0  0  0  0  0  0  0  0  0  0  # atno 10764 bound_to 10752
  153.5277  135.3674  155.2633 H   0  0  0  0  0  0  0  0  0  0  0  0  # atno 10765 bound_to 10752
  140.1638  134.4308  155.8300 H   0  0  0  0  0  0  0  0  0  0  0  0  # atno 11005 bound_to 11000
  145.7192  141.0080  143.1411 LP  0  0  0  0  0  0  0  0  0  0  0  0  # atno 17320 bound_to 7965
  144.6990  139.8850  143.7449 LP  0  0  0  0  0  0  0  0  0  0  0  0  # atno 17321 bound_to 7965
  140.2002  143.3965  152.1797 LP  0  0  0  0  0  0  0  0  0  0  0  0  # atno 17342 bound_to 10162
  139.5350  144.7200  151.4923 LP  0  0  0  0  0  0  0  0  0  0  0  0  # atno 17343 bound_to 10162
  156.6096  130.4376  149.5864 LP  0  0  0  0  0  0  0  0  0  0  0  0  # atno 17370 bound_to 10713
  156.2441  130.6868  151.1583 LP  0  0  0  0  0  0  0  0  0  0  0  0  # atno 17371 bound_to 10713
  141.2212  133.6925  156.7641 LP  0  0  0  0  0  0  0  0  0  0  0  0  # atno 17394 bound_to 11000
  140.2458  134.8578  157.3619 LP  0  0  0  0  0  0  0  0  0  0  0  0  # atno 17395 bound_to 11000

$$$$
