AV-unprocessed.smi:276|AV-procd|sdf|2080|dock2
  -GOLD-   2262021343D 1   1.00000     0.00000
 Structure written by MMmdl.
 57 61  0  0  0  0  0  0  0  0  1 V2000
  151.8491  130.0761  155.8007 C   0  0  0  0  0  0  0  0  0  0  0  0
  150.7186  130.7472  155.2729 O   0  0  0  0  0  0  0  0  0  0  0  0
  150.9028  132.1517  155.1978 C   0  0  2  0  0  0  0  0  0  0  0  0
  150.9992  132.8511  156.5586 C   0  0  0  0  0  0  0  0  0  0  0  0
  150.1887  133.9959  155.9366 C   0  0  2  0  0  0  0  0  0  0  0  0
  149.2547  134.6157  156.8798 N   0  0  0  0  0  0  0  0  0  0  0  0
  148.6337  133.7207  157.8481 C   0  0  0  0  0  0  0  0  0  0  0  0
  149.6866  135.7389  157.4970 C   0  0  0  0  0  0  0  0  0  0  0  0
  149.3347  135.8976  158.7976 N   0  0  0  0  0  0  0  0  0  0  0  0
  149.7185  136.9881  159.4677 C   0  0  0  0  0  0  0  0  0  0  0  0
  150.4514  138.0175  159.0380 N   0  0  0  0  0  0  0  0  0  0  0  0
  150.8264  137.8497  157.7372 C   0  0  0  0  0  0  0  0  0  0  0  0
  150.4964  136.7473  156.8989 C   0  0  0  0  0  0  0  0  0  0  0  0
  151.0723  136.9206  155.6452 N   0  0  0  0  0  0  0  0  0  0  0  0
  151.6947  138.0641  155.7336 C   0  0  0  0  0  0  0  0  0  0  0  0
  151.5993  138.6892  156.9553 N   0  0  0  0  0  0  0  0  0  0  0  0
  152.1977  139.9590  157.3279 C   0  0  0  0  0  0  0  0  0  0  0  0
  151.1448  141.0099  157.7328 C   0  0  2  0  0  0  0  0  0  0  0  0
  150.2143  141.1701  156.6785 O   0  0  0  0  0  0  0  0  0  0  0  0
  151.7780  142.3770  158.0520 C   0  0  1  0  0  0  0  0  0  0  0  0
  150.7711  143.4778  158.3892 C   0  0  0  0  0  0  0  0  0  0  0  0
  151.6241  144.4387  159.1846 C   0  0  0  0  0  0  0  0  0  0  0  0
  152.5101  143.4866  159.9829 C   0  0  0  0  0  0  0  0  0  0  0  0
  152.5970  142.2878  159.2158 O   0  0  0  0  0  0  0  0  0  0  0  0
  149.5997  132.9403  154.9621 C   0  0  0  0  0  0  0  0  0  0  0  0
  149.1605  133.3084  153.5389 C   0  0  0  0  0  0  0  0  0  0  0  0
  147.7094  133.0186  153.9356 C   0  0  0  0  0  0  0  0  0  0  0  0
  148.2251  132.2718  155.1703 C   0  0  0  0  0  0  0  0  0  0  0  0
  151.6562  129.0039  155.8318 H   0  0  0  0  0  0  0  0  0  0  0  0
  152.0696  130.4070  156.8162 H   0  0  0  0  0  0  0  0  0  0  0  0
  152.7301  130.2419  155.1794 H   0  0  0  0  0  0  0  0  0  0  0  0
  151.6936  132.4528  154.5069 H   0  0  0  0  0  0  0  0  0  0  0  0
  150.4659  132.3170  157.3478 H   0  0  0  0  0  0  0  0  0  0  0  0
  152.0108  133.1198  156.8628 H   0  0  0  0  0  0  0  0  0  0  0  0
  150.8493  134.7011  155.4308 H   0  0  0  0  0  0  0  0  0  0  0  0
  149.3779  133.3226  158.5390 H   0  0  0  0  0  0  0  0  0  0  0  0
  148.1528  132.8808  157.3467 H   0  0  0  0  0  0  0  0  0  0  0  0
  147.8685  134.2385  158.4278 H   0  0  0  0  0  0  0  0  0  0  0  0
  149.3901  137.0444  160.4949 H   0  0  0  0  0  0  0  0  0  0  0  0
  152.2484  138.4838  154.9063 H   0  0  0  0  0  0  0  0  0  0  0  0
  152.8878  139.7774  158.1523 H   0  0  0  0  0  0  0  0  0  0  0  0
  152.8003  140.3216  156.4941 H   0  0  0  0  0  0  0  0  0  0  0  0
  150.5999  140.6533  158.6080 H   0  0  0  0  0  0  0  0  0  0  0  0
  150.6720  141.5045  155.9222 H   0  0  0  0  0  0  0  0  0  0  0  0
  152.4080  142.7077  157.2242 H   0  0  0  0  0  0  0  0  0  0  0  0
  150.3270  143.9352  157.5049 H   0  0  0  0  0  0  0  0  0  0  0  0
  149.9664  143.0874  159.0141 H   0  0  0  0  0  0  0  0  0  0  0  0
  152.2328  145.0429  158.5105 H   0  0  0  0  0  0  0  0  0  0  0  0
  151.0414  145.1105  159.8154 H   0  0  0  0  0  0  0  0  0  0  0  0
  153.4974  143.9071  160.1754 H   0  0  0  0  0  0  0  0  0  0  0  0
  152.0499  143.2498  160.9428 H   0  0  0  0  0  0  0  0  0  0  0  0
  149.3519  134.3425  153.2532 H   0  0  0  0  0  0  0  0  0  0  0  0
  149.5370  132.6096  152.7907 H   0  0  0  0  0  0  0  0  0  0  0  0
  147.1485  133.9199  154.1825 H   0  0  0  0  0  0  0  0  0  0  0  0
  147.1663  132.3936  153.2262 H   0  0  0  0  0  0  0  0  0  0  0  0
  148.2401  131.1932  155.0120 H   0  0  0  0  0  0  0  0  0  0  0  0
  147.7134  132.5217  156.0991 H   0  0  0  0  0  0  0  0  0  0  0  0
  1  2  1  0  0  0  0
  1 29  1  0  0  0  0
  1 30  1  0  0  0  0
  1 31  1  0  0  0  0
  2  3  1  0  0  0  0
  3 25  1  0  0  0  0
  3  4  1  0  0  0  0
  3 32  1  0  0  0  0
  4  5  1  0  0  0  0
  4 33  1  0  0  0  0
  4 34  1  0  0  0  0
  5  6  1  0  0  0  0
  5 25  1  0  0  0  0
  5 35  1  0  0  0  0
  6  7  1  0  0  0  0
  6  8  1  0  0  0  0
  7 36  1  0  0  0  0
  7 37  1  0  0  0  0
  7 38  1  0  0  0  0
  8 13  1  0  0  0  0
  8  9  2  0  0  0  0
  9 10  1  0  0  0  0
 10 11  2  0  0  0  0
 10 39  1  0  0  0  0
 11 12  1  0  0  0  0
 12 16  1  0  0  0  0
 12 13  2  0  0  0  0
 13 14  1  0  0  0  0
 14 15  2  0  0  0  0
 15 16  1  0  0  0  0
 15 40  1  0  0  0  0
 16 17  1  0  0  0  0
 17 18  1  0  0  0  0
 17 41  1  0  0  0  0
 17 42  1  0  0  0  0
 18 19  1  0  0  0  0
 18 20  1  0  0  0  0
 18 43  1  0  0  0  0
 19 44  1  0  0  0  0
 20 24  1  0  0  0  0
 20 21  1  0  0  0  0
 20 45  1  0  0  0  0
 21 22  1  0  0  0  0
 21 46  1  0  0  0  0
 21 47  1  0  0  0  0
 22 23  1  0  0  0  0
 22 48  1  0  0  0  0
 22 49  1  0  0  0  0
 23 24  1  0  0  0  0
 23 50  1  0  0  0  0
 23 51  1  0  0  0  0
 25 28  1  0  0  0  0
 25 26  1  0  0  0  0
 26 27  1  0  0  0  0
 26 52  1  0  0  0  0
 26 53  1  0  0  0  0
 27 28  1  0  0  0  0
 27 54  1  0  0  0  0
 27 55  1  0  0  0  0
 28 56  1  0  0  0  0
 28 57  1  0  0  0  0
M  END
> <s_m_source_file>
AV-unprocessed.smi

> <i_m_source_file_index>
276

> <i_lp_mmshare_version>
43012

> <i_f3d_flags>
0

> <s_epik_input>
W0NIMl0xW0NIMl1bQ0gyXUMxMltDQEhdKE9bQ0gzXSlbQ0gyXVtDQEhdMk4oW0NIM10pYyhuW2NIXW4zKWMoYzM0KW5bY0hdbjRbQ0gyXVtDQEhdKFtPSF0pW0NAQEhdNVtDSDJdW0NIMl1bQ0gyXU81

> <s_epik_cmdline>
J2VwaWtfcHl0aG9uJywgJy1waCcsICc3LjAnLCAnLXRuJywgJzgnLCAnLW1hJywgJzIwMCcsICctbWV0YWxfYmluZGluZycsICctaW1hZScsICc8aW5maWxlLm1hZT4nLCAnLW9tYWUnLCAnPG91dGZpbGUubWFlPic=

> <r_lp_tautomer_probability>
1

> <r_epik_Ionization_Penalty>
0.00204117

> <r_epik_Ionization_Penalty_Charging>
0

> <r_epik_Ionization_Penalty_Neutral>
0.00204117

> <r_epik_State_Penalty>
0.00127401

> <r_epik_Charging_Adjusted_Penalty>
0.00127401

> <i_epik_Tot_Q>
0

> <i_epik_Tot_abs_Q>
0

> <r_epik_Metal_State_Penalty>
-0

> <b_epik_Metal_Only>
0

> <s_lp_Force_Field>
OPLS_2005

> <r_lp_Energy>
54.5778

> <b_lp_Chiralities_Consistent>
1

> <s_lp_Variant>
AV-unprocessed.smi:276-11

> <Gold.Version>
5.8.1

> <Gold.Id.Protein>
6NUR|6NUR_protein|mol2

> <Gold.PLP.Fitness>
37.0159

> <Gold.PLP.PLP>
-36.6276

> <Gold.PLP.part.hbond>
-1.0356

> <Gold.PLP.part.metal>
0.0000

> <Gold.PLP.part.buried>
-7.0140

> <Gold.PLP.part.nonpolar>
-28.4342

> <Gold.PLP.part.repulsive>
0.0779

> <Gold.PLP.ligand.clash>
0.9444

> <Gold.PLP.ligand.torsion>
0.9351

> <Gold.PLP.Chemscore.Hbond>
0.8075

> <Gold.PLP.Chemscore.CHOScore>
0.0000

> <Gold.PLP.Chemscore.Metal>
0.0000

> <Gold.Chemscore.Hbonds>
donor molecule, donor type, donor heavy atom, donor atom, acceptor molecule, acceptor atom, score
      P1  H  6896  6908       L1     9  0.76

> <Gold.PLP.Chemscore.Internal.Correction>
0.7805

> <Gold.Rescore>
     Score         DG    S(hbond)    S(metal)    S(lipo)     H(rot)  DE(clash)    DE(int)     intcor
      9.46     -10.40       0.06        0.00      99.73       2.72       0.01       0.94       ----

> <Gold.Chemscore.Fitness>
9.4580

> <Gold.Chemscore.DG>
-10.3983

> <Gold.Chemscore.ZeroCoef>
-5.4800

> <Gold.Chemscore.Hbond>
0.0616

> <Gold.Chemscore.Metal>
0.0000

> <Gold.Chemscore.Lipo>
99.7296

> <Gold.Chemscore.Internal_Hbond>
0.0000

> <Gold.Chemscore.DEClash>
0.0052

> <Gold.Chemscore.DEInternal>
0.9351

> <Gold.Chemscore.Rot>
2.7172

> <Gold.Chemscore.Internal.Correction>
   9.000000E+99

> <Gold.Chemscore.Hbonds>
donor molecule, donor type, donor heavy atom, donor atom, acceptor molecule, acceptor atom, score
      P1  H  6896  6908       L1     9  0.02

> <Gold.Chemscore.Hbond.Weighted>
-0.2059

> <Gold.Chemscore.Metal.Weighted>
-0.0000

> <Gold.Chemscore.Lipo.Weighted>
-11.6684

> <Gold.Chemscore.Internal_Hbond.Weighted>
0.0000

> <Gold.Chemscore.DEClash.Weighted>
0.0052

> <Gold.Chemscore.DEInternal.Weighted>
0.9351

> <Gold.Chemscore.Rot.Weighted>
6.9560

> <Gold.Chemscore.Internal.Correction.Weighted>
   9.000000E+99

> <Gold.Protein.RotatedTorsions>
[ 6907 6896 6895 6894 ] final  168.54 input  -60.11 | X-H torsion
[ 7974 7965 7964 7962 ] final   70.64 input  175.53 | X-H torsion
[ 8008 7997 7996 7995 ] final  -64.93 input   59.86 | X-H torsion
[ 10167 10162 10161 10158 ] final   16.37 input  -65.29 | X-H torsion
[ 10718 10713 10712 10709 ] final  166.11 input   66.30 | X-H torsion
[ 10763 10752 10751 10750 ] final  145.66 input  -60.55 | X-H torsion
[ 11005 11000 10999 10996 ] final  -12.07 input  -57.11 | X-H torsion

> <Gold.Protein.ActiveResidues>
 VAL166  LYS551  ARG553  GLY616  TRP617  ASP618  TYR619  PRO620  LYS621  CYS622 
 ASP623  PHE694  ASN695  SER759  ASP760  ASP761  ALA762  ILE779  LEU786  VAL792 
 PHE793  MET794  SER795  GLU796  ALA797  LYS798  CYS799  TRP800  GLU811  SER814 

> <Gold.Protein.RotatedAtoms>
  151.8460  133.3431  159.3657 H   0  0  0  0  0  0  0  0  0  0  0  0  # atno 6907 bound_to 6896
  150.7220  134.5345  159.5726 H   0  0  0  0  0  0  0  0  0  0  0  0  # atno 6908 bound_to 6896
  152.2829  134.7809  160.0444 H   0  0  0  0  0  0  0  0  0  0  0  0  # atno 6909 bound_to 6896
  145.7756  139.2863  143.1295 H   0  0  0  0  0  0  0  0  0  0  0  0  # atno 7974 bound_to 7965
  154.4641  140.0943  156.6972 H   0  0  0  0  0  0  0  0  0  0  0  0  # atno 8008 bound_to 7997
  155.4910  140.3470  155.4336 H   0  0  0  0  0  0  0  0  0  0  0  0  # atno 8009 bound_to 7997
  156.0924  140.1400  156.9564 H   0  0  0  0  0  0  0  0  0  0  0  0  # atno 8010 bound_to 7997
  140.5802  143.8996  150.6783 H   0  0  0  0  0  0  0  0  0  0  0  0  # atno 10167 bound_to 10162
  157.0706  131.0365  151.2613 H   0  0  0  0  0  0  0  0  0  0  0  0  # atno 10718 bound_to 10713
  154.0090  135.2916  155.3394 H   0  0  0  0  0  0  0  0  0  0  0  0  # atno 10763 bound_to 10752
  154.7114  135.5148  153.8675 H   0  0  0  0  0  0  0  0  0  0  0  0  # atno 10764 bound_to 10752
  153.0731  135.6654  154.0324 H   0  0  0  0  0  0  0  0  0  0  0  0  # atno 10765 bound_to 10752
  140.7619  133.8508  155.9132 H   0  0  0  0  0  0  0  0  0  0  0  0  # atno 11005 bound_to 11000
  146.0125  140.8422  142.9963 LP  0  0  0  0  0  0  0  0  0  0  0  0  # atno 17320 bound_to 7965
  144.6805  140.2511  143.7331 LP  0  0  0  0  0  0  0  0  0  0  0  0  # atno 17321 bound_to 7965
  140.2493  143.3605  152.1419 LP  0  0  0  0  0  0  0  0  0  0  0  0  # atno 17342 bound_to 10162
  139.5165  144.6979  151.5579 LP  0  0  0  0  0  0  0  0  0  0  0  0  # atno 17343 bound_to 10162
  157.4881  130.7805  149.7480 LP  0  0  0  0  0  0  0  0  0  0  0  0  # atno 17370 bound_to 10713
  155.9951  130.3913  150.2830 LP  0  0  0  0  0  0  0  0  0  0  0  0  # atno 17371 bound_to 10713
  140.9655  134.1600  157.4619 LP  0  0  0  0  0  0  0  0  0  0  0  0  # atno 17394 bound_to 11000
  139.8769  134.9960  156.5772 LP  0  0  0  0  0  0  0  0  0  0  0  0  # atno 17395 bound_to 11000

$$$$
