AV-unprocessed.smi:1793|AV-procd|sdf|7228|dock9
  -GOLD-   22720 8473D 1   1.00000     0.00000
 Structure written by MMmdl.
 47 49  0  0  0  0  0  0  0  0  2 V2000
  150.7160  139.0559  154.2722 C   0  0  0  0  0  0  0  0  0  0  0  0
  151.1151  137.7115  154.9048 C   0  0  2  0  0  0  0  0  0  0  0  0
  150.3169  136.6364  154.3216 N   0  0  0  0  0  0  0  0  0  0  0  0
  150.3946  135.3415  154.6574 C   0  0  0  0  0  0  0  0  0  0  0  0
  151.1880  134.8963  155.4864 O   0  0  0  0  0  0  0  0  0  0  0  0
  149.4857  134.6130  153.9885 N   0  0  0  0  0  0  0  0  0  0  0  0
  149.2143  133.2211  154.1114 C   0  0  0  0  0  0  0  0  0  0  0  0
  150.0935  132.3605  154.8180 C   0  0  0  0  0  0  0  0  0  0  0  0
  149.7885  130.9923  154.9434 C   0  0  0  0  0  0  0  0  0  0  0  0
  148.6099  130.5021  154.3562 C   0  0  0  0  0  0  0  0  0  0  0  0
  147.8048  131.3413  153.6727 N   0  3  0  0  0  0  0  0  0  0  0  0
  148.0507  132.6648  153.5041 C   0  0  0  0  0  0  0  0  0  0  0  0
  147.1190  133.4160  152.7513 N   0  0  0  0  0  0  0  0  0  0  0  0
  145.7808  133.6701  153.2723 C   0  0  0  0  0  0  0  0  0  0  0  0
  144.9818  134.1845  152.0781 C   0  0  0  0  0  0  0  0  0  0  0  0
  145.5759  133.3904  150.9187 C   0  0  0  0  0  0  0  0  0  0  0  0
  147.0500  133.2296  151.3054 C   0  0  0  0  0  0  0  0  0  0  0  0
  150.9222  137.7053  156.4333 C   0  0  2  0  0  0  0  0  0  0  0  0
  149.4855  137.9561  156.9006 C   0  0  0  0  0  0  0  0  0  0  0  0
  149.6466  138.6387  158.2521 C   0  0  0  0  0  0  0  0  0  0  0  0
  151.1479  138.9097  158.3596 C   0  0  0  0  0  0  0  0  0  0  0  0
  151.6275  138.7835  157.0305 O   0  0  0  0  0  0  0  0  0  0  0  0
  151.3200  139.8740  154.6651 H   0  0  0  0  0  0  0  0  0  0  0  0
  149.6694  139.2916  154.4681 H   0  0  0  0  0  0  0  0  0  0  0  0
  150.8572  139.0415  153.1910 H   0  0  0  0  0  0  0  0  0  0  0  0
  152.1702  137.5259  154.6943 H   0  0  0  0  0  0  0  0  0  0  0  0
  149.6309  136.9101  153.6336 H   0  0  0  0  0  0  0  0  0  0  0  0
  148.8405  135.1338  153.4130 H   0  0  0  0  0  0  0  0  0  0  0  0
  151.0048  132.7293  155.2641 H   0  0  0  0  0  0  0  0  0  0  0  0
  150.4492  130.3305  155.4844 H   0  0  0  0  0  0  0  0  0  0  0  0
  148.2922  129.4704  154.4036 H   0  0  0  0  0  0  0  0  0  0  0  0
  145.3333  132.7460  153.6409 H   0  0  0  0  0  0  0  0  0  0  0  0
  145.8008  134.3937  154.0878 H   0  0  0  0  0  0  0  0  0  0  0  0
  143.9071  134.0393  152.1906 H   0  0  0  0  0  0  0  0  0  0  0  0
  145.1685  135.2496  151.9332 H   0  0  0  0  0  0  0  0  0  0  0  0
  145.1006  132.4098  150.8663 H   0  0  0  0  0  0  0  0  0  0  0  0
  145.4417  133.8804  149.9539 H   0  0  0  0  0  0  0  0  0  0  0  0
  147.6469  134.0047  150.8241 H   0  0  0  0  0  0  0  0  0  0  0  0
  147.4372  132.2579  150.9954 H   0  0  0  0  0  0  0  0  0  0  0  0
  151.2907  136.7701  156.8599 H   0  0  0  0  0  0  0  0  0  0  0  0
  148.9718  138.6300  156.2135 H   0  0  0  0  0  0  0  0  0  0  0  0
  148.9045  137.0355  156.9611 H   0  0  0  0  0  0  0  0  0  0  0  0
  149.0777  139.5689  158.2767 H   0  0  0  0  0  0  0  0  0  0  0  0
  149.3000  138.0117  159.0743 H   0  0  0  0  0  0  0  0  0  0  0  0
  151.3701  139.8942  158.7720 H   0  0  0  0  0  0  0  0  0  0  0  0
  151.6304  138.1596  158.9881 H   0  0  0  0  0  0  0  0  0  0  0  0
  146.9615  130.9535  153.2498 H   0  0  0  0  0  0  0  0  0  0  0  0
  1  2  1  0  0  0  0
  1 23  1  0  0  0  0
  1 24  1  0  0  0  0
  1 25  1  0  0  0  0
  2  3  1  0  0  0  0
  2 18  1  0  0  0  0
  2 26  1  0  0  0  0
  3  4  1  0  0  0  0
  3 27  1  0  0  0  0
  4  5  2  0  0  0  0
  4  6  1  0  0  0  0
  6  7  1  0  0  0  0
  6 28  1  0  0  0  0
  7 12  1  0  0  0  0
  7  8  2  0  0  0  0
  8  9  1  0  0  0  0
  8 29  1  0  0  0  0
  9 10  2  0  0  0  0
  9 30  1  0  0  0  0
 10 11  1  0  0  0  0
 10 31  1  0  0  0  0
 11 12  2  0  0  0  0
 11 47  1  0  0  0  0
 12 13  1  0  0  0  0
 13 17  1  0  0  0  0
 13 14  1  0  0  0  0
 14 15  1  0  0  0  0
 14 32  1  0  0  0  0
 14 33  1  0  0  0  0
 15 16  1  0  0  0  0
 15 34  1  0  0  0  0
 15 35  1  0  0  0  0
 16 17  1  0  0  0  0
 16 36  1  0  0  0  0
 16 37  1  0  0  0  0
 17 38  1  0  0  0  0
 17 39  1  0  0  0  0
 18 22  1  0  0  0  0
 18 19  1  0  0  0  0
 18 40  1  0  0  0  0
 19 20  1  0  0  0  0
 19 41  1  0  0  0  0
 19 42  1  0  0  0  0
 20 21  1  0  0  0  0
 20 43  1  0  0  0  0
 20 44  1  0  0  0  0
 21 22  1  0  0  0  0
 21 45  1  0  0  0  0
 21 46  1  0  0  0  0
M  CHG  1  11   1
M  END
> <s_m_source_file>
AV-unprocessed.smi

> <i_m_source_file_index>
1793

> <i_lp_mmshare_version>
43012

> <i_f3d_flags>
0

> <s_epik_input>
TzFbQ0gyXVtDSDJdW0NIMl1bQ0BIXTFbQ0BIXShbQ0gzXSlbTkhdQyg9TylbTkhdYzJbY0hdW2NIXVtjSF1uYzJOM1tDSDJdW0NIMl1bQ0gyXVtDSDJdMw==

> <s_epik_cmdline>
J2VwaWtfcHl0aG9uJywgJy1waCcsICc3LjAnLCAnLXRuJywgJzgnLCAnLW1hJywgJzIwMCcsICctbWV0YWxfYmluZGluZycsICctaW1hZScsICc8aW5maWxlLm1hZT4nLCAnLW9tYWUnLCAnPG91dGZpbGUubWFlPic=

> <r_lp_tautomer_probability>
0.999994

> <r_epik_Ionization_Penalty>
1.11092

> <r_epik_Ionization_Penalty_Charging>
1.1109

> <r_epik_Ionization_Penalty_Neutral>
1.9363e-05

> <r_epik_State_Penalty>
1.16888

> <r_epik_Charging_Adjusted_Penalty>
2.27978

> <i_epik_Tot_Q>
1

> <i_epik_Tot_abs_Q>
1

> <r_epik_Metal_State_Penalty>
1.25472

> <b_epik_Metal_Only>
0

> <s_lp_Force_Field>
OPLS_2005

> <r_lp_Energy>
52.5047

> <b_lp_Chiralities_Consistent>
1

> <s_lp_Variant>
AV-unprocessed.smi:1793-5

> <Gold.Version>
5.8.1

> <Gold.Id.Protein>
6NUR|6NUR_protein|mol2

> <Gold.PLP.Fitness>
37.6406

> <Gold.PLP.PLP>
-30.8849

> <Gold.PLP.part.hbond>
-3.7837

> <Gold.PLP.part.metal>
0.0000

> <Gold.PLP.part.buried>
-1.9637

> <Gold.PLP.part.nonpolar>
-24.4989

> <Gold.PLP.part.repulsive>
0.2944

> <Gold.PLP.ligand.clash>
0.0000

> <Gold.PLP.ligand.torsion>
0.2541

> <Gold.PLP.Chemscore.Hbond>
2.2760

> <Gold.PLP.Chemscore.CHOScore>
0.0000

> <Gold.PLP.Chemscore.Metal>
0.0000

> <Gold.Chemscore.Hbonds>
donor molecule, donor type, donor heavy atom, donor atom, acceptor molecule, acceptor atom, score
      L1  H     3    27       P1  7948  0.74
      L1  H     6    28       P1  7948  0.70
      P1  H 10752 10763       L1     5  0.85

> <Gold.PLP.Chemscore.Internal.Correction>
0.4360

> <Gold.Rescore>
     Score         DG    S(hbond)    S(metal)    S(lipo)     H(rot)  DE(clash)    DE(int)     intcor
     13.10     -15.42       1.70        0.00      66.55       1.38       0.69       1.63       ----

> <Gold.Chemscore.Fitness>
13.1037

> <Gold.Chemscore.DG>
-15.4191

> <Gold.Chemscore.ZeroCoef>
-5.4800

> <Gold.Chemscore.Hbond>
1.7024

> <Gold.Chemscore.Metal>
0.0000

> <Gold.Chemscore.Lipo>
66.5497

> <Gold.Chemscore.Internal_Hbond>
0.0000

> <Gold.Chemscore.DEClash>
0.6888

> <Gold.Chemscore.DEInternal>
1.6266

> <Gold.Chemscore.Rot>
1.3802

> <Gold.Chemscore.Internal.Correction>
   9.000000E+99

> <Gold.Chemscore.Hbonds>
donor molecule, donor type, donor heavy atom, donor atom, acceptor molecule, acceptor atom, score
      L1  H     3    27       P1  7948  0.52
      L1  H     6    28       P1  7948  0.42
      P1  H 10752 10763       L1     5  0.44

> <Gold.Chemscore.Hbond.Weighted>
-5.6860

> <Gold.Chemscore.Metal.Weighted>
-0.0000

> <Gold.Chemscore.Lipo.Weighted>
-7.7863

> <Gold.Chemscore.Internal_Hbond.Weighted>
0.0000

> <Gold.Chemscore.DEClash.Weighted>
0.6888

> <Gold.Chemscore.DEInternal.Weighted>
1.6266

> <Gold.Chemscore.Rot.Weighted>
3.5332

> <Gold.Chemscore.Internal.Correction.Weighted>
   9.000000E+99

> <Gold.Protein.RotatedTorsions>
[ 6907 6896 6895 6894 ] final -141.51 input  -60.11 | X-H torsion
[ 7974 7965 7964 7962 ] final   46.68 input  175.53 | X-H torsion
[ 8008 7997 7996 7995 ] final  -40.35 input   59.86 | X-H torsion
[ 10167 10162 10161 10158 ] final   80.75 input  -65.29 | X-H torsion
[ 10718 10713 10712 10709 ] final  -37.86 input   66.30 | X-H torsion
[ 10763 10752 10751 10750 ] final   76.50 input  -60.55 | X-H torsion
[ 11005 11000 10999 10996 ] final   72.62 input  -57.11 | X-H torsion

> <Gold.Protein.ActiveResidues>
 VAL166  LYS551  ARG553  GLY616  TRP617  ASP618  TYR619  PRO620  LYS621  CYS622 
 ASP623  PHE694  ASN695  SER759  ASP760  ASP761  ALA762  ILE779  LEU786  VAL792 
 PHE793  MET794  SER795  GLU796  ALA797  LYS798  CYS799  TRP800  GLU811  SER814 

> <Gold.Protein.RotatedAtoms>
  151.0748  133.5437  159.2624 H   0  0  0  0  0  0  0  0  0  0  0  0  # atno 6907 bound_to 6896
  151.2363  135.0572  159.9017 H   0  0  0  0  0  0  0  0  0  0  0  0  # atno 6908 bound_to 6896
  152.5416  134.0529  159.8172 H   0  0  0  0  0  0  0  0  0  0  0  0  # atno 6909 bound_to 6896
  146.0368  139.4830  142.9803 H   0  0  0  0  0  0  0  0  0  0  0  0  # atno 7974 bound_to 7965
  154.4013  140.1527  156.3013 H   0  0  0  0  0  0  0  0  0  0  0  0  # atno 8008 bound_to 7997
  155.8698  140.3449  155.5791 H   0  0  0  0  0  0  0  0  0  0  0  0  # atno 8009 bound_to 7997
  155.7787  140.0840  157.2061 H   0  0  0  0  0  0  0  0  0  0  0  0  # atno 8010 bound_to 7997
  139.9465  144.6055  150.8202 H   0  0  0  0  0  0  0  0  0  0  0  0  # atno 10167 bound_to 10162
  156.3104  130.4252  149.8056 H   0  0  0  0  0  0  0  0  0  0  0  0  # atno 10718 bound_to 10713
  153.0730  135.4949  154.8345 H   0  0  0  0  0  0  0  0  0  0  0  0  # atno 10763 bound_to 10752
  154.7049  135.3008  154.9288 H   0  0  0  0  0  0  0  0  0  0  0  0  # atno 10764 bound_to 10752
  154.0000  135.6767  153.4811 H   0  0  0  0  0  0  0  0  0  0  0  0  # atno 10765 bound_to 10752
  139.9481  134.7275  156.0928 H   0  0  0  0  0  0  0  0  0  0  0  0  # atno 11005 bound_to 11000
  145.6951  141.0153  143.1534 LP  0  0  0  0  0  0  0  0  0  0  0  0  # atno 17320 bound_to 7965
  144.7055  139.8578  143.7431 LP  0  0  0  0  0  0  0  0  0  0  0  0  # atno 17321 bound_to 7965
  140.7595  143.3131  151.2796 LP  0  0  0  0  0  0  0  0  0  0  0  0  # atno 17342 bound_to 10162
  139.6663  144.0100  152.2725 LP  0  0  0  0  0  0  0  0  0  0  0  0  # atno 17343 bound_to 10162
  156.5402  130.8296  151.3266 LP  0  0  0  0  0  0  0  0  0  0  0  0  # atno 17370 bound_to 10713
  157.7389  130.9822  150.2283 LP  0  0  0  0  0  0  0  0  0  0  0  0  # atno 17371 bound_to 10713
  141.1137  133.6634  156.3042 LP  0  0  0  0  0  0  0  0  0  0  0  0  # atno 17394 bound_to 11000
  140.5784  134.5770  157.5474 LP  0  0  0  0  0  0  0  0  0  0  0  0  # atno 17395 bound_to 11000

$$$$
