AV-unprocessed.smi:1388|AV-procd|sdf|5645|dock9
  -GOLD-   22720 5263D 1   1.00000     0.00000
 Structure written by MMmdl.
 45 46  0  0  0  0  0  0  0  0  3 V2000
  143.7719  146.5542  155.7665 C   0  0  0  0  0  0  0  0  0  0  0  0
  143.5391  145.1640  155.3925 N   0  5  0  0  0  0  0  0  0  0  0  0
  144.2349  144.1184  155.9188 C   0  0  0  0  0  0  0  0  0  0  0  0
  145.0864  144.0857  156.8126 O   0  0  0  0  0  0  0  0  0  0  0  0
  143.8441  142.7992  155.2410 C   0  0  0  0  0  0  0  0  0  0  0  0
  145.0388  142.1136  154.6846 N   0  3  2  0  0  0  0  0  0  0  0  0
  145.7127  141.2501  155.6867 C   0  0  0  0  0  0  0  0  0  0  0  0
  146.8544  140.4381  155.0482 C   0  0  0  0  0  0  0  0  0  0  0  0
  147.8734  141.3399  154.3306 C   0  0  2  0  0  0  0  0  0  0  0  0
  148.6596  142.0961  155.3049 N   0  0  0  0  0  0  0  0  0  0  0  0
  149.5429  141.5709  156.1667 C   0  0  0  0  0  0  0  0  0  0  0  0
  149.8014  140.3686  156.2237 O   0  0  0  0  0  0  0  0  0  0  0  0
  150.0929  142.5256  156.9379 N   0  0  0  0  0  0  0  0  0  0  0  0
  151.0547  142.3807  157.9774 C   0  0  0  0  0  0  0  0  0  0  0  0
  151.3898  141.1751  158.5014 N   0  0  0  0  0  0  0  0  0  0  0  0
  152.3069  141.1103  159.4882 C   0  0  0  0  0  0  0  0  0  0  0  0
  152.9491  142.2439  160.0148 C   0  0  0  0  0  0  0  0  0  0  0  0
  152.6146  143.5006  159.4821 C   0  0  0  0  0  0  0  0  0  0  0  0
  151.6559  143.5781  158.4495 C   0  0  0  0  0  0  0  0  0  0  0  0
  151.2931  144.9368  157.8724 C   0  0  0  0  0  0  0  0  0  0  0  0
  147.1389  142.2679  153.3433 C   0  0  0  0  0  0  0  0  0  0  0  0
  145.9937  143.0409  154.0209 C   0  0  0  0  0  0  0  0  0  0  0  0
  143.1564  147.2384  155.1830 H   0  0  0  0  0  0  0  0  0  0  0  0
  144.8066  146.8601  155.6084 H   0  0  0  0  0  0  0  0  0  0  0  0
  143.5415  146.7471  156.8146 H   0  0  0  0  0  0  0  0  0  0  0  0
  143.3221  142.1445  155.9408 H   0  0  0  0  0  0  0  0  0  0  0  0
  143.1343  143.0321  154.4454 H   0  0  0  0  0  0  0  0  0  0  0  0
  146.0923  141.8669  156.5026 H   0  0  0  0  0  0  0  0  0  0  0  0
  144.9881  140.5611  156.1224 H   0  0  0  0  0  0  0  0  0  0  0  0
  147.3527  139.8314  155.8054 H   0  0  0  0  0  0  0  0  0  0  0  0
  146.4306  139.7357  154.3289 H   0  0  0  0  0  0  0  0  0  0  0  0
  148.5559  140.6984  153.7700 H   0  0  0  0  0  0  0  0  0  0  0  0
  148.5093  143.0938  155.3327 H   0  0  0  0  0  0  0  0  0  0  0  0
  149.7835  143.4707  156.7677 H   0  0  0  0  0  0  0  0  0  0  0  0
  152.5345  140.1254  159.8685 H   0  0  0  0  0  0  0  0  0  0  0  0
  153.6786  142.1516  160.8059 H   0  0  0  0  0  0  0  0  0  0  0  0
  153.0901  144.3920  159.8637 H   0  0  0  0  0  0  0  0  0  0  0  0
  151.8569  145.7361  158.3543 H   0  0  0  0  0  0  0  0  0  0  0  0
  150.2318  145.1419  158.0157 H   0  0  0  0  0  0  0  0  0  0  0  0
  151.5126  144.9691  156.8049 H   0  0  0  0  0  0  0  0  0  0  0  0
  147.8373  142.9643  152.8775 H   0  0  0  0  0  0  0  0  0  0  0  0
  146.7268  141.6686  152.5301 H   0  0  0  0  0  0  0  0  0  0  0  0
  145.4761  143.6358  153.2679 H   0  0  0  0  0  0  0  0  0  0  0  0
  146.3927  143.7431  154.7546 H   0  0  0  0  0  0  0  0  0  0  0  0
  144.6803  141.4964  153.9686 H   0  0  0  0  0  0  0  0  0  0  0  0
  1  2  1  0  0  0  0
  1 23  1  0  0  0  0
  1 24  1  0  0  0  0
  1 25  1  0  0  0  0
  2  3  1  0  0  0  0
  3  4  2  0  0  0  0
  3  5  1  0  0  0  0
  5  6  1  0  0  0  0
  5 26  1  0  0  0  0
  5 27  1  0  0  0  0
  6 22  1  0  0  0  0
  6  7  1  0  0  0  0
  6 45  1  0  0  0  0
  7  8  1  0  0  0  0
  7 28  1  0  0  0  0
  7 29  1  0  0  0  0
  8  9  1  0  0  0  0
  8 30  1  0  0  0  0
  8 31  1  0  0  0  0
  9 10  1  0  0  0  0
  9 21  1  0  0  0  0
  9 32  1  0  0  0  0
 10 11  1  0  0  0  0
 10 33  1  0  0  0  0
 11 12  2  0  0  0  0
 11 13  1  0  0  0  0
 13 14  1  0  0  0  0
 13 34  1  0  0  0  0
 14 19  1  0  0  0  0
 14 15  2  0  0  0  0
 15 16  1  0  0  0  0
 16 17  2  0  0  0  0
 16 35  1  0  0  0  0
 17 18  1  0  0  0  0
 17 36  1  0  0  0  0
 18 19  2  0  0  0  0
 18 37  1  0  0  0  0
 19 20  1  0  0  0  0
 20 38  1  0  0  0  0
 20 39  1  0  0  0  0
 20 40  1  0  0  0  0
 21 22  1  0  0  0  0
 21 41  1  0  0  0  0
 21 42  1  0  0  0  0
 22 43  1  0  0  0  0
 22 44  1  0  0  0  0
M  CHG  1   2  -1
M  CHG  1   6   1
M  END
> <s_m_source_file>
AV-unprocessed.smi

> <i_m_source_file_index>
1388

> <i_lp_mmshare_version>
43012

> <i_f3d_flags>
0

> <s_epik_input>
W0NIM11bTkhdQyg9TylbQ0gyXU4xW0NIMl1bQ0gyXVtDSF0oW0NIMl1bQ0gyXTEpW05IXUMoPU8pW05IXWMybltjSF1bY0hdW2NIXWMyW0NIM10=

> <s_epik_cmdline>
J2VwaWtfcHl0aG9uJywgJy1waCcsICc3LjAnLCAnLXRuJywgJzgnLCAnLW1hJywgJzIwMCcsICctbWV0YWxfYmluZGluZycsICctaW1hZScsICc8aW5maWxlLm1hZT4nLCAnLW9tYWUnLCAnPG91dGZpbGUubWFlPic=

> <r_epik_Ionization_Penalty>
6.13951

> <r_epik_Ionization_Penalty_Charging>
6.13946

> <r_epik_Ionization_Penalty_Neutral>
4.54304e-05

> <r_epik_State_Penalty>
6.9595

> <r_epik_Charging_Adjusted_Penalty>
13.099

> <i_epik_Tot_Q>
0

> <i_epik_Tot_abs_Q>
2

> <r_epik_Metal_State_Penalty>
2.89141

> <b_epik_Metal_Only>
1

> <s_lp_Force_Field>
OPLS_2005

> <r_lp_Energy>
12.9207

> <b_lp_Chiralities_Consistent>
1

> <s_lp_Variant>
AV-unprocessed.smi:1388-5

> <Gold.Version>
5.8.1

> <Gold.Id.Protein>
6NUR|6NUR_protein|mol2

> <Gold.PLP.Fitness>
48.1455

> <Gold.PLP.PLP>
-36.8386

> <Gold.PLP.part.hbond>
-2.9878

> <Gold.PLP.part.metal>
0.0000

> <Gold.PLP.part.buried>
-6.8252

> <Gold.PLP.part.nonpolar>
-28.1260

> <Gold.PLP.part.repulsive>
0.3904

> <Gold.PLP.ligand.clash>
0.0000

> <Gold.PLP.ligand.torsion>
0.3654

> <Gold.PLP.Chemscore.Hbond>
3.9825

> <Gold.PLP.Chemscore.CHOScore>
0.0000

> <Gold.PLP.Chemscore.Metal>
0.0000

> <Gold.Chemscore.Hbonds>
donor molecule, donor type, donor heavy atom, donor atom, acceptor molecule, acceptor atom, score
      L1  H     6    45       P1 10175  1.98
      L1  H    10    33       P1  8028  1.00
      L1  H    13    34       P1  8028  1.00

> <Gold.PLP.Chemscore.Internal.Correction>
0.0902

> <Gold.Rescore>
     Score         DG    S(hbond)    S(metal)    S(lipo)     H(rot)  DE(clash)    DE(int)     intcor
     17.11     -21.42       2.75        0.00      93.28       1.63       2.72       1.59       ----

> <Gold.Chemscore.Fitness>
17.1142

> <Gold.Chemscore.DG>
-21.4198

> <Gold.Chemscore.ZeroCoef>
-5.4800

> <Gold.Chemscore.Hbond>
2.7544

> <Gold.Chemscore.Metal>
0.0000

> <Gold.Chemscore.Lipo>
93.2788

> <Gold.Chemscore.Internal_Hbond>
0.0000

> <Gold.Chemscore.DEClash>
2.7152

> <Gold.Chemscore.DEInternal>
1.5904

> <Gold.Chemscore.Rot>
1.6303

> <Gold.Chemscore.Internal.Correction>
   9.000000E+99

> <Gold.Chemscore.Hbonds>
donor molecule, donor type, donor heavy atom, donor atom, acceptor molecule, acceptor atom, score
      L1  H     6    45       P1 10175  0.24
      L1  H    10    33       P1  8028  0.99
      L1  H    13    34       P1  8028  0.94

> <Gold.Chemscore.Hbond.Weighted>
-9.1997

> <Gold.Chemscore.Metal.Weighted>
-0.0000

> <Gold.Chemscore.Lipo.Weighted>
-10.9136

> <Gold.Chemscore.Internal_Hbond.Weighted>
0.0000

> <Gold.Chemscore.DEClash.Weighted>
2.7152

> <Gold.Chemscore.DEInternal.Weighted>
1.5904

> <Gold.Chemscore.Rot.Weighted>
4.1735

> <Gold.Chemscore.Internal.Correction.Weighted>
   9.000000E+99

> <Gold.Protein.RotatedTorsions>
[ 6907 6896 6895 6894 ] final -141.18 input  -60.11 | X-H torsion
[ 7974 7965 7964 7962 ] final -165.14 input  175.53 | X-H torsion
[ 8008 7997 7996 7995 ] final -111.42 input   59.86 | X-H torsion
[ 10167 10162 10161 10158 ] final   19.84 input  -65.29 | X-H torsion
[ 10718 10713 10712 10709 ] final -158.08 input   66.30 | X-H torsion
[ 10763 10752 10751 10750 ] final  128.17 input  -60.55 | X-H torsion
[ 11005 11000 10999 10996 ] final  -80.67 input  -57.11 | X-H torsion

> <Gold.Protein.ActiveResidues>
 VAL166  LYS551  ARG553  GLY616  TRP617  ASP618  TYR619  PRO620  LYS621  CYS622 
 ASP623  PHE694  ASN695  SER759  ASP760  ASP761  ALA762  ILE779  LEU786  VAL792 
 PHE793  MET794  SER795  GLU796  ALA797  LYS798  CYS799  TRP800  GLU811  SER814 

> <Gold.Protein.RotatedAtoms>
  151.0704  133.5471  159.2627 H   0  0  0  0  0  0  0  0  0  0  0  0  # atno 6907 bound_to 6896
  151.2412  135.0589  159.9035 H   0  0  0  0  0  0  0  0  0  0  0  0  # atno 6908 bound_to 6896
  152.5410  134.0479  159.8150 H   0  0  0  0  0  0  0  0  0  0  0  0  # atno 6909 bound_to 6896
  144.7278  140.2857  143.6228 H   0  0  0  0  0  0  0  0  0  0  0  0  # atno 7974 bound_to 7965
  154.9896  140.0395  157.2313 H   0  0  0  0  0  0  0  0  0  0  0  0  # atno 8008 bound_to 7997
  154.7640  140.2790  155.6168 H   0  0  0  0  0  0  0  0  0  0  0  0  # atno 8009 bound_to 7997
  156.2909  140.2623  156.2426 H   0  0  0  0  0  0  0  0  0  0  0  0  # atno 8010 bound_to 7997
  140.5549  143.9443  150.6602 H   0  0  0  0  0  0  0  0  0  0  0  0  # atno 10167 bound_to 10162
  156.5492  130.8598  151.2774 H   0  0  0  0  0  0  0  0  0  0  0  0  # atno 10718 bound_to 10713
  153.7213  135.3253  155.3267 H   0  0  0  0  0  0  0  0  0  0  0  0  # atno 10763 bound_to 10752
  154.8355  135.4500  154.1215 H   0  0  0  0  0  0  0  0  0  0  0  0  # atno 10764 bound_to 10752
  153.2336  135.6963  153.7942 H   0  0  0  0  0  0  0  0  0  0  0  0  # atno 10765 bound_to 10752
  141.1667  133.7161  156.8308 H   0  0  0  0  0  0  0  0  0  0  0  0  # atno 11005 bound_to 11000
  145.7905  139.1925  143.2105 LP  0  0  0  0  0  0  0  0  0  0  0  0  # atno 17320 bound_to 7965
  146.0760  140.7817  142.9665 LP  0  0  0  0  0  0  0  0  0  0  0  0  # atno 17321 bound_to 7965
  140.2878  143.3345  152.1091 LP  0  0  0  0  0  0  0  0  0  0  0  0  # atno 17342 bound_to 10162
  139.5043  144.6773  151.6096 LP  0  0  0  0  0  0  0  0  0  0  0  0  # atno 17343 bound_to 10162
  157.7391  130.9825  150.2290 LP  0  0  0  0  0  0  0  0  0  0  0  0  # atno 17370 bound_to 10713
  156.2900  130.3744  149.7851 LP  0  0  0  0  0  0  0  0  0  0  0  0  # atno 17371 bound_to 10713
  140.2053  134.8867  157.3214 LP  0  0  0  0  0  0  0  0  0  0  0  0  # atno 17394 bound_to 11000
  140.2144  134.4099  155.7596 LP  0  0  0  0  0  0  0  0  0  0  0  0  # atno 17395 bound_to 11000

$$$$
