AV-unprocessed.smi:720|AV-procd|sdf|3502|dock9
  -GOLD-   22720 0493D 1   1.00000     0.00000
 Structure written by MMmdl.
 46 48  0  0  0  0  0  0  0  0  1 V2000
  144.8901  136.0282  151.5897 C   0  0  0  0  0  0  0  0  0  0  0  0
  144.8476  136.7355  152.8640 N   0  0  0  0  0  0  0  0  0  0  0  0
  143.4996  137.2559  153.0507 C   0  0  0  0  0  0  0  0  0  0  0  0
  145.7957  137.8501  152.9058 C   0  0  0  0  0  0  0  0  0  0  0  0
  146.0462  138.3991  154.3268 C   0  0  0  0  0  0  0  0  0  0  0  0
  146.8367  139.6181  154.3438 N   0  0  0  0  0  0  0  0  0  0  0  0
  147.3058  140.3510  153.2711 C   0  0  0  0  0  0  0  0  0  0  0  0
  147.9768  141.4306  153.7709 C   0  0  0  0  0  0  0  0  0  0  0  0
  147.8499  141.2708  155.1777 C   0  0  0  0  0  0  0  0  0  0  0  0
  148.4292  142.2115  156.0658 N   0  0  0  0  0  0  0  0  0  0  0  0
  149.0261  141.9712  157.2495 C   0  0  0  0  0  0  0  0  0  0  0  0
  149.1576  140.8568  157.7524 O   0  0  0  0  0  0  0  0  0  0  0  0
  149.4954  143.0724  157.8629 N   0  0  0  0  0  0  0  0  0  0  0  0
  150.1902  143.1596  159.1504 C   0  0  1  0  0  0  0  0  0  0  0  0
  151.4943  142.3318  159.1370 C   0  0  0  0  0  0  0  0  0  0  0  0
  152.5744  143.3750  159.4779 C   0  0  1  0  0  0  0  0  0  0  0  0
  152.7719  144.3236  158.2801 C   0  0  0  0  0  0  0  0  0  0  0  0
  151.4998  145.1912  158.3190 C   0  0  0  0  0  0  0  0  0  0  0  0
  150.7105  144.5795  159.4964 C   0  0  2  0  0  0  0  0  0  0  0  0
  151.8408  144.2662  160.4711 C   0  0  0  0  0  0  0  0  0  0  0  0
  147.1557  140.1956  155.5228 N   0  0  0  0  0  0  0  0  0  0  0  0
  145.8386  135.5112  151.4593 H   0  0  0  0  0  0  0  0  0  0  0  0
  144.7477  136.7089  150.7496 H   0  0  0  0  0  0  0  0  0  0  0  0
  144.1097  135.2673  151.5484 H   0  0  0  0  0  0  0  0  0  0  0  0
  143.4135  137.7663  154.0106 H   0  0  0  0  0  0  0  0  0  0  0  0
  142.7698  136.4456  153.0450 H   0  0  0  0  0  0  0  0  0  0  0  0
  143.2326  137.9619  152.2627 H   0  0  0  0  0  0  0  0  0  0  0  0
  146.7301  137.5865  152.4081 H   0  0  0  0  0  0  0  0  0  0  0  0
  145.3644  138.6661  152.3241 H   0  0  0  0  0  0  0  0  0  0  0  0
  145.0877  138.6384  154.7885 H   0  0  0  0  0  0  0  0  0  0  0  0
  146.5102  137.6428  154.9623 H   0  0  0  0  0  0  0  0  0  0  0  0
  147.1264  140.0444  152.2512 H   0  0  0  0  0  0  0  0  0  0  0  0
  148.4776  142.2103  153.2164 H   0  0  0  0  0  0  0  0  0  0  0  0
  148.4012  143.1741  155.7638 H   0  0  0  0  0  0  0  0  0  0  0  0
  149.3637  143.9474  157.3763 H   0  0  0  0  0  0  0  0  0  0  0  0
  149.5435  142.7885  159.9481 H   0  0  0  0  0  0  0  0  0  0  0  0
  151.4571  141.5536  159.9004 H   0  0  0  0  0  0  0  0  0  0  0  0
  151.6885  141.8431  158.1811 H   0  0  0  0  0  0  0  0  0  0  0  0
  153.5024  142.9377  159.8472 H   0  0  0  0  0  0  0  0  0  0  0  0
  153.6611  144.9411  158.4122 H   0  0  0  0  0  0  0  0  0  0  0  0
  152.8764  143.7822  157.3392 H   0  0  0  0  0  0  0  0  0  0  0  0
  151.7579  146.2289  158.5340 H   0  0  0  0  0  0  0  0  0  0  0  0
  150.9546  145.1836  157.3753 H   0  0  0  0  0  0  0  0  0  0  0  0
  149.9417  145.2435  159.8928 H   0  0  0  0  0  0  0  0  0  0  0  0
  151.5074  143.7358  161.3648 H   0  0  0  0  0  0  0  0  0  0  0  0
  152.4143  145.1457  160.7703 H   0  0  0  0  0  0  0  0  0  0  0  0
  1  2  1  0  0  0  0
  1 22  1  0  0  0  0
  1 23  1  0  0  0  0
  1 24  1  0  0  0  0
  2  3  1  0  0  0  0
  2  4  1  0  0  0  0
  3 25  1  0  0  0  0
  3 26  1  0  0  0  0
  3 27  1  0  0  0  0
  4  5  1  0  0  0  0
  4 28  1  0  0  0  0
  4 29  1  0  0  0  0
  5  6  1  0  0  0  0
  5 30  1  0  0  0  0
  5 31  1  0  0  0  0
  6 21  1  0  0  0  0
  6  7  1  0  0  0  0
  7  8  2  0  0  0  0
  7 32  1  0  0  0  0
  8  9  1  0  0  0  0
  8 33  1  0  0  0  0
  9 10  1  0  0  0  0
  9 21  2  0  0  0  0
 10 11  1  0  0  0  0
 10 34  1  0  0  0  0
 11 12  2  0  0  0  0
 11 13  1  0  0  0  0
 13 14  1  0  0  0  0
 13 35  1  0  0  0  0
 14 19  1  0  0  0  0
 14 15  1  0  0  0  0
 14 36  1  0  0  0  0
 15 16  1  0  0  0  0
 15 37  1  0  0  0  0
 15 38  1  0  0  0  0
 16 20  1  0  0  0  0
 16 17  1  0  0  0  0
 16 39  1  0  0  0  0
 17 18  1  0  0  0  0
 17 40  1  0  0  0  0
 17 41  1  0  0  0  0
 18 19  1  0  0  0  0
 18 42  1  0  0  0  0
 18 43  1  0  0  0  0
 19 20  1  0  0  0  0
 19 44  1  0  0  0  0
 20 45  1  0  0  0  0
 20 46  1  0  0  0  0
M  END
> <s_m_source_file>
AV-unprocessed.smi

> <i_m_source_file_index>
720

> <i_lp_mmshare_version>
43012

> <i_f3d_flags>
0

> <s_epik_input>
W0NIM11OKFtDSDNdKVtDSDJdW0NIMl1uMVtjSF1bY0hdYyhuMSlbTkhdQyg9TylbTkhdW0NASF0oW0NIMl1bQ0BIXTIzKVtDQEhdKFtDSDJdMylbQ0gyXVtDSDJdMg==

> <s_epik_cmdline>
J2VwaWtfcHl0aG9uJywgJy1waCcsICc3LjAnLCAnLXRuJywgJzgnLCAnLW1hJywgJzIwMCcsICctbWV0YWxfYmluZGluZycsICctaW1hZScsICc8aW5maWxlLm1hZT4nLCAnLW9tYWUnLCAnPG91dGZpbGUubWFlPic=

> <r_lp_tautomer_probability>
1

> <r_epik_Ionization_Penalty>
1.83819

> <r_epik_Ionization_Penalty_Charging>
0

> <r_epik_Ionization_Penalty_Neutral>
1.83819

> <r_epik_State_Penalty>
1.95467

> <r_epik_Charging_Adjusted_Penalty>
1.95467

> <i_epik_Tot_Q>
0

> <i_epik_Tot_abs_Q>
0

> <r_epik_Metal_State_Penalty>
1.95467

> <b_epik_Metal_Only>
0

> <s_lp_Force_Field>
OPLS_2005

> <r_lp_Energy>
62.953

> <b_lp_Chiralities_Consistent>
1

> <s_lp_Variant>
AV-unprocessed.smi:720-8

> <Gold.Version>
5.8.1

> <Gold.Id.Protein>
6NUR|6NUR_protein|mol2

> <Gold.PLP.Fitness>
43.4688

> <Gold.PLP.PLP>
-37.0980

> <Gold.PLP.part.hbond>
-2.0000

> <Gold.PLP.part.metal>
0.0000

> <Gold.PLP.part.buried>
-2.0296

> <Gold.PLP.part.nonpolar>
-33.1230

> <Gold.PLP.part.repulsive>
0.3369

> <Gold.PLP.ligand.clash>
0.0000

> <Gold.PLP.ligand.torsion>
0.4312

> <Gold.PLP.Chemscore.Hbond>
1.8960

> <Gold.PLP.Chemscore.CHOScore>
0.5025

> <Gold.PLP.Chemscore.Metal>
0.0000

> <Gold.Chemscore.Hbonds>
donor molecule, donor type, donor heavy atom, donor atom, acceptor molecule, acceptor atom, score
      L1  H    10    34       P1  8028  1.00
      L1  H    13    35       P1  8028  0.90
      L1  C     7    32       P1  7957  0.30

> <Gold.PLP.Chemscore.Internal.Correction>
0.0378

> <Gold.Rescore>
     Score         DG    S(hbond)    S(metal)    S(lipo)     H(rot)  DE(clash)    DE(int)     intcor
     17.75     -19.58       1.55        0.00     109.94       1.53       0.83       1.01       ----

> <Gold.Chemscore.Fitness>
17.7481

> <Gold.Chemscore.DG>
-19.5835

> <Gold.Chemscore.ZeroCoef>
-5.4800

> <Gold.Chemscore.Hbond>
1.5451

> <Gold.Chemscore.Metal>
0.0000

> <Gold.Chemscore.Lipo>
109.9385

> <Gold.Chemscore.Internal_Hbond>
0.0000

> <Gold.Chemscore.DEClash>
0.8281

> <Gold.Chemscore.DEInternal>
1.0073

> <Gold.Chemscore.Rot>
1.5312

> <Gold.Chemscore.Internal.Correction>
   9.000000E+99

> <Gold.Chemscore.Hbonds>
donor molecule, donor type, donor heavy atom, donor atom, acceptor molecule, acceptor atom, score
      L1  H    10    34       P1  8028  0.94
      L1  H    13    35       P1  8028  0.26

> <Gold.Chemscore.Hbond.Weighted>
-5.1606

> <Gold.Chemscore.Metal.Weighted>
-0.0000

> <Gold.Chemscore.Lipo.Weighted>
-12.8628

> <Gold.Chemscore.Internal_Hbond.Weighted>
0.0000

> <Gold.Chemscore.DEClash.Weighted>
0.8281

> <Gold.Chemscore.DEInternal.Weighted>
1.0073

> <Gold.Chemscore.Rot.Weighted>
3.9199

> <Gold.Chemscore.Internal.Correction.Weighted>
   9.000000E+99

> <Gold.Protein.RotatedTorsions>
[ 6907 6896 6895 6894 ] final  -91.01 input  -60.11 | X-H torsion
[ 7974 7965 7964 7962 ] final  178.37 input  175.53 | X-H torsion
[ 8008 7997 7996 7995 ] final  173.62 input   59.86 | X-H torsion
[ 10167 10162 10161 10158 ] final   62.06 input  -65.29 | X-H torsion
[ 10718 10713 10712 10709 ] final   91.88 input   66.30 | X-H torsion
[ 10763 10752 10751 10750 ] final  -25.21 input  -60.55 | X-H torsion
[ 11005 11000 10999 10996 ] final -162.92 input  -57.11 | X-H torsion

> <Gold.Protein.ActiveResidues>
 VAL166  LYS551  ARG553  GLY616  TRP617  ASP618  TYR619  PRO620  LYS621  CYS622 
 ASP623  PHE694  ASN695  SER759  ASP760  ASP761  ALA762  ILE779  LEU786  VAL792 
 PHE793  MET794  SER795  GLU796  ALA797  LYS798  CYS799  TRP800  GLU811  SER814 

> <Gold.Protein.RotatedAtoms>
  150.6888  134.2343  159.4446 H   0  0  0  0  0  0  0  0  0  0  0  0  # atno 6907 bound_to 6896
  152.0291  134.9775  160.0581 H   0  0  0  0  0  0  0  0  0  0  0  0  # atno 6908 bound_to 6896
  152.1322  133.4379  159.4763 H   0  0  0  0  0  0  0  0  0  0  0  0  # atno 6909 bound_to 6896
  144.7157  140.0387  143.6438 H   0  0  0  0  0  0  0  0  0  0  0  0  # atno 7974 bound_to 7965
  156.1056  140.1455  156.9408 H   0  0  0  0  0  0  0  0  0  0  0  0  # atno 8008 bound_to 7997
  154.4732  140.0903  156.7241 H   0  0  0  0  0  0  0  0  0  0  0  0  # atno 8009 bound_to 7997
  155.4684  140.3441  155.4324 H   0  0  0  0  0  0  0  0  0  0  0  0  # atno 8010 bound_to 7997
  140.1480  144.4490  150.6774 H   0  0  0  0  0  0  0  0  0  0  0  0  # atno 10167 bound_to 10162
  157.6959  131.0423  150.3797 H   0  0  0  0  0  0  0  0  0  0  0  0  # atno 10718 bound_to 10713
  153.6961  135.6959  153.5076 H   0  0  0  0  0  0  0  0  0  0  0  0  # atno 10763 bound_to 10752
  153.2377  135.4316  155.0663 H   0  0  0  0  0  0  0  0  0  0  0  0  # atno 10764 bound_to 10752
  154.8358  135.3500  154.6502 H   0  0  0  0  0  0  0  0  0  0  0  0  # atno 10765 bound_to 10752
  140.6039  134.4919  157.5208 H   0  0  0  0  0  0  0  0  0  0  0  0  # atno 11005 bound_to 11000
  146.0042  139.3116  143.0909 LP  0  0  0  0  0  0  0  0  0  0  0  0  # atno 17320 bound_to 7965
  145.8758  140.9392  143.0627 LP  0  0  0  0  0  0  0  0  0  0  0  0  # atno 17321 bound_to 7965
  140.6720  143.2289  151.5602 LP  0  0  0  0  0  0  0  0  0  0  0  0  # atno 17342 bound_to 10162
  139.5439  144.2572  152.1405 LP  0  0  0  0  0  0  0  0  0  0  0  0  # atno 17343 bound_to 10162
  156.4212  130.3953  149.6823 LP  0  0  0  0  0  0  0  0  0  0  0  0  # atno 17370 bound_to 10713
  156.4074  130.7705  151.2716 LP  0  0  0  0  0  0  0  0  0  0  0  0  # atno 17371 bound_to 10713
  139.9221  134.8129  156.1181 LP  0  0  0  0  0  0  0  0  0  0  0  0  # atno 17394 bound_to 11000
  141.0854  133.6736  156.2424 LP  0  0  0  0  0  0  0  0  0  0  0  0  # atno 17395 bound_to 11000

$$$$
