AV-unprocessed.smi:21|AV-procd|sdf|132|dock9
  -GOLD-   2262015323D 1   1.00000     0.00000
 Structure written by MMmdl.
 62 65  0  0  0  0  0  0  0  0  2 V2000
  144.5389  132.0236  150.4352 C   0  0  0  0  0  0  0  0  0  0  0  0
  144.4822  133.2315  151.1769 O   0  0  0  0  0  0  0  0  0  0  0  0
  145.7579  133.7285  151.5542 C   0  0  2  0  0  0  0  0  0  0  0  0
  146.4325  132.8926  152.6363 C   0  0  0  0  0  0  0  0  0  0  0  0
  147.4098  133.8679  153.3121 C   0  0  2  0  0  0  0  0  0  0  0  0
  147.7270  133.5091  154.7873 C   0  0  0  0  0  0  0  0  0  0  0  0
  149.0110  134.0374  155.2520 N   0  0  0  0  0  0  0  0  0  0  0  0
  150.1574  133.1320  155.2239 C   0  0  0  0  0  0  0  0  0  0  0  0
  149.0271  135.0678  156.1440 C   0  0  0  0  0  0  0  0  0  0  0  0
  147.9510  135.2438  156.9579 N   0  0  0  0  0  0  0  0  0  0  0  0
  147.9091  136.2557  157.8281 C   0  0  0  0  0  0  0  0  0  0  0  0
  148.8227  137.2002  158.0504 N   0  0  0  0  0  0  0  0  0  0  0  0
  149.9122  137.0301  157.2495 C   0  0  0  0  0  0  0  0  0  0  0  0
  150.0993  136.0008  156.2811 C   0  0  0  0  0  0  0  0  0  0  0  0
  151.3434  136.1554  155.6780 N   0  0  0  0  0  0  0  0  0  0  0  0
  151.8526  137.2148  156.2436 C   0  0  0  0  0  0  0  0  0  0  0  0
  151.0615  137.7996  157.2040 N   0  0  0  0  0  0  0  0  0  0  0  0
  151.3812  138.9820  157.9864 C   0  0  0  0  0  0  0  0  0  0  0  0
  150.7750  140.2869  157.4099 C   0  0  2  0  0  0  0  0  0  0  0  0
  150.5074  140.1578  155.8876 C   0  0  0  0  0  0  0  0  0  0  0  0
  151.7067  140.0329  155.1527 O   0  0  0  0  0  0  0  0  0  0  0  0
  151.6887  141.4980  157.7475 C   0  0  1  0  0  0  0  0  0  0  0  0
  151.1241  142.8673  157.4073 C   0  0  0  0  0  0  0  0  0  0  0  0
  151.9818  143.8002  158.2548 C   0  0  0  0  0  0  0  0  0  0  0  0
  152.3248  143.0571  159.4179 O   0  0  0  0  0  0  0  0  0  0  0  0
  151.9706  141.6894  159.2428 C   0  0  0  0  0  0  0  0  0  0  0  0
  146.8341  135.2280  153.0862 N   0  3  2  0  0  0  0  0  0  0  0  0
  146.6237  136.1002  154.2659 C   0  0  0  0  0  0  0  0  0  0  0  0
  145.6230  135.0802  152.2485 C   0  0  0  0  0  0  0  0  0  0  0  0
  146.4127  133.8294  150.6864 H   0  0  0  0  0  0  0  0  0  0  0  0
  148.3423  133.8585  152.7460 H   0  0  0  0  0  0  0  0  0  0  0  0
  143.5315  131.7308  150.1398 H   0  0  0  0  0  0  0  0  0  0  0  0
  144.9607  131.2097  151.0256 H   0  0  0  0  0  0  0  0  0  0  0  0
  145.1326  132.1435  149.5282 H   0  0  0  0  0  0  0  0  0  0  0  0
  145.6797  132.5606  153.3525 H   0  0  0  0  0  0  0  0  0  0  0  0
  146.9295  132.0079  152.2374 H   0  0  0  0  0  0  0  0  0  0  0  0
  146.9676  133.9420  155.4381 H   0  0  0  0  0  0  0  0  0  0  0  0
  147.6556  132.4359  154.9406 H   0  0  0  0  0  0  0  0  0  0  0  0
  151.0919  133.6909  155.1584 H   0  0  0  0  0  0  0  0  0  0  0  0
  150.1079  132.4712  154.3583 H   0  0  0  0  0  0  0  0  0  0  0  0
  150.1853  132.5124  156.1211 H   0  0  0  0  0  0  0  0  0  0  0  0
  147.0151  136.3177  158.4313 H   0  0  0  0  0  0  0  0  0  0  0  0
  152.8273  137.5985  155.9791 H   0  0  0  0  0  0  0  0  0  0  0  0
  151.0186  138.8006  158.9981 H   0  0  0  0  0  0  0  0  0  0  0  0
  152.4655  139.0735  158.0604 H   0  0  0  0  0  0  0  0  0  0  0  0
  149.8143  140.4371  157.9053 H   0  0  0  0  0  0  0  0  0  0  0  0
  149.8581  139.3071  155.6788 H   0  0  0  0  0  0  0  0  0  0  0  0
  150.0046  141.0385  155.4908 H   0  0  0  0  0  0  0  0  0  0  0  0
  152.4070  140.4257  155.6514 H   0  0  0  0  0  0  0  0  0  0  0  0
  152.6430  141.3834  157.2302 H   0  0  0  0  0  0  0  0  0  0  0  0
  151.1840  143.1077  156.3459 H   0  0  0  0  0  0  0  0  0  0  0  0
  150.0801  142.9367  157.7167 H   0  0  0  0  0  0  0  0  0  0  0  0
  152.8994  144.0606  157.7257 H   0  0  0  0  0  0  0  0  0  0  0  0
  151.4637  144.7248  158.5101 H   0  0  0  0  0  0  0  0  0  0  0  0
  151.0749  141.4912  159.8334 H   0  0  0  0  0  0  0  0  0  0  0  0
  152.7650  141.0367  159.6057 H   0  0  0  0  0  0  0  0  0  0  0  0
  145.9273  135.6530  154.9762 H   0  0  0  0  0  0  0  0  0  0  0  0
  146.2096  137.0587  153.9511 H   0  0  0  0  0  0  0  0  0  0  0  0
  147.5645  136.3083  154.7752 H   0  0  0  0  0  0  0  0  0  0  0  0
  145.5152  135.9054  151.5442 H   0  0  0  0  0  0  0  0  0  0  0  0
  144.7385  135.0703  152.8888 H   0  0  0  0  0  0  0  0  0  0  0  0
  147.5109  135.7053  152.5077 H   0  0  0  0  0  0  0  0  0  0  0  0
  1  2  1  0  0  0  0
  1 32  1  0  0  0  0
  1 33  1  0  0  0  0
  1 34  1  0  0  0  0
  2  3  1  0  0  0  0
  3 30  1  0  0  0  0
  3 29  1  0  0  0  0
  3  4  1  0  0  0  0
  4  5  1  0  0  0  0
  4 35  1  0  0  0  0
  4 36  1  0  0  0  0
  5 31  1  0  0  0  0
  5  6  1  0  0  0  0
  5 27  1  0  0  0  0
  6  7  1  0  0  0  0
  6 37  1  0  0  0  0
  6 38  1  0  0  0  0
  7  8  1  0  0  0  0
  7  9  1  0  0  0  0
  8 39  1  0  0  0  0
  8 40  1  0  0  0  0
  8 41  1  0  0  0  0
  9 14  1  0  0  0  0
  9 10  2  0  0  0  0
 10 11  1  0  0  0  0
 11 12  2  0  0  0  0
 11 42  1  0  0  0  0
 12 13  1  0  0  0  0
 13 17  1  0  0  0  0
 13 14  2  0  0  0  0
 14 15  1  0  0  0  0
 15 16  2  0  0  0  0
 16 17  1  0  0  0  0
 16 43  1  0  0  0  0
 17 18  1  0  0  0  0
 18 19  1  0  0  0  0
 18 44  1  0  0  0  0
 18 45  1  0  0  0  0
 19 20  1  0  0  0  0
 19 22  1  0  0  0  0
 19 46  1  0  0  0  0
 20 21  1  0  0  0  0
 20 47  1  0  0  0  0
 20 48  1  0  0  0  0
 21 49  1  0  0  0  0
 22 26  1  0  0  0  0
 22 23  1  0  0  0  0
 22 50  1  0  0  0  0
 23 24  1  0  0  0  0
 23 51  1  0  0  0  0
 23 52  1  0  0  0  0
 24 25  1  0  0  0  0
 24 53  1  0  0  0  0
 24 54  1  0  0  0  0
 25 26  1  0  0  0  0
 26 55  1  0  0  0  0
 26 56  1  0  0  0  0
 27 28  1  0  0  0  0
 27 29  1  0  0  0  0
 27 62  1  0  0  0  0
 28 57  1  0  0  0  0
 28 58  1  0  0  0  0
 28 59  1  0  0  0  0
 29 60  1  0  0  0  0
 29 61  1  0  0  0  0
M  CHG  1  27   1
M  END
> <s_m_source_file>
AV-unprocessed.smi

> <i_m_source_file_index>
21

> <i_lp_mmshare_version>
43012

> <i_f3d_flags>
0

> <s_epik_input>
W0NIM11PW0NASF0xW0NIMl1bQ0BIXShOKFtDSDNdKVtDSDJdMSlbQ0gyXU4oW0NIM10pYyhuW2NIXW4yKWMoYzIzKW5bY0hdbjNbQ0gyXVtDQEhdKFtDSDJdW09IXSlbQ0BASF00W0NIMl1bQ0gyXU9bQ0gyXTQ=

> <s_epik_cmdline>
J2VwaWtfcHl0aG9uJywgJy1waCcsICc3LjAnLCAnLXRuJywgJzgnLCAnLW1hJywgJzIwMCcsICctbWV0YWxfYmluZGluZycsICctaW1hZScsICc8aW5maWxlLm1hZT4nLCAnLW9tYWUnLCAnPG91dGZpbGUubWFlPic=

> <r_lp_tautomer_probability>
1

> <r_epik_Ionization_Penalty>
0.0157465

> <r_epik_Ionization_Penalty_Charging>
0.015354

> <r_epik_Ionization_Penalty_Neutral>
0.000392529

> <r_epik_State_Penalty>
0.0120612

> <r_epik_Charging_Adjusted_Penalty>
0.0274152

> <i_epik_Tot_Q>
1

> <i_epik_Tot_abs_Q>
1

> <r_epik_Metal_State_Penalty>
0.0121253

> <b_epik_Metal_Only>
0

> <s_lp_Force_Field>
OPLS_2005

> <r_lp_Energy>
62.0887

> <b_lp_Chiralities_Consistent>
1

> <s_lp_Variant>
AV-unprocessed.smi:21-12

> <Gold.Version>
5.8.1

> <Gold.Id.Protein>
6NUR|6NUR_protein|mol2

> <Gold.PLP.Fitness>
46.7902

> <Gold.PLP.PLP>
-37.8259

> <Gold.PLP.part.hbond>
-3.0000

> <Gold.PLP.part.metal>
0.0000

> <Gold.PLP.part.buried>
-7.0174

> <Gold.PLP.part.nonpolar>
-28.7069

> <Gold.PLP.part.repulsive>
0.1828

> <Gold.PLP.ligand.clash>
0.0000

> <Gold.PLP.ligand.torsion>
1.8899

> <Gold.PLP.Chemscore.Hbond>
3.9760

> <Gold.PLP.Chemscore.CHOScore>
0.0000

> <Gold.PLP.Chemscore.Metal>
0.0000

> <Gold.Chemscore.Hbonds>
donor molecule, donor type, donor heavy atom, donor atom, acceptor molecule, acceptor atom, score
      L1  H    27    62       P1  7948  2.00
      P1  H  7989  7998       L1    21  0.98
      P1  H 10752 10763       L1    15  0.85

> <Gold.PLP.Chemscore.Internal.Correction>
0.8160

> <Gold.Rescore>
     Score         DG    S(hbond)    S(metal)    S(lipo)     H(rot)  DE(clash)    DE(int)     intcor
     15.15     -16.90       2.49        0.00      93.86       3.08       0.05       1.70       ----

> <Gold.Chemscore.Fitness>
15.1514

> <Gold.Chemscore.DG>
-16.8971

> <Gold.Chemscore.ZeroCoef>
-5.4800

> <Gold.Chemscore.Hbond>
2.4879

> <Gold.Chemscore.Metal>
0.0000

> <Gold.Chemscore.Lipo>
93.8598

> <Gold.Chemscore.Internal_Hbond>
0.0000

> <Gold.Chemscore.DEClash>
0.0485

> <Gold.Chemscore.DEInternal>
1.6972

> <Gold.Chemscore.Rot>
3.0758

> <Gold.Chemscore.Internal.Correction>
   9.000000E+99

> <Gold.Chemscore.Hbonds>
donor molecule, donor type, donor heavy atom, donor atom, acceptor molecule, acceptor atom, score
      L1  H    27    62       P1  7948  1.00
      P1  H  7989  7998       L1    21  0.50
      P1  H 10752 10763       L1    15  0.14

> <Gold.Chemscore.Hbond.Weighted>
-8.3096

> <Gold.Chemscore.Metal.Weighted>
-0.0000

> <Gold.Chemscore.Lipo.Weighted>
-10.9816

> <Gold.Chemscore.Internal_Hbond.Weighted>
0.0000

> <Gold.Chemscore.DEClash.Weighted>
0.0485

> <Gold.Chemscore.DEInternal.Weighted>
1.6972

> <Gold.Chemscore.Rot.Weighted>
7.8741

> <Gold.Chemscore.Internal.Correction.Weighted>
   9.000000E+99

> <Gold.Protein.RotatedTorsions>
[ 6907 6896 6895 6894 ] final  128.75 input  -60.11 | X-H torsion
[ 7974 7965 7964 7962 ] final  -40.46 input  175.53 | X-H torsion
[ 8008 7997 7996 7995 ] final   31.83 input   59.86 | X-H torsion
[ 10167 10162 10161 10158 ] final  108.57 input  -65.29 | X-H torsion
[ 10718 10713 10712 10709 ] final  -83.72 input   66.30 | X-H torsion
[ 10763 10752 10751 10750 ] final   70.47 input  -60.55 | X-H torsion
[ 11005 11000 10999 10996 ] final    5.80 input  -57.11 | X-H torsion

> <Gold.Protein.ActiveResidues>
 VAL166  LYS551  ARG553  GLY616  TRP617  ASP618  TYR619  PRO620  LYS621  CYS622 
 ASP623  PHE694  ASN695  SER759  ASP760  ASP761  ALA762  ILE779  LEU786  VAL792 
 PHE793  MET794  SER795  GLU796  ALA797  LYS798  CYS799  TRP800  GLU811  SER814 

> <Gold.Protein.RotatedAtoms>
  152.3690  133.6394  159.6071 H   0  0  0  0  0  0  0  0  0  0  0  0  # atno 6907 bound_to 6896
  150.7654  133.9302  159.3433 H   0  0  0  0  0  0  0  0  0  0  0  0  # atno 6908 bound_to 6896
  151.7127  135.0910  160.0322 H   0  0  0  0  0  0  0  0  0  0  0  0  # atno 6909 bound_to 6896
  146.0303  140.6740  142.9136 H   0  0  0  0  0  0  0  0  0  0  0  0  # atno 7974 bound_to 7965
  155.1128  140.3240  155.4517 H   0  0  0  0  0  0  0  0  0  0  0  0  # atno 8008 bound_to 7997
  156.2685  140.2041  156.6199 H   0  0  0  0  0  0  0  0  0  0  0  0  # atno 8009 bound_to 7997
  154.6743  140.0533  157.0186 H   0  0  0  0  0  0  0  0  0  0  0  0  # atno 8010 bound_to 7997
  139.6836  144.7116  151.1473 H   0  0  0  0  0  0  0  0  0  0  0  0  # atno 10167 bound_to 10162
  156.0015  130.4675  150.4301 H   0  0  0  0  0  0  0  0  0  0  0  0  # atno 10718 bound_to 10713
  153.0343  135.5173  154.7445 H   0  0  0  0  0  0  0  0  0  0  0  0  # atno 10763 bound_to 10752
  154.6435  135.2915  155.0077 H   0  0  0  0  0  0  0  0  0  0  0  0  # atno 10764 bound_to 10752
  154.0987  135.6639  153.4917 H   0  0  0  0  0  0  0  0  0  0  0  0  # atno 10765 bound_to 10752
  140.5667  134.0141  155.7992 H   0  0  0  0  0  0  0  0  0  0  0  0  # atno 11005 bound_to 11000
  144.7027  140.3723  143.7143 LP  0  0  0  0  0  0  0  0  0  0  0  0  # atno 17320 bound_to 7965
  145.7052  139.1671  143.2570 LP  0  0  0  0  0  0  0  0  0  0  0  0  # atno 17321 bound_to 7965
  140.7660  143.5663  150.9044 LP  0  0  0  0  0  0  0  0  0  0  0  0  # atno 17342 bound_to 10162
  139.9337  143.6464  152.3070 LP  0  0  0  0  0  0  0  0  0  0  0  0  # atno 17343 bound_to 10162
  157.2350  131.0512  151.2470 LP  0  0  0  0  0  0  0  0  0  0  0  0  # atno 17370 bound_to 10713
  157.3675  130.7163  149.6542 LP  0  0  0  0  0  0  0  0  0  0  0  0  # atno 17371 bound_to 10713
  141.1081  133.9660  157.2959 LP  0  0  0  0  0  0  0  0  0  0  0  0  # atno 17394 bound_to 11000
  139.9381  135.0194  156.8622 LP  0  0  0  0  0  0  0  0  0  0  0  0  # atno 17395 bound_to 11000

$$$$
