AV-unprocessed.smi:702|AV-procd|sdf|3423|dock1
  -GOLD-   22720 0403D 1   1.00000     0.00000
 Structure written by MMmdl.
 50 52  0  0  0  0  0  0  0  0  2 V2000
  146.5152  138.5950  156.6545 C   0  0  0  0  0  0  0  0  0  0  0  0
  146.5406  139.0065  155.1692 C   0  0  1  0  0  0  0  0  0  0  0  0
  145.1556  139.1219  154.6964 N   0  0  0  0  0  0  0  0  0  0  0  0
  144.2156  138.1652  154.7230 C   0  0  0  0  0  0  0  0  0  0  0  0
  144.3988  137.0364  155.1772 O   0  0  0  0  0  0  0  0  0  0  0  0
  143.0715  138.6000  154.1674 N   0  0  0  0  0  0  0  0  0  0  0  0
  141.8587  137.8869  153.9679 C   0  0  0  0  0  0  0  0  0  0  0  0
  141.9163  136.4760  154.0048 C   0  0  0  0  0  0  0  0  0  0  0  0
  140.7408  135.7258  153.7980 C   0  0  0  0  0  0  0  0  0  0  0  0
  139.5729  136.3592  153.5567 N   0  3  0  0  0  0  0  0  0  0  0  0
  139.4707  137.7041  153.4971 C   0  0  0  0  0  0  0  0  0  0  0  0
  140.6124  138.5070  153.6960 C   0  0  0  0  0  0  0  0  0  0  0  0
  147.3824  140.3084  154.8871 C   0  0  0  0  0  0  0  0  0  0  0  0
  148.8157  140.1209  155.2718 N   0  0  0  0  0  0  0  0  0  0  0  0
  149.6426  141.3390  155.2518 C   0  0  0  0  0  0  0  0  0  0  0  0
  151.0667  141.0847  155.7723 C   0  0  0  0  0  0  0  0  0  0  0  0
  151.6810  140.0646  154.9959 O   0  0  0  0  0  0  0  0  0  0  0  0
  150.9532  138.8442  155.0386 C   0  0  0  0  0  0  0  0  0  0  0  0
  149.5200  139.0685  154.5261 C   0  0  0  0  0  0  0  0  0  0  0  0
  147.2110  140.7151  153.3881 C   0  0  0  0  0  0  0  0  0  0  0  0
  146.3010  141.9446  153.3462 C   0  0  0  0  0  0  0  0  0  0  0  0
  146.5626  142.6479  154.6697 C   0  0  0  0  0  0  0  0  0  0  0  0
  146.7335  141.5005  155.6663 C   0  0  0  0  0  0  0  0  0  0  0  0
  147.5179  138.4026  157.0358 H   0  0  0  0  0  0  0  0  0  0  0  0
  145.9397  137.6794  156.7942 H   0  0  0  0  0  0  0  0  0  0  0  0
  146.0649  139.3641  157.2819 H   0  0  0  0  0  0  0  0  0  0  0  0
  146.9906  138.1787  154.6236 H   0  0  0  0  0  0  0  0  0  0  0  0
  144.9019  140.0129  154.2955 H   0  0  0  0  0  0  0  0  0  0  0  0
  143.0989  139.5284  153.7716 H   0  0  0  0  0  0  0  0  0  0  0  0
  142.8511  135.9688  154.1963 H   0  0  0  0  0  0  0  0  0  0  0  0
  140.7005  134.6463  153.8168 H   0  0  0  0  0  0  0  0  0  0  0  0
  138.4861  138.0961  153.2878 H   0  0  0  0  0  0  0  0  0  0  0  0
  140.5116  139.5791  153.6243 H   0  0  0  0  0  0  0  0  0  0  0  0
  149.7148  141.7415  154.2426 H   0  0  0  0  0  0  0  0  0  0  0  0
  149.2062  142.1237  155.8657 H   0  0  0  0  0  0  0  0  0  0  0  0
  151.6640  141.9938  155.7005 H   0  0  0  0  0  0  0  0  0  0  0  0
  151.0492  140.7946  156.8240 H   0  0  0  0  0  0  0  0  0  0  0  0
  151.4634  138.1040  154.4221 H   0  0  0  0  0  0  0  0  0  0  0  0
  150.9404  138.4558  156.0582 H   0  0  0  0  0  0  0  0  0  0  0  0
  149.0053  138.1145  154.6089 H   0  0  0  0  0  0  0  0  0  0  0  0
  149.5539  139.3174  153.4652 H   0  0  0  0  0  0  0  0  0  0  0  0
  148.1591  140.9845  152.9269 H   0  0  0  0  0  0  0  0  0  0  0  0
  146.8165  139.9085  152.7695 H   0  0  0  0  0  0  0  0  0  0  0  0
  146.4997  142.5835  152.4855 H   0  0  0  0  0  0  0  0  0  0  0  0
  145.2572  141.6332  153.2945 H   0  0  0  0  0  0  0  0  0  0  0  0
  147.4821  143.2300  154.6023 H   0  0  0  0  0  0  0  0  0  0  0  0
  145.7581  143.3292  154.9480 H   0  0  0  0  0  0  0  0  0  0  0  0
  145.7428  141.2545  156.0458 H   0  0  0  0  0  0  0  0  0  0  0  0
  147.2918  141.8007  156.5530 H   0  0  0  0  0  0  0  0  0  0  0  0
  138.7334  135.7983  153.4082 H   0  0  0  0  0  0  0  0  0  0  0  0
  1  2  1  0  0  0  0
  1 24  1  0  0  0  0
  1 25  1  0  0  0  0
  1 26  1  0  0  0  0
  2  3  1  0  0  0  0
  2 13  1  0  0  0  0
  2 27  1  0  0  0  0
  3  4  1  0  0  0  0
  3 28  1  0  0  0  0
  4  5  2  0  0  0  0
  4  6  1  0  0  0  0
  6  7  1  0  0  0  0
  6 29  1  0  0  0  0
  7 12  1  0  0  0  0
  7  8  2  0  0  0  0
  8  9  1  0  0  0  0
  8 30  1  0  0  0  0
  9 10  2  0  0  0  0
  9 31  1  0  0  0  0
 10 11  1  0  0  0  0
 10 50  1  0  0  0  0
 11 12  2  0  0  0  0
 11 32  1  0  0  0  0
 12 33  1  0  0  0  0
 13 23  1  0  0  0  0
 13 14  1  0  0  0  0
 13 20  1  0  0  0  0
 14 19  1  0  0  0  0
 14 15  1  0  0  0  0
 15 16  1  0  0  0  0
 15 34  1  0  0  0  0
 15 35  1  0  0  0  0
 16 17  1  0  0  0  0
 16 36  1  0  0  0  0
 16 37  1  0  0  0  0
 17 18  1  0  0  0  0
 18 19  1  0  0  0  0
 18 38  1  0  0  0  0
 18 39  1  0  0  0  0
 19 40  1  0  0  0  0
 19 41  1  0  0  0  0
 20 21  1  0  0  0  0
 20 42  1  0  0  0  0
 20 43  1  0  0  0  0
 21 22  1  0  0  0  0
 21 44  1  0  0  0  0
 21 45  1  0  0  0  0
 22 23  1  0  0  0  0
 22 46  1  0  0  0  0
 22 47  1  0  0  0  0
 23 48  1  0  0  0  0
 23 49  1  0  0  0  0
M  CHG  1  10   1
M  END
> <s_m_source_file>
AV-unprocessed.smi

> <i_m_source_file_index>
702

> <i_lp_mmshare_version>
43012

> <i_f3d_flags>
0

> <s_epik_input>
W0NIMl0xW0NIMl1PW0NIMl1bQ0gyXU4xQzIoW0NIMl1bQ0gyXVtDSDJdW0NIMl0yKVtDQEhdKFtDSDNdKVtOSF1DKD1PKVtOSF1jM1tjSF1bY0hdbltjSF1bY0hdMw==

> <s_epik_cmdline>
J2VwaWtfcHl0aG9uJywgJy1waCcsICc3LjAnLCAnLXRuJywgJzgnLCAnLW1hJywgJzIwMCcsICctbWV0YWxfYmluZGluZycsICctaW1hZScsICc8aW5maWxlLm1hZT4nLCAnLW9tYWUnLCAnPG91dGZpbGUubWFlPic=

> <r_epik_Ionization_Penalty>
1.54019

> <r_epik_Ionization_Penalty_Charging>
1.02845

> <r_epik_Ionization_Penalty_Neutral>
0.511739

> <r_epik_State_Penalty>
1.62583

> <r_epik_Charging_Adjusted_Penalty>
2.65428

> <i_epik_Tot_Q>
1

> <i_epik_Tot_abs_Q>
1

> <r_epik_Metal_State_Penalty>
1.71803

> <b_epik_Metal_Only>
0

> <s_lp_Force_Field>
OPLS_2005

> <r_lp_Energy>
72.2563

> <b_lp_Chiralities_Consistent>
1

> <s_lp_Variant>
AV-unprocessed.smi:702-8

> <Gold.Version>
5.8.1

> <Gold.Id.Protein>
6NUR|6NUR_protein|mol2

> <Gold.PLP.Fitness>
41.3850

> <Gold.PLP.PLP>
-34.6514

> <Gold.PLP.part.hbond>
-3.8544

> <Gold.PLP.part.metal>
0.0000

> <Gold.PLP.part.buried>
-4.2842

> <Gold.PLP.part.nonpolar>
-27.1436

> <Gold.PLP.part.repulsive>
0.2524

> <Gold.PLP.ligand.clash>
0.0000

> <Gold.PLP.ligand.torsion>
0.1891

> <Gold.PLP.Chemscore.Hbond>
2.3272

> <Gold.PLP.Chemscore.CHOScore>
0.0000

> <Gold.PLP.Chemscore.Metal>
0.0000

> <Gold.Chemscore.Hbonds>
donor molecule, donor type, donor heavy atom, donor atom, acceptor molecule, acceptor atom, score
      L1  H     3    28       P1 10175  0.30
      L1  H     6    29       P1 10175  0.91
      P1  H  7989  7998       L1    17  0.89

> <Gold.PLP.Chemscore.Internal.Correction>
0.1302

> <Gold.Rescore>
     Score         DG    S(hbond)    S(metal)    S(lipo)     H(rot)  DE(clash)    DE(int)     intcor
     15.60     -18.86       2.12        0.00      85.39       1.44       0.44       2.83       ----

> <Gold.Chemscore.Fitness>
15.5964

> <Gold.Chemscore.DG>
-18.8646

> <Gold.Chemscore.ZeroCoef>
-5.4800

> <Gold.Chemscore.Hbond>
2.1195

> <Gold.Chemscore.Metal>
0.0000

> <Gold.Chemscore.Lipo>
85.3874

> <Gold.Chemscore.Internal_Hbond>
0.0000

> <Gold.Chemscore.DEClash>
0.4411

> <Gold.Chemscore.DEInternal>
2.8271

> <Gold.Chemscore.Rot>
1.4394

> <Gold.Chemscore.Internal.Correction>
   9.000000E+99

> <Gold.Chemscore.Hbonds>
donor molecule, donor type, donor heavy atom, donor atom, acceptor molecule, acceptor atom, score
      L1  H     3    28       P1 10175  0.30
      L1  H     6    29       P1 10175  0.89
      P1  H  7989  7998       L1    17  0.16

> <Gold.Chemscore.Hbond.Weighted>
-7.0792

> <Gold.Chemscore.Metal.Weighted>
-0.0000

> <Gold.Chemscore.Lipo.Weighted>
-9.9903

> <Gold.Chemscore.Internal_Hbond.Weighted>
0.0000

> <Gold.Chemscore.DEClash.Weighted>
0.4411

> <Gold.Chemscore.DEInternal.Weighted>
2.8271

> <Gold.Chemscore.Rot.Weighted>
3.6848

> <Gold.Chemscore.Internal.Correction.Weighted>
   9.000000E+99

> <Gold.Protein.RotatedTorsions>
[ 6907 6896 6895 6894 ] final  151.06 input  -60.11 | X-H torsion
[ 7974 7965 7964 7962 ] final -154.30 input  175.53 | X-H torsion
[ 8008 7997 7996 7995 ] final   50.37 input   59.86 | X-H torsion
[ 10167 10162 10161 10158 ] final  -61.41 input  -65.29 | X-H torsion
[ 10718 10713 10712 10709 ] final   68.72 input   66.30 | X-H torsion
[ 10763 10752 10751 10750 ] final   56.19 input  -60.55 | X-H torsion
[ 11005 11000 10999 10996 ] final -173.10 input  -57.11 | X-H torsion

> <Gold.Protein.ActiveResidues>
 VAL166  LYS551  ARG553  GLY616  TRP617  ASP618  TYR619  PRO620  LYS621  CYS622 
 ASP623  PHE694  ASN695  SER759  ASP760  ASP761  ALA762  ILE779  LEU786  VAL792 
 PHE793  MET794  SER795  GLU796  ALA797  LYS798  CYS799  TRP800  GLU811  SER814 

> <Gold.Protein.RotatedAtoms>
  152.1058  133.4274  159.4607 H   0  0  0  0  0  0  0  0  0  0  0  0  # atno 6907 bound_to 6896
  150.6865  134.2706  159.4596 H   0  0  0  0  0  0  0  0  0  0  0  0  # atno 6908 bound_to 6896
  152.0571  134.9617  160.0625 H   0  0  0  0  0  0  0  0  0  0  0  0  # atno 6909 bound_to 6896
  144.7696  140.4407  143.5916 H   0  0  0  0  0  0  0  0  0  0  0  0  # atno 7974 bound_to 7965
  155.4176  140.3445  155.4268 H   0  0  0  0  0  0  0  0  0  0  0  0  # atno 8008 bound_to 7997
  156.1412  140.1542  156.8949 H   0  0  0  0  0  0  0  0  0  0  0  0  # atno 8009 bound_to 7997
  154.4973  140.0824  156.7703 H   0  0  0  0  0  0  0  0  0  0  0  0  # atno 8010 bound_to 7997
  140.6008  143.2361  151.5934 H   0  0  0  0  0  0  0  0  0  0  0  0  # atno 10167 bound_to 10162
  157.6305  130.9388  150.0415 H   0  0  0  0  0  0  0  0  0  0  0  0  # atno 10718 bound_to 10713
  152.9828  135.5685  154.5189 H   0  0  0  0  0  0  0  0  0  0  0  0  # atno 10763 bound_to 10752
  154.4680  135.2784  155.1666 H   0  0  0  0  0  0  0  0  0  0  0  0  # atno 10764 bound_to 10752
  154.3226  135.6266  153.5568 H   0  0  0  0  0  0  0  0  0  0  0  0  # atno 10765 bound_to 10752
  140.4895  134.5998  157.4949 H   0  0  0  0  0  0  0  0  0  0  0  0  # atno 11005 bound_to 11000
  145.6363  139.1543  143.2941 LP  0  0  0  0  0  0  0  0  0  0  0  0  # atno 17320 bound_to 7965
  146.1833  140.6463  142.9179 LP  0  0  0  0  0  0  0  0  0  0  0  0  # atno 17321 bound_to 7965
  139.5289  144.2974  152.1102 LP  0  0  0  0  0  0  0  0  0  0  0  0  # atno 17342 bound_to 10162
  140.2154  144.4520  150.6366 LP  0  0  0  0  0  0  0  0  0  0  0  0  # atno 17343 bound_to 10162
  156.1505  130.3642  149.9445 LP  0  0  0  0  0  0  0  0  0  0  0  0  # atno 17370 bound_to 10713
  156.7465  130.9099  151.3635 LP  0  0  0  0  0  0  0  0  0  0  0  0  # atno 17371 bound_to 10713
  139.9778  134.7187  155.9917 LP  0  0  0  0  0  0  0  0  0  0  0  0  # atno 17394 bound_to 11000
  141.1491  133.6551  156.3958 LP  0  0  0  0  0  0  0  0  0  0  0  0  # atno 17395 bound_to 11000

$$$$
