AV-unprocessed.smi:2226|AV-procd|sdf|9009|dock7
  -GOLD-   2272012213D 1   1.00000     0.00000
 Structure written by MMmdl.
 40 42  0  0  0  0  0  0  0  0  2 V2000
  145.9212  140.2165  155.3764 C   0  0  0  0  0  0  0  0  0  0  0  0
  145.8124  139.3881  154.1519 N   0  3  2  0  0  0  0  0  0  0  0  0
  145.0744  138.1143  154.3253 C   0  0  2  0  0  0  0  0  0  0  0  0
  145.8804  137.1042  155.1804 C   0  0  0  0  0  0  0  0  0  0  0  0
  147.3270  136.8845  154.7015 C   0  0  0  0  0  0  0  0  0  0  0  0
  148.0106  138.1899  154.2576 C   0  0  0  0  0  0  0  0  0  0  0  0
  147.0942  139.1422  153.4492 C   0  0  1  0  0  0  0  0  0  0  0  0
  146.7970  138.6957  151.9985 C   0  0  0  0  0  0  0  0  0  0  0  0
  145.7237  137.5834  151.8405 C   0  0  1  0  0  0  0  0  0  0  0  0
  146.3018  136.2514  151.6788 N   0  0  0  0  0  0  0  0  0  0  0  0
  145.6267  135.1116  151.4644 C   0  0  0  0  0  0  0  0  0  0  0  0
  144.3945  135.0952  151.3819 O   0  0  0  0  0  0  0  0  0  0  0  0
  146.5141  134.0531  151.3407 N   0  0  0  0  0  0  0  0  0  0  0  0
  146.0575  132.8405  151.2807 C   0  0  0  0  0  0  0  0  0  0  0  0
  146.7853  131.6664  151.1709 N   0  0  0  0  0  0  0  0  0  0  0  0
  145.9038  130.6211  151.1352 C   0  0  0  0  0  0  0  0  0  0  0  0
  144.6720  131.1153  151.2169 C   0  0  0  0  0  0  0  0  0  0  0  0
  144.7316  132.4732  151.3061 O   0  0  0  0  0  0  0  0  0  0  0  0
  144.6284  137.5979  152.9374 C   0  0  0  0  0  0  0  0  0  0  0  0
  146.5075  139.7289  156.1547 H   0  0  0  0  0  0  0  0  0  0  0  0
  144.9311  140.4268  155.7816 H   0  0  0  0  0  0  0  0  0  0  0  0
  146.3924  141.1726  155.1477 H   0  0  0  0  0  0  0  0  0  0  0  0
  144.1581  138.3340  154.8755 H   0  0  0  0  0  0  0  0  0  0  0  0
  145.9125  137.4656  156.2086 H   0  0  0  0  0  0  0  0  0  0  0  0
  145.3573  136.1487  155.2267 H   0  0  0  0  0  0  0  0  0  0  0  0
  147.9077  136.4261  155.5024 H   0  0  0  0  0  0  0  0  0  0  0  0
  147.3539  136.1541  153.9001 H   0  0  0  0  0  0  0  0  0  0  0  0
  148.3607  138.7130  155.1478 H   0  0  0  0  0  0  0  0  0  0  0  0
  148.9102  137.9592  153.6859 H   0  0  0  0  0  0  0  0  0  0  0  0
  147.6183  140.0960  153.3720 H   0  0  0  0  0  0  0  0  0  0  0  0
  146.4250  139.5733  151.4681 H   0  0  0  0  0  0  0  0  0  0  0  0
  147.7226  138.4317  151.4856 H   0  0  0  0  0  0  0  0  0  0  0  0
  145.2034  137.7774  150.9002 H   0  0  0  0  0  0  0  0  0  0  0  0
  147.3083  136.1880  151.7316 H   0  0  0  0  0  0  0  0  0  0  0  0
  147.7874  131.5530  151.1212 H   0  0  0  0  0  0  0  0  0  0  0  0
  146.2626  129.6058  151.0525 H   0  0  0  0  0  0  0  0  0  0  0  0
  143.6950  130.6552  151.2237 H   0  0  0  0  0  0  0  0  0  0  0  0
  144.1522  136.6204  153.0267 H   0  0  0  0  0  0  0  0  0  0  0  0
  143.8376  138.2652  152.5916 H   0  0  0  0  0  0  0  0  0  0  0  0
  145.2553  139.9419  153.5169 H   0  0  0  0  0  0  0  0  0  0  0  0
  1  2  1  0  0  0  0
  1 20  1  0  0  0  0
  1 21  1  0  0  0  0
  1 22  1  0  0  0  0
  2  7  1  0  0  0  0
  2  3  1  0  0  0  0
  2 40  1  0  0  0  0
  3 19  1  0  0  0  0
  3  4  1  0  0  0  0
  3 23  1  0  0  0  0
  4  5  1  0  0  0  0
  4 24  1  0  0  0  0
  4 25  1  0  0  0  0
  5  6  1  0  0  0  0
  5 26  1  0  0  0  0
  5 27  1  0  0  0  0
  6  7  1  0  0  0  0
  6 28  1  0  0  0  0
  6 29  1  0  0  0  0
  7  8  1  0  0  0  0
  7 30  1  0  0  0  0
  8  9  1  0  0  0  0
  8 31  1  0  0  0  0
  8 32  1  0  0  0  0
  9 10  1  0  0  0  0
  9 19  1  0  0  0  0
  9 33  1  0  0  0  0
 10 34  1  0  0  0  0
 10 11  1  0  0  0  0
 11 13  1  0  0  0  0
 11 12  2  0  0  0  0
 13 14  2  0  0  0  0
 14 18  1  0  0  0  0
 14 15  1  0  0  0  0
 15 35  1  0  0  0  0
 15 16  1  0  0  0  0
 16 36  1  0  0  0  0
 16 17  2  0  0  0  0
 17 37  1  0  0  0  0
 17 18  1  0  0  0  0
 19 38  1  0  0  0  0
 19 39  1  0  0  0  0
M  CHG  1   2   1
M  END
> <s_m_source_file>
AV-unprocessed.smi

> <i_m_source_file_index>
2226

> <i_lp_mmshare_version>
43012

> <i_f3d_flags>
0

> <s_epik_input>
W0NIMl0xW0NIMl1bQ0gyXVtDQEhdKE4oW0NIM10pW0NIXTEyKVtDSDJdW0NASF0oW0NIMl0yKVtOSF1DKD1PKVtOSF1jM25bY0hdW2NIXW8z

> <s_epik_cmdline>
J2VwaWtfcHl0aG9uJywgJy1waCcsICc3LjAnLCAnLXRuJywgJzgnLCAnLW1hJywgJzIwMCcsICctbWV0YWxfYmluZGluZycsICctaW1hZScsICc8aW5maWxlLm1hZT4nLCAnLW9tYWUnLCAnPG91dGZpbGUubWFlPic=

> <r_lp_tautomer_probability>
0.107061

> <r_epik_Ionization_Penalty>
1.08307

> <r_epik_Ionization_Penalty_Charging>
1.08272

> <r_epik_Ionization_Penalty_Neutral>
0.000345913

> <r_epik_State_Penalty>
2.5744

> <r_epik_Charging_Adjusted_Penalty>
3.65713

> <i_epik_Tot_Q>
1

> <i_epik_Tot_abs_Q>
1

> <r_epik_Metal_State_Penalty>
3.72133

> <b_epik_Metal_Only>
0

> <s_lp_Force_Field>
OPLS_2005

> <r_lp_Energy>
58.5529

> <b_lp_Chiralities_Consistent>
1

> <s_lp_Variant>
AV-unprocessed.smi:2226-9

> <Gold.Version>
5.8.1

> <Gold.Id.Protein>
6NUR|6NUR_protein|mol2

> <Gold.PLP.Fitness>
35.1278

> <Gold.PLP.PLP>
-23.5274

> <Gold.PLP.part.hbond>
-2.8851

> <Gold.PLP.part.metal>
0.0000

> <Gold.PLP.part.buried>
0.5079

> <Gold.PLP.part.nonpolar>
-21.1884

> <Gold.PLP.part.repulsive>
0.6124

> <Gold.PLP.ligand.clash>
0.0000

> <Gold.PLP.ligand.torsion>
0.0459

> <Gold.PLP.Chemscore.Hbond>
3.8800

> <Gold.PLP.Chemscore.CHOScore>
0.0000

> <Gold.PLP.Chemscore.Metal>
0.0000

> <Gold.Chemscore.Hbonds>
donor molecule, donor type, donor heavy atom, donor atom, acceptor molecule, acceptor atom, score
      L1  H     2    40       P1 10175  2.00
      L1  H    10    34       P1  7948  1.00
      L1  H    15    35       P1 10747  0.88

> <Gold.PLP.Chemscore.Internal.Correction>
0.0522

> <Gold.Rescore>
     Score         DG    S(hbond)    S(metal)    S(lipo)     H(rot)  DE(clash)    DE(int)     intcor
     15.87     -19.36       2.94        0.00      56.66       1.00       1.28       2.21       ----

> <Gold.Chemscore.Fitness>
15.8698

> <Gold.Chemscore.DG>
-19.3650

> <Gold.Chemscore.ZeroCoef>
-5.4800

> <Gold.Chemscore.Hbond>
2.9390

> <Gold.Chemscore.Metal>
0.0000

> <Gold.Chemscore.Lipo>
56.6561

> <Gold.Chemscore.Internal_Hbond>
0.0000

> <Gold.Chemscore.DEClash>
1.2843

> <Gold.Chemscore.DEInternal>
2.2108

> <Gold.Chemscore.Rot>
1.0000

> <Gold.Chemscore.Internal.Correction>
   9.000000E+99

> <Gold.Chemscore.Hbonds>
donor molecule, donor type, donor heavy atom, donor atom, acceptor molecule, acceptor atom, score
      L1  H     2    40       P1 10175  0.98
      L1  H    10    34       P1  7948  0.99
      L1  H    15    35       P1 10747  0.86

> <Gold.Chemscore.Hbond.Weighted>
-9.8162

> <Gold.Chemscore.Metal.Weighted>
-0.0000

> <Gold.Chemscore.Lipo.Weighted>
-6.6288

> <Gold.Chemscore.Internal_Hbond.Weighted>
0.0000

> <Gold.Chemscore.DEClash.Weighted>
1.2843

> <Gold.Chemscore.DEInternal.Weighted>
2.2108

> <Gold.Chemscore.Rot.Weighted>
2.5600

> <Gold.Chemscore.Internal.Correction.Weighted>
   9.000000E+99

> <Gold.Protein.RotatedTorsions>
[ 6907 6896 6895 6894 ] final  114.39 input  -60.11 | X-H torsion
[ 7974 7965 7964 7962 ] final  129.48 input  175.53 | X-H torsion
[ 8008 7997 7996 7995 ] final  -26.62 input   59.86 | X-H torsion
[ 10167 10162 10161 10158 ] final  114.37 input  -65.29 | X-H torsion
[ 10718 10713 10712 10709 ] final  -99.25 input   66.30 | X-H torsion
[ 10763 10752 10751 10750 ] final  -36.29 input  -60.55 | X-H torsion
[ 11005 11000 10999 10996 ] final   90.76 input  -57.11 | X-H torsion

> <Gold.Protein.ActiveResidues>
 VAL166  LYS551  ARG553  GLY616  TRP617  ASP618  TYR619  PRO620  LYS621  CYS622 
 ASP623  PHE694  ASN695  SER759  ASP760  ASP761  ALA762  ILE779  LEU786  VAL792 
 PHE793  MET794  SER795  GLU796  ALA797  LYS798  CYS799  TRP800  GLU811  SER814 

> <Gold.Protein.RotatedAtoms>
  152.4805  133.8242  159.7069 H   0  0  0  0  0  0  0  0  0  0  0  0  # atno 6907 bound_to 6896
  150.8851  133.7309  159.2927 H   0  0  0  0  0  0  0  0  0  0  0  0  # atno 6908 bound_to 6896
  151.4800  135.1055  159.9827 H   0  0  0  0  0  0  0  0  0  0  0  0  # atno 6909 bound_to 6896
  145.0282  139.4070  143.5163 H   0  0  0  0  0  0  0  0  0  0  0  0  # atno 7974 bound_to 7965
  154.4416  140.1894  156.0803 H   0  0  0  0  0  0  0  0  0  0  0  0  # atno 8008 bound_to 7997
  156.0443  140.3316  155.7253 H   0  0  0  0  0  0  0  0  0  0  0  0  # atno 8009 bound_to 7997
  155.5652  140.0607  157.2810 H   0  0  0  0  0  0  0  0  0  0  0  0  # atno 8010 bound_to 7997
  139.6394  144.7122  151.2269 H   0  0  0  0  0  0  0  0  0  0  0  0  # atno 10167 bound_to 10162
  156.0129  130.5274  150.6642 H   0  0  0  0  0  0  0  0  0  0  0  0  # atno 10718 bound_to 10713
  153.8773  135.6825  153.4769 H   0  0  0  0  0  0  0  0  0  0  0  0  # atno 10763 bound_to 10752
  153.1253  135.4721  154.9260 H   0  0  0  0  0  0  0  0  0  0  0  0  # atno 10764 bound_to 10752
  154.7686  135.3231  154.8188 H   0  0  0  0  0  0  0  0  0  0  0  0  # atno 10765 bound_to 10752
  139.8850  134.8633  156.3331 H   0  0  0  0  0  0  0  0  0  0  0  0  # atno 11005 bound_to 11000
  146.3495  139.9818  142.8695 LP  0  0  0  0  0  0  0  0  0  0  0  0  # atno 17320 bound_to 7965
  145.1805  140.9765  143.4269 LP  0  0  0  0  0  0  0  0  0  0  0  0  # atno 17321 bound_to 7965
  140.7482  143.6339  150.8397 LP  0  0  0  0  0  0  0  0  0  0  0  0  # atno 17342 bound_to 10162
  139.9975  143.5780  152.2888 LP  0  0  0  0  0  0  0  0  0  0  0  0  # atno 17343 bound_to 10162
  157.4378  131.0857  151.0974 LP  0  0  0  0  0  0  0  0  0  0  0  0  # atno 17370 bound_to 10713
  157.1527  130.6191  149.5587 LP  0  0  0  0  0  0  0  0  0  0  0  0  # atno 17371 bound_to 10713
  140.9709  133.7328  156.0534 LP  0  0  0  0  0  0  0  0  0  0  0  0  # atno 17394 bound_to 11000
  140.7871  134.3659  157.5473 LP  0  0  0  0  0  0  0  0  0  0  0  0  # atno 17395 bound_to 11000

$$$$
