AV-unprocessed.smi:1357|AV-procd|sdf|5548|dock9
  -GOLD-   22720 5143D 1   1.00000     0.00000
 Structure written by MMmdl.
 43 44  0  0  0  0  0  0  0  0  1 V2000
  144.8957  143.4632  160.6578 C   0  0  0  0  0  0  0  0  0  0  0  0
  145.8866  144.1479  159.6934 C   0  0  0  0  0  0  0  0  0  0  0  0
  146.0511  143.2705  158.4357 C   0  0  0  0  0  0  0  0  0  0  0  0
  145.3100  145.5219  159.2775 C   0  0  0  0  0  0  0  0  0  0  0  0
  147.2601  144.2678  160.3980 C   0  0  0  0  0  0  0  0  0  0  0  0
  147.3892  143.8541  161.5513 O   0  0  0  0  0  0  0  0  0  0  0  0
  148.2771  144.8298  159.7222 N   0  0  0  0  0  0  0  0  0  0  0  0
  149.6134  145.0669  160.2538 C   0  0  0  0  0  0  0  0  0  0  0  0
  150.6348  144.1026  159.6811 C   0  0  0  0  0  0  0  0  0  0  0  0
  151.9779  144.1377  160.1067 C   0  0  0  0  0  0  0  0  0  0  0  0
  152.8890  143.2353  159.5255 C   0  0  0  0  0  0  0  0  0  0  0  0
  152.5404  142.3365  158.5804 N   0  0  0  0  0  0  0  0  0  0  0  0
  151.2495  142.3038  158.1705 C   0  0  0  0  0  0  0  0  0  0  0  0
  150.8814  141.3643  157.1968 N   0  0  0  0  0  0  0  0  0  0  0  0
  151.9321  140.3933  156.9186 C   0  0  0  0  0  0  0  0  0  0  0  0
  151.4147  139.3206  155.9445 C   0  0  0  0  0  0  0  0  0  0  0  0
  150.9235  139.9445  154.7613 O   0  0  0  0  0  0  0  0  0  0  0  0
  149.8467  140.8369  155.0344 C   0  0  0  0  0  0  0  0  0  0  0  0
  150.3275  141.9498  155.9817 C   0  0  0  0  0  0  0  0  0  0  0  0
  150.2641  143.1678  158.6930 C   0  0  0  0  0  0  0  0  0  0  0  0
  143.9113  143.3547  160.2009 H   0  0  0  0  0  0  0  0  0  0  0  0
  144.7671  144.0409  161.5742 H   0  0  0  0  0  0  0  0  0  0  0  0
  145.2287  142.4641  160.9426 H   0  0  0  0  0  0  0  0  0  0  0  0
  146.4253  142.2752  158.6798 H   0  0  0  0  0  0  0  0  0  0  0  0
  146.7467  143.7187  157.7250 H   0  0  0  0  0  0  0  0  0  0  0  0
  145.0991  143.1386  157.9202 H   0  0  0  0  0  0  0  0  0  0  0  0
  144.3420  145.4078  158.7884 H   0  0  0  0  0  0  0  0  0  0  0  0
  145.9630  146.0397  158.5734 H   0  0  0  0  0  0  0  0  0  0  0  0
  145.1581  146.1747  160.1384 H   0  0  0  0  0  0  0  0  0  0  0  0
  148.1002  145.1446  158.7793 H   0  0  0  0  0  0  0  0  0  0  0  0
  149.9279  146.0957  160.0706 H   0  0  0  0  0  0  0  0  0  0  0  0
  149.5772  144.9486  161.3371 H   0  0  0  0  0  0  0  0  0  0  0  0
  152.3060  144.8435  160.8558 H   0  0  0  0  0  0  0  0  0  0  0  0
  153.9260  143.2365  159.8264 H   0  0  0  0  0  0  0  0  0  0  0  0
  152.7958  140.9006  156.4861 H   0  0  0  0  0  0  0  0  0  0  0  0
  152.2626  139.9277  157.8479 H   0  0  0  0  0  0  0  0  0  0  0  0
  152.2197  138.6362  155.6776 H   0  0  0  0  0  0  0  0  0  0  0  0
  150.6274  138.7224  156.4061 H   0  0  0  0  0  0  0  0  0  0  0  0
  149.4949  141.2670  154.0966 H   0  0  0  0  0  0  0  0  0  0  0  0
  149.0084  140.2898  155.4690 H   0  0  0  0  0  0  0  0  0  0  0  0
  149.4977  142.6105  156.2359 H   0  0  0  0  0  0  0  0  0  0  0  0
  151.0841  142.5567  155.4823 H   0  0  0  0  0  0  0  0  0  0  0  0
  149.2440  143.1158  158.3406 H   0  0  0  0  0  0  0  0  0  0  0  0
  1  2  1  0  0  0  0
  1 21  1  0  0  0  0
  1 22  1  0  0  0  0
  1 23  1  0  0  0  0
  2  3  1  0  0  0  0
  2  4  1  0  0  0  0
  2  5  1  0  0  0  0
  3 24  1  0  0  0  0
  3 25  1  0  0  0  0
  3 26  1  0  0  0  0
  4 27  1  0  0  0  0
  4 28  1  0  0  0  0
  4 29  1  0  0  0  0
  5  6  2  0  0  0  0
  5  7  1  0  0  0  0
  7  8  1  0  0  0  0
  7 30  1  0  0  0  0
  8  9  1  0  0  0  0
  8 31  1  0  0  0  0
  8 32  1  0  0  0  0
  9 20  1  0  0  0  0
  9 10  2  0  0  0  0
 10 11  1  0  0  0  0
 10 33  1  0  0  0  0
 11 12  2  0  0  0  0
 11 34  1  0  0  0  0
 12 13  1  0  0  0  0
 13 14  1  0  0  0  0
 13 20  2  0  0  0  0
 14 19  1  0  0  0  0
 14 15  1  0  0  0  0
 15 16  1  0  0  0  0
 15 35  1  0  0  0  0
 15 36  1  0  0  0  0
 16 17  1  0  0  0  0
 16 37  1  0  0  0  0
 16 38  1  0  0  0  0
 17 18  1  0  0  0  0
 18 19  1  0  0  0  0
 18 39  1  0  0  0  0
 18 40  1  0  0  0  0
 19 41  1  0  0  0  0
 19 42  1  0  0  0  0
 20 43  1  0  0  0  0
M  END
> <s_m_source_file>
AV-unprocessed.smi

> <i_m_source_file_index>
1357

> <i_lp_mmshare_version>
43012

> <i_f3d_flags>
0

> <s_epik_input>
W0NIM11DKFtDSDNdKShbQ0gzXSlDKD1PKVtOSF1bQ0gyXWMxW2NIXVtjSF1uYyhbY0hdMSlOMltDSDJdW0NIMl1PW0NIMl1bQ0gyXTI=

> <s_epik_cmdline>
J2VwaWtfcHl0aG9uJywgJy1waCcsICc3LjAnLCAnLXRuJywgJzgnLCAnLW1hJywgJzIwMCcsICctbWV0YWxfYmluZGluZycsICctaW1hZScsICc8aW5maWxlLm1hZT4nLCAnLW9tYWUnLCAnPG91dGZpbGUubWFlPic=

> <r_lp_tautomer_probability>
1

> <r_epik_Ionization_Penalty>
0.00576178

> <r_epik_Ionization_Penalty_Charging>
0

> <r_epik_Ionization_Penalty_Neutral>
0.00576178

> <r_epik_State_Penalty>
0.00422935

> <r_epik_Charging_Adjusted_Penalty>
0.00422935

> <i_epik_Tot_Q>
0

> <i_epik_Tot_abs_Q>
0

> <r_epik_Metal_State_Penalty>
-0

> <b_epik_Metal_Only>
0

> <s_lp_Force_Field>
OPLS_2005

> <r_lp_Energy>
22.6538

> <b_lp_Chiralities_Consistent>
1

> <s_lp_Variant>
AV-unprocessed.smi:1357-1

> <Gold.Version>
5.8.1

> <Gold.Id.Protein>
6NUR|6NUR_protein|mol2

> <Gold.PLP.Fitness>
43.9813

> <Gold.PLP.PLP>
-35.2264

> <Gold.PLP.part.hbond>
-3.0000

> <Gold.PLP.part.metal>
0.0000

> <Gold.PLP.part.buried>
-5.6325

> <Gold.PLP.part.nonpolar>
-26.6443

> <Gold.PLP.part.repulsive>
0.3792

> <Gold.PLP.ligand.clash>
0.0000

> <Gold.PLP.ligand.torsion>
0.1770

> <Gold.PLP.Chemscore.Hbond>
3.0000

> <Gold.PLP.Chemscore.CHOScore>
0.0000

> <Gold.PLP.Chemscore.Metal>
0.0000

> <Gold.Chemscore.Hbonds>
donor molecule, donor type, donor heavy atom, donor atom, acceptor molecule, acceptor atom, score
      L1  H     7    30       P1  8029  1.00
      P1  H  6933  6944       L1     6  1.00
      P1  H  7989  7998       L1    17  0.85

> <Gold.PLP.Chemscore.Internal.Correction>
0.1088

> <Gold.Rescore>
     Score         DG    S(hbond)    S(metal)    S(lipo)     H(rot)  DE(clash)    DE(int)     intcor
     20.34     -20.62       2.78        0.00      83.38       1.52       0.05       0.24       ----

> <Gold.Chemscore.Fitness>
20.3351

> <Gold.Chemscore.DG>
-20.6234

> <Gold.Chemscore.ZeroCoef>
-5.4800

> <Gold.Chemscore.Hbond>
2.7760

> <Gold.Chemscore.Metal>
0.0000

> <Gold.Chemscore.Lipo>
83.3835

> <Gold.Chemscore.Internal_Hbond>
0.0000

> <Gold.Chemscore.DEClash>
0.0515

> <Gold.Chemscore.DEInternal>
0.2368

> <Gold.Chemscore.Rot>
1.5173

> <Gold.Chemscore.Internal.Correction>
   9.000000E+99

> <Gold.Chemscore.Hbonds>
donor molecule, donor type, donor heavy atom, donor atom, acceptor molecule, acceptor atom, score
      L1  H     7    30       P1  8029  1.00
      P1  H  6933  6944       L1     6  0.60
      P1  H  7989  7998       L1    17  0.15

> <Gold.Chemscore.Hbond.Weighted>
-9.2718

> <Gold.Chemscore.Metal.Weighted>
-0.0000

> <Gold.Chemscore.Lipo.Weighted>
-9.7559

> <Gold.Chemscore.Internal_Hbond.Weighted>
0.0000

> <Gold.Chemscore.DEClash.Weighted>
0.0515

> <Gold.Chemscore.DEInternal.Weighted>
0.2368

> <Gold.Chemscore.Rot.Weighted>
3.8843

> <Gold.Chemscore.Internal.Correction.Weighted>
   9.000000E+99

> <Gold.Protein.RotatedTorsions>
[ 6907 6896 6895 6894 ] final  135.63 input  -60.11 | X-H torsion
[ 7974 7965 7964 7962 ] final   29.96 input  175.53 | X-H torsion
[ 8008 7997 7996 7995 ] final   81.19 input   59.86 | X-H torsion
[ 10167 10162 10161 10158 ] final -129.67 input  -65.29 | X-H torsion
[ 10718 10713 10712 10709 ] final -169.06 input   66.30 | X-H torsion
[ 10763 10752 10751 10750 ] final  -45.81 input  -60.55 | X-H torsion
[ 11005 11000 10999 10996 ] final  160.70 input  -57.11 | X-H torsion

> <Gold.Protein.ActiveResidues>
 VAL166  LYS551  ARG553  GLY616  TRP617  ASP618  TYR619  PRO620  LYS621  CYS622 
 ASP623  PHE694  ASN695  SER759  ASP760  ASP761  ALA762  ILE779  LEU786  VAL792 
 PHE793  MET794  SER795  GLU796  ALA797  LYS798  CYS799  TRP800  GLU811  SER814 

> <Gold.Protein.RotatedAtoms>
  152.2983  133.5629  159.5601 H   0  0  0  0  0  0  0  0  0  0  0  0  # atno 6907 bound_to 6896
  150.7266  134.0329  159.3748 H   0  0  0  0  0  0  0  0  0  0  0  0  # atno 6908 bound_to 6896
  151.8231  135.0646  160.0478 H   0  0  0  0  0  0  0  0  0  0  0  0  # atno 6909 bound_to 6896
  146.1641  139.6852  142.9013 H   0  0  0  0  0  0  0  0  0  0  0  0  # atno 7974 bound_to 7965
  155.8938  140.3437  155.5976 H   0  0  0  0  0  0  0  0  0  0  0  0  # atno 8008 bound_to 7997
  155.7580  140.0828  157.2188 H   0  0  0  0  0  0  0  0  0  0  0  0  # atno 8009 bound_to 7997
  154.4036  140.1541  156.2787 H   0  0  0  0  0  0  0  0  0  0  0  0  # atno 8010 bound_to 7997
  139.9373  143.6203  152.2513 H   0  0  0  0  0  0  0  0  0  0  0  0  # atno 10167 bound_to 10162
  156.7060  130.9215  151.3084 H   0  0  0  0  0  0  0  0  0  0  0  0  # atno 10718 bound_to 10713
  154.0346  135.6652  153.4784 H   0  0  0  0  0  0  0  0  0  0  0  0  # atno 10763 bound_to 10752
  153.0526  135.5075  154.7900 H   0  0  0  0  0  0  0  0  0  0  0  0  # atno 10764 bound_to 10752
  154.6857  135.3052  154.9517 H   0  0  0  0  0  0  0  0  0  0  0  0  # atno 10765 bound_to 10752
  140.2085  134.8285  157.3095 H   0  0  0  0  0  0  0  0  0  0  0  0  # atno 11005 bound_to 11000
  145.4514  141.0428  143.2802 LP  0  0  0  0  0  0  0  0  0  0  0  0  # atno 17320 bound_to 7965
  144.8067  139.6038  143.7047 LP  0  0  0  0  0  0  0  0  0  0  0  0  # atno 17321 bound_to 7965
  139.6733  144.7660  151.1742 LP  0  0  0  0  0  0  0  0  0  0  0  0  # atno 17342 bound_to 10162
  140.7621  143.5832  150.8873 LP  0  0  0  0  0  0  0  0  0  0  0  0  # atno 17343 bound_to 10162
  157.6954  130.9277  150.0631 LP  0  0  0  0  0  0  0  0  0  0  0  0  # atno 17370 bound_to 10713
  156.1695  130.3646  149.9186 LP  0  0  0  0  0  0  0  0  0  0  0  0  # atno 17371 bound_to 10713
  140.1977  134.4293  155.7680 LP  0  0  0  0  0  0  0  0  0  0  0  0  # atno 17394 bound_to 11000
  141.2226  133.7057  156.8132 LP  0  0  0  0  0  0  0  0  0  0  0  0  # atno 17395 bound_to 11000

$$$$
