AV-unprocessed.smi:1403|AV-procd|sdf|5698|dock5
  -GOLD-   22720 5323D 1   1.00000     0.00000
 Structure written by MMmdl.
 36 37  0  0  0  0  0  0  0  0  1 V2000
  151.4327  140.2853  156.5750 C   0  0  0  0  0  0  0  0  0  0  0  0
  150.7703  141.6665  156.4672 C   0  0  1  0  0  0  0  0  0  0  0  0
  149.3847  141.4890  156.0359 N   0  0  0  0  0  0  0  0  0  0  0  0
  148.9692  141.2906  154.7750 C   0  0  0  0  0  0  0  0  0  0  0  0
  149.7313  141.2571  153.8080 O   0  0  0  0  0  0  0  0  0  0  0  0
  147.4537  141.1355  154.5841 C   0  0  0  0  0  0  0  0  0  0  0  0
  147.0860  139.9003  153.8771 N   0  0  0  0  0  0  0  0  0  0  0  0
  147.3784  139.7507  152.5287 C   0  0  0  0  0  0  0  0  0  0  0  0
  147.0780  138.6368  151.8197 C   0  0  0  0  0  0  0  0  0  0  0  0
  146.4130  137.5086  152.4630 C   0  0  0  0  0  0  0  0  0  0  0  0
  146.0987  136.4592  151.9063 O   0  0  0  0  0  0  0  0  0  0  0  0
  146.1377  137.6964  153.8202 N   0  0  0  0  0  0  0  0  0  0  0  0
  146.4458  138.8410  154.5571 C   0  0  0  0  0  0  0  0  0  0  0  0
  146.1618  138.9016  155.7529 O   0  0  0  0  0  0  0  0  0  0  0  0
  150.8261  142.4362  157.8033 C   0  0  2  0  0  0  0  0  0  0  0  0
  150.9032  143.9584  157.6721 C   0  0  0  0  0  0  0  0  0  0  0  0
  151.4899  144.3488  159.0089 C   0  0  0  0  0  0  0  0  0  0  0  0
  152.4837  143.2183  159.2620 C   0  0  0  0  0  0  0  0  0  0  0  0
  152.0005  142.0915  158.5335 O   0  0  0  0  0  0  0  0  0  0  0  0
  145.6801  136.9404  154.3086 H   0  0  0  0  0  0  0  0  0  0  0  0
  152.4838  140.3727  156.8513 H   0  0  0  0  0  0  0  0  0  0  0  0
  151.3888  139.7529  155.6241 H   0  0  0  0  0  0  0  0  0  0  0  0
  150.9421  139.6662  157.3268 H   0  0  0  0  0  0  0  0  0  0  0  0
  151.3217  142.2363  155.7172 H   0  0  0  0  0  0  0  0  0  0  0  0
  148.6827  141.5106  156.7612 H   0  0  0  0  0  0  0  0  0  0  0  0
  146.9519  141.1763  155.5531 H   0  0  0  0  0  0  0  0  0  0  0  0
  147.0919  142.0069  154.0364 H   0  0  0  0  0  0  0  0  0  0  0  0
  147.8753  140.5594  152.0116 H   0  0  0  0  0  0  0  0  0  0  0  0
  147.3321  138.5793  150.7712 H   0  0  0  0  0  0  0  0  0  0  0  0
  149.9639  142.1782  158.4210 H   0  0  0  0  0  0  0  0  0  0  0  0
  151.5848  144.2423  156.8688 H   0  0  0  0  0  0  0  0  0  0  0  0
  149.9346  144.4209  157.4806 H   0  0  0  0  0  0  0  0  0  0  0  0
  151.9566  145.3341  159.0032 H   0  0  0  0  0  0  0  0  0  0  0  0
  150.7111  144.3433  159.7728 H   0  0  0  0  0  0  0  0  0  0  0  0
  153.4700  143.4806  158.8779 H   0  0  0  0  0  0  0  0  0  0  0  0
  152.5836  142.9902  160.3235 H   0  0  0  0  0  0  0  0  0  0  0  0
  1  2  1  0  0  0  0
  1 21  1  0  0  0  0
  1 22  1  0  0  0  0
  1 23  1  0  0  0  0
  2  3  1  0  0  0  0
  2 15  1  0  0  0  0
  2 24  1  0  0  0  0
  3  4  1  0  0  0  0
  3 25  1  0  0  0  0
  4  5  2  0  0  0  0
  4  6  1  0  0  0  0
  6  7  1  0  0  0  0
  6 26  1  0  0  0  0
  6 27  1  0  0  0  0
  7 13  1  0  0  0  0
  7  8  1  0  0  0  0
  8  9  2  0  0  0  0
  8 28  1  0  0  0  0
  9 10  1  0  0  0  0
  9 29  1  0  0  0  0
 10 11  2  0  0  0  0
 10 12  1  0  0  0  0
 12 20  1  0  0  0  0
 12 13  1  0  0  0  0
 13 14  2  0  0  0  0
 15 19  1  0  0  0  0
 15 16  1  0  0  0  0
 15 30  1  0  0  0  0
 16 17  1  0  0  0  0
 16 31  1  0  0  0  0
 16 32  1  0  0  0  0
 17 18  1  0  0  0  0
 17 33  1  0  0  0  0
 17 34  1  0  0  0  0
 18 19  1  0  0  0  0
 18 35  1  0  0  0  0
 18 36  1  0  0  0  0
M  END
> <s_m_source_file>
AV-unprocessed.smi

> <i_m_source_file_index>
1403

> <i_lp_mmshare_version>
43012

> <i_f3d_flags>
0

> <s_epik_input>
TzFbQ0gyXVtDSDJdW0NIMl1bQ0BIXTFbQ0BIXShbQ0gzXSlbTkhdQyg9TylbQ0gyXW4yW2NIXVtjSF1jKD1PKVtuSF1jMj1P

> <s_epik_cmdline>
J2VwaWtfcHl0aG9uJywgJy1waCcsICc3LjAnLCAnLXRuJywgJzgnLCAnLW1hJywgJzIwMCcsICctbWV0YWxfYmluZGluZycsICctaW1hZScsICc8aW5maWxlLm1hZT4nLCAnLW9tYWUnLCAnPG91dGZpbGUubWFlPic=

> <r_lp_tautomer_probability>
0.999537

> <r_epik_Ionization_Penalty>
0.00331407

> <r_epik_Ionization_Penalty_Charging>
0.00331405

> <r_epik_Ionization_Penalty_Neutral>
2.30132e-08

> <r_epik_State_Penalty>
0.00234266

> <r_epik_Charging_Adjusted_Penalty>
0.00565671

> <i_epik_Tot_Q>
0

> <i_epik_Tot_abs_Q>
0

> <r_epik_Metal_State_Penalty>
0.365604

> <b_epik_Metal_Only>
0

> <s_lp_Force_Field>
OPLS_2005

> <r_lp_Energy>
17.659

> <b_lp_Chiralities_Consistent>
1

> <s_lp_Variant>
AV-unprocessed.smi:1403-2

> <Gold.Version>
5.8.1

> <Gold.Id.Protein>
6NUR|6NUR_protein|mol2

> <Gold.PLP.Fitness>
37.9768

> <Gold.PLP.PLP>
-33.6107

> <Gold.PLP.part.hbond>
-2.5047

> <Gold.PLP.part.metal>
0.0000

> <Gold.PLP.part.buried>
-0.6965

> <Gold.PLP.part.nonpolar>
-33.9410

> <Gold.PLP.part.repulsive>
1.9781

> <Gold.PLP.ligand.clash>
0.0000

> <Gold.PLP.ligand.torsion>
1.1535

> <Gold.PLP.Chemscore.Hbond>
1.2320

> <Gold.PLP.Chemscore.CHOScore>
0.9881

> <Gold.PLP.Chemscore.Metal>
0.0000

> <Gold.Chemscore.Hbonds>
donor molecule, donor type, donor heavy atom, donor atom, acceptor molecule, acceptor atom, score
      P1  H  7989  7998       L1     5  0.26
      P1  H  8011  8017       L1     5  0.82
      L1  C     8    28       P1  7957  0.59

> <Gold.PLP.Chemscore.Internal.Correction>
0.0129

> <Gold.Rescore>
     Score         DG    S(hbond)    S(metal)    S(lipo)     H(rot)  DE(clash)    DE(int)     intcor
     11.41     -11.88       0.85        0.00      75.10       2.04       0.12       0.35       ----

> <Gold.Chemscore.Fitness>
11.4131

> <Gold.Chemscore.DG>
-11.8839

> <Gold.Chemscore.ZeroCoef>
-5.4800

> <Gold.Chemscore.Hbond>
0.8498

> <Gold.Chemscore.Metal>
0.0000

> <Gold.Chemscore.Lipo>
75.0990

> <Gold.Chemscore.Internal_Hbond>
0.0000

> <Gold.Chemscore.DEClash>
0.1229

> <Gold.Chemscore.DEInternal>
0.3479

> <Gold.Chemscore.Rot>
2.0395

> <Gold.Chemscore.Internal.Correction>
   9.000000E+99

> <Gold.Chemscore.Hbonds>
donor molecule, donor type, donor heavy atom, donor atom, acceptor molecule, acceptor atom, score
      P1  H  7989  7998       L1     5  0.26
      P1  H  8011  8017       L1     5  0.81

> <Gold.Chemscore.Hbond.Weighted>
-2.8384

> <Gold.Chemscore.Metal.Weighted>
-0.0000

> <Gold.Chemscore.Lipo.Weighted>
-8.7866

> <Gold.Chemscore.Internal_Hbond.Weighted>
0.0000

> <Gold.Chemscore.DEClash.Weighted>
0.1229

> <Gold.Chemscore.DEInternal.Weighted>
0.3479

> <Gold.Chemscore.Rot.Weighted>
5.2211

> <Gold.Chemscore.Internal.Correction.Weighted>
   9.000000E+99

> <Gold.Protein.RotatedTorsions>
[ 6907 6896 6895 6894 ] final -153.48 input  -60.11 | X-H torsion
[ 7974 7965 7964 7962 ] final  138.44 input  175.53 | X-H torsion
[ 8008 7997 7996 7995 ] final -178.41 input   59.86 | X-H torsion
[ 10167 10162 10161 10158 ] final   97.11 input  -65.29 | X-H torsion
[ 10718 10713 10712 10709 ] final  131.09 input   66.30 | X-H torsion
[ 10763 10752 10751 10750 ] final   90.18 input  -60.55 | X-H torsion
[ 11005 11000 10999 10996 ] final  166.32 input  -57.11 | X-H torsion

> <Gold.Protein.ActiveResidues>
 VAL166  LYS551  ARG553  GLY616  TRP617  ASP618  TYR619  PRO620  LYS621  CYS622 
 ASP623  PHE694  ASN695  SER759  ASP760  ASP761  ALA762  ILE779  LEU786  VAL792 
 PHE793  MET794  SER795  GLU796  ALA797  LYS798  CYS799  TRP800  GLU811  SER814 

> <Gold.Protein.RotatedAtoms>
  151.2433  133.4388  159.2608 H   0  0  0  0  0  0  0  0  0  0  0  0  # atno 6907 bound_to 6896
  151.0685  134.9783  159.8307 H   0  0  0  0  0  0  0  0  0  0  0  0  # atno 6908 bound_to 6896
  152.5409  134.2379  159.8903 H   0  0  0  0  0  0  0  0  0  0  0  0  # atno 6909 bound_to 6896
  144.9372  139.4975  143.5589 H   0  0  0  0  0  0  0  0  0  0  0  0  # atno 7974 bound_to 7965
  156.0185  140.1256  157.0382 H   0  0  0  0  0  0  0  0  0  0  0  0  # atno 8008 bound_to 7997
  154.4302  140.1073  156.6000 H   0  0  0  0  0  0  0  0  0  0  0  0  # atno 8009 bound_to 7997
  155.5979  140.3470  155.4587 H   0  0  0  0  0  0  0  0  0  0  0  0  # atno 8010 bound_to 7997
  139.7832  144.6880  150.9994 H   0  0  0  0  0  0  0  0  0  0  0  0  # atno 10167 bound_to 10162
  157.5000  131.1094  150.9440 H   0  0  0  0  0  0  0  0  0  0  0  0  # atno 10718 bound_to 10713
  153.1949  135.4443  155.0195 H   0  0  0  0  0  0  0  0  0  0  0  0  # atno 10763 bound_to 10752
  154.8112  135.3295  154.7301 H   0  0  0  0  0  0  0  0  0  0  0  0  # atno 10764 bound_to 10752
  153.7752  135.6981  153.4954 H   0  0  0  0  0  0  0  0  0  0  0  0  # atno 10765 bound_to 10752
  140.2652  134.7871  157.3626 H   0  0  0  0  0  0  0  0  0  0  0  0  # atno 11005 bound_to 11000
  146.3271  139.8365  142.8898 LP  0  0  0  0  0  0  0  0  0  0  0  0  # atno 17320 bound_to 7965
  145.3048  141.0204  143.3588 LP  0  0  0  0  0  0  0  0  0  0  0  0  # atno 17321 bound_to 7965
  140.7819  143.4461  151.0481 LP  0  0  0  0  0  0  0  0  0  0  0  0  # atno 17342 bound_to 10162
  139.8140  143.7911  152.3173 LP  0  0  0  0  0  0  0  0  0  0  0  0  # atno 17343 bound_to 10162
  157.0113  130.5638  149.5321 LP  0  0  0  0  0  0  0  0  0  0  0  0  # atno 17370 bound_to 10713
  156.0223  130.5318  150.8311 LP  0  0  0  0  0  0  0  0  0  0  0  0  # atno 17371 bound_to 10713
  140.1426  134.4952  155.8020 LP  0  0  0  0  0  0  0  0  0  0  0  0  # atno 17394 bound_to 11000
  141.2185  133.6831  156.7237 LP  0  0  0  0  0  0  0  0  0  0  0  0  # atno 17395 bound_to 11000

$$$$
