AV-unprocessed.smi:157|AV-procd|sdf|1300|dock7
  -GOLD-   2262018583D 1   1.00000     0.00000
 Structure written by MMmdl.
 35 37  0  0  0  0  0  0  0  0  1 V2000
  151.5829  137.1063  154.3036 O   0  0  0  0  0  0  0  0  0  0  0  0
  152.3765  138.2187  154.6591 C   0  0  0  0  0  0  0  0  0  0  0  0
  151.8246  138.8974  155.9226 C   0  0  2  0  0  0  0  0  0  0  0  0
  152.9122  139.3629  156.7196 O   0  0  0  0  0  0  0  0  0  0  0  0
  152.6393  139.1710  158.0764 C   0  0  1  0  0  0  0  0  0  0  0  0
  152.7954  140.4800  158.7862 N   0  0  0  0  0  0  0  0  0  0  0  0
  153.5994  140.7228  159.8300 C   0  0  0  0  0  0  0  0  0  0  0  0
  153.5637  141.9680  160.2731 N   0  0  0  0  0  0  0  0  0  0  0  0
  152.6453  142.5970  159.4344 C   0  0  0  0  0  0  0  0  0  0  0  0
  152.1576  141.6915  158.5027 C   0  0  0  0  0  0  0  0  0  0  0  0
  151.2712  141.7349  157.4435 N   0  0  0  0  0  0  0  0  0  0  0  0
  150.4262  142.7162  157.3981 C   0  0  0  0  0  0  0  0  0  0  0  0
  150.3070  143.8333  158.2125 N   0  0  0  0  0  0  0  0  0  0  0  0
  151.4312  144.6827  158.5676 C   0  0  0  0  0  0  0  0  0  0  0  0
  152.3628  144.0608  159.6153 C   0  0  1  0  0  0  0  0  0  0  0  0
  151.7899  144.2156  160.8976 O   0  0  0  0  0  0  0  0  0  0  0  0
  151.1981  138.6782  158.1837 C   0  0  0  0  0  0  0  0  0  0  0  0
  151.0348  137.9724  156.8559 C   0  0  1  0  0  0  0  0  0  0  0  0
  149.6698  137.8833  156.5030 O   0  0  0  0  0  0  0  0  0  0  0  0
  151.2248  139.7706  155.6589 H   0  0  0  0  0  0  0  0  0  0  0  0
  153.3743  138.4913  158.5081 H   0  0  0  0  0  0  0  0  0  0  0  0
  153.2988  144.6202  159.6189 H   0  0  0  0  0  0  0  0  0  0  0  0
  151.4846  136.9792  156.8972 H   0  0  0  0  0  0  0  0  0  0  0  0
  151.4464  137.1218  153.3686 H   0  0  0  0  0  0  0  0  0  0  0  0
  153.4097  137.9020  154.8045 H   0  0  0  0  0  0  0  0  0  0  0  0
  152.3701  138.9219  153.8259 H   0  0  0  0  0  0  0  0  0  0  0  0
  154.2314  139.9676  160.2738 H   0  0  0  0  0  0  0  0  0  0  0  0
  149.6726  142.7148  156.6094 H   0  0  0  0  0  0  0  0  0  0  0  0
  149.4467  144.3613  158.1813 H   0  0  0  0  0  0  0  0  0  0  0  0
  152.0004  144.8629  157.6545 H   0  0  0  0  0  0  0  0  0  0  0  0
  151.0710  145.6573  158.8984 H   0  0  0  0  0  0  0  0  0  0  0  0
  150.9010  143.8959  160.8636 H   0  0  0  0  0  0  0  0  0  0  0  0
  151.0613  138.0332  159.0522 H   0  0  0  0  0  0  0  0  0  0  0  0
  150.5201  139.5310  158.2580 H   0  0  0  0  0  0  0  0  0  0  0  0
  149.6116  137.7445  155.5696 H   0  0  0  0  0  0  0  0  0  0  0  0
  1  2  1  0  0  0  0
  1 24  1  0  0  0  0
  2  3  1  0  0  0  0
  2 25  1  0  0  0  0
  2 26  1  0  0  0  0
  3 20  1  0  0  0  0
  3 18  1  0  0  0  0
  3  4  1  0  0  0  0
  4  5  1  0  0  0  0
  5 21  1  0  0  0  0
  5  6  1  0  0  0  0
  5 17  1  0  0  0  0
  6 10  1  0  0  0  0
  6  7  1  0  0  0  0
  7  8  2  0  0  0  0
  7 27  1  0  0  0  0
  8  9  1  0  0  0  0
  9 15  1  0  0  0  0
  9 10  2  0  0  0  0
 10 11  1  0  0  0  0
 11 12  2  0  0  0  0
 12 13  1  0  0  0  0
 12 28  1  0  0  0  0
 13 14  1  0  0  0  0
 13 29  1  0  0  0  0
 14 15  1  0  0  0  0
 14 30  1  0  0  0  0
 14 31  1  0  0  0  0
 15 22  1  0  0  0  0
 15 16  1  0  0  0  0
 16 32  1  0  0  0  0
 17 18  1  0  0  0  0
 17 33  1  0  0  0  0
 17 34  1  0  0  0  0
 18 23  1  0  0  0  0
 18 19  1  0  0  0  0
 19 35  1  0  0  0  0
M  END
> <s_m_source_file>
AV-unprocessed.smi

> <i_m_source_file_index>
157

> <i_lp_mmshare_version>
43012

> <i_f3d_flags>
0

> <s_epik_input>
W09IXVtDSDJdW0NASF0xT1tDQEhdKFtDSDJdW0NAQEhdMVtPSF0pbihbY0hdbjIpYyhjMjMpTj1bQ0hdW05IXVtDSDJdW0NASF0zW09IXQ==

> <s_epik_cmdline>
J2VwaWtfcHl0aG9uJywgJy1waCcsICc3LjAnLCAnLXRuJywgJzgnLCAnLW1hJywgJzIwMCcsICctbWV0YWxfYmluZGluZycsICctaW1hZScsICc8aW5maWxlLm1hZT4nLCAnLW9tYWUnLCAnPG91dGZpbGUubWFlPic=

> <r_lp_tautomer_probability>
1

> <r_epik_Ionization_Penalty>
0.0357149

> <r_epik_Ionization_Penalty_Charging>
0.0355056

> <r_epik_Ionization_Penalty_Neutral>
0.000209255

> <r_epik_State_Penalty>
0.0296046

> <r_epik_Charging_Adjusted_Penalty>
0.0651102

> <i_epik_Tot_Q>
0

> <i_epik_Tot_abs_Q>
0

> <r_epik_Metal_State_Penalty>
3.03559e-05

> <b_epik_Metal_Only>
0

> <s_epik_Chemistry_Notes>
This compound has an imine and may undergo hydrolysis. This compound contains an acetal/aminal-like group ( X-CH(R)-Y where X, Y are N, S, or O) that may be acid/base labile, releasing an aldehyde.

> <s_lp_Force_Field>
OPLS_2005

> <r_lp_Energy>
44.6585

> <b_lp_Chiralities_Consistent>
1

> <s_lp_Variant>
AV-unprocessed.smi:157-10

> <Gold.Version>
5.8.1

> <Gold.Id.Protein>
6NUR|6NUR_protein|mol2

> <Gold.PLP.Fitness>
44.5366

> <Gold.PLP.PLP>
-34.4748

> <Gold.PLP.part.hbond>
-4.0000

> <Gold.PLP.part.metal>
0.0000

> <Gold.PLP.part.buried>
-4.6888

> <Gold.PLP.part.nonpolar>
-26.2014

> <Gold.PLP.part.repulsive>
0.0763

> <Gold.PLP.ligand.clash>
0.0000

> <Gold.PLP.ligand.torsion>
0.4894

> <Gold.PLP.Chemscore.Hbond>
2.7968

> <Gold.PLP.Chemscore.CHOScore>
0.8800

> <Gold.PLP.Chemscore.Metal>
0.0000

> <Gold.Chemscore.Hbonds>
donor molecule, donor type, donor heavy atom, donor atom, acceptor molecule, acceptor atom, score
      L1  H     1    24       P1  7949  0.53
      L1  H    13    29       P1  8029  0.09
      P1  H  7997  8010       L1     4  1.00
      P1  H 10752 10765       L1     1  0.75
      L1  C    12    28       P1  8028  0.82

> <Gold.PLP.Chemscore.Internal.Correction>
0.0102

> <Gold.Rescore>
     Score         DG    S(hbond)    S(metal)    S(lipo)     H(rot)  DE(clash)    DE(int)     intcor
      7.05      -8.66       1.67        0.00      58.99       3.64       0.05       1.57       ----

> <Gold.Chemscore.Fitness>
7.0464

> <Gold.Chemscore.DG>
-8.6574

> <Gold.Chemscore.ZeroCoef>
-5.4800

> <Gold.Chemscore.Hbond>
1.6721

> <Gold.Chemscore.Metal>
0.0000

> <Gold.Chemscore.Lipo>
58.9859

> <Gold.Chemscore.Internal_Hbond>
0.0000

> <Gold.Chemscore.DEClash>
0.0456

> <Gold.Chemscore.DEInternal>
1.5654

> <Gold.Chemscore.Rot>
3.6362

> <Gold.Chemscore.Internal.Correction>
   9.000000E+99

> <Gold.Chemscore.Hbonds>
donor molecule, donor type, donor heavy atom, donor atom, acceptor molecule, acceptor atom, score
      L1  H     1    24       P1  7949  0.41
      L1  H    13    29       P1  8029  0.02
      P1  H  7997  8010       L1     4  0.70
      P1  H 10752 10765       L1     1  0.03

> <Gold.Chemscore.Hbond.Weighted>
-5.5848

> <Gold.Chemscore.Metal.Weighted>
-0.0000

> <Gold.Chemscore.Lipo.Weighted>
-6.9014

> <Gold.Chemscore.Internal_Hbond.Weighted>
0.0000

> <Gold.Chemscore.DEClash.Weighted>
0.0456

> <Gold.Chemscore.DEInternal.Weighted>
1.5654

> <Gold.Chemscore.Rot.Weighted>
9.3087

> <Gold.Chemscore.Internal.Correction.Weighted>
   9.000000E+99

> <Gold.Protein.RotatedTorsions>
[ 6907 6896 6895 6894 ] final    9.34 input  -60.11 | X-H torsion
[ 7974 7965 7964 7962 ] final -119.60 input  175.53 | X-H torsion
[ 8008 7997 7996 7995 ] final   63.73 input   59.86 | X-H torsion
[ 10167 10162 10161 10158 ] final -140.91 input  -65.29 | X-H torsion
[ 10718 10713 10712 10709 ] final  -98.14 input   66.30 | X-H torsion
[ 10763 10752 10751 10750 ] final  160.83 input  -60.55 | X-H torsion
[ 11005 11000 10999 10996 ] final  177.15 input  -57.11 | X-H torsion

> <Gold.Protein.ActiveResidues>
 VAL166  LYS551  ARG553  GLY616  TRP617  ASP618  TYR619  PRO620  LYS621  CYS622 
 ASP623  PHE694  ASN695  SER759  ASP760  ASP761  ALA762  ILE779  LEU786  VAL792 
 PHE793  MET794  SER795  GLU796  ALA797  LYS798  CYS799  TRP800  GLU811  SER814 

> <Gold.Protein.RotatedAtoms>
  151.7206  135.0895  160.0283 H   0  0  0  0  0  0  0  0  0  0  0  0  # atno 6907 bound_to 6896
  152.3604  133.6285  159.6019 H   0  0  0  0  0  0  0  0  0  0  0  0  # atno 6908 bound_to 6896
  150.7600  133.9349  159.3480 H   0  0  0  0  0  0  0  0  0  0  0  0  # atno 6909 bound_to 6896
  145.0607  140.8288  143.4154 H   0  0  0  0  0  0  0  0  0  0  0  0  # atno 7974 bound_to 7965
  155.6348  140.3496  155.4695 H   0  0  0  0  0  0  0  0  0  0  0  0  # atno 8008 bound_to 7997
  155.9974  140.1206  157.0604 H   0  0  0  0  0  0  0  0  0  0  0  0  # atno 8009 bound_to 7997
  154.4238  140.1107  156.5635 H   0  0  0  0  0  0  0  0  0  0  0  0  # atno 8010 bound_to 7997
  139.8236  143.7541  152.2666 H   0  0  0  0  0  0  0  0  0  0  0  0  # atno 10167 bound_to 10162
  156.0100  130.5225  150.6479 H   0  0  0  0  0  0  0  0  0  0  0  0  # atno 10718 bound_to 10713
  154.2535  135.2771  155.2807 H   0  0  0  0  0  0  0  0  0  0  0  0  # atno 10763 bound_to 10752
  154.5445  135.5693  153.6871 H   0  0  0  0  0  0  0  0  0  0  0  0  # atno 10764 bound_to 10752
  152.9976  135.6259  154.2683 H   0  0  0  0  0  0  0  0  0  0  0  0  # atno 10765 bound_to 10752
  140.3809  134.6947  157.4450 H   0  0  0  0  0  0  0  0  0  0  0  0  # atno 11005 bound_to 11000
  145.1412  139.2571  143.5489 LP  0  0  0  0  0  0  0  0  0  0  0  0  # atno 17320 bound_to 7965
  146.3524  140.1090  142.8604 LP  0  0  0  0  0  0  0  0  0  0  0  0  # atno 17321 bound_to 7965
  139.7727  144.7471  151.0202 LP  0  0  0  0  0  0  0  0  0  0  0  0  # atno 17342 bound_to 10162
  140.7811  143.4628  151.0254 LP  0  0  0  0  0  0  0  0  0  0  0  0  # atno 17343 bound_to 10162
  157.4246  131.0841  151.1098 LP  0  0  0  0  0  0  0  0  0  0  0  0  # atno 17370 bound_to 10713
  157.1689  130.6258  149.5634 LP  0  0  0  0  0  0  0  0  0  0  0  0  # atno 17371 bound_to 10713
  140.0479  134.6173  155.8898 LP  0  0  0  0  0  0  0  0  0  0  0  0  # atno 17394 bound_to 11000
  141.1924  133.6575  156.5499 LP  0  0  0  0  0  0  0  0  0  0  0  0  # atno 17395 bound_to 11000

$$$$
