AV-unprocessed.smi:3330|AV-procd|sdf|12809|dock9
  -GOLD-   2272019173D 1   1.00000     0.00000
 Structure written by MMmdl.
 38 39  0  0  0  0  0  0  0  0  3 V2000
  146.1704  136.1029  153.4474 C   0  0  0  0  0  0  0  0  0  0  0  0
  145.9328  136.6198  152.0188 C   0  0  2  0  0  0  0  0  0  0  0  0
  145.6760  138.0760  152.0898 N   0  3  0  0  0  0  0  0  0  0  0  0
  146.8671  138.9160  152.3359 C   0  0  0  0  0  0  0  0  0  0  0  0
  146.9822  139.3274  153.8152 C   0  0  0  0  0  0  0  0  0  0  0  0
  148.3776  139.4702  154.2509 N   0  0  0  0  0  0  0  0  0  0  0  0
  149.1401  138.4663  154.6966 C   0  0  0  0  0  0  0  0  0  0  0  0
  148.8311  137.2811  154.8186 O   0  0  0  0  0  0  0  0  0  0  0  0
  150.5060  139.0332  155.0040 C   0  0  0  0  0  0  0  0  0  0  0  0
  150.3478  140.4251  154.6489 N   0  5  0  0  0  0  0  0  0  0  0  0
  149.0800  140.6186  154.2187 C   0  0  0  0  0  0  0  0  0  0  0  0
  148.5875  141.6762  153.8277 O   0  0  0  0  0  0  0  0  0  0  0  0
  144.7597  135.8954  151.3040 C   0  0  2  0  0  0  0  0  0  0  0  0
  143.4093  136.0627  152.0274 C   0  0  0  0  0  0  0  0  0  0  0  0
  145.0435  134.4777  151.1101 N   0  0  0  0  0  0  0  0  0  0  0  0
  144.2599  133.5283  150.4864 C   0  0  0  0  0  0  0  0  0  0  0  0
  144.9351  132.3427  150.5379 C   0  0  0  0  0  0  0  0  0  0  0  0
  146.1383  132.6680  151.2236 C   0  0  0  0  0  0  0  0  0  0  0  0
  146.2010  133.9451  151.5635 N   0  0  0  0  0  0  0  0  0  0  0  0
  146.4846  135.0595  153.4539 H   0  0  0  0  0  0  0  0  0  0  0  0
  145.2699  136.1870  154.0568 H   0  0  0  0  0  0  0  0  0  0  0  0
  146.9582  136.6732  153.9411 H   0  0  0  0  0  0  0  0  0  0  0  0
  146.8509  136.4460  151.4542 H   0  0  0  0  0  0  0  0  0  0  0  0
  145.2417  138.3726  151.2278 H   0  0  0  0  0  0  0  0  0  0  0  0
  147.7571  138.3607  152.0368 H   0  0  0  0  0  0  0  0  0  0  0  0
  146.8244  139.8075  151.7105 H   0  0  0  0  0  0  0  0  0  0  0  0
  146.4514  140.2664  153.9789 H   0  0  0  0  0  0  0  0  0  0  0  0
  146.4682  138.5917  154.4361 H   0  0  0  0  0  0  0  0  0  0  0  0
  150.7435  138.8805  156.0575 H   0  0  0  0  0  0  0  0  0  0  0  0
  151.2628  138.5206  154.4093 H   0  0  0  0  0  0  0  0  0  0  0  0
  144.6490  136.3325  150.3102 H   0  0  0  0  0  0  0  0  0  0  0  0
  143.0748  137.0997  152.0218 H   0  0  0  0  0  0  0  0  0  0  0  0
  143.4676  135.7363  153.0663 H   0  0  0  0  0  0  0  0  0  0  0  0
  142.6298  135.4762  151.5396 H   0  0  0  0  0  0  0  0  0  0  0  0
  143.2971  133.7716  150.0614 H   0  0  0  0  0  0  0  0  0  0  0  0
  144.6174  131.3870  150.1476 H   0  0  0  0  0  0  0  0  0  0  0  0
  146.9621  132.0192  151.4820 H   0  0  0  0  0  0  0  0  0  0  0  0
  145.0266  138.2414  152.8456 H   0  0  0  0  0  0  0  0  0  0  0  0
  1  2  1  0  0  0  0
  1 20  1  0  0  0  0
  1 21  1  0  0  0  0
  1 22  1  0  0  0  0
  2  3  1  0  0  0  0
  2 13  1  0  0  0  0
  2 23  1  0  0  0  0
  3  4  1  0  0  0  0
  3 24  1  0  0  0  0
  3 38  1  0  0  0  0
  4  5  1  0  0  0  0
  4 25  1  0  0  0  0
  4 26  1  0  0  0  0
  5  6  1  0  0  0  0
  5 27  1  0  0  0  0
  5 28  1  0  0  0  0
  6 11  1  0  0  0  0
  6  7  1  0  0  0  0
  7  8  2  0  0  0  0
  7  9  1  0  0  0  0
  9 10  1  0  0  0  0
  9 29  1  0  0  0  0
  9 30  1  0  0  0  0
 10 11  1  0  0  0  0
 11 12  2  0  0  0  0
 13 14  1  0  0  0  0
 13 15  1  0  0  0  0
 13 31  1  0  0  0  0
 14 32  1  0  0  0  0
 14 33  1  0  0  0  0
 14 34  1  0  0  0  0
 15 19  1  0  0  0  0
 15 16  1  0  0  0  0
 16 17  2  0  0  0  0
 16 35  1  0  0  0  0
 17 18  1  0  0  0  0
 17 36  1  0  0  0  0
 18 19  2  0  0  0  0
 18 37  1  0  0  0  0
M  CHG  1   3   1
M  CHG  1  10  -1
M  END
> <s_m_source_file>
AV-unprocessed.smi

> <i_m_source_file_index>
3330

> <i_lp_mmshare_version>
43012

> <i_f3d_flags>
0

> <s_epik_input>
bjFbY0hdW2NIXVtjSF1uMVtDQEBIXShbQ0gzXSlbQ0BIXShbQ0gzXSlbTkhdW0NIMl1bQ0gyXU4yQyg9TylbQ0gyXVtOSF1DMj1P

> <s_epik_cmdline>
J2VwaWtfcHl0aG9uJywgJy1waCcsICc3LjAnLCAnLXRuJywgJzgnLCAnLW1hJywgJzIwMCcsICctbWV0YWxfYmluZGluZycsICctaW1hZScsICc8aW5maWxlLm1hZT4nLCAnLW9tYWUnLCAnPG91dGZpbGUubWFlPic=

> <r_lp_tautomer_probability>
1

> <r_epik_Ionization_Penalty>
5.18149

> <r_epik_Ionization_Penalty_Charging>
5.18148

> <r_epik_Ionization_Penalty_Neutral>
9.83265e-06

> <r_epik_State_Penalty>
5.18201

> <r_epik_Charging_Adjusted_Penalty>
10.3635

> <i_epik_Tot_Q>
0

> <i_epik_Tot_abs_Q>
2

> <r_epik_Metal_State_Penalty>
1.25422

> <b_epik_Metal_Only>
1

> <s_lp_Force_Field>
OPLS_2005

> <r_lp_Energy>
23.9108

> <b_lp_Chiralities_Consistent>
1

> <s_lp_Variant>
AV-unprocessed.smi:3330-9

> <Gold.Version>
5.8.1

> <Gold.Id.Protein>
6NUR|6NUR_protein|mol2

> <Gold.PLP.Fitness>
44.8710

> <Gold.PLP.PLP>
-33.0788

> <Gold.PLP.part.hbond>
-3.7601

> <Gold.PLP.part.metal>
0.0000

> <Gold.PLP.part.buried>
-1.5180

> <Gold.PLP.part.nonpolar>
-27.5633

> <Gold.PLP.part.repulsive>
1.4754

> <Gold.PLP.ligand.clash>
0.0000

> <Gold.PLP.ligand.torsion>
1.0259

> <Gold.PLP.Chemscore.Hbond>
2.5692

> <Gold.PLP.Chemscore.CHOScore>
2.0000

> <Gold.PLP.Chemscore.Metal>
0.0000

> <Gold.Chemscore.Hbonds>
donor molecule, donor type, donor heavy atom, donor atom, acceptor molecule, acceptor atom, score
      L1  H     3    24       P1 10171  1.00
      P1  H  7989  7998       L1    10  1.00
      P1  H  8011  8017       L1    12  0.57
      L1  C    16    35       P1 10186  1.00
      L1  C    18    37       P1 10747  0.77

> <Gold.PLP.Chemscore.Internal.Correction>
0.1363

> <Gold.Rescore>
     Score         DG    S(hbond)    S(metal)    S(lipo)     H(rot)  DE(clash)    DE(int)     intcor
     10.89     -14.55       2.41        0.00      65.31       2.59       1.29       2.38       ----

> <Gold.Chemscore.Fitness>
10.8851

> <Gold.Chemscore.DG>
-14.5515

> <Gold.Chemscore.ZeroCoef>
-5.4800

> <Gold.Chemscore.Hbond>
2.4135

> <Gold.Chemscore.Metal>
0.0000

> <Gold.Chemscore.Lipo>
65.3127

> <Gold.Chemscore.Internal_Hbond>
0.0000

> <Gold.Chemscore.DEClash>
1.2892

> <Gold.Chemscore.DEInternal>
2.3772

> <Gold.Chemscore.Rot>
2.5903

> <Gold.Chemscore.Internal.Correction>
   9.000000E+99

> <Gold.Chemscore.Hbonds>
donor molecule, donor type, donor heavy atom, donor atom, acceptor molecule, acceptor atom, score
      L1  H     3    24       P1 10171  0.98
      P1  H  7989  7998       L1    10  0.61
      P1  H  8011  8017       L1    12  0.35

> <Gold.Chemscore.Hbond.Weighted>
-8.0610

> <Gold.Chemscore.Metal.Weighted>
-0.0000

> <Gold.Chemscore.Lipo.Weighted>
-7.6416

> <Gold.Chemscore.Internal_Hbond.Weighted>
0.0000

> <Gold.Chemscore.DEClash.Weighted>
1.2892

> <Gold.Chemscore.DEInternal.Weighted>
2.3772

> <Gold.Chemscore.Rot.Weighted>
6.6311

> <Gold.Chemscore.Internal.Correction.Weighted>
   9.000000E+99

> <Gold.Protein.RotatedTorsions>
[ 6907 6896 6895 6894 ] final  139.90 input  -60.11 | X-H torsion
[ 7974 7965 7964 7962 ] final -101.06 input  175.53 | X-H torsion
[ 8008 7997 7996 7995 ] final   46.25 input   59.86 | X-H torsion
[ 10167 10162 10161 10158 ] final   39.76 input  -65.29 | X-H torsion
[ 10718 10713 10712 10709 ] final  -69.31 input   66.30 | X-H torsion
[ 10763 10752 10751 10750 ] final  -51.24 input  -60.55 | X-H torsion
[ 11005 11000 10999 10996 ] final -131.11 input  -57.11 | X-H torsion

> <Gold.Protein.ActiveResidues>
 VAL166  LYS551  ARG553  GLY616  TRP617  ASP618  TYR619  PRO620  LYS621  CYS622 
 ASP623  PHE694  ASN695  SER759  ASP760  ASP761  ALA762  ILE779  LEU786  VAL792 
 PHE793  MET794  SER795  GLU796  ALA797  LYS798  CYS799  TRP800  GLU811  SER814 

> <Gold.Protein.RotatedAtoms>
  152.2494  133.5202  159.5316 H   0  0  0  0  0  0  0  0  0  0  0  0  # atno 6907 bound_to 6896
  150.7089  134.0980  159.3964 H   0  0  0  0  0  0  0  0  0  0  0  0  # atno 6908 bound_to 6896
  151.8900  135.0420  160.0547 H   0  0  0  0  0  0  0  0  0  0  0  0  # atno 6909 bound_to 6896
  145.2865  140.9341  143.2902 H   0  0  0  0  0  0  0  0  0  0  0  0  # atno 7974 bound_to 7965
  155.3494  140.3412  155.4239 H   0  0  0  0  0  0  0  0  0  0  0  0  # atno 8008 bound_to 7997
  156.1772  140.1651  156.8377 H   0  0  0  0  0  0  0  0  0  0  0  0  # atno 8009 bound_to 7997
  154.5294  140.0748  156.8301 H   0  0  0  0  0  0  0  0  0  0  0  0  # atno 8010 bound_to 7997
  140.3808  144.1982  150.6131 H   0  0  0  0  0  0  0  0  0  0  0  0  # atno 10167 bound_to 10162
  156.0462  130.4310  150.2129 H   0  0  0  0  0  0  0  0  0  0  0  0  # atno 10718 bound_to 10713
  154.1234  135.6531  153.4907 H   0  0  0  0  0  0  0  0  0  0  0  0  # atno 10763 bound_to 10752
  153.0218  135.5275  154.7074 H   0  0  0  0  0  0  0  0  0  0  0  0  # atno 10764 bound_to 10752
  154.6288  135.2973  155.0211 H   0  0  0  0  0  0  0  0  0  0  0  0  # atno 10765 bound_to 10752
  140.9287  134.1348  157.4253 H   0  0  0  0  0  0  0  0  0  0  0  0  # atno 11005 bound_to 11000
  144.9209  139.4413  143.6542 LP  0  0  0  0  0  0  0  0  0  0  0  0  # atno 17320 bound_to 7965
  146.3199  139.8068  142.8954 LP  0  0  0  0  0  0  0  0  0  0  0  0  # atno 17321 bound_to 7965
  140.4939  143.2338  151.8778 LP  0  0  0  0  0  0  0  0  0  0  0  0  # atno 17342 bound_to 10162
  139.4795  144.5135  151.8900 LP  0  0  0  0  0  0  0  0  0  0  0  0  # atno 17343 bound_to 10162
  157.0218  130.9981  151.3337 LP  0  0  0  0  0  0  0  0  0  0  0  0  # atno 17370 bound_to 10713
  157.5339  130.8076  149.7949 LP  0  0  0  0  0  0  0  0  0  0  0  0  # atno 17371 bound_to 10713
  139.8791  134.9997  156.5971 LP  0  0  0  0  0  0  0  0  0  0  0  0  # atno 17394 bound_to 11000
  140.7891  133.8597  155.8631 LP  0  0  0  0  0  0  0  0  0  0  0  0  # atno 17395 bound_to 11000

$$$$
