AV-unprocessed.smi:1639|AV-procd|sdf|6550|dock10
  -GOLD-   22720 7233D 1   1.00000     0.00000
 Structure written by MMmdl.
 38 39  0  0  0  0  0  0  0  0  2 V2000
  148.2636  127.4664  151.5842 C   0  0  0  0  0  0  0  0  0  0  0  0
  147.3168  128.1183  152.5941 C   0  0  0  0  0  0  0  0  0  0  0  0
  148.0857  128.7252  153.6196 O   0  0  0  0  0  0  0  0  0  0  0  0
  148.5270  130.0387  153.3070 C   0  0  2  0  0  0  0  0  0  0  0  0
  149.1562  130.6644  154.5630 C   0  0  0  0  0  0  0  0  0  0  0  0
  149.5007  132.1403  154.3039 C   0  0  0  0  0  0  0  0  0  0  0  0
  148.2686  132.9145  153.8027 C   0  0  0  0  0  0  0  0  0  0  0  0
  147.6806  132.2585  152.6371 N   0  0  0  0  0  0  0  0  0  0  0  0
  146.6648  133.0120  152.0360 C   0  0  0  0  0  0  0  0  0  0  0  0
  145.4073  132.4409  151.7645 C   0  0  0  0  0  0  0  0  0  0  0  0
  144.4466  133.2753  151.1674 C   0  0  0  0  0  0  0  0  0  0  0  0
  143.0570  132.7742  150.8352 C   0  0  0  0  0  0  0  0  0  0  0  0
  144.7189  134.5614  150.8656 N   0  0  0  0  0  0  0  0  0  0  0  0
  145.9343  135.0451  151.1460 C   0  0  0  0  0  0  0  0  0  0  0  0
  146.2026  136.3567  150.8348 N   0  0  0  0  0  0  0  0  0  0  0  0
  146.9015  134.3118  151.7164 N   0  3  0  0  0  0  0  0  0  0  0  0
  147.3115  130.8610  152.8472 C   0  0  0  0  0  0  0  0  0  0  0  0
  147.7057  126.9888  150.7786 H   0  0  0  0  0  0  0  0  0  0  0  0
  148.8795  126.7037  152.0616 H   0  0  0  0  0  0  0  0  0  0  0  0
  148.9299  128.2051  151.1381 H   0  0  0  0  0  0  0  0  0  0  0  0
  146.6973  128.8669  152.0977 H   0  0  0  0  0  0  0  0  0  0  0  0
  146.6529  127.3642  153.0197 H   0  0  0  0  0  0  0  0  0  0  0  0
  149.2696  130.0343  152.5058 H   0  0  0  0  0  0  0  0  0  0  0  0
  148.4591  130.5938  155.3990 H   0  0  0  0  0  0  0  0  0  0  0  0
  150.0503  130.1119  154.8531 H   0  0  0  0  0  0  0  0  0  0  0  0
  149.8868  132.6000  155.2142 H   0  0  0  0  0  0  0  0  0  0  0  0
  150.2978  132.2035  153.5618 H   0  0  0  0  0  0  0  0  0  0  0  0
  147.5244  132.9795  154.5979 H   0  0  0  0  0  0  0  0  0  0  0  0
  148.5526  133.9362  153.5466 H   0  0  0  0  0  0  0  0  0  0  0  0
  145.1927  131.4106  152.0091 H   0  0  0  0  0  0  0  0  0  0  0  0
  142.9374  131.7286  151.1210 H   0  0  0  0  0  0  0  0  0  0  0  0
  142.8680  132.8582  149.7648 H   0  0  0  0  0  0  0  0  0  0  0  0
  142.3048  133.3592  151.3652 H   0  0  0  0  0  0  0  0  0  0  0  0
  145.4949  136.9350  150.4053 H   0  0  0  0  0  0  0  0  0  0  0  0
  147.1100  136.7558  151.0268 H   0  0  0  0  0  0  0  0  0  0  0  0
  146.9091  130.4432  151.9233 H   0  0  0  0  0  0  0  0  0  0  0  0
  146.5210  130.8018  153.5971 H   0  0  0  0  0  0  0  0  0  0  0  0
  147.8159  134.7167  151.9170 H   0  0  0  0  0  0  0  0  0  0  0  0
  1  2  1  0  0  0  0
  1 18  1  0  0  0  0
  1 19  1  0  0  0  0
  1 20  1  0  0  0  0
  2  3  1  0  0  0  0
  2 21  1  0  0  0  0
  2 22  1  0  0  0  0
  3  4  1  0  0  0  0
  4 17  1  0  0  0  0
  4  5  1  0  0  0  0
  4 23  1  0  0  0  0
  5  6  1  0  0  0  0
  5 24  1  0  0  0  0
  5 25  1  0  0  0  0
  6  7  1  0  0  0  0
  6 26  1  0  0  0  0
  6 27  1  0  0  0  0
  7  8  1  0  0  0  0
  7 28  1  0  0  0  0
  7 29  1  0  0  0  0
  8  9  1  0  0  0  0
  8 17  1  0  0  0  0
  9 16  1  0  0  0  0
  9 10  2  0  0  0  0
 10 11  1  0  0  0  0
 10 30  1  0  0  0  0
 11 12  1  0  0  0  0
 11 13  2  0  0  0  0
 12 31  1  0  0  0  0
 12 32  1  0  0  0  0
 12 33  1  0  0  0  0
 13 14  1  0  0  0  0
 14 15  1  0  0  0  0
 14 16  2  0  0  0  0
 15 34  1  0  0  0  0
 15 35  1  0  0  0  0
 16 38  1  0  0  0  0
 17 36  1  0  0  0  0
 17 37  1  0  0  0  0
M  CHG  1  16   1
M  END
> <s_m_source_file>
AV-unprocessed.smi

> <i_m_source_file_index>
1639

> <i_lp_mmshare_version>
43012

> <i_f3d_flags>
0

> <s_epik_input>
W0NIM11bQ0gyXU9bQ0BASF0xW0NIMl1bQ0gyXVtDSDJdTihbQ0gyXTEpYzJbY0hdYyhbQ0gzXSluYyhuMilbTkgyXQ==

> <s_epik_cmdline>
J2VwaWtfcHl0aG9uJywgJy1waCcsICc3LjAnLCAnLXRuJywgJzgnLCAnLW1hJywgJzIwMCcsICctbWV0YWxfYmluZGluZycsICctaW1hZScsICc8aW5maWxlLm1hZT4nLCAnLW9tYWUnLCAnPG91dGZpbGUubWFlPic=

> <r_lp_tautomer_probability>
0.424989

> <r_epik_Ionization_Penalty>
0.443088

> <r_epik_Ionization_Penalty_Charging>
0.443085

> <r_epik_Ionization_Penalty_Neutral>
3.21819e-06

> <r_epik_State_Penalty>
1.26241

> <r_epik_Charging_Adjusted_Penalty>
1.70549

> <i_epik_Tot_Q>
1

> <i_epik_Tot_abs_Q>
1

> <r_epik_Metal_State_Penalty>
1.59997

> <b_epik_Metal_Only>
0

> <s_lp_Force_Field>
OPLS_2005

> <r_lp_Energy>
14.3037

> <b_lp_Chiralities_Consistent>
1

> <s_lp_Variant>
AV-unprocessed.smi:1639-3

> <Gold.Version>
5.8.1

> <Gold.Id.Protein>
6NUR|6NUR_protein|mol2

> <Gold.PLP.Fitness>
36.4961

> <Gold.PLP.PLP>
-27.6899

> <Gold.PLP.part.hbond>
-2.0000

> <Gold.PLP.part.metal>
0.0000

> <Gold.PLP.part.buried>
0.1825

> <Gold.PLP.part.nonpolar>
-25.5131

> <Gold.PLP.part.repulsive>
0.9681

> <Gold.PLP.ligand.clash>
1.7731

> <Gold.PLP.ligand.torsion>
0.2657

> <Gold.PLP.Chemscore.Hbond>
3.6518

> <Gold.PLP.Chemscore.CHOScore>
0.0000

> <Gold.PLP.Chemscore.Metal>
0.0000

> <Gold.Chemscore.Hbonds>
donor molecule, donor type, donor heavy atom, donor atom, acceptor molecule, acceptor atom, score
      L1  H    15    34       P1 10171  0.11
      L1  H    15    35       P1  7948  1.59
      L1  H    16    38       P1  7948  1.95

> <Gold.PLP.Chemscore.Internal.Correction>
0.1556

> <Gold.Rescore>
     Score         DG    S(hbond)    S(metal)    S(lipo)     H(rot)  DE(clash)    DE(int)     intcor
     14.79     -15.20       1.88        0.00      61.36       1.46       0.18       0.24       ----

> <Gold.Chemscore.Fitness>
14.7899

> <Gold.Chemscore.DG>
-15.2048

> <Gold.Chemscore.ZeroCoef>
-5.4800

> <Gold.Chemscore.Hbond>
1.8781

> <Gold.Chemscore.Metal>
0.0000

> <Gold.Chemscore.Lipo>
61.3606

> <Gold.Chemscore.Internal_Hbond>
0.0000

> <Gold.Chemscore.DEClash>
0.1756

> <Gold.Chemscore.DEInternal>
0.2393

> <Gold.Chemscore.Rot>
1.4560

> <Gold.Chemscore.Internal.Correction>
   9.000000E+99

> <Gold.Chemscore.Hbonds>
donor molecule, donor type, donor heavy atom, donor atom, acceptor molecule, acceptor atom, score
      L1  H    15    34       P1 10171  0.14
      L1  H    15    35       P1  7948  0.74
      L1  H    16    38       P1  7948  0.37

> <Gold.Chemscore.Hbond.Weighted>
-6.2728

> <Gold.Chemscore.Metal.Weighted>
-0.0000

> <Gold.Chemscore.Lipo.Weighted>
-7.1792

> <Gold.Chemscore.Internal_Hbond.Weighted>
0.0000

> <Gold.Chemscore.DEClash.Weighted>
0.1756

> <Gold.Chemscore.DEInternal.Weighted>
0.2393

> <Gold.Chemscore.Rot.Weighted>
3.7272

> <Gold.Chemscore.Internal.Correction.Weighted>
   9.000000E+99

> <Gold.Protein.RotatedTorsions>
[ 6907 6896 6895 6894 ] final   58.55 input  -60.11 | X-H torsion
[ 7974 7965 7964 7962 ] final   22.89 input  175.53 | X-H torsion
[ 8008 7997 7996 7995 ] final -172.96 input   59.86 | X-H torsion
[ 10167 10162 10161 10158 ] final  -52.45 input  -65.29 | X-H torsion
[ 10718 10713 10712 10709 ] final  -50.59 input   66.30 | X-H torsion
[ 10763 10752 10751 10750 ] final  177.80 input  -60.55 | X-H torsion
[ 11005 11000 10999 10996 ] final   -3.98 input  -57.11 | X-H torsion

> <Gold.Protein.ActiveResidues>
 VAL166  LYS551  ARG553  GLY616  TRP617  ASP618  TYR619  PRO620  LYS621  CYS622 
 ASP623  PHE694  ASN695  SER759  ASP760  ASP761  ALA762  ILE779  LEU786  VAL792 
 PHE793  MET794  SER795  GLU796  ALA797  LYS798  CYS799  TRP800  GLU811  SER814 

> <Gold.Protein.RotatedAtoms>
  152.3834  134.6555  160.0134 H   0  0  0  0  0  0  0  0  0  0  0  0  # atno 6907 bound_to 6896
  151.6811  133.3306  159.3227 H   0  0  0  0  0  0  0  0  0  0  0  0  # atno 6908 bound_to 6896
  150.7766  134.6716  159.6439 H   0  0  0  0  0  0  0  0  0  0  0  0  # atno 6909 bound_to 6896
  146.2009  139.7821  142.8762 H   0  0  0  0  0  0  0  0  0  0  0  0  # atno 7974 bound_to 7965
  155.9513  140.1127  157.0974 H   0  0  0  0  0  0  0  0  0  0  0  0  # atno 8008 bound_to 7997
  154.4110  140.1200  156.5123 H   0  0  0  0  0  0  0  0  0  0  0  0  # atno 8009 bound_to 7997
  155.6838  140.3473  155.4868 H   0  0  0  0  0  0  0  0  0  0  0  0  # atno 8010 bound_to 7997
  140.6537  143.2583  151.4649 H   0  0  0  0  0  0  0  0  0  0  0  0  # atno 10167 bound_to 10162
  156.1787  130.4150  149.9539 H   0  0  0  0  0  0  0  0  0  0  0  0  # atno 10718 bound_to 10713
  154.4993  135.2783  155.1434 H   0  0  0  0  0  0  0  0  0  0  0  0  # atno 10763 bound_to 10752
  154.3074  135.6236  153.5454 H   0  0  0  0  0  0  0  0  0  0  0  0  # atno 10764 bound_to 10752
  152.9900  135.5711  154.5432 H   0  0  0  0  0  0  0  0  0  0  0  0  # atno 10765 bound_to 10752
  140.6753  133.9201  155.8520 H   0  0  0  0  0  0  0  0  0  0  0  0  # atno 11005 bound_to 11000
  145.3488  141.0303  143.3350 LP  0  0  0  0  0  0  0  0  0  0  0  0  # atno 17320 bound_to 7965
  144.8681  139.5078  143.6781 LP  0  0  0  0  0  0  0  0  0  0  0  0  # atno 17321 bound_to 7965
  139.5756  144.1828  152.1898 LP  0  0  0  0  0  0  0  0  0  0  0  0  # atno 17342 bound_to 10162
  140.1137  144.5434  150.6908 LP  0  0  0  0  0  0  0  0  0  0  0  0  # atno 17343 bound_to 10162
  156.7316  130.9045  151.3626 LP  0  0  0  0  0  0  0  0  0  0  0  0  # atno 17370 bound_to 10713
  157.6853  130.9180  150.0371 LP  0  0  0  0  0  0  0  0  0  0  0  0  # atno 17371 bound_to 10713
  141.0360  134.0688  157.3958 LP  0  0  0  0  0  0  0  0  0  0  0  0  # atno 17394 bound_to 11000
  139.8969  135.0148  156.7072 LP  0  0  0  0  0  0  0  0  0  0  0  0  # atno 17395 bound_to 11000

$$$$
