AV-unprocessed.smi:2459|AV-procd|sdf|9713|dock1
  -GOLD-   2272013353D 1   1.00000     0.00000
 Structure written by MMmdl.
 46 47  0  0  0  0  0  0  0  0  1 V2000
  154.7109  135.9839  163.6401 C   0  0  0  0  0  0  0  0  0  0  0  0
  155.1150  135.2705  162.4726 O   0  0  0  0  0  0  0  0  0  0  0  0
  155.7290  136.0102  161.4065 C   0  0  0  0  0  0  0  0  0  0  0  0
  157.0248  136.6985  161.8970 C   0  0  0  0  0  0  0  0  0  0  0  0
  156.0842  134.9680  160.3314 C   0  0  0  0  0  0  0  0  0  0  0  0
  154.7335  137.0290  160.8034 C   0  0  0  0  0  0  0  0  0  0  0  0
  153.7947  136.6293  160.1146 O   0  0  0  0  0  0  0  0  0  0  0  0
  154.9705  138.3263  161.0787 N   0  0  0  0  0  0  0  0  0  0  0  0
  154.2562  139.4789  160.6535 C   0  0  0  0  0  0  0  0  0  0  0  0
  154.3927  140.6540  161.4189 C   0  0  0  0  0  0  0  0  0  0  0  0
  153.7647  141.8119  161.1298 N   0  0  0  0  0  0  0  0  0  0  0  0
  152.9492  141.8520  160.0499 C   0  0  0  0  0  0  0  0  0  0  0  0
  152.3124  143.0696  159.7637 N   0  0  0  0  0  0  0  0  0  0  0  0
  152.6941  143.6312  158.4705 C   0  0  0  0  0  0  0  0  0  0  0  0
  151.8020  144.8323  158.1134 C   0  0  0  0  0  0  0  0  0  0  0  0
  151.8176  145.8807  159.2380 C   0  0  0  0  0  0  0  0  0  0  0  0
  151.4393  145.2295  160.5784 C   0  0  0  0  0  0  0  0  0  0  0  0
  152.3400  144.0181  160.8742 C   0  0  0  0  0  0  0  0  0  0  0  0
  152.7276  140.7248  159.2227 C   0  0  0  0  0  0  0  0  0  0  0  0
  151.7992  140.7931  158.0227 C   0  0  0  0  0  0  0  0  0  0  0  0
  153.3898  139.5191  159.5356 C   0  0  0  0  0  0  0  0  0  0  0  0
  154.1599  135.3092  164.2948 H   0  0  0  0  0  0  0  0  0  0  0  0
  154.0580  136.8274  163.4161 H   0  0  0  0  0  0  0  0  0  0  0  0
  155.5695  136.3489  164.2035 H   0  0  0  0  0  0  0  0  0  0  0  0
  157.5988  137.1065  161.0639 H   0  0  0  0  0  0  0  0  0  0  0  0
  157.6705  135.9911  162.4184 H   0  0  0  0  0  0  0  0  0  0  0  0
  156.8196  137.5246  162.5788 H   0  0  0  0  0  0  0  0  0  0  0  0
  156.5699  135.4291  159.4702 H   0  0  0  0  0  0  0  0  0  0  0  0
  155.1969  134.4461  159.9707 H   0  0  0  0  0  0  0  0  0  0  0  0
  156.7653  134.2143  160.7278 H   0  0  0  0  0  0  0  0  0  0  0  0
  155.8143  138.5102  161.6027 H   0  0  0  0  0  0  0  0  0  0  0  0
  155.0317  140.6699  162.2898 H   0  0  0  0  0  0  0  0  0  0  0  0
  153.7391  143.9427  158.5031 H   0  0  0  0  0  0  0  0  0  0  0  0
  152.6122  142.8650  157.6982 H   0  0  0  0  0  0  0  0  0  0  0  0
  152.1356  145.2805  157.1773 H   0  0  0  0  0  0  0  0  0  0  0  0
  150.7798  144.4899  157.9470 H   0  0  0  0  0  0  0  0  0  0  0  0
  152.8121  146.3220  159.3131 H   0  0  0  0  0  0  0  0  0  0  0  0
  151.1303  146.6946  159.0056 H   0  0  0  0  0  0  0  0  0  0  0  0
  151.5165  145.9586  161.3853 H   0  0  0  0  0  0  0  0  0  0  0  0
  150.3971  144.9091  160.5478 H   0  0  0  0  0  0  0  0  0  0  0  0
  152.0088  143.5234  161.7883 H   0  0  0  0  0  0  0  0  0  0  0  0
  153.3648  144.3518  161.0438 H   0  0  0  0  0  0  0  0  0  0  0  0
  151.7471  139.8355  157.5042 H   0  0  0  0  0  0  0  0  0  0  0  0
  152.1510  141.5426  157.3132 H   0  0  0  0  0  0  0  0  0  0  0  0
  150.7908  141.0631  158.3373 H   0  0  0  0  0  0  0  0  0  0  0  0
  153.2120  138.6493  158.9228 H   0  0  0  0  0  0  0  0  0  0  0  0
  1  2  1  0  0  0  0
  1 22  1  0  0  0  0
  1 23  1  0  0  0  0
  1 24  1  0  0  0  0
  2  3  1  0  0  0  0
  3  4  1  0  0  0  0
  3  5  1  0  0  0  0
  3  6  1  0  0  0  0
  4 25  1  0  0  0  0
  4 26  1  0  0  0  0
  4 27  1  0  0  0  0
  5 28  1  0  0  0  0
  5 29  1  0  0  0  0
  5 30  1  0  0  0  0
  6  7  2  0  0  0  0
  6  8  1  0  0  0  0
  8  9  1  0  0  0  0
  8 31  1  0  0  0  0
  9 21  1  0  0  0  0
  9 10  2  0  0  0  0
 10 11  1  0  0  0  0
 10 32  1  0  0  0  0
 11 12  2  0  0  0  0
 12 13  1  0  0  0  0
 12 19  1  0  0  0  0
 13 18  1  0  0  0  0
 13 14  1  0  0  0  0
 14 15  1  0  0  0  0
 14 33  1  0  0  0  0
 14 34  1  0  0  0  0
 15 16  1  0  0  0  0
 15 35  1  0  0  0  0
 15 36  1  0  0  0  0
 16 17  1  0  0  0  0
 16 37  1  0  0  0  0
 16 38  1  0  0  0  0
 17 18  1  0  0  0  0
 17 39  1  0  0  0  0
 17 40  1  0  0  0  0
 18 41  1  0  0  0  0
 18 42  1  0  0  0  0
 19 20  1  0  0  0  0
 19 21  2  0  0  0  0
 20 43  1  0  0  0  0
 20 44  1  0  0  0  0
 20 45  1  0  0  0  0
 21 46  1  0  0  0  0
M  END
> <s_m_source_file>
AV-unprocessed.smi

> <i_m_source_file_index>
2459

> <i_lp_mmshare_version>
43012

> <i_f3d_flags>
0

> <s_epik_input>
W0NIM11PQyhbQ0gzXSkoW0NIM10pQyg9TylbTkhdYzFbY0hdbmMoYyhbQ0gzXSlbY0hdMSlOMltDSDJdW0NIMl1bQ0gyXVtDSDJdW0NIMl0y

> <s_epik_cmdline>
J2VwaWtfcHl0aG9uJywgJy1waCcsICc3LjAnLCAnLXRuJywgJzgnLCAnLW1hJywgJzIwMCcsICctbWV0YWxfYmluZGluZycsICctaW1hZScsICc8aW5maWxlLm1hZT4nLCAnLW9tYWUnLCAnPG91dGZpbGUubWFlPic=

> <r_lp_tautomer_probability>
1

> <r_epik_Ionization_Penalty>
0.0966188

> <r_epik_Ionization_Penalty_Charging>
0

> <r_epik_Ionization_Penalty_Neutral>
0.0966188

> <r_epik_State_Penalty>
1.07001

> <r_epik_Charging_Adjusted_Penalty>
1.07001

> <i_epik_Tot_Q>
0

> <i_epik_Tot_abs_Q>
0

> <r_epik_Metal_State_Penalty>
1.00145

> <b_epik_Metal_Only>
0

> <s_lp_Force_Field>
OPLS_2005

> <r_lp_Energy>
29.1962

> <b_lp_Chiralities_Consistent>
1

> <s_lp_Variant>
AV-unprocessed.smi:2459-2

> <Gold.Version>
5.8.1

> <Gold.Id.Protein>
6NUR|6NUR_protein|mol2

> <Gold.PLP.Fitness>
43.0208

> <Gold.PLP.PLP>
-41.6515

> <Gold.PLP.part.hbond>
-1.0000

> <Gold.PLP.part.metal>
0.0000

> <Gold.PLP.part.buried>
-5.3562

> <Gold.PLP.part.nonpolar>
-35.0909

> <Gold.PLP.part.repulsive>
0.0019

> <Gold.PLP.ligand.clash>
0.1514

> <Gold.PLP.ligand.torsion>
0.8386

> <Gold.PLP.Chemscore.Hbond>
0.9913

> <Gold.PLP.Chemscore.CHOScore>
0.0000

> <Gold.PLP.Chemscore.Metal>
0.0000

> <Gold.Chemscore.Hbonds>
donor molecule, donor type, donor heavy atom, donor atom, acceptor molecule, acceptor atom, score
      P1  H  6896  6908       L1     7  0.10

> <Gold.PLP.Chemscore.Internal.Correction>
0.2241

> <Gold.Rescore>
     Score         DG    S(hbond)    S(metal)    S(lipo)     H(rot)  DE(clash)    DE(int)     intcor
     16.23     -18.02       0.99        0.00     107.87       1.32       0.00       1.78       ----

> <Gold.Chemscore.Fitness>
16.2338

> <Gold.Chemscore.DG>
-18.0157

> <Gold.Chemscore.ZeroCoef>
-5.4800

> <Gold.Chemscore.Hbond>
0.9853

> <Gold.Chemscore.Metal>
0.0000

> <Gold.Chemscore.Lipo>
107.8747

> <Gold.Chemscore.Internal_Hbond>
0.0000

> <Gold.Chemscore.DEClash>
0.0000

> <Gold.Chemscore.DEInternal>
1.7819

> <Gold.Chemscore.Rot>
1.3189

> <Gold.Chemscore.Internal.Correction>
   9.000000E+99

> <Gold.Chemscore.Hbonds>
donor molecule, donor type, donor heavy atom, donor atom, acceptor molecule, acceptor atom, score
      P1  H  6896  6908       L1     7  0.12

> <Gold.Chemscore.Hbond.Weighted>
-3.2908

> <Gold.Chemscore.Metal.Weighted>
-0.0000

> <Gold.Chemscore.Lipo.Weighted>
-12.6213

> <Gold.Chemscore.Internal_Hbond.Weighted>
0.0000

> <Gold.Chemscore.DEClash.Weighted>
0.0000

> <Gold.Chemscore.DEInternal.Weighted>
1.7819

> <Gold.Chemscore.Rot.Weighted>
3.3764

> <Gold.Chemscore.Internal.Correction.Weighted>
   9.000000E+99

> <Gold.Protein.RotatedTorsions>
[ 6907 6896 6895 6894 ] final  -56.72 input  -60.11 | X-H torsion
[ 7974 7965 7964 7962 ] final  148.74 input  175.53 | X-H torsion
[ 8008 7997 7996 7995 ] final -112.05 input   59.86 | X-H torsion
[ 10167 10162 10161 10158 ] final   10.19 input  -65.29 | X-H torsion
[ 10718 10713 10712 10709 ] final   -2.83 input   66.30 | X-H torsion
[ 10763 10752 10751 10750 ] final   21.18 input  -60.55 | X-H torsion
[ 11005 11000 10999 10996 ] final   60.32 input  -57.11 | X-H torsion

> <Gold.Protein.ActiveResidues>
 VAL166  LYS551  ARG553  GLY616  TRP617  ASP618  TYR619  PRO620  LYS621  CYS622 
 ASP623  PHE694  ASN695  SER759  ASP760  ASP761  ALA762  ILE779  LEU786  VAL792 
 PHE793  MET794  SER795  GLU796  ALA797  LYS798  CYS799  TRP800  GLU811  SER814 

> <Gold.Protein.RotatedAtoms>
  150.8144  134.7317  159.6716 H   0  0  0  0  0  0  0  0  0  0  0  0  # atno 6907 bound_to 6896
  152.4263  134.5858  159.9970 H   0  0  0  0  0  0  0  0  0  0  0  0  # atno 6908 bound_to 6896
  151.6059  133.3314  159.3093 H   0  0  0  0  0  0  0  0  0  0  0  0  # atno 6909 bound_to 6896
  144.8491  139.6191  143.5982 H   0  0  0  0  0  0  0  0  0  0  0  0  # atno 7974 bound_to 7965
  154.9993  140.0394  157.2353 H   0  0  0  0  0  0  0  0  0  0  0  0  # atno 8008 bound_to 7997
  154.7558  140.2775  155.6231 H   0  0  0  0  0  0  0  0  0  0  0  0  # atno 8009 bound_to 7997
  156.2894  140.2638  156.2324 H   0  0  0  0  0  0  0  0  0  0  0  0  # atno 8010 bound_to 7997
  140.6209  143.8206  150.7174 H   0  0  0  0  0  0  0  0  0  0  0  0  # atno 10167 bound_to 10162
  156.7850  130.5343  149.5744 H   0  0  0  0  0  0  0  0  0  0  0  0  # atno 10718 bound_to 10713
  153.1016  135.6674  153.9662 H   0  0  0  0  0  0  0  0  0  0  0  0  # atno 10763 bound_to 10752
  153.9230  135.3012  155.3448 H   0  0  0  0  0  0  0  0  0  0  0  0  # atno 10764 bound_to 10752
  154.7437  135.5067  153.9242 H   0  0  0  0  0  0  0  0  0  0  0  0  # atno 10765 bound_to 10752
  140.0240  134.6111  155.9599 H   0  0  0  0  0  0  0  0  0  0  0  0  # atno 11005 bound_to 11000
  146.2769  139.6777  142.9256 LP  0  0  0  0  0  0  0  0  0  0  0  0  # atno 17320 bound_to 7965
  145.4536  141.0429  143.2790 LP  0  0  0  0  0  0  0  0  0  0  0  0  # atno 17321 bound_to 7965
  140.1796  143.4126  152.1942 LP  0  0  0  0  0  0  0  0  0  0  0  0  # atno 17342 bound_to 10162
  139.5438  144.7280  151.4649 LP  0  0  0  0  0  0  0  0  0  0  0  0  # atno 17343 bound_to 10162
  156.1194  130.6099  151.0171 LP  0  0  0  0  0  0  0  0  0  0  0  0  # atno 17370 bound_to 10713
  157.6628  131.0877  150.7799 LP  0  0  0  0  0  0  0  0  0  0  0  0  # atno 17371 bound_to 10713
  141.1791  133.6544  156.4948 LP  0  0  0  0  0  0  0  0  0  0  0  0  # atno 17394 bound_to 11000
  140.4338  134.7077  157.4956 LP  0  0  0  0  0  0  0  0  0  0  0  0  # atno 17395 bound_to 11000

$$$$
