AV-unprocessed.smi:3115|AV-procd|sdf|11860|dock9
  -GOLD-   2272017243D 1   1.00000     0.00000
 Structure written by MMmdl.
 32 33  0  0  0  0  0  0  0  0  1 V2000
  151.9008  144.9823  160.2201 C   0  0  0  0  0  0  0  0  0  0  0  0
  152.3732  143.6422  159.6465 C   0  0  2  0  0  0  0  0  0  0  0  0
  151.4662  143.1502  158.5014 C   0  0  0  0  0  0  0  0  0  0  0  0
  151.8955  141.8312  158.0530 N   0  0  0  0  0  0  0  0  0  0  0  0
  151.1935  141.3640  156.9328 C   0  0  0  0  0  0  0  0  0  0  0  0
  151.5942  140.1522  156.3310 C   0  0  0  0  0  0  0  0  0  0  0  0
  150.8833  139.6854  155.2068 C   0  0  0  0  0  0  0  0  0  0  0  0
  151.2810  138.3945  154.5221 C   0  0  0  0  0  0  0  0  0  0  0  0
  150.4653  138.1178  153.3574 N   0  0  0  0  0  0  0  0  0  0  0  0
  149.8034  140.4509  154.7237 C   0  0  0  0  0  0  0  0  0  0  0  0
  149.4794  141.6475  155.3921 C   0  0  0  0  0  0  0  0  0  0  0  0
  150.1530  142.0992  156.4714 N   0  0  0  0  0  0  0  0  0  0  0  0
  151.9554  140.8667  159.1438 C   0  0  0  0  0  0  0  0  0  0  0  0
  152.8496  141.4073  160.2723 C   0  0  0  0  0  0  0  0  0  0  0  0
  152.3646  142.6779  160.6973 O   0  0  0  0  0  0  0  0  0  0  0  0
  151.9003  145.7587  159.4547 H   0  0  0  0  0  0  0  0  0  0  0  0
  152.5541  145.3124  161.0281 H   0  0  0  0  0  0  0  0  0  0  0  0
  150.8893  144.9053  160.6199 H   0  0  0  0  0  0  0  0  0  0  0  0
  153.3947  143.7611  159.2801 H   0  0  0  0  0  0  0  0  0  0  0  0
  150.4300  143.1048  158.8399 H   0  0  0  0  0  0  0  0  0  0  0  0
  151.5024  143.8503  157.6656 H   0  0  0  0  0  0  0  0  0  0  0  0
  152.4309  139.5924  156.7234 H   0  0  0  0  0  0  0  0  0  0  0  0
  152.3295  138.4344  154.2256 H   0  0  0  0  0  0  0  0  0  0  0  0
  151.1811  137.5691  155.2275 H   0  0  0  0  0  0  0  0  0  0  0  0
  150.2655  138.9789  152.8690 H   0  0  0  0  0  0  0  0  0  0  0  0
  150.9817  137.5326  152.7161 H   0  0  0  0  0  0  0  0  0  0  0  0
  149.2358  140.1308  153.8623 H   0  0  0  0  0  0  0  0  0  0  0  0
  148.6575  142.2588  155.0503 H   0  0  0  0  0  0  0  0  0  0  0  0
  150.9513  140.6783  159.5267 H   0  0  0  0  0  0  0  0  0  0  0  0
  152.3458  139.9165  158.7775 H   0  0  0  0  0  0  0  0  0  0  0  0
  152.8409  140.7218  161.1198 H   0  0  0  0  0  0  0  0  0  0  0  0
  153.8857  141.4934  159.9412 H   0  0  0  0  0  0  0  0  0  0  0  0
  1  2  1  0  0  0  0
  1 16  1  0  0  0  0
  1 17  1  0  0  0  0
  1 18  1  0  0  0  0
  2 15  1  0  0  0  0
  2  3  1  0  0  0  0
  2 19  1  0  0  0  0
  3  4  1  0  0  0  0
  3 20  1  0  0  0  0
  3 21  1  0  0  0  0
  4  5  1  0  0  0  0
  4 13  1  0  0  0  0
  5 12  1  0  0  0  0
  5  6  2  0  0  0  0
  6  7  1  0  0  0  0
  6 22  1  0  0  0  0
  7  8  1  0  0  0  0
  7 10  2  0  0  0  0
  8  9  1  0  0  0  0
  8 23  1  0  0  0  0
  8 24  1  0  0  0  0
  9 25  1  0  0  0  0
  9 26  1  0  0  0  0
 10 11  1  0  0  0  0
 10 27  1  0  0  0  0
 11 12  2  0  0  0  0
 11 28  1  0  0  0  0
 13 14  1  0  0  0  0
 13 29  1  0  0  0  0
 13 30  1  0  0  0  0
 14 15  1  0  0  0  0
 14 31  1  0  0  0  0
 14 32  1  0  0  0  0
M  END
> <s_m_source_file>
AV-unprocessed.smi

> <i_m_source_file_index>
3115

> <i_lp_mmshare_version>
43012

> <i_f3d_flags>
0

> <s_epik_input>
W0NIM11bQ0BASF0xW0NIMl1OKFtDSDJdW0NIMl1PMSljMltjSF1jKFtDSDJdW05IMl0pW2NIXVtjSF1uMg==

> <s_epik_cmdline>
J2VwaWtfcHl0aG9uJywgJy1waCcsICc3LjAnLCAnLXRuJywgJzgnLCAnLW1hJywgJzIwMCcsICctbWV0YWxfYmluZGluZycsICctaW1hZScsICc8aW5maWxlLm1hZT4nLCAnLW9tYWUnLCAnPG91dGZpbGUubWFlPic=

> <r_lp_tautomer_probability>
1

> <r_epik_Ionization_Penalty>
1.27341

> <r_epik_Ionization_Penalty_Charging>
0

> <r_epik_Ionization_Penalty_Neutral>
1.27341

> <r_epik_State_Penalty>
2.46834

> <r_epik_Charging_Adjusted_Penalty>
2.46834

> <i_epik_Tot_Q>
0

> <i_epik_Tot_abs_Q>
0

> <r_epik_Metal_State_Penalty>
2.44319

> <b_epik_Metal_Only>
0

> <s_lp_Force_Field>
OPLS_2005

> <r_lp_Energy>
17.2418

> <b_lp_Chiralities_Consistent>
1

> <s_lp_Variant>
AV-unprocessed.smi:3115-3

> <Gold.Version>
5.8.1

> <Gold.Id.Protein>
6NUR|6NUR_protein|mol2

> <Gold.PLP.Fitness>
40.6885

> <Gold.PLP.PLP>
-33.1424

> <Gold.PLP.part.hbond>
-3.0000

> <Gold.PLP.part.metal>
0.0000

> <Gold.PLP.part.buried>
-0.5032

> <Gold.PLP.part.nonpolar>
-30.0092

> <Gold.PLP.part.repulsive>
0.8356

> <Gold.PLP.ligand.clash>
0.0000

> <Gold.PLP.ligand.torsion>
0.0547

> <Gold.PLP.Chemscore.Hbond>
1.8288

> <Gold.PLP.Chemscore.CHOScore>
0.6899

> <Gold.PLP.Chemscore.Metal>
0.0000

> <Gold.Chemscore.Hbonds>
donor molecule, donor type, donor heavy atom, donor atom, acceptor molecule, acceptor atom, score
      L1  H     9    25       P1  7957  0.83
      L1  H     9    26       P1  7949  1.00
      L1  C    11    28       P1  8028  0.69

> <Gold.PLP.Chemscore.Internal.Correction>
0.0998

> <Gold.Rescore>
     Score         DG    S(hbond)    S(metal)    S(lipo)     H(rot)  DE(clash)    DE(int)     intcor
     14.76     -14.89       0.66        0.00      89.59       1.28       0.06       0.07       ----

> <Gold.Chemscore.Fitness>
14.7646

> <Gold.Chemscore.DG>
-14.8881

> <Gold.Chemscore.ZeroCoef>
-5.4800

> <Gold.Chemscore.Hbond>
0.6566

> <Gold.Chemscore.Metal>
0.0000

> <Gold.Chemscore.Lipo>
89.5915

> <Gold.Chemscore.Internal_Hbond>
0.0000

> <Gold.Chemscore.DEClash>
0.0581

> <Gold.Chemscore.DEInternal>
0.0654

> <Gold.Chemscore.Rot>
1.2762

> <Gold.Chemscore.Internal.Correction>
   9.000000E+99

> <Gold.Chemscore.Hbonds>
donor molecule, donor type, donor heavy atom, donor atom, acceptor molecule, acceptor atom, score
      L1  H     9    25       P1  7957  0.47
      L1  H     9    26       P1  7949  0.24

> <Gold.Chemscore.Hbond.Weighted>
-2.1930

> <Gold.Chemscore.Metal.Weighted>
-0.0000

> <Gold.Chemscore.Lipo.Weighted>
-10.4822

> <Gold.Chemscore.Internal_Hbond.Weighted>
0.0000

> <Gold.Chemscore.DEClash.Weighted>
0.0581

> <Gold.Chemscore.DEInternal.Weighted>
0.0654

> <Gold.Chemscore.Rot.Weighted>
3.2671

> <Gold.Chemscore.Internal.Correction.Weighted>
   9.000000E+99

> <Gold.Protein.RotatedTorsions>
[ 6907 6896 6895 6894 ] final -177.46 input  -60.11 | X-H torsion
[ 7974 7965 7964 7962 ] final  -76.31 input  175.53 | X-H torsion
[ 8008 7997 7996 7995 ] final  -31.31 input   59.86 | X-H torsion
[ 10167 10162 10161 10158 ] final -139.35 input  -65.29 | X-H torsion
[ 10718 10713 10712 10709 ] final  123.35 input   66.30 | X-H torsion
[ 10763 10752 10751 10750 ] final   68.93 input  -60.55 | X-H torsion
[ 11005 11000 10999 10996 ] final  159.55 input  -57.11 | X-H torsion

> <Gold.Protein.ActiveResidues>
 VAL166  LYS551  ARG553  GLY616  TRP617  ASP618  TYR619  PRO620  LYS621  CYS622 
 ASP623  PHE694  ASN695  SER759  ASP760  ASP761  ALA762  ILE779  LEU786  VAL792 
 PHE793  MET794  SER795  GLU796  ALA797  LYS798  CYS799  TRP800  GLU811  SER814 

> <Gold.Protein.RotatedAtoms>
  151.6214  133.3339  159.3088 H   0  0  0  0  0  0  0  0  0  0  0  0  # atno 6907 bound_to 6896
  150.8104  134.7259  159.6694 H   0  0  0  0  0  0  0  0  0  0  0  0  # atno 6908 bound_to 6896
  152.4200  134.5977  160.0043 H   0  0  0  0  0  0  0  0  0  0  0  0  # atno 6909 bound_to 6896
  145.6145  140.9378  143.1171 H   0  0  0  0  0  0  0  0  0  0  0  0  # atno 7974 bound_to 7965
  154.4218  140.1768  156.1546 H   0  0  0  0  0  0  0  0  0  0  0  0  # atno 8008 bound_to 7997
  155.9887  140.3371  155.6708 H   0  0  0  0  0  0  0  0  0  0  0  0  # atno 8009 bound_to 7997
  155.6402  140.0679  157.2612 H   0  0  0  0  0  0  0  0  0  0  0  0  # atno 8010 bound_to 7997
  139.8388  143.7349  152.2664 H   0  0  0  0  0  0  0  0  0  0  0  0  # atno 10167 bound_to 10162
  157.5672  131.1086  150.8433 H   0  0  0  0  0  0  0  0  0  0  0  0  # atno 10718 bound_to 10713
  153.0260  135.5229  154.7210 H   0  0  0  0  0  0  0  0  0  0  0  0  # atno 10763 bound_to 10752
  154.6265  135.2895  155.0268 H   0  0  0  0  0  0  0  0  0  0  0  0  # atno 10764 bound_to 10752
  154.1236  135.6604  153.4960 H   0  0  0  0  0  0  0  0  0  0  0  0  # atno 10765 bound_to 10752
  140.1972  134.8364  157.2978 H   0  0  0  0  0  0  0  0  0  0  0  0  # atno 11005 bound_to 11000
  144.7256  139.7887  143.7366 LP  0  0  0  0  0  0  0  0  0  0  0  0  # atno 17320 bound_to 7965
  146.1479  139.4553  143.0067 LP  0  0  0  0  0  0  0  0  0  0  0  0  # atno 17321 bound_to 7965
  139.7580  144.7515  151.0407 LP  0  0  0  0  0  0  0  0  0  0  0  0  # atno 17342 bound_to 10162
  140.7800  143.4784  151.0052 LP  0  0  0  0  0  0  0  0  0  0  0  0  # atno 17343 bound_to 10162
  156.8915  130.5214  149.5286 LP  0  0  0  0  0  0  0  0  0  0  0  0  # atno 17370 bound_to 10713
  156.0719  130.5750  150.9400 LP  0  0  0  0  0  0  0  0  0  0  0  0  # atno 17371 bound_to 10713
  140.2094  134.4158  155.7621 LP  0  0  0  0  0  0  0  0  0  0  0  0  # atno 17394 bound_to 11000
  141.2227  133.7110  156.8313 LP  0  0  0  0  0  0  0  0  0  0  0  0  # atno 17395 bound_to 11000

$$$$
