AV-unprocessed.smi:819|AV-procd|sdf|3834|dock4
  -GOLD-   22720 1273D 1   1.00000     0.00000
 Structure written by MMmdl.
 40 41  0  0  0  0  0  0  0  0  1 V2000
  149.5966  134.6241  155.8607 C   0  0  0  0  0  0  0  0  0  0  0  0
  148.4163  135.4843  155.3784 C   0  0  2  0  0  0  0  0  0  0  0  0
  148.0639  135.0600  154.0244 N   0  0  0  0  0  0  0  0  0  0  0  0
  146.9600  134.3711  153.6967 C   0  0  0  0  0  0  0  0  0  0  0  0
  146.1284  133.9932  154.5218 O   0  0  0  0  0  0  0  0  0  0  0  0
  146.8814  134.1799  152.3687 N   0  0  0  0  0  0  0  0  0  0  0  0
  145.8632  133.5163  151.6320 C   0  0  0  0  0  0  0  0  0  0  0  0
  144.5228  133.7381  152.0090 C   0  0  0  0  0  0  0  0  0  0  0  0
  143.4930  133.1052  151.2872 C   0  0  0  0  0  0  0  0  0  0  0  0
  143.8457  132.2774  150.2040 C   0  0  0  0  0  0  0  0  0  0  0  0
  145.1218  132.0662  149.8192 N   0  0  0  0  0  0  0  0  0  0  0  0
  146.1048  132.6752  150.5171 C   0  0  0  0  0  0  0  0  0  0  0  0
  148.8522  136.9579  155.3709 C   0  0  0  0  0  0  0  0  0  0  0  0
  148.6802  137.6661  156.3644 O   0  0  0  0  0  0  0  0  0  0  0  0
  149.4215  137.4012  154.2402 N   0  0  0  0  0  0  0  0  0  0  0  0
  149.9427  138.7494  154.0345 C   0  0  0  0  0  0  0  0  0  0  0  0
  151.1292  139.0267  154.9779 C   0  0  0  0  0  0  0  0  0  0  0  0
  150.8543  140.3899  155.6151 C   0  0  0  0  0  0  0  0  0  0  0  0
  149.3329  140.4866  155.6566 C   0  0  0  0  0  0  0  0  0  0  0  0
  148.8812  139.8221  154.3561 C   0  0  0  0  0  0  0  0  0  0  0  0
  149.9077  134.9084  156.8669 H   0  0  0  0  0  0  0  0  0  0  0  0
  150.4644  134.7164  155.2055 H   0  0  0  0  0  0  0  0  0  0  0  0
  149.3208  133.5697  155.8935 H   0  0  0  0  0  0  0  0  0  0  0  0
  147.5650  135.3408  156.0470 H   0  0  0  0  0  0  0  0  0  0  0  0
  148.6897  135.3397  153.2835 H   0  0  0  0  0  0  0  0  0  0  0  0
  147.6004  134.6208  151.8139 H   0  0  0  0  0  0  0  0  0  0  0  0
  144.2837  134.3809  152.8438 H   0  0  0  0  0  0  0  0  0  0  0  0
  142.4575  133.2513  151.5567 H   0  0  0  0  0  0  0  0  0  0  0  0
  143.0822  131.7764  149.6274 H   0  0  0  0  0  0  0  0  0  0  0  0
  147.1003  132.4882  150.1460 H   0  0  0  0  0  0  0  0  0  0  0  0
  149.5257  136.7499  153.4758 H   0  0  0  0  0  0  0  0  0  0  0  0
  150.2688  138.8581  152.9983 H   0  0  0  0  0  0  0  0  0  0  0  0
  151.1787  138.2734  155.7660 H   0  0  0  0  0  0  0  0  0  0  0  0
  152.0856  139.0068  154.4544 H   0  0  0  0  0  0  0  0  0  0  0  0
  151.3093  140.4925  156.6007 H   0  0  0  0  0  0  0  0  0  0  0  0
  151.2538  141.1807  154.9789 H   0  0  0  0  0  0  0  0  0  0  0  0
  148.9515  139.9233  156.5094 H   0  0  0  0  0  0  0  0  0  0  0  0
  148.9779  141.5135  155.7489 H   0  0  0  0  0  0  0  0  0  0  0  0
  148.8701  140.5651  153.5580 H   0  0  0  0  0  0  0  0  0  0  0  0
  147.8679  139.4253  154.4349 H   0  0  0  0  0  0  0  0  0  0  0  0
  1  2  1  0  0  0  0
  1 21  1  0  0  0  0
  1 22  1  0  0  0  0
  1 23  1  0  0  0  0
  2  3  1  0  0  0  0
  2 13  1  0  0  0  0
  2 24  1  0  0  0  0
  3  4  1  0  0  0  0
  3 25  1  0  0  0  0
  4  5  2  0  0  0  0
  4  6  1  0  0  0  0
  6  7  1  0  0  0  0
  6 26  1  0  0  0  0
  7 12  1  0  0  0  0
  7  8  2  0  0  0  0
  8  9  1  0  0  0  0
  8 27  1  0  0  0  0
  9 10  2  0  0  0  0
  9 28  1  0  0  0  0
 10 11  1  0  0  0  0
 10 29  1  0  0  0  0
 11 12  2  0  0  0  0
 12 30  1  0  0  0  0
 13 14  2  0  0  0  0
 13 15  1  0  0  0  0
 15 16  1  0  0  0  0
 15 31  1  0  0  0  0
 16 20  1  0  0  0  0
 16 17  1  0  0  0  0
 16 32  1  0  0  0  0
 17 18  1  0  0  0  0
 17 33  1  0  0  0  0
 17 34  1  0  0  0  0
 18 19  1  0  0  0  0
 18 35  1  0  0  0  0
 18 36  1  0  0  0  0
 19 20  1  0  0  0  0
 19 37  1  0  0  0  0
 19 38  1  0  0  0  0
 20 39  1  0  0  0  0
 20 40  1  0  0  0  0
M  END
> <s_m_source_file>
AV-unprocessed.smi

> <i_m_source_file_index>
819

> <i_lp_mmshare_version>
43012

> <i_f3d_flags>
0

> <s_epik_input>
W0NIMl0xW0NIMl1bQ0gyXVtDSDJdW0NIXTFbTkhdQyg9TylbQ0BIXShbQ0gzXSlbTkhdQyg9TylbTkhdYzJbY0hdW2NIXVtjSF1uW2NIXTI=

> <s_epik_cmdline>
J2VwaWtfcHl0aG9uJywgJy1waCcsICc3LjAnLCAnLXRuJywgJzgnLCAnLW1hJywgJzIwMCcsICctbWV0YWxfYmluZGluZycsICctaW1hZScsICc8aW5maWxlLm1hZT4nLCAnLW9tYWUnLCAnPG91dGZpbGUubWFlPic=

> <r_epik_Ionization_Penalty>
0.00416979

> <r_epik_Ionization_Penalty_Charging>
0

> <r_epik_Ionization_Penalty_Neutral>
0.00416979

> <r_epik_State_Penalty>
0.00297037

> <r_epik_Charging_Adjusted_Penalty>
0.00297037

> <i_epik_Tot_Q>
0

> <i_epik_Tot_abs_Q>
0

> <r_epik_Metal_State_Penalty>
-0

> <b_epik_Metal_Only>
0

> <s_lp_Force_Field>
OPLS_2005

> <r_lp_Energy>
20.2836

> <b_lp_Chiralities_Consistent>
1

> <s_lp_Variant>
AV-unprocessed.smi:819-1

> <Gold.Version>
5.8.1

> <Gold.Id.Protein>
6NUR|6NUR_protein|mol2

> <Gold.PLP.Fitness>
43.2475

> <Gold.PLP.PLP>
-32.1167

> <Gold.PLP.part.hbond>
-2.9500

> <Gold.PLP.part.metal>
0.0000

> <Gold.PLP.part.buried>
-4.0873

> <Gold.PLP.part.nonpolar>
-25.8945

> <Gold.PLP.part.repulsive>
0.2570

> <Gold.PLP.ligand.clash>
0.0000

> <Gold.PLP.ligand.torsion>
1.2285

> <Gold.PLP.Chemscore.Hbond>
2.8240

> <Gold.PLP.Chemscore.CHOScore>
1.7007

> <Gold.PLP.Chemscore.Metal>
0.0000

> <Gold.Chemscore.Hbonds>
donor molecule, donor type, donor heavy atom, donor atom, acceptor molecule, acceptor atom, score
      L1  H     3    25       P1  7948  1.00
      L1  H     6    26       P1  7948  0.83
      L1  H    15    31       P1  7948  0.96
      L1  C    10    29       P1 10952  0.64
      L1  C    12    30       P1 10747  1.00

> <Gold.PLP.Chemscore.Internal.Correction>
0.0134

> <Gold.Rescore>
     Score         DG    S(hbond)    S(metal)    S(lipo)     H(rot)  DE(clash)    DE(int)     intcor
     14.95     -19.43       2.87        0.00      70.65       1.52       0.05       4.43       ----

> <Gold.Chemscore.Fitness>
14.9461

> <Gold.Chemscore.DG>
-19.4269

> <Gold.Chemscore.ZeroCoef>
-5.4800

> <Gold.Chemscore.Hbond>
2.8680

> <Gold.Chemscore.Metal>
0.0000

> <Gold.Chemscore.Lipo>
70.6453

> <Gold.Chemscore.Internal_Hbond>
0.0000

> <Gold.Chemscore.DEClash>
0.0462

> <Gold.Chemscore.DEInternal>
4.4345

> <Gold.Chemscore.Rot>
1.5225

> <Gold.Chemscore.Internal.Correction>
   9.000000E+99

> <Gold.Chemscore.Hbonds>
donor molecule, donor type, donor heavy atom, donor atom, acceptor molecule, acceptor atom, score
      L1  H     3    25       P1  7948  0.81
      L1  H     6    26       P1  7948  0.34
      L1  H    15    31       P1  7948  0.72

> <Gold.Chemscore.Hbond.Weighted>
-9.5791

> <Gold.Chemscore.Metal.Weighted>
-0.0000

> <Gold.Chemscore.Lipo.Weighted>
-8.2655

> <Gold.Chemscore.Internal_Hbond.Weighted>
0.0000

> <Gold.Chemscore.DEClash.Weighted>
0.0462

> <Gold.Chemscore.DEInternal.Weighted>
4.4345

> <Gold.Chemscore.Rot.Weighted>
3.8977

> <Gold.Chemscore.Internal.Correction.Weighted>
   9.000000E+99

> <Gold.Protein.RotatedTorsions>
[ 6907 6896 6895 6894 ] final  108.30 input  -60.11 | X-H torsion
[ 7974 7965 7964 7962 ] final   99.37 input  175.53 | X-H torsion
[ 8008 7997 7996 7995 ] final  -79.82 input   59.86 | X-H torsion
[ 10167 10162 10161 10158 ] final   60.13 input  -65.29 | X-H torsion
[ 10718 10713 10712 10709 ] final   69.86 input   66.30 | X-H torsion
[ 10763 10752 10751 10750 ] final   79.47 input  -60.55 | X-H torsion
[ 11005 11000 10999 10996 ] final  -80.06 input  -57.11 | X-H torsion

> <Gold.Protein.ActiveResidues>
 VAL166  LYS551  ARG553  GLY616  TRP617  ASP618  TYR619  PRO620  LYS621  CYS622 
 ASP623  PHE694  ASN695  SER759  ASP760  ASP761  ALA762  ILE779  LEU786  VAL792 
 PHE793  MET794  SER795  GLU796  ALA797  LYS798  CYS799  TRP800  GLU811  SER814 

> <Gold.Protein.RotatedAtoms>
  152.5118  133.9108  159.7486 H   0  0  0  0  0  0  0  0  0  0  0  0  # atno 6907 bound_to 6896
  150.9502  133.6549  159.2780 H   0  0  0  0  0  0  0  0  0  0  0  0  # atno 6908 bound_to 6896
  151.3830  135.0948  159.9555 H   0  0  0  0  0  0  0  0  0  0  0  0  # atno 6909 bound_to 6896
  145.3997  139.2349  143.3306 H   0  0  0  0  0  0  0  0  0  0  0  0  # atno 7974 bound_to 7965
  154.5822  140.0672  156.9120 H   0  0  0  0  0  0  0  0  0  0  0  0  # atno 8008 bound_to 7997
  155.2443  140.3347  155.4270 H   0  0  0  0  0  0  0  0  0  0  0  0  # atno 8009 bound_to 7997
  156.2197  140.1793  156.7490 H   0  0  0  0  0  0  0  0  0  0  0  0  # atno 8010 bound_to 7997
  140.1689  144.4297  150.6671 H   0  0  0  0  0  0  0  0  0  0  0  0  # atno 10167 bound_to 10162
  157.6368  130.9447  150.0571 H   0  0  0  0  0  0  0  0  0  0  0  0  # atno 10718 bound_to 10713
  153.0955  135.4839  154.8770 H   0  0  0  0  0  0  0  0  0  0  0  0  # atno 10763 bound_to 10752
  154.7319  135.3062  154.8879 H   0  0  0  0  0  0  0  0  0  0  0  0  # atno 10764 bound_to 10752
  153.9512  135.6823  153.4797 H   0  0  0  0  0  0  0  0  0  0  0  0  # atno 10765 bound_to 10752
  141.1668  133.7133  156.8216 H   0  0  0  0  0  0  0  0  0  0  0  0  # atno 11005 bound_to 11000
  146.2758  140.4693  142.8796 LP  0  0  0  0  0  0  0  0  0  0  0  0  # atno 17320 bound_to 7965
  144.8382  140.6816  143.6246 LP  0  0  0  0  0  0  0  0  0  0  0  0  # atno 17321 bound_to 7965
  140.6595  143.2247  151.5890 LP  0  0  0  0  0  0  0  0  0  0  0  0  # atno 17342 bound_to 10162
  139.5347  144.2815  152.1225 LP  0  0  0  0  0  0  0  0  0  0  0  0  # atno 17343 bound_to 10162
  156.1615  130.3644  149.9293 LP  0  0  0  0  0  0  0  0  0  0  0  0  # atno 17370 bound_to 10713
  156.7290  130.9036  151.3624 LP  0  0  0  0  0  0  0  0  0  0  0  0  # atno 17371 bound_to 10713
  140.2115  134.8824  157.3279 LP  0  0  0  0  0  0  0  0  0  0  0  0  # atno 17394 bound_to 11000
  140.2082  134.4171  155.7627 LP  0  0  0  0  0  0  0  0  0  0  0  0  # atno 17395 bound_to 11000

$$$$
