AV-unprocessed.smi:634|AV-procd|sdf|3135|dock6
  -GOLD-   22720 0 63D 1   1.00000     0.00000
 Structure written by MMmdl.
 32 33  0  0  0  0  0  0  0  0  2 V2000
  145.6873  133.1971  162.4626 C   0  0  0  0  0  0  0  0  0  0  0  0
  146.4229  134.4440  162.1075 C   0  0  0  0  0  0  0  0  0  0  0  0
  146.7011  135.0484  160.9146 C   0  0  0  0  0  0  0  0  0  0  0  0
  147.4307  136.2062  161.2992 C   0  0  0  0  0  0  0  0  0  0  0  0
  147.9409  137.1277  160.4675 N   0  5  0  0  0  0  0  0  0  0  0  0
  148.8443  136.7699  159.5260 C   0  0  0  0  0  0  0  0  0  0  0  0
  149.2323  135.6241  159.2882 O   0  0  0  0  0  0  0  0  0  0  0  0
  149.3261  137.8094  158.8234 N   0  0  0  0  0  0  0  0  0  0  0  0
  150.3243  137.8105  157.7450 C   0  0  1  0  0  0  0  0  0  0  0  0
  151.6160  137.2215  158.3457 C   0  0  0  0  0  0  0  0  0  0  0  0
  149.8742  136.9180  156.5392 C   0  0  0  0  0  0  0  0  0  0  0  0
  149.6688  137.7592  155.2719 C   0  0  0  0  0  0  0  0  0  0  0  0
  150.8217  139.1560  155.4450 S   0  0  0  0  0  0  0  0  0  0  0  0
  152.1840  138.6824  155.1550 O   0  0  0  0  0  0  0  0  0  0  0  0
  150.2769  140.3566  154.7932 O   0  0  0  0  0  0  0  0  0  0  0  0
  150.6069  139.2575  157.2533 C   0  0  0  0  0  0  0  0  0  0  0  0
  147.5963  136.2879  162.6088 N   0  0  0  0  0  0  0  0  0  0  0  0
  146.9475  135.1645  163.1352 O   0  0  0  0  0  0  0  0  0  0  0  0
  146.2528  132.3167  162.1573 H   0  0  0  0  0  0  0  0  0  0  0  0
  144.7182  133.1672  161.9647 H   0  0  0  0  0  0  0  0  0  0  0  0
  145.5160  133.1331  163.5374 H   0  0  0  0  0  0  0  0  0  0  0  0
  146.4240  134.7191  159.9245 H   0  0  0  0  0  0  0  0  0  0  0  0
  148.9574  138.7150  159.0746 H   0  0  0  0  0  0  0  0  0  0  0  0
  152.4249  137.2063  157.6143 H   0  0  0  0  0  0  0  0  0  0  0  0
  151.4631  136.1976  158.6892 H   0  0  0  0  0  0  0  0  0  0  0  0
  151.9604  137.8052  159.2004 H   0  0  0  0  0  0  0  0  0  0  0  0
  150.6499  136.1835  156.3179 H   0  0  0  0  0  0  0  0  0  0  0  0
  148.9826  136.3299  156.7601 H   0  0  0  0  0  0  0  0  0  0  0  0
  149.8656  137.2125  154.3502 H   0  0  0  0  0  0  0  0  0  0  0  0
  148.6564  138.1617  155.2360 H   0  0  0  0  0  0  0  0  0  0  0  0
  149.7650  139.9255  157.4353 H   0  0  0  0  0  0  0  0  0  0  0  0
  151.4886  139.7120  157.7054 H   0  0  0  0  0  0  0  0  0  0  0  0
  1  2  1  0  0  0  0
  1 19  1  0  0  0  0
  1 20  1  0  0  0  0
  1 21  1  0  0  0  0
  2 18  1  0  0  0  0
  2  3  2  0  0  0  0
  3  4  1  0  0  0  0
  3 22  1  0  0  0  0
  4  5  1  0  0  0  0
  4 17  2  0  0  0  0
  5  6  1  0  0  0  0
  6  7  2  0  0  0  0
  6  8  1  0  0  0  0
  8  9  1  0  0  0  0
  8 23  1  0  0  0  0
  9 16  1  0  0  0  0
  9 10  1  0  0  0  0
  9 11  1  0  0  0  0
 10 24  1  0  0  0  0
 10 25  1  0  0  0  0
 10 26  1  0  0  0  0
 11 12  1  0  0  0  0
 11 27  1  0  0  0  0
 11 28  1  0  0  0  0
 12 13  1  0  0  0  0
 12 29  1  0  0  0  0
 12 30  1  0  0  0  0
 13 14  2  0  0  0  0
 13 15  2  0  0  0  0
 13 16  1  0  0  0  0
 16 31  1  0  0  0  0
 16 32  1  0  0  0  0
 17 18  1  0  0  0  0
M  CHG  1   5  -1
M  END
> <s_m_source_file>
AV-unprocessed.smi

> <i_m_source_file_index>
634

> <i_lp_mmshare_version>
43012

> <i_f3d_flags>
0

> <s_epik_input>
W0NIM11jMVtjSF1jKG5vMSlbTkhdQyg9TylbTkhdW0NAQF0yKFtDSDNdKVtDSDJdW0NIMl1TKD1PKSg9TylbQ0gyXTI=

> <s_epik_cmdline>
J2VwaWtfcHl0aG9uJywgJy1waCcsICc3LjAnLCAnLXRuJywgJzgnLCAnLW1hJywgJzIwMCcsICctbWV0YWxfYmluZGluZycsICctaW1hZScsICc8aW5maWxlLm1hZT4nLCAnLW9tYWUnLCAnPG91dGZpbGUubWFlPic=

> <r_lp_tautomer_probability>
1

> <r_epik_Ionization_Penalty>
6.15572

> <r_epik_Ionization_Penalty_Charging>
6.1556

> <r_epik_Ionization_Penalty_Neutral>
0.000118136

> <r_epik_State_Penalty>
6.15558

> <r_epik_Charging_Adjusted_Penalty>
12.3112

> <i_epik_Tot_Q>
-1

> <i_epik_Tot_abs_Q>
1

> <r_epik_Metal_State_Penalty>
2.10569

> <b_epik_Metal_Only>
1

> <s_lp_Force_Field>
OPLS_2005

> <r_lp_Energy>
-1.37943

> <b_lp_Chiralities_Consistent>
1

> <s_lp_Variant>
AV-unprocessed.smi:634-3

> <Gold.Version>
5.8.1

> <Gold.Id.Protein>
6NUR|6NUR_protein|mol2

> <Gold.PLP.Fitness>
38.6521

> <Gold.PLP.PLP>
-24.6325

> <Gold.PLP.part.hbond>
-4.0274

> <Gold.PLP.part.metal>
0.0000

> <Gold.PLP.part.buried>
-6.2592

> <Gold.PLP.part.nonpolar>
-15.5304

> <Gold.PLP.part.repulsive>
0.3044

> <Gold.PLP.ligand.clash>
0.0000

> <Gold.PLP.ligand.torsion>
0.5691

> <Gold.PLP.Chemscore.Hbond>
5.0508

> <Gold.PLP.Chemscore.CHOScore>
0.0000

> <Gold.PLP.Chemscore.Metal>
0.0000

> <Gold.Chemscore.Hbonds>
donor molecule, donor type, donor heavy atom, donor atom, acceptor molecule, acceptor atom, score
      P1  H  6896  6908       L1     7  1.00
      P1  H  6931  6943       L1     5  1.14
      P1  H  6934  6947       L1     5  1.38
      P1  H  7989  7998       L1    15  1.00

> <Gold.PLP.Chemscore.Internal.Correction>
0.0053

> <Gold.Rescore>
     Score         DG    S(hbond)    S(metal)    S(lipo)     H(rot)  DE(clash)    DE(int)     intcor
     17.02     -19.57       3.75        0.00      35.26       1.00       0.00       2.55       ----

> <Gold.Chemscore.Fitness>
17.0172

> <Gold.Chemscore.DG>
-19.5724

> <Gold.Chemscore.ZeroCoef>
-5.4800

> <Gold.Chemscore.Hbond>
3.7507

> <Gold.Chemscore.Metal>
0.0000

> <Gold.Chemscore.Lipo>
35.2582

> <Gold.Chemscore.Internal_Hbond>
0.0000

> <Gold.Chemscore.DEClash>
0.0038

> <Gold.Chemscore.DEInternal>
2.5515

> <Gold.Chemscore.Rot>
1.0000

> <Gold.Chemscore.Internal.Correction>
   9.000000E+99

> <Gold.Chemscore.Hbonds>
donor molecule, donor type, donor heavy atom, donor atom, acceptor molecule, acceptor atom, score
      P1  H  6896  6908       L1     7  0.99
      P1  H  6931  6943       L1     5  0.06
      P1  H  6934  6947       L1     5  0.52
      P1  H  7989  7998       L1    15  0.48

> <Gold.Chemscore.Hbond.Weighted>
-12.5272

> <Gold.Chemscore.Metal.Weighted>
-0.0000

> <Gold.Chemscore.Lipo.Weighted>
-4.1252

> <Gold.Chemscore.Internal_Hbond.Weighted>
0.0000

> <Gold.Chemscore.DEClash.Weighted>
0.0038

> <Gold.Chemscore.DEInternal.Weighted>
2.5515

> <Gold.Chemscore.Rot.Weighted>
2.5600

> <Gold.Chemscore.Internal.Correction.Weighted>
   9.000000E+99

> <Gold.Protein.RotatedTorsions>
[ 6907 6896 6895 6894 ] final  162.32 input  -60.11 | X-H torsion
[ 7974 7965 7964 7962 ] final  134.85 input  175.53 | X-H torsion
[ 8008 7997 7996 7995 ] final   92.99 input   59.86 | X-H torsion
[ 10167 10162 10161 10158 ] final  -30.11 input  -65.29 | X-H torsion
[ 10718 10713 10712 10709 ] final  103.97 input   66.30 | X-H torsion
[ 10763 10752 10751 10750 ] final -131.56 input  -60.55 | X-H torsion
[ 11005 11000 10999 10996 ] final  149.62 input  -57.11 | X-H torsion

> <Gold.Protein.ActiveResidues>
 VAL166  LYS551  ARG553  GLY616  TRP617  ASP618  TYR619  PRO620  LYS621  CYS622 
 ASP623  PHE694  ASN695  SER759  ASP760  ASP761  ALA762  ILE779  LEU786  VAL792 
 PHE793  MET794  SER795  GLU796  ALA797  LYS798  CYS799  TRP800  GLU811  SER814 

> <Gold.Protein.RotatedAtoms>
  151.9422  133.3641  159.3969 H   0  0  0  0  0  0  0  0  0  0  0  0  # atno 6907 bound_to 6896
  150.6996  134.4427  159.5309 H   0  0  0  0  0  0  0  0  0  0  0  0  # atno 6908 bound_to 6896
  152.2086  134.8522  160.0551 H   0  0  0  0  0  0  0  0  0  0  0  0  # atno 6909 bound_to 6896
  144.9722  139.4593  143.5427 H   0  0  0  0  0  0  0  0  0  0  0  0  # atno 7974 bound_to 7965
  156.0416  140.3318  155.7250 H   0  0  0  0  0  0  0  0  0  0  0  0  # atno 8008 bound_to 7997
  155.5735  140.0630  157.2818 H   0  0  0  0  0  0  0  0  0  0  0  0  # atno 8009 bound_to 7997
  154.4395  140.1856  156.0892 H   0  0  0  0  0  0  0  0  0  0  0  0  # atno 8010 bound_to 7997
  140.7253  143.3875  151.1489 H   0  0  0  0  0  0  0  0  0  0  0  0  # atno 10167 bound_to 10162
  157.6755  131.0792  150.5635 H   0  0  0  0  0  0  0  0  0  0  0  0  # atno 10718 bound_to 10713
  154.8750  135.3826  154.4267 H   0  0  0  0  0  0  0  0  0  0  0  0  # atno 10763 bound_to 10752
  153.4965  135.7030  153.5860 H   0  0  0  0  0  0  0  0  0  0  0  0  # atno 10764 bound_to 10752
  153.4211  135.3901  155.2078 H   0  0  0  0  0  0  0  0  0  0  0  0  # atno 10765 bound_to 10752
  140.1060  134.8954  157.1867 H   0  0  0  0  0  0  0  0  0  0  0  0  # atno 11005 bound_to 11000
  146.3385  139.8942  142.8804 LP  0  0  0  0  0  0  0  0  0  0  0  0  # atno 17320 bound_to 7965
  145.2542  141.0055  143.3863 LP  0  0  0  0  0  0  0  0  0  0  0  0  # atno 17321 bound_to 7965
  139.7474  143.8831  152.3067 LP  0  0  0  0  0  0  0  0  0  0  0  0  # atno 17342 bound_to 10162
  139.8672  144.7087  150.9029 LP  0  0  0  0  0  0  0  0  0  0  0  0  # atno 17343 bound_to 10162
  156.5937  130.4336  149.5926 LP  0  0  0  0  0  0  0  0  0  0  0  0  # atno 17370 bound_to 10713
  156.2562  130.6936  151.1690 LP  0  0  0  0  0  0  0  0  0  0  0  0  # atno 17371 bound_to 10713
  140.3155  134.2975  155.7257 LP  0  0  0  0  0  0  0  0  0  0  0  0  # atno 17394 bound_to 11000
  141.2118  133.7677  156.9837 LP  0  0  0  0  0  0  0  0  0  0  0  0  # atno 17395 bound_to 11000

$$$$
