AV-unprocessed.smi:1824|AV-procd|sdf|7394|dock7
  -GOLD-   22720 9 63D 1   1.00000     0.00000
 Structure written by MMmdl.
 44 46  0  0  0  0  0  0  0  0  1 V2000
  152.0725  145.4049  158.7035 C   0  0  0  0  0  0  0  0  0  0  0  0
  152.3941  143.9308  158.4353 C   0  0  1  0  0  0  0  0  0  0  0  0
  153.0352  143.2432  159.6556 C   0  0  0  0  0  0  0  0  0  0  0  0
  153.2710  141.8225  159.4238 N   0  0  0  0  0  0  0  0  0  0  0  0
  153.8891  141.1968  160.5931 C   0  0  0  0  0  0  0  0  0  0  0  0
  154.4492  139.7773  160.3618 C   0  0  2  0  0  0  0  0  0  0  0  0
  155.2569  139.7831  159.1998 O   0  0  0  0  0  0  0  0  0  0  0  0
  153.3251  138.7398  160.1711 C   0  0  0  0  0  0  0  0  0  0  0  0
  153.7823  137.3783  160.3866 N   0  0  0  0  0  0  0  0  0  0  0  0
  154.1238  136.4759  159.4466 C   0  0  0  0  0  0  0  0  0  0  0  0
  154.5183  135.2774  159.8676 N   0  0  0  0  0  0  0  0  0  0  0  0
  154.4206  135.4175  161.2413 C   0  0  0  0  0  0  0  0  0  0  0  0
  154.6972  134.4992  162.2793 C   0  0  0  0  0  0  0  0  0  0  0  0
  154.5216  134.8708  163.6286 C   0  0  0  0  0  0  0  0  0  0  0  0
  154.7910  133.9781  164.6105 F   0  0  0  0  0  0  0  0  0  0  0  0
  154.0675  136.1649  163.9598 C   0  0  0  0  0  0  0  0  0  0  0  0
  153.9026  136.5140  165.2577 F   0  0  0  0  0  0  0  0  0  0  0  0
  153.7846  137.0968  162.9428 C   0  0  0  0  0  0  0  0  0  0  0  0
  153.9617  136.7213  161.5985 C   0  0  0  0  0  0  0  0  0  0  0  0
  152.0103  141.1898  159.0453 C   0  0  0  0  0  0  0  0  0  0  0  0
  151.3626  141.8749  157.8264 C   0  0  1  0  0  0  0  0  0  0  0  0
  149.9987  141.2695  157.4797 C   0  0  0  0  0  0  0  0  0  0  0  0
  151.1804  143.2591  158.1100 O   0  0  0  0  0  0  0  0  0  0  0  0
  152.9753  145.9645  158.9495 H   0  0  0  0  0  0  0  0  0  0  0  0
  151.3748  145.5117  159.5343 H   0  0  0  0  0  0  0  0  0  0  0  0
  151.6212  145.8709  157.8272 H   0  0  0  0  0  0  0  0  0  0  0  0
  153.0721  143.8694  157.5824 H   0  0  0  0  0  0  0  0  0  0  0  0
  153.9774  143.7388  159.8927 H   0  0  0  0  0  0  0  0  0  0  0  0
  152.3887  143.3717  160.5255 H   0  0  0  0  0  0  0  0  0  0  0  0
  154.7245  141.8295  160.8960 H   0  0  0  0  0  0  0  0  0  0  0  0
  153.2020  141.2043  161.4411 H   0  0  0  0  0  0  0  0  0  0  0  0
  155.0616  139.4776  161.2136 H   0  0  0  0  0  0  0  0  0  0  0  0
  155.8551  139.0532  159.2487 H   0  0  0  0  0  0  0  0  0  0  0  0
  152.5096  138.9350  160.8685 H   0  0  0  0  0  0  0  0  0  0  0  0
  152.9025  138.8136  159.1678 H   0  0  0  0  0  0  0  0  0  0  0  0
  154.0832  136.7136  158.3934 H   0  0  0  0  0  0  0  0  0  0  0  0
  155.0456  133.5062  162.0374 H   0  0  0  0  0  0  0  0  0  0  0  0
  153.4372  138.0881  163.1930 H   0  0  0  0  0  0  0  0  0  0  0  0
  152.1756  140.1398  158.8054 H   0  0  0  0  0  0  0  0  0  0  0  0
  151.3179  141.2143  159.8883 H   0  0  0  0  0  0  0  0  0  0  0  0
  152.0198  141.7760  156.9607 H   0  0  0  0  0  0  0  0  0  0  0  0
  150.0891  140.2091  157.2427 H   0  0  0  0  0  0  0  0  0  0  0  0
  149.5605  141.7669  156.6142 H   0  0  0  0  0  0  0  0  0  0  0  0
  149.2999  141.3692  158.3106 H   0  0  0  0  0  0  0  0  0  0  0  0
  1  2  1  0  0  0  0
  1 24  1  0  0  0  0
  1 25  1  0  0  0  0
  1 26  1  0  0  0  0
  2 23  1  0  0  0  0
  2  3  1  0  0  0  0
  2 27  1  0  0  0  0
  3  4  1  0  0  0  0
  3 28  1  0  0  0  0
  3 29  1  0  0  0  0
  4  5  1  0  0  0  0
  4 20  1  0  0  0  0
  5  6  1  0  0  0  0
  5 30  1  0  0  0  0
  5 31  1  0  0  0  0
  6  7  1  0  0  0  0
  6  8  1  0  0  0  0
  6 32  1  0  0  0  0
  7 33  1  0  0  0  0
  8  9  1  0  0  0  0
  8 34  1  0  0  0  0
  8 35  1  0  0  0  0
  9 19  1  0  0  0  0
  9 10  1  0  0  0  0
 10 11  2  0  0  0  0
 10 36  1  0  0  0  0
 11 12  1  0  0  0  0
 12 19  2  0  0  0  0
 12 13  1  0  0  0  0
 13 14  2  0  0  0  0
 13 37  1  0  0  0  0
 14 15  1  0  0  0  0
 14 16  1  0  0  0  0
 16 17  1  0  0  0  0
 16 18  2  0  0  0  0
 18 19  1  0  0  0  0
 18 38  1  0  0  0  0
 20 21  1  0  0  0  0
 20 39  1  0  0  0  0
 20 40  1  0  0  0  0
 21 22  1  0  0  0  0
 21 23  1  0  0  0  0
 21 41  1  0  0  0  0
 22 42  1  0  0  0  0
 22 43  1  0  0  0  0
 22 44  1  0  0  0  0
M  END
> <s_m_source_file>
AV-unprocessed.smi

> <i_m_source_file_index>
1824

> <i_lp_mmshare_version>
43012

> <i_f3d_flags>
0

> <s_epik_input>
W0NIM11bQ0BASF0xW0NIMl1OKFtDSDJdW0NASF0oTzEpW0NIM10pW0NIMl1bQ0BIXShbT0hdKVtDSDJdbihbY0hdbjIpYyhjMjMpW2NIXWMoRiljKEYpW2NIXTM=

> <s_epik_cmdline>
J2VwaWtfcHl0aG9uJywgJy1waCcsICc3LjAnLCAnLXRuJywgJzgnLCAnLW1hJywgJzIwMCcsICctbWV0YWxfYmluZGluZycsICctaW1hZScsICc8aW5maWxlLm1hZT4nLCAnLW9tYWUnLCAnPG91dGZpbGUubWFlPic=

> <r_epik_Ionization_Penalty>
0.273778

> <r_epik_Ionization_Penalty_Charging>
0

> <r_epik_Ionization_Penalty_Neutral>
0.273778

> <r_epik_State_Penalty>
0.246794

> <r_epik_Charging_Adjusted_Penalty>
0.246794

> <i_epik_Tot_Q>
0

> <i_epik_Tot_abs_Q>
0

> <r_epik_Metal_State_Penalty>
0.238234

> <b_epik_Metal_Only>
0

> <s_lp_Force_Field>
OPLS_2005

> <r_lp_Energy>
27.3836

> <b_lp_Chiralities_Consistent>
1

> <s_lp_Variant>
AV-unprocessed.smi:1824-2

> <Gold.Version>
5.8.1

> <Gold.Id.Protein>
6NUR|6NUR_protein|mol2

> <Gold.PLP.Fitness>
48.2480

> <Gold.PLP.PLP>
-46.3354

> <Gold.PLP.part.hbond>
-1.0000

> <Gold.PLP.part.metal>
0.0000

> <Gold.PLP.part.buried>
-1.5527

> <Gold.PLP.part.nonpolar>
-43.0949

> <Gold.PLP.part.repulsive>
0.1033

> <Gold.PLP.ligand.clash>
0.0076

> <Gold.PLP.ligand.torsion>
0.5705

> <Gold.PLP.Chemscore.Hbond>
1.0000

> <Gold.PLP.Chemscore.CHOScore>
0.0000

> <Gold.PLP.Chemscore.Metal>
0.0000

> <Gold.Chemscore.Hbonds>
donor molecule, donor type, donor heavy atom, donor atom, acceptor molecule, acceptor atom, score
      P1  H  6896  6909       L1    11  0.09
      P1  H  7997  8009       L1     7  0.95

> <Gold.PLP.Chemscore.Internal.Correction>
0.0612

> <Gold.Rescore>
     Score         DG    S(hbond)    S(metal)    S(lipo)     H(rot)  DE(clash)    DE(int)     intcor
     14.07     -16.44       0.71        0.00     122.89       2.26       0.77       1.60       ----

> <Gold.Chemscore.Fitness>
14.0733

> <Gold.Chemscore.DG>
-16.4364

> <Gold.Chemscore.ZeroCoef>
-5.4800

> <Gold.Chemscore.Hbond>
0.7091

> <Gold.Chemscore.Metal>
0.0000

> <Gold.Chemscore.Lipo>
122.8937

> <Gold.Chemscore.Internal_Hbond>
0.0000

> <Gold.Chemscore.DEClash>
0.7658

> <Gold.Chemscore.DEInternal>
1.5973

> <Gold.Chemscore.Rot>
2.2619

> <Gold.Chemscore.Internal.Correction>
   9.000000E+99

> <Gold.Chemscore.Hbonds>
donor molecule, donor type, donor heavy atom, donor atom, acceptor molecule, acceptor atom, score
      P1  H  7997  8009       L1     7  0.21

> <Gold.Chemscore.Hbond.Weighted>
-2.3683

> <Gold.Chemscore.Metal.Weighted>
-0.0000

> <Gold.Chemscore.Lipo.Weighted>
-14.3786

> <Gold.Chemscore.Internal_Hbond.Weighted>
0.0000

> <Gold.Chemscore.DEClash.Weighted>
0.7658

> <Gold.Chemscore.DEInternal.Weighted>
1.5973

> <Gold.Chemscore.Rot.Weighted>
5.7904

> <Gold.Chemscore.Internal.Correction.Weighted>
   9.000000E+99

> <Gold.Protein.RotatedTorsions>
[ 6907 6896 6895 6894 ] final -132.88 input  -60.11 | X-H torsion
[ 7974 7965 7964 7962 ] final -177.94 input  175.53 | X-H torsion
[ 8008 7997 7996 7995 ] final  112.28 input   59.86 | X-H torsion
[ 10167 10162 10161 10158 ] final -131.50 input  -65.29 | X-H torsion
[ 10718 10713 10712 10709 ] final   92.15 input   66.30 | X-H torsion
[ 10763 10752 10751 10750 ] final  108.67 input  -60.55 | X-H torsion
[ 11005 11000 10999 10996 ] final  130.96 input  -57.11 | X-H torsion

> <Gold.Protein.ActiveResidues>
 VAL166  LYS551  ARG553  GLY616  TRP617  ASP618  TYR619  PRO620  LYS621  CYS622 
 ASP623  PHE694  ASN695  SER759  ASP760  ASP761  ALA762  ILE779  LEU786  VAL792 
 PHE793  MET794  SER795  GLU796  ALA797  LYS798  CYS799  TRP800  GLU811  SER814 

> <Gold.Protein.RotatedAtoms>
  150.9675  133.6379  159.2743 H   0  0  0  0  0  0  0  0  0  0  0  0  # atno 6907 bound_to 6896
  151.3680  135.0916  159.9466 H   0  0  0  0  0  0  0  0  0  0  0  0  # atno 6908 bound_to 6896
  152.5171  133.9235  159.7600 H   0  0  0  0  0  0  0  0  0  0  0  0  # atno 6909 bound_to 6896
  144.7129  140.0943  143.6420 H   0  0  0  0  0  0  0  0  0  0  0  0  # atno 7974 bound_to 7965
  156.2181  140.3003  155.9888 H   0  0  0  0  0  0  0  0  0  0  0  0  # atno 8008 bound_to 7997
  155.2552  140.0427  157.3008 H   0  0  0  0  0  0  0  0  0  0  0  0  # atno 8009 bound_to 7997
  154.5799  140.2372  155.8077 H   0  0  0  0  0  0  0  0  0  0  0  0  # atno 8010 bound_to 7997
  139.9182  143.6413  152.2560 H   0  0  0  0  0  0  0  0  0  0  0  0  # atno 10167 bound_to 10162
  157.6959  131.0433  150.3838 H   0  0  0  0  0  0  0  0  0  0  0  0  # atno 10718 bound_to 10713
  153.4239  135.3804  155.2128 H   0  0  0  0  0  0  0  0  0  0  0  0  # atno 10763 bound_to 10752
  154.8746  135.3824  154.4350 H   0  0  0  0  0  0  0  0  0  0  0  0  # atno 10764 bound_to 10752
  153.4874  135.7088  153.5966 H   0  0  0  0  0  0  0  0  0  0  0  0  # atno 10765 bound_to 10752
  139.9702  134.9579  156.9369 H   0  0  0  0  0  0  0  0  0  0  0  0  # atno 11005 bound_to 11000
  145.9593  139.2789  143.1165 LP  0  0  0  0  0  0  0  0  0  0  0  0  # atno 17320 bound_to 7965
  145.9238  140.9097  143.0391 LP  0  0  0  0  0  0  0  0  0  0  0  0  # atno 17321 bound_to 7965
  139.6884  144.7649  151.1483 LP  0  0  0  0  0  0  0  0  0  0  0  0  # atno 17342 bound_to 10162
  140.7669  143.5624  150.9084 LP  0  0  0  0  0  0  0  0  0  0  0  0  # atno 17343 bound_to 10162
  156.4249  130.3960  149.6799 LP  0  0  0  0  0  0  0  0  0  0  0  0  # atno 17370 bound_to 10713
  156.4037  130.7687  151.2697 LP  0  0  0  0  0  0  0  0  0  0  0  0  # atno 17371 bound_to 10713
  140.5309  134.0814  155.7315 LP  0  0  0  0  0  0  0  0  0  0  0  0  # atno 17394 bound_to 11000
  141.1382  133.9185  157.2386 LP  0  0  0  0  0  0  0  0  0  0  0  0  # atno 17395 bound_to 11000

$$$$
