AV-unprocessed.smi:2046|AV-procd|sdf|8314|dock9
  -GOLD-   2272010583D 1   1.00000     0.00000
 Structure written by MMmdl.
 29 30  0  0  0  0  0  0  0  0  2 V2000
  152.0228  140.2759  154.8517 O   0  0  0  0  0  0  0  0  0  0  0  0
  151.7391  140.0058  156.0213 C   0  0  0  0  0  0  0  0  0  0  0  0
  152.6082  139.8974  157.0519 N   0  5  0  0  0  0  0  0  0  0  0  0
  152.4732  140.6888  158.1287 C   0  0  0  0  0  0  0  0  0  0  0  0
  151.3272  141.3285  158.4123 N   0  0  0  0  0  0  0  0  0  0  0  0
  151.4019  142.0967  159.5665 N   0  0  0  0  0  0  0  0  0  0  0  0
  152.6112  142.0225  160.1219 C   0  0  0  0  0  0  0  0  0  0  0  0
  153.7696  141.0119  159.2836 S   0  0  0  0  0  0  0  0  0  0  0  0
  150.4601  139.7930  156.3678 N   0  0  0  0  0  0  0  0  0  0  0  0
  149.2981  139.8577  155.4766 C   0  0  1  0  0  0  0  0  0  0  0  0
  149.2423  141.2844  154.8834 C   0  0  0  0  0  0  0  0  0  0  0  0
  147.8466  141.6961  154.3824 C   0  0  0  0  0  0  0  0  0  0  0  0
  147.3135  140.8778  153.1962 C   0  0  0  0  0  0  0  0  0  0  0  0
  147.1208  139.3846  153.5115 C   0  0  0  0  0  0  0  0  0  0  0  0
  148.3820  138.6557  153.4976 N   0  0  0  0  0  0  0  0  0  0  0  0
  149.4233  138.8319  154.3251 C   0  0  0  0  0  0  0  0  0  0  0  0
  150.4606  138.1898  154.1609 O   0  0  0  0  0  0  0  0  0  0  0  0
  152.8238  142.5693  161.0283 H   0  0  0  0  0  0  0  0  0  0  0  0
  150.2756  139.5804  157.3372 H   0  0  0  0  0  0  0  0  0  0  0  0
  148.3968  139.6593  156.0595 H   0  0  0  0  0  0  0  0  0  0  0  0
  149.5276  142.0011  155.6552 H   0  0  0  0  0  0  0  0  0  0  0  0
  149.9801  141.4057  154.0879 H   0  0  0  0  0  0  0  0  0  0  0  0
  147.1360  141.6415  155.2081 H   0  0  0  0  0  0  0  0  0  0  0  0
  147.8804  142.7463  154.0903 H   0  0  0  0  0  0  0  0  0  0  0  0
  146.3496  141.2953  152.9036 H   0  0  0  0  0  0  0  0  0  0  0  0
  147.9663  140.9986  152.3309 H   0  0  0  0  0  0  0  0  0  0  0  0
  146.6058  139.2431  154.4628 H   0  0  0  0  0  0  0  0  0  0  0  0
  146.4841  138.9364  152.7486 H   0  0  0  0  0  0  0  0  0  0  0  0
  148.4922  137.9689  152.7659 H   0  0  0  0  0  0  0  0  0  0  0  0
  1  2  2  0  0  0  0
  2  3  1  0  0  0  0
  2  9  1  0  0  0  0
  3  4  1  0  0  0  0
  4  8  1  0  0  0  0
  4  5  2  0  0  0  0
  5  6  1  0  0  0  0
  6  7  2  0  0  0  0
  7  8  1  0  0  0  0
  7 18  1  0  0  0  0
  9 10  1  0  0  0  0
  9 19  1  0  0  0  0
 10 16  1  0  0  0  0
 10 11  1  0  0  0  0
 10 20  1  0  0  0  0
 11 12  1  0  0  0  0
 11 21  1  0  0  0  0
 11 22  1  0  0  0  0
 12 13  1  0  0  0  0
 12 23  1  0  0  0  0
 12 24  1  0  0  0  0
 13 14  1  0  0  0  0
 13 25  1  0  0  0  0
 13 26  1  0  0  0  0
 14 15  1  0  0  0  0
 14 27  1  0  0  0  0
 14 28  1  0  0  0  0
 15 16  1  0  0  0  0
 15 29  1  0  0  0  0
 16 17  2  0  0  0  0
M  CHG  1   3  -1
M  END
> <s_m_source_file>
AV-unprocessed.smi

> <i_m_source_file_index>
2046

> <i_lp_mmshare_version>
43012

> <i_f3d_flags>
0

> <s_epik_input>
czFbY0hdbm5jMVtOSF1DKD1PKVtOSF1bQ0BASF0yW0NIMl1bQ0gyXVtDSDJdW0NIMl1bTkhdQzI9Tw==

> <s_epik_cmdline>
J2VwaWtfcHl0aG9uJywgJy1waCcsICc3LjAnLCAnLXRuJywgJzgnLCAnLW1hJywgJzIwMCcsICctbWV0YWxfYmluZGluZycsICctaW1hZScsICc8aW5maWxlLm1hZT4nLCAnLW9tYWUnLCAnPG91dGZpbGUubWFlPic=

> <r_lp_tautomer_probability>
1

> <r_epik_Ionization_Penalty>
4.05949

> <r_epik_Ionization_Penalty_Charging>
4.01916

> <r_epik_Ionization_Penalty_Neutral>
0.0403285

> <r_epik_State_Penalty>
4.01849

> <r_epik_Charging_Adjusted_Penalty>
8.03765

> <i_epik_Tot_Q>
-1

> <i_epik_Tot_abs_Q>
1

> <r_epik_Metal_State_Penalty>
0.626741

> <b_epik_Metal_Only>
1

> <s_lp_Force_Field>
OPLS_2005

> <r_lp_Energy>
8.7811

> <b_lp_Chiralities_Consistent>
1

> <s_lp_Variant>
AV-unprocessed.smi:2046-4

> <Gold.Version>
5.8.1

> <Gold.Id.Protein>
6NUR|6NUR_protein|mol2

> <Gold.PLP.Fitness>
39.6028

> <Gold.PLP.PLP>
-29.6093

> <Gold.PLP.part.hbond>
-4.9324

> <Gold.PLP.part.metal>
0.0000

> <Gold.PLP.part.buried>
-4.1754

> <Gold.PLP.part.nonpolar>
-21.4579

> <Gold.PLP.part.repulsive>
0.3481

> <Gold.PLP.ligand.clash>
0.0000

> <Gold.PLP.ligand.torsion>
0.6321

> <Gold.PLP.Chemscore.Hbond>
3.7520

> <Gold.PLP.Chemscore.CHOScore>
0.0000

> <Gold.PLP.Chemscore.Metal>
0.0000

> <Gold.Chemscore.Hbonds>
donor molecule, donor type, donor heavy atom, donor atom, acceptor molecule, acceptor atom, score
      L1  H    15    29       P1  7948  1.00
      P1  H  7989  7998       L1     1  0.69
      P1  H  7997  8010       L1     3  2.00

> <Gold.PLP.Chemscore.Internal.Correction>
0.0017

> <Gold.Rescore>
     Score         DG    S(hbond)    S(metal)    S(lipo)     H(rot)  DE(clash)    DE(int)     intcor
     14.52     -16.97       2.50        0.00      48.55       1.00       0.12       2.32       ----

> <Gold.Chemscore.Fitness>
14.5233

> <Gold.Chemscore.DG>
-16.9660

> <Gold.Chemscore.ZeroCoef>
-5.4800

> <Gold.Chemscore.Hbond>
2.5045

> <Gold.Chemscore.Metal>
0.0000

> <Gold.Chemscore.Lipo>
48.5549

> <Gold.Chemscore.Internal_Hbond>
0.0000

> <Gold.Chemscore.DEClash>
0.1193

> <Gold.Chemscore.DEInternal>
2.3235

> <Gold.Chemscore.Rot>
1.0000

> <Gold.Chemscore.Internal.Correction>
   9.000000E+99

> <Gold.Chemscore.Hbonds>
donor molecule, donor type, donor heavy atom, donor atom, acceptor molecule, acceptor atom, score
      L1  H    15    29       P1  7948  0.96
      P1  H  7989  7998       L1     1  0.66
      P1  H  7997  8010       L1     3  0.36

> <Gold.Chemscore.Hbond.Weighted>
-8.3651

> <Gold.Chemscore.Metal.Weighted>
-0.0000

> <Gold.Chemscore.Lipo.Weighted>
-5.6809

> <Gold.Chemscore.Internal_Hbond.Weighted>
0.0000

> <Gold.Chemscore.DEClash.Weighted>
0.1193

> <Gold.Chemscore.DEInternal.Weighted>
2.3235

> <Gold.Chemscore.Rot.Weighted>
2.5600

> <Gold.Chemscore.Internal.Correction.Weighted>
   9.000000E+99

> <Gold.Protein.RotatedTorsions>
[ 6907 6896 6895 6894 ] final   25.28 input  -60.11 | X-H torsion
[ 7974 7965 7964 7962 ] final  -71.94 input  175.53 | X-H torsion
[ 8008 7997 7996 7995 ] final   61.51 input   59.86 | X-H torsion
[ 10167 10162 10161 10158 ] final  106.52 input  -65.29 | X-H torsion
[ 10718 10713 10712 10709 ] final -136.80 input   66.30 | X-H torsion
[ 10763 10752 10751 10750 ] final -165.20 input  -60.55 | X-H torsion
[ 11005 11000 10999 10996 ] final   13.30 input  -57.11 | X-H torsion

> <Gold.Protein.ActiveResidues>
 VAL166  LYS551  ARG553  GLY616  TRP617  ASP618  TYR619  PRO620  LYS621  CYS622 
 ASP623  PHE694  ASN695  SER759  ASP760  ASP761  ALA762  ILE779  LEU786  VAL792 
 PHE793  MET794  SER795  GLU796  ALA797  LYS798  CYS799  TRP800  GLU811  SER814 

> <Gold.Protein.RotatedAtoms>
  151.9702  135.0080  160.0552 H   0  0  0  0  0  0  0  0  0  0  0  0  # atno 6907 bound_to 6896
  152.1790  133.4689  159.4956 H   0  0  0  0  0  0  0  0  0  0  0  0  # atno 6908 bound_to 6896
  150.6914  134.1775  159.4279 H   0  0  0  0  0  0  0  0  0  0  0  0  # atno 6909 bound_to 6896
  145.6716  140.9219  143.0880 H   0  0  0  0  0  0  0  0  0  0  0  0  # atno 7974 bound_to 7965
  155.5994  140.3494  155.4589 H   0  0  0  0  0  0  0  0  0  0  0  0  # atno 8008 bound_to 7997
  156.0240  140.1260  157.0353 H   0  0  0  0  0  0  0  0  0  0  0  0  # atno 8009 bound_to 7997
  154.4326  140.1057  156.5990 H   0  0  0  0  0  0  0  0  0  0  0  0  # atno 8010 bound_to 7997
  139.7003  144.7095  151.1197 H   0  0  0  0  0  0  0  0  0  0  0  0  # atno 10167 bound_to 10162
  156.2810  130.7321  151.1318 H   0  0  0  0  0  0  0  0  0  0  0  0  # atno 10718 bound_to 10713
  154.6955  135.2978  154.9418 H   0  0  0  0  0  0  0  0  0  0  0  0  # atno 10763 bound_to 10752
  154.0367  135.6663  153.4790 H   0  0  0  0  0  0  0  0  0  0  0  0  # atno 10764 bound_to 10752
  153.0642  135.5097  154.8070 H   0  0  0  0  0  0  0  0  0  0  0  0  # atno 10765 bound_to 10752
  140.4823  134.0923  155.7753 H   0  0  0  0  0  0  0  0  0  0  0  0  # atno 11005 bound_to 11000
  144.7055  139.8580  143.7431 LP  0  0  0  0  0  0  0  0  0  0  0  0  # atno 17320 bound_to 7965
  146.1040  139.4038  143.0329 LP  0  0  0  0  0  0  0  0  0  0  0  0  # atno 17321 bound_to 7965
  140.7707  143.5434  150.9287 LP  0  0  0  0  0  0  0  0  0  0  0  0  # atno 17342 bound_to 10162
  139.9115  143.6714  152.3114 LP  0  0  0  0  0  0  0  0  0  0  0  0  # atno 17343 bound_to 10162
  157.7314  131.0608  150.5678 LP  0  0  0  0  0  0  0  0  0  0  0  0  # atno 17370 bound_to 10713
  156.5784  130.4298  149.5988 LP  0  0  0  0  0  0  0  0  0  0  0  0  # atno 17371 bound_to 10713
  141.1525  133.8943  157.2062 LP  0  0  0  0  0  0  0  0  0  0  0  0  # atno 17394 bound_to 11000
  139.9819  135.0095  156.9770 LP  0  0  0  0  0  0  0  0  0  0  0  0  # atno 17395 bound_to 11000

$$$$
