AV-unprocessed.smi:3155|AV-procd|sdf|12026|dock1
  -GOLD-   2272017443D 1   1.00000     0.00000
 Structure written by MMmdl.
 38 39  0  0  0  0  0  0  0  0  2 V2000
  150.9682  140.9204  157.4912 C   0  0  0  0  0  0  0  0  0  0  0  0
  150.0424  141.9521  156.8172 C   0  0  1  0  0  0  0  0  0  0  0  0
  148.5492  141.6194  157.0172 C   0  0  0  0  0  0  0  0  0  0  0  0
  147.7587  141.8063  155.8138 N   0  0  0  0  0  0  0  0  0  0  0  0
  146.6122  142.5545  155.6457 C   0  0  0  0  0  0  0  0  0  0  0  0
  146.2357  142.4317  154.3391 C   0  0  0  0  0  0  0  0  0  0  0  0
  147.2310  141.5838  153.7779 C   0  0  0  0  0  0  0  0  0  0  0  0
  148.1429  141.2139  154.6627 N   0  0  0  0  0  0  0  0  0  0  0  0
  150.3089  143.3181  157.3198 N   0  3  0  0  0  0  0  0  0  0  0  0
  151.7350  143.6489  157.5370 C   0  0  0  0  0  0  0  0  0  0  0  0
  152.0044  144.1638  158.9581 C   0  0  0  0  0  0  0  0  0  0  0  0
  151.6212  145.2891  159.2818 O   0  0  0  0  0  0  0  0  0  0  0  0
  152.6621  143.3554  159.8145 N   0  0  0  0  0  0  0  0  0  0  0  0
  152.9701  143.7207  161.1960 C   0  0  0  0  0  0  0  0  0  0  0  0
  153.4713  142.4390  161.8615 C   0  0  0  0  0  0  0  0  0  0  0  0
  154.0227  141.6126  160.7079 C   0  0  0  0  0  0  0  0  0  0  0  0
  153.1594  142.0137  159.5112 C   0  0  0  0  0  0  0  0  0  0  0  0
  150.7966  139.9164  157.1023 H   0  0  0  0  0  0  0  0  0  0  0  0
  150.8065  140.8895  158.5691 H   0  0  0  0  0  0  0  0  0  0  0  0
  152.0201  141.1456  157.3186 H   0  0  0  0  0  0  0  0  0  0  0  0
  150.2429  141.9492  155.7446 H   0  0  0  0  0  0  0  0  0  0  0  0
  148.4331  140.5861  157.3480 H   0  0  0  0  0  0  0  0  0  0  0  0
  148.1229  142.2471  157.8012 H   0  0  0  0  0  0  0  0  0  0  0  0
  146.1629  143.1034  156.4603 H   0  0  0  0  0  0  0  0  0  0  0  0
  145.3807  142.8811  153.8561 H   0  0  0  0  0  0  0  0  0  0  0  0
  147.3184  141.2300  152.7610 H   0  0  0  0  0  0  0  0  0  0  0  0
  149.9583  143.9717  156.6338 H   0  0  0  0  0  0  0  0  0  0  0  0
  152.3485  142.7663  157.3576 H   0  0  0  0  0  0  0  0  0  0  0  0
  152.0351  144.4156  156.8218 H   0  0  0  0  0  0  0  0  0  0  0  0
  153.7513  144.4822  161.1951 H   0  0  0  0  0  0  0  0  0  0  0  0
  152.1024  144.1254  161.7192 H   0  0  0  0  0  0  0  0  0  0  0  0
  154.2121  142.6279  162.6392 H   0  0  0  0  0  0  0  0  0  0  0  0
  152.6333  141.9125  162.3199 H   0  0  0  0  0  0  0  0  0  0  0  0
  155.0598  141.8952  160.5215 H   0  0  0  0  0  0  0  0  0  0  0  0
  154.0001  140.5405  160.9058 H   0  0  0  0  0  0  0  0  0  0  0  0
  152.3132  141.3329  159.4081 H   0  0  0  0  0  0  0  0  0  0  0  0
  153.7381  141.9830  158.5872 H   0  0  0  0  0  0  0  0  0  0  0  0
  149.7999  143.4609  158.1805 H   0  0  0  0  0  0  0  0  0  0  0  0
  1  2  1  0  0  0  0
  1 18  1  0  0  0  0
  1 19  1  0  0  0  0
  1 20  1  0  0  0  0
  2  3  1  0  0  0  0
  2  9  1  0  0  0  0
  2 21  1  0  0  0  0
  3  4  1  0  0  0  0
  3 22  1  0  0  0  0
  3 23  1  0  0  0  0
  4  8  1  0  0  0  0
  4  5  1  0  0  0  0
  5  6  2  0  0  0  0
  5 24  1  0  0  0  0
  6  7  1  0  0  0  0
  6 25  1  0  0  0  0
  7  8  2  0  0  0  0
  7 26  1  0  0  0  0
  9 10  1  0  0  0  0
  9 27  1  0  0  0  0
  9 38  1  0  0  0  0
 10 11  1  0  0  0  0
 10 28  1  0  0  0  0
 10 29  1  0  0  0  0
 11 12  2  0  0  0  0
 11 13  1  0  0  0  0
 13 17  1  0  0  0  0
 13 14  1  0  0  0  0
 14 15  1  0  0  0  0
 14 30  1  0  0  0  0
 14 31  1  0  0  0  0
 15 16  1  0  0  0  0
 15 32  1  0  0  0  0
 15 33  1  0  0  0  0
 16 17  1  0  0  0  0
 16 34  1  0  0  0  0
 16 35  1  0  0  0  0
 17 36  1  0  0  0  0
 17 37  1  0  0  0  0
M  CHG  1   9   1
M  END
> <s_m_source_file>
AV-unprocessed.smi

> <i_m_source_file_index>
3155

> <i_lp_mmshare_version>
43012

> <i_f3d_flags>
0

> <s_epik_input>
bjFbY0hdW2NIXVtjSF1uMVtDSDJdW0NAQEhdKFtDSDNdKVtOSF1bQ0gyXUMoPU8pTjJbQ0gyXVtDSDJdW0NIMl1bQ0gyXTI=

> <s_epik_cmdline>
J2VwaWtfcHl0aG9uJywgJy1waCcsICc3LjAnLCAnLXRuJywgJzgnLCAnLW1hJywgJzIwMCcsICctbWV0YWxfYmluZGluZycsICctaW1hZScsICc8aW5maWxlLm1hZT4nLCAnLW9tYWUnLCAnPG91dGZpbGUubWFlPic=

> <r_lp_tautomer_probability>
1

> <r_epik_Ionization_Penalty>
0.120138

> <r_epik_Ionization_Penalty_Charging>
0.120135

> <r_epik_Ionization_Penalty_Neutral>
3.43791e-06

> <r_epik_State_Penalty>
0.109683

> <r_epik_Charging_Adjusted_Penalty>
0.229818

> <i_epik_Tot_Q>
1

> <i_epik_Tot_abs_Q>
1

> <r_epik_Metal_State_Penalty>
0.109693

> <b_epik_Metal_Only>
0

> <s_lp_Force_Field>
OPLS_2005

> <r_lp_Energy>
27.7776

> <b_lp_Chiralities_Consistent>
1

> <s_lp_Variant>
AV-unprocessed.smi:3155-2

> <Gold.Version>
5.8.1

> <Gold.Id.Protein>
6NUR|6NUR_protein|mol2

> <Gold.PLP.Fitness>
51.3249

> <Gold.PLP.PLP>
-44.8481

> <Gold.PLP.part.hbond>
-1.2440

> <Gold.PLP.part.metal>
0.0000

> <Gold.PLP.part.buried>
-5.1645

> <Gold.PLP.part.nonpolar>
-38.0274

> <Gold.PLP.part.repulsive>
0.3124

> <Gold.PLP.ligand.clash>
0.0000

> <Gold.PLP.ligand.torsion>
1.2760

> <Gold.PLP.Chemscore.Hbond>
2.0000

> <Gold.PLP.Chemscore.CHOScore>
1.0000

> <Gold.PLP.Chemscore.Metal>
0.0000

> <Gold.Chemscore.Hbonds>
donor molecule, donor type, donor heavy atom, donor atom, acceptor molecule, acceptor atom, score
      L1  H     9    27       P1  8028  2.00

> <Gold.PLP.Chemscore.Internal.Correction>
0.0288

> <Gold.Rescore>
     Score         DG    S(hbond)    S(metal)    S(lipo)     H(rot)  DE(clash)    DE(int)     intcor
     13.43     -14.72       0.97        0.00      91.44       1.84       0.11       1.18       ----

> <Gold.Chemscore.Fitness>
13.4324

> <Gold.Chemscore.DG>
-14.7193

> <Gold.Chemscore.ZeroCoef>
-5.4800

> <Gold.Chemscore.Hbond>
0.9707

> <Gold.Chemscore.Metal>
0.0000

> <Gold.Chemscore.Lipo>
91.4439

> <Gold.Chemscore.Internal_Hbond>
0.0000

> <Gold.Chemscore.DEClash>
0.1087

> <Gold.Chemscore.DEInternal>
1.1781

> <Gold.Chemscore.Rot>
1.8366

> <Gold.Chemscore.Internal.Correction>
   9.000000E+99

> <Gold.Chemscore.Hbonds>
donor molecule, donor type, donor heavy atom, donor atom, acceptor molecule, acceptor atom, score
      L1  H     9    27       P1  8028  0.98

> <Gold.Chemscore.Hbond.Weighted>
-3.2420

> <Gold.Chemscore.Metal.Weighted>
-0.0000

> <Gold.Chemscore.Lipo.Weighted>
-10.6989

> <Gold.Chemscore.Internal_Hbond.Weighted>
0.0000

> <Gold.Chemscore.DEClash.Weighted>
0.1087

> <Gold.Chemscore.DEInternal.Weighted>
1.1781

> <Gold.Chemscore.Rot.Weighted>
4.7017

> <Gold.Chemscore.Internal.Correction.Weighted>
   9.000000E+99

> <Gold.Protein.RotatedTorsions>
[ 6907 6896 6895 6894 ] final -163.07 input  -60.11 | X-H torsion
[ 7974 7965 7964 7962 ] final  -84.07 input  175.53 | X-H torsion
[ 8008 7997 7996 7995 ] final  -70.19 input   59.86 | X-H torsion
[ 10167 10162 10161 10158 ] final -133.52 input  -65.29 | X-H torsion
[ 10718 10713 10712 10709 ] final  -75.37 input   66.30 | X-H torsion
[ 10763 10752 10751 10750 ] final   84.76 input  -60.55 | X-H torsion
[ 11005 11000 10999 10996 ] final  139.00 input  -57.11 | X-H torsion

> <Gold.Protein.ActiveResidues>
 VAL166  LYS551  ARG553  GLY616  TRP617  ASP618  TYR619  PRO620  LYS621  CYS622 
 ASP623  PHE694  ASN695  SER759  ASP760  ASP761  ALA762  ILE779  LEU786  VAL792 
 PHE793  MET794  SER795  GLU796  ALA797  LYS798  CYS799  TRP800  GLU811  SER814 

> <Gold.Protein.RotatedAtoms>
  151.3903  133.3791  159.2719 H   0  0  0  0  0  0  0  0  0  0  0  0  # atno 6907 bound_to 6896
  150.9510  134.8911  159.7682 H   0  0  0  0  0  0  0  0  0  0  0  0  # atno 6908 bound_to 6896
  152.5112  134.3858  159.9419 H   0  0  0  0  0  0  0  0  0  0  0  0  # atno 6909 bound_to 6896
  145.5116  140.9539  143.1704 H   0  0  0  0  0  0  0  0  0  0  0  0  # atno 7974 bound_to 7965
  154.4994  140.0839  156.7765 H   0  0  0  0  0  0  0  0  0  0  0  0  # atno 8008 bound_to 7997
  155.4039  140.3438  155.4240 H   0  0  0  0  0  0  0  0  0  0  0  0  # atno 8009 bound_to 7997
  156.1436  140.1537  156.8869 H   0  0  0  0  0  0  0  0  0  0  0  0  # atno 8010 bound_to 7997
  139.8974  143.6649  152.2601 H   0  0  0  0  0  0  0  0  0  0  0  0  # atno 10167 bound_to 10162
  156.0210  130.4439  150.3032 H   0  0  0  0  0  0  0  0  0  0  0  0  # atno 10718 bound_to 10713
  153.1412  135.4642  154.9498 H   0  0  0  0  0  0  0  0  0  0  0  0  # atno 10763 bound_to 10752
  154.7748  135.3170  154.8116 H   0  0  0  0  0  0  0  0  0  0  0  0  # atno 10764 bound_to 10752
  153.8639  135.6910  153.4834 H   0  0  0  0  0  0  0  0  0  0  0  0  # atno 10765 bound_to 10752
  140.0223  134.9391  157.0499 H   0  0  0  0  0  0  0  0  0  0  0  0  # atno 11005 bound_to 11000
  144.7724  139.6704  143.7189 LP  0  0  0  0  0  0  0  0  0  0  0  0  # atno 17320 bound_to 7965
  146.2163  139.5555  142.9648 LP  0  0  0  0  0  0  0  0  0  0  0  0  # atno 17321 bound_to 7965
  139.7055  144.7628  151.1200 LP  0  0  0  0  0  0  0  0  0  0  0  0  # atno 17342 bound_to 10162
  140.7714  143.5400  150.9324 LP  0  0  0  0  0  0  0  0  0  0  0  0  # atno 17343 bound_to 10162
  157.1135  131.0227  151.3038 LP  0  0  0  0  0  0  0  0  0  0  0  0  # atno 17370 bound_to 10713
  157.4686  130.7695  149.7302 LP  0  0  0  0  0  0  0  0  0  0  0  0  # atno 17371 bound_to 10713
  140.4366  134.1725  155.7171 LP  0  0  0  0  0  0  0  0  0  0  0  0  # atno 17394 bound_to 11000
  141.1781  133.8471  157.1351 LP  0  0  0  0  0  0  0  0  0  0  0  0  # atno 17395 bound_to 11000

$$$$
