AV-unprocessed.smi:3169|AV-procd|sdf|12103|dock2
  -GOLD-   2272017543D 1   1.00000     0.00000
 Structure written by MMmdl.
 36 37  0  0  0  0  0  0  0  0  2 V2000
  145.9920  138.6529  153.8658 O   0  0  0  0  0  0  0  0  0  0  0  0
  146.8206  137.9244  153.3194 C   0  0  0  0  0  0  0  0  0  0  0  0
  146.5011  136.8933  152.5251 N   0  0  0  0  0  0  0  0  0  0  0  0
  145.1395  136.4867  152.1998 C   0  0  0  0  0  0  0  0  0  0  0  0
  145.0558  135.8676  150.7943 C   0  0  0  0  0  0  0  0  0  0  0  0
  145.2994  134.4251  150.8228 N   0  0  0  0  0  0  0  0  0  0  0  0
  146.4474  133.7812  151.2065 C   0  0  0  0  0  0  0  0  0  0  0  0
  146.2078  132.4386  151.0638 C   0  0  0  0  0  0  0  0  0  0  0  0
  144.9251  132.3207  150.5988 N   0  3  0  0  0  0  0  0  0  0  0  0
  144.3742  133.5303  150.4531 C   0  0  0  0  0  0  0  0  0  0  0  0
  148.1472  138.0573  153.4530 N   0  0  0  0  0  0  0  0  0  0  0  0
  148.8174  139.0693  154.2632 C   0  0  0  0  0  0  0  0  0  0  0  0
  150.3486  138.9764  154.1455 C   0  0  2  0  0  0  0  0  0  0  0  0
  150.9739  137.7222  154.7578 C   0  0  0  0  0  0  0  0  0  0  0  0
  152.3842  138.1904  155.0319 C   0  0  0  0  0  0  0  0  0  0  0  0
  152.1515  139.6280  155.4883 C   0  0  0  0  0  0  0  0  0  0  0  0
  150.9611  140.0628  154.8349 O   0  0  0  0  0  0  0  0  0  0  0  0
  147.2509  136.3527  152.1190 H   0  0  0  0  0  0  0  0  0  0  0  0
  144.7734  135.7854  152.9519 H   0  0  0  0  0  0  0  0  0  0  0  0
  144.4988  137.3670  152.2581 H   0  0  0  0  0  0  0  0  0  0  0  0
  144.0702  136.0341  150.3571 H   0  0  0  0  0  0  0  0  0  0  0  0
  145.7861  136.3181  150.1202 H   0  0  0  0  0  0  0  0  0  0  0  0
  147.3262  134.3121  151.5434 H   0  0  0  0  0  0  0  0  0  0  0  0
  146.8371  131.5813  151.2531 H   0  0  0  0  0  0  0  0  0  0  0  0
  143.3792  133.7427  150.1040 H   0  0  0  0  0  0  0  0  0  0  0  0
  148.7420  137.4062  152.9618 H   0  0  0  0  0  0  0  0  0  0  0  0
  148.4869  140.0455  153.9076 H   0  0  0  0  0  0  0  0  0  0  0  0
  148.5076  139.0058  155.3078 H   0  0  0  0  0  0  0  0  0  0  0  0
  150.6461  139.0500  153.0980 H   0  0  0  0  0  0  0  0  0  0  0  0
  150.4801  137.4634  155.6956 H   0  0  0  0  0  0  0  0  0  0  0  0
  150.9310  136.8565  154.0965 H   0  0  0  0  0  0  0  0  0  0  0  0
  152.9030  137.5847  155.7753 H   0  0  0  0  0  0  0  0  0  0  0  0
  152.9680  138.1772  154.1105 H   0  0  0  0  0  0  0  0  0  0  0  0
  151.9854  139.6636  156.5654 H   0  0  0  0  0  0  0  0  0  0  0  0
  152.9943  140.2784  155.2540 H   0  0  0  0  0  0  0  0  0  0  0  0
  144.4582  131.4459  150.3943 H   0  0  0  0  0  0  0  0  0  0  0  0
  1  2  2  0  0  0  0
  2  3  1  0  0  0  0
  2 11  1  0  0  0  0
  3  4  1  0  0  0  0
  3 18  1  0  0  0  0
  4  5  1  0  0  0  0
  4 19  1  0  0  0  0
  4 20  1  0  0  0  0
  5  6  1  0  0  0  0
  5 21  1  0  0  0  0
  5 22  1  0  0  0  0
  6 10  1  0  0  0  0
  6  7  1  0  0  0  0
  7  8  2  0  0  0  0
  7 23  1  0  0  0  0
  8  9  1  0  0  0  0
  8 24  1  0  0  0  0
  9 10  2  0  0  0  0
  9 36  1  0  0  0  0
 10 25  1  0  0  0  0
 11 12  1  0  0  0  0
 11 26  1  0  0  0  0
 12 13  1  0  0  0  0
 12 27  1  0  0  0  0
 12 28  1  0  0  0  0
 13 17  1  0  0  0  0
 13 14  1  0  0  0  0
 13 29  1  0  0  0  0
 14 15  1  0  0  0  0
 14 30  1  0  0  0  0
 14 31  1  0  0  0  0
 15 16  1  0  0  0  0
 15 32  1  0  0  0  0
 15 33  1  0  0  0  0
 16 17  1  0  0  0  0
 16 34  1  0  0  0  0
 16 35  1  0  0  0  0
M  CHG  1   9   1
M  END
> <s_m_source_file>
AV-unprocessed.smi

> <i_m_source_file_index>
3169

> <i_lp_mmshare_version>
43012

> <i_f3d_flags>
0

> <s_epik_input>
TzFbQ0gyXVtDSDJdW0NIMl1bQ0BIXTFbQ0gyXVtOSF1DKD1PKVtOSF1bQ0gyXVtDSDJdbjJbY0hdW2NIXW5bY0hdMg==

> <s_epik_cmdline>
J2VwaWtfcHl0aG9uJywgJy1waCcsICc3LjAnLCAnLXRuJywgJzgnLCAnLW1hJywgJzIwMCcsICctbWV0YWxfYmluZGluZycsICctaW1hZScsICc8aW5maWxlLm1hZT4nLCAnLW9tYWUnLCAnPG91dGZpbGUubWFlPic=

> <r_lp_tautomer_probability>
1

> <r_epik_Ionization_Penalty>
0.256136

> <r_epik_Ionization_Penalty_Charging>
0

> <r_epik_Ionization_Penalty_Neutral>
0.256136

> <r_epik_State_Penalty>
0.247629

> <r_epik_Charging_Adjusted_Penalty>
0.247629

> <i_epik_Tot_Q>
1

> <i_epik_Tot_abs_Q>
1

> <r_epik_Metal_State_Penalty>
0.537113

> <b_epik_Metal_Only>
0

> <s_lp_Force_Field>
OPLS_2005

> <r_lp_Energy>
17.2765

> <b_lp_Chiralities_Consistent>
1

> <s_lp_Variant>
AV-unprocessed.smi:3169-1

> <Gold.Version>
5.8.1

> <Gold.Id.Protein>
6NUR|6NUR_protein|mol2

> <Gold.PLP.Fitness>
46.2277

> <Gold.PLP.PLP>
-32.1663

> <Gold.PLP.part.hbond>
-3.0000

> <Gold.PLP.part.metal>
0.0000

> <Gold.PLP.part.buried>
-3.0346

> <Gold.PLP.part.nonpolar>
-26.6854

> <Gold.PLP.part.repulsive>
0.3474

> <Gold.PLP.ligand.clash>
0.0000

> <Gold.PLP.ligand.torsion>
0.3973

> <Gold.PLP.Chemscore.Hbond>
2.9440

> <Gold.PLP.Chemscore.CHOScore>
2.0000

> <Gold.PLP.Chemscore.Metal>
0.0000

> <Gold.Chemscore.Hbonds>
donor molecule, donor type, donor heavy atom, donor atom, acceptor molecule, acceptor atom, score
      L1  H     3    18       P1  7948  0.94
      L1  H    11    26       P1  7948  1.00
      P1  H  7989  7998       L1    17  0.95
      L1  C     7    23       P1  7948  1.00
      L1  C    10    25       P1 10186  1.00

> <Gold.PLP.Chemscore.Internal.Correction>
0.0239

> <Gold.Rescore>
     Score         DG    S(hbond)    S(metal)    S(lipo)     H(rot)  DE(clash)    DE(int)     intcor
     14.59     -15.11       2.64        0.00      57.97       2.33       0.02       0.50       ----

> <Gold.Chemscore.Fitness>
14.5917

> <Gold.Chemscore.DG>
-15.1061

> <Gold.Chemscore.ZeroCoef>
-5.4800

> <Gold.Chemscore.Hbond>
2.6363

> <Gold.Chemscore.Metal>
0.0000

> <Gold.Chemscore.Lipo>
57.9721

> <Gold.Chemscore.Internal_Hbond>
0.0000

> <Gold.Chemscore.DEClash>
0.0178

> <Gold.Chemscore.DEInternal>
0.4966

> <Gold.Chemscore.Rot>
2.3288

> <Gold.Chemscore.Internal.Correction>
   9.000000E+99

> <Gold.Chemscore.Hbonds>
donor molecule, donor type, donor heavy atom, donor atom, acceptor molecule, acceptor atom, score
      L1  H     3    18       P1  7948  0.91
      L1  H    11    26       P1  7948  0.95
      P1  H  7989  7998       L1    17  0.06

> <Gold.Chemscore.Hbond.Weighted>
-8.8051

> <Gold.Chemscore.Metal.Weighted>
-0.0000

> <Gold.Chemscore.Lipo.Weighted>
-6.7827

> <Gold.Chemscore.Internal_Hbond.Weighted>
0.0000

> <Gold.Chemscore.DEClash.Weighted>
0.0178

> <Gold.Chemscore.DEInternal.Weighted>
0.4966

> <Gold.Chemscore.Rot.Weighted>
5.9617

> <Gold.Chemscore.Internal.Correction.Weighted>
   9.000000E+99

> <Gold.Protein.RotatedTorsions>
[ 6907 6896 6895 6894 ] final    2.00 input  -60.11 | X-H torsion
[ 7974 7965 7964 7962 ] final  -75.65 input  175.53 | X-H torsion
[ 8008 7997 7996 7995 ] final  -13.71 input   59.86 | X-H torsion
[ 10167 10162 10161 10158 ] final   70.55 input  -65.29 | X-H torsion
[ 10718 10713 10712 10709 ] final   67.13 input   66.30 | X-H torsion
[ 10763 10752 10751 10750 ] final -108.45 input  -60.55 | X-H torsion
[ 11005 11000 10999 10996 ] final -165.73 input  -57.11 | X-H torsion

> <Gold.Protein.ActiveResidues>
 VAL166  LYS551  ARG553  GLY616  TRP617  ASP618  TYR619  PRO620  LYS621  CYS622 
 ASP623  PHE694  ASN695  SER759  ASP760  ASP761  ALA762  ILE779  LEU786  VAL792 
 PHE793  MET794  SER795  GLU796  ALA797  LYS798  CYS799  TRP800  GLU811  SER814 

> <Gold.Protein.RotatedAtoms>
  151.6018  135.1047  160.0061 H   0  0  0  0  0  0  0  0  0  0  0  0  # atno 6907 bound_to 6896
  152.4254  133.7181  159.6528 H   0  0  0  0  0  0  0  0  0  0  0  0  # atno 6908 bound_to 6896
  150.8142  133.8294  159.3190 H   0  0  0  0  0  0  0  0  0  0  0  0  # atno 6909 bound_to 6896
  145.6233  140.9357  143.1126 H   0  0  0  0  0  0  0  0  0  0  0  0  # atno 7974 bound_to 7965
  154.5269  140.2242  155.8873 H   0  0  0  0  0  0  0  0  0  0  0  0  # atno 8008 bound_to 7997
  156.1723  140.3119  155.8960 H   0  0  0  0  0  0  0  0  0  0  0  0  # atno 8009 bound_to 7997
  155.3532  140.0457  157.3037 H   0  0  0  0  0  0  0  0  0  0  0  0  # atno 8010 bound_to 7997
  140.0557  144.5275  150.7331 H   0  0  0  0  0  0  0  0  0  0  0  0  # atno 10167 bound_to 10162
  157.6212  130.9305  150.0201 H   0  0  0  0  0  0  0  0  0  0  0  0  # atno 10718 bound_to 10713
  154.8136  135.4637  154.0582 H   0  0  0  0  0  0  0  0  0  0  0  0  # atno 10763 bound_to 10752
  153.1993  135.6866  153.8258 H   0  0  0  0  0  0  0  0  0  0  0  0  # atno 10764 bound_to 10752
  153.7749  135.3265  155.3334 H   0  0  0  0  0  0  0  0  0  0  0  0  # atno 10765 bound_to 10752
  140.5725  134.5223  157.5164 H   0  0  0  0  0  0  0  0  0  0  0  0  # atno 11005 bound_to 11000
  144.7222  139.7991  143.7377 LP  0  0  0  0  0  0  0  0  0  0  0  0  # atno 17320 bound_to 7965
  146.1414  139.4472  143.0106 LP  0  0  0  0  0  0  0  0  0  0  0  0  # atno 17321 bound_to 7965
  140.7196  143.2576  151.4323 LP  0  0  0  0  0  0  0  0  0  0  0  0  # atno 17342 bound_to 10162
  139.5925  144.1468  152.2105 LP  0  0  0  0  0  0  0  0  0  0  0  0  # atno 17343 bound_to 10162
  156.1358  130.3642  149.9659 LP  0  0  0  0  0  0  0  0  0  0  0  0  # atno 17370 bound_to 10713
  156.7711  130.9186  151.3644 LP  0  0  0  0  0  0  0  0  0  0  0  0  # atno 17371 bound_to 10713
  139.9355  134.7883  156.0814 LP  0  0  0  0  0  0  0  0  0  0  0  0  # atno 17394 bound_to 11000
  141.1047  133.6664  156.2836 LP  0  0  0  0  0  0  0  0  0  0  0  0  # atno 17395 bound_to 11000

$$$$
