AV-unprocessed.smi:2588|AV-procd|sdf|10149|dock2
  -GOLD-   2272014163D 1   1.00000     0.00000
 Structure written by MMmdl.
 40 41  0  0  0  0  0  0  0  0  2 V2000
  149.5530  133.5901  154.0107 C   0  0  0  0  0  0  0  0  0  0  0  0
  148.8190  134.7123  154.7751 C   0  0  0  0  0  0  0  0  0  0  0  0
  147.3073  134.5826  154.4903 C   0  0  0  0  0  0  0  0  0  0  0  0
  149.3520  136.0757  154.4467 N   0  3  2  0  0  0  0  0  0  0  0  0
  150.7920  136.2498  154.8022 C   0  0  0  0  0  0  0  0  0  0  0  0
  151.3410  137.6249  154.3753 C   0  0  0  0  0  0  0  0  0  0  0  0
  150.5179  138.7825  154.9550 C   0  0  2  0  0  0  0  0  0  0  0  0
  150.7111  138.8685  156.4017 N   0  0  0  0  0  0  0  0  0  0  0  0
  151.8538  139.2064  157.0181 C   0  0  0  0  0  0  0  0  0  0  0  0
  152.9032  139.4415  156.4191 O   0  0  0  0  0  0  0  0  0  0  0  0
  151.8028  139.2848  158.5474 C   0  0  0  0  0  0  0  0  0  0  0  0
  152.2153  140.5991  159.0400 N   0  0  0  0  0  0  0  0  0  0  0  0
  153.2875  140.6683  159.8738 N   0  0  0  0  0  0  0  0  0  0  0  0
  153.5373  141.8775  160.2172 C   0  0  0  0  0  0  0  0  0  0  0  0
  152.4642  143.1158  159.5514 S   0  0  0  0  0  0  0  0  0  0  0  0
  151.5903  141.8012  158.7179 C   0  0  0  0  0  0  0  0  0  0  0  0
  150.6127  141.9860  157.9939 O   0  0  0  0  0  0  0  0  0  0  0  0
  149.0418  138.5670  154.5774 C   0  0  0  0  0  0  0  0  0  0  0  0
  148.5289  137.1839  155.0145 C   0  0  0  0  0  0  0  0  0  0  0  0
  149.0671  132.6263  154.1665 H   0  0  0  0  0  0  0  0  0  0  0  0
  150.5811  133.4614  154.3471 H   0  0  0  0  0  0  0  0  0  0  0  0
  149.5641  133.7809  152.9371 H   0  0  0  0  0  0  0  0  0  0  0  0
  148.9712  134.5412  155.8419 H   0  0  0  0  0  0  0  0  0  0  0  0
  146.9714  133.5526  154.6138 H   0  0  0  0  0  0  0  0  0  0  0  0
  147.0667  134.8847  153.4703 H   0  0  0  0  0  0  0  0  0  0  0  0
  146.7023  135.1756  155.1757 H   0  0  0  0  0  0  0  0  0  0  0  0
  150.9204  136.1060  155.8761 H   0  0  0  0  0  0  0  0  0  0  0  0
  151.4078  135.5006  154.3081 H   0  0  0  0  0  0  0  0  0  0  0  0
  152.3858  137.7190  154.6747 H   0  0  0  0  0  0  0  0  0  0  0  0
  151.3332  137.6892  153.2864 H   0  0  0  0  0  0  0  0  0  0  0  0
  150.8693  139.7164  154.5129 H   0  0  0  0  0  0  0  0  0  0  0  0
  149.9068  138.6754  156.9810 H   0  0  0  0  0  0  0  0  0  0  0  0
  150.7943  139.0707  158.9063 H   0  0  0  0  0  0  0  0  0  0  0  0
  152.4475  138.5050  158.9559 H   0  0  0  0  0  0  0  0  0  0  0  0
  154.3417  142.2065  160.8750 H   0  0  0  0  0  0  0  0  0  0  0  0
  148.4131  139.3476  155.0067 H   0  0  0  0  0  0  0  0  0  0  0  0
  148.9325  138.6610  153.4961 H   0  0  0  0  0  0  0  0  0  0  0  0
  147.4963  137.1135  154.6789 H   0  0  0  0  0  0  0  0  0  0  0  0
  148.5139  137.1094  156.1031 H   0  0  0  0  0  0  0  0  0  0  0  0
  149.2943  136.1671  153.4424 H   0  0  0  0  0  0  0  0  0  0  0  0
  1  2  1  0  0  0  0
  1 20  1  0  0  0  0
  1 21  1  0  0  0  0
  1 22  1  0  0  0  0
  2  3  1  0  0  0  0
  2  4  1  0  0  0  0
  2 23  1  0  0  0  0
  3 24  1  0  0  0  0
  3 25  1  0  0  0  0
  3 26  1  0  0  0  0
  4 19  1  0  0  0  0
  4  5  1  0  0  0  0
  4 40  1  0  0  0  0
  5  6  1  0  0  0  0
  5 27  1  0  0  0  0
  5 28  1  0  0  0  0
  6  7  1  0  0  0  0
  6 29  1  0  0  0  0
  6 30  1  0  0  0  0
  7  8  1  0  0  0  0
  7 18  1  0  0  0  0
  7 31  1  0  0  0  0
  8  9  1  0  0  0  0
  8 32  1  0  0  0  0
  9 10  2  0  0  0  0
  9 11  1  0  0  0  0
 11 12  1  0  0  0  0
 11 33  1  0  0  0  0
 11 34  1  0  0  0  0
 12 16  1  0  0  0  0
 12 13  1  0  0  0  0
 13 14  2  0  0  0  0
 14 15  1  0  0  0  0
 14 35  1  0  0  0  0
 15 16  1  0  0  0  0
 16 17  2  0  0  0  0
 18 19  1  0  0  0  0
 18 36  1  0  0  0  0
 18 37  1  0  0  0  0
 19 38  1  0  0  0  0
 19 39  1  0  0  0  0
M  CHG  1   4   1
M  END
> <s_m_source_file>
AV-unprocessed.smi

> <i_m_source_file_index>
2588

> <i_lp_mmshare_version>
43012

> <i_f3d_flags>
0

> <s_epik_input>
W0NIM11bQ0hdKFtDSDNdKU4xW0NIMl1bQ0gyXVtDSF0oW0NIMl1bQ0gyXTEpW05IXUMoPU8pW0NIMl1uMm5bY0hdc2MyPU8=

> <s_epik_cmdline>
J2VwaWtfcHl0aG9uJywgJy1waCcsICc3LjAnLCAnLXRuJywgJzgnLCAnLW1hJywgJzIwMCcsICctbWV0YWxfYmluZGluZycsICctaW1hZScsICc8aW5maWxlLm1hZT4nLCAnLW9tYWUnLCAnPG91dGZpbGUubWFlPic=

> <r_lp_tautomer_probability>
1

> <r_epik_Ionization_Penalty>
0.00923155

> <r_epik_Ionization_Penalty_Charging>
0.00923117

> <r_epik_Ionization_Penalty_Neutral>
3.88423e-07

> <r_epik_State_Penalty>
0.0069994

> <r_epik_Charging_Adjusted_Penalty>
0.0162306

> <i_epik_Tot_Q>
1

> <i_epik_Tot_abs_Q>
1

> <r_epik_Metal_State_Penalty>
0.0069994

> <b_epik_Metal_Only>
0

> <s_lp_Force_Field>
OPLS_2005

> <r_lp_Energy>
20.7245

> <b_lp_Chiralities_Consistent>
1

> <s_lp_Variant>
AV-unprocessed.smi:2588-2

> <Gold.Version>
5.8.1

> <Gold.Id.Protein>
6NUR|6NUR_protein|mol2

> <Gold.PLP.Fitness>
40.3490

> <Gold.PLP.PLP>
-31.5566

> <Gold.PLP.part.hbond>
-2.0000

> <Gold.PLP.part.metal>
0.0000

> <Gold.PLP.part.buried>
-4.5864

> <Gold.PLP.part.nonpolar>
-26.0099

> <Gold.PLP.part.repulsive>
0.1007

> <Gold.PLP.ligand.clash>
0.0000

> <Gold.PLP.ligand.torsion>
0.1226

> <Gold.PLP.Chemscore.Hbond>
3.0000

> <Gold.PLP.Chemscore.CHOScore>
0.0000

> <Gold.PLP.Chemscore.Metal>
0.0000

> <Gold.Chemscore.Hbonds>
donor molecule, donor type, donor heavy atom, donor atom, acceptor molecule, acceptor atom, score
      L1  H     4    40       P1  7948  2.00
      P1  H  7997  8009       L1    10  1.00

> <Gold.PLP.Chemscore.Internal.Correction>
0.0376

> <Gold.Rescore>
     Score         DG    S(hbond)    S(metal)    S(lipo)     H(rot)  DE(clash)    DE(int)     intcor
     15.04     -15.18       1.95        0.00      68.22       1.88       0.04       0.09       ----

> <Gold.Chemscore.Fitness>
15.0441

> <Gold.Chemscore.DG>
-15.1769

> <Gold.Chemscore.ZeroCoef>
-5.4800

> <Gold.Chemscore.Hbond>
1.9511

> <Gold.Chemscore.Metal>
0.0000

> <Gold.Chemscore.Lipo>
68.2205

> <Gold.Chemscore.Internal_Hbond>
0.0000

> <Gold.Chemscore.DEClash>
0.0402

> <Gold.Chemscore.DEInternal>
0.0926

> <Gold.Chemscore.Rot>
1.8756

> <Gold.Chemscore.Internal.Correction>
   9.000000E+99

> <Gold.Chemscore.Hbonds>
donor molecule, donor type, donor heavy atom, donor atom, acceptor molecule, acceptor atom, score
      L1  H     4    40       P1  7948  0.77
      P1  H  7997  8009       L1    10  0.97

> <Gold.Chemscore.Hbond.Weighted>
-6.5167

> <Gold.Chemscore.Metal.Weighted>
-0.0000

> <Gold.Chemscore.Lipo.Weighted>
-7.9818

> <Gold.Chemscore.Internal_Hbond.Weighted>
0.0000

> <Gold.Chemscore.DEClash.Weighted>
0.0402

> <Gold.Chemscore.DEInternal.Weighted>
0.0926

> <Gold.Chemscore.Rot.Weighted>
4.8015

> <Gold.Chemscore.Internal.Correction.Weighted>
   9.000000E+99

> <Gold.Protein.RotatedTorsions>
[ 6907 6896 6895 6894 ] final -175.48 input  -60.11 | X-H torsion
[ 7974 7965 7964 7962 ] final -106.58 input  175.53 | X-H torsion
[ 8008 7997 7996 7995 ] final -168.62 input   59.86 | X-H torsion
[ 10167 10162 10161 10158 ] final   99.47 input  -65.29 | X-H torsion
[ 10718 10713 10712 10709 ] final  -54.01 input   66.30 | X-H torsion
[ 10763 10752 10751 10750 ] final  -55.43 input  -60.55 | X-H torsion
[ 11005 11000 10999 10996 ] final  169.54 input  -57.11 | X-H torsion

> <Gold.Protein.ActiveResidues>
 VAL166  LYS551  ARG553  GLY616  TRP617  ASP618  TYR619  PRO620  LYS621  CYS622 
 ASP623  PHE694  ASN695  SER759  ASP760  ASP761  ALA762  ILE779  LEU786  VAL792 
 PHE793  MET794  SER795  GLU796  ALA797  LYS798  CYS799  TRP800  GLU811  SER814 

> <Gold.Protein.RotatedAtoms>
  151.5892  133.3368  159.3024 H   0  0  0  0  0  0  0  0  0  0  0  0  # atno 6907 bound_to 6896
  150.8269  134.7508  159.6832 H   0  0  0  0  0  0  0  0  0  0  0  0  # atno 6908 bound_to 6896
  152.4358  134.5696  159.9969 H   0  0  0  0  0  0  0  0  0  0  0  0  # atno 6909 bound_to 6896
  145.2161  140.9115  143.3286 H   0  0  0  0  0  0  0  0  0  0  0  0  # atno 7974 bound_to 7965
  155.8939  140.1029  157.1399 H   0  0  0  0  0  0  0  0  0  0  0  0  # atno 8008 bound_to 7997
  154.4018  140.1305  156.4414 H   0  0  0  0  0  0  0  0  0  0  0  0  # atno 8009 bound_to 7997
  155.7502  140.3465  155.5149 H   0  0  0  0  0  0  0  0  0  0  0  0  # atno 8010 bound_to 7997
  139.7614  144.6953  151.0286 H   0  0  0  0  0  0  0  0  0  0  0  0  # atno 10167 bound_to 10162
  156.1487  130.4152  149.9981 H   0  0  0  0  0  0  0  0  0  0  0  0  # atno 10718 bound_to 10713
  154.1906  135.6428  153.5059 H   0  0  0  0  0  0  0  0  0  0  0  0  # atno 10763 bound_to 10752
  153.0036  135.5428  154.6419 H   0  0  0  0  0  0  0  0  0  0  0  0  # atno 10764 bound_to 10752
  154.5807  135.2925  155.0709 H   0  0  0  0  0  0  0  0  0  0  0  0  # atno 10765 bound_to 10752
  140.2988  134.7612  157.3899 H   0  0  0  0  0  0  0  0  0  0  0  0  # atno 11005 bound_to 11000
  144.9810  139.3783  143.6262 LP  0  0  0  0  0  0  0  0  0  0  0  0  # atno 17320 bound_to 7965
  146.3387  139.8950  142.8803 LP  0  0  0  0  0  0  0  0  0  0  0  0  # atno 17321 bound_to 7965
  140.7807  143.4692  151.0170 LP  0  0  0  0  0  0  0  0  0  0  0  0  # atno 17342 bound_to 10162
  139.8378  143.7604  152.3180 LP  0  0  0  0  0  0  0  0  0  0  0  0  # atno 17343 bound_to 10162
  156.7846  130.9234  151.3646 LP  0  0  0  0  0  0  0  0  0  0  0  0  # atno 17370 bound_to 10713
  157.6638  130.8989  149.9888 LP  0  0  0  0  0  0  0  0  0  0  0  0  # atno 17371 bound_to 10713
  140.1128  134.5323  155.8251 LP  0  0  0  0  0  0  0  0  0  0  0  0  # atno 17394 bound_to 11000
  141.2132  133.6730  156.6720 LP  0  0  0  0  0  0  0  0  0  0  0  0  # atno 17395 bound_to 11000

$$$$
