AV-unprocessed.smi:469|AV-procd|sdf|2653|dock9
  -GOLD-   2262023 63D 1   1.00000     0.00000
 Structure written by MMmdl.
 37 38  0  0  0  0  0  0  0  0  1 V2000
  145.4614  132.0513  151.1751 C   0  0  0  0  0  0  0  0  0  0  0  0
  146.8324  132.3891  151.5254 N   0  0  0  0  0  0  0  0  0  0  0  0
  147.1751  133.2069  152.5308 C   0  0  0  0  0  0  0  0  0  0  0  0
  146.3490  133.7523  153.2641 O   0  0  0  0  0  0  0  0  0  0  0  0
  148.6821  133.4219  152.7342 C   0  0  0  0  0  0  0  0  0  0  0  0
  149.1226  133.2400  154.1273 N   0  0  0  0  0  0  0  0  0  0  0  0
  149.8187  134.3113  154.7195 C   0  0  0  0  0  0  0  0  0  0  0  0
  150.2329  134.2669  155.9963 C   0  0  0  0  0  0  0  0  0  0  0  0
  151.2530  135.6015  156.6746 S   0  0  0  0  0  0  0  0  0  0  0  0
  150.7290  135.9319  158.0091 O   0  0  0  0  0  0  0  0  0  0  0  0
  152.6642  135.2144  156.5188 O   0  0  0  0  0  0  0  0  0  0  0  0
  150.9748  136.9703  155.6548 N   0  0  0  0  0  0  0  0  0  0  0  0
  151.3537  138.2963  156.1610 C   0  0  0  0  0  0  0  0  0  0  0  0
  152.2664  138.9000  155.0944 C   0  0  0  0  0  0  0  0  0  0  0  0
  151.7466  138.2792  153.8066 C   0  0  0  0  0  0  0  0  0  0  0  0
  151.3518  136.8669  154.2373 C   0  0  0  0  0  0  0  0  0  0  0  0
  150.0184  133.0500  156.7449 C   0  0  0  0  0  0  0  0  0  0  0  0
  149.3791  132.0085  156.1759 C   0  0  0  0  0  0  0  0  0  0  0  0
  148.8818  132.0701  154.7962 C   0  0  0  0  0  0  0  0  0  0  0  0
  148.2868  131.1273  154.2734 O   0  0  0  0  0  0  0  0  0  0  0  0
  145.4530  131.3401  150.3489 H   0  0  0  0  0  0  0  0  0  0  0  0
  144.9100  132.9405  150.8664 H   0  0  0  0  0  0  0  0  0  0  0  0
  144.9441  131.5964  152.0212 H   0  0  0  0  0  0  0  0  0  0  0  0
  147.5673  131.9755  150.9698 H   0  0  0  0  0  0  0  0  0  0  0  0
  149.2175  132.7327  152.0792 H   0  0  0  0  0  0  0  0  0  0  0  0
  148.9510  134.4182  152.3781 H   0  0  0  0  0  0  0  0  0  0  0  0
  150.0011  135.1537  154.0681 H   0  0  0  0  0  0  0  0  0  0  0  0
  150.4509  138.8954  156.2827 H   0  0  0  0  0  0  0  0  0  0  0  0
  151.8494  138.2295  157.1300 H   0  0  0  0  0  0  0  0  0  0  0  0
  152.2402  139.9899  155.0816 H   0  0  0  0  0  0  0  0  0  0  0  0
  153.2975  138.5880  155.2673 H   0  0  0  0  0  0  0  0  0  0  0  0
  150.8661  138.8229  153.4616 H   0  0  0  0  0  0  0  0  0  0  0  0
  152.4848  138.2859  153.0041 H   0  0  0  0  0  0  0  0  0  0  0  0
  152.2058  136.1960  154.1350 H   0  0  0  0  0  0  0  0  0  0  0  0
  150.5301  136.4627  153.6457 H   0  0  0  0  0  0  0  0  0  0  0  0
  150.3698  132.9711  157.7630 H   0  0  0  0  0  0  0  0  0  0  0  0
  149.2269  131.1057  156.7491 H   0  0  0  0  0  0  0  0  0  0  0  0
  1  2  1  0  0  0  0
  1 21  1  0  0  0  0
  1 22  1  0  0  0  0
  1 23  1  0  0  0  0
  2  3  1  0  0  0  0
  2 24  1  0  0  0  0
  3  4  2  0  0  0  0
  3  5  1  0  0  0  0
  5  6  1  0  0  0  0
  5 25  1  0  0  0  0
  5 26  1  0  0  0  0
  6 19  1  0  0  0  0
  6  7  1  0  0  0  0
  7  8  2  0  0  0  0
  7 27  1  0  0  0  0
  8  9  1  0  0  0  0
  8 17  1  0  0  0  0
  9 10  2  0  0  0  0
  9 11  2  0  0  0  0
  9 12  1  0  0  0  0
 12 16  1  0  0  0  0
 12 13  1  0  0  0  0
 13 14  1  0  0  0  0
 13 28  1  0  0  0  0
 13 29  1  0  0  0  0
 14 15  1  0  0  0  0
 14 30  1  0  0  0  0
 14 31  1  0  0  0  0
 15 16  1  0  0  0  0
 15 32  1  0  0  0  0
 15 33  1  0  0  0  0
 16 34  1  0  0  0  0
 16 35  1  0  0  0  0
 17 18  2  0  0  0  0
 17 36  1  0  0  0  0
 18 19  1  0  0  0  0
 18 37  1  0  0  0  0
 19 20  2  0  0  0  0
M  END
> <s_m_source_file>
AV-unprocessed.smi

> <i_m_source_file_index>
469

> <i_lp_mmshare_version>
43012

> <i_f3d_flags>
0

> <s_epik_input>
W0NIM11bTkhdQyg9TylbQ0gyXW4xW2NIXWMoW2NIXVtjSF1jMT1PKVMoPU8pKD1PKU4yW0NIMl1bQ0gyXVtDSDJdW0NIMl0y

> <s_epik_cmdline>
J2VwaWtfcHl0aG9uJywgJy1waCcsICc3LjAnLCAnLXRuJywgJzgnLCAnLW1hJywgJzIwMCcsICctbWV0YWxfYmluZGluZycsICctaW1hZScsICc8aW5maWxlLm1hZT4nLCAnLW9tYWUnLCAnPG91dGZpbGUubWFlPic=

> <r_lp_tautomer_probability>
1

> <r_epik_Ionization_Penalty>
2.91909e-08

> <r_epik_Ionization_Penalty_Charging>
9.91299e-09

> <r_epik_Ionization_Penalty_Neutral>
1.92779e-08

> <r_epik_State_Penalty>
-0

> <r_epik_Charging_Adjusted_Penalty>
9.91299e-09

> <i_epik_Tot_Q>
0

> <i_epik_Tot_abs_Q>
0

> <r_epik_Metal_State_Penalty>
-0

> <b_epik_Metal_Only>
0

> <s_lp_Force_Field>
OPLS_2005

> <r_lp_Energy>
18.9882

> <b_lp_Chiralities_Consistent>
1

> <s_lp_Variant>
AV-unprocessed.smi:469-1

> <Gold.Version>
5.8.1

> <Gold.Id.Protein>
6NUR|6NUR_protein|mol2

> <Gold.PLP.Fitness>
39.1968

> <Gold.PLP.PLP>
-30.7834

> <Gold.PLP.part.hbond>
-3.0000

> <Gold.PLP.part.metal>
0.0000

> <Gold.PLP.part.buried>
-2.3582

> <Gold.PLP.part.nonpolar>
-24.9611

> <Gold.PLP.part.repulsive>
0.2075

> <Gold.PLP.ligand.clash>
0.0000

> <Gold.PLP.ligand.torsion>
1.7169

> <Gold.PLP.Chemscore.Hbond>
2.6400

> <Gold.PLP.Chemscore.CHOScore>
0.4951

> <Gold.PLP.Chemscore.Metal>
0.0000

> <Gold.Chemscore.Hbonds>
donor molecule, donor type, donor heavy atom, donor atom, acceptor molecule, acceptor atom, score
      L1  H     2    24       P1 10747  1.00
      P1  H  6896  6909       L1    10  0.56
      P1  H 10752 10765       L1    11  0.88
      L1  C     7    27       P1  7948  0.39

> <Gold.PLP.Chemscore.Internal.Correction>
2.4419

> <Gold.Rescore>
     Score         DG    S(hbond)    S(metal)    S(lipo)     H(rot)  DE(clash)    DE(int)     intcor
     15.44     -17.57       2.82        0.00      58.25       1.62       0.02       2.11       ----

> <Gold.Chemscore.Fitness>
15.4389

> <Gold.Chemscore.DG>
-17.5660

> <Gold.Chemscore.ZeroCoef>
-5.4800

> <Gold.Chemscore.Hbond>
2.8216

> <Gold.Chemscore.Metal>
0.0000

> <Gold.Chemscore.Lipo>
58.2541

> <Gold.Chemscore.Internal_Hbond>
0.0000

> <Gold.Chemscore.DEClash>
0.0193

> <Gold.Chemscore.DEInternal>
2.1078

> <Gold.Chemscore.Rot>
1.6226

> <Gold.Chemscore.Internal.Correction>
   9.000000E+99

> <Gold.Chemscore.Hbonds>
donor molecule, donor type, donor heavy atom, donor atom, acceptor molecule, acceptor atom, score
      L1  H     2    24       P1 10747  1.00
      P1  H  6896  6909       L1    10  0.54
      P1  H 10752 10765       L1    11  0.83

> <Gold.Chemscore.Hbond.Weighted>
-9.4241

> <Gold.Chemscore.Metal.Weighted>
-0.0000

> <Gold.Chemscore.Lipo.Weighted>
-6.8157

> <Gold.Chemscore.Internal_Hbond.Weighted>
0.0000

> <Gold.Chemscore.DEClash.Weighted>
0.0193

> <Gold.Chemscore.DEInternal.Weighted>
2.1078

> <Gold.Chemscore.Rot.Weighted>
4.1539

> <Gold.Chemscore.Internal.Correction.Weighted>
   9.000000E+99

> <Gold.Protein.RotatedTorsions>
[ 6907 6896 6895 6894 ] final   59.88 input  -60.11 | X-H torsion
[ 7974 7965 7964 7962 ] final -109.20 input  175.53 | X-H torsion
[ 8008 7997 7996 7995 ] final -141.38 input   59.86 | X-H torsion
[ 10167 10162 10161 10158 ] final    4.94 input  -65.29 | X-H torsion
[ 10718 10713 10712 10709 ] final  -57.21 input   66.30 | X-H torsion
[ 10763 10752 10751 10750 ] final -119.35 input  -60.55 | X-H torsion
[ 11005 11000 10999 10996 ] final   99.47 input  -57.11 | X-H torsion

> <Gold.Protein.ActiveResidues>
 VAL166  LYS551  ARG553  GLY616  TRP617  ASP618  TYR619  PRO620  LYS621  CYS622 
 ASP623  PHE694  ASN695  SER759  ASP760  ASP761  ALA762  ILE779  LEU786  VAL792 
 PHE793  MET794  SER795  GLU796  ALA797  LYS798  CYS799  TRP800  GLU811  SER814 

> <Gold.Protein.RotatedAtoms>
  152.3954  134.6374  160.0091 H   0  0  0  0  0  0  0  0  0  0  0  0  # atno 6907 bound_to 6896
  151.6596  133.3312  159.3179 H   0  0  0  0  0  0  0  0  0  0  0  0  # atno 6908 bound_to 6896
  150.7862  134.6892  159.6532 H   0  0  0  0  0  0  0  0  0  0  0  0  # atno 6909 bound_to 6896
  145.1834  140.8981  143.3467 H   0  0  0  0  0  0  0  0  0  0  0  0  # atno 7974 bound_to 7965
  155.4768  140.0557  157.2972 H   0  0  0  0  0  0  0  0  0  0  0  0  # atno 8008 bound_to 7997
  154.4676  140.2025  156.0030 H   0  0  0  0  0  0  0  0  0  0  0  0  # atno 8009 bound_to 7997
  156.1001  140.3220  155.7935 H   0  0  0  0  0  0  0  0  0  0  0  0  # atno 8010 bound_to 7997
  140.6508  143.7549  150.7572 H   0  0  0  0  0  0  0  0  0  0  0  0  # atno 10167 bound_to 10162
  156.1228  130.4165  150.0410 H   0  0  0  0  0  0  0  0  0  0  0  0  # atno 10718 bound_to 10713
  154.8614  135.4241  154.2285 H   0  0  0  0  0  0  0  0  0  0  0  0  # atno 10763 bound_to 10752
  153.3275  135.6986  153.6982 H   0  0  0  0  0  0  0  0  0  0  0  0  # atno 10764 bound_to 10752
  153.6012  135.3536  155.2919 H   0  0  0  0  0  0  0  0  0  0  0  0  # atno 10765 bound_to 10752
  139.8771  134.9097  156.4610 H   0  0  0  0  0  0  0  0  0  0  0  0  # atno 11005 bound_to 11000
  145.0113  139.3507  143.6118 LP  0  0  0  0  0  0  0  0  0  0  0  0  # atno 17320 bound_to 7965
  146.3449  139.9377  142.8745 LP  0  0  0  0  0  0  0  0  0  0  0  0  # atno 17321 bound_to 7965
  140.1199  143.4621  152.2319 LP  0  0  0  0  0  0  0  0  0  0  0  0  # atno 17342 bound_to 10162
  139.5723  144.7469  151.3857 LP  0  0  0  0  0  0  0  0  0  0  0  0  # atno 17343 bound_to 10162
  156.8344  130.9403  151.3635 LP  0  0  0  0  0  0  0  0  0  0  0  0  # atno 17370 bound_to 10713
  157.6411  130.8806  149.9450 LP  0  0  0  0  0  0  0  0  0  0  0  0  # atno 17371 bound_to 10713
  140.8864  133.7880  155.9523 LP  0  0  0  0  0  0  0  0  0  0  0  0  # atno 17394 bound_to 11000
  140.8800  134.2623  157.5149 LP  0  0  0  0  0  0  0  0  0  0  0  0  # atno 17395 bound_to 11000

$$$$
