AV-unprocessed.smi:1430|AV-procd|sdf|5822|dock5
  -GOLD-   22720 5483D 1   1.00000     0.00000
 Structure written by MMmdl.
 46 47  0  0  0  0  0  0  0  0  1 V2000
  151.3016  141.1245  158.2503 C   0  0  0  0  0  0  0  0  0  0  0  0
  151.5402  140.9546  156.8572 O   0  0  0  0  0  0  0  0  0  0  0  0
  151.0496  139.8211  156.2421 C   0  0  0  0  0  0  0  0  0  0  0  0
  150.6341  138.7430  157.0480 C   0  0  0  0  0  0  0  0  0  0  0  0
  150.1370  137.5829  156.4248 C   0  0  0  0  0  0  0  0  0  0  0  0
  150.0758  137.5289  155.0177 C   0  0  0  0  0  0  0  0  0  0  0  0
  149.5565  136.3475  154.4218 N   0  0  0  0  0  0  0  0  0  0  0  0
  149.4275  135.1209  154.9567 C   0  0  0  0  0  0  0  0  0  0  0  0
  149.7434  134.8046  156.1032 O   0  0  0  0  0  0  0  0  0  0  0  0
  148.8853  134.2662  154.0781 N   0  0  0  0  0  0  0  0  0  0  0  0
  148.5947  132.8625  154.3437 C   0  0  0  0  0  0  0  0  0  0  0  0
  147.1076  132.6549  154.6861 C   0  0  0  0  0  0  0  0  0  0  0  0
  146.3255  131.9742  153.6553 N   0  0  0  0  0  0  0  0  0  0  0  0
  146.3160  132.6979  152.3862 C   0  0  0  0  0  0  0  0  0  0  0  0
  145.5121  131.9539  151.3021 C   0  0  1  0  0  0  0  0  0  0  0  0
  145.5738  132.6645  149.9460 C   0  0  0  0  0  0  0  0  0  0  0  0
  146.0424  130.6407  151.1441 O   0  0  0  0  0  0  0  0  0  0  0  0
  146.0238  129.8788  152.3479 C   0  0  1  0  0  0  0  0  0  0  0  0
  146.5994  128.4903  152.0495 C   0  0  0  0  0  0  0  0  0  0  0  0
  146.8323  130.6259  153.4256 C   0  0  0  0  0  0  0  0  0  0  0  0
  150.5049  138.6700  154.2963 C   0  0  0  0  0  0  0  0  0  0  0  0
  150.9819  139.7859  154.8885 N   0  0  0  0  0  0  0  0  0  0  0  0
  151.7473  142.0627  158.5803 H   0  0  0  0  0  0  0  0  0  0  0  0
  151.7536  140.3208  158.8332 H   0  0  0  0  0  0  0  0  0  0  0  0
  150.2340  141.1702  158.4704 H   0  0  0  0  0  0  0  0  0  0  0  0
  150.6953  138.8050  158.1246 H   0  0  0  0  0  0  0  0  0  0  0  0
  149.8113  136.7445  157.0232 H   0  0  0  0  0  0  0  0  0  0  0  0
  149.1859  136.4630  153.4900 H   0  0  0  0  0  0  0  0  0  0  0  0
  148.6533  134.6118  153.1584 H   0  0  0  0  0  0  0  0  0  0  0  0
  148.8794  132.2495  153.4869 H   0  0  0  0  0  0  0  0  0  0  0  0
  149.2305  132.5547  155.1732 H   0  0  0  0  0  0  0  0  0  0  0  0
  147.0222  132.1142  155.6299 H   0  0  0  0  0  0  0  0  0  0  0  0
  146.6665  133.6368  154.8637 H   0  0  0  0  0  0  0  0  0  0  0  0
  145.8822  133.6882  152.5199 H   0  0  0  0  0  0  0  0  0  0  0  0
  147.3401  132.8482  152.0405 H   0  0  0  0  0  0  0  0  0  0  0  0
  144.4679  131.8780  151.6100 H   0  0  0  0  0  0  0  0  0  0  0  0
  145.1657  133.6733  150.0131 H   0  0  0  0  0  0  0  0  0  0  0  0
  144.9980  132.1226  149.1952 H   0  0  0  0  0  0  0  0  0  0  0  0
  146.6006  132.7413  149.5873 H   0  0  0  0  0  0  0  0  0  0  0  0
  144.9900  129.7655  152.6792 H   0  0  0  0  0  0  0  0  0  0  0  0
  146.5961  127.8643  152.9420 H   0  0  0  0  0  0  0  0  0  0  0  0
  147.6273  128.5576  151.6915 H   0  0  0  0  0  0  0  0  0  0  0  0
  146.0124  127.9817  151.2843 H   0  0  0  0  0  0  0  0  0  0  0  0
  147.8803  130.6734  153.1247 H   0  0  0  0  0  0  0  0  0  0  0  0
  146.8016  130.0580  154.3562 H   0  0  0  0  0  0  0  0  0  0  0  0
  150.4564  138.7216  153.2202 H   0  0  0  0  0  0  0  0  0  0  0  0
  1  2  1  0  0  0  0
  1 23  1  0  0  0  0
  1 24  1  0  0  0  0
  1 25  1  0  0  0  0
  2  3  1  0  0  0  0
  3 22  1  0  0  0  0
  3  4  2  0  0  0  0
  4  5  1  0  0  0  0
  4 26  1  0  0  0  0
  5  6  2  0  0  0  0
  5 27  1  0  0  0  0
  6  7  1  0  0  0  0
  6 21  1  0  0  0  0
  7  8  1  0  0  0  0
  7 28  1  0  0  0  0
  8  9  2  0  0  0  0
  8 10  1  0  0  0  0
 10 11  1  0  0  0  0
 10 29  1  0  0  0  0
 11 12  1  0  0  0  0
 11 30  1  0  0  0  0
 11 31  1  0  0  0  0
 12 13  1  0  0  0  0
 12 32  1  0  0  0  0
 12 33  1  0  0  0  0
 13 20  1  0  0  0  0
 13 14  1  0  0  0  0
 14 15  1  0  0  0  0
 14 34  1  0  0  0  0
 14 35  1  0  0  0  0
 15 16  1  0  0  0  0
 15 17  1  0  0  0  0
 15 36  1  0  0  0  0
 16 37  1  0  0  0  0
 16 38  1  0  0  0  0
 16 39  1  0  0  0  0
 17 18  1  0  0  0  0
 18 19  1  0  0  0  0
 18 20  1  0  0  0  0
 18 40  1  0  0  0  0
 19 41  1  0  0  0  0
 19 42  1  0  0  0  0
 19 43  1  0  0  0  0
 20 44  1  0  0  0  0
 20 45  1  0  0  0  0
 21 22  2  0  0  0  0
 21 46  1  0  0  0  0
M  END
> <s_m_source_file>
AV-unprocessed.smi

> <i_m_source_file_index>
1430

> <i_lp_mmshare_version>
43012

> <i_f3d_flags>
0

> <s_epik_input>
W0NIM11PYzFbY0hdW2NIXWMoW2NIXW4xKVtOSF1DKD1PKVtOSF1bQ0gyXVtDSDJdTjJbQ0gyXVtDQEBIXShbQ0gzXSlPW0NAQEhdKFtDSDNdKVtDSDJdMg==

> <s_epik_cmdline>
J2VwaWtfcHl0aG9uJywgJy1waCcsICc3LjAnLCAnLXRuJywgJzgnLCAnLW1hJywgJzIwMCcsICctbWV0YWxfYmluZGluZycsICctaW1hZScsICc8aW5maWxlLm1hZT4nLCAnLW9tYWUnLCAnPG91dGZpbGUubWFlPic=

> <r_lp_tautomer_probability>
1

> <r_epik_Ionization_Penalty>
0.266083

> <r_epik_Ionization_Penalty_Charging>
0

> <r_epik_Ionization_Penalty_Neutral>
0.266083

> <r_epik_State_Penalty>
0.257924

> <r_epik_Charging_Adjusted_Penalty>
0.257924

> <i_epik_Tot_Q>
0

> <i_epik_Tot_abs_Q>
0

> <r_epik_Metal_State_Penalty>
0.257922

> <b_epik_Metal_Only>
0

> <s_lp_Force_Field>
OPLS_2005

> <r_lp_Energy>
23.3408

> <b_lp_Chiralities_Consistent>
1

> <s_lp_Variant>
AV-unprocessed.smi:1430-1

> <Gold.Version>
5.8.1

> <Gold.Id.Protein>
6NUR|6NUR_protein|mol2

> <Gold.PLP.Fitness>
41.5149

> <Gold.PLP.PLP>
-31.4604

> <Gold.PLP.part.hbond>
-3.1617

> <Gold.PLP.part.metal>
0.0000

> <Gold.PLP.part.buried>
-5.3021

> <Gold.PLP.part.nonpolar>
-24.0622

> <Gold.PLP.part.repulsive>
0.8363

> <Gold.PLP.ligand.clash>
0.0000

> <Gold.PLP.ligand.torsion>
0.7625

> <Gold.PLP.Chemscore.Hbond>
2.8480

> <Gold.PLP.Chemscore.CHOScore>
1.0000

> <Gold.PLP.Chemscore.Metal>
0.0000

> <Gold.Chemscore.Hbonds>
donor molecule, donor type, donor heavy atom, donor atom, acceptor molecule, acceptor atom, score
      L1  H     7    28       P1  7948  1.00
      L1  H    10    29       P1  7948  0.81
      P1  H  7989  7998       L1    22  1.00
      L1  C    21    46       P1  7957  0.90

> <Gold.PLP.Chemscore.Internal.Correction>
0.0354

> <Gold.Rescore>
     Score         DG    S(hbond)    S(metal)    S(lipo)     H(rot)  DE(clash)    DE(int)     intcor
     14.38     -16.94       1.85        0.00      82.63       1.71       0.59       1.97       ----

> <Gold.Chemscore.Fitness>
14.3811

> <Gold.Chemscore.DG>
-16.9434

> <Gold.Chemscore.ZeroCoef>
-5.4800

> <Gold.Chemscore.Hbond>
1.8487

> <Gold.Chemscore.Metal>
0.0000

> <Gold.Chemscore.Lipo>
82.6328

> <Gold.Chemscore.Internal_Hbond>
0.0000

> <Gold.Chemscore.DEClash>
0.5944

> <Gold.Chemscore.DEInternal>
1.9678

> <Gold.Chemscore.Rot>
1.7107

> <Gold.Chemscore.Internal.Correction>
   9.000000E+99

> <Gold.Chemscore.Hbonds>
donor molecule, donor type, donor heavy atom, donor atom, acceptor molecule, acceptor atom, score
      L1  H     7    28       P1  7948  0.95
      L1  H    10    29       P1  7948  0.20
      P1  H  7989  7998       L1    22  0.55

> <Gold.Chemscore.Hbond.Weighted>
-6.1747

> <Gold.Chemscore.Metal.Weighted>
-0.0000

> <Gold.Chemscore.Lipo.Weighted>
-9.6680

> <Gold.Chemscore.Internal_Hbond.Weighted>
0.0000

> <Gold.Chemscore.DEClash.Weighted>
0.5944

> <Gold.Chemscore.DEInternal.Weighted>
1.9678

> <Gold.Chemscore.Rot.Weighted>
4.3794

> <Gold.Chemscore.Internal.Correction.Weighted>
   9.000000E+99

> <Gold.Protein.RotatedTorsions>
[ 6907 6896 6895 6894 ] final  137.69 input  -60.11 | X-H torsion
[ 7974 7965 7964 7962 ] final  165.45 input  175.53 | X-H torsion
[ 8008 7997 7996 7995 ] final  164.55 input   59.86 | X-H torsion
[ 10167 10162 10161 10158 ] final  169.63 input  -65.29 | X-H torsion
[ 10718 10713 10712 10709 ] final   11.63 input   66.30 | X-H torsion
[ 10763 10752 10751 10750 ] final  -58.68 input  -60.55 | X-H torsion
[ 11005 11000 10999 10996 ] final   85.14 input  -57.11 | X-H torsion

> <Gold.Protein.ActiveResidues>
 VAL166  LYS551  ARG553  GLY616  TRP617  ASP618  TYR619  PRO620  LYS621  CYS622 
 ASP623  PHE694  ASN695  SER759  ASP760  ASP761  ALA762  ILE779  LEU786  VAL792 
 PHE793  MET794  SER795  GLU796  ALA797  LYS798  CYS799  TRP800  GLU811  SER814 

> <Gold.Protein.RotatedAtoms>
  152.2752  133.5419  159.5463 H   0  0  0  0  0  0  0  0  0  0  0  0  # atno 6907 bound_to 6896
  150.7174  134.0641  159.3850 H   0  0  0  0  0  0  0  0  0  0  0  0  # atno 6908 bound_to 6896
  151.8554  135.0543  160.0514 H   0  0  0  0  0  0  0  0  0  0  0  0  # atno 6909 bound_to 6896
  144.7502  139.8472  143.6368 H   0  0  0  0  0  0  0  0  0  0  0  0  # atno 7974 bound_to 7965
  156.1871  140.1694  156.8164 H   0  0  0  0  0  0  0  0  0  0  0  0  # atno 8008 bound_to 7997
  154.5427  140.0733  156.8569 H   0  0  0  0  0  0  0  0  0  0  0  0  # atno 8009 bound_to 7997
  155.3183  140.3372  155.4244 H   0  0  0  0  0  0  0  0  0  0  0  0  # atno 8010 bound_to 7997
  139.4997  144.3685  151.9750 H   0  0  0  0  0  0  0  0  0  0  0  0  # atno 10167 bound_to 10162
  156.9983  130.6069  149.5693 H   0  0  0  0  0  0  0  0  0  0  0  0  # atno 10718 bound_to 10713
  154.2420  135.6342  153.5210 H   0  0  0  0  0  0  0  0  0  0  0  0  # atno 10763 bound_to 10752
  152.9928  135.5544  154.5901 H   0  0  0  0  0  0  0  0  0  0  0  0  # atno 10764 bound_to 10752
  154.5408  135.2894  155.1072 H   0  0  0  0  0  0  0  0  0  0  0  0  # atno 10765 bound_to 10752
  139.8980  134.8266  156.2541 H   0  0  0  0  0  0  0  0  0  0  0  0  # atno 11005 bound_to 11000
  146.1441  139.4506  143.0090 LP  0  0  0  0  0  0  0  0  0  0  0  0  # atno 17320 bound_to 7965
  145.6972  141.0147  143.1524 LP  0  0  0  0  0  0  0  0  0  0  0  0  # atno 17321 bound_to 7965
  140.3121  144.3526  150.6031 LP  0  0  0  0  0  0  0  0  0  0  0  0  # atno 17342 bound_to 10162
  140.5790  143.2174  151.7462 LP  0  0  0  0  0  0  0  0  0  0  0  0  # atno 17343 bound_to 10162
  156.0181  130.5275  150.8194 LP  0  0  0  0  0  0  0  0  0  0  0  0  # atno 17370 bound_to 10713
  157.5409  131.0940  150.9829 LP  0  0  0  0  0  0  0  0  0  0  0  0  # atno 17371 bound_to 10713
  141.0205  133.7044  156.1259 LP  0  0  0  0  0  0  0  0  0  0  0  0  # atno 17394 bound_to 11000
  140.7241  134.4326  157.5572 LP  0  0  0  0  0  0  0  0  0  0  0  0  # atno 17395 bound_to 11000

$$$$
