AV-unprocessed.smi:198|AV-procd|sdf|1557|dock9
  -GOLD-   2262019433D 1   1.00000     0.00000
 Structure written by MMmdl.
 59 63  0  0  0  0  0  0  0  0  2 V2000
  147.2338  129.4746  153.0669 C   0  0  0  0  0  0  0  0  0  0  0  0
  147.0911  130.7111  152.2683 N   0  3  2  0  0  0  0  0  0  0  0  0
  147.3193  131.9325  153.0770 C   0  0  0  0  0  0  0  0  0  0  0  0
  147.2903  133.1874  152.1902 C   0  0  0  0  0  0  0  0  0  0  0  0
  145.9618  133.3139  151.4067 C   0  0  1  0  0  0  0  0  0  0  0  0
  145.7241  132.0042  150.6147 C   0  0  2  0  0  0  0  0  0  0  0  0
  144.4001  132.0740  149.8280 C   0  0  0  0  0  0  0  0  0  0  0  0
  143.2232  132.4511  150.7407 C   0  0  0  0  0  0  0  0  0  0  0  0
  143.5299  133.7364  151.5224 C   0  0  0  0  0  0  0  0  0  0  0  0
  144.7956  133.6293  152.2467 N   0  0  0  0  0  0  0  0  0  0  0  0
  144.9424  134.6586  153.1100 C   0  0  0  0  0  0  0  0  0  0  0  0
  144.4706  134.4792  154.3676 N   0  0  0  0  0  0  0  0  0  0  0  0
  144.5797  135.4627  155.2662 C   0  0  0  0  0  0  0  0  0  0  0  0
  145.1150  136.6761  155.1155 N   0  0  0  0  0  0  0  0  0  0  0  0
  145.5905  136.8581  153.8498 C   0  0  0  0  0  0  0  0  0  0  0  0
  145.5421  135.9092  152.7902 C   0  0  0  0  0  0  0  0  0  0  0  0
  146.1057  136.4501  151.6415 N   0  0  0  0  0  0  0  0  0  0  0  0
  146.4593  137.6545  151.9991 C   0  0  0  0  0  0  0  0  0  0  0  0
  146.2124  137.9737  153.3158 N   0  0  0  0  0  0  0  0  0  0  0  0
  146.4556  139.2372  153.9495 C   0  0  0  0  0  0  0  0  0  0  0  0
  147.2477  140.3377  153.2369 C   0  0  0  0  0  0  0  0  0  0  0  0
  147.8901  140.7612  154.5762 C   0  0  0  0  0  0  0  0  0  0  0  0
  149.4108  140.9776  154.5310 C   0  0  0  0  0  0  0  0  0  0  0  0
  150.0752  139.8603  153.9762 O   0  0  0  0  0  0  0  0  0  0  0  0
  147.2790  141.9838  155.2965 C   0  0  0  0  0  0  0  0  0  0  0  0
  147.1819  143.1286  154.4736 O   0  0  0  0  0  0  0  0  0  0  0  0
  147.4595  139.3719  155.0986 C   0  0  0  0  0  0  0  0  0  0  0  0
  145.8026  130.7635  151.5350 C   0  0  0  0  0  0  0  0  0  0  0  0
  146.4795  129.4276  153.8535 H   0  0  0  0  0  0  0  0  0  0  0  0
  148.2183  129.4288  153.5340 H   0  0  0  0  0  0  0  0  0  0  0  0
  147.1255  128.5926  152.4349 H   0  0  0  0  0  0  0  0  0  0  0  0
  146.5643  132.0036  153.8615 H   0  0  0  0  0  0  0  0  0  0  0  0
  148.2873  131.8636  153.5749 H   0  0  0  0  0  0  0  0  0  0  0  0
  147.4911  134.0763  152.7885 H   0  0  0  0  0  0  0  0  0  0  0  0
  148.1133  133.1302  151.4767 H   0  0  0  0  0  0  0  0  0  0  0  0
  146.0708  134.1258  150.6865 H   0  0  0  0  0  0  0  0  0  0  0  0
  146.5271  131.9078  149.8822 H   0  0  0  0  0  0  0  0  0  0  0  0
  144.4912  132.8231  149.0403 H   0  0  0  0  0  0  0  0  0  0  0  0
  144.2011  131.1267  149.3261 H   0  0  0  0  0  0  0  0  0  0  0  0
  142.3199  132.5865  150.1456 H   0  0  0  0  0  0  0  0  0  0  0  0
  143.0097  131.6389  151.4359 H   0  0  0  0  0  0  0  0  0  0  0  0
  143.5788  134.5807  150.8333 H   0  0  0  0  0  0  0  0  0  0  0  0
  142.7158  133.9426  152.2189 H   0  0  0  0  0  0  0  0  0  0  0  0
  144.1814  135.2470  156.2468 H   0  0  0  0  0  0  0  0  0  0  0  0
  146.9161  138.3468  151.3068 H   0  0  0  0  0  0  0  0  0  0  0  0
  145.4752  139.6063  154.2530 H   0  0  0  0  0  0  0  0  0  0  0  0
  147.9761  139.9355  152.5307 H   0  0  0  0  0  0  0  0  0  0  0  0
  146.6299  141.1018  152.7644 H   0  0  0  0  0  0  0  0  0  0  0  0
  149.6674  141.8661  153.9530 H   0  0  0  0  0  0  0  0  0  0  0  0
  149.8115  141.1365  155.5325 H   0  0  0  0  0  0  0  0  0  0  0  0
  149.7963  139.7595  153.0789 H   0  0  0  0  0  0  0  0  0  0  0  0
  146.2778  141.7540  155.6626 H   0  0  0  0  0  0  0  0  0  0  0  0
  147.8730  142.2609  156.1680 H   0  0  0  0  0  0  0  0  0  0  0  0
  147.9511  143.6612  154.6076 H   0  0  0  0  0  0  0  0  0  0  0  0
  147.0065  139.3746  156.0908 H   0  0  0  0  0  0  0  0  0  0  0  0
  148.2554  138.6278  155.0395 H   0  0  0  0  0  0  0  0  0  0  0  0
  145.6951  129.8585  150.9353 H   0  0  0  0  0  0  0  0  0  0  0  0
  144.9860  130.7608  152.2580 H   0  0  0  0  0  0  0  0  0  0  0  0
  147.8202  130.6869  151.5695 H   0  0  0  0  0  0  0  0  0  0  0  0
  1  2  1  0  0  0  0
  1 29  1  0  0  0  0
  1 30  1  0  0  0  0
  1 31  1  0  0  0  0
  2 28  1  0  0  0  0
  2  3  1  0  0  0  0
  2 59  1  0  0  0  0
  3  4  1  0  0  0  0
  3 32  1  0  0  0  0
  3 33  1  0  0  0  0
  4  5  1  0  0  0  0
  4 34  1  0  0  0  0
  4 35  1  0  0  0  0
  5 10  1  0  0  0  0
  5  6  1  0  0  0  0
  5 36  1  0  0  0  0
  6  7  1  0  0  0  0
  6 28  1  0  0  0  0
  6 37  1  0  0  0  0
  7  8  1  0  0  0  0
  7 38  1  0  0  0  0
  7 39  1  0  0  0  0
  8  9  1  0  0  0  0
  8 40  1  0  0  0  0
  8 41  1  0  0  0  0
  9 10  1  0  0  0  0
  9 42  1  0  0  0  0
  9 43  1  0  0  0  0
 10 11  1  0  0  0  0
 11 16  1  0  0  0  0
 11 12  2  0  0  0  0
 12 13  1  0  0  0  0
 13 14  2  0  0  0  0
 13 44  1  0  0  0  0
 14 15  1  0  0  0  0
 15 19  1  0  0  0  0
 15 16  2  0  0  0  0
 16 17  1  0  0  0  0
 17 18  2  0  0  0  0
 18 19  1  0  0  0  0
 18 45  1  0  0  0  0
 19 20  1  0  0  0  0
 20 27  1  0  0  0  0
 20 21  1  0  0  0  0
 20 46  1  0  0  0  0
 21 22  1  0  0  0  0
 21 47  1  0  0  0  0
 21 48  1  0  0  0  0
 22 23  1  0  0  0  0
 22 25  1  0  0  0  0
 22 27  1  0  0  0  0
 23 24  1  0  0  0  0
 23 49  1  0  0  0  0
 23 50  1  0  0  0  0
 24 51  1  0  0  0  0
 25 26  1  0  0  0  0
 25 52  1  0  0  0  0
 25 53  1  0  0  0  0
 26 54  1  0  0  0  0
 27 55  1  0  0  0  0
 27 56  1  0  0  0  0
 28 57  1  0  0  0  0
 28 58  1  0  0  0  0
M  CHG  1   2   1
M  END
> <s_m_source_file>
AV-unprocessed.smi

> <i_m_source_file_index>
198

> <i_lp_mmshare_version>
43012

> <i_f3d_flags>
0

> <s_epik_input>
W0NIMl0xW0NIMl1OKFtDSDNdKVtDSDJdW0NAQEhdKFtDQEhdMTIpW0NIMl1bQ0gyXVtDSDJdTjJjKG5bY0hdbjMpYyhjMzQpbltjSF1uNFtDSF0oW0NIMl01KVtDSDJdQzUoW0NIMl1bT0hdKVtDSDJdW09IXQ==

> <s_epik_cmdline>
J2VwaWtfcHl0aG9uJywgJy1waCcsICc3LjAnLCAnLXRuJywgJzgnLCAnLW1hJywgJzIwMCcsICctbWV0YWxfYmluZGluZycsICctaW1hZScsICc8aW5maWxlLm1hZT4nLCAnLW9tYWUnLCAnPG91dGZpbGUubWFlPic=

> <r_lp_tautomer_probability>
1

> <r_epik_Ionization_Penalty>
0.00239938

> <r_epik_Ionization_Penalty_Charging>
0.00138697

> <r_epik_Ionization_Penalty_Neutral>
0.00101241

> <r_epik_State_Penalty>
-0

> <r_epik_Charging_Adjusted_Penalty>
0.00138697

> <i_epik_Tot_Q>
1

> <i_epik_Tot_abs_Q>
1

> <r_epik_Metal_State_Penalty>
-0

> <b_epik_Metal_Only>
0

> <s_lp_Force_Field>
OPLS_2005

> <r_lp_Energy>
60.6867

> <b_lp_Chiralities_Consistent>
1

> <s_lp_Variant>
AV-unprocessed.smi:198-6

> <Gold.Version>
5.8.1

> <Gold.Id.Protein>
6NUR|6NUR_protein|mol2

> <Gold.PLP.Fitness>
50.6454

> <Gold.PLP.PLP>
-40.7693

> <Gold.PLP.part.hbond>
-4.7498

> <Gold.PLP.part.metal>
0.0000

> <Gold.PLP.part.buried>
-1.8118

> <Gold.PLP.part.nonpolar>
-36.2501

> <Gold.PLP.part.repulsive>
1.4911

> <Gold.PLP.ligand.clash>
0.0000

> <Gold.PLP.ligand.torsion>
1.0026

> <Gold.PLP.Chemscore.Hbond>
3.7600

> <Gold.PLP.Chemscore.CHOScore>
0.0000

> <Gold.PLP.Chemscore.Metal>
0.0000

> <Gold.Chemscore.Hbonds>
donor molecule, donor type, donor heavy atom, donor atom, acceptor molecule, acceptor atom, score
      L1  H     2    59       P1 10747  1.00
      L1  H    24    51       P1  7957  1.00
      L1  H    26    54       P1  8028  0.98
      P1  H  7989  7998       L1    24  0.40

> <Gold.PLP.Chemscore.Internal.Correction>
0.6014

> <Gold.Rescore>
     Score         DG    S(hbond)    S(metal)    S(lipo)     H(rot)  DE(clash)    DE(int)     intcor
     15.63     -16.84       2.11        0.00     104.11       3.08       0.14       1.07       ----

> <Gold.Chemscore.Fitness>
15.6263

> <Gold.Chemscore.DG>
-16.8370

> <Gold.Chemscore.ZeroCoef>
-5.4800

> <Gold.Chemscore.Hbond>
2.1125

> <Gold.Chemscore.Metal>
0.0000

> <Gold.Chemscore.Lipo>
104.1130

> <Gold.Chemscore.Internal_Hbond>
0.0000

> <Gold.Chemscore.DEClash>
0.1377

> <Gold.Chemscore.DEInternal>
1.0731

> <Gold.Chemscore.Rot>
3.0781

> <Gold.Chemscore.Internal.Correction>
   9.000000E+99

> <Gold.Chemscore.Hbonds>
donor molecule, donor type, donor heavy atom, donor atom, acceptor molecule, acceptor atom, score
      L1  H     2    59       P1 10747  1.00
      L1  H    24    51       P1  7957  0.99
      L1  H    26    54       P1  8028  0.56

> <Gold.Chemscore.Hbond.Weighted>
-7.0558

> <Gold.Chemscore.Metal.Weighted>
-0.0000

> <Gold.Chemscore.Lipo.Weighted>
-12.1812

> <Gold.Chemscore.Internal_Hbond.Weighted>
0.0000

> <Gold.Chemscore.DEClash.Weighted>
0.1377

> <Gold.Chemscore.DEInternal.Weighted>
1.0731

> <Gold.Chemscore.Rot.Weighted>
7.8800

> <Gold.Chemscore.Internal.Correction.Weighted>
   9.000000E+99

> <Gold.Protein.RotatedTorsions>
[ 6907 6896 6895 6894 ] final -157.11 input  -60.11 | X-H torsion
[ 7974 7965 7964 7962 ] final  -84.54 input  175.53 | X-H torsion
[ 8008 7997 7996 7995 ] final  -36.45 input   59.86 | X-H torsion
[ 10167 10162 10161 10158 ] final  167.61 input  -65.29 | X-H torsion
[ 10718 10713 10712 10709 ] final  135.41 input   66.30 | X-H torsion
[ 10763 10752 10751 10750 ] final  116.54 input  -60.55 | X-H torsion
[ 11005 11000 10999 10996 ] final  177.05 input  -57.11 | X-H torsion

> <Gold.Protein.ActiveResidues>
 VAL166  LYS551  ARG553  GLY616  TRP617  ASP618  TYR619  PRO620  LYS621  CYS622 
 ASP623  PHE694  ASN695  SER759  ASP760  ASP761  ALA762  ILE779  LEU786  VAL792 
 PHE793  MET794  SER795  GLU796  ALA797  LYS798  CYS799  TRP800  GLU811  SER814 

> <Gold.Protein.RotatedAtoms>
  151.2978  133.4136  159.2637 H   0  0  0  0  0  0  0  0  0  0  0  0  # atno 6907 bound_to 6896
  151.0222  134.9478  159.8076 H   0  0  0  0  0  0  0  0  0  0  0  0  # atno 6908 bound_to 6896
  152.5327  134.2941  159.9106 H   0  0  0  0  0  0  0  0  0  0  0  0  # atno 6909 bound_to 6896
  145.5053  140.9544  143.1737 H   0  0  0  0  0  0  0  0  0  0  0  0  # atno 7974 bound_to 7965
  154.4073  140.1630  156.2377 H   0  0  0  0  0  0  0  0  0  0  0  0  # atno 8008 bound_to 7997
  155.9228  140.3420  155.6164 H   0  0  0  0  0  0  0  0  0  0  0  0  # atno 8009 bound_to 7997
  155.7201  140.0767  157.2325 H   0  0  0  0  0  0  0  0  0  0  0  0  # atno 8010 bound_to 7997
  139.4949  144.3903  151.9525 H   0  0  0  0  0  0  0  0  0  0  0  0  # atno 10167 bound_to 10162
  157.4573  131.1071  150.9962 H   0  0  0  0  0  0  0  0  0  0  0  0  # atno 10718 bound_to 10713
  153.5387  135.3563  155.2708 H   0  0  0  0  0  0  0  0  0  0  0  0  # atno 10763 bound_to 10752
  154.8719  135.4086  154.3068 H   0  0  0  0  0  0  0  0  0  0  0  0  # atno 10764 bound_to 10752
  153.3771  135.7066  153.6661 H   0  0  0  0  0  0  0  0  0  0  0  0  # atno 10765 bound_to 10752
  140.3799  134.6956  157.4444 H   0  0  0  0  0  0  0  0  0  0  0  0  # atno 11005 bound_to 11000
  144.7757  139.6635  143.7176 LP  0  0  0  0  0  0  0  0  0  0  0  0  # atno 17320 bound_to 7965
  146.2201  139.5619  142.9624 LP  0  0  0  0  0  0  0  0  0  0  0  0  # atno 17321 bound_to 7965
  140.3340  144.3282  150.5981 LP  0  0  0  0  0  0  0  0  0  0  0  0  # atno 17342 bound_to 10162
  140.5621  143.2191  151.7747 LP  0  0  0  0  0  0  0  0  0  0  0  0  # atno 17343 bound_to 10162
  157.0772  130.5888  149.5413 LP  0  0  0  0  0  0  0  0  0  0  0  0  # atno 17370 bound_to 10713
  156.0013  130.5092  150.7672 LP  0  0  0  0  0  0  0  0  0  0  0  0  # atno 17371 bound_to 10713
  140.0487  134.6162  155.8889 LP  0  0  0  0  0  0  0  0  0  0  0  0  # atno 17394 bound_to 11000
  141.1927  133.6576  156.5514 LP  0  0  0  0  0  0  0  0  0  0  0  0  # atno 17395 bound_to 11000

$$$$
