AV-unprocessed.smi:1709|AV-procd|sdf|6895|dock1
  -GOLD-   22720 8103D 1   1.00000     0.00000
 Structure written by MMmdl.
 43 45  0  0  0  0  0  0  0  0  2 V2000
  147.3558  133.3042  151.9821 C   0  0  0  0  0  0  0  0  0  0  0  0
  145.9932  132.9977  151.3813 C   0  0  0  0  0  0  0  0  0  0  0  0
  145.0645  134.0469  151.2137 C   0  0  0  0  0  0  0  0  0  0  0  0
  143.8039  133.7656  150.6609 C   0  0  0  0  0  0  0  0  0  0  0  0
  143.5230  132.4378  150.2989 C   0  0  0  0  0  0  0  0  0  0  0  0
  144.4045  131.4291  150.4564 N   0  0  0  0  0  0  0  0  0  0  0  0
  145.6306  131.6824  150.9834 C   0  0  0  0  0  0  0  0  0  0  0  0
  146.6186  130.6717  151.1976 N   0  0  0  0  0  0  0  0  0  0  0  0
  146.6067  129.5535  151.9539 C   0  0  0  0  0  0  0  0  0  0  0  0
  145.6203  129.2481  152.6217 O   0  0  0  0  0  0  0  0  0  0  0  0
  147.7243  128.8088  151.9286 N   0  0  0  0  0  0  0  0  0  0  0  0
  147.9304  127.5485  152.6381 C   0  0  2  0  0  0  0  0  0  0  0  0
  148.9308  127.6789  153.8032 C   0  0  0  0  0  0  0  0  0  0  0  0
  149.8037  126.4234  153.7114 C   0  0  0  0  0  0  0  0  0  0  0  0
  149.8483  126.1581  152.2689 N   0  3  1  0  0  0  0  0  0  0  0  0
  150.4013  124.8691  151.8062 C   0  0  0  0  0  0  0  0  0  0  0  0
  150.5064  124.9070  150.2663 C   0  0  0  0  0  0  0  0  0  0  0  0
  149.1704  125.3043  149.5988 C   0  0  0  0  0  0  0  0  0  0  0  0
  148.5818  126.5911  150.2159 C   0  0  0  0  0  0  0  0  0  0  0  0
  148.4975  126.4209  151.7438 C   0  0  2  0  0  0  0  0  0  0  0  0
  147.4688  134.3690  152.1881 H   0  0  0  0  0  0  0  0  0  0  0  0
  148.1516  133.0106  151.2971 H   0  0  0  0  0  0  0  0  0  0  0  0
  147.4887  132.7650  152.9204 H   0  0  0  0  0  0  0  0  0  0  0  0
  145.3123  135.0573  151.5049 H   0  0  0  0  0  0  0  0  0  0  0  0
  143.0718  134.5468  150.5193 H   0  0  0  0  0  0  0  0  0  0  0  0
  142.5662  132.1768  149.8720 H   0  0  0  0  0  0  0  0  0  0  0  0
  147.5004  130.8542  150.7408 H   0  0  0  0  0  0  0  0  0  0  0  0
  148.4864  129.1382  151.3523 H   0  0  0  0  0  0  0  0  0  0  0  0
  146.9769  127.2126  153.0508 H   0  0  0  0  0  0  0  0  0  0  0  0
  149.5579  128.5615  153.6669 H   0  0  0  0  0  0  0  0  0  0  0  0
  148.4384  127.7728  154.7716 H   0  0  0  0  0  0  0  0  0  0  0  0
  150.7996  126.5705  154.1306 H   0  0  0  0  0  0  0  0  0  0  0  0
  149.3295  125.5863  154.2263 H   0  0  0  0  0  0  0  0  0  0  0  0
  151.3863  124.7109  152.2466 H   0  0  0  0  0  0  0  0  0  0  0  0
  149.7632  124.0468  152.1334 H   0  0  0  0  0  0  0  0  0  0  0  0
  151.2736  125.6274  149.9793 H   0  0  0  0  0  0  0  0  0  0  0  0
  150.8395  123.9395  149.8897 H   0  0  0  0  0  0  0  0  0  0  0  0
  149.3125  125.4347  148.5257 H   0  0  0  0  0  0  0  0  0  0  0  0
  148.4550  124.4895  149.7165 H   0  0  0  0  0  0  0  0  0  0  0  0
  149.2078  127.4476  149.9616 H   0  0  0  0  0  0  0  0  0  0  0  0
  147.5941  126.7824  149.7959 H   0  0  0  0  0  0  0  0  0  0  0  0
  147.8900  125.5363  151.9475 H   0  0  0  0  0  0  0  0  0  0  0  0
  150.4410  126.8787  151.8825 H   0  0  0  0  0  0  0  0  0  0  0  0
  1  2  1  0  0  0  0
  1 21  1  0  0  0  0
  1 22  1  0  0  0  0
  1 23  1  0  0  0  0
  2  7  1  0  0  0  0
  2  3  2  0  0  0  0
  3  4  1  0  0  0  0
  3 24  1  0  0  0  0
  4  5  2  0  0  0  0
  4 25  1  0  0  0  0
  5  6  1  0  0  0  0
  5 26  1  0  0  0  0
  6  7  2  0  0  0  0
  7  8  1  0  0  0  0
  8  9  1  0  0  0  0
  8 27  1  0  0  0  0
  9 10  2  0  0  0  0
  9 11  1  0  0  0  0
 11 12  1  0  0  0  0
 11 28  1  0  0  0  0
 12 20  1  0  0  0  0
 12 13  1  0  0  0  0
 12 29  1  0  0  0  0
 13 14  1  0  0  0  0
 13 30  1  0  0  0  0
 13 31  1  0  0  0  0
 14 15  1  0  0  0  0
 14 32  1  0  0  0  0
 14 33  1  0  0  0  0
 15 20  1  0  0  0  0
 15 16  1  0  0  0  0
 15 43  1  0  0  0  0
 16 17  1  0  0  0  0
 16 34  1  0  0  0  0
 16 35  1  0  0  0  0
 17 18  1  0  0  0  0
 17 36  1  0  0  0  0
 17 37  1  0  0  0  0
 18 19  1  0  0  0  0
 18 38  1  0  0  0  0
 18 39  1  0  0  0  0
 19 20  1  0  0  0  0
 19 40  1  0  0  0  0
 19 41  1  0  0  0  0
 20 42  1  0  0  0  0
M  CHG  1  15   1
M  END
> <s_m_source_file>
AV-unprocessed.smi

> <i_m_source_file_index>
1709

> <i_lp_mmshare_version>
43012

> <i_f3d_flags>
0

> <s_epik_input>
W0NIM11jMVtjSF1bY0hdW2NIXW5jMVtOSF1DKD1PKVtOSF1bQ0BIXShbQ0gyXVtDSDJdMilbQ0BASF0oTjIzKVtDSDJdW0NIMl1bQ0gyXVtDSDJdMw==

> <s_epik_cmdline>
J2VwaWtfcHl0aG9uJywgJy1waCcsICc3LjAnLCAnLXRuJywgJzgnLCAnLW1hJywgJzIwMCcsICctbWV0YWxfYmluZGluZycsICctaW1hZScsICc8aW5maWxlLm1hZT4nLCAnLW9tYWUnLCAnPG91dGZpbGUubWFlPic=

> <r_epik_Ionization_Penalty>
0.00101524

> <r_epik_Ionization_Penalty_Charging>
0.000974069

> <r_epik_Ionization_Penalty_Neutral>
4.11757e-05

> <r_epik_State_Penalty>
0.000633842

> <r_epik_Charging_Adjusted_Penalty>
0.00160791

> <i_epik_Tot_Q>
1

> <i_epik_Tot_abs_Q>
1

> <r_epik_Metal_State_Penalty>
-0

> <b_epik_Metal_Only>
0

> <s_lp_Force_Field>
OPLS_2005

> <r_lp_Energy>
46.0593

> <b_lp_Chiralities_Consistent>
1

> <s_lp_Variant>
AV-unprocessed.smi:1709-5

> <Gold.Version>
5.8.1

> <Gold.Id.Protein>
6NUR|6NUR_protein|mol2

> <Gold.PLP.Fitness>
45.8982

> <Gold.PLP.PLP>
-35.8410

> <Gold.PLP.part.hbond>
-3.7415

> <Gold.PLP.part.metal>
0.0000

> <Gold.PLP.part.buried>
-3.5362

> <Gold.PLP.part.nonpolar>
-28.6065

> <Gold.PLP.part.repulsive>
0.4228

> <Gold.PLP.ligand.clash>
0.0000

> <Gold.PLP.ligand.torsion>
0.6754

> <Gold.PLP.Chemscore.Hbond>
2.5325

> <Gold.PLP.Chemscore.CHOScore>
1.2683

> <Gold.PLP.Chemscore.Metal>
0.0000

> <Gold.Chemscore.Hbonds>
donor molecule, donor type, donor heavy atom, donor atom, acceptor molecule, acceptor atom, score
      L1  H     8    27       P1 10747  1.00
      L1  H    11    28       P1 10747  0.51
      L1  H    15    43       P1 10737  1.00
      L1  C     5    26       P1 10186  0.29
      L1  C     5    26       P1 10952  0.98

> <Gold.PLP.Chemscore.Internal.Correction>
0.0058

> <Gold.Rescore>
     Score         DG    S(hbond)    S(metal)    S(lipo)     H(rot)  DE(clash)    DE(int)     intcor
     17.55     -19.60       2.07        0.00      83.52       1.00       1.34       0.71       ----

> <Gold.Chemscore.Fitness>
17.5454

> <Gold.Chemscore.DG>
-19.6029

> <Gold.Chemscore.ZeroCoef>
-5.4800

> <Gold.Chemscore.Hbond>
2.0690

> <Gold.Chemscore.Metal>
0.0000

> <Gold.Chemscore.Lipo>
83.5240

> <Gold.Chemscore.Internal_Hbond>
0.0000

> <Gold.Chemscore.DEClash>
1.3426

> <Gold.Chemscore.DEInternal>
0.7148

> <Gold.Chemscore.Rot>
1.0000

> <Gold.Chemscore.Internal.Correction>
   9.000000E+99

> <Gold.Chemscore.Hbonds>
donor molecule, donor type, donor heavy atom, donor atom, acceptor molecule, acceptor atom, score
      L1  H     8    27       P1 10747  0.94
      L1  H    11    28       P1 10747  0.04
      L1  H    15    43       P1 10737  0.96

> <Gold.Chemscore.Hbond.Weighted>
-6.9105

> <Gold.Chemscore.Metal.Weighted>
-0.0000

> <Gold.Chemscore.Lipo.Weighted>
-9.7723

> <Gold.Chemscore.Internal_Hbond.Weighted>
0.0000

> <Gold.Chemscore.DEClash.Weighted>
1.3426

> <Gold.Chemscore.DEInternal.Weighted>
0.7148

> <Gold.Chemscore.Rot.Weighted>
2.5600

> <Gold.Chemscore.Internal.Correction.Weighted>
   9.000000E+99

> <Gold.Protein.RotatedTorsions>
[ 6907 6896 6895 6894 ] final  -34.10 input  -60.11 | X-H torsion
[ 7974 7965 7964 7962 ] final   97.98 input  175.53 | X-H torsion
[ 8008 7997 7996 7995 ] final  -23.49 input   59.86 | X-H torsion
[ 10167 10162 10161 10158 ] final  166.55 input  -65.29 | X-H torsion
[ 10718 10713 10712 10709 ] final  -31.05 input   66.30 | X-H torsion
[ 10763 10752 10751 10750 ] final  -91.42 input  -60.55 | X-H torsion
[ 11005 11000 10999 10996 ] final  -99.01 input  -57.11 | X-H torsion

> <Gold.Protein.ActiveResidues>
 VAL166  LYS551  ARG553  GLY616  TRP617  ASP618  TYR619  PRO620  LYS621  CYS622 
 ASP623  PHE694  ASN695  SER759  ASP760  ASP761  ALA762  ILE779  LEU786  VAL792 
 PHE793  MET794  SER795  GLU796  ALA797  LYS798  CYS799  TRP800  GLU811  SER814 

> <Gold.Protein.RotatedAtoms>
  151.0570  134.9711  159.8240 H   0  0  0  0  0  0  0  0  0  0  0  0  # atno 6907 bound_to 6896
  152.5390  134.2465  159.8892 H   0  0  0  0  0  0  0  0  0  0  0  0  # atno 6908 bound_to 6896
  151.2483  133.4320  159.2644 H   0  0  0  0  0  0  0  0  0  0  0  0  # atno 6909 bound_to 6896
  145.4183  139.2324  143.3210 H   0  0  0  0  0  0  0  0  0  0  0  0  # atno 7974 bound_to 7965
  154.4582  140.1979  156.0318 H   0  0  0  0  0  0  0  0  0  0  0  0  # atno 8008 bound_to 7997
  156.0789  140.3274  155.7640 H   0  0  0  0  0  0  0  0  0  0  0  0  # atno 8009 bound_to 7997
  155.5144  140.0564  157.2908 H   0  0  0  0  0  0  0  0  0  0  0  0  # atno 8010 bound_to 7997
  139.4927  144.4016  151.9403 H   0  0  0  0  0  0  0  0  0  0  0  0  # atno 10167 bound_to 10162
  156.3921  130.4375  149.7387 H   0  0  0  0  0  0  0  0  0  0  0  0  # atno 10718 bound_to 10713
  154.6759  135.5268  153.8199 H   0  0  0  0  0  0  0  0  0  0  0  0  # atno 10763 bound_to 10752
  153.0532  135.6540  154.0652 H   0  0  0  0  0  0  0  0  0  0  0  0  # atno 10764 bound_to 10752
  154.0545  135.2966  155.3315 H   0  0  0  0  0  0  0  0  0  0  0  0  # atno 10765 bound_to 10752
  141.1324  133.8289  157.0916 H   0  0  0  0  0  0  0  0  0  0  0  0  # atno 11005 bound_to 11000
  146.2670  140.4904  142.8830 LP  0  0  0  0  0  0  0  0  0  0  0  0  # atno 17320 bound_to 7965
  144.8262  140.6633  143.6320 LP  0  0  0  0  0  0  0  0  0  0  0  0  # atno 17321 bound_to 7965
  140.3455  144.3152  150.5959 LP  0  0  0  0  0  0  0  0  0  0  0  0  # atno 17342 bound_to 10162
  140.5530  143.2203  151.7895 LP  0  0  0  0  0  0  0  0  0  0  0  0  # atno 17343 bound_to 10162
  156.4436  130.7873  151.2894 LP  0  0  0  0  0  0  0  0  0  0  0  0  # atno 17370 bound_to 10713
  157.7499  131.0117  150.3356 LP  0  0  0  0  0  0  0  0  0  0  0  0  # atno 17371 bound_to 10713
  140.0389  134.9864  157.0924 LP  0  0  0  0  0  0  0  0  0  0  0  0  # atno 17394 bound_to 11000
  140.4167  134.1924  155.7163 LP  0  0  0  0  0  0  0  0  0  0  0  0  # atno 17395 bound_to 11000

$$$$
