AV-unprocessed.smi:2009|AV-procd|sdf|8147|dock3
  -GOLD-   2272010383D 1   1.00000     0.00000
 Structure written by MMmdl.
 37 38  0  0  0  0  0  0  0  0  2 V2000
  153.1346  139.0338  158.7469 C   0  0  0  0  0  0  0  0  0  0  0  0
  152.6049  140.4098  158.3213 C   0  0  2  0  0  0  0  0  0  0  0  0
  152.2716  141.3047  159.5417 C   0  0  0  0  0  0  0  0  0  0  0  0
  151.9282  142.6826  159.2014 N   0  0  0  0  0  0  0  0  0  0  0  0
  152.1546  143.8287  159.9386 C   0  0  0  0  0  0  0  0  0  0  0  0
  151.6721  144.8834  159.2186 C   0  0  0  0  0  0  0  0  0  0  0  0
  151.1729  144.2800  158.0311 C   0  0  0  0  0  0  0  0  0  0  0  0
  151.3378  142.9673  158.0160 N   0  0  0  0  0  0  0  0  0  0  0  0
  151.4172  140.2218  157.4990 N   0  5  0  0  0  0  0  0  0  0  0  0
  151.5525  139.4597  156.0738 S   0  0  0  0  0  0  0  0  0  0  0  0
  152.5178  140.0820  155.1527 O   0  0  0  0  0  0  0  0  0  0  0  0
  151.5897  137.9952  156.2193 O   0  0  0  0  0  0  0  0  0  0  0  0
  149.9784  139.8587  155.4513 N   0  0  0  0  0  0  0  0  0  0  0  0
  149.5334  139.1222  154.2493 C   0  0  0  0  0  0  0  0  0  0  0  0
  148.0258  139.2937  153.9985 C   0  0  0  0  0  0  0  0  0  0  0  0
  147.6397  140.7723  153.9207 C   0  0  0  0  0  0  0  0  0  0  0  0
  148.0819  141.4705  155.2083 C   0  0  0  0  0  0  0  0  0  0  0  0
  149.5890  141.2885  155.4503 C   0  0  0  0  0  0  0  0  0  0  0  0
  154.0359  139.1330  159.3520 H   0  0  0  0  0  0  0  0  0  0  0  0
  153.3886  138.4240  157.8790 H   0  0  0  0  0  0  0  0  0  0  0  0
  152.3977  138.4868  159.3361 H   0  0  0  0  0  0  0  0  0  0  0  0
  153.4050  140.8982  157.7631 H   0  0  0  0  0  0  0  0  0  0  0  0
  151.4450  140.8762  160.1104 H   0  0  0  0  0  0  0  0  0  0  0  0
  153.1241  141.3294  160.2218 H   0  0  0  0  0  0  0  0  0  0  0  0
  152.6282  143.7937  160.9082 H   0  0  0  0  0  0  0  0  0  0  0  0
  151.6750  145.9261  159.4985 H   0  0  0  0  0  0  0  0  0  0  0  0
  150.7029  144.7543  157.1825 H   0  0  0  0  0  0  0  0  0  0  0  0
  150.1056  139.4726  153.3895 H   0  0  0  0  0  0  0  0  0  0  0  0
  149.7518  138.0608  154.3637 H   0  0  0  0  0  0  0  0  0  0  0  0
  147.7440  138.7859  153.0758 H   0  0  0  0  0  0  0  0  0  0  0  0
  147.4656  138.8105  154.8002 H   0  0  0  0  0  0  0  0  0  0  0  0
  148.1169  141.2390  153.0583 H   0  0  0  0  0  0  0  0  0  0  0  0
  146.5631  140.8762  153.7841 H   0  0  0  0  0  0  0  0  0  0  0  0
  147.8411  142.5326  155.1576 H   0  0  0  0  0  0  0  0  0  0  0  0
  147.5259  141.0671  156.0556 H   0  0  0  0  0  0  0  0  0  0  0  0
  149.8516  141.7530  156.3993 H   0  0  0  0  0  0  0  0  0  0  0  0
  150.1608  141.8083  154.6808 H   0  0  0  0  0  0  0  0  0  0  0  0
  1  2  1  0  0  0  0
  1 19  1  0  0  0  0
  1 20  1  0  0  0  0
  1 21  1  0  0  0  0
  2  3  1  0  0  0  0
  2  9  1  0  0  0  0
  2 22  1  0  0  0  0
  3  4  1  0  0  0  0
  3 23  1  0  0  0  0
  3 24  1  0  0  0  0
  4  8  1  0  0  0  0
  4  5  1  0  0  0  0
  5  6  2  0  0  0  0
  5 25  1  0  0  0  0
  6  7  1  0  0  0  0
  6 26  1  0  0  0  0
  7  8  2  0  0  0  0
  7 27  1  0  0  0  0
  9 10  1  0  0  0  0
 10 11  2  0  0  0  0
 10 12  2  0  0  0  0
 10 13  1  0  0  0  0
 13 18  1  0  0  0  0
 13 14  1  0  0  0  0
 14 15  1  0  0  0  0
 14 28  1  0  0  0  0
 14 29  1  0  0  0  0
 15 16  1  0  0  0  0
 15 30  1  0  0  0  0
 15 31  1  0  0  0  0
 16 17  1  0  0  0  0
 16 32  1  0  0  0  0
 16 33  1  0  0  0  0
 17 18  1  0  0  0  0
 17 34  1  0  0  0  0
 17 35  1  0  0  0  0
 18 36  1  0  0  0  0
 18 37  1  0  0  0  0
M  CHG  1   9  -1
M  END
> <s_m_source_file>
AV-unprocessed.smi

> <i_m_source_file_index>
2009

> <i_lp_mmshare_version>
43012

> <i_f3d_flags>
0

> <s_epik_input>
bjFbY0hdW2NIXVtjSF1uMVtDSDJdW0NAQEhdKFtDSDNdKVtOSF1TKD1PKSg9TylOMltDSDJdW0NIMl1bQ0gyXVtDSDJdW0NIMl0y

> <s_epik_cmdline>
J2VwaWtfcHl0aG9uJywgJy1waCcsICc3LjAnLCAnLXRuJywgJzgnLCAnLW1hJywgJzIwMCcsICctbWV0YWxfYmluZGluZycsICctaW1hZScsICc8aW5maWxlLm1hZT4nLCAnLW9tYWUnLCAnPG91dGZpbGUubWFlPic=

> <r_lp_tautomer_probability>
1

> <r_epik_Ionization_Penalty>
1.75622

> <r_epik_Ionization_Penalty_Charging>
1.7562

> <r_epik_Ionization_Penalty_Neutral>
2.38826e-05

> <r_epik_State_Penalty>
1.86645

> <r_epik_Charging_Adjusted_Penalty>
3.62264

> <i_epik_Tot_Q>
-1

> <i_epik_Tot_abs_Q>
1

> <r_epik_Metal_State_Penalty>
0.460135

> <b_epik_Metal_Only>
0

> <s_lp_Force_Field>
OPLS_2005

> <r_lp_Energy>
5.98775

> <b_lp_Chiralities_Consistent>
1

> <s_lp_Variant>
AV-unprocessed.smi:2009-3

> <Gold.Version>
5.8.1

> <Gold.Id.Protein>
6NUR|6NUR_protein|mol2

> <Gold.PLP.Fitness>
43.9605

> <Gold.PLP.PLP>
-37.7246

> <Gold.PLP.part.hbond>
-1.9881

> <Gold.PLP.part.metal>
0.0000

> <Gold.PLP.part.buried>
-1.3917

> <Gold.PLP.part.nonpolar>
-34.2285

> <Gold.PLP.part.repulsive>
0.1231

> <Gold.PLP.ligand.clash>
0.0000

> <Gold.PLP.ligand.torsion>
1.3693

> <Gold.PLP.Chemscore.Hbond>
1.4626

> <Gold.PLP.Chemscore.CHOScore>
1.0000

> <Gold.PLP.Chemscore.Metal>
0.0000

> <Gold.Chemscore.Hbonds>
donor molecule, donor type, donor heavy atom, donor atom, acceptor molecule, acceptor atom, score
      P1  H  7989  7998       L1    11  0.56
      P1  H  7997  8009       L1    11  0.91
      L1  C     7    27       P1  8028  1.00

> <Gold.PLP.Chemscore.Internal.Correction>
1.5865

> <Gold.Rescore>
     Score         DG    S(hbond)    S(metal)    S(lipo)     H(rot)  DE(clash)    DE(int)     intcor
     13.00     -16.58       1.26        0.00      93.33       1.57       0.22       3.37       ----

> <Gold.Chemscore.Fitness>
12.9960

> <Gold.Chemscore.DG>
-16.5817

> <Gold.Chemscore.ZeroCoef>
-5.4800

> <Gold.Chemscore.Hbond>
1.2556

> <Gold.Chemscore.Metal>
0.0000

> <Gold.Chemscore.Lipo>
93.3316

> <Gold.Chemscore.Internal_Hbond>
0.0000

> <Gold.Chemscore.DEClash>
0.2162

> <Gold.Chemscore.DEInternal>
3.3695

> <Gold.Chemscore.Rot>
1.5672

> <Gold.Chemscore.Internal.Correction>
   9.000000E+99

> <Gold.Chemscore.Hbonds>
donor molecule, donor type, donor heavy atom, donor atom, acceptor molecule, acceptor atom, score
      P1  H  7989  7998       L1    11  0.47
      P1  H  7997  8009       L1    11  0.69

> <Gold.Chemscore.Hbond.Weighted>
-4.1938

> <Gold.Chemscore.Metal.Weighted>
-0.0000

> <Gold.Chemscore.Lipo.Weighted>
-10.9198

> <Gold.Chemscore.Internal_Hbond.Weighted>
0.0000

> <Gold.Chemscore.DEClash.Weighted>
0.2162

> <Gold.Chemscore.DEInternal.Weighted>
3.3695

> <Gold.Chemscore.Rot.Weighted>
4.0119

> <Gold.Chemscore.Internal.Correction.Weighted>
   9.000000E+99

> <Gold.Protein.RotatedTorsions>
[ 6907 6896 6895 6894 ] final -113.22 input  -60.11 | X-H torsion
[ 7974 7965 7964 7962 ] final  -61.19 input  175.53 | X-H torsion
[ 8008 7997 7996 7995 ] final -144.35 input   59.86 | X-H torsion
[ 10167 10162 10161 10158 ] final   50.46 input  -65.29 | X-H torsion
[ 10718 10713 10712 10709 ] final   95.83 input   66.30 | X-H torsion
[ 10763 10752 10751 10750 ] final  -75.05 input  -60.55 | X-H torsion
[ 11005 11000 10999 10996 ] final   46.36 input  -57.11 | X-H torsion

> <Gold.Protein.ActiveResidues>
 VAL166  LYS551  ARG553  GLY616  TRP617  ASP618  TYR619  PRO620  LYS621  CYS622 
 ASP623  PHE694  ASN695  SER759  ASP760  ASP761  ALA762  ILE779  LEU786  VAL792 
 PHE793  MET794  SER795  GLU796  ALA797  LYS798  CYS799  TRP800  GLU811  SER814 

> <Gold.Protein.RotatedAtoms>
  150.7814  133.8976  159.3331 H   0  0  0  0  0  0  0  0  0  0  0  0  # atno 6907 bound_to 6896
  151.6838  135.0955  160.0230 H   0  0  0  0  0  0  0  0  0  0  0  0  # atno 6908 bound_to 6896
  152.3866  133.6581  159.6239 H   0  0  0  0  0  0  0  0  0  0  0  0  # atno 6909 bound_to 6896
  145.8064  140.8625  143.0204 H   0  0  0  0  0  0  0  0  0  0  0  0  # atno 7974 bound_to 7965
  155.5254  140.0595  157.2899 H   0  0  0  0  0  0  0  0  0  0  0  0  # atno 8008 bound_to 7997
  154.4503  140.1945  156.0486 H   0  0  0  0  0  0  0  0  0  0  0  0  # atno 8009 bound_to 7997
  156.0689  140.3262  155.7556 H   0  0  0  0  0  0  0  0  0  0  0  0  # atno 8010 bound_to 7997
  140.2722  144.3252  150.6287 H   0  0  0  0  0  0  0  0  0  0  0  0  # atno 10167 bound_to 10162
  157.6934  131.0558  150.4399 H   0  0  0  0  0  0  0  0  0  0  0  0  # atno 10718 bound_to 10713
  154.4814  135.5844  153.6392 H   0  0  0  0  0  0  0  0  0  0  0  0  # atno 10763 bound_to 10752
  152.9848  135.6090  154.3241 H   0  0  0  0  0  0  0  0  0  0  0  0  # atno 10764 bound_to 10752
  154.3133  135.2844  155.2535 H   0  0  0  0  0  0  0  0  0  0  0  0  # atno 10765 bound_to 10752
  140.1376  134.4625  155.8474 H   0  0  0  0  0  0  0  0  0  0  0  0  # atno 11005 bound_to 11000
  144.6762  140.0333  143.7482 LP  0  0  0  0  0  0  0  0  0  0  0  0  # atno 17320 bound_to 7965
  145.9823  139.2951  143.1034 LP  0  0  0  0  0  0  0  0  0  0  0  0  # atno 17321 bound_to 7965
  140.5880  143.2169  151.7305 LP  0  0  0  0  0  0  0  0  0  0  0  0  # atno 17342 bound_to 10162
  139.4986  144.3981  152.0210 LP  0  0  0  0  0  0  0  0  0  0  0  0  # atno 17343 bound_to 10162
  156.4759  130.4063  149.6490 LP  0  0  0  0  0  0  0  0  0  0  0  0  # atno 17370 bound_to 10713
  156.3554  130.7454  151.2419 LP  0  0  0  0  0  0  0  0  0  0  0  0  # atno 17371 bound_to 10713
  141.2181  133.6820  156.7186 LP  0  0  0  0  0  0  0  0  0  0  0  0  # atno 17394 bound_to 11000
  140.2763  134.8352  157.3893 LP  0  0  0  0  0  0  0  0  0  0  0  0  # atno 17395 bound_to 11000

$$$$
