AV-unprocessed.smi:1567|AV-procd|sdf|6306|dock8
  -GOLD-   22720 6503D 1   1.00000     0.00000
 Structure written by MMmdl.
 42 44  0  0  0  0  0  0  0  0  1 V2000
  151.8993  137.1274  153.8259 O   0  0  0  0  0  0  0  0  0  0  0  0
  151.0133  137.2063  154.9220 C   0  0  0  0  0  0  0  0  0  0  0  0
  151.6562  137.9791  156.0822 C   0  0  0  0  0  0  0  0  0  0  0  0
  151.8826  139.4686  155.7730 C   0  0  0  0  0  0  0  0  0  0  0  0
  152.1010  140.2905  157.0124 C   0  0  0  0  0  0  0  0  0  0  0  0
  153.0478  139.9521  157.8895 N   0  0  0  0  0  0  0  0  0  0  0  0
  152.9349  140.9258  158.8598 C   0  0  0  0  0  0  0  0  0  0  0  0
  153.6706  141.1259  160.0496 C   0  0  0  0  0  0  0  0  0  0  0  0
  153.3672  142.2072  160.9025 C   0  0  0  0  0  0  0  0  0  0  0  0
  152.3249  143.0997  160.5791 C   0  0  0  0  0  0  0  0  0  0  0  0
  151.5793  142.9166  159.3987 C   0  0  0  0  0  0  0  0  0  0  0  0
  151.8883  141.8371  158.5489 C   0  0  0  0  0  0  0  0  0  0  0  0
  151.3605  141.3846  157.3424 N   0  0  0  0  0  0  0  0  0  0  0  0
  150.2349  141.9990  156.6458 C   0  0  0  0  0  0  0  0  0  0  0  0
  148.8921  141.3061  156.9513 C   0  0  2  0  0  0  0  0  0  0  0  0
  149.0751  139.9141  156.7902 O   0  0  0  0  0  0  0  0  0  0  0  0
  147.7430  141.8320  156.1001 C   0  0  0  0  0  0  0  0  0  0  0  0
  146.6100  142.4091  156.7158 C   0  0  0  0  0  0  0  0  0  0  0  0
  145.5503  142.9079  155.9340 C   0  0  0  0  0  0  0  0  0  0  0  0
  144.4670  143.4557  156.5333 F   0  0  0  0  0  0  0  0  0  0  0  0
  145.6159  142.8337  154.5300 C   0  0  0  0  0  0  0  0  0  0  0  0
  146.7390  142.2541  153.9095 C   0  0  0  0  0  0  0  0  0  0  0  0
  147.7986  141.7511  154.6897 C   0  0  0  0  0  0  0  0  0  0  0  0
  148.8669  141.1894  154.0746 F   0  0  0  0  0  0  0  0  0  0  0  0
  151.3922  137.0425  153.0329 H   0  0  0  0  0  0  0  0  0  0  0  0
  150.1048  137.7126  154.5949 H   0  0  0  0  0  0  0  0  0  0  0  0
  150.7268  136.2016  155.2335 H   0  0  0  0  0  0  0  0  0  0  0  0
  151.0506  137.8677  156.9826 H   0  0  0  0  0  0  0  0  0  0  0  0
  152.6164  137.5195  156.3101 H   0  0  0  0  0  0  0  0  0  0  0  0
  152.7210  139.5594  155.0878 H   0  0  0  0  0  0  0  0  0  0  0  0
  151.0186  139.8739  155.2454 H   0  0  0  0  0  0  0  0  0  0  0  0
  154.4696  140.4462  160.3067 H   0  0  0  0  0  0  0  0  0  0  0  0
  153.9360  142.3514  161.8093 H   0  0  0  0  0  0  0  0  0  0  0  0
  152.0979  143.9248  161.2381 H   0  0  0  0  0  0  0  0  0  0  0  0
  150.7801  143.5986  159.1492 H   0  0  0  0  0  0  0  0  0  0  0  0
  150.1857  143.0670  156.8453 H   0  0  0  0  0  0  0  0  0  0  0  0
  150.4418  141.9213  155.5774 H   0  0  0  0  0  0  0  0  0  0  0  0
  148.6517  141.4529  158.0044 H   0  0  0  0  0  0  0  0  0  0  0  0
  149.3784  139.7520  155.9099 H   0  0  0  0  0  0  0  0  0  0  0  0
  146.5497  142.4704  157.7925 H   0  0  0  0  0  0  0  0  0  0  0  0
  144.8034  143.2157  153.9295 H   0  0  0  0  0  0  0  0  0  0  0  0
  146.7862  142.1913  152.8325 H   0  0  0  0  0  0  0  0  0  0  0  0
  1  2  1  0  0  0  0
  1 25  1  0  0  0  0
  2  3  1  0  0  0  0
  2 26  1  0  0  0  0
  2 27  1  0  0  0  0
  3  4  1  0  0  0  0
  3 28  1  0  0  0  0
  3 29  1  0  0  0  0
  4  5  1  0  0  0  0
  4 30  1  0  0  0  0
  4 31  1  0  0  0  0
  5 13  1  0  0  0  0
  5  6  2  0  0  0  0
  6  7  1  0  0  0  0
  7 12  2  0  0  0  0
  7  8  1  0  0  0  0
  8  9  2  0  0  0  0
  8 32  1  0  0  0  0
  9 10  1  0  0  0  0
  9 33  1  0  0  0  0
 10 11  2  0  0  0  0
 10 34  1  0  0  0  0
 11 12  1  0  0  0  0
 11 35  1  0  0  0  0
 12 13  1  0  0  0  0
 13 14  1  0  0  0  0
 14 15  1  0  0  0  0
 14 36  1  0  0  0  0
 14 37  1  0  0  0  0
 15 16  1  0  0  0  0
 15 17  1  0  0  0  0
 15 38  1  0  0  0  0
 16 39  1  0  0  0  0
 17 23  1  0  0  0  0
 17 18  2  0  0  0  0
 18 19  1  0  0  0  0
 18 40  1  0  0  0  0
 19 20  1  0  0  0  0
 19 21  2  0  0  0  0
 21 22  1  0  0  0  0
 21 41  1  0  0  0  0
 22 23  2  0  0  0  0
 22 42  1  0  0  0  0
 23 24  1  0  0  0  0
M  END
> <s_m_source_file>
AV-unprocessed.smi

> <i_m_source_file_index>
1567

> <i_lp_mmshare_version>
43012

> <i_f3d_flags>
0

> <s_epik_input>
W09IXVtDSDJdW0NIMl1bQ0gyXWMobjEpbihjKGMxMilbY0hdW2NIXVtjSF1bY0hdMilbQ0gyXVtDQEhdKFtPSF0pYzNbY0hdYyhGKVtjSF1bY0hdYzNG

> <s_epik_cmdline>
J2VwaWtfcHl0aG9uJywgJy1waCcsICc3LjAnLCAnLXRuJywgJzgnLCAnLW1hJywgJzIwMCcsICctbWV0YWxfYmluZGluZycsICctaW1hZScsICc8aW5maWxlLm1hZT4nLCAnLW9tYWUnLCAnPG91dGZpbGUubWFlPic=

> <r_epik_Ionization_Penalty>
0.182562

> <r_epik_Ionization_Penalty_Charging>
0

> <r_epik_Ionization_Penalty_Neutral>
0.182562

> <r_epik_State_Penalty>
0.172086

> <r_epik_Charging_Adjusted_Penalty>
0.172086

> <i_epik_Tot_Q>
0

> <i_epik_Tot_abs_Q>
0

> <r_epik_Metal_State_Penalty>
0.000199649

> <b_epik_Metal_Only>
0

> <s_lp_Force_Field>
OPLS_2005

> <r_lp_Energy>
11.8794

> <b_lp_Chiralities_Consistent>
1

> <s_lp_Variant>
AV-unprocessed.smi:1567-1

> <Gold.Version>
5.8.1

> <Gold.Id.Protein>
6NUR|6NUR_protein|mol2

> <Gold.PLP.Fitness>
57.0185

> <Gold.PLP.PLP>
-48.9836

> <Gold.PLP.part.hbond>
-3.0000

> <Gold.PLP.part.metal>
0.0000

> <Gold.PLP.part.buried>
-2.6117

> <Gold.PLP.part.nonpolar>
-41.4811

> <Gold.PLP.part.repulsive>
0.0000

> <Gold.PLP.ligand.clash>
0.0000

> <Gold.PLP.ligand.torsion>
0.4981

> <Gold.PLP.Chemscore.Hbond>
2.9920

> <Gold.PLP.Chemscore.CHOScore>
0.0000

> <Gold.PLP.Chemscore.Metal>
0.0000

> <Gold.Chemscore.Hbonds>
donor molecule, donor type, donor heavy atom, donor atom, acceptor molecule, acceptor atom, score
      L1  H     1    25       P1  7949  0.86
      P1  H  7997  8008       L1     6  1.00
      P1  H 10752 10763       L1     1  1.00

> <Gold.PLP.Chemscore.Internal.Correction>
0.0552

> <Gold.Rescore>
     Score         DG    S(hbond)    S(metal)    S(lipo)     H(rot)  DE(clash)    DE(int)     intcor
     14.09     -15.92       1.64        0.00     113.19       3.23       0.12       1.71       ----

> <Gold.Chemscore.Fitness>
14.0921

> <Gold.Chemscore.DG>
-15.9215

> <Gold.Chemscore.ZeroCoef>
-5.4800

> <Gold.Chemscore.Hbond>
1.6353

> <Gold.Chemscore.Metal>
0.0000

> <Gold.Chemscore.Lipo>
113.1916

> <Gold.Chemscore.Internal_Hbond>
0.0000

> <Gold.Chemscore.DEClash>
0.1197

> <Gold.Chemscore.DEInternal>
1.7097

> <Gold.Chemscore.Rot>
3.2281

> <Gold.Chemscore.Internal.Correction>
   9.000000E+99

> <Gold.Chemscore.Hbonds>
donor molecule, donor type, donor heavy atom, donor atom, acceptor molecule, acceptor atom, score
      L1  H     1    25       P1  7949  0.70
      P1  H  7997  8008       L1     6  0.44
      P1  H 10752 10763       L1     1  0.30

> <Gold.Chemscore.Hbond.Weighted>
-5.4619

> <Gold.Chemscore.Metal.Weighted>
-0.0000

> <Gold.Chemscore.Lipo.Weighted>
-13.2434

> <Gold.Chemscore.Internal_Hbond.Weighted>
0.0000

> <Gold.Chemscore.DEClash.Weighted>
0.1197

> <Gold.Chemscore.DEInternal.Weighted>
1.7097

> <Gold.Chemscore.Rot.Weighted>
8.2639

> <Gold.Chemscore.Internal.Correction.Weighted>
   9.000000E+99

> <Gold.Protein.RotatedTorsions>
[ 6907 6896 6895 6894 ] final  102.13 input  -60.11 | X-H torsion
[ 7974 7965 7964 7962 ] final  150.29 input  175.53 | X-H torsion
[ 8008 7997 7996 7995 ] final  -85.55 input   59.86 | X-H torsion
[ 10167 10162 10161 10158 ] final   93.32 input  -65.29 | X-H torsion
[ 10718 10713 10712 10709 ] final   46.24 input   66.30 | X-H torsion
[ 10763 10752 10751 10750 ] final   42.40 input  -60.55 | X-H torsion
[ 11005 11000 10999 10996 ] final  -17.45 input  -57.11 | X-H torsion

> <Gold.Protein.ActiveResidues>
 VAL166  LYS551  ARG553  GLY616  TRP617  ASP618  TYR619  PRO620  LYS621  CYS622 
 ASP623  PHE694  ASN695  SER759  ASP760  ASP761  ALA762  ILE779  LEU786  VAL792 
 PHE793  MET794  SER795  GLU796  ALA797  LYS798  CYS799  TRP800  GLU811  SER814 

> <Gold.Protein.RotatedAtoms>
  152.5332  134.0021  159.7899 H   0  0  0  0  0  0  0  0  0  0  0  0  # atno 6907 bound_to 6896
  151.0238  133.5844  159.2675 H   0  0  0  0  0  0  0  0  0  0  0  0  # atno 6908 bound_to 6896
  151.2874  135.0739  159.9245 H   0  0  0  0  0  0  0  0  0  0  0  0  # atno 6909 bound_to 6896
  144.8375  139.6389  143.6031 H   0  0  0  0  0  0  0  0  0  0  0  0  # atno 7974 bound_to 7965
  154.6420  140.0590  156.9856 H   0  0  0  0  0  0  0  0  0  0  0  0  # atno 8008 bound_to 7997
  155.1503  140.3273  155.4414 H   0  0  0  0  0  0  0  0  0  0  0  0  # atno 8009 bound_to 7997
  156.2535  140.1948  156.6615 H   0  0  0  0  0  0  0  0  0  0  0  0  # atno 8010 bound_to 7997
  139.8191  144.6739  150.9542 H   0  0  0  0  0  0  0  0  0  0  0  0  # atno 10167 bound_to 10162
  157.4460  130.8110  149.7741 H   0  0  0  0  0  0  0  0  0  0  0  0  # atno 10718 bound_to 10713
  152.9884  135.6133  154.2944 H   0  0  0  0  0  0  0  0  0  0  0  0  # atno 10763 bound_to 10752
  154.2668  135.2780  155.2757 H   0  0  0  0  0  0  0  0  0  0  0  0  # atno 10764 bound_to 10752
  154.5158  135.5828  153.6698 H   0  0  0  0  0  0  0  0  0  0  0  0  # atno 10765 bound_to 10752
  140.8170  133.8097  155.9620 H   0  0  0  0  0  0  0  0  0  0  0  0  # atno 11005 bound_to 11000
  146.2672  139.6548  142.9321 LP  0  0  0  0  0  0  0  0  0  0  0  0  # atno 17320 bound_to 7965
  145.4763  141.0437  143.2670 LP  0  0  0  0  0  0  0  0  0  0  0  0  # atno 17321 bound_to 7965
  140.7814  143.4109  151.0994 LP  0  0  0  0  0  0  0  0  0  0  0  0  # atno 17342 bound_to 10162
  139.7771  143.8409  152.3131 LP  0  0  0  0  0  0  0  0  0  0  0  0  # atno 17343 bound_to 10162
  155.9968  130.3904  150.2766 LP  0  0  0  0  0  0  0  0  0  0  0  0  # atno 17370 bound_to 10713
  157.0935  131.0176  151.3113 LP  0  0  0  0  0  0  0  0  0  0  0  0  # atno 17371 bound_to 10713
  140.9139  134.2226  157.4969 LP  0  0  0  0  0  0  0  0  0  0  0  0  # atno 17394 bound_to 11000
  139.8710  134.9762  156.4913 LP  0  0  0  0  0  0  0  0  0  0  0  0  # atno 17395 bound_to 11000

$$$$
