AV-unprocessed.smi:1306|AV-procd|sdf|5435|dock3
  -GOLD-   22720 5 03D 1   1.00000     0.00000
 Structure written by MMmdl.
 38 39  0  0  0  0  0  0  0  0  2 V2000
  146.4096  139.2843  155.0980 O   0  0  0  0  0  0  0  0  0  0  0  0
  147.3092  139.0078  154.3030 C   0  0  0  0  0  0  0  0  0  0  0  0
  148.3568  140.0571  153.9068 C   0  0  0  0  0  0  0  0  0  0  0  0
  149.7023  139.7430  154.4135 N   0  0  0  0  0  0  0  0  0  0  0  0
  150.3486  138.6072  153.8949 C   0  0  0  0  0  0  0  0  0  0  0  0
  151.5826  138.2468  154.2958 C   0  0  0  0  0  0  0  0  0  0  0  0
  152.2510  139.0693  155.2965 C   0  0  0  0  0  0  0  0  0  0  0  0
  153.3766  138.7535  155.6768 O   0  0  0  0  0  0  0  0  0  0  0  0
  151.5837  140.1633  155.7674 N   0  5  0  0  0  0  0  0  0  0  0  0
  150.3295  140.5191  155.3487 C   0  0  0  0  0  0  0  0  0  0  0  0
  149.7461  141.5119  155.7856 O   0  0  0  0  0  0  0  0  0  0  0  0
  147.4241  137.8091  153.7151 N   0  0  0  0  0  0  0  0  0  0  0  0
  146.5394  136.6791  153.9656 C   0  0  0  0  0  0  0  0  0  0  0  0
  145.9504  136.1412  152.6548 C   0  0  0  0  0  0  0  0  0  0  0  0
  144.6193  134.9406  152.9481 S   0  0  0  0  0  0  0  0  0  0  0  0
  144.5614  134.1127  151.3333 C   0  0  0  0  0  0  0  0  0  0  0  0
  143.5833  132.9391  151.3146 C   0  0  0  0  0  0  0  0  0  0  0  0
  144.0267  132.0952  150.1178 C   0  0  0  0  0  0  0  0  0  0  0  0
  145.5362  132.3368  149.9673 C   0  0  0  0  0  0  0  0  0  0  0  0
  145.8953  133.4748  150.9333 C   0  0  0  0  0  0  0  0  0  0  0  0
  148.3828  140.1646  152.8206 H   0  0  0  0  0  0  0  0  0  0  0  0
  148.0245  141.0257  154.2824 H   0  0  0  0  0  0  0  0  0  0  0  0
  149.7876  138.0565  153.1542 H   0  0  0  0  0  0  0  0  0  0  0  0
  152.0666  137.3729  153.8853 H   0  0  0  0  0  0  0  0  0  0  0  0
  148.1913  137.6611  153.0757 H   0  0  0  0  0  0  0  0  0  0  0  0
  147.0840  135.8895  154.4858 H   0  0  0  0  0  0  0  0  0  0  0  0
  145.7323  136.9998  154.6258 H   0  0  0  0  0  0  0  0  0  0  0  0
  145.5452  136.9664  152.0690 H   0  0  0  0  0  0  0  0  0  0  0  0
  146.7330  135.6781  152.0536 H   0  0  0  0  0  0  0  0  0  0  0  0
  144.2599  134.8355  150.5736 H   0  0  0  0  0  0  0  0  0  0  0  0
  143.6852  132.3537  152.2296 H   0  0  0  0  0  0  0  0  0  0  0  0
  142.5439  133.2599  151.2389 H   0  0  0  0  0  0  0  0  0  0  0  0
  143.7873  131.0399  150.2515 H   0  0  0  0  0  0  0  0  0  0  0  0
  143.5120  132.4358  149.2186 H   0  0  0  0  0  0  0  0  0  0  0  0
  146.1078  131.4387  150.2036 H   0  0  0  0  0  0  0  0  0  0  0  0
  145.7723  132.6112  148.9386 H   0  0  0  0  0  0  0  0  0  0  0  0
  146.5821  134.1938  150.4860 H   0  0  0  0  0  0  0  0  0  0  0  0
  146.3862  133.0564  151.8132 H   0  0  0  0  0  0  0  0  0  0  0  0
  1  2  2  0  0  0  0
  2  3  1  0  0  0  0
  2 12  1  0  0  0  0
  3  4  1  0  0  0  0
  3 21  1  0  0  0  0
  3 22  1  0  0  0  0
  4 10  1  0  0  0  0
  4  5  1  0  0  0  0
  5  6  2  0  0  0  0
  5 23  1  0  0  0  0
  6  7  1  0  0  0  0
  6 24  1  0  0  0  0
  7  8  2  0  0  0  0
  7  9  1  0  0  0  0
  9 10  1  0  0  0  0
 10 11  2  0  0  0  0
 12 13  1  0  0  0  0
 12 25  1  0  0  0  0
 13 14  1  0  0  0  0
 13 26  1  0  0  0  0
 13 27  1  0  0  0  0
 14 15  1  0  0  0  0
 14 28  1  0  0  0  0
 14 29  1  0  0  0  0
 15 16  1  0  0  0  0
 16 20  1  0  0  0  0
 16 17  1  0  0  0  0
 16 30  1  0  0  0  0
 17 18  1  0  0  0  0
 17 31  1  0  0  0  0
 17 32  1  0  0  0  0
 18 19  1  0  0  0  0
 18 33  1  0  0  0  0
 18 34  1  0  0  0  0
 19 20  1  0  0  0  0
 19 35  1  0  0  0  0
 19 36  1  0  0  0  0
 20 37  1  0  0  0  0
 20 38  1  0  0  0  0
M  CHG  1   9  -1
M  END
> <s_m_source_file>
AV-unprocessed.smi

> <i_m_source_file_index>
1306

> <i_lp_mmshare_version>
43012

> <i_f3d_flags>
0

> <s_epik_input>
Tz1jMVtuSF1jKD1PKVtjSF1bY0hdbjFbQ0gyXUMoPU8pW05IXVtDSDJdW0NIMl1TW0NIXTJbQ0gyXVtDSDJdW0NIMl1bQ0gyXTI=

> <s_epik_cmdline>
J2VwaWtfcHl0aG9uJywgJy1waCcsICc3LjAnLCAnLXRuJywgJzgnLCAnLW1hJywgJzIwMCcsICctbWV0YWxfYmluZGluZycsICctaW1hZScsICc8aW5maWxlLm1hZT4nLCAnLW9tYWUnLCAnPG91dGZpbGUubWFlPic=

> <r_lp_tautomer_probability>
0.999537

> <r_epik_Ionization_Penalty>
3.06336

> <r_epik_Ionization_Penalty_Charging>
2.63481e-08

> <r_epik_Ionization_Penalty_Neutral>
3.06336

> <r_epik_State_Penalty>
3.06238

> <r_epik_Charging_Adjusted_Penalty>
3.06238

> <i_epik_Tot_Q>
-1

> <i_epik_Tot_abs_Q>
1

> <r_epik_Metal_State_Penalty>
0.458539

> <b_epik_Metal_Only>
1

> <s_lp_Force_Field>
OPLS_2005

> <r_lp_Energy>
29.7989

> <b_lp_Chiralities_Consistent>
1

> <s_lp_Variant>
AV-unprocessed.smi:1306-2

> <Gold.Version>
5.8.1

> <Gold.Id.Protein>
6NUR|6NUR_protein|mol2

> <Gold.PLP.Fitness>
44.2653

> <Gold.PLP.PLP>
-35.8496

> <Gold.PLP.part.hbond>
-2.2697

> <Gold.PLP.part.metal>
0.0000

> <Gold.PLP.part.buried>
-2.4001

> <Gold.PLP.part.nonpolar>
-30.1214

> <Gold.PLP.part.repulsive>
0.1606

> <Gold.PLP.ligand.clash>
0.0000

> <Gold.PLP.ligand.torsion>
0.2473

> <Gold.PLP.Chemscore.Hbond>
1.8400

> <Gold.PLP.Chemscore.CHOScore>
1.1015

> <Gold.PLP.Chemscore.Metal>
0.0000

> <Gold.Chemscore.Hbonds>
donor molecule, donor type, donor heavy atom, donor atom, acceptor molecule, acceptor atom, score
      L1  H    12    25       P1  7948  0.83
      P1  H  7997  8009       L1     8  0.96
      L1  C     5    23       P1  7948  1.00
      L1  C     5    23       P1  7957  0.13

> <Gold.PLP.Chemscore.Internal.Correction>
0.0858

> <Gold.Rescore>
     Score         DG    S(hbond)    S(metal)    S(lipo)     H(rot)  DE(clash)    DE(int)     intcor
     13.57     -14.15       1.88        0.00      72.53       2.38       0.21       0.37       ----

> <Gold.Chemscore.Fitness>
13.5672

> <Gold.Chemscore.DG>
-14.1516

> <Gold.Chemscore.ZeroCoef>
-5.4800

> <Gold.Chemscore.Hbond>
1.8771

> <Gold.Chemscore.Metal>
0.0000

> <Gold.Chemscore.Lipo>
72.5345

> <Gold.Chemscore.Internal_Hbond>
0.0000

> <Gold.Chemscore.DEClash>
0.2099

> <Gold.Chemscore.DEInternal>
0.3745

> <Gold.Chemscore.Rot>
2.3767

> <Gold.Chemscore.Internal.Correction>
   9.000000E+99

> <Gold.Chemscore.Hbonds>
donor molecule, donor type, donor heavy atom, donor atom, acceptor molecule, acceptor atom, score
      L1  H    12    25       P1  7948  0.78
      P1  H  7997  8009       L1     8  0.81

> <Gold.Chemscore.Hbond.Weighted>
-6.2694

> <Gold.Chemscore.Metal.Weighted>
-0.0000

> <Gold.Chemscore.Lipo.Weighted>
-8.4865

> <Gold.Chemscore.Internal_Hbond.Weighted>
0.0000

> <Gold.Chemscore.DEClash.Weighted>
0.2099

> <Gold.Chemscore.DEInternal.Weighted>
0.3745

> <Gold.Chemscore.Rot.Weighted>
6.0844

> <Gold.Chemscore.Internal.Correction.Weighted>
   9.000000E+99

> <Gold.Protein.RotatedTorsions>
[ 6907 6896 6895 6894 ] final  -33.78 input  -60.11 | X-H torsion
[ 7974 7965 7964 7962 ] final  -96.69 input  175.53 | X-H torsion
[ 8008 7997 7996 7995 ] final -153.31 input   59.86 | X-H torsion
[ 10167 10162 10161 10158 ] final -163.23 input  -65.29 | X-H torsion
[ 10718 10713 10712 10709 ] final   21.69 input   66.30 | X-H torsion
[ 10763 10752 10751 10750 ] final -146.64 input  -60.55 | X-H torsion
[ 11005 11000 10999 10996 ] final  159.89 input  -57.11 | X-H torsion

> <Gold.Protein.ActiveResidues>
 VAL166  LYS551  ARG553  GLY616  TRP617  ASP618  TYR619  PRO620  LYS621  CYS622 
 ASP623  PHE694  ASN695  SER759  ASP760  ASP761  ALA762  ILE779  LEU786  VAL792 
 PHE793  MET794  SER795  GLU796  ALA797  LYS798  CYS799  TRP800  GLU811  SER814 

> <Gold.Protein.RotatedAtoms>
  151.0612  134.9738  159.8260 H   0  0  0  0  0  0  0  0  0  0  0  0  # atno 6907 bound_to 6896
  152.5395  134.2415  159.8874 H   0  0  0  0  0  0  0  0  0  0  0  0  # atno 6908 bound_to 6896
  151.2435  133.4344  159.2642 H   0  0  0  0  0  0  0  0  0  0  0  0  # atno 6909 bound_to 6896
  145.3435  140.9464  143.2594 H   0  0  0  0  0  0  0  0  0  0  0  0  # atno 7974 bound_to 7965
  155.6688  140.0731  157.2527 H   0  0  0  0  0  0  0  0  0  0  0  0  # atno 8008 bound_to 7997
  154.4127  140.1703  156.1907 H   0  0  0  0  0  0  0  0  0  0  0  0  # atno 8009 bound_to 7997
  155.9635  140.3368  155.6514 H   0  0  0  0  0  0  0  0  0  0  0  0  # atno 8010 bound_to 7997
  139.6336  144.0393  152.2036 H   0  0  0  0  0  0  0  0  0  0  0  0  # atno 10167 bound_to 10162
  157.1420  130.6637  149.5984 H   0  0  0  0  0  0  0  0  0  0  0  0  # atno 10718 bound_to 10713
  154.8326  135.3381  154.6693 H   0  0  0  0  0  0  0  0  0  0  0  0  # atno 10763 bound_to 10752
  153.7311  135.6952  153.4993 H   0  0  0  0  0  0  0  0  0  0  0  0  # atno 10764 bound_to 10752
  153.2311  135.4416  155.0548 H   0  0  0  0  0  0  0  0  0  0  0  0  # atno 10765 bound_to 10752
  140.2006  134.8341  157.3013 H   0  0  0  0  0  0  0  0  0  0  0  0  # atno 11005 bound_to 11000
  144.8772  139.4955  143.6740 LP  0  0  0  0  0  0  0  0  0  0  0  0  # atno 17320 bound_to 7965
  146.2997  139.7389  142.9100 LP  0  0  0  0  0  0  0  0  0  0  0  0  # atno 17321 bound_to 7965
  140.0065  144.6255  150.7684 LP  0  0  0  0  0  0  0  0  0  0  0  0  # atno 17342 bound_to 10162
  140.7453  143.2873  151.3428 LP  0  0  0  0  0  0  0  0  0  0  0  0  # atno 17343 bound_to 10162
  155.9787  130.4774  150.6669 LP  0  0  0  0  0  0  0  0  0  0  0  0  # atno 17370 bound_to 10713
  157.4298  131.0848  151.1049 LP  0  0  0  0  0  0  0  0  0  0  0  0  # atno 17371 bound_to 10713
  140.2059  134.4198  155.7638 LP  0  0  0  0  0  0  0  0  0  0  0  0  # atno 17394 bound_to 11000
  141.2227  133.7094  156.8259 LP  0  0  0  0  0  0  0  0  0  0  0  0  # atno 17395 bound_to 11000

$$$$
