AV-unprocessed.smi:2559|AV-procd|sdf|10036|dock2
  -GOLD-   2272014 83D 1   1.00000     0.00000
 Structure written by MMmdl.
 43 45  0  0  0  0  0  0  0  0  2 V2000
  154.7825  138.2998  161.8584 C   0  0  0  0  0  0  0  0  0  0  0  0
  153.7556  138.0951  160.8323 N   0  0  0  0  0  0  0  0  0  0  0  0
  153.3452  136.8351  160.4866 C   0  0  0  0  0  0  0  0  0  0  0  0
  153.8588  135.8741  161.0607 O   0  0  0  0  0  0  0  0  0  0  0  0
  152.3782  136.6720  159.5191 N   0  5  0  0  0  0  0  0  0  0  0  0
  151.7443  137.6760  158.8346 C   0  0  0  0  0  0  0  0  0  0  0  0
  150.8704  137.5378  157.9821 O   0  0  0  0  0  0  0  0  0  0  0  0
  152.2226  139.0193  159.2386 C   0  0  0  0  0  0  0  0  0  0  0  0
  153.1709  139.2223  160.1934 C   0  0  0  0  0  0  0  0  0  0  0  0
  153.3958  140.5738  160.3996 N   0  0  0  0  0  0  0  0  0  0  0  0
  152.5733  141.1529  159.5239 C   0  0  0  0  0  0  0  0  0  0  0  0
  152.4571  142.5391  159.3959 N   0  0  0  0  0  0  0  0  0  0  0  0
  152.2235  143.2741  158.1522 C   0  0  0  0  0  0  0  0  0  0  0  0
  151.0781  144.2916  158.2998 C   0  0  0  0  0  0  0  0  0  0  0  0
  151.3841  145.2809  159.4322 C   0  0  0  0  0  0  0  0  0  0  0  0
  151.7446  144.5177  160.7148 C   0  0  0  0  0  0  0  0  0  0  0  0
  152.8500  143.4805  160.4436 C   0  0  0  0  0  0  0  0  0  0  0  0
  151.8174  140.2855  158.7953 N   0  0  0  0  0  0  0  0  0  0  0  0
  150.7773  140.6091  157.8165 C   0  0  0  0  0  0  0  0  0  0  0  0
  150.9893  139.8849  156.4724 C   0  0  2  0  0  0  0  0  0  0  0  0
  152.3032  140.1329  156.0111 O   0  0  0  0  0  0  0  0  0  0  0  0
  149.9912  140.3619  155.4040 C   0  0  0  0  0  0  0  0  0  0  0  0
  150.3231  139.8180  154.1437 O   0  0  0  0  0  0  0  0  0  0  0  0
  155.6832  137.7311  161.6233 H   0  0  0  0  0  0  0  0  0  0  0  0
  154.4159  137.9713  162.8313 H   0  0  0  0  0  0  0  0  0  0  0  0
  155.0794  139.3439  161.9539 H   0  0  0  0  0  0  0  0  0  0  0  0
  153.1421  143.7950  157.8788 H   0  0  0  0  0  0  0  0  0  0  0  0
  152.0273  142.5847  157.3321 H   0  0  0  0  0  0  0  0  0  0  0  0
  150.9312  144.8306  157.3636 H   0  0  0  0  0  0  0  0  0  0  0  0
  150.1427  143.7725  158.5084 H   0  0  0  0  0  0  0  0  0  0  0  0
  152.2188  145.9202  159.1420 H   0  0  0  0  0  0  0  0  0  0  0  0
  150.5312  145.9375  159.6056 H   0  0  0  0  0  0  0  0  0  0  0  0
  152.0686  145.2168  161.4861 H   0  0  0  0  0  0  0  0  0  0  0  0
  150.8589  144.0147  161.1047 H   0  0  0  0  0  0  0  0  0  0  0  0
  153.0666  142.9338  161.3620 H   0  0  0  0  0  0  0  0  0  0  0  0
  153.7760  143.9783  160.1530 H   0  0  0  0  0  0  0  0  0  0  0  0
  149.8067  140.3493  158.2279 H   0  0  0  0  0  0  0  0  0  0  0  0
  150.7177  141.6840  157.6674 H   0  0  0  0  0  0  0  0  0  0  0  0
  150.8735  138.8119  156.6281 H   0  0  0  0  0  0  0  0  0  0  0  0
  152.2770  140.8560  155.4033 H   0  0  0  0  0  0  0  0  0  0  0  0
  148.9852  140.0193  155.6476 H   0  0  0  0  0  0  0  0  0  0  0  0
  149.9539  141.4508  155.3494 H   0  0  0  0  0  0  0  0  0  0  0  0
  149.6183  140.0035  153.5428 H   0  0  0  0  0  0  0  0  0  0  0  0
  1  2  1  0  0  0  0
  1 24  1  0  0  0  0
  1 25  1  0  0  0  0
  1 26  1  0  0  0  0
  2  9  1  0  0  0  0
  2  3  1  0  0  0  0
  3  4  2  0  0  0  0
  3  5  1  0  0  0  0
  5  6  1  0  0  0  0
  6  7  2  0  0  0  0
  6  8  1  0  0  0  0
  8 18  1  0  0  0  0
  8  9  2  0  0  0  0
  9 10  1  0  0  0  0
 10 11  2  0  0  0  0
 11 12  1  0  0  0  0
 11 18  1  0  0  0  0
 12 17  1  0  0  0  0
 12 13  1  0  0  0  0
 13 14  1  0  0  0  0
 13 27  1  0  0  0  0
 13 28  1  0  0  0  0
 14 15  1  0  0  0  0
 14 29  1  0  0  0  0
 14 30  1  0  0  0  0
 15 16  1  0  0  0  0
 15 31  1  0  0  0  0
 15 32  1  0  0  0  0
 16 17  1  0  0  0  0
 16 33  1  0  0  0  0
 16 34  1  0  0  0  0
 17 35  1  0  0  0  0
 17 36  1  0  0  0  0
 18 19  1  0  0  0  0
 19 20  1  0  0  0  0
 19 37  1  0  0  0  0
 19 38  1  0  0  0  0
 20 21  1  0  0  0  0
 20 22  1  0  0  0  0
 20 39  1  0  0  0  0
 21 40  1  0  0  0  0
 22 23  1  0  0  0  0
 22 41  1  0  0  0  0
 22 42  1  0  0  0  0
 23 43  1  0  0  0  0
M  CHG  1   5  -1
M  END
> <s_m_source_file>
AV-unprocessed.smi

> <i_m_source_file_index>
2559

> <i_lp_mmshare_version>
43012

> <i_f3d_flags>
0

> <s_epik_input>
Tz1jMVtuSF1jKD1PKW4oW0NIM10pYyhjMTIpbmMobjJbQ0gyXVtDQEhdKFtPSF0pW0NIMl1bT0hdKU4zW0NIMl1bQ0gyXVtDSDJdW0NIMl1bQ0gyXTM=

> <s_epik_cmdline>
J2VwaWtfcHl0aG9uJywgJy1waCcsICc3LjAnLCAnLXRuJywgJzgnLCAnLW1hJywgJzIwMCcsICctbWV0YWxfYmluZGluZycsICctaW1hZScsICc8aW5maWxlLm1hZT4nLCAnLW9tYWUnLCAnPG91dGZpbGUubWFlPic=

> <r_lp_tautomer_probability>
1

> <r_epik_Ionization_Penalty>
5.90509

> <r_epik_Ionization_Penalty_Charging>
0.0759636

> <r_epik_Ionization_Penalty_Neutral>
5.82913

> <r_epik_State_Penalty>
5.18635

> <r_epik_Charging_Adjusted_Penalty>
5.26231

> <i_epik_Tot_Q>
-1

> <i_epik_Tot_abs_Q>
1

> <r_epik_Metal_State_Penalty>
1.25614

> <b_epik_Metal_Only>
1

> <s_lp_Force_Field>
OPLS_2005

> <r_lp_Energy>
44.2417

> <b_lp_Chiralities_Consistent>
1

> <s_lp_Variant>
AV-unprocessed.smi:2559-3

> <Gold.Version>
5.8.1

> <Gold.Id.Protein>
6NUR|6NUR_protein|mol2

> <Gold.PLP.Fitness>
55.4124

> <Gold.PLP.PLP>
-43.4041

> <Gold.PLP.part.hbond>
-3.8391

> <Gold.PLP.part.metal>
0.0000

> <Gold.PLP.part.buried>
-5.3999

> <Gold.PLP.part.nonpolar>
-34.0324

> <Gold.PLP.part.repulsive>
0.0000

> <Gold.PLP.ligand.clash>
0.0000

> <Gold.PLP.ligand.torsion>
0.4809

> <Gold.PLP.Chemscore.Hbond>
4.1040

> <Gold.PLP.Chemscore.CHOScore>
0.0000

> <Gold.PLP.Chemscore.Metal>
0.0000

> <Gold.Chemscore.Hbonds>
donor molecule, donor type, donor heavy atom, donor atom, acceptor molecule, acceptor atom, score
      L1  H    23    43       P1  7957  0.08
      P1  H  6896  6909       L1     5  1.60
      P1  H  7989  7998       L1    23  1.00
      P1  H  7997  8009       L1    21  0.80

> <Gold.PLP.Chemscore.Internal.Correction>
0.6581

> <Gold.Rescore>
     Score         DG    S(hbond)    S(metal)    S(lipo)     H(rot)  DE(clash)    DE(int)     intcor
     11.67     -14.76       2.15        0.00      82.10       2.93       0.17       2.91       ----

> <Gold.Chemscore.Fitness>
11.6728

> <Gold.Chemscore.DG>
-14.7588

> <Gold.Chemscore.ZeroCoef>
-5.4800

> <Gold.Chemscore.Hbond>
2.1502

> <Gold.Chemscore.Metal>
0.0000

> <Gold.Chemscore.Lipo>
82.0975

> <Gold.Chemscore.Internal_Hbond>
0.0000

> <Gold.Chemscore.DEClash>
0.1739

> <Gold.Chemscore.DEInternal>
2.9122

> <Gold.Chemscore.Rot>
2.9330

> <Gold.Chemscore.Internal.Correction>
   9.000000E+99

> <Gold.Chemscore.Hbonds>
donor molecule, donor type, donor heavy atom, donor atom, acceptor molecule, acceptor atom, score
      L1  H    23    43       P1  7957  0.09
      P1  H  6896  6909       L1     5  0.12
      P1  H  7989  7998       L1    23  0.16
      P1  H  7997  8009       L1    21  0.13

> <Gold.Chemscore.Hbond.Weighted>
-7.1818

> <Gold.Chemscore.Metal.Weighted>
-0.0000

> <Gold.Chemscore.Lipo.Weighted>
-9.6054

> <Gold.Chemscore.Internal_Hbond.Weighted>
0.0000

> <Gold.Chemscore.DEClash.Weighted>
0.1739

> <Gold.Chemscore.DEInternal.Weighted>
2.9122

> <Gold.Chemscore.Rot.Weighted>
7.5084

> <Gold.Chemscore.Internal.Correction.Weighted>
   9.000000E+99

> <Gold.Protein.RotatedTorsions>
[ 6907 6896 6895 6894 ] final  137.42 input  -60.11 | X-H torsion
[ 7974 7965 7964 7962 ] final  177.00 input  175.53 | X-H torsion
[ 8008 7997 7996 7995 ] final -163.81 input   59.86 | X-H torsion
[ 10167 10162 10161 10158 ] final  -24.53 input  -65.29 | X-H torsion
[ 10718 10713 10712 10709 ] final  -40.27 input   66.30 | X-H torsion
[ 10763 10752 10751 10750 ] final  114.36 input  -60.55 | X-H torsion
[ 11005 11000 10999 10996 ] final  163.48 input  -57.11 | X-H torsion

> <Gold.Protein.ActiveResidues>
 VAL166  LYS551  ARG553  GLY616  TRP617  ASP618  TYR619  PRO620  LYS621  CYS622 
 ASP623  PHE694  ASN695  SER759  ASP760  ASP761  ALA762  ILE779  LEU786  VAL792 
 PHE793  MET794  SER795  GLU796  ALA797  LYS798  CYS799  TRP800  GLU811  SER814 

> <Gold.Protein.RotatedAtoms>
  152.2783  133.5446  159.5481 H   0  0  0  0  0  0  0  0  0  0  0  0  # atno 6907 bound_to 6896
  150.7186  134.0600  159.3837 H   0  0  0  0  0  0  0  0  0  0  0  0  # atno 6908 bound_to 6896
  151.8512  135.0557  160.0510 H   0  0  0  0  0  0  0  0  0  0  0  0  # atno 6909 bound_to 6896
  144.7175  140.0181  143.6440 H   0  0  0  0  0  0  0  0  0  0  0  0  # atno 7974 bound_to 7965
  155.8266  140.0927  157.1817 H   0  0  0  0  0  0  0  0  0  0  0  0  # atno 8008 bound_to 7997
  154.3979  140.1427  156.3624 H   0  0  0  0  0  0  0  0  0  0  0  0  # atno 8009 bound_to 7997
  155.8210  140.3446  155.5517 H   0  0  0  0  0  0  0  0  0  0  0  0  # atno 8010 bound_to 7997
  140.7288  143.4345  151.0751 H   0  0  0  0  0  0  0  0  0  0  0  0  # atno 10167 bound_to 10162
  156.2832  130.4219  149.8315 H   0  0  0  0  0  0  0  0  0  0  0  0  # atno 10718 bound_to 10713
  153.5062  135.3627  155.2564 H   0  0  0  0  0  0  0  0  0  0  0  0  # atno 10763 bound_to 10752
  154.8745  135.4012  154.3421 H   0  0  0  0  0  0  0  0  0  0  0  0  # atno 10764 bound_to 10752
  153.4066  135.7076  153.6455 H   0  0  0  0  0  0  0  0  0  0  0  0  # atno 10765 bound_to 10752
  140.2362  134.8086  157.3366 H   0  0  0  0  0  0  0  0  0  0  0  0  # atno 11005 bound_to 11000
  146.0203  139.3245  143.0817 LP  0  0  0  0  0  0  0  0  0  0  0  0  # atno 17320 bound_to 7965
  145.8576  140.9493  143.0717 LP  0  0  0  0  0  0  0  0  0  0  0  0  # atno 17321 bound_to 7965
  139.8005  143.8090  152.3162 LP  0  0  0  0  0  0  0  0  0  0  0  0  # atno 17342 bound_to 10162
  139.8105  144.7337  150.9703 LP  0  0  0  0  0  0  0  0  0  0  0  0  # atno 17343 bound_to 10162
  156.5755  130.8443  151.3368 LP  0  0  0  0  0  0  0  0  0  0  0  0  # atno 17370 bound_to 10713
  157.7320  130.9709  150.1910 LP  0  0  0  0  0  0  0  0  0  0  0  0  # atno 17371 bound_to 10713
  140.1699  134.4621  155.7838 LP  0  0  0  0  0  0  0  0  0  0  0  0  # atno 17394 bound_to 11000
  141.2214  133.6937  156.7690 LP  0  0  0  0  0  0  0  0  0  0  0  0  # atno 17395 bound_to 11000

$$$$
