AV-unprocessed.smi:1248|AV-procd|sdf|5252|dock4
  -GOLD-   22720 4363D 1   1.00000     0.00000
 Structure written by MMmdl.
 43 45  0  0  0  0  0  0  0  0  1 V2000
  146.3063  129.2193  152.5681 C   0  0  0  0  0  0  0  0  0  0  0  0
  147.7032  129.5605  153.1009 C   0  0  0  0  0  0  0  0  0  0  0  0
  147.7601  130.9019  153.6493 N   0  0  0  0  0  0  0  0  0  0  0  0
  148.5578  131.9556  153.2490 C   0  0  0  0  0  0  0  0  0  0  0  0
  148.2431  132.9942  154.0728 C   0  0  0  0  0  0  0  0  0  0  0  0
  148.8308  134.2825  154.0126 N   0  0  0  0  0  0  0  0  0  0  0  0
  149.4425  134.9434  155.0087 C   0  0  0  0  0  0  0  0  0  0  0  0
  149.5918  134.5176  156.1539 O   0  0  0  0  0  0  0  0  0  0  0  0
  149.8762  136.1452  154.6022 N   0  0  0  0  0  0  0  0  0  0  0  0
  150.5753  137.1150  155.4403 C   0  0  0  0  0  0  0  0  0  0  0  0
  149.6083  137.7818  156.4352 C   0  0  0  0  0  0  0  0  0  0  0  0
  150.3049  138.9147  157.2091 C   0  0  0  0  0  0  0  0  0  0  0  0
  150.8295  139.9151  156.2793 N   0  0  0  0  0  0  0  0  0  0  0  0
  151.4377  140.9928  157.0423 C   0  0  0  0  0  0  0  0  0  0  0  0
  150.5428  141.7860  157.9673 C   0  0  0  0  0  0  0  0  0  0  0  0
  151.0450  142.4086  156.6871 C   0  0  0  0  0  0  0  0  0  0  0  0
  151.8471  139.3088  155.4208 C   0  0  0  0  0  0  0  0  0  0  0  0
  151.2205  138.1974  154.5606 C   0  0  0  0  0  0  0  0  0  0  0  0
  147.2429  132.4997  154.9569 C   0  0  0  0  0  0  0  0  0  0  0  0
  146.9598  131.2330  154.6927 N   0  0  0  0  0  0  0  0  0  0  0  0
  146.2880  128.2150  152.1447 H   0  0  0  0  0  0  0  0  0  0  0  0
  146.0020  129.9160  151.7868 H   0  0  0  0  0  0  0  0  0  0  0  0
  145.5597  129.2579  153.3616 H   0  0  0  0  0  0  0  0  0  0  0  0
  147.9970  128.8525  153.8768 H   0  0  0  0  0  0  0  0  0  0  0  0
  148.4400  129.4782  152.3013 H   0  0  0  0  0  0  0  0  0  0  0  0
  149.2608  131.8747  152.4328 H   0  0  0  0  0  0  0  0  0  0  0  0
  148.7758  134.7512  153.1205 H   0  0  0  0  0  0  0  0  0  0  0  0
  149.7090  136.4115  153.6431 H   0  0  0  0  0  0  0  0  0  0  0  0
  151.3666  136.6086  155.9965 H   0  0  0  0  0  0  0  0  0  0  0  0
  148.7441  138.1847  155.9044 H   0  0  0  0  0  0  0  0  0  0  0  0
  149.2220  137.0432  157.1383 H   0  0  0  0  0  0  0  0  0  0  0  0
  149.5893  139.3851  157.8844 H   0  0  0  0  0  0  0  0  0  0  0  0
  151.1109  138.5130  157.8255 H   0  0  0  0  0  0  0  0  0  0  0  0
  152.4633  140.8695  157.3864 H   0  0  0  0  0  0  0  0  0  0  0  0
  149.4891  141.5170  158.0135 H   0  0  0  0  0  0  0  0  0  0  0  0
  150.9748  142.1379  158.9018 H   0  0  0  0  0  0  0  0  0  0  0  0
  151.8111  143.1769  156.7687 H   0  0  0  0  0  0  0  0  0  0  0  0
  150.3248  142.5525  155.8837 H   0  0  0  0  0  0  0  0  0  0  0  0
  152.2774  140.0719  154.7714 H   0  0  0  0  0  0  0  0  0  0  0  0
  152.6616  138.9072  156.0263 H   0  0  0  0  0  0  0  0  0  0  0  0
  151.9832  137.7530  153.9202 H   0  0  0  0  0  0  0  0  0  0  0  0
  150.4736  138.6344  153.8956 H   0  0  0  0  0  0  0  0  0  0  0  0
  146.7219  132.9940  155.7631 H   0  0  0  0  0  0  0  0  0  0  0  0
  1  2  1  0  0  0  0
  1 21  1  0  0  0  0
  1 22  1  0  0  0  0
  1 23  1  0  0  0  0
  2  3  1  0  0  0  0
  2 24  1  0  0  0  0
  2 25  1  0  0  0  0
  3 20  1  0  0  0  0
  3  4  1  0  0  0  0
  4  5  2  0  0  0  0
  4 26  1  0  0  0  0
  5  6  1  0  0  0  0
  5 19  1  0  0  0  0
  6  7  1  0  0  0  0
  6 27  1  0  0  0  0
  7  8  2  0  0  0  0
  7  9  1  0  0  0  0
  9 10  1  0  0  0  0
  9 28  1  0  0  0  0
 10 18  1  0  0  0  0
 10 11  1  0  0  0  0
 10 29  1  0  0  0  0
 11 12  1  0  0  0  0
 11 30  1  0  0  0  0
 11 31  1  0  0  0  0
 12 13  1  0  0  0  0
 12 32  1  0  0  0  0
 12 33  1  0  0  0  0
 13 14  1  0  0  0  0
 13 17  1  0  0  0  0
 14 16  1  0  0  0  0
 14 15  1  0  0  0  0
 14 34  1  0  0  0  0
 15 16  1  0  0  0  0
 15 35  1  0  0  0  0
 15 36  1  0  0  0  0
 16 37  1  0  0  0  0
 16 38  1  0  0  0  0
 17 18  1  0  0  0  0
 17 39  1  0  0  0  0
 17 40  1  0  0  0  0
 18 41  1  0  0  0  0
 18 42  1  0  0  0  0
 19 20  2  0  0  0  0
 19 43  1  0  0  0  0
M  END
> <s_m_source_file>
AV-unprocessed.smi

> <i_m_source_file_index>
1248

> <i_lp_mmshare_version>
43012

> <i_f3d_flags>
0

> <s_epik_input>
W0NIM11bQ0gyXW4xW2NIXWMoW2NIXW4xKVtOSF1DKD1PKVtOSF1bQ0hdMltDSDJdW0NIMl1OKFtDSDJdW0NIMl0yKVtDSF0zW0NIMl1bQ0gyXTM=

> <s_epik_cmdline>
J2VwaWtfcHl0aG9uJywgJy1waCcsICc3LjAnLCAnLXRuJywgJzgnLCAnLW1hJywgJzIwMCcsICctbWV0YWxfYmluZGluZycsICctaW1hZScsICc8aW5maWxlLm1hZT4nLCAnLW9tYWUnLCAnPG91dGZpbGUubWFlPic=

> <r_lp_tautomer_probability>
1

> <r_epik_Ionization_Penalty>
1.02552

> <r_epik_Ionization_Penalty_Charging>
0

> <r_epik_Ionization_Penalty_Neutral>
1.02552

> <r_epik_State_Penalty>
1.07599

> <r_epik_Charging_Adjusted_Penalty>
1.07599

> <i_epik_Tot_Q>
0

> <i_epik_Tot_abs_Q>
0

> <r_epik_Metal_State_Penalty>
1.07597

> <b_epik_Metal_Only>
0

> <s_lp_Force_Field>
OPLS_2005

> <r_lp_Energy>
25.1211

> <b_lp_Chiralities_Consistent>
1

> <s_lp_Variant>
AV-unprocessed.smi:1248-3

> <Gold.Version>
5.8.1

> <Gold.Id.Protein>
6NUR|6NUR_protein|mol2

> <Gold.PLP.Fitness>
36.8863

> <Gold.PLP.PLP>
-29.4382

> <Gold.PLP.part.hbond>
-2.0000

> <Gold.PLP.part.metal>
0.0000

> <Gold.PLP.part.buried>
-3.8133

> <Gold.PLP.part.nonpolar>
-24.2636

> <Gold.PLP.part.repulsive>
0.1496

> <Gold.PLP.ligand.clash>
0.0000

> <Gold.PLP.ligand.torsion>
1.3661

> <Gold.PLP.Chemscore.Hbond>
2.0000

> <Gold.PLP.Chemscore.CHOScore>
1.0000

> <Gold.PLP.Chemscore.Metal>
0.0000

> <Gold.Chemscore.Hbonds>
donor molecule, donor type, donor heavy atom, donor atom, acceptor molecule, acceptor atom, score
      L1  H     6    27       P1  7948  0.95
      L1  H     9    28       P1  7948  1.00
      L1  C     4    26       P1 10747  1.00

> <Gold.PLP.Chemscore.Internal.Correction>
1.1803

> <Gold.Rescore>
     Score         DG    S(hbond)    S(metal)    S(lipo)     H(rot)  DE(clash)    DE(int)     intcor
     15.13     -16.49       1.70        0.00      74.24       1.32       0.02       1.34       ----

> <Gold.Chemscore.Fitness>
15.1286

> <Gold.Chemscore.DG>
-16.4893

> <Gold.Chemscore.ZeroCoef>
-5.4800

> <Gold.Chemscore.Hbond>
1.7048

> <Gold.Chemscore.Metal>
0.0000

> <Gold.Chemscore.Lipo>
74.2432

> <Gold.Chemscore.Internal_Hbond>
0.0000

> <Gold.Chemscore.DEClash>
0.0226

> <Gold.Chemscore.DEInternal>
1.3381

> <Gold.Chemscore.Rot>
1.3169

> <Gold.Chemscore.Internal.Correction>
   9.000000E+99

> <Gold.Chemscore.Hbonds>
donor molecule, donor type, donor heavy atom, donor atom, acceptor molecule, acceptor atom, score
      L1  H     6    27       P1  7948  0.21
      L1  H     9    28       P1  7948  0.44

> <Gold.Chemscore.Hbond.Weighted>
-5.6940

> <Gold.Chemscore.Metal.Weighted>
-0.0000

> <Gold.Chemscore.Lipo.Weighted>
-8.6864

> <Gold.Chemscore.Internal_Hbond.Weighted>
0.0000

> <Gold.Chemscore.DEClash.Weighted>
0.0226

> <Gold.Chemscore.DEInternal.Weighted>
1.3381

> <Gold.Chemscore.Rot.Weighted>
3.3712

> <Gold.Chemscore.Internal.Correction.Weighted>
   9.000000E+99

> <Gold.Protein.RotatedTorsions>
[ 6907 6896 6895 6894 ] final  -59.72 input  -60.11 | X-H torsion
[ 7974 7965 7964 7962 ] final  178.19 input  175.53 | X-H torsion
[ 8008 7997 7996 7995 ] final  -88.98 input   59.86 | X-H torsion
[ 10167 10162 10161 10158 ] final -173.57 input  -65.29 | X-H torsion
[ 10718 10713 10712 10709 ] final  -23.96 input   66.30 | X-H torsion
[ 10763 10752 10751 10750 ] final  151.40 input  -60.55 | X-H torsion
[ 11005 11000 10999 10996 ] final  -80.11 input  -57.11 | X-H torsion

> <Gold.Protein.ActiveResidues>
 VAL166  LYS551  ARG553  GLY616  TRP617  ASP618  TYR619  PRO620  LYS621  CYS622 
 ASP623  PHE694  ASN695  SER759  ASP760  ASP761  ALA762  ILE779  LEU786  VAL792 
 PHE793  MET794  SER795  GLU796  ALA797  LYS798  CYS799  TRP800  GLU811  SER814 

> <Gold.Protein.RotatedAtoms>
  150.7909  134.6932  159.6508 H   0  0  0  0  0  0  0  0  0  0  0  0  # atno 6907 bound_to 6896
  152.4015  134.6276  160.0077 H   0  0  0  0  0  0  0  0  0  0  0  0  # atno 6908 bound_to 6896
  151.6546  133.3282  159.3196 H   0  0  0  0  0  0  0  0  0  0  0  0  # atno 6909 bound_to 6896
  144.7159  140.0360  143.6438 H   0  0  0  0  0  0  0  0  0  0  0  0  # atno 7974 bound_to 7965
  154.6812  140.0547  157.0268 H   0  0  0  0  0  0  0  0  0  0  0  0  # atno 8008 bound_to 7997
  155.0948  140.3223  155.4544 H   0  0  0  0  0  0  0  0  0  0  0  0  # atno 8009 bound_to 7997
  156.2695  140.2041  156.6075 H   0  0  0  0  0  0  0  0  0  0  0  0  # atno 8010 bound_to 7997
  139.5681  144.1706  152.1343 H   0  0  0  0  0  0  0  0  0  0  0  0  # atno 10167 bound_to 10162
  156.4841  130.4551  149.6794 H   0  0  0  0  0  0  0  0  0  0  0  0  # atno 10718 bound_to 10713
  154.1032  135.2844  155.3247 H   0  0  0  0  0  0  0  0  0  0  0  0  # atno 10763 bound_to 10752
  154.6541  135.5358  153.7940 H   0  0  0  0  0  0  0  0  0  0  0  0  # atno 10764 bound_to 10752
  153.0371  135.6517  154.1195 H   0  0  0  0  0  0  0  0  0  0  0  0  # atno 10765 bound_to 10752
  141.1668  133.7135  156.8223 H   0  0  0  0  0  0  0  0  0  0  0  0  # atno 11005 bound_to 11000
  146.0063  139.3132  143.0897 LP  0  0  0  0  0  0  0  0  0  0  0  0  # atno 17320 bound_to 7965
  145.8735  140.9406  143.0638 LP  0  0  0  0  0  0  0  0  0  0  0  0  # atno 17321 bound_to 7965
  140.1233  144.5353  150.6848 LP  0  0  0  0  0  0  0  0  0  0  0  0  # atno 17342 bound_to 10162
  140.6965  143.2407  151.4985 LP  0  0  0  0  0  0  0  0  0  0  0  0  # atno 17343 bound_to 10162
  156.3492  130.7423  151.2380 LP  0  0  0  0  0  0  0  0  0  0  0  0  # atno 17370 bound_to 10713
  157.7480  131.0382  150.4490 LP  0  0  0  0  0  0  0  0  0  0  0  0  # atno 17371 bound_to 10713
  140.2110  134.8827  157.3275 LP  0  0  0  0  0  0  0  0  0  0  0  0  # atno 17394 bound_to 11000
  140.2086  134.4166  155.7624 LP  0  0  0  0  0  0  0  0  0  0  0  0  # atno 17395 bound_to 11000

$$$$
