AV-unprocessed.smi:2527|AV-procd|sdf|9944|dock2
  -GOLD-   2272013583D 1   1.00000     0.00000
 Structure written by MMmdl.
 37 39  0  0  0  0  0  0  0  0  2 V2000
  151.0417  136.7039  155.8075 C   0  0  0  0  0  0  0  0  0  0  0  0
  152.1422  137.2899  155.1355 O   0  0  0  0  0  0  0  0  0  0  0  0
  152.0960  138.7073  155.1479 C   0  0  0  0  0  0  0  0  0  0  0  0
  151.8805  139.2107  156.5822 C   0  0  0  0  0  0  0  0  0  0  0  0
  151.2949  140.5591  156.6187 N   0  0  0  0  0  0  0  0  0  0  0  0
  150.3764  141.1408  155.7979 C   0  0  0  0  0  0  0  0  0  0  0  0
  149.6059  140.3884  154.3997 S   0  0  0  0  0  0  0  0  0  0  0  0
  147.8201  140.5521  154.6673 C   0  0  0  0  0  0  0  0  0  0  0  0
  146.9843  139.5887  153.8518 C   0  0  0  0  0  0  0  0  0  0  0  0
  147.3663  139.3524  152.5555 N   0  0  0  0  0  0  0  0  0  0  0  0
  146.4898  138.4844  152.0646 C   0  0  0  0  0  0  0  0  0  0  0  0
  146.4606  138.0019  150.9350 O   0  0  0  0  0  0  0  0  0  0  0  0
  145.6465  138.2536  153.0780 N   0  0  0  0  0  0  0  0  0  0  0  0
  145.9368  138.9352  154.2142 N   0  0  0  0  0  0  0  0  0  0  0  0
  150.1579  142.4058  156.2531 N   0  3  0  0  0  0  0  0  0  0  0  0
  150.9421  142.6359  157.3848 C   0  0  0  0  0  0  0  0  0  0  0  0
  151.0623  143.7601  158.1961 C   0  0  0  0  0  0  0  0  0  0  0  0
  151.9535  143.6650  159.2854 C   0  0  0  0  0  0  0  0  0  0  0  0
  152.1522  145.0192  160.3354 Cl  0  0  0  0  0  0  0  0  0  0  0  0
  152.6832  142.4838  159.5324 C   0  0  0  0  0  0  0  0  0  0  0  0
  152.5559  141.3508  158.7024 C   0  0  0  0  0  0  0  0  0  0  0  0
  151.6735  141.4537  157.6272 C   0  0  0  0  0  0  0  0  0  0  0  0
  144.8462  137.6378  153.0630 H   0  0  0  0  0  0  0  0  0  0  0  0
  148.1562  139.7633  152.0799 H   0  0  0  0  0  0  0  0  0  0  0  0
  151.1222  135.6179  155.7637 H   0  0  0  0  0  0  0  0  0  0  0  0
  150.0973  136.9909  155.3434 H   0  0  0  0  0  0  0  0  0  0  0  0
  151.0199  136.9977  156.8576 H   0  0  0  0  0  0  0  0  0  0  0  0
  153.0271  139.1144  154.7510 H   0  0  0  0  0  0  0  0  0  0  0  0
  151.2867  139.0600  154.5063 H   0  0  0  0  0  0  0  0  0  0  0  0
  151.2460  138.5270  157.1463 H   0  0  0  0  0  0  0  0  0  0  0  0
  152.8335  139.2482  157.1108 H   0  0  0  0  0  0  0  0  0  0  0  0
  147.6166  140.4110  155.7295 H   0  0  0  0  0  0  0  0  0  0  0  0
  147.5196  141.5708  154.4212 H   0  0  0  0  0  0  0  0  0  0  0  0
  150.5024  144.6649  158.0095 H   0  0  0  0  0  0  0  0  0  0  0  0
  153.3550  142.4439  160.3776 H   0  0  0  0  0  0  0  0  0  0  0  0
  153.1164  140.4504  158.9067 H   0  0  0  0  0  0  0  0  0  0  0  0
  149.5181  143.0601  155.8220 H   0  0  0  0  0  0  0  0  0  0  0  0
  1  2  1  0  0  0  0
  1 25  1  0  0  0  0
  1 26  1  0  0  0  0
  1 27  1  0  0  0  0
  2  3  1  0  0  0  0
  3  4  1  0  0  0  0
  3 28  1  0  0  0  0
  3 29  1  0  0  0  0
  4  5  1  0  0  0  0
  4 30  1  0  0  0  0
  4 31  1  0  0  0  0
  5 22  1  0  0  0  0
  5  6  1  0  0  0  0
  6  7  1  0  0  0  0
  6 15  2  0  0  0  0
  7  8  1  0  0  0  0
  8 32  1  0  0  0  0
  8 33  1  0  0  0  0
  8  9  1  0  0  0  0
  9 14  2  0  0  0  0
  9 10  1  0  0  0  0
 10 11  1  0  0  0  0
 10 24  1  0  0  0  0
 11 13  1  0  0  0  0
 11 12  2  0  0  0  0
 13 14  1  0  0  0  0
 13 23  1  0  0  0  0
 15 16  1  0  0  0  0
 15 37  1  0  0  0  0
 16 22  2  0  0  0  0
 16 17  1  0  0  0  0
 17 18  2  0  0  0  0
 17 34  1  0  0  0  0
 18 19  1  0  0  0  0
 18 20  1  0  0  0  0
 20 21  2  0  0  0  0
 20 35  1  0  0  0  0
 21 22  1  0  0  0  0
 21 36  1  0  0  0  0
M  CHG  1  15   1
M  END
> <s_m_source_file>
AV-unprocessed.smi

> <i_m_source_file_index>
2527

> <i_lp_mmshare_version>
43012

> <i_f3d_flags>
0

> <s_epik_input>
W2NIXTFjKENsKVtjSF1bY0hdYyhjMTIpbihbQ0gyXVtDSDJdT1tDSDNdKWMobjIpU1tDSDJdYzNuYyg9TylbbkhdW25IXTM=

> <s_epik_cmdline>
J2VwaWtfcHl0aG9uJywgJy1waCcsICc3LjAnLCAnLXRuJywgJzgnLCAnLW1hJywgJzIwMCcsICctbWV0YWxfYmluZGluZycsICctaW1hZScsICc8aW5maWxlLm1hZT4nLCAnLW9tYWUnLCAnPG91dGZpbGUubWFlPic=

> <r_lp_tautomer_probability>
0.999897

> <r_epik_Ionization_Penalty>
2.55529

> <r_epik_Ionization_Penalty_Charging>
2.55529

> <r_epik_Ionization_Penalty_Neutral>
1.25843e-08

> <r_epik_State_Penalty>
2.65345

> <r_epik_Charging_Adjusted_Penalty>
5.20874

> <i_epik_Tot_Q>
1

> <i_epik_Tot_abs_Q>
1

> <r_epik_Metal_State_Penalty>
3.01692

> <b_epik_Metal_Only>
0

> <s_lp_Force_Field>
OPLS_2005

> <r_lp_Energy>
34.0124

> <b_lp_Chiralities_Consistent>
1

> <s_lp_Variant>
AV-unprocessed.smi:2527-3

> <Gold.Version>
5.8.1

> <Gold.Id.Protein>
6NUR|6NUR_protein|mol2

> <Gold.PLP.Fitness>
57.8782

> <Gold.PLP.PLP>
-44.9262

> <Gold.PLP.part.hbond>
-5.0000

> <Gold.PLP.part.metal>
0.0000

> <Gold.PLP.part.buried>
-7.2363

> <Gold.PLP.part.nonpolar>
-37.1350

> <Gold.PLP.part.repulsive>
2.2062

> <Gold.PLP.ligand.clash>
0.0000

> <Gold.PLP.ligand.torsion>
0.8818

> <Gold.PLP.Chemscore.Hbond>
4.8640

> <Gold.PLP.Chemscore.CHOScore>
0.0000

> <Gold.PLP.Chemscore.Metal>
0.0000

> <Gold.Chemscore.Hbonds>
donor molecule, donor type, donor heavy atom, donor atom, acceptor molecule, acceptor atom, score
      L1  H    10    24       P1  7957  1.00
      L1  H    15    37       P1  8028  2.00
      P1  H  7954  7966       L1    12  1.00
      P1  H 10752 10764       L1     2  0.60

> <Gold.PLP.Chemscore.Internal.Correction>
0.1237

> <Gold.Rescore>
     Score         DG    S(hbond)    S(metal)    S(lipo)     H(rot)  DE(clash)    DE(int)     intcor
     18.43     -21.55       3.78        0.00      93.36       2.93       1.28       1.84       ----

> <Gold.Chemscore.Fitness>
18.4270

> <Gold.Chemscore.DG>
-21.5463

> <Gold.Chemscore.ZeroCoef>
-5.4800

> <Gold.Chemscore.Hbond>
3.7832

> <Gold.Chemscore.Metal>
0.0000

> <Gold.Chemscore.Lipo>
93.3637

> <Gold.Chemscore.Internal_Hbond>
0.0000

> <Gold.Chemscore.DEClash>
1.2782

> <Gold.Chemscore.DEInternal>
1.8411

> <Gold.Chemscore.Rot>
2.9270

> <Gold.Chemscore.Internal.Correction>
   9.000000E+99

> <Gold.Chemscore.Hbonds>
donor molecule, donor type, donor heavy atom, donor atom, acceptor molecule, acceptor atom, score
      L1  H    10    24       P1  7957  1.00
      L1  H    15    37       P1  8028  0.94
      P1  H  7954  7966       L1    12  0.92
      P1  H 10752 10764       L1     2  0.07

> <Gold.Chemscore.Hbond.Weighted>
-12.6360

> <Gold.Chemscore.Metal.Weighted>
-0.0000

> <Gold.Chemscore.Lipo.Weighted>
-10.9235

> <Gold.Chemscore.Internal_Hbond.Weighted>
0.0000

> <Gold.Chemscore.DEClash.Weighted>
1.2782

> <Gold.Chemscore.DEInternal.Weighted>
1.8411

> <Gold.Chemscore.Rot.Weighted>
7.4932

> <Gold.Chemscore.Internal.Correction.Weighted>
   9.000000E+99

> <Gold.Protein.RotatedTorsions>
[ 6907 6896 6895 6894 ] final  -68.57 input  -60.11 | X-H torsion
[ 7974 7965 7964 7962 ] final  145.78 input  175.53 | X-H torsion
[ 8008 7997 7996 7995 ] final -138.56 input   59.86 | X-H torsion
[ 10167 10162 10161 10158 ] final  152.85 input  -65.29 | X-H torsion
[ 10718 10713 10712 10709 ] final   24.09 input   66.30 | X-H torsion
[ 10763 10752 10751 10750 ] final  -51.60 input  -60.55 | X-H torsion
[ 11005 11000 10999 10996 ] final  179.41 input  -57.11 | X-H torsion

> <Gold.Protein.ActiveResidues>
 VAL166  LYS551  ARG553  GLY616  TRP617  ASP618  TYR619  PRO620  LYS621  CYS622 
 ASP623  PHE694  ASN695  SER759  ASP760  ASP761  ALA762  ILE779  LEU786  VAL792 
 PHE793  MET794  SER795  GLU796  ALA797  LYS798  CYS799  TRP800  GLU811  SER814 

> <Gold.Protein.RotatedAtoms>
  150.7349  134.5721  159.5895 H   0  0  0  0  0  0  0  0  0  0  0  0  # atno 6907 bound_to 6896
  152.3157  134.7440  160.0335 H   0  0  0  0  0  0  0  0  0  0  0  0  # atno 6908 bound_to 6896
  151.7972  133.3330  159.3553 H   0  0  0  0  0  0  0  0  0  0  0  0  # atno 6909 bound_to 6896
  144.8724  139.5825  143.5880 H   0  0  0  0  0  0  0  0  0  0  0  0  # atno 7974 bound_to 7965
  155.4304  140.0524  157.3019 H   0  0  0  0  0  0  0  0  0  0  0  0  # atno 8008 bound_to 7997
  154.4862  140.2102  155.9607 H   0  0  0  0  0  0  0  0  0  0  0  0  # atno 8009 bound_to 7997
  156.1278  140.3177  155.8309 H   0  0  0  0  0  0  0  0  0  0  0  0  # atno 8010 bound_to 7997
  139.4830  144.5323  151.7702 H   0  0  0  0  0  0  0  0  0  0  0  0  # atno 10167 bound_to 10162
  157.1750  130.6777  149.6092 H   0  0  0  0  0  0  0  0  0  0  0  0  # atno 10718 bound_to 10713
  154.1293  135.6522  153.4918 H   0  0  0  0  0  0  0  0  0  0  0  0  # atno 10763 bound_to 10752
  153.0200  135.5289  154.7018 H   0  0  0  0  0  0  0  0  0  0  0  0  # atno 10764 bound_to 10752
  154.6248  135.2969  155.0255 H   0  0  0  0  0  0  0  0  0  0  0  0  # atno 10765 bound_to 10752
  140.4058  134.6736  157.4587 H   0  0  0  0  0  0  0  0  0  0  0  0  # atno 11005 bound_to 11000
  146.2940  139.7221  142.9140 LP  0  0  0  0  0  0  0  0  0  0  0  0  # atno 17320 bound_to 7965
  145.4105  141.0396  143.3020 LP  0  0  0  0  0  0  0  0  0  0  0  0  # atno 17321 bound_to 7965
  140.4851  144.1393  150.5939 LP  0  0  0  0  0  0  0  0  0  0  0  0  # atno 17342 bound_to 10162
  140.4234  143.2601  151.9686 LP  0  0  0  0  0  0  0  0  0  0  0  0  # atno 17343 bound_to 10162
  155.9732  130.4666  150.6294 LP  0  0  0  0  0  0  0  0  0  0  0  0  # atno 17370 bound_to 10713
  157.4007  131.0809  151.1311 LP  0  0  0  0  0  0  0  0  0  0  0  0  # atno 17371 bound_to 10713
  140.0303  134.6416  155.9116 LP  0  0  0  0  0  0  0  0  0  0  0  0  # atno 17394 bound_to 11000
  141.1840  133.6552  156.5138 LP  0  0  0  0  0  0  0  0  0  0  0  0  # atno 17395 bound_to 11000

$$$$
