AV-unprocessed.smi:1956|AV-procd|sdf|7902|dock3
  -GOLD-   2272010 53D 1   1.00000     0.00000
 Structure written by MMmdl.
 46 47  0  0  0  0  0  0  0  0  2 V2000
  136.0576  137.7682  154.6252 C   0  0  0  0  0  0  0  0  0  0  0  0
  136.9506  138.8500  154.3836 O   0  0  0  0  0  0  0  0  0  0  0  0
  138.2123  138.5629  153.9045 C   0  0  0  0  0  0  0  0  0  0  0  0
  138.6805  137.2371  153.9890 C   0  0  0  0  0  0  0  0  0  0  0  0
  139.9664  136.9343  153.5017 C   0  0  0  0  0  0  0  0  0  0  0  0
  140.7498  137.9736  152.9426 C   0  0  0  0  0  0  0  0  0  0  0  0
  142.0593  137.8156  152.4087 N   0  0  0  0  0  0  0  0  0  0  0  0
  143.0560  137.0063  152.8076 C   0  0  0  0  0  0  0  0  0  0  0  0
  143.0129  136.2245  153.7566 O   0  0  0  0  0  0  0  0  0  0  0  0
  144.1379  137.1527  152.0294 N   0  0  0  0  0  0  0  0  0  0  0  0
  145.3922  136.4281  152.2004 C   0  0  0  0  0  0  0  0  0  0  0  0
  145.9739  135.9741  150.8471 C   0  0  0  0  0  0  0  0  0  0  0  0
  145.6015  134.5767  150.5125 N   0  3  1  0  0  0  0  0  0  0  0  0
  146.3601  133.5837  151.3165 C   0  0  0  0  0  0  0  0  0  0  0  0
  146.0779  132.1507  150.8384 C   0  0  0  0  0  0  0  0  0  0  0  0
  144.5732  131.8474  150.8636 C   0  0  0  0  0  0  0  0  0  0  0  0
  143.7753  132.9093  150.0843 C   0  0  2  0  0  0  0  0  0  0  0  0
  143.9257  132.7691  148.5593 C   0  0  0  0  0  0  0  0  0  0  0  0
  144.1357  134.3261  150.5769 C   0  0  0  0  0  0  0  0  0  0  0  0
  140.1857  139.2662  152.9037 C   0  0  0  0  0  0  0  0  0  0  0  0
  138.9544  139.5630  153.3690 N   0  0  0  0  0  0  0  0  0  0  0  0
  135.1115  138.1586  154.9999 H   0  0  0  0  0  0  0  0  0  0  0  0
  136.4535  137.0830  155.3764 H   0  0  0  0  0  0  0  0  0  0  0  0
  135.8470  137.2134  153.7097 H   0  0  0  0  0  0  0  0  0  0  0  0
  138.0627  136.4632  154.4202 H   0  0  0  0  0  0  0  0  0  0  0  0
  140.3104  135.9152  153.5684 H   0  0  0  0  0  0  0  0  0  0  0  0
  142.2678  138.4081  151.6183 H   0  0  0  0  0  0  0  0  0  0  0  0
  144.0940  137.8192  151.2720 H   0  0  0  0  0  0  0  0  0  0  0  0
  146.0809  137.0951  152.7173 H   0  0  0  0  0  0  0  0  0  0  0  0
  145.2397  135.5703  152.8579 H   0  0  0  0  0  0  0  0  0  0  0  0
  145.5896  136.6365  150.0702 H   0  0  0  0  0  0  0  0  0  0  0  0
  147.0594  136.0833  150.8330 H   0  0  0  0  0  0  0  0  0  0  0  0
  147.4300  133.7792  151.2350 H   0  0  0  0  0  0  0  0  0  0  0  0
  146.0974  133.6895  152.3703 H   0  0  0  0  0  0  0  0  0  0  0  0
  146.4696  132.0148  149.8297 H   0  0  0  0  0  0  0  0  0  0  0  0
  146.6095  131.4381  151.4695 H   0  0  0  0  0  0  0  0  0  0  0  0
  144.3803  130.8513  150.4636 H   0  0  0  0  0  0  0  0  0  0  0  0
  144.2312  131.8311  151.8994 H   0  0  0  0  0  0  0  0  0  0  0  0
  142.7192  132.7462  150.3038 H   0  0  0  0  0  0  0  0  0  0  0  0
  144.9509  132.9425  148.2321 H   0  0  0  0  0  0  0  0  0  0  0  0
  143.2894  133.4841  148.0370 H   0  0  0  0  0  0  0  0  0  0  0  0
  143.6362  131.7716  148.2272 H   0  0  0  0  0  0  0  0  0  0  0  0
  143.7992  134.4546  151.6071 H   0  0  0  0  0  0  0  0  0  0  0  0
  143.5921  135.0597  149.9827 H   0  0  0  0  0  0  0  0  0  0  0  0
  140.7404  140.0929  152.4847 H   0  0  0  0  0  0  0  0  0  0  0  0
  145.8832  134.4319  149.5533 H   0  0  0  0  0  0  0  0  0  0  0  0
  1  2  1  0  0  0  0
  1 22  1  0  0  0  0
  1 23  1  0  0  0  0
  1 24  1  0  0  0  0
  2  3  1  0  0  0  0
  3 21  1  0  0  0  0
  3  4  2  0  0  0  0
  4  5  1  0  0  0  0
  4 25  1  0  0  0  0
  5  6  2  0  0  0  0
  5 26  1  0  0  0  0
  6  7  1  0  0  0  0
  6 20  1  0  0  0  0
  7  8  1  0  0  0  0
  7 27  1  0  0  0  0
  8  9  2  0  0  0  0
  8 10  1  0  0  0  0
 10 11  1  0  0  0  0
 10 28  1  0  0  0  0
 11 12  1  0  0  0  0
 11 29  1  0  0  0  0
 11 30  1  0  0  0  0
 12 13  1  0  0  0  0
 12 31  1  0  0  0  0
 12 32  1  0  0  0  0
 13 19  1  0  0  0  0
 13 14  1  0  0  0  0
 13 46  1  0  0  0  0
 14 15  1  0  0  0  0
 14 33  1  0  0  0  0
 14 34  1  0  0  0  0
 15 16  1  0  0  0  0
 15 35  1  0  0  0  0
 15 36  1  0  0  0  0
 16 17  1  0  0  0  0
 16 37  1  0  0  0  0
 16 38  1  0  0  0  0
 17 18  1  0  0  0  0
 17 19  1  0  0  0  0
 17 39  1  0  0  0  0
 18 40  1  0  0  0  0
 18 41  1  0  0  0  0
 18 42  1  0  0  0  0
 19 43  1  0  0  0  0
 19 44  1  0  0  0  0
 20 21  2  0  0  0  0
 20 45  1  0  0  0  0
M  CHG  1  13   1
M  END
> <s_m_source_file>
AV-unprocessed.smi

> <i_m_source_file_index>
1956

> <i_lp_mmshare_version>
43012

> <i_f3d_flags>
0

> <s_epik_input>
W0NIM11PYzFbY0hdW2NIXWMoW2NIXW4xKVtOSF1DKD1PKVtOSF1bQ0gyXVtDSDJdTjJbQ0gyXVtDSDJdW0NIMl1bQ0BASF0oW0NIM10pW0NIMl0y

> <s_epik_cmdline>
J2VwaWtfcHl0aG9uJywgJy1waCcsICc3LjAnLCAnLXRuJywgJzgnLCAnLW1hJywgJzIwMCcsICctbWV0YWxfYmluZGluZycsICctaW1hZScsICc8aW5maWxlLm1hZT4nLCAnLW9tYWUnLCAnPG91dGZpbGUubWFlPic=

> <r_lp_tautomer_probability>
1

> <r_epik_Ionization_Penalty>
0.00179545

> <r_epik_Ionization_Penalty_Charging>
0.00171832

> <r_epik_Ionization_Penalty_Neutral>
7.7124e-05

> <r_epik_State_Penalty>
0.0011618

> <r_epik_Charging_Adjusted_Penalty>
0.00288012

> <i_epik_Tot_Q>
1

> <i_epik_Tot_abs_Q>
1

> <r_epik_Metal_State_Penalty>
-0

> <b_epik_Metal_Only>
0

> <s_lp_Force_Field>
OPLS_2005

> <r_lp_Energy>
22.555

> <b_lp_Chiralities_Consistent>
1

> <s_lp_Variant>
AV-unprocessed.smi:1956-3

> <Gold.Version>
5.8.1

> <Gold.Id.Protein>
6NUR|6NUR_protein|mol2

> <Gold.PLP.Fitness>
46.2695

> <Gold.PLP.PLP>
-38.9731

> <Gold.PLP.part.hbond>
-2.2737

> <Gold.PLP.part.metal>
0.0000

> <Gold.PLP.part.buried>
-3.3182

> <Gold.PLP.part.nonpolar>
-33.3587

> <Gold.PLP.part.repulsive>
0.2677

> <Gold.PLP.ligand.clash>
0.0000

> <Gold.PLP.ligand.torsion>
0.8786

> <Gold.PLP.Chemscore.Hbond>
2.0000

> <Gold.PLP.Chemscore.CHOScore>
0.9973

> <Gold.PLP.Chemscore.Metal>
0.0000

> <Gold.Chemscore.Hbonds>
donor molecule, donor type, donor heavy atom, donor atom, acceptor molecule, acceptor atom, score
      L1  H     7    27       P1 10171  0.01
      L1  H    10    28       P1 10171  1.00
      L1  H    13    46       P1  7921  1.00
      L1  C    20    45       P1 10160  0.12
      L1  C    20    45       P1 10175  0.03

> <Gold.PLP.Chemscore.Internal.Correction>
0.0617

> <Gold.Rescore>
     Score         DG    S(hbond)    S(metal)    S(lipo)     H(rot)  DE(clash)    DE(int)     intcor
     18.34     -19.34       1.87        0.00     102.41       1.71       0.40       0.60       ----

> <Gold.Chemscore.Fitness>
18.3406

> <Gold.Chemscore.DG>
-19.3351

> <Gold.Chemscore.ZeroCoef>
-5.4800

> <Gold.Chemscore.Hbond>
1.8719

> <Gold.Chemscore.Metal>
0.0000

> <Gold.Chemscore.Lipo>
102.4132

> <Gold.Chemscore.Internal_Hbond>
0.0000

> <Gold.Chemscore.DEClash>
0.3982

> <Gold.Chemscore.DEInternal>
0.5964

> <Gold.Chemscore.Rot>
1.7107

> <Gold.Chemscore.Internal.Correction>
   9.000000E+99

> <Gold.Chemscore.Hbonds>
donor molecule, donor type, donor heavy atom, donor atom, acceptor molecule, acceptor atom, score
      L1  H    10    28       P1 10171  1.00
      L1  H    13    46       P1  7921  0.59

> <Gold.Chemscore.Hbond.Weighted>
-6.2522

> <Gold.Chemscore.Metal.Weighted>
-0.0000

> <Gold.Chemscore.Lipo.Weighted>
-11.9823

> <Gold.Chemscore.Internal_Hbond.Weighted>
0.0000

> <Gold.Chemscore.DEClash.Weighted>
0.3982

> <Gold.Chemscore.DEInternal.Weighted>
0.5964

> <Gold.Chemscore.Rot.Weighted>
4.3794

> <Gold.Chemscore.Internal.Correction.Weighted>
   9.000000E+99

> <Gold.Protein.RotatedTorsions>
[ 6907 6896 6895 6894 ] final  -50.11 input  -60.11 | X-H torsion
[ 7974 7965 7964 7962 ] final -106.93 input  175.53 | X-H torsion
[ 8008 7997 7996 7995 ] final   48.67 input   59.86 | X-H torsion
[ 10167 10162 10161 10158 ] final -161.55 input  -65.29 | X-H torsion
[ 10718 10713 10712 10709 ] final   86.93 input   66.30 | X-H torsion
[ 10763 10752 10751 10750 ] final   58.17 input  -60.55 | X-H torsion
[ 11005 11000 10999 10996 ] final   98.86 input  -57.11 | X-H torsion

> <Gold.Protein.ActiveResidues>
 VAL166  LYS551  ARG553  GLY616  TRP617  ASP618  TYR619  PRO620  LYS621  CYS622 
 ASP623  PHE694  ASN695  SER759  ASP760  ASP761  ALA762  ILE779  LEU786  VAL792 
 PHE793  MET794  SER795  GLU796  ALA797  LYS798  CYS799  TRP800  GLU811  SER814 

> <Gold.Protein.RotatedAtoms>
  150.8739  134.8118  159.7174 H   0  0  0  0  0  0  0  0  0  0  0  0  # atno 6907 bound_to 6896
  152.4733  134.4903  159.9703 H   0  0  0  0  0  0  0  0  0  0  0  0  # atno 6908 bound_to 6896
  151.4988  133.3470  159.2901 H   0  0  0  0  0  0  0  0  0  0  0  0  # atno 6909 bound_to 6896
  145.2116  140.9098  143.3311 H   0  0  0  0  0  0  0  0  0  0  0  0  # atno 7974 bound_to 7965
  155.3895  140.3432  155.4250 H   0  0  0  0  0  0  0  0  0  0  0  0  # atno 8008 bound_to 7997
  156.1565  140.1587  156.8716 H   0  0  0  0  0  0  0  0  0  0  0  0  # atno 8009 bound_to 7997
  154.5100  140.0792  156.7952 H   0  0  0  0  0  0  0  0  0  0  0  0  # atno 8010 bound_to 7997
  139.6457  144.0177  152.2125 H   0  0  0  0  0  0  0  0  0  0  0  0  # atno 10167 bound_to 10162
  157.6934  131.0235  150.3047 H   0  0  0  0  0  0  0  0  0  0  0  0  # atno 10718 bound_to 10713
  152.9865  135.5616  154.5509 H   0  0  0  0  0  0  0  0  0  0  0  0  # atno 10763 bound_to 10752
  154.4946  135.2794  155.1471 H   0  0  0  0  0  0  0  0  0  0  0  0  # atno 10764 bound_to 10752
  154.2926  135.6323  153.5444 H   0  0  0  0  0  0  0  0  0  0  0  0  # atno 10765 bound_to 10752
  139.8771  134.9068  156.4519 H   0  0  0  0  0  0  0  0  0  0  0  0  # atno 11005 bound_to 11000
  144.9850  139.3745  143.6243 LP  0  0  0  0  0  0  0  0  0  0  0  0  # atno 17320 bound_to 7965
  146.3396  139.9008  142.8795 LP  0  0  0  0  0  0  0  0  0  0  0  0  # atno 17321 bound_to 7965
  139.9878  144.6383  150.7842 LP  0  0  0  0  0  0  0  0  0  0  0  0  # atno 17342 bound_to 10162
  140.7513  143.2970  151.3178 LP  0  0  0  0  0  0  0  0  0  0  0  0  # atno 17343 bound_to 10162
  156.3557  130.3838  149.7292 LP  0  0  0  0  0  0  0  0  0  0  0  0  # atno 17370 bound_to 10713
  156.4755  130.8016  151.3033 LP  0  0  0  0  0  0  0  0  0  0  0  0  # atno 17371 bound_to 10713
  140.8926  133.7837  155.9589 LP  0  0  0  0  0  0  0  0  0  0  0  0  # atno 17394 bound_to 11000
  140.8737  134.2695  157.5178 LP  0  0  0  0  0  0  0  0  0  0  0  0  # atno 17395 bound_to 11000

$$$$
