AV-unprocessed.smi:2822|AV-procd|sdf|10873|dock5
  -GOLD-   2272015313D 1   1.00000     0.00000
 Structure written by MMmdl.
 40 42  0  0  0  0  0  0  0  0  2 V2000
  150.8431  143.7350  161.2535 Cl  0  0  0  0  0  0  0  0  0  0  0  0
  151.9299  142.4144  161.5097 C   0  0  0  0  0  0  0  0  0  0  0  0
  152.4771  142.1982  162.7912 C   0  0  0  0  0  0  0  0  0  0  0  0
  153.3309  141.1926  163.0757 N   0  0  0  0  0  0  0  0  0  0  0  0
  153.6723  140.3564  162.0736 C   0  0  0  0  0  0  0  0  0  0  0  0
  153.1838  140.4816  160.7576 C   0  0  0  0  0  0  0  0  0  0  0  0
  152.2881  141.5360  160.4609 C   0  0  0  0  0  0  0  0  0  0  0  0
  151.7556  141.7355  159.1777 N   0  0  0  0  0  0  0  0  0  0  0  0
  151.9725  140.7574  158.1229 C   0  0  0  0  0  0  0  0  0  0  0  0
  150.7802  140.6906  157.1582 C   0  0  1  0  0  0  0  0  0  0  0  0
  150.2154  142.0983  156.8630 C   0  0  0  0  0  0  0  0  0  0  0  0
  149.1488  142.0546  155.8337 N   0  3  2  0  0  0  0  0  0  0  0  0
  147.8409  141.5726  156.3555 C   0  0  0  0  0  0  0  0  0  0  0  0
  146.7571  141.6143  155.2684 C   0  0  0  0  0  0  0  0  0  0  0  0
  147.1838  140.7905  154.0484 C   0  0  0  0  0  0  0  0  0  0  0  0
  148.5313  141.3016  153.5211 C   0  0  0  0  0  0  0  0  0  0  0  0
  149.6187  141.3381  154.6158 C   0  0  2  0  0  0  0  0  0  0  0  0
  150.1833  139.9499  154.9848 C   0  0  0  0  0  0  0  0  0  0  0  0
  151.2288  140.1096  155.9367 O   0  0  0  0  0  0  0  0  0  0  0  0
  152.2227  142.8518  163.6125 H   0  0  0  0  0  0  0  0  0  0  0  0
  154.3585  139.5620  162.3268 H   0  0  0  0  0  0  0  0  0  0  0  0
  153.5050  139.7752  160.0073 H   0  0  0  0  0  0  0  0  0  0  0  0
  151.0177  142.4154  159.0594 H   0  0  0  0  0  0  0  0  0  0  0  0
  152.8683  141.0415  157.5693 H   0  0  0  0  0  0  0  0  0  0  0  0
  152.1574  139.7755  158.5606 H   0  0  0  0  0  0  0  0  0  0  0  0
  150.0050  140.0629  157.6008 H   0  0  0  0  0  0  0  0  0  0  0  0
  149.8390  142.5655  157.7739 H   0  0  0  0  0  0  0  0  0  0  0  0
  151.0156  142.7420  156.4950 H   0  0  0  0  0  0  0  0  0  0  0  0
  147.9311  140.5569  156.7405 H   0  0  0  0  0  0  0  0  0  0  0  0
  147.5359  142.1980  157.1953 H   0  0  0  0  0  0  0  0  0  0  0  0
  145.8157  141.2332  155.6653 H   0  0  0  0  0  0  0  0  0  0  0  0
  146.5729  142.6475  154.9707 H   0  0  0  0  0  0  0  0  0  0  0  0
  147.2601  139.7366  154.3179 H   0  0  0  0  0  0  0  0  0  0  0  0
  146.4261  140.8575  153.2670 H   0  0  0  0  0  0  0  0  0  0  0  0
  148.8617  140.6920  152.6794 H   0  0  0  0  0  0  0  0  0  0  0  0
  148.3929  142.3093  153.1265 H   0  0  0  0  0  0  0  0  0  0  0  0
  150.4508  141.9177  154.2125 H   0  0  0  0  0  0  0  0  0  0  0  0
  149.4133  139.2858  155.3790 H   0  0  0  0  0  0  0  0  0  0  0  0
  150.5943  139.4640  154.0997 H   0  0  0  0  0  0  0  0  0  0  0  0
  148.9857  143.0112  155.5530 H   0  0  0  0  0  0  0  0  0  0  0  0
  1  2  1  0  0  0  0
  2  7  1  0  0  0  0
  2  3  2  0  0  0  0
  3  4  1  0  0  0  0
  3 20  1  0  0  0  0
  4  5  2  0  0  0  0
  5  6  1  0  0  0  0
  5 21  1  0  0  0  0
  6  7  2  0  0  0  0
  6 22  1  0  0  0  0
  7  8  1  0  0  0  0
  8  9  1  0  0  0  0
  8 23  1  0  0  0  0
  9 10  1  0  0  0  0
  9 24  1  0  0  0  0
  9 25  1  0  0  0  0
 10 19  1  0  0  0  0
 10 11  1  0  0  0  0
 10 26  1  0  0  0  0
 11 12  1  0  0  0  0
 11 27  1  0  0  0  0
 11 28  1  0  0  0  0
 12 17  1  0  0  0  0
 12 13  1  0  0  0  0
 12 40  1  0  0  0  0
 13 14  1  0  0  0  0
 13 29  1  0  0  0  0
 13 30  1  0  0  0  0
 14 15  1  0  0  0  0
 14 31  1  0  0  0  0
 14 32  1  0  0  0  0
 15 16  1  0  0  0  0
 15 33  1  0  0  0  0
 15 34  1  0  0  0  0
 16 17  1  0  0  0  0
 16 35  1  0  0  0  0
 16 36  1  0  0  0  0
 17 18  1  0  0  0  0
 17 37  1  0  0  0  0
 18 19  1  0  0  0  0
 18 38  1  0  0  0  0
 18 39  1  0  0  0  0
M  CHG  1  12   1
M  END
> <s_m_source_file>
AV-unprocessed.smi

> <i_m_source_file_index>
2822

> <i_lp_mmshare_version>
43012

> <i_f3d_flags>
0

> <s_epik_input>
Q2xjMVtjSF1uW2NIXVtjSF1jMVtOSF1bQ0gyXVtDQEhdKFtDSDJdMilPW0NIMl1bQ0BASF0oTjIzKVtDSDJdW0NIMl1bQ0gyXVtDSDJdMw==

> <s_epik_cmdline>
J2VwaWtfcHl0aG9uJywgJy1waCcsICc3LjAnLCAnLXRuJywgJzgnLCAnLW1hJywgJzIwMCcsICctbWV0YWxfYmluZGluZycsICctaW1hZScsICc8aW5maWxlLm1hZT4nLCAnLW9tYWUnLCAnPG91dGZpbGUubWFlPic=

> <r_lp_tautomer_probability>
0.999999

> <r_epik_Ionization_Penalty>
0.88937

> <r_epik_Ionization_Penalty_Charging>
0.0803403

> <r_epik_Ionization_Penalty_Neutral>
0.80903

> <r_epik_State_Penalty>
0.931884

> <r_epik_Charging_Adjusted_Penalty>
1.01222

> <i_epik_Tot_Q>
1

> <i_epik_Tot_abs_Q>
1

> <r_epik_Metal_State_Penalty>
0.0782275

> <b_epik_Metal_Only>
0

> <s_lp_Force_Field>
OPLS_2005

> <r_lp_Energy>
32.5478

> <b_lp_Chiralities_Consistent>
1

> <s_lp_Variant>
AV-unprocessed.smi:2822-14

> <Gold.Version>
5.8.1

> <Gold.Id.Protein>
6NUR|6NUR_protein|mol2

> <Gold.PLP.Fitness>
45.7009

> <Gold.PLP.PLP>
-40.4767

> <Gold.PLP.part.hbond>
-2.0000

> <Gold.PLP.part.metal>
0.0000

> <Gold.PLP.part.buried>
-2.1287

> <Gold.PLP.part.nonpolar>
-35.0903

> <Gold.PLP.part.repulsive>
0.2091

> <Gold.PLP.ligand.clash>
0.0000

> <Gold.PLP.ligand.torsion>
0.3888

> <Gold.PLP.Chemscore.Hbond>
2.0000

> <Gold.PLP.Chemscore.CHOScore>
0.0000

> <Gold.PLP.Chemscore.Metal>
0.0000

> <Gold.Chemscore.Hbonds>
donor molecule, donor type, donor heavy atom, donor atom, acceptor molecule, acceptor atom, score
      L1  H    12    40       P1  8028  2.00

> <Gold.PLP.Chemscore.Internal.Correction>
0.0018

> <Gold.Rescore>
     Score         DG    S(hbond)    S(metal)    S(lipo)     H(rot)  DE(clash)    DE(int)     intcor
     18.98     -19.33       0.99        0.00     115.64       1.17       0.18       0.17       ----

> <Gold.Chemscore.Fitness>
18.9828

> <Gold.Chemscore.DG>
-19.3281

> <Gold.Chemscore.ZeroCoef>
-5.4800

> <Gold.Chemscore.Hbond>
0.9915

> <Gold.Chemscore.Metal>
0.0000

> <Gold.Chemscore.Lipo>
115.6410

> <Gold.Chemscore.Internal_Hbond>
0.0000

> <Gold.Chemscore.DEClash>
0.1791

> <Gold.Chemscore.DEInternal>
0.1662

> <Gold.Chemscore.Rot>
1.1693

> <Gold.Chemscore.Internal.Correction>
   9.000000E+99

> <Gold.Chemscore.Hbonds>
donor molecule, donor type, donor heavy atom, donor atom, acceptor molecule, acceptor atom, score
      L1  H    12    40       P1  8028  1.00

> <Gold.Chemscore.Hbond.Weighted>
-3.3115

> <Gold.Chemscore.Metal.Weighted>
-0.0000

> <Gold.Chemscore.Lipo.Weighted>
-13.5300

> <Gold.Chemscore.Internal_Hbond.Weighted>
0.0000

> <Gold.Chemscore.DEClash.Weighted>
0.1791

> <Gold.Chemscore.DEInternal.Weighted>
0.1662

> <Gold.Chemscore.Rot.Weighted>
2.9934

> <Gold.Chemscore.Internal.Correction.Weighted>
   9.000000E+99

> <Gold.Protein.RotatedTorsions>
[ 6907 6896 6895 6894 ] final   11.87 input  -60.11 | X-H torsion
[ 7974 7965 7964 7962 ] final  -17.93 input  175.53 | X-H torsion
[ 8008 7997 7996 7995 ] final -156.49 input   59.86 | X-H torsion
[ 10167 10162 10161 10158 ] final  -76.09 input  -65.29 | X-H torsion
[ 10718 10713 10712 10709 ] final   75.94 input   66.30 | X-H torsion
[ 10763 10752 10751 10750 ] final -119.94 input  -60.55 | X-H torsion
[ 11005 11000 10999 10996 ] final -135.63 input  -57.11 | X-H torsion

> <Gold.Protein.ActiveResidues>
 VAL166  LYS551  ARG553  GLY616  TRP617  ASP618  TYR619  PRO620  LYS621  CYS622 
 ASP623  PHE694  ASN695  SER759  ASP760  ASP761  ALA762  ILE779  LEU786  VAL792 
 PHE793  MET794  SER795  GLU796  ALA797  LYS798  CYS799  TRP800  GLU811  SER814 

> <Gold.Protein.RotatedAtoms>
  151.7612  135.0809  160.0345 H   0  0  0  0  0  0  0  0  0  0  0  0  # atno 6907 bound_to 6896
  152.3351  133.5998  159.5845 H   0  0  0  0  0  0  0  0  0  0  0  0  # atno 6908 bound_to 6896
  150.7446  133.9724  159.3591 H   0  0  0  0  0  0  0  0  0  0  0  0  # atno 6909 bound_to 6896
  146.1917  140.3849  142.8455 H   0  0  0  0  0  0  0  0  0  0  0  0  # atno 7974 bound_to 7965
  155.7179  140.0786  157.2343 H   0  0  0  0  0  0  0  0  0  0  0  0  # atno 8008 bound_to 7997
  154.4049  140.1618  156.2424 H   0  0  0  0  0  0  0  0  0  0  0  0  # atno 8009 bound_to 7997
  155.9223  140.3397  155.6185 H   0  0  0  0  0  0  0  0  0  0  0  0  # atno 8010 bound_to 7997
  140.4887  143.2385  151.7943 H   0  0  0  0  0  0  0  0  0  0  0  0  # atno 10167 bound_to 10162
  157.6654  130.9750  150.1425 H   0  0  0  0  0  0  0  0  0  0  0  0  # atno 10718 bound_to 10713
  154.8631  135.4220  154.2379 H   0  0  0  0  0  0  0  0  0  0  0  0  # atno 10763 bound_to 10752
  153.3351  135.6990  153.6920 H   0  0  0  0  0  0  0  0  0  0  0  0  # atno 10764 bound_to 10752
  153.5921  135.3553  155.2888 H   0  0  0  0  0  0  0  0  0  0  0  0  # atno 10765 bound_to 10752
  140.8881  134.1847  157.4546 H   0  0  0  0  0  0  0  0  0  0  0  0  # atno 11005 bound_to 11000
  144.8500  140.6987  143.6174 LP  0  0  0  0  0  0  0  0  0  0  0  0  # atno 17320 bound_to 7965
  145.3771  139.1645  143.4300 LP  0  0  0  0  0  0  0  0  0  0  0  0  # atno 17321 bound_to 7965
  139.4847  144.4678  151.9462 LP  0  0  0  0  0  0  0  0  0  0  0  0  # atno 17342 bound_to 10162
  140.3765  144.2790  150.5913 LP  0  0  0  0  0  0  0  0  0  0  0  0  # atno 17343 bound_to 10162
  156.2244  130.3676  149.8517 LP  0  0  0  0  0  0  0  0  0  0  0  0  # atno 17370 bound_to 10713
  156.6361  130.8686  151.3505 LP  0  0  0  0  0  0  0  0  0  0  0  0  # atno 17371 bound_to 10713
  139.8726  134.9846  156.5248 LP  0  0  0  0  0  0  0  0  0  0  0  0  # atno 17394 bound_to 11000
  140.8381  133.8227  155.9048 LP  0  0  0  0  0  0  0  0  0  0  0  0  # atno 17395 bound_to 11000

$$$$
