AV-unprocessed.smi:53|AV-procd|sdf|520|dock10
  -GOLD-   2262016393D 1   1.00000     0.00000
 Structure written by MMmdl.
 30 31  0  0  0  0  0  0  0  0  1 V2000
  146.3417  139.2443  152.9454 N   0  0  0  0  0  0  0  0  0  0  0  0
  147.4315  139.6682  153.6008 C   0  0  0  0  0  0  0  0  0  0  0  0
  147.5028  141.0231  154.0994 C   0  0  0  0  0  0  0  0  0  0  0  0
  148.6354  141.3763  154.7459 C   0  0  0  0  0  0  0  0  0  0  0  0
  149.6936  140.4949  154.9199 N   0  0  0  0  0  0  0  0  0  0  0  0
  150.9460  140.9125  155.6578 C   0  0  1  0  0  0  0  0  0  0  0  0
  150.7234  142.1588  156.2507 O   0  0  0  0  0  0  0  0  0  0  0  0
  151.1310  142.1343  157.6152 C   0  0  1  0  0  0  0  0  0  0  0  0
  150.3195  143.1612  158.4201 C   0  0  0  0  0  0  0  0  0  0  0  0
  150.4902  144.4510  157.8723 O   0  0  0  0  0  0  0  0  0  0  0  0
  150.8581  140.6847  158.0189 C   0  0  2  0  0  0  0  0  0  0  0  0
  151.5614  140.2896  159.1818 O   0  0  0  0  0  0  0  0  0  0  0  0
  151.2674  139.9054  156.7742 C   0  0  2  0  0  0  0  0  0  0  0  0
  152.6422  139.5639  156.7736 O   0  0  0  0  0  0  0  0  0  0  0  0
  149.5851  139.1675  154.4404 C   0  0  0  0  0  0  0  0  0  0  0  0
  150.4800  138.3400  154.6079 O   0  0  0  0  0  0  0  0  0  0  0  0
  148.4315  138.8282  153.7854 N   0  0  0  0  0  0  0  0  0  0  0  0
  151.7341  141.0209  154.9100 H   0  0  0  0  0  0  0  0  0  0  0  0
  152.2024  142.3367  157.6757 H   0  0  0  0  0  0  0  0  0  0  0  0
  149.7892  140.5476  158.1886 H   0  0  0  0  0  0  0  0  0  0  0  0
  150.6860  138.9893  156.6596 H   0  0  0  0  0  0  0  0  0  0  0  0
  146.2934  138.2962  152.6011 H   0  0  0  0  0  0  0  0  0  0  0  0
  145.5668  139.8753  152.8010 H   0  0  0  0  0  0  0  0  0  0  0  0
  146.7066  141.7438  153.9787 H   0  0  0  0  0  0  0  0  0  0  0  0
  148.6989  142.3823  155.1338 H   0  0  0  0  0  0  0  0  0  0  0  0
  149.2620  142.8968  158.4507 H   0  0  0  0  0  0  0  0  0  0  0  0
  150.6747  143.1955  159.4504 H   0  0  0  0  0  0  0  0  0  0  0  0
  149.9206  144.5376  157.1232 H   0  0  0  0  0  0  0  0  0  0  0  0
  151.1931  140.7447  159.9240 H   0  0  0  0  0  0  0  0  0  0  0  0
  152.7572  138.7852  157.2965 H   0  0  0  0  0  0  0  0  0  0  0  0
  1  2  1  0  0  0  0
  1 22  1  0  0  0  0
  1 23  1  0  0  0  0
  2 17  2  0  0  0  0
  2  3  1  0  0  0  0
  3  4  2  0  0  0  0
  3 24  1  0  0  0  0
  4  5  1  0  0  0  0
  4 25  1  0  0  0  0
  5  6  1  0  0  0  0
  5 15  1  0  0  0  0
  6 18  1  0  0  0  0
  6 13  1  0  0  0  0
  6  7  1  0  0  0  0
  7  8  1  0  0  0  0
  8 19  1  0  0  0  0
  8  9  1  0  0  0  0
  8 11  1  0  0  0  0
  9 10  1  0  0  0  0
  9 26  1  0  0  0  0
  9 27  1  0  0  0  0
 10 28  1  0  0  0  0
 11 20  1  0  0  0  0
 11 12  1  0  0  0  0
 11 13  1  0  0  0  0
 12 29  1  0  0  0  0
 13 21  1  0  0  0  0
 13 14  1  0  0  0  0
 14 30  1  0  0  0  0
 15 16  2  0  0  0  0
 15 17  1  0  0  0  0
M  END
> <s_m_source_file>
AV-unprocessed.smi

> <i_m_source_file_index>
53

> <i_lp_mmshare_version>
43012

> <i_f3d_flags>
0

> <s_epik_input>
W05IMl1jMVtjSF1bY0hdbihjKD1PKW4xKVtDQEBIXTJPW0NASF0oW0NIMl1bT0hdKVtDQEBIXShbT0hdKVtDQEBIXTJbT0hd

> <s_epik_cmdline>
J2VwaWtfcHl0aG9uJywgJy1waCcsICc3LjAnLCAnLXRuJywgJzgnLCAnLW1hJywgJzIwMCcsICctbWV0YWxfYmluZGluZycsICctaW1hZScsICc8aW5maWxlLm1hZT4nLCAnLW9tYWUnLCAnPG91dGZpbGUubWFlPic=

> <r_lp_tautomer_probability>
0.99996

> <r_epik_Ionization_Penalty>
0.00069087

> <r_epik_Ionization_Penalty_Charging>
2.61959e-08

> <r_epik_Ionization_Penalty_Neutral>
0.000690844

> <r_epik_State_Penalty>
1.15523e-05

> <r_epik_Charging_Adjusted_Penalty>
1.15785e-05

> <i_epik_Tot_Q>
0

> <i_epik_Tot_abs_Q>
0

> <r_epik_Metal_State_Penalty>
-0

> <b_epik_Metal_Only>
0

> <s_epik_Chemistry_Notes>
This compound contains an acetal/aminal-like group ( X-CH(R)-Y where X, Y are N, S, or O) that may be acid/base labile, releasing an aldehyde.

> <s_lp_Force_Field>
OPLS_2005

> <r_lp_Energy>
33.3856

> <b_lp_Chiralities_Consistent>
1

> <s_lp_Variant>
AV-unprocessed.smi:53-8

> <Gold.Version>
5.8.1

> <Gold.Id.Protein>
6NUR|6NUR_protein|mol2

> <Gold.PLP.Fitness>
38.6781

> <Gold.PLP.PLP>
-27.0522

> <Gold.PLP.part.hbond>
-3.5051

> <Gold.PLP.part.metal>
0.0000

> <Gold.PLP.part.buried>
-3.4928

> <Gold.PLP.part.nonpolar>
-20.7142

> <Gold.PLP.part.repulsive>
0.9660

> <Gold.PLP.ligand.clash>
0.0000

> <Gold.PLP.ligand.torsion>
0.1833

> <Gold.PLP.Chemscore.Hbond>
2.9920

> <Gold.PLP.Chemscore.CHOScore>
1.0000

> <Gold.PLP.Chemscore.Metal>
0.0000

> <Gold.Chemscore.Hbonds>
donor molecule, donor type, donor heavy atom, donor atom, acceptor molecule, acceptor atom, score
      L1  H     1    23       P1 10175  1.00
      L1  H    10    28       P1  8028  1.00
      P1  H  7997  8009       L1    14  1.00
      L1  C     4    25       P1  8028  1.00

> <Gold.PLP.Chemscore.Internal.Correction>
0.0166

> <Gold.Rescore>
     Score         DG    S(hbond)    S(metal)    S(lipo)     H(rot)  DE(clash)    DE(int)     intcor
      8.43      -9.97       2.81        0.00      39.23       3.71       0.00       1.54       ----

> <Gold.Chemscore.Fitness>
8.4255

> <Gold.Chemscore.DG>
-9.9740

> <Gold.Chemscore.ZeroCoef>
-5.4800

> <Gold.Chemscore.Hbond>
2.8144

> <Gold.Chemscore.Metal>
0.0000

> <Gold.Chemscore.Lipo>
39.2339

> <Gold.Chemscore.Internal_Hbond>
0.0000

> <Gold.Chemscore.DEClash>
0.0044

> <Gold.Chemscore.DEInternal>
1.5441

> <Gold.Chemscore.Rot>
3.7095

> <Gold.Chemscore.Internal.Correction>
   9.000000E+99

> <Gold.Chemscore.Hbonds>
donor molecule, donor type, donor heavy atom, donor atom, acceptor molecule, acceptor atom, score
      L1  H     1    23       P1 10175  0.95
      L1  H    10    28       P1  8028  0.35
      P1  H  7997  8009       L1    14  0.40

> <Gold.Chemscore.Hbond.Weighted>
-9.4000

> <Gold.Chemscore.Metal.Weighted>
-0.0000

> <Gold.Chemscore.Lipo.Weighted>
-4.5904

> <Gold.Chemscore.Internal_Hbond.Weighted>
0.0000

> <Gold.Chemscore.DEClash.Weighted>
0.0044

> <Gold.Chemscore.DEInternal.Weighted>
1.5441

> <Gold.Chemscore.Rot.Weighted>
9.4964

> <Gold.Chemscore.Internal.Correction.Weighted>
   9.000000E+99

> <Gold.Protein.RotatedTorsions>
[ 6907 6896 6895 6894 ] final  137.93 input  -60.11 | X-H torsion
[ 7974 7965 7964 7962 ] final  -50.64 input  175.53 | X-H torsion
[ 8008 7997 7996 7995 ] final -168.97 input   59.86 | X-H torsion
[ 10167 10162 10161 10158 ] final  -74.29 input  -65.29 | X-H torsion
[ 10718 10713 10712 10709 ] final  -81.46 input   66.30 | X-H torsion
[ 10763 10752 10751 10750 ] final  108.78 input  -60.55 | X-H torsion
[ 11005 11000 10999 10996 ] final -112.98 input  -57.11 | X-H torsion

> <Gold.Protein.ActiveResidues>
 VAL166  LYS551  ARG553  GLY616  TRP617  ASP618  TYR619  PRO620  LYS621  CYS622 
 ASP623  PHE694  ASN695  SER759  ASP760  ASP761  ALA762  ILE779  LEU786  VAL792 
 PHE793  MET794  SER795  GLU796  ALA797  LYS798  CYS799  TRP800  GLU811  SER814 

> <Gold.Protein.RotatedAtoms>
  152.2724  133.5394  159.5447 H   0  0  0  0  0  0  0  0  0  0  0  0  # atno 6907 bound_to 6896
  150.7164  134.0679  159.3863 H   0  0  0  0  0  0  0  0  0  0  0  0  # atno 6908 bound_to 6896
  151.8593  135.0530  160.0518 H   0  0  0  0  0  0  0  0  0  0  0  0  # atno 6909 bound_to 6896
  145.9277  140.7777  142.9615 H   0  0  0  0  0  0  0  0  0  0  0  0  # atno 7974 bound_to 7965
  155.8986  140.1037  157.1366 H   0  0  0  0  0  0  0  0  0  0  0  0  # atno 8008 bound_to 7997
  154.4023  140.1297  156.4471 H   0  0  0  0  0  0  0  0  0  0  0  0  # atno 8009 bound_to 7997
  155.7449  140.3466  155.5124 H   0  0  0  0  0  0  0  0  0  0  0  0  # atno 8010 bound_to 7997
  140.5039  143.2356  151.7706 H   0  0  0  0  0  0  0  0  0  0  0  0  # atno 10167 bound_to 10162
  156.0050  130.4604  150.3956 H   0  0  0  0  0  0  0  0  0  0  0  0  # atno 10718 bound_to 10713
  153.4255  135.3801  155.2138 H   0  0  0  0  0  0  0  0  0  0  0  0  # atno 10763 bound_to 10752
  154.8747  135.3827  154.4332 H   0  0  0  0  0  0  0  0  0  0  0  0  # atno 10764 bound_to 10752
  153.4858  135.7088  153.5975 H   0  0  0  0  0  0  0  0  0  0  0  0  # atno 10765 bound_to 10752
  141.0642  133.9485  157.2609 H   0  0  0  0  0  0  0  0  0  0  0  0  # atno 11005 bound_to 11000
  144.6760  140.2077  143.7380 LP  0  0  0  0  0  0  0  0  0  0  0  0  # atno 17320 bound_to 7965
  145.8467  139.2156  143.1796 LP  0  0  0  0  0  0  0  0  0  0  0  0  # atno 17321 bound_to 7965
  139.4879  144.4484  151.9683 LP  0  0  0  0  0  0  0  0  0  0  0  0  # atno 17342 bound_to 10162
  140.3574  144.3015  150.5939 LP  0  0  0  0  0  0  0  0  0  0  0  0  # atno 17343 bound_to 10162
  157.2028  131.0442  151.2641 LP  0  0  0  0  0  0  0  0  0  0  0  0  # atno 17370 bound_to 10713
  157.3960  130.7307  149.6732 LP  0  0  0  0  0  0  0  0  0  0  0  0  # atno 17371 bound_to 10713
  139.9461  135.0184  156.8856 LP  0  0  0  0  0  0  0  0  0  0  0  0  # atno 17394 bound_to 11000
  140.5806  134.0356  155.7463 LP  0  0  0  0  0  0  0  0  0  0  0  0  # atno 17395 bound_to 11000

$$$$
