AV-unprocessed.smi:2988|AV-procd|sdf|11388|dock6
  -GOLD-   2272016313D 1   1.00000     0.00000
 Structure written by MMmdl.
 37 38  0  0  0  0  0  0  0  0  1 V2000
  146.3088  138.4632  156.7848 C   0  0  0  0  0  0  0  0  0  0  0  0
  146.5456  139.5619  155.7339 C   0  0  1  0  0  0  0  0  0  0  0  0
  146.5883  140.9622  156.3832 C   0  0  0  0  0  0  0  0  0  0  0  0
  146.7782  142.0686  155.3329 C   0  0  0  0  0  0  0  0  0  0  0  0
  148.0288  141.8212  154.4759 C   0  0  0  0  0  0  0  0  0  0  0  0
  147.9918  140.4263  153.8267 C   0  0  0  0  0  0  0  0  0  0  0  0
  147.8070  139.3052  154.8724 C   0  0  1  0  0  0  0  0  0  0  0  0
  148.9896  139.1973  155.7215 N   0  0  0  0  0  0  0  0  0  0  0  0
  150.2685  139.3657  155.3482 C   0  0  0  0  0  0  0  0  0  0  0  0
  150.6026  139.6000  154.1877 O   0  0  0  0  0  0  0  0  0  0  0  0
  151.3474  139.2702  156.4423 C   0  0  0  0  0  0  0  0  0  0  0  0
  151.4859  140.4821  157.2695 N   0  0  0  0  0  0  0  0  0  0  0  0
  150.5612  141.4702  156.9796 N   0  0  0  0  0  0  0  0  0  0  0  0
  150.6245  142.5993  157.5972 C   0  0  0  0  0  0  0  0  0  0  0  0
  151.6342  142.8758  158.5950 C   0  0  0  0  0  0  0  0  0  0  0  0
  151.6752  144.4131  159.3838 Cl  0  0  0  0  0  0  0  0  0  0  0  0
  152.5282  141.8962  158.8809 C   0  0  0  0  0  0  0  0  0  0  0  0
  153.7694  142.1544  160.0583 Cl  0  0  0  0  0  0  0  0  0  0  0  0
  152.4835  140.5949  158.2006 C   0  0  0  0  0  0  0  0  0  0  0  0
  153.2817  139.6843  158.4249 O   0  0  0  0  0  0  0  0  0  0  0  0
  147.1003  138.4421  157.5348 H   0  0  0  0  0  0  0  0  0  0  0  0
  146.2643  137.4785  156.3188 H   0  0  0  0  0  0  0  0  0  0  0  0
  145.3655  138.6215  157.3082 H   0  0  0  0  0  0  0  0  0  0  0  0
  145.6872  139.5430  155.0607 H   0  0  0  0  0  0  0  0  0  0  0  0
  145.6666  141.1437  156.9369 H   0  0  0  0  0  0  0  0  0  0  0  0
  147.3969  141.0118  157.1140 H   0  0  0  0  0  0  0  0  0  0  0  0
  145.8989  142.1142  154.6890 H   0  0  0  0  0  0  0  0  0  0  0  0
  146.8513  143.0389  155.8247 H   0  0  0  0  0  0  0  0  0  0  0  0
  148.1065  142.5872  153.7040 H   0  0  0  0  0  0  0  0  0  0  0  0
  148.9220  141.9191  155.0942 H   0  0  0  0  0  0  0  0  0  0  0  0
  147.1694  140.3874  153.1115 H   0  0  0  0  0  0  0  0  0  0  0  0
  148.9012  140.2622  153.2474 H   0  0  0  0  0  0  0  0  0  0  0  0
  147.6745  138.3579  154.3460 H   0  0  0  0  0  0  0  0  0  0  0  0
  148.8171  139.0033  156.6971 H   0  0  0  0  0  0  0  0  0  0  0  0
  151.1086  138.4129  157.0742 H   0  0  0  0  0  0  0  0  0  0  0  0
  152.3018  139.0249  155.9731 H   0  0  0  0  0  0  0  0  0  0  0  0
  149.9209  143.4082  157.3988 H   0  0  0  0  0  0  0  0  0  0  0  0
  1  2  1  0  0  0  0
  1 21  1  0  0  0  0
  1 22  1  0  0  0  0
  1 23  1  0  0  0  0
  2  7  1  0  0  0  0
  2  3  1  0  0  0  0
  2 24  1  0  0  0  0
  3  4  1  0  0  0  0
  3 25  1  0  0  0  0
  3 26  1  0  0  0  0
  4  5  1  0  0  0  0
  4 27  1  0  0  0  0
  4 28  1  0  0  0  0
  5  6  1  0  0  0  0
  5 29  1  0  0  0  0
  5 30  1  0  0  0  0
  6  7  1  0  0  0  0
  6 31  1  0  0  0  0
  6 32  1  0  0  0  0
  7  8  1  0  0  0  0
  7 33  1  0  0  0  0
  8  9  1  0  0  0  0
  8 34  1  0  0  0  0
  9 10  2  0  0  0  0
  9 11  1  0  0  0  0
 11 12  1  0  0  0  0
 11 35  1  0  0  0  0
 11 36  1  0  0  0  0
 12 19  1  0  0  0  0
 12 13  1  0  0  0  0
 13 14  2  0  0  0  0
 14 15  1  0  0  0  0
 14 37  1  0  0  0  0
 15 16  1  0  0  0  0
 15 17  2  0  0  0  0
 17 18  1  0  0  0  0
 17 19  1  0  0  0  0
 19 20  2  0  0  0  0
M  END
> <s_m_source_file>
AV-unprocessed.smi

> <i_m_source_file_index>
2988

> <i_lp_mmshare_version>
43012

> <i_f3d_flags>
0

> <s_epik_input>
W0NIM11bQ0BASF0xW0NIMl1bQ0gyXVtDSDJdW0NIMl1bQ0BIXTFbTkhdQyg9TylbQ0gyXW4ybltjSF1jKENsKWMoQ2wpYzI9Tw==

> <s_epik_cmdline>
J2VwaWtfcHl0aG9uJywgJy1waCcsICc3LjAnLCAnLXRuJywgJzgnLCAnLW1hJywgJzIwMCcsICctbWV0YWxfYmluZGluZycsICctaW1hZScsICc8aW5maWxlLm1hZT4nLCAnLW9tYWUnLCAnPG91dGZpbGUubWFlPic=

> <r_lp_tautomer_probability>
1

> <r_epik_Ionization_Penalty>
1.90782e-08

> <r_epik_Ionization_Penalty_Charging>
3.13143e-11

> <r_epik_Ionization_Penalty_Neutral>
1.90469e-08

> <r_epik_State_Penalty>
-0

> <r_epik_Charging_Adjusted_Penalty>
3.13143e-11

> <i_epik_Tot_Q>
0

> <i_epik_Tot_abs_Q>
0

> <r_epik_Metal_State_Penalty>
-0

> <b_epik_Metal_Only>
0

> <s_lp_Force_Field>
OPLS_2005

> <r_lp_Energy>
22.2561

> <b_lp_Chiralities_Consistent>
1

> <s_lp_Variant>
AV-unprocessed.smi:2988-2

> <Gold.Version>
5.8.1

> <Gold.Id.Protein>
6NUR|6NUR_protein|mol2

> <Gold.PLP.Fitness>
38.4979

> <Gold.PLP.PLP>
-30.7120

> <Gold.PLP.part.hbond>
-2.0000

> <Gold.PLP.part.metal>
0.0000

> <Gold.PLP.part.buried>
-1.5696

> <Gold.PLP.part.nonpolar>
-27.4071

> <Gold.PLP.part.repulsive>
0.3913

> <Gold.PLP.ligand.clash>
0.0000

> <Gold.PLP.ligand.torsion>
0.6110

> <Gold.PLP.Chemscore.Hbond>
2.0000

> <Gold.PLP.Chemscore.CHOScore>
1.0000

> <Gold.PLP.Chemscore.Metal>
0.0000

> <Gold.Chemscore.Hbonds>
donor molecule, donor type, donor heavy atom, donor atom, acceptor molecule, acceptor atom, score
      P1  H  7989  7998       L1    10  1.00
      P1  H  7997  8009       L1    20  1.00
      L1  C    14    37       P1  8028  1.00

> <Gold.PLP.Chemscore.Internal.Correction>
0.0080

> <Gold.Rescore>
     Score         DG    S(hbond)    S(metal)    S(lipo)     H(rot)  DE(clash)    DE(int)     intcor
     13.94     -16.88       1.89        0.00      76.27       1.50       0.03       2.90       ----

> <Gold.Chemscore.Fitness>
13.9449

> <Gold.Chemscore.DG>
-16.8795

> <Gold.Chemscore.ZeroCoef>
-5.4800

> <Gold.Chemscore.Hbond>
1.8891

> <Gold.Chemscore.Metal>
0.0000

> <Gold.Chemscore.Lipo>
76.2720

> <Gold.Chemscore.Internal_Hbond>
0.0000

> <Gold.Chemscore.DEClash>
0.0310

> <Gold.Chemscore.DEInternal>
2.9036

> <Gold.Chemscore.Rot>
1.4977

> <Gold.Chemscore.Internal.Correction>
   9.000000E+99

> <Gold.Chemscore.Hbonds>
donor molecule, donor type, donor heavy atom, donor atom, acceptor molecule, acceptor atom, score
      P1  H  7989  7998       L1    10  1.00
      P1  H  7997  8009       L1    20  0.25

> <Gold.Chemscore.Hbond.Weighted>
-6.3097

> <Gold.Chemscore.Metal.Weighted>
-0.0000

> <Gold.Chemscore.Lipo.Weighted>
-8.9238

> <Gold.Chemscore.Internal_Hbond.Weighted>
0.0000

> <Gold.Chemscore.DEClash.Weighted>
0.0310

> <Gold.Chemscore.DEInternal.Weighted>
2.9036

> <Gold.Chemscore.Rot.Weighted>
3.8341

> <Gold.Chemscore.Internal.Correction.Weighted>
   9.000000E+99

> <Gold.Protein.RotatedTorsions>
[ 6907 6896 6895 6894 ] final  128.34 input  -60.11 | X-H torsion
[ 7974 7965 7964 7962 ] final -131.21 input  175.53 | X-H torsion
[ 8008 7997 7996 7995 ] final  154.01 input   59.86 | X-H torsion
[ 10167 10162 10161 10158 ] final -111.85 input  -65.29 | X-H torsion
[ 10718 10713 10712 10709 ] final  -29.81 input   66.30 | X-H torsion
[ 10763 10752 10751 10750 ] final  114.83 input  -60.55 | X-H torsion
[ 11005 11000 10999 10996 ] final -158.18 input  -57.11 | X-H torsion

> <Gold.Protein.ActiveResidues>
 VAL166  LYS551  ARG553  GLY616  TRP617  ASP618  TYR619  PRO620  LYS621  CYS622 
 ASP623  PHE694  ASN695  SER759  ASP760  ASP761  ALA762  ILE779  LEU786  VAL792 
 PHE793  MET794  SER795  GLU796  ALA797  LYS798  CYS799  TRP800  GLU811  SER814 

> <Gold.Protein.RotatedAtoms>
  152.3729  133.6442  159.6100 H   0  0  0  0  0  0  0  0  0  0  0  0  # atno 6907 bound_to 6896
  150.7682  133.9241  159.3416 H   0  0  0  0  0  0  0  0  0  0  0  0  # atno 6908 bound_to 6896
  151.7060  135.0922  160.0310 H   0  0  0  0  0  0  0  0  0  0  0  0  # atno 6909 bound_to 6896
  144.9401  140.7229  143.4852 H   0  0  0  0  0  0  0  0  0  0  0  0  # atno 7974 bound_to 7965
  156.2553  140.1978  156.6579 H   0  0  0  0  0  0  0  0  0  0  0  0  # atno 8008 bound_to 7997
  154.6487  140.0574  156.9955 H   0  0  0  0  0  0  0  0  0  0  0  0  # atno 8009 bound_to 7997
  155.1452  140.3246  155.4446 H   0  0  0  0  0  0  0  0  0  0  0  0  # atno 8010 bound_to 7997
  140.1291  143.4376  152.1639 H   0  0  0  0  0  0  0  0  0  0  0  0  # atno 10167 bound_to 10162
  156.4077  130.4402  149.7275 H   0  0  0  0  0  0  0  0  0  0  0  0  # atno 10718 bound_to 10713
  153.5132  135.3613  155.2596 H   0  0  0  0  0  0  0  0  0  0  0  0  # atno 10763 bound_to 10752
  154.8740  135.4027  154.3345 H   0  0  0  0  0  0  0  0  0  0  0  0  # atno 10764 bound_to 10752
  153.4002  135.7074  153.6498 H   0  0  0  0  0  0  0  0  0  0  0  0  # atno 10765 bound_to 10752
  140.6564  134.4395  157.5235 H   0  0  0  0  0  0  0  0  0  0  0  0  # atno 11005 bound_to 11000
  145.3004  139.1852  143.4692 LP  0  0  0  0  0  0  0  0  0  0  0  0  # atno 17320 bound_to 7965
  146.3282  140.2995  142.8620 LP  0  0  0  0  0  0  0  0  0  0  0  0  # atno 17321 bound_to 7965
  139.5529  144.7351  151.4382 LP  0  0  0  0  0  0  0  0  0  0  0  0  # atno 17342 bound_to 10162
  140.6827  143.8044  150.7143 LP  0  0  0  0  0  0  0  0  0  0  0  0  # atno 17343 bound_to 10162
  156.4266  130.7795  151.2813 LP  0  0  0  0  0  0  0  0  0  0  0  0  # atno 17370 bound_to 10713
  157.7506  131.0166  150.3553 LP  0  0  0  0  0  0  0  0  0  0  0  0  # atno 17371 bound_to 10713
  139.9028  134.8517  156.1827 LP  0  0  0  0  0  0  0  0  0  0  0  0  # atno 17394 bound_to 11000
  141.0498  133.6894  156.1750 LP  0  0  0  0  0  0  0  0  0  0  0  0  # atno 17395 bound_to 11000

$$$$
