AV-unprocessed.smi:2750|AV-procd|sdf|10589|dock9
  -GOLD-   2272015 43D 1   1.00000     0.00000
 Structure written by MMmdl.
 25 26  0  0  0  0  0  0  0  0  2 V2000
  151.9988  135.7381  156.5610 O   0  0  0  0  0  0  0  0  0  0  0  0
  152.2671  136.6575  157.3647 C   0  0  0  0  0  0  0  0  0  0  0  0
  152.0618  136.6267  158.5985 O   0  5  0  0  0  0  0  0  0  0  0  0
  152.9121  137.9202  156.7893 C   0  0  0  0  0  0  0  0  0  0  0  0
  151.9337  138.8254  156.2142 N   0  0  0  0  0  0  0  0  0  0  0  0
  150.8343  139.3989  156.8187 C   0  0  0  0  0  0  0  0  0  0  0  0
  150.2624  140.1241  155.8131 C   0  0  0  0  0  0  0  0  0  0  0  0
  149.0041  140.9387  155.8346 C   0  0  0  0  0  0  0  0  0  0  0  0
  148.5414  141.3589  154.4246 C   0  0  2  0  0  0  0  0  0  0  0  0
  147.7315  142.5659  154.4211 N   0  0  0  0  0  0  0  0  0  0  0  0
  146.5125  142.3625  153.9042 C   0  0  0  0  0  0  0  0  0  0  0  0
  145.6302  143.2084  153.7790 O   0  0  0  0  0  0  0  0  0  0  0  0
  146.4242  141.0757  153.5503 N   0  0  0  0  0  0  0  0  0  0  0  0
  147.5382  140.3963  153.8176 C   0  0  0  0  0  0  0  0  0  0  0  0
  147.7420  139.2000  153.6196 O   0  0  0  0  0  0  0  0  0  0  0  0
  151.0301  139.9722  154.6585 N   0  0  0  0  0  0  0  0  0  0  0  0
  152.0314  139.1896  154.9128 N   0  0  0  0  0  0  0  0  0  0  0  0
  153.4464  138.4420  157.5836 H   0  0  0  0  0  0  0  0  0  0  0  0
  153.6495  137.6579  156.0286 H   0  0  0  0  0  0  0  0  0  0  0  0
  150.5625  139.2295  157.8501 H   0  0  0  0  0  0  0  0  0  0  0  0
  148.2095  140.3686  156.3174 H   0  0  0  0  0  0  0  0  0  0  0  0
  149.1508  141.8232  156.4567 H   0  0  0  0  0  0  0  0  0  0  0  0
  149.3919  141.4892  153.7539 H   0  0  0  0  0  0  0  0  0  0  0  0
  148.0651  143.4506  154.7765 H   0  0  0  0  0  0  0  0  0  0  0  0
  145.6006  140.6632  153.1375 H   0  0  0  0  0  0  0  0  0  0  0  0
  1  2  2  0  0  0  0
  2  3  1  0  0  0  0
  2  4  1  0  0  0  0
  4  5  1  0  0  0  0
  4 18  1  0  0  0  0
  4 19  1  0  0  0  0
  5 17  1  0  0  0  0
  5  6  1  0  0  0  0
  6  7  2  0  0  0  0
  6 20  1  0  0  0  0
  7  8  1  0  0  0  0
  7 16  1  0  0  0  0
  8  9  1  0  0  0  0
  8 21  1  0  0  0  0
  8 22  1  0  0  0  0
  9 14  1  0  0  0  0
  9 10  1  0  0  0  0
  9 23  1  0  0  0  0
 10 11  1  0  0  0  0
 10 24  1  0  0  0  0
 11 12  2  0  0  0  0
 11 13  1  0  0  0  0
 13 14  1  0  0  0  0
 13 25  1  0  0  0  0
 14 15  2  0  0  0  0
 16 17  2  0  0  0  0
M  CHG  1   3  -1
M  END
> <s_m_source_file>
AV-unprocessed.smi

> <i_m_source_file_index>
2750

> <i_lp_mmshare_version>
43012

> <i_f3d_flags>
0

> <s_epik_input>
Tz1DKFtPSF0pW0NIMl1uMVtjSF1jKG5uMSlbQ0gyXVtDQEBIXTJbTkhdQyg9TylbTkhdQzI9Tw==

> <s_epik_cmdline>
J2VwaWtfcHl0aG9uJywgJy1waCcsICc3LjAnLCAnLXRuJywgJzgnLCAnLW1hJywgJzIwMCcsICctbWV0YWxfYmluZGluZycsICctaW1hZScsICc8aW5maWxlLm1hZT4nLCAnLW9tYWUnLCAnPG91dGZpbGUubWFlPic=

> <r_lp_tautomer_probability>
1

> <r_epik_Ionization_Penalty>
0.019671

> <r_epik_Ionization_Penalty_Charging>
2.66176e-05

> <r_epik_Ionization_Penalty_Neutral>
0.0196444

> <r_epik_State_Penalty>
0.0155882

> <r_epik_Charging_Adjusted_Penalty>
0.0156148

> <i_epik_Tot_Q>
-1

> <i_epik_Tot_abs_Q>
1

> <r_epik_Metal_State_Penalty>
0.396229

> <b_epik_Metal_Only>
0

> <s_lp_Force_Field>
OPLS_2005

> <r_lp_Energy>
13.3356

> <b_lp_Chiralities_Consistent>
1

> <s_lp_Variant>
AV-unprocessed.smi:2750-1

> <Gold.Version>
5.8.1

> <Gold.Id.Protein>
6NUR|6NUR_protein|mol2

> <Gold.PLP.Fitness>
41.5437

> <Gold.PLP.PLP>
-24.0109

> <Gold.PLP.part.hbond>
-5.7224

> <Gold.PLP.part.metal>
0.0000

> <Gold.PLP.part.buried>
-8.0049

> <Gold.PLP.part.nonpolar>
-13.4186

> <Gold.PLP.part.repulsive>
0.7531

> <Gold.PLP.ligand.clash>
0.0000

> <Gold.PLP.ligand.torsion>
0.7948

> <Gold.PLP.Chemscore.Hbond>
6.3640

> <Gold.PLP.Chemscore.CHOScore>
0.0000

> <Gold.PLP.Chemscore.Metal>
0.0000

> <Gold.Chemscore.Hbonds>
donor molecule, donor type, donor heavy atom, donor atom, acceptor molecule, acceptor atom, score
      L1  H    10    24       P1  8028  1.00
      L1  H    13    25       P1 10175  0.99
      P1  H  6896  6909       L1     3  1.24
      P1  H  7989  7998       L1    16  1.00
      P1  H 10752 10764       L1     1  2.00

> <Gold.PLP.Chemscore.Internal.Correction>
0.0305

> <Gold.Rescore>
     Score         DG    S(hbond)    S(metal)    S(lipo)     H(rot)  DE(clash)    DE(int)     intcor
     14.34     -15.26       4.14        0.00      27.39       2.84       0.01       0.91       ----

> <Gold.Chemscore.Fitness>
14.3440

> <Gold.Chemscore.DG>
-15.2572

> <Gold.Chemscore.ZeroCoef>
-5.4800

> <Gold.Chemscore.Hbond>
4.1410

> <Gold.Chemscore.Metal>
0.0000

> <Gold.Chemscore.Lipo>
27.3908

> <Gold.Chemscore.Internal_Hbond>
0.0000

> <Gold.Chemscore.DEClash>
0.0077

> <Gold.Chemscore.DEInternal>
0.9054

> <Gold.Chemscore.Rot>
2.8354

> <Gold.Chemscore.Internal.Correction>
   9.000000E+99

> <Gold.Chemscore.Hbonds>
donor molecule, donor type, donor heavy atom, donor atom, acceptor molecule, acceptor atom, score
      L1  H    10    24       P1  8028  0.85
      L1  H    13    25       P1 10175  0.73
      P1  H  6896  6909       L1     3  0.60
      P1  H  7989  7998       L1    16  0.29
      P1  H 10752 10764       L1     1  0.94

> <Gold.Chemscore.Hbond.Weighted>
-13.8310

> <Gold.Chemscore.Metal.Weighted>
-0.0000

> <Gold.Chemscore.Lipo.Weighted>
-3.2047

> <Gold.Chemscore.Internal_Hbond.Weighted>
0.0000

> <Gold.Chemscore.DEClash.Weighted>
0.0077

> <Gold.Chemscore.DEInternal.Weighted>
0.9054

> <Gold.Chemscore.Rot.Weighted>
7.2586

> <Gold.Chemscore.Internal.Correction.Weighted>
   9.000000E+99

> <Gold.Protein.RotatedTorsions>
[ 6907 6896 6895 6894 ] final  119.51 input  -60.11 | X-H torsion
[ 7974 7965 7964 7962 ] final   90.42 input  175.53 | X-H torsion
[ 8008 7997 7996 7995 ] final    3.86 input   59.86 | X-H torsion
[ 10167 10162 10161 10158 ] final   75.98 input  -65.29 | X-H torsion
[ 10718 10713 10712 10709 ] final  150.27 input   66.30 | X-H torsion
[ 10763 10752 10751 10750 ] final  -20.19 input  -60.55 | X-H torsion
[ 11005 11000 10999 10996 ] final  140.00 input  -57.11 | X-H torsion

> <Gold.Protein.ActiveResidues>
 VAL166  LYS551  ARG553  GLY616  TRP617  ASP618  TYR619  PRO620  LYS621  CYS622 
 ASP623  PHE694  ASN695  SER759  ASP760  ASP761  ALA762  ILE779  LEU786  VAL792 
 PHE793  MET794  SER795  GLU796  ALA797  LYS798  CYS799  TRP800  GLU811  SER814 

> <Gold.Protein.RotatedAtoms>
  152.4466  133.7549  159.6714 H   0  0  0  0  0  0  0  0  0  0  0  0  # atno 6907 bound_to 6896
  150.8368  133.7990  159.3082 H   0  0  0  0  0  0  0  0  0  0  0  0  # atno 6908 bound_to 6896
  151.5627  135.1067  160.0028 H   0  0  0  0  0  0  0  0  0  0  0  0  # atno 6909 bound_to 6896
  145.5193  139.2279  143.2681 H   0  0  0  0  0  0  0  0  0  0  0  0  # atno 7974 bound_to 7965
  154.7088  140.2688  155.6648 H   0  0  0  0  0  0  0  0  0  0  0  0  # atno 8008 bound_to 7997
  156.2789  140.2757  156.1647 H   0  0  0  0  0  0  0  0  0  0  0  0  # atno 8009 bound_to 7997
  155.0663  140.0371  157.2583 H   0  0  0  0  0  0  0  0  0  0  0  0  # atno 8010 bound_to 7997
  139.9971  144.5714  150.7768 H   0  0  0  0  0  0  0  0  0  0  0  0  # atno 10167 bound_to 10162
  157.2855  131.0843  151.1500 H   0  0  0  0  0  0  0  0  0  0  0  0  # atno 10718 bound_to 10713
  153.6165  135.6994  153.5327 H   0  0  0  0  0  0  0  0  0  0  0  0  # atno 10763 bound_to 10752
  153.2973  135.4139  155.1221 H   0  0  0  0  0  0  0  0  0  0  0  0  # atno 10764 bound_to 10752
  154.8552  135.3640  154.5704 H   0  0  0  0  0  0  0  0  0  0  0  0  # atno 10765 bound_to 10752
  140.0295  134.9359  157.0634 H   0  0  0  0  0  0  0  0  0  0  0  0  # atno 11005 bound_to 11000
  146.2116  140.6004  142.9057 LP  0  0  0  0  0  0  0  0  0  0  0  0  # atno 17320 bound_to 7965
  144.7685  140.5584  143.6686 LP  0  0  0  0  0  0  0  0  0  0  0  0  # atno 17321 bound_to 7965
  140.7433  143.2844  151.3506 LP  0  0  0  0  0  0  0  0  0  0  0  0  # atno 17342 bound_to 10162
  139.6298  144.0743  152.2466 LP  0  0  0  0  0  0  0  0  0  0  0  0  # atno 17343 bound_to 10162
  157.2917  130.6799  149.6117 LP  0  0  0  0  0  0  0  0  0  0  0  0  # atno 17370 bound_to 10713
  155.9665  130.4419  150.5358 LP  0  0  0  0  0  0  0  0  0  0  0  0  # atno 17371 bound_to 10713
  140.4249  134.1841  155.7166 LP  0  0  0  0  0  0  0  0  0  0  0  0  # atno 17394 bound_to 11000
  141.1823  133.8388  157.1215 LP  0  0  0  0  0  0  0  0  0  0  0  0  # atno 17395 bound_to 11000

$$$$
