AV-unprocessed.smi:3268|AV-procd|sdf|12508|dock9
  -GOLD-   2272018413D 1   1.00000     0.00000
 Structure written by MMmdl.
 40 41  0  0  0  0  0  0  0  0  2 V2000
  150.2495  137.1039  155.6035 C   0  0  0  0  0  0  0  0  0  0  0  0
  149.9617  138.2233  154.5828 C   0  0  2  0  0  0  0  0  0  0  0  0
  150.6800  139.5296  154.9520 C   0  0  0  0  0  0  0  0  0  0  0  0
  151.8715  139.6846  154.6819 O   0  0  0  0  0  0  0  0  0  0  0  0
  149.9438  140.4663  155.5714 N   0  0  0  0  0  0  0  0  0  0  0  0
  150.4386  141.7693  156.0016 C   0  0  0  0  0  0  0  0  0  0  0  0
  150.0926  142.0495  157.4777 C   0  0  0  0  0  0  0  0  0  0  0  0
  150.6809  143.3226  157.9649 N   0  3  0  0  0  0  0  0  0  0  0  0
  150.2110  143.6713  159.3318 C   0  0  0  0  0  0  0  0  0  0  0  0
  150.7276  145.0534  159.7658 C   0  0  0  0  0  0  0  0  0  0  0  0
  152.2577  145.1191  159.6838 C   0  0  0  0  0  0  0  0  0  0  0  0
  152.7220  144.7293  158.2749 C   0  0  0  0  0  0  0  0  0  0  0  0
  152.1658  143.3530  157.8721 C   0  0  0  0  0  0  0  0  0  0  0  0
  148.5340  138.4647  154.4101 N   0  0  0  0  0  0  0  0  0  0  0  0
  147.9032  139.3589  153.6455 C   0  0  0  0  0  0  0  0  0  0  0  0
  146.5831  139.3354  153.7650 N   0  0  0  0  0  0  0  0  0  0  0  0
  146.4561  138.3425  154.6944 C   0  0  0  0  0  0  0  0  0  0  0  0
  147.5933  137.7956  155.1232 N   0  0  0  0  0  0  0  0  0  0  0  0
  151.3192  136.9037  155.6739 H   0  0  0  0  0  0  0  0  0  0  0  0
  149.7633  136.1740  155.3072 H   0  0  0  0  0  0  0  0  0  0  0  0
  149.8963  137.3566  156.6042 H   0  0  0  0  0  0  0  0  0  0  0  0
  150.3444  137.8860  153.6179 H   0  0  0  0  0  0  0  0  0  0  0  0
  148.9731  140.2598  155.7592 H   0  0  0  0  0  0  0  0  0  0  0  0
  151.5171  141.7722  155.8474 H   0  0  0  0  0  0  0  0  0  0  0  0
  150.0305  142.5508  155.3583 H   0  0  0  0  0  0  0  0  0  0  0  0
  149.0073  142.1051  157.5709 H   0  0  0  0  0  0  0  0  0  0  0  0
  150.4114  141.2239  158.1159 H   0  0  0  0  0  0  0  0  0  0  0  0
  149.1204  143.6775  159.3570 H   0  0  0  0  0  0  0  0  0  0  0  0
  150.5404  142.9067  160.0374 H   0  0  0  0  0  0  0  0  0  0  0  0
  150.2927  145.8243  159.1281 H   0  0  0  0  0  0  0  0  0  0  0  0
  150.3991  145.2721  160.7824 H   0  0  0  0  0  0  0  0  0  0  0  0
  152.6075  146.1216  159.9329 H   0  0  0  0  0  0  0  0  0  0  0  0
  152.6967  144.4427  160.4184 H   0  0  0  0  0  0  0  0  0  0  0  0
  152.3924  145.4825  157.5579 H   0  0  0  0  0  0  0  0  0  0  0  0
  153.8118  144.7175  158.2328 H   0  0  0  0  0  0  0  0  0  0  0  0
  152.5870  142.5782  158.5147 H   0  0  0  0  0  0  0  0  0  0  0  0
  152.4872  143.1277  156.8561 H   0  0  0  0  0  0  0  0  0  0  0  0
  148.4204  140.0431  152.9890 H   0  0  0  0  0  0  0  0  0  0  0  0
  145.4974  138.0169  155.0707 H   0  0  0  0  0  0  0  0  0  0  0  0
  150.3309  144.0494  157.3569 H   0  0  0  0  0  0  0  0  0  0  0  0
  1  2  1  0  0  0  0
  1 19  1  0  0  0  0
  1 20  1  0  0  0  0
  1 21  1  0  0  0  0
  2  3  1  0  0  0  0
  2 14  1  0  0  0  0
  2 22  1  0  0  0  0
  3  4  2  0  0  0  0
  3  5  1  0  0  0  0
  5  6  1  0  0  0  0
  5 23  1  0  0  0  0
  6  7  1  0  0  0  0
  6 24  1  0  0  0  0
  6 25  1  0  0  0  0
  7  8  1  0  0  0  0
  7 26  1  0  0  0  0
  7 27  1  0  0  0  0
  8 13  1  0  0  0  0
  8  9  1  0  0  0  0
  8 40  1  0  0  0  0
  9 10  1  0  0  0  0
  9 28  1  0  0  0  0
  9 29  1  0  0  0  0
 10 11  1  0  0  0  0
 10 30  1  0  0  0  0
 10 31  1  0  0  0  0
 11 12  1  0  0  0  0
 11 32  1  0  0  0  0
 11 33  1  0  0  0  0
 12 13  1  0  0  0  0
 12 34  1  0  0  0  0
 12 35  1  0  0  0  0
 13 36  1  0  0  0  0
 13 37  1  0  0  0  0
 14 18  1  0  0  0  0
 14 15  1  0  0  0  0
 15 16  2  0  0  0  0
 15 38  1  0  0  0  0
 16 17  1  0  0  0  0
 17 18  2  0  0  0  0
 17 39  1  0  0  0  0
M  CHG  1   8   1
M  END
> <s_m_source_file>
AV-unprocessed.smi

> <i_m_source_file_index>
3268

> <i_lp_mmshare_version>
43012

> <i_f3d_flags>
0

> <s_epik_input>
bjFbY0hdbltjSF1uMVtDQEhdKFtDSDNdKUMoPU8pW05IXVtDSDJdW0NIMl1OMltDSDJdW0NIMl1bQ0gyXVtDSDJdW0NIMl0y

> <s_epik_cmdline>
J2VwaWtfcHl0aG9uJywgJy1waCcsICc3LjAnLCAnLXRuJywgJzgnLCAnLW1hJywgJzIwMCcsICctbWV0YWxfYmluZGluZycsICctaW1hZScsICc8aW5maWxlLm1hZT4nLCAnLW9tYWUnLCAnPG91dGZpbGUubWFlPic=

> <r_lp_tautomer_probability>
1

> <r_epik_Ionization_Penalty>
0.00266407

> <r_epik_Ionization_Penalty_Charging>
0.00265606

> <r_epik_Ionization_Penalty_Neutral>
8.01095e-06

> <r_epik_State_Penalty>
0.00184955

> <r_epik_Charging_Adjusted_Penalty>
0.00450561

> <i_epik_Tot_Q>
1

> <i_epik_Tot_abs_Q>
1

> <r_epik_Metal_State_Penalty>
-0

> <b_epik_Metal_Only>
0

> <s_lp_Force_Field>
OPLS_2005

> <r_lp_Energy>
22.0187

> <b_lp_Chiralities_Consistent>
1

> <s_lp_Variant>
AV-unprocessed.smi:3268-1

> <Gold.Version>
5.8.1

> <Gold.Id.Protein>
6NUR|6NUR_protein|mol2

> <Gold.PLP.Fitness>
42.2054

> <Gold.PLP.PLP>
-31.5799

> <Gold.PLP.part.hbond>
-2.0000

> <Gold.PLP.part.metal>
0.0000

> <Gold.PLP.part.buried>
-3.7684

> <Gold.PLP.part.nonpolar>
-25.9936

> <Gold.PLP.part.repulsive>
0.4309

> <Gold.PLP.ligand.clash>
0.0000

> <Gold.PLP.ligand.torsion>
0.7406

> <Gold.PLP.Chemscore.Hbond>
3.0000

> <Gold.PLP.Chemscore.CHOScore>
1.0000

> <Gold.PLP.Chemscore.Metal>
0.0000

> <Gold.Chemscore.Hbonds>
donor molecule, donor type, donor heavy atom, donor atom, acceptor molecule, acceptor atom, score
      L1  H     8    40       P1  8028  0.65
      P1  H  7989  7998       L1     4  0.83
      L1  C    15    38       P1  7957  1.00

> <Gold.PLP.Chemscore.Internal.Correction>
0.1067

> <Gold.Rescore>
     Score         DG    S(hbond)    S(metal)    S(lipo)     H(rot)  DE(clash)    DE(int)     intcor
     12.47     -13.81       1.74        0.00      77.61       2.57       0.45       0.89       ----

> <Gold.Chemscore.Fitness>
12.4699

> <Gold.Chemscore.DG>
-13.8099

> <Gold.Chemscore.ZeroCoef>
-5.4800

> <Gold.Chemscore.Hbond>
1.7443

> <Gold.Chemscore.Metal>
0.0000

> <Gold.Chemscore.Lipo>
77.6125

> <Gold.Chemscore.Internal_Hbond>
0.0000

> <Gold.Chemscore.DEClash>
0.4488

> <Gold.Chemscore.DEInternal>
0.8913

> <Gold.Chemscore.Rot>
2.5690

> <Gold.Chemscore.Internal.Correction>
   9.000000E+99

> <Gold.Chemscore.Hbonds>
donor molecule, donor type, donor heavy atom, donor atom, acceptor molecule, acceptor atom, score
      L1  H     8    40       P1  8028  0.25
      P1  H  7989  7998       L1     4  0.14

> <Gold.Chemscore.Hbond.Weighted>
-5.8258

> <Gold.Chemscore.Metal.Weighted>
-0.0000

> <Gold.Chemscore.Lipo.Weighted>
-9.0807

> <Gold.Chemscore.Internal_Hbond.Weighted>
0.0000

> <Gold.Chemscore.DEClash.Weighted>
0.4488

> <Gold.Chemscore.DEInternal.Weighted>
0.8913

> <Gold.Chemscore.Rot.Weighted>
6.5766

> <Gold.Chemscore.Internal.Correction.Weighted>
   9.000000E+99

> <Gold.Protein.RotatedTorsions>
[ 6907 6896 6895 6894 ] final  146.56 input  -60.11 | X-H torsion
[ 7974 7965 7964 7962 ] final  132.25 input  175.53 | X-H torsion
[ 8008 7997 7996 7995 ] final  -51.26 input   59.86 | X-H torsion
[ 10167 10162 10161 10158 ] final  126.80 input  -65.29 | X-H torsion
[ 10718 10713 10712 10709 ] final   53.38 input   66.30 | X-H torsion
[ 10763 10752 10751 10750 ] final -175.75 input  -60.55 | X-H torsion
[ 11005 11000 10999 10996 ] final -142.19 input  -57.11 | X-H torsion

> <Gold.Protein.ActiveResidues>
 VAL166  LYS551  ARG553  GLY616  TRP617  ASP618  TYR619  PRO620  LYS621  CYS622 
 ASP623  PHE694  ASN695  SER759  ASP760  ASP761  ALA762  ILE779  LEU786  VAL792 
 PHE793  MET794  SER795  GLU796  ALA797  LYS798  CYS799  TRP800  GLU811  SER814 

> <Gold.Protein.RotatedAtoms>
  152.1663  133.4614  159.4886 H   0  0  0  0  0  0  0  0  0  0  0  0  # atno 6907 bound_to 6896
  150.6913  134.2009  159.4331 H   0  0  0  0  0  0  0  0  0  0  0  0  # atno 6908 bound_to 6896
  151.9914  134.9977  160.0612 H   0  0  0  0  0  0  0  0  0  0  0  0  # atno 6909 bound_to 6896
  144.9988  139.4332  143.5302 H   0  0  0  0  0  0  0  0  0  0  0  0  # atno 7974 bound_to 7965
  154.4079  140.1252  156.4800 H   0  0  0  0  0  0  0  0  0  0  0  0  # atno 8008 bound_to 7997
  155.7094  140.3494  155.4947 H   0  0  0  0  0  0  0  0  0  0  0  0  # atno 8009 bound_to 7997
  155.9314  140.1070  157.1119 H   0  0  0  0  0  0  0  0  0  0  0  0  # atno 8010 bound_to 7997
  139.5612  144.6883  151.4038 H   0  0  0  0  0  0  0  0  0  0  0  0  # atno 10167 bound_to 10162
  157.5162  130.8534  149.8498 H   0  0  0  0  0  0  0  0  0  0  0  0  # atno 10718 bound_to 10713
  154.5806  135.2836  155.0736 H   0  0  0  0  0  0  0  0  0  0  0  0  # atno 10763 bound_to 10752
  154.2074  135.6414  153.5109 H   0  0  0  0  0  0  0  0  0  0  0  0  # atno 10764 bound_to 10752
  153.0087  135.5483  154.6459 H   0  0  0  0  0  0  0  0  0  0  0  0  # atno 10765 bound_to 10752
  140.8250  134.2585  157.4883 H   0  0  0  0  0  0  0  0  0  0  0  0  # atno 11005 bound_to 11000
  146.3447  139.9364  142.8746 LP  0  0  0  0  0  0  0  0  0  0  0  0  # atno 17320 bound_to 7965
  145.2182  140.9924  143.4061 LP  0  0  0  0  0  0  0  0  0  0  0  0  # atno 17321 bound_to 7965
  140.6892  143.7902  150.7230 LP  0  0  0  0  0  0  0  0  0  0  0  0  # atno 17342 bound_to 10162
  140.1379  143.4467  152.2212 LP  0  0  0  0  0  0  0  0  0  0  0  0  # atno 17343 bound_to 10162
  156.0322  130.3761  150.1658 LP  0  0  0  0  0  0  0  0  0  0  0  0  # atno 17370 bound_to 10713
  156.9846  130.9875  151.3429 LP  0  0  0  0  0  0  0  0  0  0  0  0  # atno 17371 bound_to 10713
  139.8707  134.9556  156.4210 LP  0  0  0  0  0  0  0  0  0  0  0  0  # atno 17394 bound_to 11000
  140.9059  133.7746  155.9734 LP  0  0  0  0  0  0  0  0  0  0  0  0  # atno 17395 bound_to 11000

$$$$
