AV-unprocessed.smi:2971|AV-procd|sdf|11333|dock9
  -GOLD-   2272016243D 1   1.00000     0.00000
 Structure written by MMmdl.
 36 38  0  0  0  0  0  0  0  0  1 V2000
  150.3953  144.3290  158.0234 O   0  0  0  0  0  0  0  0  0  0  0  0
  151.0859  143.2289  157.4633 C   0  0  1  0  0  0  0  0  0  0  0  0
  152.4151  143.0547  158.2148 C   0  0  0  0  0  0  0  0  0  0  0  0
  152.1780  143.1971  159.6093 O   0  0  0  0  0  0  0  0  0  0  0  0
  152.9150  142.4237  160.4815 C   0  0  0  0  0  0  0  0  0  0  0  0
  153.6563  141.2774  160.0959 C   0  0  0  0  0  0  0  0  0  0  0  0
  154.3832  140.5423  161.0525 C   0  0  0  0  0  0  0  0  0  0  0  0
  154.3807  140.9407  162.4018 C   0  0  0  0  0  0  0  0  0  0  0  0
  153.6493  142.0769  162.7939 C   0  0  0  0  0  0  0  0  0  0  0  0
  152.9208  142.8121  161.8385 C   0  0  0  0  0  0  0  0  0  0  0  0
  152.2195  143.9029  162.2299 F   0  0  0  0  0  0  0  0  0  0  0  0
  150.1981  141.9736  157.5702 C   0  0  0  0  0  0  0  0  0  0  0  0
  150.0651  141.2739  156.3043 N   0  0  0  0  0  0  0  0  0  0  0  0
  150.9730  140.4613  155.7307 C   0  0  0  0  0  0  0  0  0  0  0  0
  150.6493  139.9122  154.5634 N   0  0  0  0  0  0  0  0  0  0  0  0
  149.3825  140.4300  154.3537 C   0  0  0  0  0  0  0  0  0  0  0  0
  148.4778  140.2355  153.2854 C   0  0  0  0  0  0  0  0  0  0  0  0
  147.2218  140.8773  153.2868 C   0  0  0  0  0  0  0  0  0  0  0  0
  146.8521  141.7229  154.3530 C   0  0  0  0  0  0  0  0  0  0  0  0
  147.7365  141.9319  155.4285 C   0  0  0  0  0  0  0  0  0  0  0  0
  148.9877  141.2877  155.4247 C   0  0  0  0  0  0  0  0  0  0  0  0
  149.7649  144.6390  157.3910 H   0  0  0  0  0  0  0  0  0  0  0  0
  151.2847  143.4339  156.4104 H   0  0  0  0  0  0  0  0  0  0  0  0
  152.8707  142.0913  157.9777 H   0  0  0  0  0  0  0  0  0  0  0  0
  153.1092  143.8374  157.9040 H   0  0  0  0  0  0  0  0  0  0  0  0
  153.6846  140.9400  159.0712 H   0  0  0  0  0  0  0  0  0  0  0  0
  154.9440  139.6704  160.7492 H   0  0  0  0  0  0  0  0  0  0  0  0
  154.9385  140.3762  163.1346 H   0  0  0  0  0  0  0  0  0  0  0  0
  153.6463  142.3855  163.8289 H   0  0  0  0  0  0  0  0  0  0  0  0
  150.6176  141.2769  158.2970 H   0  0  0  0  0  0  0  0  0  0  0  0
  149.2034  142.2371  157.9326 H   0  0  0  0  0  0  0  0  0  0  0  0
  151.9261  140.2607  156.1981 H   0  0  0  0  0  0  0  0  0  0  0  0
  148.7511  139.5912  152.4629 H   0  0  0  0  0  0  0  0  0  0  0  0
  146.5386  140.7207  152.4652 H   0  0  0  0  0  0  0  0  0  0  0  0
  145.8890  142.2122  154.3439 H   0  0  0  0  0  0  0  0  0  0  0  0
  147.4588  142.5816  156.2452 H   0  0  0  0  0  0  0  0  0  0  0  0
  1  2  1  0  0  0  0
  1 22  1  0  0  0  0
  2  3  1  0  0  0  0
  2 12  1  0  0  0  0
  2 23  1  0  0  0  0
  3  4  1  0  0  0  0
  3 24  1  0  0  0  0
  3 25  1  0  0  0  0
  4  5  1  0  0  0  0
  5 10  1  0  0  0  0
  5  6  2  0  0  0  0
  6  7  1  0  0  0  0
  6 26  1  0  0  0  0
  7  8  2  0  0  0  0
  7 27  1  0  0  0  0
  8  9  1  0  0  0  0
  8 28  1  0  0  0  0
  9 10  2  0  0  0  0
  9 29  1  0  0  0  0
 10 11  1  0  0  0  0
 12 13  1  0  0  0  0
 12 30  1  0  0  0  0
 12 31  1  0  0  0  0
 13 21  1  0  0  0  0
 13 14  1  0  0  0  0
 14 15  2  0  0  0  0
 14 32  1  0  0  0  0
 15 16  1  0  0  0  0
 16 21  2  0  0  0  0
 16 17  1  0  0  0  0
 17 18  2  0  0  0  0
 17 33  1  0  0  0  0
 18 19  1  0  0  0  0
 18 34  1  0  0  0  0
 19 20  2  0  0  0  0
 19 35  1  0  0  0  0
 20 21  1  0  0  0  0
 20 36  1  0  0  0  0
M  END
> <s_m_source_file>
AV-unprocessed.smi

> <i_m_source_file_index>
2971

> <i_lp_mmshare_version>
43012

> <i_f3d_flags>
0

> <s_epik_input>
W2NIXTFbY0hdW2NIXVtjSF1jKGMxMiluKFtjSF1uMilbQ0gyXVtDQEhdKFtPSF0pW0NIMl1PYzNbY0hdW2NIXVtjSF1bY0hdYzNG

> <s_epik_cmdline>
J2VwaWtfcHl0aG9uJywgJy1waCcsICc3LjAnLCAnLXRuJywgJzgnLCAnLW1hJywgJzIwMCcsICctbWV0YWxfYmluZGluZycsICctaW1hZScsICc8aW5maWxlLm1hZT4nLCAnLW9tYWUnLCAnPG91dGZpbGUubWFlPic=

> <r_lp_tautomer_probability>
1

> <r_epik_Ionization_Penalty>
0.0600913

> <r_epik_Ionization_Penalty_Charging>
0

> <r_epik_Ionization_Penalty_Neutral>
0.0600913

> <r_epik_State_Penalty>
0.0520726

> <r_epik_Charging_Adjusted_Penalty>
0.0520726

> <i_epik_Tot_Q>
0

> <i_epik_Tot_abs_Q>
0

> <r_epik_Metal_State_Penalty>
5.44269e-05

> <b_epik_Metal_Only>
0

> <s_lp_Force_Field>
OPLS_2005

> <r_lp_Energy>
16.3694

> <b_lp_Chiralities_Consistent>
1

> <s_lp_Variant>
AV-unprocessed.smi:2971-2

> <Gold.Version>
5.8.1

> <Gold.Id.Protein>
6NUR|6NUR_protein|mol2

> <Gold.PLP.Fitness>
48.9071

> <Gold.PLP.PLP>
-46.6401

> <Gold.PLP.part.hbond>
-2.8219

> <Gold.PLP.part.metal>
0.0000

> <Gold.PLP.part.buried>
4.1492

> <Gold.PLP.part.nonpolar>
-48.7488

> <Gold.PLP.part.repulsive>
0.0903

> <Gold.PLP.ligand.clash>
0.0000

> <Gold.PLP.ligand.torsion>
1.5221

> <Gold.PLP.Chemscore.Hbond>
1.7500

> <Gold.PLP.Chemscore.CHOScore>
0.0000

> <Gold.PLP.Chemscore.Metal>
0.0000

> <Gold.Chemscore.Hbonds>
donor molecule, donor type, donor heavy atom, donor atom, acceptor molecule, acceptor atom, score
      L1  H     1    22       P1  8028  0.70
      P1  H  7989  7998       L1    15  1.00

> <Gold.PLP.Chemscore.Internal.Correction>
0.0612

> <Gold.Rescore>
     Score         DG    S(hbond)    S(metal)    S(lipo)     H(rot)  DE(clash)    DE(int)     intcor
     11.85     -15.48       0.40        0.00     126.03       2.37       2.25       1.38       ----

> <Gold.Chemscore.Fitness>
11.8463

> <Gold.Chemscore.DG>
-15.4810

> <Gold.Chemscore.ZeroCoef>
-5.4800

> <Gold.Chemscore.Hbond>
0.3988

> <Gold.Chemscore.Metal>
0.0000

> <Gold.Chemscore.Lipo>
126.0272

> <Gold.Chemscore.Internal_Hbond>
0.0000

> <Gold.Chemscore.DEClash>
2.2524

> <Gold.Chemscore.DEInternal>
1.3824

> <Gold.Chemscore.Rot>
2.3735

> <Gold.Chemscore.Internal.Correction>
   9.000000E+99

> <Gold.Chemscore.Hbonds>
donor molecule, donor type, donor heavy atom, donor atom, acceptor molecule, acceptor atom, score
      L1  H     1    22       P1  8028  0.07
      P1  H  7989  7998       L1    15  0.09

> <Gold.Chemscore.Hbond.Weighted>
-1.3321

> <Gold.Chemscore.Metal.Weighted>
-0.0000

> <Gold.Chemscore.Lipo.Weighted>
-14.7452

> <Gold.Chemscore.Internal_Hbond.Weighted>
0.0000

> <Gold.Chemscore.DEClash.Weighted>
2.2524

> <Gold.Chemscore.DEInternal.Weighted>
1.3824

> <Gold.Chemscore.Rot.Weighted>
6.0762

> <Gold.Chemscore.Internal.Correction.Weighted>
   9.000000E+99

> <Gold.Protein.RotatedTorsions>
[ 6907 6896 6895 6894 ] final  129.19 input  -60.11 | X-H torsion
[ 7974 7965 7964 7962 ] final -106.26 input  175.53 | X-H torsion
[ 8008 7997 7996 7995 ] final  -42.93 input   59.86 | X-H torsion
[ 10167 10162 10161 10158 ] final  -15.62 input  -65.29 | X-H torsion
[ 10718 10713 10712 10709 ] final   26.00 input   66.30 | X-H torsion
[ 10763 10752 10751 10750 ] final -166.85 input  -60.55 | X-H torsion
[ 11005 11000 10999 10996 ] final -170.74 input  -57.11 | X-H torsion

> <Gold.Protein.ActiveResidues>
 VAL166  LYS551  ARG553  GLY616  TRP617  ASP618  TYR619  PRO620  LYS621  CYS622 
 ASP623  PHE694  ASN695  SER759  ASP760  ASP761  ALA762  ILE779  LEU786  VAL792 
 PHE793  MET794  SER795  GLU796  ALA797  LYS798  CYS799  TRP800  GLU811  SER814 

> <Gold.Protein.RotatedAtoms>
  152.3647  133.6342  159.6041 H   0  0  0  0  0  0  0  0  0  0  0  0  # atno 6907 bound_to 6896
  150.7626  133.9366  159.3452 H   0  0  0  0  0  0  0  0  0  0  0  0  # atno 6908 bound_to 6896
  151.7199  135.0897  160.0333 H   0  0  0  0  0  0  0  0  0  0  0  0  # atno 6909 bound_to 6896
  145.2201  140.9131  143.3264 H   0  0  0  0  0  0  0  0  0  0  0  0  # atno 7974 bound_to 7965
  154.3997  140.1461  156.3435 H   0  0  0  0  0  0  0  0  0  0  0  0  # atno 8008 bound_to 7997
  155.8335  140.3465  155.5566 H   0  0  0  0  0  0  0  0  0  0  0  0  # atno 8009 bound_to 7997
  155.8163  140.0891  157.1865 H   0  0  0  0  0  0  0  0  0  0  0  0  # atno 8010 bound_to 7997
  140.7221  143.5199  150.9646 H   0  0  0  0  0  0  0  0  0  0  0  0  # atno 10167 bound_to 10162
  157.2009  130.6889  149.6188 H   0  0  0  0  0  0  0  0  0  0  0  0  # atno 10718 bound_to 10713
  154.6792  135.2951  154.9637 H   0  0  0  0  0  0  0  0  0  0  0  0  # atno 10763 bound_to 10752
  154.0638  135.6627  153.4819 H   0  0  0  0  0  0  0  0  0  0  0  0  # atno 10764 bound_to 10752
  153.0536  135.5158  154.7826 H   0  0  0  0  0  0  0  0  0  0  0  0  # atno 10765 bound_to 10752
  140.5161  134.5754  157.5034 H   0  0  0  0  0  0  0  0  0  0  0  0  # atno 11005 bound_to 11000
  144.9774  139.3818  143.6279 LP  0  0  0  0  0  0  0  0  0  0  0  0  # atno 17320 bound_to 7965
  146.3378  139.8899  142.8811 LP  0  0  0  0  0  0  0  0  0  0  0  0  # atno 17321 bound_to 7965
  139.8916  143.6946  152.3144 LP  0  0  0  0  0  0  0  0  0  0  0  0  # atno 17342 bound_to 10162
  139.7264  144.7592  151.0872 LP  0  0  0  0  0  0  0  0  0  0  0  0  # atno 17343 bound_to 10162
  155.9700  130.4583  150.5994 LP  0  0  0  0  0  0  0  0  0  0  0  0  # atno 17370 bound_to 10713
  157.3768  131.0774  151.1511 LP  0  0  0  0  0  0  0  0  0  0  0  0  # atno 17371 bound_to 10713
  139.9632  134.7418  156.0194 LP  0  0  0  0  0  0  0  0  0  0  0  0  # atno 17394 bound_to 11000
  141.1359  133.6575  156.3593 LP  0  0  0  0  0  0  0  0  0  0  0  0  # atno 17395 bound_to 11000

$$$$
