AV-unprocessed.smi:2931|AV-procd|sdf|11244|dock7
  -GOLD-   2272016143D 1   1.00000     0.00000
 Structure written by MMmdl.
 42 43  0  0  0  0  0  0  0  0  2 V2000
  147.1054  132.7393  152.2541 C   0  0  0  0  0  0  0  0  0  0  0  0
  146.7192  134.1654  152.2073 N   0  3  1  0  0  0  0  0  0  0  0  0
  145.8905  134.4890  151.0186 C   0  0  0  0  0  0  0  0  0  0  0  0
  145.6048  135.9990  150.9326 C   0  0  0  0  0  0  0  0  0  0  0  0
  144.9808  136.5292  152.2358 C   0  0  0  0  0  0  0  0  0  0  0  0
  145.8420  136.1484  153.4536 C   0  0  2  0  0  0  0  0  0  0  0  0
  147.1037  136.8871  153.4149 N   0  0  0  0  0  0  0  0  0  0  0  0
  147.2978  138.1187  153.9049 C   0  0  0  0  0  0  0  0  0  0  0  0
  146.4124  138.8092  154.4085 O   0  0  0  0  0  0  0  0  0  0  0  0
  148.5839  138.4842  153.8232 N   0  0  0  0  0  0  0  0  0  0  0  0
  149.1493  139.7022  154.3957 C   0  0  0  0  0  0  0  0  0  0  0  0
  150.5375  139.4832  155.0346 C   0  0  0  0  0  0  0  0  0  0  0  0
  150.8297  140.4122  156.2020 C   0  0  0  0  0  0  0  0  0  0  0  0
  151.4107  139.9185  157.3894 C   0  0  0  0  0  0  0  0  0  0  0  0
  151.6715  140.8244  158.4367 C   0  0  0  0  0  0  0  0  0  0  0  0
  151.4024  142.1448  158.3597 N   0  0  0  0  0  0  0  0  0  0  0  0
  150.8439  142.6102  157.2214 C   0  0  0  0  0  0  0  0  0  0  0  0
  150.5388  141.7892  156.1171 C   0  0  0  0  0  0  0  0  0  0  0  0
  146.0752  134.6200  153.4652 C   0  0  0  0  0  0  0  0  0  0  0  0
  146.2273  132.0981  152.3400 H   0  0  0  0  0  0  0  0  0  0  0  0
  147.7570  132.5442  153.1064 H   0  0  0  0  0  0  0  0  0  0  0  0
  147.6482  132.4589  151.3508 H   0  0  0  0  0  0  0  0  0  0  0  0
  146.4064  134.1642  150.1143 H   0  0  0  0  0  0  0  0  0  0  0  0
  144.9528  133.9330  151.0658 H   0  0  0  0  0  0  0  0  0  0  0  0
  146.5320  136.5333  150.7218 H   0  0  0  0  0  0  0  0  0  0  0  0
  144.9394  136.2034  150.0933 H   0  0  0  0  0  0  0  0  0  0  0  0
  144.8516  137.6108  152.1805 H   0  0  0  0  0  0  0  0  0  0  0  0
  143.9816  136.1077  152.3541 H   0  0  0  0  0  0  0  0  0  0  0  0
  145.3075  136.4361  154.3606 H   0  0  0  0  0  0  0  0  0  0  0  0
  147.8968  136.4091  153.0125 H   0  0  0  0  0  0  0  0  0  0  0  0
  149.2337  137.8473  153.3857 H   0  0  0  0  0  0  0  0  0  0  0  0
  149.2394  140.4223  153.5818 H   0  0  0  0  0  0  0  0  0  0  0  0
  148.4588  140.1390  155.1185 H   0  0  0  0  0  0  0  0  0  0  0  0
  150.6268  138.4509  155.3748 H   0  0  0  0  0  0  0  0  0  0  0  0
  151.3113  139.6145  154.2773 H   0  0  0  0  0  0  0  0  0  0  0  0
  151.6527  138.8712  157.4975 H   0  0  0  0  0  0  0  0  0  0  0  0
  152.1136  140.4800  159.3597 H   0  0  0  0  0  0  0  0  0  0  0  0
  150.6360  143.6694  157.1885 H   0  0  0  0  0  0  0  0  0  0  0  0
  150.0954  142.2097  155.2262 H   0  0  0  0  0  0  0  0  0  0  0  0
  145.1249  134.0989  153.5936 H   0  0  0  0  0  0  0  0  0  0  0  0
  146.6959  134.3377  154.3165 H   0  0  0  0  0  0  0  0  0  0  0  0
  147.5765  134.6919  152.1179 H   0  0  0  0  0  0  0  0  0  0  0  0
  1  2  1  0  0  0  0
  1 20  1  0  0  0  0
  1 21  1  0  0  0  0
  1 22  1  0  0  0  0
  2 19  1  0  0  0  0
  2  3  1  0  0  0  0
  2 42  1  0  0  0  0
  3  4  1  0  0  0  0
  3 23  1  0  0  0  0
  3 24  1  0  0  0  0
  4  5  1  0  0  0  0
  4 25  1  0  0  0  0
  4 26  1  0  0  0  0
  5  6  1  0  0  0  0
  5 27  1  0  0  0  0
  5 28  1  0  0  0  0
  6  7  1  0  0  0  0
  6 19  1  0  0  0  0
  6 29  1  0  0  0  0
  7  8  1  0  0  0  0
  7 30  1  0  0  0  0
  8  9  2  0  0  0  0
  8 10  1  0  0  0  0
 10 11  1  0  0  0  0
 10 31  1  0  0  0  0
 11 12  1  0  0  0  0
 11 32  1  0  0  0  0
 11 33  1  0  0  0  0
 12 13  1  0  0  0  0
 12 34  1  0  0  0  0
 12 35  1  0  0  0  0
 13 18  1  0  0  0  0
 13 14  2  0  0  0  0
 14 15  1  0  0  0  0
 14 36  1  0  0  0  0
 15 16  2  0  0  0  0
 15 37  1  0  0  0  0
 16 17  1  0  0  0  0
 17 18  2  0  0  0  0
 17 38  1  0  0  0  0
 18 39  1  0  0  0  0
 19 40  1  0  0  0  0
 19 41  1  0  0  0  0
M  CHG  1   2   1
M  END
> <s_m_source_file>
AV-unprocessed.smi

> <i_m_source_file_index>
2931

> <i_lp_mmshare_version>
43012

> <i_f3d_flags>
0

> <s_epik_input>
W0NIM11OMVtDSDJdW0NIMl1bQ0gyXVtDQEhdKFtDSDJdMSlbTkhdQyg9TylbTkhdW0NIMl1bQ0gyXWMyW2NIXVtjSF1uW2NIXVtjSF0y

> <s_epik_cmdline>
J2VwaWtfcHl0aG9uJywgJy1waCcsICc3LjAnLCAnLXRuJywgJzgnLCAnLW1hJywgJzIwMCcsICctbWV0YWxfYmluZGluZycsICctaW1hZScsICc8aW5maWxlLm1hZT4nLCAnLW9tYWUnLCAnPG91dGZpbGUubWFlPic=

> <r_epik_Ionization_Penalty>
0.0573876

> <r_epik_Ionization_Penalty_Charging>
0.00229982

> <r_epik_Ionization_Penalty_Neutral>
0.0550878

> <r_epik_State_Penalty>
0.0473925

> <r_epik_Charging_Adjusted_Penalty>
0.0496923

> <i_epik_Tot_Q>
1

> <i_epik_Tot_abs_Q>
1

> <r_epik_Metal_State_Penalty>
0.0433388

> <b_epik_Metal_Only>
0

> <s_lp_Force_Field>
OPLS_2005

> <r_lp_Energy>
20.0995

> <b_lp_Chiralities_Consistent>
1

> <s_lp_Variant>
AV-unprocessed.smi:2931-3

> <Gold.Version>
5.8.1

> <Gold.Id.Protein>
6NUR|6NUR_protein|mol2

> <Gold.PLP.Fitness>
42.2101

> <Gold.PLP.PLP>
-31.0656

> <Gold.PLP.part.hbond>
-3.3589

> <Gold.PLP.part.metal>
0.0000

> <Gold.PLP.part.buried>
-3.0747

> <Gold.PLP.part.nonpolar>
-25.5639

> <Gold.PLP.part.repulsive>
0.2018

> <Gold.PLP.ligand.clash>
0.0000

> <Gold.PLP.ligand.torsion>
0.8835

> <Gold.PLP.Chemscore.Hbond>
3.4157

> <Gold.PLP.Chemscore.CHOScore>
0.8817

> <Gold.PLP.Chemscore.Metal>
0.0000

> <Gold.Chemscore.Hbonds>
donor molecule, donor type, donor heavy atom, donor atom, acceptor molecule, acceptor atom, score
      L1  H     2    42       P1  7948  1.98
      L1  H     7    30       P1  7948  1.00
      L1  H    10    31       P1  7948  0.36
      L1  C    17    38       P1  8028  0.89

> <Gold.PLP.Chemscore.Internal.Correction>
0.0191

> <Gold.Rescore>
     Score         DG    S(hbond)    S(metal)    S(lipo)     H(rot)  DE(clash)    DE(int)     intcor
     16.79     -17.99       2.27        0.00      76.35       1.56       0.33       0.87       ----

> <Gold.Chemscore.Fitness>
16.7932

> <Gold.Chemscore.DG>
-17.9882

> <Gold.Chemscore.ZeroCoef>
-5.4800

> <Gold.Chemscore.Hbond>
2.2657

> <Gold.Chemscore.Metal>
0.0000

> <Gold.Chemscore.Lipo>
76.3455

> <Gold.Chemscore.Internal_Hbond>
0.0000

> <Gold.Chemscore.DEClash>
0.3273

> <Gold.Chemscore.DEInternal>
0.8677

> <Gold.Chemscore.Rot>
1.5592

> <Gold.Chemscore.Internal.Correction>
   9.000000E+99

> <Gold.Chemscore.Hbonds>
donor molecule, donor type, donor heavy atom, donor atom, acceptor molecule, acceptor atom, score
      L1  H     2    42       P1  7948  0.69
      L1  H     7    30       P1  7948  0.92
      L1  H    10    31       P1  7948  0.35

> <Gold.Chemscore.Hbond.Weighted>
-7.5673

> <Gold.Chemscore.Metal.Weighted>
-0.0000

> <Gold.Chemscore.Lipo.Weighted>
-8.9324

> <Gold.Chemscore.Internal_Hbond.Weighted>
0.0000

> <Gold.Chemscore.DEClash.Weighted>
0.3273

> <Gold.Chemscore.DEInternal.Weighted>
0.8677

> <Gold.Chemscore.Rot.Weighted>
3.9915

> <Gold.Chemscore.Internal.Correction.Weighted>
   9.000000E+99

> <Gold.Protein.RotatedTorsions>
[ 6907 6896 6895 6894 ] final  -53.91 input  -60.11 | X-H torsion
[ 7974 7965 7964 7962 ] final  -29.89 input  175.53 | X-H torsion
[ 8008 7997 7996 7995 ] final  -54.42 input   59.86 | X-H torsion
[ 10167 10162 10161 10158 ] final -163.85 input  -65.29 | X-H torsion
[ 10718 10713 10712 10709 ] final  -51.29 input   66.30 | X-H torsion
[ 10763 10752 10751 10750 ] final   -2.10 input  -60.55 | X-H torsion
[ 11005 11000 10999 10996 ] final  112.28 input  -57.11 | X-H torsion

> <Gold.Protein.ActiveResidues>
 VAL166  LYS551  ARG553  GLY616  TRP617  ASP618  TYR619  PRO620  LYS621  CYS622 
 ASP623  PHE694  ASN695  SER759  ASP760  ASP761  ALA762  ILE779  LEU786  VAL792 
 PHE793  MET794  SER795  GLU796  ALA797  LYS798  CYS799  TRP800  GLU811  SER814 

> <Gold.Protein.RotatedAtoms>
  150.8384  134.7667  159.6911 H   0  0  0  0  0  0  0  0  0  0  0  0  # atno 6907 bound_to 6896
  152.4476  134.5457  159.9862 H   0  0  0  0  0  0  0  0  0  0  0  0  # atno 6908 bound_to 6896
  151.5603  133.3366  159.3005 H   0  0  0  0  0  0  0  0  0  0  0  0  # atno 6909 bound_to 6896
  146.1183  140.5470  142.8746 H   0  0  0  0  0  0  0  0  0  0  0  0  # atno 7974 bound_to 7965
  154.4162  140.1177  156.5313 H   0  0  0  0  0  0  0  0  0  0  0  0  # atno 8008 bound_to 7997
  155.6603  140.3496  155.4761 H   0  0  0  0  0  0  0  0  0  0  0  0  # atno 8009 bound_to 7997
  155.9719  140.1143  157.0794 H   0  0  0  0  0  0  0  0  0  0  0  0  # atno 8010 bound_to 7997
  139.6292  144.0473  152.2001 H   0  0  0  0  0  0  0  0  0  0  0  0  # atno 10167 bound_to 10162
  156.1723  130.4149  149.9629 H   0  0  0  0  0  0  0  0  0  0  0  0  # atno 10718 bound_to 10713
  153.3536  135.6987  153.6768 H   0  0  0  0  0  0  0  0  0  0  0  0  # atno 10763 bound_to 10752
  153.5485  135.3558  155.2750 H   0  0  0  0  0  0  0  0  0  0  0  0  # atno 10764 bound_to 10752
  154.8657  135.4221  154.2777 H   0  0  0  0  0  0  0  0  0  0  0  0  # atno 10765 bound_to 10752
  139.8923  134.9526  156.6561 H   0  0  0  0  0  0  0  0  0  0  0  0  # atno 11005 bound_to 11000
  144.7574  140.5340  143.6759 LP  0  0  0  0  0  0  0  0  0  0  0  0  # atno 17320 bound_to 7965
  145.5519  139.1477  143.3389 LP  0  0  0  0  0  0  0  0  0  0  0  0  # atno 17321 bound_to 7965
  140.0134  144.6207  150.7627 LP  0  0  0  0  0  0  0  0  0  0  0  0  # atno 17342 bound_to 10162
  140.7429  143.2838  151.3521 LP  0  0  0  0  0  0  0  0  0  0  0  0  # atno 17343 bound_to 10162
  156.7425  130.9085  151.3633 LP  0  0  0  0  0  0  0  0  0  0  0  0  # atno 17370 bound_to 10713
  157.6811  130.9141  150.0270 LP  0  0  0  0  0  0  0  0  0  0  0  0  # atno 17371 bound_to 10713
  140.7483  133.8919  155.8328 LP  0  0  0  0  0  0  0  0  0  0  0  0  # atno 17394 bound_to 11000
  141.0021  134.1136  157.4306 LP  0  0  0  0  0  0  0  0  0  0  0  0  # atno 17395 bound_to 11000

$$$$
