AV-unprocessed.smi:112|AV-procd|sdf|1086|dock7
  -GOLD-   2262018183D 1   1.00000     0.00000
 Structure written by MMmdl.
 54 57  0  0  0  0  0  0  0  0  3 V2000
  151.0294  133.5547  157.5971 C   0  0  0  0  0  0  0  0  0  0  0  0
  150.7260  134.8142  156.8019 C   0  0  0  0  0  0  0  0  0  0  0  0
  149.5262  135.0215  156.2132 C   0  0  0  0  0  0  0  0  0  0  0  0
  149.2183  136.1544  155.4849 N   0  0  0  0  0  0  0  0  0  0  0  0
  147.8494  136.3130  154.8696 C   0  0  1  0  0  0  0  0  0  0  0  0
  147.2609  137.6873  155.1759 C   0  0  0  0  0  0  0  0  0  0  0  0
  146.3376  137.8979  153.9889 C   0  0  2  0  0  0  0  0  0  0  0  0
  145.0344  137.4397  154.2954 O   0  0  0  0  0  0  0  0  0  0  0  0
  146.9643  137.0288  152.8787 C   0  0  1  0  0  0  0  0  0  0  0  0
  147.5885  137.8022  151.7025 C   0  0  0  0  0  0  0  0  0  0  0  0
  147.6221  137.0269  150.5211 O   0  0  0  0  0  0  0  0  0  0  0  0
  147.9724  136.2248  153.4868 O   0  0  0  0  0  0  0  0  0  0  0  0
  150.1888  137.1619  155.3117 C   0  0  0  0  0  0  0  0  0  0  0  0
  149.9411  138.1777  154.6581 O   0  0  0  0  0  0  0  0  0  0  0  0
  151.4576  136.9713  155.9049 N   0  0  0  0  0  0  0  0  0  0  0  0
  152.4910  138.0172  155.7269 C   0  0  0  0  0  0  0  0  0  0  0  0
  153.0008  138.6300  157.0500 C   0  0  0  0  0  0  0  0  0  0  0  0
  153.9874  138.1337  157.5948 O   0  0  0  0  0  0  0  0  0  0  0  0
  152.3281  139.6946  157.5546 N   0  0  0  0  0  0  0  0  0  0  0  0
  151.1461  140.2898  156.9065 C   0  0  0  0  0  0  0  0  0  0  0  0
  150.7020  141.4636  157.8059 C   0  0  0  0  0  0  0  0  0  0  0  0
  151.7023  141.4321  158.9230 C   0  0  0  0  0  0  0  0  0  0  0  0
  151.7537  142.3000  160.0268 C   0  0  0  0  0  0  0  0  0  0  0  0
  152.7752  142.1196  160.9921 C   0  0  0  0  0  0  0  0  0  0  0  0
  152.8598  143.0118  162.1654 N   0  3  0  0  0  0  0  0  0  0  0  0
  153.6477  142.7229  163.0604 O   0  0  0  0  0  0  0  0  0  0  0  0
  152.1379  144.0033  162.1941 O   0  5  0  0  0  0  0  0  0  0  0  0
  153.7152  141.0696  160.8144 C   0  0  0  0  0  0  0  0  0  0  0  0
  153.6493  140.2074  159.6979 C   0  0  0  0  0  0  0  0  0  0  0  0
  152.6226  140.4047  158.7492 C   0  0  0  0  0  0  0  0  0  0  0  0
  151.7787  135.8248  156.6741 C   0  0  0  0  0  0  0  0  0  0  0  0
  152.8889  135.7112  157.1974 O   0  0  0  0  0  0  0  0  0  0  0  0
  150.1767  132.8755  157.6209 H   0  0  0  0  0  0  0  0  0  0  0  0
  151.2844  133.8061  158.6271 H   0  0  0  0  0  0  0  0  0  0  0  0
  151.8704  133.0185  157.1561 H   0  0  0  0  0  0  0  0  0  0  0  0
  148.7671  134.2589  156.3149 H   0  0  0  0  0  0  0  0  0  0  0  0
  147.2175  135.4912  155.2085 H   0  0  0  0  0  0  0  0  0  0  0  0
  146.7698  137.7058  156.1497 H   0  0  0  0  0  0  0  0  0  0  0  0
  148.0545  138.4356  155.1650 H   0  0  0  0  0  0  0  0  0  0  0  0
  146.2686  138.9519  153.7170 H   0  0  0  0  0  0  0  0  0  0  0  0
  144.4194  137.8743  153.7246 H   0  0  0  0  0  0  0  0  0  0  0  0
  146.2171  136.3453  152.4713 H   0  0  0  0  0  0  0  0  0  0  0  0
  147.0430  138.7278  151.5173 H   0  0  0  0  0  0  0  0  0  0  0  0
  148.6137  138.0795  151.9485 H   0  0  0  0  0  0  0  0  0  0  0  0
  146.7338  136.8279  150.2672 H   0  0  0  0  0  0  0  0  0  0  0  0
  153.3373  137.6118  155.1715 H   0  0  0  0  0  0  0  0  0  0  0  0
  152.1172  138.8209  155.0911 H   0  0  0  0  0  0  0  0  0  0  0  0
  151.3935  140.6541  155.9085 H   0  0  0  0  0  0  0  0  0  0  0  0
  150.3437  139.5563  156.8153 H   0  0  0  0  0  0  0  0  0  0  0  0
  150.7481  142.4179  157.2803 H   0  0  0  0  0  0  0  0  0  0  0  0
  149.6924  141.3213  158.1928 H   0  0  0  0  0  0  0  0  0  0  0  0
  151.0197  143.0866  160.1242 H   0  0  0  0  0  0  0  0  0  0  0  0
  154.5019  140.9137  161.5378 H   0  0  0  0  0  0  0  0  0  0  0  0
  154.3833  139.4234  159.6004 H   0  0  0  0  0  0  0  0  0  0  0  0
  1  2  1  0  0  0  0
  1 33  1  0  0  0  0
  1 34  1  0  0  0  0
  1 35  1  0  0  0  0
  2 31  1  0  0  0  0
  2  3  2  0  0  0  0
  3  4  1  0  0  0  0
  3 36  1  0  0  0  0
  4  5  1  0  0  0  0
  4 13  1  0  0  0  0
  5 12  1  0  0  0  0
  5  6  1  0  0  0  0
  5 37  1  0  0  0  0
  6  7  1  0  0  0  0
  6 38  1  0  0  0  0
  6 39  1  0  0  0  0
  7  8  1  0  0  0  0
  7  9  1  0  0  0  0
  7 40  1  0  0  0  0
  8 41  1  0  0  0  0
  9 10  1  0  0  0  0
  9 12  1  0  0  0  0
  9 42  1  0  0  0  0
 10 11  1  0  0  0  0
 10 43  1  0  0  0  0
 10 44  1  0  0  0  0
 11 45  1  0  0  0  0
 13 14  2  0  0  0  0
 13 15  1  0  0  0  0
 15 16  1  0  0  0  0
 15 31  1  0  0  0  0
 16 17  1  0  0  0  0
 16 46  1  0  0  0  0
 16 47  1  0  0  0  0
 17 18  2  0  0  0  0
 17 19  1  0  0  0  0
 19 30  1  0  0  0  0
 19 20  1  0  0  0  0
 20 21  1  0  0  0  0
 20 48  1  0  0  0  0
 20 49  1  0  0  0  0
 21 22  1  0  0  0  0
 21 50  1  0  0  0  0
 21 51  1  0  0  0  0
 22 30  2  0  0  0  0
 22 23  1  0  0  0  0
 23 24  2  0  0  0  0
 23 52  1  0  0  0  0
 24 25  1  0  0  0  0
 24 28  1  0  0  0  0
 25 26  2  0  0  0  0
 25 27  1  0  0  0  0
 28 29  2  0  0  0  0
 28 53  1  0  0  0  0
 29 30  1  0  0  0  0
 29 54  1  0  0  0  0
 31 32  2  0  0  0  0
M  CHG  1  25   1
M  CHG  1  27  -1
M  END
> <s_m_source_file>
AV-unprocessed.smi

> <i_m_source_file_index>
112

> <i_lp_mmshare_version>
43012

> <i_f3d_flags>
0

> <s_epik_input>
W09IXVtDSDJdW0NAQEhdKE8xKVtDQEhdKFtPSF0pW0NIMl1bQ0BIXTFuKFtjSF1jMltDSDNdKWMoPU8pbihjMj1PKVtDSDJdQyg9TylOKFtDSDJdW0NIMl0zKWMoYzM0KVtjSF1bY0hdYyhbY0hdNClbTitdKD1PKVtPLV0=

> <s_epik_cmdline>
J2VwaWtfcHl0aG9uJywgJy1waCcsICc3LjAnLCAnLXRuJywgJzgnLCAnLW1hJywgJzIwMCcsICctbWV0YWxfYmluZGluZycsICctaW1hZScsICc8aW5maWxlLm1hZT4nLCAnLW9tYWUnLCAnPG91dGZpbGUubWFlPic=

> <r_lp_tautomer_probability>
1

> <r_epik_Ionization_Penalty>
2.5696e-07

> <r_epik_Ionization_Penalty_Charging>
1.04886e-08

> <r_epik_Ionization_Penalty_Neutral>
2.46472e-07

> <r_epik_State_Penalty>
-0

> <r_epik_Charging_Adjusted_Penalty>
1.04886e-08

> <i_epik_Tot_Q>
0

> <i_epik_Tot_abs_Q>
2

> <r_epik_Metal_State_Penalty>
-0

> <b_epik_Metal_Only>
0

> <s_epik_Chemistry_Notes>
This compound contains an acetal/aminal-like group ( X-CH(R)-Y where X, Y are N, S, or O) that may be acid/base labile, releasing an aldehyde.

> <s_lp_Force_Field>
OPLS_2005

> <r_lp_Energy>
61.0713

> <b_lp_Chiralities_Consistent>
1

> <s_lp_Variant>
AV-unprocessed.smi:112-4

> <Gold.Version>
5.8.1

> <Gold.Id.Protein>
6NUR|6NUR_protein|mol2

> <Gold.PLP.Fitness>
53.9545

> <Gold.PLP.PLP>
-43.8600

> <Gold.PLP.part.hbond>
-6.0000

> <Gold.PLP.part.metal>
0.0000

> <Gold.PLP.part.buried>
-2.2167

> <Gold.PLP.part.nonpolar>
-39.4100

> <Gold.PLP.part.repulsive>
4.5735

> <Gold.PLP.ligand.clash>
0.0000

> <Gold.PLP.ligand.torsion>
0.8749

> <Gold.PLP.Chemscore.Hbond>
3.9440

> <Gold.PLP.Chemscore.CHOScore>
0.0000

> <Gold.PLP.Chemscore.Metal>
0.0000

> <Gold.Chemscore.Hbonds>
donor molecule, donor type, donor heavy atom, donor atom, acceptor molecule, acceptor atom, score
      P1  H  7954  7966       L1    11  0.04

> <Gold.PLP.Chemscore.Internal.Correction>
0.0123

> <Gold.Rescore>
     Score         DG    S(hbond)    S(metal)    S(lipo)     H(rot)  DE(clash)    DE(int)     intcor
      7.22     -16.86       2.42        0.00     100.28       3.29       3.34       6.30       ----

> <Gold.Chemscore.Fitness>
7.2175

> <Gold.Chemscore.DG>
-16.8555

> <Gold.Chemscore.ZeroCoef>
-5.4800

> <Gold.Chemscore.Hbond>
2.4161

> <Gold.Chemscore.Metal>
0.0000

> <Gold.Chemscore.Lipo>
100.2751

> <Gold.Chemscore.Internal_Hbond>
0.0000

> <Gold.Chemscore.DEClash>
3.3361

> <Gold.Chemscore.DEInternal>
6.3019

> <Gold.Chemscore.Rot>
3.2916

> <Gold.Chemscore.Internal.Correction>
   9.000000E+99

> <Gold.Chemscore.Hbonds>
donor molecule, donor type, donor heavy atom, donor atom, acceptor molecule, acceptor atom, score
      P1  H  7954  7966       L1    11  0.01

> <Gold.Chemscore.Hbond.Weighted>
-8.0698

> <Gold.Chemscore.Metal.Weighted>
-0.0000

> <Gold.Chemscore.Lipo.Weighted>
-11.7322

> <Gold.Chemscore.Internal_Hbond.Weighted>
0.0000

> <Gold.Chemscore.DEClash.Weighted>
3.3361

> <Gold.Chemscore.DEInternal.Weighted>
6.3019

> <Gold.Chemscore.Rot.Weighted>
8.4265

> <Gold.Chemscore.Internal.Correction.Weighted>
   9.000000E+99

> <Gold.Protein.RotatedTorsions>
[ 6907 6896 6895 6894 ] final   56.47 input  -60.11 | X-H torsion
[ 7974 7965 7964 7962 ] final -177.42 input  175.53 | X-H torsion
[ 8008 7997 7996 7995 ] final  160.71 input   59.86 | X-H torsion
[ 10167 10162 10161 10158 ] final  -96.04 input  -65.29 | X-H torsion
[ 10718 10713 10712 10709 ] final  -97.46 input   66.30 | X-H torsion
[ 10763 10752 10751 10750 ] final -162.67 input  -60.55 | X-H torsion
[ 11005 11000 10999 10996 ] final  -93.97 input  -57.11 | X-H torsion

> <Gold.Protein.ActiveResidues>
 VAL166  LYS551  ARG553  GLY616  TRP617  ASP618  TYR619  PRO620  LYS621  CYS622 
 ASP623  PHE694  ASN695  SER759  ASP760  ASP761  ALA762  ILE779  LEU786  VAL792 
 PHE793  MET794  SER795  GLU796  ALA797  LYS798  CYS799  TRP800  GLU811  SER814 

> <Gold.Protein.RotatedAtoms>
  152.3639  134.6832  160.0198 H   0  0  0  0  0  0  0  0  0  0  0  0  # atno 6907 bound_to 6896
  151.7147  133.3307  159.3308 H   0  0  0  0  0  0  0  0  0  0  0  0  # atno 6908 bound_to 6896
  150.7624  134.6435  159.6294 H   0  0  0  0  0  0  0  0  0  0  0  0  # atno 6909 bound_to 6896
  144.7128  140.1022  143.6416 H   0  0  0  0  0  0  0  0  0  0  0  0  # atno 7974 bound_to 7965
  156.2154  140.1797  156.7601 H   0  0  0  0  0  0  0  0  0  0  0  0  # atno 8008 bound_to 7997
  154.5783  140.0670  156.9096 H   0  0  0  0  0  0  0  0  0  0  0  0  # atno 8009 bound_to 7997
  155.2548  140.3331  155.4281 H   0  0  0  0  0  0  0  0  0  0  0  0  # atno 8010 bound_to 7997
  140.2979  143.3180  152.0278 H   0  0  0  0  0  0  0  0  0  0  0  0  # atno 10167 bound_to 10162
  156.0084  130.5195  150.6377 H   0  0  0  0  0  0  0  0  0  0  0  0  # atno 10718 bound_to 10713
  154.7193  135.3022  154.9074 H   0  0  0  0  0  0  0  0  0  0  0  0  # atno 10763 bound_to 10752
  153.9951  135.6714  153.4760 H   0  0  0  0  0  0  0  0  0  0  0  0  # atno 10764 bound_to 10752
  153.0820  135.5004  154.8438 H   0  0  0  0  0  0  0  0  0  0  0  0  # atno 10765 bound_to 10752
  141.1483  133.7924  157.0233 H   0  0  0  0  0  0  0  0  0  0  0  0  # atno 11005 bound_to 11000
  145.9528  139.2745  143.1202 LP  0  0  0  0  0  0  0  0  0  0  0  0  # atno 17320 bound_to 7965
  145.9305  140.9052  143.0359 LP  0  0  0  0  0  0  0  0  0  0  0  0  # atno 17321 bound_to 7965
  139.4922  144.6477  151.6743 LP  0  0  0  0  0  0  0  0  0  0  0  0  # atno 17342 bound_to 10162
  140.5676  144.0163  150.6200 LP  0  0  0  0  0  0  0  0  0  0  0  0  # atno 17343 bound_to 10162
  157.4163  131.0830  151.1173 LP  0  0  0  0  0  0  0  0  0  0  0  0  # atno 17370 bound_to 10713
  157.1789  130.6300  149.5665 LP  0  0  0  0  0  0  0  0  0  0  0  0  # atno 17371 bound_to 10713
  140.0802  134.9653  157.1611 LP  0  0  0  0  0  0  0  0  0  0  0  0  # atno 17394 bound_to 11000
  140.3588  134.2517  155.7189 LP  0  0  0  0  0  0  0  0  0  0  0  0  # atno 17395 bound_to 11000

$$$$
