AV-unprocessed.smi:213|AV-procd|sdf|1634|dock3
  -GOLD-   2262019593D 1   1.00000     0.00000
 Structure written by MMmdl.
 59 62  0  0  0  0  0  0  0  0  2 V2000
  150.2697  133.4000  154.3236 C   0  0  0  0  0  0  0  0  0  0  0  0
  149.7671  134.8557  154.3077 C   0  0  1  0  0  0  0  0  0  0  0  0
  148.2263  134.9413  154.2024 C   0  0  0  0  0  0  0  0  0  0  0  0
  147.7453  134.8618  152.8004 N   0  3  0  0  0  0  0  0  0  0  0  0
  147.9050  133.5076  152.2199 C   0  0  0  0  0  0  0  0  0  0  0  0
  147.4402  133.4922  150.7537 C   0  0  0  0  0  0  0  0  0  0  0  0
  146.0891  133.9287  150.6769 O   0  0  0  0  0  0  0  0  0  0  0  0
  145.9327  135.2606  151.1499 C   0  0  0  0  0  0  0  0  0  0  0  0
  146.3497  135.3374  152.6284 C   0  0  0  0  0  0  0  0  0  0  0  0
  150.2677  135.5973  155.4733 N   0  0  0  0  0  0  0  0  0  0  0  0
  149.9673  135.1243  156.8231 C   0  0  0  0  0  0  0  0  0  0  0  0
  150.6144  136.9098  155.3456 C   0  0  0  0  0  0  0  0  0  0  0  0
  150.6429  137.4753  154.1078 N   0  0  0  0  0  0  0  0  0  0  0  0
  150.9687  138.7610  153.9510 C   0  0  0  0  0  0  0  0  0  0  0  0
  151.3000  139.6557  154.8816 N   0  0  0  0  0  0  0  0  0  0  0  0
  151.2810  139.1011  156.1269 C   0  0  0  0  0  0  0  0  0  0  0  0
  150.9553  137.7515  156.4471 C   0  0  0  0  0  0  0  0  0  0  0  0
  151.0613  137.5618  157.8213 N   0  0  0  0  0  0  0  0  0  0  0  0
  151.4049  138.7316  158.2852 C   0  0  0  0  0  0  0  0  0  0  0  0
  151.5510  139.7169  157.3366 N   0  0  0  0  0  0  0  0  0  0  0  0
  151.9154  141.1047  157.5694 C   0  0  0  0  0  0  0  0  0  0  0  0
  150.7311  142.0930  157.4701 C   0  0  2  0  0  0  0  0  0  0  0  0
  150.4695  142.4340  156.1221 O   0  0  0  0  0  0  0  0  0  0  0  0
  150.8598  143.3678  158.3358 C   0  0  2  0  0  0  0  0  0  0  0  0
  151.8921  144.3934  157.8661 C   0  0  0  0  0  0  0  0  0  0  0  0
  152.0880  145.2086  159.1250 C   0  0  0  0  0  0  0  0  0  0  0  0
  152.0125  144.1407  160.2147 C   0  0  0  0  0  0  0  0  0  0  0  0
  151.1980  143.0950  159.6927 O   0  0  0  0  0  0  0  0  0  0  0  0
  150.0051  132.8822  153.4017 H   0  0  0  0  0  0  0  0  0  0  0  0
  149.8480  132.8292  155.1508 H   0  0  0  0  0  0  0  0  0  0  0  0
  151.3558  133.3641  154.4139 H   0  0  0  0  0  0  0  0  0  0  0  0
  150.2104  135.3018  153.4184 H   0  0  0  0  0  0  0  0  0  0  0  0
  147.7899  134.1256  154.7804 H   0  0  0  0  0  0  0  0  0  0  0  0
  147.8529  135.8614  154.6543 H   0  0  0  0  0  0  0  0  0  0  0  0
  148.9503  133.2013  152.2739 H   0  0  0  0  0  0  0  0  0  0  0  0
  147.3283  132.7884  152.8038 H   0  0  0  0  0  0  0  0  0  0  0  0
  148.0766  134.1281  150.1359 H   0  0  0  0  0  0  0  0  0  0  0  0
  147.5093  132.4828  150.3480 H   0  0  0  0  0  0  0  0  0  0  0  0
  146.5231  135.9479  150.5416 H   0  0  0  0  0  0  0  0  0  0  0  0
  144.8887  135.5536  151.0384 H   0  0  0  0  0  0  0  0  0  0  0  0
  145.6776  134.7275  153.2345 H   0  0  0  0  0  0  0  0  0  0  0  0
  146.2487  136.3641  152.9782 H   0  0  0  0  0  0  0  0  0  0  0  0
  149.5444  135.9195  157.4386 H   0  0  0  0  0  0  0  0  0  0  0  0
  150.8752  134.7602  157.3042 H   0  0  0  0  0  0  0  0  0  0  0  0
  149.2470  134.3074  156.8139 H   0  0  0  0  0  0  0  0  0  0  0  0
  150.9619  139.1258  152.9344 H   0  0  0  0  0  0  0  0  0  0  0  0
  151.5569  138.9105  159.3396 H   0  0  0  0  0  0  0  0  0  0  0  0
  152.3793  141.1740  158.5540 H   0  0  0  0  0  0  0  0  0  0  0  0
  152.6873  141.3838  156.8517 H   0  0  0  0  0  0  0  0  0  0  0  0
  149.8449  141.5601  157.8159 H   0  0  0  0  0  0  0  0  0  0  0  0
  150.0362  143.2733  156.1032 H   0  0  0  0  0  0  0  0  0  0  0  0
  149.8872  143.8624  158.3590 H   0  0  0  0  0  0  0  0  0  0  0  0
  152.8311  143.9142  157.5874 H   0  0  0  0  0  0  0  0  0  0  0  0
  151.5466  144.9889  157.0208 H   0  0  0  0  0  0  0  0  0  0  0  0
  153.0256  145.7646  159.1370 H   0  0  0  0  0  0  0  0  0  0  0  0
  151.2682  145.9191  159.2395 H   0  0  0  0  0  0  0  0  0  0  0  0
  153.0028  143.7343  160.4221 H   0  0  0  0  0  0  0  0  0  0  0  0
  151.6042  144.5304  161.1471 H   0  0  0  0  0  0  0  0  0  0  0  0
  148.3380  135.4731  152.2572 H   0  0  0  0  0  0  0  0  0  0  0  0
  1  2  1  0  0  0  0
  1 29  1  0  0  0  0
  1 30  1  0  0  0  0
  1 31  1  0  0  0  0
  2  3  1  0  0  0  0
  2 10  1  0  0  0  0
  2 32  1  0  0  0  0
  3  4  1  0  0  0  0
  3 33  1  0  0  0  0
  3 34  1  0  0  0  0
  4  9  1  0  0  0  0
  4  5  1  0  0  0  0
  4 59  1  0  0  0  0
  5  6  1  0  0  0  0
  5 35  1  0  0  0  0
  5 36  1  0  0  0  0
  6  7  1  0  0  0  0
  6 37  1  0  0  0  0
  6 38  1  0  0  0  0
  7  8  1  0  0  0  0
  8  9  1  0  0  0  0
  8 39  1  0  0  0  0
  8 40  1  0  0  0  0
  9 41  1  0  0  0  0
  9 42  1  0  0  0  0
 10 11  1  0  0  0  0
 10 12  1  0  0  0  0
 11 43  1  0  0  0  0
 11 44  1  0  0  0  0
 11 45  1  0  0  0  0
 12 17  1  0  0  0  0
 12 13  2  0  0  0  0
 13 14  1  0  0  0  0
 14 15  2  0  0  0  0
 14 46  1  0  0  0  0
 15 16  1  0  0  0  0
 16 20  1  0  0  0  0
 16 17  2  0  0  0  0
 17 18  1  0  0  0  0
 18 19  2  0  0  0  0
 19 20  1  0  0  0  0
 19 47  1  0  0  0  0
 20 21  1  0  0  0  0
 21 22  1  0  0  0  0
 21 48  1  0  0  0  0
 21 49  1  0  0  0  0
 22 23  1  0  0  0  0
 22 24  1  0  0  0  0
 22 50  1  0  0  0  0
 23 51  1  0  0  0  0
 24 28  1  0  0  0  0
 24 25  1  0  0  0  0
 24 52  1  0  0  0  0
 25 26  1  0  0  0  0
 25 53  1  0  0  0  0
 25 54  1  0  0  0  0
 26 27  1  0  0  0  0
 26 55  1  0  0  0  0
 26 56  1  0  0  0  0
 27 28  1  0  0  0  0
 27 57  1  0  0  0  0
 27 58  1  0  0  0  0
M  CHG  1   4   1
M  END
> <s_m_source_file>
AV-unprocessed.smi

> <i_m_source_file_index>
213

> <i_lp_mmshare_version>
43012

> <i_f3d_flags>
0

> <s_epik_input>
W0NIMl0xW0NIMl1PW0NIMl1bQ0gyXU4xW0NIMl1bQ0BASF0oW0NIM10pTihbQ0gzXSljKG5bY0hdbjIpYyhjMjMpbltjSF1uM1tDSDJdW0NASF0oW09IXSlbQ0BASF00W0NIMl1bQ0gyXVtDSDJdTzQ=

> <s_epik_cmdline>
J2VwaWtfcHl0aG9uJywgJy1waCcsICc3LjAnLCAnLXRuJywgJzgnLCAnLW1hJywgJzIwMCcsICctbWV0YWxfYmluZGluZycsICctaW1hZScsICc8aW5maWxlLm1hZT4nLCAnLW9tYWUnLCAnPG91dGZpbGUubWFlPic=

> <r_lp_tautomer_probability>
1

> <r_epik_Ionization_Penalty>
0.399679

> <r_epik_Ionization_Penalty_Charging>
0.399433

> <r_epik_Ionization_Penalty_Neutral>
0.000246213

> <r_epik_State_Penalty>
0.286032

> <r_epik_Charging_Adjusted_Penalty>
0.685465

> <i_epik_Tot_Q>
1

> <i_epik_Tot_abs_Q>
1

> <r_epik_Metal_State_Penalty>
0.286072

> <b_epik_Metal_Only>
0

> <s_lp_Force_Field>
OPLS_2005

> <r_lp_Energy>
46.153

> <b_lp_Chiralities_Consistent>
1

> <s_lp_Variant>
AV-unprocessed.smi:213-2

> <Gold.Version>
5.8.1

> <Gold.Id.Protein>
6NUR|6NUR_protein|mol2

> <Gold.PLP.Fitness>
58.4434

> <Gold.PLP.PLP>
-46.5290

> <Gold.PLP.part.hbond>
-2.9372

> <Gold.PLP.part.metal>
0.0000

> <Gold.PLP.part.buried>
-8.1584

> <Gold.PLP.part.nonpolar>
-36.0155

> <Gold.PLP.part.repulsive>
1.0146

> <Gold.PLP.ligand.clash>
0.0000

> <Gold.PLP.ligand.torsion>
1.4253

> <Gold.PLP.Chemscore.Hbond>
3.6232

> <Gold.PLP.Chemscore.CHOScore>
1.0000

> <Gold.PLP.Chemscore.Metal>
0.0000

> <Gold.Chemscore.Hbonds>
donor molecule, donor type, donor heavy atom, donor atom, acceptor molecule, acceptor atom, score
      L1  H    23    51       P1  8028  1.00
      P1  H  7989  7998       L1    15  0.40
      L1  C    14    46       P1  7957  0.97

> <Gold.PLP.Chemscore.Internal.Correction>
0.8955

> <Gold.Rescore>
     Score         DG    S(hbond)    S(metal)    S(lipo)     H(rot)  DE(clash)    DE(int)     intcor
     14.26     -17.05       2.11        0.00     100.59       2.83       0.18       2.61       ----

> <Gold.Chemscore.Fitness>
14.2597

> <Gold.Chemscore.DG>
-17.0479

> <Gold.Chemscore.ZeroCoef>
-5.4800

> <Gold.Chemscore.Hbond>
2.1055

> <Gold.Chemscore.Metal>
0.0000

> <Gold.Chemscore.Lipo>
100.5854

> <Gold.Chemscore.Internal_Hbond>
0.0000

> <Gold.Chemscore.DEClash>
0.1754

> <Gold.Chemscore.DEInternal>
2.6128

> <Gold.Chemscore.Rot>
2.8254

> <Gold.Chemscore.Internal.Correction>
   9.000000E+99

> <Gold.Chemscore.Hbonds>
donor molecule, donor type, donor heavy atom, donor atom, acceptor molecule, acceptor atom, score
      L1  H    23    51       P1  8028  1.00
      P1  H  7989  7998       L1    15  0.01

> <Gold.Chemscore.Hbond.Weighted>
-7.0324

> <Gold.Chemscore.Metal.Weighted>
-0.0000

> <Gold.Chemscore.Lipo.Weighted>
-11.7685

> <Gold.Chemscore.Internal_Hbond.Weighted>
0.0000

> <Gold.Chemscore.DEClash.Weighted>
0.1754

> <Gold.Chemscore.DEInternal.Weighted>
2.6128

> <Gold.Chemscore.Rot.Weighted>
7.2330

> <Gold.Chemscore.Internal.Correction.Weighted>
   9.000000E+99

> <Gold.Protein.RotatedTorsions>
[ 6907 6896 6895 6894 ] final -161.45 input  -60.11 | X-H torsion
[ 7974 7965 7964 7962 ] final  114.95 input  175.53 | X-H torsion
[ 8008 7997 7996 7995 ] final  -65.17 input   59.86 | X-H torsion
[ 10167 10162 10161 10158 ] final  -73.95 input  -65.29 | X-H torsion
[ 10718 10713 10712 10709 ] final  112.55 input   66.30 | X-H torsion
[ 10763 10752 10751 10750 ] final -162.09 input  -60.55 | X-H torsion
[ 11005 11000 10999 10996 ] final  171.39 input  -57.11 | X-H torsion

> <Gold.Protein.ActiveResidues>
 VAL166  LYS551  ARG553  GLY616  TRP617  ASP618  TYR619  PRO620  LYS621  CYS622 
 ASP623  PHE694  ASN695  SER759  ASP760  ASP761  ALA762  ILE779  LEU786  VAL792 
 PHE793  MET794  SER795  GLU796  ALA797  LYS798  CYS799  TRP800  GLU811  SER814 

> <Gold.Protein.RotatedAtoms>
  151.3649  133.3876  159.2693 H   0  0  0  0  0  0  0  0  0  0  0  0  # atno 6907 bound_to 6896
  150.9696  134.9072  159.7790 H   0  0  0  0  0  0  0  0  0  0  0  0  # atno 6908 bound_to 6896
  152.5180  134.3611  159.9337 H   0  0  0  0  0  0  0  0  0  0  0  0  # atno 6909 bound_to 6896
  145.1980  139.2966  143.4333 H   0  0  0  0  0  0  0  0  0  0  0  0  # atno 7974 bound_to 7965
  154.4655  140.0938  156.7009 H   0  0  0  0  0  0  0  0  0  0  0  0  # atno 8008 bound_to 7997
  155.4869  140.3469  155.4330 H   0  0  0  0  0  0  0  0  0  0  0  0  # atno 8009 bound_to 7997
  156.0949  140.1407  156.9533 H   0  0  0  0  0  0  0  0  0  0  0  0  # atno 8010 bound_to 7997
  140.5068  143.2351  151.7660 H   0  0  0  0  0  0  0  0  0  0  0  0  # atno 10167 bound_to 10162
  157.6387  131.0969  150.6911 H   0  0  0  0  0  0  0  0  0  0  0  0  # atno 10718 bound_to 10713
  154.7245  135.3033  154.8993 H   0  0  0  0  0  0  0  0  0  0  0  0  # atno 10763 bound_to 10752
  153.9855  135.6725  153.4756 H   0  0  0  0  0  0  0  0  0  0  0  0  # atno 10764 bound_to 10752
  153.0863  135.4982  154.8521 H   0  0  0  0  0  0  0  0  0  0  0  0  # atno 10765 bound_to 10752
  140.3185  134.7457  157.4046 H   0  0  0  0  0  0  0  0  0  0  0  0  # atno 11005 bound_to 11000
  146.3423  140.2215  142.8591 LP  0  0  0  0  0  0  0  0  0  0  0  0  # atno 17320 bound_to 7965
  144.9976  140.8603  143.5301 LP  0  0  0  0  0  0  0  0  0  0  0  0  # atno 17321 bound_to 7965
  139.4885  144.4446  151.9725 LP  0  0  0  0  0  0  0  0  0  0  0  0  # atno 17342 bound_to 10162
  140.3537  144.3058  150.5945 LP  0  0  0  0  0  0  0  0  0  0  0  0  # atno 17343 bound_to 10162
  156.7238  130.4689  149.5516 LP  0  0  0  0  0  0  0  0  0  0  0  0  # atno 17370 bound_to 10713
  156.1647  130.6398  151.0763 LP  0  0  0  0  0  0  0  0  0  0  0  0  # atno 17371 bound_to 10713
  140.0962  134.5534  155.8396 LP  0  0  0  0  0  0  0  0  0  0  0  0  # atno 17394 bound_to 11000
  141.2092  133.6681  156.6422 LP  0  0  0  0  0  0  0  0  0  0  0  0  # atno 17395 bound_to 11000

$$$$
