AV-unprocessed.smi:3312|AV-procd|sdf|12728|dock7
  -GOLD-   2272019 73D 1   1.00000     0.00000
 Structure written by MMmdl.
 38 39  0  0  0  0  0  0  0  0  1 V2000
  152.0827  145.3075  159.3974 C   0  0  0  0  0  0  0  0  0  0  0  0
  152.0164  143.9008  158.8760 C   0  0  0  0  0  0  0  0  0  0  0  0
  151.3957  143.4387  157.6806 C   0  0  0  0  0  0  0  0  0  0  0  0
  151.5155  142.1322  157.5107 N   0  0  0  0  0  0  0  0  0  0  0  0
  152.2113  141.7142  158.5890 N   0  0  0  0  0  0  0  0  0  0  0  0
  152.5337  140.3061  158.7408 C   0  0  0  0  0  0  0  0  0  0  0  0
  152.0275  139.4516  157.5659 C   0  0  0  0  0  0  0  0  0  0  0  0
  153.1455  139.0452  156.7189 N   0  0  0  0  0  0  0  0  0  0  0  0
  152.7245  138.6728  155.3572 C   0  0  0  0  0  0  0  0  0  0  0  0
  151.3129  139.1402  154.9457 C   0  0  0  0  0  0  0  0  0  0  0  0
  151.0833  140.3478  154.8567 O   0  0  0  0  0  0  0  0  0  0  0  0
  150.3657  138.2092  154.6764 N   0  0  0  0  0  0  0  0  0  0  0  0
  148.9748  138.5465  154.3594 C   0  0  0  0  0  0  0  0  0  0  0  0
  148.0728  137.9672  155.4646 C   0  0  0  0  0  0  0  0  0  0  0  0
  148.2712  136.5584  155.5608 O   0  0  0  0  0  0  0  0  0  0  0  0
  149.6234  136.1998  155.8364 C   0  0  0  0  0  0  0  0  0  0  0  0
  150.5380  136.7541  154.7299 C   0  0  0  0  0  0  0  0  0  0  0  0
  152.5301  142.7613  159.4273 C   0  0  0  0  0  0  0  0  0  0  0  0
  151.9506  146.0407  158.6014 H   0  0  0  0  0  0  0  0  0  0  0  0
  153.0419  145.5179  159.8710 H   0  0  0  0  0  0  0  0  0  0  0  0
  151.3081  145.4964  160.1408 H   0  0  0  0  0  0  0  0  0  0  0  0
  150.8644  144.0116  156.9348 H   0  0  0  0  0  0  0  0  0  0  0  0
  153.6171  140.2129  158.8260 H   0  0  0  0  0  0  0  0  0  0  0  0
  152.1163  139.9475  159.6827 H   0  0  0  0  0  0  0  0  0  0  0  0
  151.5051  138.5705  157.9414 H   0  0  0  0  0  0  0  0  0  0  0  0
  151.3023  140.0302  156.9945 H   0  0  0  0  0  0  0  0  0  0  0  0
  153.6259  138.2807  157.1713 H   0  0  0  0  0  0  0  0  0  0  0  0
  153.4338  139.1107  154.6543 H   0  0  0  0  0  0  0  0  0  0  0  0
  152.8065  137.5900  155.2568 H   0  0  0  0  0  0  0  0  0  0  0  0
  148.8042  139.6203  154.2732 H   0  0  0  0  0  0  0  0  0  0  0  0
  148.7086  138.1187  153.3917 H   0  0  0  0  0  0  0  0  0  0  0  0
  148.2844  138.4394  156.4254 H   0  0  0  0  0  0  0  0  0  0  0  0
  147.0244  138.1612  155.2373 H   0  0  0  0  0  0  0  0  0  0  0  0
  149.9202  136.5810  156.8149 H   0  0  0  0  0  0  0  0  0  0  0  0
  149.6982  135.1133  155.8797 H   0  0  0  0  0  0  0  0  0  0  0  0
  150.2555  136.3268  153.7668 H   0  0  0  0  0  0  0  0  0  0  0  0
  151.5642  136.4337  154.8992 H   0  0  0  0  0  0  0  0  0  0  0  0
  153.0878  142.6096  160.3397 H   0  0  0  0  0  0  0  0  0  0  0  0
  1  2  1  0  0  0  0
  1 19  1  0  0  0  0
  1 20  1  0  0  0  0
  1 21  1  0  0  0  0
  2 18  2  0  0  0  0
  2  3  1  0  0  0  0
  3  4  2  0  0  0  0
  3 22  1  0  0  0  0
  4  5  1  0  0  0  0
  5  6  1  0  0  0  0
  5 18  1  0  0  0  0
  6  7  1  0  0  0  0
  6 23  1  0  0  0  0
  6 24  1  0  0  0  0
  7  8  1  0  0  0  0
  7 25  1  0  0  0  0
  7 26  1  0  0  0  0
  8  9  1  0  0  0  0
  8 27  1  0  0  0  0
  9 10  1  0  0  0  0
  9 28  1  0  0  0  0
  9 29  1  0  0  0  0
 10 11  2  0  0  0  0
 10 12  1  0  0  0  0
 12 17  1  0  0  0  0
 12 13  1  0  0  0  0
 13 14  1  0  0  0  0
 13 30  1  0  0  0  0
 13 31  1  0  0  0  0
 14 15  1  0  0  0  0
 14 32  1  0  0  0  0
 14 33  1  0  0  0  0
 15 16  1  0  0  0  0
 16 17  1  0  0  0  0
 16 34  1  0  0  0  0
 16 35  1  0  0  0  0
 17 36  1  0  0  0  0
 17 37  1  0  0  0  0
 18 38  1  0  0  0  0
M  END
> <s_m_source_file>
AV-unprocessed.smi

> <i_m_source_file_index>
3312

> <i_lp_mmshare_version>
43012

> <i_f3d_flags>
0

> <s_epik_input>
W0NIM11jMVtjSF1ubihbY0hdMSlbQ0gyXVtDSDJdW05IXVtDSDJdQyg9TylOMltDSDJdW0NIMl1PW0NIMl1bQ0gyXTI=

> <s_epik_cmdline>
J2VwaWtfcHl0aG9uJywgJy1waCcsICc3LjAnLCAnLXRuJywgJzgnLCAnLW1hJywgJzIwMCcsICctbWV0YWxfYmluZGluZycsICctaW1hZScsICc8aW5maWxlLm1hZT4nLCAnLW9tYWUnLCAnPG91dGZpbGUubWFlPic=

> <r_lp_tautomer_probability>
1

> <r_epik_Ionization_Penalty>
0.513825

> <r_epik_Ionization_Penalty_Charging>
0

> <r_epik_Ionization_Penalty_Neutral>
0.513825

> <r_epik_State_Penalty>
0.518565

> <r_epik_Charging_Adjusted_Penalty>
0.518565

> <i_epik_Tot_Q>
0

> <i_epik_Tot_abs_Q>
0

> <r_epik_Metal_State_Penalty>
0.515505

> <b_epik_Metal_Only>
0

> <s_lp_Force_Field>
OPLS_2005

> <r_lp_Energy>
26.2636

> <b_lp_Chiralities_Consistent>
1

> <s_lp_Variant>
AV-unprocessed.smi:3312-2

> <Gold.Version>
5.8.1

> <Gold.Id.Protein>
6NUR|6NUR_protein|mol2

> <Gold.PLP.Fitness>
43.0157

> <Gold.PLP.PLP>
-36.1203

> <Gold.PLP.part.hbond>
-1.8231

> <Gold.PLP.part.metal>
0.0000

> <Gold.PLP.part.buried>
-3.3249

> <Gold.PLP.part.nonpolar>
-31.4669

> <Gold.PLP.part.repulsive>
0.1773

> <Gold.PLP.ligand.clash>
0.5916

> <Gold.PLP.ligand.torsion>
0.7680

> <Gold.PLP.Chemscore.Hbond>
2.0000

> <Gold.PLP.Chemscore.CHOScore>
1.0000

> <Gold.PLP.Chemscore.Metal>
0.0000

> <Gold.Chemscore.Hbonds>
donor molecule, donor type, donor heavy atom, donor atom, acceptor molecule, acceptor atom, score
      P1  H  7989  7998       L1    11  1.00
      P1  H  7997  8010       L1     8  0.90
      L1  C     3    22       P1  8028  1.00

> <Gold.PLP.Chemscore.Internal.Correction>
0.0230

> <Gold.Rescore>
     Score         DG    S(hbond)    S(metal)    S(lipo)     H(rot)  DE(clash)    DE(int)     intcor
     13.41     -14.28       1.21        0.00      80.41       1.82       0.10       0.78       ----

> <Gold.Chemscore.Fitness>
13.4056

> <Gold.Chemscore.DG>
-14.2786

> <Gold.Chemscore.ZeroCoef>
-5.4800

> <Gold.Chemscore.Hbond>
1.2136

> <Gold.Chemscore.Metal>
0.0000

> <Gold.Chemscore.Lipo>
80.4059

> <Gold.Chemscore.Internal_Hbond>
0.0000

> <Gold.Chemscore.DEClash>
0.0959

> <Gold.Chemscore.DEInternal>
0.7771

> <Gold.Chemscore.Rot>
1.8213

> <Gold.Chemscore.Internal.Correction>
   9.000000E+99

> <Gold.Chemscore.Hbonds>
donor molecule, donor type, donor heavy atom, donor atom, acceptor molecule, acceptor atom, score
      P1  H  7989  7998       L1    11  0.66
      P1  H  7997  8010       L1     8  0.08

> <Gold.Chemscore.Hbond.Weighted>
-4.0535

> <Gold.Chemscore.Metal.Weighted>
-0.0000

> <Gold.Chemscore.Lipo.Weighted>
-9.4075

> <Gold.Chemscore.Internal_Hbond.Weighted>
0.0000

> <Gold.Chemscore.DEClash.Weighted>
0.0959

> <Gold.Chemscore.DEInternal.Weighted>
0.7771

> <Gold.Chemscore.Rot.Weighted>
4.6624

> <Gold.Chemscore.Internal.Correction.Weighted>
   9.000000E+99

> <Gold.Protein.RotatedTorsions>
[ 6907 6896 6895 6894 ] final   44.94 input  -60.11 | X-H torsion
[ 7974 7965 7964 7962 ] final  -86.21 input  175.53 | X-H torsion
[ 8008 7997 7996 7995 ] final   80.29 input   59.86 | X-H torsion
[ 10167 10162 10161 10158 ] final  -40.64 input  -65.29 | X-H torsion
[ 10718 10713 10712 10709 ] final -116.19 input   66.30 | X-H torsion
[ 10763 10752 10751 10750 ] final   76.48 input  -60.55 | X-H torsion
[ 11005 11000 10999 10996 ] final  126.02 input  -57.11 | X-H torsion

> <Gold.Protein.ActiveResidues>
 VAL166  LYS551  ARG553  GLY616  TRP617  ASP618  TYR619  PRO620  LYS621  CYS622 
 ASP623  PHE694  ASN695  SER759  ASP760  ASP761  ALA762  ILE779  LEU786  VAL792 
 PHE793  MET794  SER795  GLU796  ALA797  LYS798  CYS799  TRP800  GLU811  SER814 

> <Gold.Protein.RotatedAtoms>
  152.2386  134.8251  160.0463 H   0  0  0  0  0  0  0  0  0  0  0  0  # atno 6907 bound_to 6896
  151.8974  133.3525  159.3827 H   0  0  0  0  0  0  0  0  0  0  0  0  # atno 6908 bound_to 6896
  150.7047  134.4788  159.5505 H   0  0  0  0  0  0  0  0  0  0  0  0  # atno 6909 bound_to 6896
  145.4829  140.9556  143.1854 H   0  0  0  0  0  0  0  0  0  0  0  0  # atno 7974 bound_to 7965
  155.8814  140.3444  155.5891 H   0  0  0  0  0  0  0  0  0  0  0  0  # atno 8008 bound_to 7997
  155.7715  140.0846  157.2125 H   0  0  0  0  0  0  0  0  0  0  0  0  # atno 8009 bound_to 7997
  154.4025  140.1517  156.2934 H   0  0  0  0  0  0  0  0  0  0  0  0  # atno 8010 bound_to 7997
  140.7028  143.3141  151.2953 H   0  0  0  0  0  0  0  0  0  0  0  0  # atno 10167 bound_to 10162
  156.0946  130.6122  150.9004 H   0  0  0  0  0  0  0  0  0  0  0  0  # atno 10718 bound_to 10713
  153.0728  135.4950  154.8341 H   0  0  0  0  0  0  0  0  0  0  0  0  # atno 10763 bound_to 10752
  154.7046  135.3008  154.9292 H   0  0  0  0  0  0  0  0  0  0  0  0  # atno 10764 bound_to 10752
  154.0004  135.6767  153.4812 H   0  0  0  0  0  0  0  0  0  0  0  0  # atno 10765 bound_to 10752
  139.9435  134.9632  156.8644 H   0  0  0  0  0  0  0  0  0  0  0  0  # atno 11005 bound_to 11000
  144.7878  139.6390  143.7126 LP  0  0  0  0  0  0  0  0  0  0  0  0  # atno 17320 bound_to 7965
  146.2330  139.5850  142.9542 LP  0  0  0  0  0  0  0  0  0  0  0  0  # atno 17321 bound_to 7965
  139.6574  144.0251  152.2669 LP  0  0  0  0  0  0  0  0  0  0  0  0  # atno 17342 bound_to 10162
  139.9807  144.6430  150.7903 LP  0  0  0  0  0  0  0  0  0  0  0  0  # atno 17343 bound_to 10162
  157.6104  131.0936  150.8804 LP  0  0  0  0  0  0  0  0  0  0  0  0  # atno 17370 bound_to 10713
  156.8945  130.5224  149.5285 LP  0  0  0  0  0  0  0  0  0  0  0  0  # atno 17371 bound_to 10713
  140.5892  134.0277  155.7493 LP  0  0  0  0  0  0  0  0  0  0  0  0  # atno 17394 bound_to 11000
  141.1078  133.9666  157.2966 LP  0  0  0  0  0  0  0  0  0  0  0  0  # atno 17395 bound_to 11000

$$$$
