AV-unprocessed.smi:1325|AV-procd|sdf|5472|dock3
  -GOLD-   22720 5 43D 1   1.00000     0.00000
 Structure written by MMmdl.
 35 36  0  0  0  0  0  0  0  0  1 V2000
  153.2764  142.7300  159.7633 C   0  0  0  0  0  0  0  0  0  0  0  0
  152.7005  141.3974  159.3665 C   0  0  0  0  0  0  0  0  0  0  0  0
  151.7381  141.4147  158.5041 N   0  0  0  0  0  0  0  0  0  0  0  0
  151.1359  140.2481  158.0736 N   0  0  0  0  0  0  0  0  0  0  0  0
  150.0489  140.4584  157.1090 C   0  0  0  0  0  0  0  0  0  0  0  0
  150.3419  139.7878  155.7488 C   0  0  2  0  0  0  0  0  0  0  0  0
  151.5749  140.2698  155.2519 O   0  0  0  0  0  0  0  0  0  0  0  0
  149.2151  140.0459  154.7599 C   0  0  0  0  0  0  0  0  0  0  0  0
  148.5470  138.9606  154.1532 C   0  0  0  0  0  0  0  0  0  0  0  0
  147.4978  139.1917  153.2420 C   0  0  0  0  0  0  0  0  0  0  0  0
  147.1092  140.5094  152.9338 C   0  0  0  0  0  0  0  0  0  0  0  0
  147.7692  141.5963  153.5383 C   0  0  0  0  0  0  0  0  0  0  0  0
  148.8183  141.3657  154.4493 C   0  0  0  0  0  0  0  0  0  0  0  0
  151.4786  138.9970  158.4938 C   0  0  0  0  0  0  0  0  0  0  0  0
  150.9148  137.9806  158.0860 O   0  0  0  0  0  0  0  0  0  0  0  0
  152.5706  138.9848  159.4700 C   0  0  0  0  0  0  0  0  0  0  0  0
  152.9602  137.6939  159.9380 C   0  0  0  0  0  0  0  0  0  0  0  0
  153.2631  136.6380  160.3032 N   0  0  0  0  0  0  0  0  0  0  0  0
  153.1695  140.1232  159.9007 C   0  0  0  0  0  0  0  0  0  0  0  0
  154.3059  140.1644  160.9132 C   0  0  0  0  0  0  0  0  0  0  0  0
  154.3387  142.7803  159.5232 H   0  0  0  0  0  0  0  0  0  0  0  0
  153.1622  142.8971  160.8345 H   0  0  0  0  0  0  0  0  0  0  0  0
  152.7830  143.5559  159.2485 H   0  0  0  0  0  0  0  0  0  0  0  0
  149.1493  140.0103  157.5358 H   0  0  0  0  0  0  0  0  0  0  0  0
  149.7988  141.5135  156.9825 H   0  0  0  0  0  0  0  0  0  0  0  0
  150.4394  138.7095  155.8820 H   0  0  0  0  0  0  0  0  0  0  0  0
  152.2651  139.7053  155.5647 H   0  0  0  0  0  0  0  0  0  0  0  0
  148.8352  137.9456  154.3848 H   0  0  0  0  0  0  0  0  0  0  0  0
  146.9909  138.3574  152.7799 H   0  0  0  0  0  0  0  0  0  0  0  0
  146.3045  140.6864  152.2355 H   0  0  0  0  0  0  0  0  0  0  0  0
  147.4702  142.6075  153.3042 H   0  0  0  0  0  0  0  0  0  0  0  0
  149.3168  142.2056  154.9108 H   0  0  0  0  0  0  0  0  0  0  0  0
  154.5924  139.1697  161.2533 H   0  0  0  0  0  0  0  0  0  0  0  0
  154.0140  140.7395  161.7925 H   0  0  0  0  0  0  0  0  0  0  0  0
  155.1911  140.6282  160.4769 H   0  0  0  0  0  0  0  0  0  0  0  0
  1  2  1  0  0  0  0
  1 21  1  0  0  0  0
  1 22  1  0  0  0  0
  1 23  1  0  0  0  0
  2 19  1  0  0  0  0
  2  3  2  0  0  0  0
  3  4  1  0  0  0  0
  4  5  1  0  0  0  0
  4 14  1  0  0  0  0
  5  6  1  0  0  0  0
  5 24  1  0  0  0  0
  5 25  1  0  0  0  0
  6  7  1  0  0  0  0
  6  8  1  0  0  0  0
  6 26  1  0  0  0  0
  7 27  1  0  0  0  0
  8 13  1  0  0  0  0
  8  9  2  0  0  0  0
  9 10  1  0  0  0  0
  9 28  1  0  0  0  0
 10 11  2  0  0  0  0
 10 29  1  0  0  0  0
 11 12  1  0  0  0  0
 11 30  1  0  0  0  0
 12 13  2  0  0  0  0
 12 31  1  0  0  0  0
 13 32  1  0  0  0  0
 14 15  2  0  0  0  0
 14 16  1  0  0  0  0
 16 17  1  0  0  0  0
 16 19  2  0  0  0  0
 17 18  3  0  0  0  0
 19 20  1  0  0  0  0
 20 33  1  0  0  0  0
 20 34  1  0  0  0  0
 20 35  1  0  0  0  0
M  END
> <s_m_source_file>
AV-unprocessed.smi

> <i_m_source_file_index>
1325

> <i_lp_mmshare_version>
43012

> <i_f3d_flags>
0

> <s_epik_input>
TiNDYyhjMVtDSDNdKWMoPU8pbihuYzFbQ0gzXSlbQ0gyXVtDQEhdKFtPSF0pYzJbY0hdW2NIXVtjSF1bY0hdW2NIXTI=

> <s_epik_cmdline>
J2VwaWtfcHl0aG9uJywgJy1waCcsICc3LjAnLCAnLXRuJywgJzgnLCAnLW1hJywgJzIwMCcsICctbWV0YWxfYmluZGluZycsICctaW1hZScsICc8aW5maWxlLm1hZT4nLCAnLW9tYWUnLCAnPG91dGZpbGUubWFlPic=

> <r_lp_tautomer_probability>
1

> <r_epik_Ionization_Penalty>
7.1854e-08

> <r_epik_Ionization_Penalty_Charging>
1.40848e-10

> <r_epik_Ionization_Penalty_Neutral>
7.17131e-08

> <r_epik_State_Penalty>
-0

> <r_epik_Charging_Adjusted_Penalty>
1.40848e-10

> <i_epik_Tot_Q>
0

> <i_epik_Tot_abs_Q>
0

> <r_epik_Metal_State_Penalty>
-0

> <b_epik_Metal_Only>
0

> <s_lp_Force_Field>
OPLS_2005

> <r_lp_Energy>
27.9871

> <b_lp_Chiralities_Consistent>
1

> <s_lp_Variant>
AV-unprocessed.smi:1325-1

> <Gold.Version>
5.8.1

> <Gold.Id.Protein>
6NUR|6NUR_protein|mol2

> <Gold.PLP.Fitness>
41.8292

> <Gold.PLP.PLP>
-36.1334

> <Gold.PLP.part.hbond>
-1.9782

> <Gold.PLP.part.metal>
0.0000

> <Gold.PLP.part.buried>
-4.0883

> <Gold.PLP.part.nonpolar>
-30.1174

> <Gold.PLP.part.repulsive>
0.0000

> <Gold.PLP.ligand.clash>
0.0000

> <Gold.PLP.ligand.torsion>
0.0472

> <Gold.PLP.Chemscore.Hbond>
1.9280

> <Gold.PLP.Chemscore.CHOScore>
0.0000

> <Gold.PLP.Chemscore.Metal>
0.0000

> <Gold.Chemscore.Hbonds>
donor molecule, donor type, donor heavy atom, donor atom, acceptor molecule, acceptor atom, score
      P1  H  6896  6907       L1    18  1.00
      P1  H  7989  7998       L1     7  0.93

> <Gold.PLP.Chemscore.Internal.Correction>
0.0060

> <Gold.Rescore>
     Score         DG    S(hbond)    S(metal)    S(lipo)     H(rot)  DE(clash)    DE(int)     intcor
     16.48     -17.65       1.89        0.00      91.72       1.90       0.08       1.09       ----

> <Gold.Chemscore.Fitness>
16.4828

> <Gold.Chemscore.DG>
-17.6498

> <Gold.Chemscore.ZeroCoef>
-5.4800

> <Gold.Chemscore.Hbond>
1.8907

> <Gold.Chemscore.Metal>
0.0000

> <Gold.Chemscore.Lipo>
91.7167

> <Gold.Chemscore.Internal_Hbond>
0.0000

> <Gold.Chemscore.DEClash>
0.0764

> <Gold.Chemscore.DEInternal>
1.0906

> <Gold.Chemscore.Rot>
1.9047

> <Gold.Chemscore.Internal.Correction>
   9.000000E+99

> <Gold.Chemscore.Hbonds>
donor molecule, donor type, donor heavy atom, donor atom, acceptor molecule, acceptor atom, score
      P1  H  6896  6907       L1    18  0.95
      P1  H  7989  7998       L1     7  0.83

> <Gold.Chemscore.Hbond.Weighted>
-6.3150

> <Gold.Chemscore.Metal.Weighted>
-0.0000

> <Gold.Chemscore.Lipo.Weighted>
-10.7308

> <Gold.Chemscore.Internal_Hbond.Weighted>
0.0000

> <Gold.Chemscore.DEClash.Weighted>
0.0764

> <Gold.Chemscore.DEInternal.Weighted>
1.0906

> <Gold.Chemscore.Rot.Weighted>
4.8760

> <Gold.Chemscore.Internal.Correction.Weighted>
   9.000000E+99

> <Gold.Protein.RotatedTorsions>
[ 6907 6896 6895 6894 ] final   39.95 input  -60.11 | X-H torsion
[ 7974 7965 7964 7962 ] final  -95.16 input  175.53 | X-H torsion
[ 8008 7997 7996 7995 ] final   90.66 input   59.86 | X-H torsion
[ 10167 10162 10161 10158 ] final   32.97 input  -65.29 | X-H torsion
[ 10718 10713 10712 10709 ] final  -70.46 input   66.30 | X-H torsion
[ 10763 10752 10751 10750 ] final  -36.32 input  -60.55 | X-H torsion
[ 11005 11000 10999 10996 ] final  -35.61 input  -57.11 | X-H torsion

> <Gold.Protein.ActiveResidues>
 VAL166  LYS551  ARG553  GLY616  TRP617  ASP618  TYR619  PRO620  LYS621  CYS622 
 ASP623  PHE694  ASN695  SER759  ASP760  ASP761  ALA762  ILE779  LEU786  VAL792 
 PHE793  MET794  SER795  GLU796  ALA797  LYS798  CYS799  TRP800  GLU811  SER814 

> <Gold.Protein.RotatedAtoms>
  152.1762  134.8793  160.0530 H   0  0  0  0  0  0  0  0  0  0  0  0  # atno 6907 bound_to 6896
  151.9734  133.3728  159.4088 H   0  0  0  0  0  0  0  0  0  0  0  0  # atno 6908 bound_to 6896
  150.6910  134.4038  159.5175 H   0  0  0  0  0  0  0  0  0  0  0  0  # atno 6909 bound_to 6896
  145.3637  140.9495  143.2486 H   0  0  0  0  0  0  0  0  0  0  0  0  # atno 7974 bound_to 7965
  156.0146  140.3347  155.6976 H   0  0  0  0  0  0  0  0  0  0  0  0  # atno 8008 bound_to 7997
  155.6108  140.0665  157.2724 H   0  0  0  0  0  0  0  0  0  0  0  0  # atno 8009 bound_to 7997
  154.4294  140.1794  156.1258 H   0  0  0  0  0  0  0  0  0  0  0  0  # atno 8010 bound_to 7997
  140.4450  144.1132  150.6181 H   0  0  0  0  0  0  0  0  0  0  0  0  # atno 10167 bound_to 10162
  156.0407  130.4332  150.2299 H   0  0  0  0  0  0  0  0  0  0  0  0  # atno 10718 bound_to 10713
  153.8778  135.6824  153.4769 H   0  0  0  0  0  0  0  0  0  0  0  0  # atno 10763 bound_to 10752
  153.1251  135.4722  154.9257 H   0  0  0  0  0  0  0  0  0  0  0  0  # atno 10764 bound_to 10752
  154.7683  135.3231  154.8192 H   0  0  0  0  0  0  0  0  0  0  0  0  # atno 10765 bound_to 10752
  140.9810  133.7056  156.1683 H   0  0  0  0  0  0  0  0  0  0  0  0  # atno 11005 bound_to 11000
  144.8627  139.5153  143.6804 LP  0  0  0  0  0  0  0  0  0  0  0  0  # atno 17320 bound_to 7965
  146.2916  139.7155  142.9157 LP  0  0  0  0  0  0  0  0  0  0  0  0  # atno 17321 bound_to 7965
  140.4274  143.2584  151.9639 LP  0  0  0  0  0  0  0  0  0  0  0  0  # atno 17342 bound_to 10162
  139.4792  144.5775  151.7987 LP  0  0  0  0  0  0  0  0  0  0  0  0  # atno 17343 bound_to 10162
  157.0395  131.0031  151.3288 LP  0  0  0  0  0  0  0  0  0  0  0  0  # atno 17370 bound_to 10713
  157.5220  130.8004  149.7819 LP  0  0  0  0  0  0  0  0  0  0  0  0  # atno 17371 bound_to 10713
  140.7187  134.4382  157.5576 LP  0  0  0  0  0  0  0  0  0  0  0  0  # atno 17394 bound_to 11000
  139.8950  134.8693  156.2151 LP  0  0  0  0  0  0  0  0  0  0  0  0  # atno 17395 bound_to 11000

$$$$
