AV-unprocessed.smi:171|AV-procd|sdf|1415|dock9
  -GOLD-   2262019183D 1   1.00000     0.00000
 Structure written by MMmdl.
 56 59  0  0  0  0  0  0  0  0  1 V2000
  152.0614  143.1242  159.7573 C   0  0  0  0  0  0  0  0  0  0  0  0
  151.8328  143.1155  158.2375 C   0  0  0  0  0  0  0  0  0  0  0  0
  151.7830  144.5545  157.7008 C   0  0  0  0  0  0  0  0  0  0  0  0
  150.5706  142.3327  157.8056 C   0  0  0  0  0  0  0  0  0  0  0  0
  150.6861  141.5797  156.4449 C   0  0  1  0  0  0  0  0  0  0  0  0
  151.6007  140.3289  156.4545 C   0  0  0  0  0  0  0  0  0  0  0  0
  152.5247  140.2287  157.2587 O   0  0  0  0  0  0  0  0  0  0  0  0
  151.3561  139.3601  155.5538 N   0  0  0  0  0  0  0  0  0  0  0  0
  150.2580  139.3446  154.5839 C   0  0  0  0  0  0  0  0  0  0  0  0
  149.4696  140.6699  154.5186 C   0  0  0  0  0  0  0  0  0  0  0  0
  149.3742  141.2872  155.8392 N   0  0  0  0  0  0  0  0  0  0  0  0
  148.3654  140.7636  156.5879 C   0  0  0  0  0  0  0  0  0  0  0  0
  147.2466  141.4905  156.8512 N   0  0  0  0  0  0  0  0  0  0  0  0
  146.2664  140.9738  157.5970 C   0  0  0  0  0  0  0  0  0  0  0  0
  146.1992  139.7697  158.1671 N   0  0  0  0  0  0  0  0  0  0  0  0
  147.3173  139.0331  157.9049 C   0  0  0  0  0  0  0  0  0  0  0  0
  148.4396  139.4549  157.1389 C   0  0  0  0  0  0  0  0  0  0  0  0
  149.3917  138.4455  157.0984 N   0  0  0  0  0  0  0  0  0  0  0  0
  148.8624  137.4816  157.8013 C   0  0  0  0  0  0  0  0  0  0  0  0
  147.6010  137.7348  158.2978 N   0  0  0  0  0  0  0  0  0  0  0  0
  146.7713  136.8588  159.1185 C   0  0  0  0  0  0  0  0  0  0  0  0
  147.3882  136.4112  160.4740 C   0  0  1  0  0  0  0  0  0  0  0  0
  148.3869  137.3489  160.8386 O   0  0  0  0  0  0  0  0  0  0  0  0
  146.3516  136.4110  161.5908 C   0  0  0  0  0  0  0  0  0  0  0  0
  146.9514  135.4538  162.6085 C   0  0  0  0  0  0  0  0  0  0  0  0
  147.4935  134.4300  161.7940 O   0  0  0  0  0  0  0  0  0  0  0  0
  148.0118  134.9877  160.5861 C   0  0  1  0  0  0  0  0  0  0  0  0
  147.6684  133.9743  159.4847 C   0  0  0  0  0  0  0  0  0  0  0  0
  151.2048  143.5451  160.2848 H   0  0  0  0  0  0  0  0  0  0  0  0
  152.9362  143.7197  160.0187 H   0  0  0  0  0  0  0  0  0  0  0  0
  152.2348  142.1193  160.1411 H   0  0  0  0  0  0  0  0  0  0  0  0
  152.6971  142.6351  157.7773 H   0  0  0  0  0  0  0  0  0  0  0  0
  150.9359  145.1021  158.1155 H   0  0  0  0  0  0  0  0  0  0  0  0
  151.6890  144.5690  156.6145 H   0  0  0  0  0  0  0  0  0  0  0  0
  152.6904  145.1027  157.9562 H   0  0  0  0  0  0  0  0  0  0  0  0
  150.2641  141.6505  158.6001 H   0  0  0  0  0  0  0  0  0  0  0  0
  149.7662  143.0662  157.7407 H   0  0  0  0  0  0  0  0  0  0  0  0
  151.1588  142.2697  155.7447 H   0  0  0  0  0  0  0  0  0  0  0  0
  151.9638  138.5537  155.5614 H   0  0  0  0  0  0  0  0  0  0  0  0
  150.6409  139.0793  153.5985 H   0  0  0  0  0  0  0  0  0  0  0  0
  149.5836  138.5410  154.8817 H   0  0  0  0  0  0  0  0  0  0  0  0
  149.9897  141.3681  153.8612 H   0  0  0  0  0  0  0  0  0  0  0  0
  148.4915  140.5091  154.0633 H   0  0  0  0  0  0  0  0  0  0  0  0
  145.4137  141.6168  157.7585 H   0  0  0  0  0  0  0  0  0  0  0  0
  149.3894  136.5550  157.9720 H   0  0  0  0  0  0  0  0  0  0  0  0
  145.8282  137.3769  159.2987 H   0  0  0  0  0  0  0  0  0  0  0  0
  146.5126  135.9800  158.5275 H   0  0  0  0  0  0  0  0  0  0  0  0
  148.9474  137.4939  160.0917 H   0  0  0  0  0  0  0  0  0  0  0  0
  146.1461  137.4004  162.0016 H   0  0  0  0  0  0  0  0  0  0  0  0
  145.4078  135.9995  161.2299 H   0  0  0  0  0  0  0  0  0  0  0  0
  147.7505  135.9311  163.1775 H   0  0  0  0  0  0  0  0  0  0  0  0
  146.2131  135.0622  163.3085 H   0  0  0  0  0  0  0  0  0  0  0  0
  149.0979  135.0476  160.6753 H   0  0  0  0  0  0  0  0  0  0  0  0
  148.1754  134.2104  158.5517 H   0  0  0  0  0  0  0  0  0  0  0  0
  146.5953  133.9273  159.2983 H   0  0  0  0  0  0  0  0  0  0  0  0
  147.9958  132.9742  159.7698 H   0  0  0  0  0  0  0  0  0  0  0  0
  1  2  1  0  0  0  0
  1 29  1  0  0  0  0
  1 30  1  0  0  0  0
  1 31  1  0  0  0  0
  2  3  1  0  0  0  0
  2  4  1  0  0  0  0
  2 32  1  0  0  0  0
  3 33  1  0  0  0  0
  3 34  1  0  0  0  0
  3 35  1  0  0  0  0
  4  5  1  0  0  0  0
  4 36  1  0  0  0  0
  4 37  1  0  0  0  0
  5 11  1  0  0  0  0
  5  6  1  0  0  0  0
  5 38  1  0  0  0  0
  6  7  2  0  0  0  0
  6  8  1  0  0  0  0
  8  9  1  0  0  0  0
  8 39  1  0  0  0  0
  9 10  1  0  0  0  0
  9 40  1  0  0  0  0
  9 41  1  0  0  0  0
 10 11  1  0  0  0  0
 10 42  1  0  0  0  0
 10 43  1  0  0  0  0
 11 12  1  0  0  0  0
 12 17  1  0  0  0  0
 12 13  2  0  0  0  0
 13 14  1  0  0  0  0
 14 15  2  0  0  0  0
 14 44  1  0  0  0  0
 15 16  1  0  0  0  0
 16 20  1  0  0  0  0
 16 17  2  0  0  0  0
 17 18  1  0  0  0  0
 18 19  2  0  0  0  0
 19 20  1  0  0  0  0
 19 45  1  0  0  0  0
 20 21  1  0  0  0  0
 21 22  1  0  0  0  0
 21 46  1  0  0  0  0
 21 47  1  0  0  0  0
 22 27  1  0  0  0  0
 22 23  1  0  0  0  0
 22 24  1  0  0  0  0
 23 48  1  0  0  0  0
 24 25  1  0  0  0  0
 24 49  1  0  0  0  0
 24 50  1  0  0  0  0
 25 26  1  0  0  0  0
 25 51  1  0  0  0  0
 25 52  1  0  0  0  0
 26 27  1  0  0  0  0
 27 28  1  0  0  0  0
 27 53  1  0  0  0  0
 28 54  1  0  0  0  0
 28 55  1  0  0  0  0
 28 56  1  0  0  0  0
M  END
> <s_m_source_file>
AV-unprocessed.smi

> <i_m_source_file_index>
171

> <i_lp_mmshare_version>
43012

> <i_f3d_flags>
0

> <s_epik_input>
W0NIM11bQ0hdKFtDSDNdKVtDSDJdW0NAQEhdMUMoPU8pW05IXVtDSDJdW0NIMl1OMWMobltjSF1uMiljKGMyMyluW2NIXW4zW0NIMl1bQ0BAXTQoW09IXSlbQ0gyXVtDSDJdT1tDQEhdNFtDSDNd

> <s_epik_cmdline>
J2VwaWtfcHl0aG9uJywgJy1waCcsICc3LjAnLCAnLXRuJywgJzgnLCAnLW1hJywgJzIwMCcsICctbWV0YWxfYmluZGluZycsICctaW1hZScsICc8aW5maWxlLm1hZT4nLCAnLW9tYWUnLCAnPG91dGZpbGUubWFlPic=

> <r_lp_tautomer_probability>
1

> <r_epik_Ionization_Penalty>
0.000670584

> <r_epik_Ionization_Penalty_Charging>
0

> <r_epik_Ionization_Penalty_Neutral>
0.000670584

> <r_epik_State_Penalty>
0.000304767

> <r_epik_Charging_Adjusted_Penalty>
0.000304767

> <i_epik_Tot_Q>
0

> <i_epik_Tot_abs_Q>
0

> <r_epik_Metal_State_Penalty>
-0

> <b_epik_Metal_Only>
0

> <s_lp_Force_Field>
OPLS_2005

> <r_lp_Energy>
47.4038

> <b_lp_Chiralities_Consistent>
1

> <s_lp_Variant>
AV-unprocessed.smi:171-2

> <Gold.Version>
5.8.1

> <Gold.Id.Protein>
6NUR|6NUR_protein|mol2

> <Gold.PLP.Fitness>
45.2320

> <Gold.PLP.PLP>
-41.4147

> <Gold.PLP.part.hbond>
-3.8084

> <Gold.PLP.part.metal>
0.0000

> <Gold.PLP.part.buried>
-4.9550

> <Gold.PLP.part.nonpolar>
-33.5508

> <Gold.PLP.part.repulsive>
0.2836

> <Gold.PLP.ligand.clash>
0.0000

> <Gold.PLP.ligand.torsion>
1.5610

> <Gold.PLP.Chemscore.Hbond>
2.1912

> <Gold.PLP.Chemscore.CHOScore>
0.0000

> <Gold.PLP.Chemscore.Metal>
0.0000

> <Gold.Chemscore.Hbonds>
donor molecule, donor type, donor heavy atom, donor atom, acceptor molecule, acceptor atom, score
      P1  H  6931  6943       L1    23  0.82
      P1  H  6934  6947       L1    23  0.47
      P1  H  7997  8008       L1     7  0.94

> <Gold.PLP.Chemscore.Internal.Correction>
0.3657

> <Gold.Rescore>
     Score         DG    S(hbond)    S(metal)    S(lipo)     H(rot)  DE(clash)    DE(int)     intcor
      9.69     -15.72       1.49        0.00     102.01       2.61       0.43       5.60       ----

> <Gold.Chemscore.Fitness>
9.6882

> <Gold.Chemscore.DG>
-15.7155

> <Gold.Chemscore.ZeroCoef>
-5.4800

> <Gold.Chemscore.Hbond>
1.4897

> <Gold.Chemscore.Metal>
0.0000

> <Gold.Chemscore.Lipo>
102.0059

> <Gold.Chemscore.Internal_Hbond>
0.0000

> <Gold.Chemscore.DEClash>
0.4268

> <Gold.Chemscore.DEInternal>
5.6005

> <Gold.Chemscore.Rot>
2.6074

> <Gold.Chemscore.Internal.Correction>
   9.000000E+99

> <Gold.Chemscore.Hbonds>
donor molecule, donor type, donor heavy atom, donor atom, acceptor molecule, acceptor atom, score
      P1  H  6931  6943       L1    23  0.23
      P1  H  6934  6947       L1    23  0.05
      P1  H  7997  8008       L1     7  0.89

> <Gold.Chemscore.Hbond.Weighted>
-4.9756

> <Gold.Chemscore.Metal.Weighted>
-0.0000

> <Gold.Chemscore.Lipo.Weighted>
-11.9347

> <Gold.Chemscore.Internal_Hbond.Weighted>
0.0000

> <Gold.Chemscore.DEClash.Weighted>
0.4268

> <Gold.Chemscore.DEInternal.Weighted>
5.6005

> <Gold.Chemscore.Rot.Weighted>
6.6748

> <Gold.Chemscore.Internal.Correction.Weighted>
   9.000000E+99

> <Gold.Protein.RotatedTorsions>
[ 6907 6896 6895 6894 ] final  158.01 input  -60.11 | X-H torsion
[ 7974 7965 7964 7962 ] final   65.78 input  175.53 | X-H torsion
[ 8008 7997 7996 7995 ] final  -72.41 input   59.86 | X-H torsion
[ 10167 10162 10161 10158 ] final   20.09 input  -65.29 | X-H torsion
[ 10718 10713 10712 10709 ] final -123.47 input   66.30 | X-H torsion
[ 10763 10752 10751 10750 ] final   76.02 input  -60.55 | X-H torsion
[ 11005 11000 10999 10996 ] final    2.52 input  -57.11 | X-H torsion

> <Gold.Protein.ActiveResidues>
 VAL166  LYS551  ARG553  GLY616  TRP617  ASP618  TYR619  PRO620  LYS621  CYS622 
 ASP623  PHE694  ASN695  SER759  ASP760  ASP761  ALA762  ILE779  LEU786  VAL792 
 PHE793  MET794  SER795  GLU796  ALA797  LYS798  CYS799  TRP800  GLU811  SER814 

> <Gold.Protein.RotatedAtoms>
  152.0067  133.3846  159.4202 H   0  0  0  0  0  0  0  0  0  0  0  0  # atno 6907 bound_to 6896
  150.6904  134.3775  159.5028 H   0  0  0  0  0  0  0  0  0  0  0  0  # atno 6908 bound_to 6896
  152.1530  134.8973  160.0597 H   0  0  0  0  0  0  0  0  0  0  0  0  # atno 6909 bound_to 6896
  145.8344  139.3158  143.0968 H   0  0  0  0  0  0  0  0  0  0  0  0  # atno 7974 bound_to 7965
  154.5164  140.0798  156.8088 H   0  0  0  0  0  0  0  0  0  0  0  0  # atno 8008 bound_to 7997
  155.3672  140.3421  155.4224 H   0  0  0  0  0  0  0  0  0  0  0  0  # atno 8009 bound_to 7997
  156.1632  140.1595  156.8564 H   0  0  0  0  0  0  0  0  0  0  0  0  # atno 8010 bound_to 7997
  140.5530  143.9475  150.6590 H   0  0  0  0  0  0  0  0  0  0  0  0  # atno 10167 bound_to 10162
  156.1505  130.6531  150.9906 H   0  0  0  0  0  0  0  0  0  0  0  0  # atno 10718 bound_to 10713
  153.0696  135.4967  154.8275 H   0  0  0  0  0  0  0  0  0  0  0  0  # atno 10763 bound_to 10752
  154.7003  135.3000  154.9353 H   0  0  0  0  0  0  0  0  0  0  0  0  # atno 10764 bound_to 10752
  154.0079  135.6758  153.4816 H   0  0  0  0  0  0  0  0  0  0  0  0  # atno 10765 bound_to 10752
  140.6034  133.9815  155.8142 H   0  0  0  0  0  0  0  0  0  0  0  0  # atno 11005 bound_to 11000
  145.9535  140.8890  143.0247 LP  0  0  0  0  0  0  0  0  0  0  0  0  # atno 17320 bound_to 7965
  144.6737  140.1713  143.7414 LP  0  0  0  0  0  0  0  0  0  0  0  0  # atno 17321 bound_to 7965
  140.2906  143.3327  152.1066 LP  0  0  0  0  0  0  0  0  0  0  0  0  # atno 17342 bound_to 10162
  139.5035  144.6758  151.6133 LP  0  0  0  0  0  0  0  0  0  0  0  0  # atno 17343 bound_to 10162
  157.6652  131.0873  150.7744 LP  0  0  0  0  0  0  0  0  0  0  0  0  # atno 17370 bound_to 10713
  156.7812  130.4860  149.5400 LP  0  0  0  0  0  0  0  0  0  0  0  0  # atno 17371 bound_to 10713
  141.0857  133.9994  157.3317 LP  0  0  0  0  0  0  0  0  0  0  0  0  # atno 17394 bound_to 11000
  139.9223  135.0201  156.8108 LP  0  0  0  0  0  0  0  0  0  0  0  0  # atno 17395 bound_to 11000

$$$$
