AV-unprocessed.smi:1986|AV-procd|sdf|8053|dock2
  -GOLD-   2272010253D 1   1.00000     0.00000
 Structure written by MMmdl.
 48 49  0  0  0  0  0  0  0  0  2 V2000
  146.8409  139.1689  153.5241 C   0  0  0  0  0  0  0  0  0  0  0  0
  147.5364  138.0013  154.2487 C   0  0  0  0  0  0  0  0  0  0  0  0
  146.7004  136.6985  154.4868 C   0  0  2  0  0  0  0  0  0  0  0  0
  145.3759  137.0791  155.1925 C   0  0  0  0  0  0  0  0  0  0  0  0
  147.5064  135.7365  155.4129 C   0  0  0  0  0  0  0  0  0  0  0  0
  147.4491  136.1562  156.8105 N   0  0  0  0  0  0  0  0  0  0  0  0
  148.1165  135.6066  157.8385 C   0  0  0  0  0  0  0  0  0  0  0  0
  148.7922  134.5846  157.7316 O   0  0  0  0  0  0  0  0  0  0  0  0
  148.0696  136.3430  159.1880 C   0  0  0  0  0  0  0  0  0  0  0  0
  147.8650  135.4630  160.3516 N   0  0  0  0  0  0  0  0  0  0  0  0
  147.9121  134.1098  160.0550 N   0  0  0  0  0  0  0  0  0  0  0  0
  147.7290  133.2379  160.9882 C   0  0  0  0  0  0  0  0  0  0  0  0
  147.7809  131.9080  160.6497 O   0  0  0  0  0  0  0  0  0  0  0  0
  147.4746  133.6447  162.3530 C   0  0  0  0  0  0  0  0  0  0  0  0
  147.4304  134.9655  162.6331 C   0  0  0  0  0  0  0  0  0  0  0  0
  147.6279  135.9805  161.5974 C   0  0  0  0  0  0  0  0  0  0  0  0
  147.5632  137.1900  161.8175 O   0  0  0  0  0  0  0  0  0  0  0  0
  146.4266  136.0042  153.1704 N   0  3  0  0  0  0  0  0  0  0  0  0
  145.8668  134.6265  153.2750 C   0  0  0  0  0  0  0  0  0  0  0  0
  145.8695  133.9414  151.9013 C   0  0  0  0  0  0  0  0  0  0  0  0
  145.0736  134.7034  151.0057 O   0  0  0  0  0  0  0  0  0  0  0  0
  145.6031  136.0072  150.8154 C   0  0  0  0  0  0  0  0  0  0  0  0
  145.6496  136.7692  152.1530 C   0  0  0  0  0  0  0  0  0  0  0  0
  147.7466  131.4368  161.4681 H   0  0  0  0  0  0  0  0  0  0  0  0
  147.5524  139.9749  153.3442 H   0  0  0  0  0  0  0  0  0  0  0  0
  146.0305  139.5942  154.1157 H   0  0  0  0  0  0  0  0  0  0  0  0
  146.4392  138.8740  152.5556 H   0  0  0  0  0  0  0  0  0  0  0  0
  148.4217  137.7610  153.6594 H   0  0  0  0  0  0  0  0  0  0  0  0
  147.9042  138.3817  155.2025 H   0  0  0  0  0  0  0  0  0  0  0  0
  145.5556  137.6088  156.1272 H   0  0  0  0  0  0  0  0  0  0  0  0
  144.7819  136.2041  155.4558 H   0  0  0  0  0  0  0  0  0  0  0  0
  144.7577  137.7255  154.5693 H   0  0  0  0  0  0  0  0  0  0  0  0
  147.1114  134.7230  155.3523 H   0  0  0  0  0  0  0  0  0  0  0  0
  148.5395  135.6286  155.0846 H   0  0  0  0  0  0  0  0  0  0  0  0
  146.9066  136.9858  157.0050 H   0  0  0  0  0  0  0  0  0  0  0  0
  149.0000  136.9035  159.2954 H   0  0  0  0  0  0  0  0  0  0  0  0
  147.2786  137.0943  159.1550 H   0  0  0  0  0  0  0  0  0  0  0  0
  147.3262  132.9032  163.1241 H   0  0  0  0  0  0  0  0  0  0  0  0
  147.2416  135.2828  163.6481 H   0  0  0  0  0  0  0  0  0  0  0  0
  146.4340  134.0093  153.9675 H   0  0  0  0  0  0  0  0  0  0  0  0
  144.8426  134.6621  153.6474 H   0  0  0  0  0  0  0  0  0  0  0  0
  146.8855  133.8331  151.5173 H   0  0  0  0  0  0  0  0  0  0  0  0
  145.4483  132.9390  151.9802 H   0  0  0  0  0  0  0  0  0  0  0  0
  146.5969  135.9417  150.3707 H   0  0  0  0  0  0  0  0  0  0  0  0
  144.9741  136.5409  150.1028 H   0  0  0  0  0  0  0  0  0  0  0  0
  144.6381  136.9508  152.5179 H   0  0  0  0  0  0  0  0  0  0  0  0
  146.0979  137.7380  151.9412 H   0  0  0  0  0  0  0  0  0  0  0  0
  147.3410  135.8889  152.7562 H   0  0  0  0  0  0  0  0  0  0  0  0
  1  2  1  0  0  0  0
  1 25  1  0  0  0  0
  1 26  1  0  0  0  0
  1 27  1  0  0  0  0
  2  3  1  0  0  0  0
  2 28  1  0  0  0  0
  2 29  1  0  0  0  0
  3  4  1  0  0  0  0
  3  5  1  0  0  0  0
  3 18  1  0  0  0  0
  4 30  1  0  0  0  0
  4 31  1  0  0  0  0
  4 32  1  0  0  0  0
  5  6  1  0  0  0  0
  5 33  1  0  0  0  0
  5 34  1  0  0  0  0
  6  7  1  0  0  0  0
  6 35  1  0  0  0  0
  7  8  2  0  0  0  0
  7  9  1  0  0  0  0
  9 36  1  0  0  0  0
  9 37  1  0  0  0  0
  9 10  1  0  0  0  0
 10 11  1  0  0  0  0
 10 16  1  0  0  0  0
 11 12  2  0  0  0  0
 12 13  1  0  0  0  0
 12 14  1  0  0  0  0
 13 24  1  0  0  0  0
 14 38  1  0  0  0  0
 14 15  2  0  0  0  0
 15 39  1  0  0  0  0
 15 16  1  0  0  0  0
 16 17  2  0  0  0  0
 18 23  1  0  0  0  0
 18 19  1  0  0  0  0
 18 48  1  0  0  0  0
 19 20  1  0  0  0  0
 19 40  1  0  0  0  0
 19 41  1  0  0  0  0
 20 21  1  0  0  0  0
 20 42  1  0  0  0  0
 20 43  1  0  0  0  0
 21 22  1  0  0  0  0
 22 23  1  0  0  0  0
 22 44  1  0  0  0  0
 22 45  1  0  0  0  0
 23 46  1  0  0  0  0
 23 47  1  0  0  0  0
M  CHG  1  18   1
M  END
> <s_m_source_file>
AV-unprocessed.smi

> <i_m_source_file_index>
1986

> <i_lp_mmshare_version>
43012

> <i_f3d_flags>
0

> <s_epik_input>
W0NIMl0xW0NIMl1PW0NIMl1bQ0gyXU4xW0NAQF0oW0NIM10pKFtDSDJdW0NIM10pW0NIMl1bTkhdQyg9TylbQ0gyXW4yW25IXWMoPU8pW2NIXVtjSF1jMj1P

> <s_epik_cmdline>
J2VwaWtfcHl0aG9uJywgJy1waCcsICc3LjAnLCAnLXRuJywgJzgnLCAnLW1hJywgJzIwMCcsICctbWV0YWxfYmluZGluZycsICctaW1hZScsICc8aW5maWxlLm1hZT4nLCAnLW9tYWUnLCAnPG91dGZpbGUubWFlPic=

> <r_lp_tautomer_probability>
0.9996

> <r_epik_Ionization_Penalty>
2.73198

> <r_epik_Ionization_Penalty_Charging>
0.519658

> <r_epik_Ionization_Penalty_Neutral>
2.21233

> <r_epik_State_Penalty>
2.2852

> <r_epik_Charging_Adjusted_Penalty>
2.80486

> <i_epik_Tot_Q>
1

> <i_epik_Tot_abs_Q>
1

> <r_epik_Metal_State_Penalty>
2.2852

> <b_epik_Metal_Only>
0

> <s_lp_Force_Field>
OPLS_2005

> <r_lp_Energy>
41.4304

> <b_lp_Chiralities_Consistent>
1

> <s_lp_Variant>
AV-unprocessed.smi:1986-8

> <Gold.Version>
5.8.1

> <Gold.Id.Protein>
6NUR|6NUR_protein|mol2

> <Gold.PLP.Fitness>
41.8292

> <Gold.PLP.PLP>
-31.8335

> <Gold.PLP.part.hbond>
-3.0000

> <Gold.PLP.part.metal>
0.0000

> <Gold.PLP.part.buried>
-5.2802

> <Gold.PLP.part.nonpolar>
-24.2684

> <Gold.PLP.part.repulsive>
0.1915

> <Gold.PLP.ligand.clash>
0.0000

> <Gold.PLP.ligand.torsion>
0.6412

> <Gold.PLP.Chemscore.Hbond>
3.6894

> <Gold.PLP.Chemscore.CHOScore>
0.0000

> <Gold.PLP.Chemscore.Metal>
0.0000

> <Gold.Chemscore.Hbonds>
donor molecule, donor type, donor heavy atom, donor atom, acceptor molecule, acceptor atom, score
      L1  H    18    48       P1  7948  2.00
      P1  H  6931  6943       L1    17  0.98
      P1  H  6934  6947       L1    17  0.67

> <Gold.PLP.Chemscore.Internal.Correction>
0.2098

> <Gold.Rescore>
     Score         DG    S(hbond)    S(metal)    S(lipo)     H(rot)  DE(clash)    DE(int)     intcor
      9.45     -13.11       2.73        0.00      56.07       3.15       0.24       3.41       ----

> <Gold.Chemscore.Fitness>
9.4497

> <Gold.Chemscore.DG>
-13.1052

> <Gold.Chemscore.ZeroCoef>
-5.4800

> <Gold.Chemscore.Hbond>
2.7321

> <Gold.Chemscore.Metal>
0.0000

> <Gold.Chemscore.Lipo>
56.0702

> <Gold.Chemscore.Internal_Hbond>
0.0000

> <Gold.Chemscore.DEClash>
0.2426

> <Gold.Chemscore.DEInternal>
3.4130

> <Gold.Chemscore.Rot>
3.1485

> <Gold.Chemscore.Internal.Correction>
   9.000000E+99

> <Gold.Chemscore.Hbonds>
donor molecule, donor type, donor heavy atom, donor atom, acceptor molecule, acceptor atom, score
      L1  H    18    48       P1  7948  1.00
      P1  H  6931  6943       L1    17  0.93
      P1  H  6934  6947       L1    17  0.64

> <Gold.Chemscore.Hbond.Weighted>
-9.1251

> <Gold.Chemscore.Metal.Weighted>
-0.0000

> <Gold.Chemscore.Lipo.Weighted>
-6.5602

> <Gold.Chemscore.Internal_Hbond.Weighted>
0.0000

> <Gold.Chemscore.DEClash.Weighted>
0.2426

> <Gold.Chemscore.DEInternal.Weighted>
3.4130

> <Gold.Chemscore.Rot.Weighted>
8.0601

> <Gold.Chemscore.Internal.Correction.Weighted>
   9.000000E+99

> <Gold.Protein.RotatedTorsions>
[ 6907 6896 6895 6894 ] final -178.61 input  -60.11 | X-H torsion
[ 7974 7965 7964 7962 ] final   82.95 input  175.53 | X-H torsion
[ 8008 7997 7996 7995 ] final  110.74 input   59.86 | X-H torsion
[ 10167 10162 10161 10158 ] final -106.79 input  -65.29 | X-H torsion
[ 10718 10713 10712 10709 ] final  -70.92 input   66.30 | X-H torsion
[ 10763 10752 10751 10750 ] final   28.08 input  -60.55 | X-H torsion
[ 11005 11000 10999 10996 ] final   -9.05 input  -57.11 | X-H torsion

> <Gold.Protein.ActiveResidues>
 VAL166  LYS551  ARG553  GLY616  TRP617  ASP618  TYR619  PRO620  LYS621  CYS622 
 ASP623  PHE694  ASN695  SER759  ASP760  ASP761  ALA762  ILE779  LEU786  VAL792 
 PHE793  MET794  SER795  GLU796  ALA797  LYS798  CYS799  TRP800  GLU811  SER814 

> <Gold.Protein.RotatedAtoms>
  151.6401  133.3326  159.3127 H   0  0  0  0  0  0  0  0  0  0  0  0  # atno 6907 bound_to 6896
  150.8012  134.7111  159.6614 H   0  0  0  0  0  0  0  0  0  0  0  0  # atno 6908 bound_to 6896
  152.4105  134.6137  160.0084 H   0  0  0  0  0  0  0  0  0  0  0  0  # atno 6909 bound_to 6896
  145.6183  139.2381  143.2153 H   0  0  0  0  0  0  0  0  0  0  0  0  # atno 7974 bound_to 7965
  156.2074  140.3033  155.9658 H   0  0  0  0  0  0  0  0  0  0  0  0  # atno 8008 bound_to 7997
  155.2807  140.0437  157.3032 H   0  0  0  0  0  0  0  0  0  0  0  0  # atno 8009 bound_to 7997
  154.5653  140.2332  155.8282 H   0  0  0  0  0  0  0  0  0  0  0  0  # atno 8010 bound_to 7997
  140.1840  143.3944  152.1259 H   0  0  0  0  0  0  0  0  0  0  0  0  # atno 10167 bound_to 10162
  156.0386  130.4341  150.2367 H   0  0  0  0  0  0  0  0  0  0  0  0  # atno 10718 bound_to 10713
  153.0514  135.6522  154.0683 H   0  0  0  0  0  0  0  0  0  0  0  0  # atno 10763 bound_to 10752
  154.0370  135.2906  155.3362 H   0  0  0  0  0  0  0  0  0  0  0  0  # atno 10764 bound_to 10752
  154.6805  135.5321  153.8324 H   0  0  0  0  0  0  0  0  0  0  0  0  # atno 10765 bound_to 10752
  140.7301  133.8756  155.8886 H   0  0  0  0  0  0  0  0  0  0  0  0  # atno 11005 bound_to 11000
  146.1451  140.7004  142.9348 LP  0  0  0  0  0  0  0  0  0  0  0  0  # atno 17320 bound_to 7965
  144.7241  140.4469  143.6986 LP  0  0  0  0  0  0  0  0  0  0  0  0  # atno 17321 bound_to 7965
  139.5284  144.7130  151.5145 LP  0  0  0  0  0  0  0  0  0  0  0  0  # atno 17342 bound_to 10162
  140.6501  143.8715  150.6776 LP  0  0  0  0  0  0  0  0  0  0  0  0  # atno 17343 bound_to 10162
  157.0464  131.0050  151.3267 LP  0  0  0  0  0  0  0  0  0  0  0  0  # atno 17370 bound_to 10713
  157.5172  130.7975  149.7769 LP  0  0  0  0  0  0  0  0  0  0  0  0  # atno 17371 bound_to 10713
  140.9929  134.1255  157.4391 LP  0  0  0  0  0  0  0  0  0  0  0  0  # atno 17394 bound_to 11000
  139.8828  135.0046  156.6257 LP  0  0  0  0  0  0  0  0  0  0  0  0  # atno 17395 bound_to 11000

$$$$
