AV-unprocessed.smi:1017|AV-procd|sdf|4439|dock1
  -GOLD-   22720 2393D 1   1.00000     0.00000
 Structure written by MMmdl.
 43 44  0  0  0  0  0  0  0  0  2 V2000
  151.3474  143.9501  158.9894 C   0  0  0  0  0  0  0  0  0  0  0  0
  152.2423  142.9573  158.5132 O   0  0  0  0  0  0  0  0  0  0  0  0
  151.6503  141.6763  158.3467 C   0  0  0  0  0  0  0  0  0  0  0  0
  150.4362  141.7236  157.3986 C   0  0  0  0  0  0  0  0  0  0  0  0
  149.9179  140.3797  157.1249 N   0  0  0  0  0  0  0  0  0  0  0  0
  149.7513  139.5971  158.2547 N   0  0  0  0  0  0  0  0  0  0  0  0
  149.2936  138.3906  158.1553 C   0  0  0  0  0  0  0  0  0  0  0  0
  149.1146  137.5424  159.3765 C   0  0  0  0  0  0  0  0  0  0  0  0
  150.1014  136.8711  159.7010 O   0  0  0  0  0  0  0  0  0  0  0  0
  147.9124  137.5653  160.0297 N   0  5  0  0  0  0  0  0  0  0  0  0
  147.1508  136.4454  160.6284 C   0  0  0  0  0  0  0  0  0  0  0  0
  145.7129  136.5330  160.0250 C   0  0  0  0  0  0  0  0  0  0  0  0
  144.9067  135.5724  160.4724 F   0  0  0  0  0  0  0  0  0  0  0  0
  145.1498  137.7045  160.3301 F   0  0  0  0  0  0  0  0  0  0  0  0
  145.7578  136.4328  158.6945 F   0  0  0  0  0  0  0  0  0  0  0  0
  147.8348  135.0841  160.2717 C   0  0  0  0  0  0  0  0  0  0  0  0
  147.3021  133.8537  161.0491 C   0  0  0  0  0  0  0  0  0  0  0  0
  147.3385  134.0563  162.5763 C   0  0  0  0  0  0  0  0  0  0  0  0
  146.5932  135.3510  162.9544 C   0  0  0  0  0  0  0  0  0  0  0  0
  147.1212  136.5894  162.1864 C   0  0  0  0  0  0  0  0  0  0  0  0
  148.9464  137.8393  156.8505 C   0  0  0  0  0  0  0  0  0  0  0  0
  149.1138  138.6158  155.7580 C   0  0  0  0  0  0  0  0  0  0  0  0
  149.6280  139.9820  155.8502 C   0  0  0  0  0  0  0  0  0  0  0  0
  149.7835  140.7105  154.8701 O   0  0  0  0  0  0  0  0  0  0  0  0
  151.8897  144.8838  159.1381 H   0  0  0  0  0  0  0  0  0  0  0  0
  150.9101  143.6629  159.9465 H   0  0  0  0  0  0  0  0  0  0  0  0
  150.5427  144.1460  158.2809 H   0  0  0  0  0  0  0  0  0  0  0  0
  152.4098  141.0226  157.9166 H   0  0  0  0  0  0  0  0  0  0  0  0
  151.3875  141.2467  159.3146 H   0  0  0  0  0  0  0  0  0  0  0  0
  149.6417  142.3471  157.8100 H   0  0  0  0  0  0  0  0  0  0  0  0
  150.7286  142.2062  156.4641 H   0  0  0  0  0  0  0  0  0  0  0  0
  147.7578  134.8963  159.2004 H   0  0  0  0  0  0  0  0  0  0  0  0
  148.9033  135.1342  160.4779 H   0  0  0  0  0  0  0  0  0  0  0  0
  146.2891  133.6032  160.7335 H   0  0  0  0  0  0  0  0  0  0  0  0
  147.9054  132.9828  160.7911 H   0  0  0  0  0  0  0  0  0  0  0  0
  146.8965  133.1995  163.0854 H   0  0  0  0  0  0  0  0  0  0  0  0
  148.3747  134.1213  162.9108 H   0  0  0  0  0  0  0  0  0  0  0  0
  145.5228  135.2214  162.7942 H   0  0  0  0  0  0  0  0  0  0  0  0
  146.7028  135.5243  164.0253 H   0  0  0  0  0  0  0  0  0  0  0  0
  148.1242  136.7769  162.5671 H   0  0  0  0  0  0  0  0  0  0  0  0
  146.5384  137.4662  162.4695 H   0  0  0  0  0  0  0  0  0  0  0  0
  148.5636  136.8355  156.7406 H   0  0  0  0  0  0  0  0  0  0  0  0
  148.8599  138.2172  154.7870 H   0  0  0  0  0  0  0  0  0  0  0  0
  1  2  1  0  0  0  0
  1 25  1  0  0  0  0
  1 26  1  0  0  0  0
  1 27  1  0  0  0  0
  2  3  1  0  0  0  0
  3  4  1  0  0  0  0
  3 28  1  0  0  0  0
  3 29  1  0  0  0  0
  4  5  1  0  0  0  0
  4 30  1  0  0  0  0
  4 31  1  0  0  0  0
  5 23  1  0  0  0  0
  5  6  1  0  0  0  0
  6  7  2  0  0  0  0
  7  8  1  0  0  0  0
  7 21  1  0  0  0  0
  8  9  2  0  0  0  0
  8 10  1  0  0  0  0
 10 11  1  0  0  0  0
 11 20  1  0  0  0  0
 11 12  1  0  0  0  0
 11 16  1  0  0  0  0
 12 13  1  0  0  0  0
 12 14  1  0  0  0  0
 12 15  1  0  0  0  0
 16 17  1  0  0  0  0
 16 32  1  0  0  0  0
 16 33  1  0  0  0  0
 17 18  1  0  0  0  0
 17 34  1  0  0  0  0
 17 35  1  0  0  0  0
 18 19  1  0  0  0  0
 18 36  1  0  0  0  0
 18 37  1  0  0  0  0
 19 20  1  0  0  0  0
 19 38  1  0  0  0  0
 19 39  1  0  0  0  0
 20 40  1  0  0  0  0
 20 41  1  0  0  0  0
 21 22  2  0  0  0  0
 21 42  1  0  0  0  0
 22 23  1  0  0  0  0
 22 43  1  0  0  0  0
 23 24  2  0  0  0  0
M  CHG  1  10  -1
M  END
> <s_m_source_file>
AV-unprocessed.smi

> <i_m_source_file_index>
1017

> <i_lp_mmshare_version>
43012

> <i_f3d_flags>
0

> <s_epik_input>
W0NIM11PW0NIMl1bQ0gyXW4xbmMoW2NIXVtjSF1jMT1PKUMoPU8pW05IXUMyKEMoRikoRilGKVtDSDJdW0NIMl1bQ0gyXVtDSDJdW0NIMl0y

> <s_epik_cmdline>
J2VwaWtfcHl0aG9uJywgJy1waCcsICc3LjAnLCAnLXRuJywgJzgnLCAnLW1hJywgJzIwMCcsICctbWV0YWxfYmluZGluZycsICctaW1hZScsICc8aW5maWxlLm1hZT4nLCAnLW9tYWUnLCAnPG91dGZpbGUubWFlPic=

> <r_lp_tautomer_probability>
1

> <r_epik_Ionization_Penalty>
6.5547

> <r_epik_Ionization_Penalty_Charging>
6.5547

> <r_epik_Ionization_Penalty_Neutral>
1.08437e-11

> <r_epik_State_Penalty>
6.55469

> <r_epik_Charging_Adjusted_Penalty>
13.1094

> <i_epik_Tot_Q>
-1

> <i_epik_Tot_abs_Q>
1

> <r_epik_Metal_State_Penalty>
2.48023

> <b_epik_Metal_Only>
1

> <s_lp_Force_Field>
OPLS_2005

> <r_lp_Energy>
56.1946

> <b_lp_Chiralities_Consistent>
1

> <s_lp_Variant>
AV-unprocessed.smi:1017-2

> <Gold.Version>
5.8.1

> <Gold.Id.Protein>
6NUR|6NUR_protein|mol2

> <Gold.PLP.Fitness>
39.1695

> <Gold.PLP.PLP>
-33.4795

> <Gold.PLP.part.hbond>
-4.0000

> <Gold.PLP.part.metal>
0.0000

> <Gold.PLP.part.buried>
-4.7938

> <Gold.PLP.part.nonpolar>
-26.4245

> <Gold.PLP.part.repulsive>
0.0926

> <Gold.PLP.ligand.clash>
0.0000

> <Gold.PLP.ligand.torsion>
2.0530

> <Gold.PLP.Chemscore.Hbond>
3.1944

> <Gold.PLP.Chemscore.CHOScore>
0.0000

> <Gold.PLP.Chemscore.Metal>
0.0000

> <Gold.Chemscore.Hbonds>
donor molecule, donor type, donor heavy atom, donor atom, acceptor molecule, acceptor atom, score
      P1  H  6896  6908       L1     9  0.91
      P1  H  6931  6943       L1    10  0.12
      P1  H  6934  6947       L1    10  1.34
      P1  H  7989  7998       L1    24  0.27

> <Gold.PLP.Chemscore.Internal.Correction>
0.2129

> <Gold.Rescore>
     Score         DG    S(hbond)    S(metal)    S(lipo)     H(rot)  DE(clash)    DE(int)     intcor
     12.27     -17.69       2.12        0.00      80.37       1.67       0.15       5.26       ----

> <Gold.Chemscore.Fitness>
12.2741

> <Gold.Chemscore.DG>
-17.6870

> <Gold.Chemscore.ZeroCoef>
-5.4800

> <Gold.Chemscore.Hbond>
2.1161

> <Gold.Chemscore.Metal>
0.0000

> <Gold.Chemscore.Lipo>
80.3714

> <Gold.Chemscore.Internal_Hbond>
0.0000

> <Gold.Chemscore.DEClash>
0.1514

> <Gold.Chemscore.DEInternal>
5.2615

> <Gold.Chemscore.Rot>
1.6657

> <Gold.Chemscore.Internal.Correction>
   9.000000E+99

> <Gold.Chemscore.Hbonds>
donor molecule, donor type, donor heavy atom, donor atom, acceptor molecule, acceptor atom, score
      P1  H  6896  6908       L1     9  0.87
      P1  H  6934  6947       L1    10  0.23
      P1  H  7989  7998       L1    24  0.26

> <Gold.Chemscore.Hbond.Weighted>
-7.0677

> <Gold.Chemscore.Metal.Weighted>
-0.0000

> <Gold.Chemscore.Lipo.Weighted>
-9.4035

> <Gold.Chemscore.Internal_Hbond.Weighted>
0.0000

> <Gold.Chemscore.DEClash.Weighted>
0.1514

> <Gold.Chemscore.DEInternal.Weighted>
5.2615

> <Gold.Chemscore.Rot.Weighted>
4.2641

> <Gold.Chemscore.Internal.Correction.Weighted>
   9.000000E+99

> <Gold.Protein.RotatedTorsions>
[ 6907 6896 6895 6894 ] final -144.84 input  -60.11 | X-H torsion
[ 7974 7965 7964 7962 ] final  151.89 input  175.53 | X-H torsion
[ 8008 7997 7996 7995 ] final -161.78 input   59.86 | X-H torsion
[ 10167 10162 10161 10158 ] final  171.91 input  -65.29 | X-H torsion
[ 10718 10713 10712 10709 ] final  -72.66 input   66.30 | X-H torsion
[ 10763 10752 10751 10750 ] final   17.85 input  -60.55 | X-H torsion
[ 11005 11000 10999 10996 ] final   54.91 input  -57.11 | X-H torsion

> <Gold.Protein.ActiveResidues>
 VAL166  LYS551  ARG553  GLY616  TRP617  ASP618  TYR619  PRO620  LYS621  CYS622 
 ASP623  PHE694  ASN695  SER759  ASP760  ASP761  ALA762  ILE779  LEU786  VAL792 
 PHE793  MET794  SER795  GLU796  ALA797  LYS798  CYS799  TRP800  GLU811  SER814 

> <Gold.Protein.RotatedAtoms>
  151.1195  133.5114  159.2602 H   0  0  0  0  0  0  0  0  0  0  0  0  # atno 6907 bound_to 6896
  151.1877  135.0388  159.8829 H   0  0  0  0  0  0  0  0  0  0  0  0  # atno 6908 bound_to 6896
  152.5455  134.1040  159.8383 H   0  0  0  0  0  0  0  0  0  0  0  0  # atno 6909 bound_to 6896
  144.8261  139.6596  143.6079 H   0  0  0  0  0  0  0  0  0  0  0  0  # atno 7974 bound_to 7965
  155.7972  140.0886  157.1977 H   0  0  0  0  0  0  0  0  0  0  0  0  # atno 8008 bound_to 7997
  154.3983  140.1479  156.3291 H   0  0  0  0  0  0  0  0  0  0  0  0  # atno 8009 bound_to 7997
  155.8499  140.3435  155.5689 H   0  0  0  0  0  0  0  0  0  0  0  0  # atno 8010 bound_to 7997
  139.5060  144.3433  151.9996 H   0  0  0  0  0  0  0  0  0  0  0  0  # atno 10167 bound_to 10162
  156.0311  130.4377  150.2626 H   0  0  0  0  0  0  0  0  0  0  0  0  # atno 10718 bound_to 10713
  153.1302  135.6738  153.9191 H   0  0  0  0  0  0  0  0  0  0  0  0  # atno 10763 bound_to 10752
  153.8680  135.3073  155.3442 H   0  0  0  0  0  0  0  0  0  0  0  0  # atno 10764 bound_to 10752
  154.7700  135.4944  153.9712 H   0  0  0  0  0  0  0  0  0  0  0  0  # atno 10765 bound_to 10752
  140.0649  134.5551  155.9110 H   0  0  0  0  0  0  0  0  0  0  0  0  # atno 11005 bound_to 11000
  146.2566  139.6315  142.9391 LP  0  0  0  0  0  0  0  0  0  0  0  0  # atno 17320 bound_to 7965
  145.4998  141.0437  143.2547 LP  0  0  0  0  0  0  0  0  0  0  0  0  # atno 17321 bound_to 7965
  140.2870  144.3796  150.6100 LP  0  0  0  0  0  0  0  0  0  0  0  0  # atno 17342 bound_to 10162
  140.5975  143.2167  151.7136 LP  0  0  0  0  0  0  0  0  0  0  0  0  # atno 17343 bound_to 10162
  157.0728  131.0121  151.3184 LP  0  0  0  0  0  0  0  0  0  0  0  0  # atno 17370 bound_to 10713
  157.4986  130.7866  149.7581 LP  0  0  0  0  0  0  0  0  0  0  0  0  # atno 17371 bound_to 10713
  141.1988  133.6603  156.5813 LP  0  0  0  0  0  0  0  0  0  0  0  0  # atno 17394 bound_to 11000
  140.3714  134.7602  157.4601 LP  0  0  0  0  0  0  0  0  0  0  0  0  # atno 17395 bound_to 11000

$$$$
