AV-unprocessed.smi:2627|AV-procd|sdf|10239|dock4
  -GOLD-   2272014243D 1   1.00000     0.00000
 Structure written by MMmdl.
 39 41  0  0  0  0  0  0  0  0  1 V2000
  151.8413  138.9883  155.2086 C   0  0  0  0  0  0  0  0  0  0  0  0
  150.6624  139.9047  155.5617 C   0  0  2  0  0  0  0  0  0  0  0  0
  150.1783  140.4798  154.3645 O   0  0  0  0  0  0  0  0  0  0  0  0
  151.0460  140.9423  156.5818 C   0  0  0  0  0  0  0  0  0  0  0  0
  151.0035  142.2503  156.3173 N   0  0  0  0  0  0  0  0  0  0  0  0
  151.4352  142.8176  157.4997 C   0  0  0  0  0  0  0  0  0  0  0  0
  151.6009  144.1738  157.8609 C   0  0  0  0  0  0  0  0  0  0  0  0
  152.0592  144.5183  159.1494 C   0  0  0  0  0  0  0  0  0  0  0  0
  152.3582  143.5139  160.0926 C   0  0  0  0  0  0  0  0  0  0  0  0
  152.2017  142.1565  159.7521 C   0  0  0  0  0  0  0  0  0  0  0  0
  151.7441  141.8182  158.4644 C   0  0  0  0  0  0  0  0  0  0  0  0
  151.4881  140.6109  157.8225 N   0  0  0  0  0  0  0  0  0  0  0  0
  151.6615  139.2859  158.3969 C   0  0  0  0  0  0  0  0  0  0  0  0
  153.1234  138.8292  158.3251 C   0  0  0  0  0  0  0  0  0  0  0  0
  153.8677  139.5398  159.3040 O   0  0  0  0  0  0  0  0  0  0  0  0
  154.0897  138.9317  160.5210 C   0  0  0  0  0  0  0  0  0  0  0  0
  154.9085  139.6204  161.4400 C   0  0  0  0  0  0  0  0  0  0  0  0
  155.1892  139.0735  162.7068 C   0  0  0  0  0  0  0  0  0  0  0  0
  154.6494  137.8258  163.0693 C   0  0  0  0  0  0  0  0  0  0  0  0
  153.8296  137.1278  162.1630 C   0  0  0  0  0  0  0  0  0  0  0  0
  153.5497  137.6747  160.8954 C   0  0  0  0  0  0  0  0  0  0  0  0
  152.2195  138.4781  156.0948 H   0  0  0  0  0  0  0  0  0  0  0  0
  152.6664  139.5537  154.7736 H   0  0  0  0  0  0  0  0  0  0  0  0
  151.5452  138.2240  154.4896 H   0  0  0  0  0  0  0  0  0  0  0  0
  149.8459  139.2988  155.9525 H   0  0  0  0  0  0  0  0  0  0  0  0
  149.2358  140.5250  154.4148 H   0  0  0  0  0  0  0  0  0  0  0  0
  151.3730  144.9502  157.1458 H   0  0  0  0  0  0  0  0  0  0  0  0
  152.1808  145.5581  159.4155 H   0  0  0  0  0  0  0  0  0  0  0  0
  152.7074  143.7862  161.0780 H   0  0  0  0  0  0  0  0  0  0  0  0
  152.4292  141.3850  160.4729 H   0  0  0  0  0  0  0  0  0  0  0  0
  151.3047  139.2871  159.4267 H   0  0  0  0  0  0  0  0  0  0  0  0
  151.0243  138.5848  157.8573 H   0  0  0  0  0  0  0  0  0  0  0  0
  153.1812  137.7554  158.5098 H   0  0  0  0  0  0  0  0  0  0  0  0
  153.5278  139.0263  157.3310 H   0  0  0  0  0  0  0  0  0  0  0  0
  155.3276  140.5790  161.1705 H   0  0  0  0  0  0  0  0  0  0  0  0
  155.8187  139.6119  163.3998 H   0  0  0  0  0  0  0  0  0  0  0  0
  154.8636  137.4049  164.0405 H   0  0  0  0  0  0  0  0  0  0  0  0
  153.4139  136.1702  162.4402 H   0  0  0  0  0  0  0  0  0  0  0  0
  152.9164  137.1095  160.2286 H   0  0  0  0  0  0  0  0  0  0  0  0
  1  2  1  0  0  0  0
  1 22  1  0  0  0  0
  1 23  1  0  0  0  0
  1 24  1  0  0  0  0
  2  3  1  0  0  0  0
  2  4  1  0  0  0  0
  2 25  1  0  0  0  0
  3 26  1  0  0  0  0
  4 12  1  0  0  0  0
  4  5  2  0  0  0  0
  5  6  1  0  0  0  0
  6 11  2  0  0  0  0
  6  7  1  0  0  0  0
  7  8  2  0  0  0  0
  7 27  1  0  0  0  0
  8  9  1  0  0  0  0
  8 28  1  0  0  0  0
  9 10  2  0  0  0  0
  9 29  1  0  0  0  0
 10 11  1  0  0  0  0
 10 30  1  0  0  0  0
 11 12  1  0  0  0  0
 12 13  1  0  0  0  0
 13 14  1  0  0  0  0
 13 31  1  0  0  0  0
 13 32  1  0  0  0  0
 14 15  1  0  0  0  0
 14 33  1  0  0  0  0
 14 34  1  0  0  0  0
 15 16  1  0  0  0  0
 16 21  1  0  0  0  0
 16 17  2  0  0  0  0
 17 18  1  0  0  0  0
 17 35  1  0  0  0  0
 18 19  2  0  0  0  0
 18 36  1  0  0  0  0
 19 20  1  0  0  0  0
 19 37  1  0  0  0  0
 20 21  2  0  0  0  0
 20 38  1  0  0  0  0
 21 39  1  0  0  0  0
M  END
> <s_m_source_file>
AV-unprocessed.smi

> <i_m_source_file_index>
2627

> <i_lp_mmshare_version>
43012

> <i_f3d_flags>
0

> <s_epik_input>
W2NIXTFbY0hdW2NIXVtjSF1jKGMxMiluKGMobjIpW0NASF0oW0NIM10pW09IXSlbQ0gyXVtDSDJdT2MzW2NIXVtjSF1bY0hdW2NIXVtjSF0z

> <s_epik_cmdline>
J2VwaWtfcHl0aG9uJywgJy1waCcsICc3LjAnLCAnLXRuJywgJzgnLCAnLW1hJywgJzIwMCcsICctbWV0YWxfYmluZGluZycsICctaW1hZScsICc8aW5maWxlLm1hZT4nLCAnLW9tYWUnLCAnPG91dGZpbGUubWFlPic=

> <r_lp_tautomer_probability>
1

> <r_epik_Ionization_Penalty>
0.0472514

> <r_epik_Ionization_Penalty_Charging>
0

> <r_epik_Ionization_Penalty_Neutral>
0.0472514

> <r_epik_State_Penalty>
0.040225

> <r_epik_Charging_Adjusted_Penalty>
0.040225

> <i_epik_Tot_Q>
0

> <i_epik_Tot_abs_Q>
0

> <r_epik_Metal_State_Penalty>
4.16204e-05

> <b_epik_Metal_Only>
0

> <s_lp_Force_Field>
OPLS_2005

> <r_lp_Energy>
15.0565

> <b_lp_Chiralities_Consistent>
1

> <s_lp_Variant>
AV-unprocessed.smi:2627-1

> <Gold.Version>
5.8.1

> <Gold.Id.Protein>
6NUR|6NUR_protein|mol2

> <Gold.PLP.Fitness>
47.4057

> <Gold.PLP.PLP>
-45.9297

> <Gold.PLP.part.hbond>
-1.3340

> <Gold.PLP.part.metal>
0.0000

> <Gold.PLP.part.buried>
-4.2371

> <Gold.PLP.part.nonpolar>
-40.5892

> <Gold.PLP.part.repulsive>
0.0940

> <Gold.PLP.ligand.clash>
0.0000

> <Gold.PLP.ligand.torsion>
0.6363

> <Gold.PLP.Chemscore.Hbond>
0.8960

> <Gold.PLP.Chemscore.CHOScore>
0.0000

> <Gold.PLP.Chemscore.Metal>
0.0000

> <Gold.Chemscore.Hbonds>
donor molecule, donor type, donor heavy atom, donor atom, acceptor molecule, acceptor atom, score
      P1  H  7989  7998       L1     3  0.90

> <Gold.PLP.Chemscore.Internal.Correction>
0.0606

> <Gold.Rescore>
     Score         DG    S(hbond)    S(metal)    S(lipo)     H(rot)  DE(clash)    DE(int)     intcor
     18.15     -18.83       0.96        0.00     131.65       2.06       0.07       0.61       ----

> <Gold.Chemscore.Fitness>
18.1471

> <Gold.Chemscore.DG>
-18.8291

> <Gold.Chemscore.ZeroCoef>
-5.4800

> <Gold.Chemscore.Hbond>
0.9622

> <Gold.Chemscore.Metal>
0.0000

> <Gold.Chemscore.Lipo>
131.6514

> <Gold.Chemscore.Internal_Hbond>
0.0000

> <Gold.Chemscore.DEClash>
0.0688

> <Gold.Chemscore.DEInternal>
0.6132

> <Gold.Chemscore.Rot>
2.0577

> <Gold.Chemscore.Internal.Correction>
   9.000000E+99

> <Gold.Chemscore.Hbonds>
donor molecule, donor type, donor heavy atom, donor atom, acceptor molecule, acceptor atom, score
      P1  H  7989  7998       L1     3  0.39

> <Gold.Chemscore.Hbond.Weighted>
-3.2137

> <Gold.Chemscore.Metal.Weighted>
-0.0000

> <Gold.Chemscore.Lipo.Weighted>
-15.4032

> <Gold.Chemscore.Internal_Hbond.Weighted>
0.0000

> <Gold.Chemscore.DEClash.Weighted>
0.0688

> <Gold.Chemscore.DEInternal.Weighted>
0.6132

> <Gold.Chemscore.Rot.Weighted>
5.2678

> <Gold.Chemscore.Internal.Correction.Weighted>
   9.000000E+99

> <Gold.Protein.RotatedTorsions>
[ 6907 6896 6895 6894 ] final  -56.43 input  -60.11 | X-H torsion
[ 7974 7965 7964 7962 ] final -169.25 input  175.53 | X-H torsion
[ 8008 7997 7996 7995 ] final  160.76 input   59.86 | X-H torsion
[ 10167 10162 10161 10158 ] final   48.09 input  -65.29 | X-H torsion
[ 10718 10713 10712 10709 ] final  -29.88 input   66.30 | X-H torsion
[ 10763 10752 10751 10750 ] final   82.87 input  -60.55 | X-H torsion
[ 11005 11000 10999 10996 ] final -170.76 input  -57.11 | X-H torsion

> <Gold.Protein.ActiveResidues>
 VAL166  LYS551  ARG553  GLY616  TRP617  ASP618  TYR619  PRO620  LYS621  CYS622 
 ASP623  PHE694  ASN695  SER759  ASP760  ASP761  ALA762  ILE779  LEU786  VAL792 
 PHE793  MET794  SER795  GLU796  ALA797  LYS798  CYS799  TRP800  GLU811  SER814 

> <Gold.Protein.RotatedAtoms>
  150.8168  134.7354  159.6736 H   0  0  0  0  0  0  0  0  0  0  0  0  # atno 6907 bound_to 6896
  152.4286  134.5817  159.9959 H   0  0  0  0  0  0  0  0  0  0  0  0  # atno 6908 bound_to 6896
  151.6012  133.3319  159.3083 H   0  0  0  0  0  0  0  0  0  0  0  0  # atno 6909 bound_to 6896
  144.7188  140.2249  143.6311 H   0  0  0  0  0  0  0  0  0  0  0  0  # atno 7974 bound_to 7965
  156.2150  140.1795  156.7609 H   0  0  0  0  0  0  0  0  0  0  0  0  # atno 8008 bound_to 7997
  154.5778  140.0671  156.9089 H   0  0  0  0  0  0  0  0  0  0  0  0  # atno 8009 bound_to 7997
  155.2556  140.3332  155.4280 H   0  0  0  0  0  0  0  0  0  0  0  0  # atno 8010 bound_to 7997
  140.2969  144.2980  150.6228 H   0  0  0  0  0  0  0  0  0  0  0  0  # atno 10167 bound_to 10162
  156.4068  130.4400  149.7281 H   0  0  0  0  0  0  0  0  0  0  0  0  # atno 10718 bound_to 10713
  153.1240  135.4712  154.9243 H   0  0  0  0  0  0  0  0  0  0  0  0  # atno 10763 bound_to 10752
  154.7603  135.3129  154.8393 H   0  0  0  0  0  0  0  0  0  0  0  0  # atno 10764 bound_to 10752
  153.8951  135.6881  153.4812 H   0  0  0  0  0  0  0  0  0  0  0  0  # atno 10765 bound_to 10752
  140.5159  134.5756  157.5033 H   0  0  0  0  0  0  0  0  0  0  0  0  # atno 11005 bound_to 11000
  145.8466  139.2155  143.1796 LP  0  0  0  0  0  0  0  0  0  0  0  0  # atno 17320 bound_to 7965
  146.0298  140.8268  142.9881 LP  0  0  0  0  0  0  0  0  0  0  0  0  # atno 17321 bound_to 7965
  140.5685  143.2183  151.7642 LP  0  0  0  0  0  0  0  0  0  0  0  0  # atno 17342 bound_to 10162
  139.4924  144.4250  151.9935 LP  0  0  0  0  0  0  0  0  0  0  0  0  # atno 17343 bound_to 10162
  156.4276  130.7799  151.2818 LP  0  0  0  0  0  0  0  0  0  0  0  0  # atno 17370 bound_to 10713
  157.7506  131.0164  150.3542 LP  0  0  0  0  0  0  0  0  0  0  0  0  # atno 17371 bound_to 10713
  139.9633  134.7416  156.0192 LP  0  0  0  0  0  0  0  0  0  0  0  0  # atno 17394 bound_to 11000
  141.1360  133.6575  156.3596 LP  0  0  0  0  0  0  0  0  0  0  0  0  # atno 17395 bound_to 11000

$$$$
