AV-unprocessed.smi:1830|AV-procd|sdf|7442|dock4
  -GOLD-   22720 9133D 1   1.00000     0.00000
 Structure written by MMmdl.
 52 55  0  0  0  0  0  0  0  0  1 V2000
  150.3740  133.9094  155.5978 O   0  0  0  0  0  0  0  0  0  0  0  0
  149.8615  134.5496  154.6803 C   0  0  0  0  0  0  0  0  0  0  0  0
  150.0577  135.8615  154.4891 N   0  0  0  0  0  0  0  0  0  0  0  0
  150.8377  136.7348  155.3598 C   0  0  0  0  0  0  0  0  0  0  0  0
  151.3165  137.9873  154.5981 C   0  0  2  0  0  0  0  0  0  0  0  0
  152.1459  138.9475  155.4837 C   0  0  0  0  0  0  0  0  0  0  0  0
  151.2833  139.6863  156.3869 N   0  0  0  0  0  0  0  0  0  0  0  0
  151.9125  140.6919  157.2110 C   0  0  0  0  0  0  0  0  0  0  0  0
  150.7431  141.5520  157.7207 C   0  0  0  0  0  0  0  0  0  0  0  0
  149.5974  141.2741  156.7228 C   0  0  0  0  0  0  0  0  0  0  0  0
  150.2747  140.4076  155.6595 C   0  0  2  0  0  0  0  0  0  0  0  0
  149.3855  139.4428  154.8654 C   0  0  0  0  0  0  0  0  0  0  0  0
  150.2205  138.6853  153.9842 O   0  0  0  0  0  0  0  0  0  0  0  0
  149.0488  134.0435  153.7379 N   0  0  0  0  0  0  0  0  0  0  0  0
  148.6314  132.6943  153.5474 C   0  0  0  0  0  0  0  0  0  0  0  0
  149.3624  131.5887  154.0481 C   0  0  0  0  0  0  0  0  0  0  0  0
  148.8685  130.2882  153.8437 C   0  0  0  0  0  0  0  0  0  0  0  0
  147.6538  130.1370  153.1533 C   0  0  0  0  0  0  0  0  0  0  0  0
  146.9381  131.1786  152.6846 N   0  0  0  0  0  0  0  0  0  0  0  0
  147.4030  132.4369  152.8795 C   0  0  0  0  0  0  0  0  0  0  0  0
  146.6406  133.5033  152.3566 N   0  0  0  0  0  0  0  0  0  0  0  0
  146.4984  133.4716  150.9036 C   0  0  0  0  0  0  0  0  0  0  0  0
  145.1019  134.0142  150.5950 C   0  0  0  0  0  0  0  0  0  0  0  0
  144.3112  133.6542  151.8463 C   0  0  0  0  0  0  0  0  0  0  0  0
  145.3470  133.8313  152.9552 C   0  0  0  0  0  0  0  0  0  0  0  0
  149.6012  136.2989  153.7024 H   0  0  0  0  0  0  0  0  0  0  0  0
  150.2809  137.0092  156.2568 H   0  0  0  0  0  0  0  0  0  0  0  0
  151.7015  136.1679  155.7073 H   0  0  0  0  0  0  0  0  0  0  0  0
  151.9606  137.6465  153.7865 H   0  0  0  0  0  0  0  0  0  0  0  0
  152.8976  138.3946  156.0480 H   0  0  0  0  0  0  0  0  0  0  0  0
  152.6876  139.6457  154.8440 H   0  0  0  0  0  0  0  0  0  0  0  0
  152.4906  140.2456  158.0208 H   0  0  0  0  0  0  0  0  0  0  0  0
  152.5873  141.3031  156.6093 H   0  0  0  0  0  0  0  0  0  0  0  0
  150.4487  141.2536  158.7275 H   0  0  0  0  0  0  0  0  0  0  0  0
  151.0142  142.6076  157.7492 H   0  0  0  0  0  0  0  0  0  0  0  0
  148.7943  140.7243  157.2157 H   0  0  0  0  0  0  0  0  0  0  0  0
  149.1757  142.1868  156.3009 H   0  0  0  0  0  0  0  0  0  0  0  0
  150.7641  141.0778  154.9493 H   0  0  0  0  0  0  0  0  0  0  0  0
  148.8326  138.7801  155.5314 H   0  0  0  0  0  0  0  0  0  0  0  0
  148.6505  139.9923  154.2771 H   0  0  0  0  0  0  0  0  0  0  0  0
  148.7629  134.6847  153.0124 H   0  0  0  0  0  0  0  0  0  0  0  0
  150.2822  131.7106  154.5982 H   0  0  0  0  0  0  0  0  0  0  0  0
  149.4063  129.4276  154.2130 H   0  0  0  0  0  0  0  0  0  0  0  0
  147.2427  129.1539  152.9774 H   0  0  0  0  0  0  0  0  0  0  0  0
  147.2708  134.0680  150.4173 H   0  0  0  0  0  0  0  0  0  0  0  0
  146.5891  132.4465  150.5406 H   0  0  0  0  0  0  0  0  0  0  0  0
  145.1415  135.0987  150.4834 H   0  0  0  0  0  0  0  0  0  0  0  0
  144.6757  133.5952  149.6833 H   0  0  0  0  0  0  0  0  0  0  0  0
  143.4259  134.2745  151.9879 H   0  0  0  0  0  0  0  0  0  0  0  0
  143.9930  132.6118  151.7979 H   0  0  0  0  0  0  0  0  0  0  0  0
  145.0938  133.2490  153.8411 H   0  0  0  0  0  0  0  0  0  0  0  0
  145.3830  134.8761  153.2649 H   0  0  0  0  0  0  0  0  0  0  0  0
  1  2  2  0  0  0  0
  2  3  1  0  0  0  0
  2 14  1  0  0  0  0
  3  4  1  0  0  0  0
  3 26  1  0  0  0  0
  4  5  1  0  0  0  0
  4 27  1  0  0  0  0
  4 28  1  0  0  0  0
  5 13  1  0  0  0  0
  5  6  1  0  0  0  0
  5 29  1  0  0  0  0
  6  7  1  0  0  0  0
  6 30  1  0  0  0  0
  6 31  1  0  0  0  0
  7 11  1  0  0  0  0
  7  8  1  0  0  0  0
  8  9  1  0  0  0  0
  8 32  1  0  0  0  0
  8 33  1  0  0  0  0
  9 10  1  0  0  0  0
  9 34  1  0  0  0  0
  9 35  1  0  0  0  0
 10 11  1  0  0  0  0
 10 36  1  0  0  0  0
 10 37  1  0  0  0  0
 11 12  1  0  0  0  0
 11 38  1  0  0  0  0
 12 13  1  0  0  0  0
 12 39  1  0  0  0  0
 12 40  1  0  0  0  0
 14 15  1  0  0  0  0
 14 41  1  0  0  0  0
 15 20  1  0  0  0  0
 15 16  2  0  0  0  0
 16 17  1  0  0  0  0
 16 42  1  0  0  0  0
 17 18  2  0  0  0  0
 17 43  1  0  0  0  0
 18 19  1  0  0  0  0
 18 44  1  0  0  0  0
 19 20  2  0  0  0  0
 20 21  1  0  0  0  0
 21 25  1  0  0  0  0
 21 22  1  0  0  0  0
 22 23  1  0  0  0  0
 22 45  1  0  0  0  0
 22 46  1  0  0  0  0
 23 24  1  0  0  0  0
 23 47  1  0  0  0  0
 23 48  1  0  0  0  0
 24 25  1  0  0  0  0
 24 49  1  0  0  0  0
 24 50  1  0  0  0  0
 25 51  1  0  0  0  0
 25 52  1  0  0  0  0
M  END
> <s_m_source_file>
AV-unprocessed.smi

> <i_m_source_file_index>
1830

> <i_lp_mmshare_version>
43012

> <i_f3d_flags>
0

> <s_epik_input>
W0NIMl0xW0NIMl1bQ0gyXVtDQEhdKE4xMilbQ0gyXU9bQ0BASF0oW0NIMl0yKVtDSDJdW05IXUMoPU8pW05IXWMzW2NIXVtjSF1bY0hdbmMzTjRbQ0gyXVtDSDJdW0NIMl1bQ0gyXTQ=

> <s_epik_cmdline>
J2VwaWtfcHl0aG9uJywgJy1waCcsICc3LjAnLCAnLXRuJywgJzgnLCAnLW1hJywgJzIwMCcsICctbWV0YWxfYmluZGluZycsICctaW1hZScsICc8aW5maWxlLm1hZT4nLCAnLW9tYWUnLCAnPG91dGZpbGUubWFlPic=

> <r_lp_tautomer_probability>
1

> <r_epik_Ionization_Penalty>
1.16487

> <r_epik_Ionization_Penalty_Charging>
0

> <r_epik_Ionization_Penalty_Neutral>
1.16487

> <r_epik_State_Penalty>
1.21807

> <r_epik_Charging_Adjusted_Penalty>
1.21807

> <i_epik_Tot_Q>
0

> <i_epik_Tot_abs_Q>
0

> <r_epik_Metal_State_Penalty>
1.19922

> <b_epik_Metal_Only>
0

> <s_lp_Force_Field>
OPLS_2005

> <r_lp_Energy>
77.9026

> <b_lp_Chiralities_Consistent>
1

> <s_lp_Variant>
AV-unprocessed.smi:1830-11

> <Gold.Version>
5.8.1

> <Gold.Id.Protein>
6NUR|6NUR_protein|mol2

> <Gold.PLP.Fitness>
46.9935

> <Gold.PLP.PLP>
-42.0288

> <Gold.PLP.part.hbond>
-2.7090

> <Gold.PLP.part.metal>
0.0000

> <Gold.PLP.part.buried>
-5.3974

> <Gold.PLP.part.nonpolar>
-34.4604

> <Gold.PLP.part.repulsive>
1.3473

> <Gold.PLP.ligand.clash>
0.0000

> <Gold.PLP.ligand.torsion>
0.3749

> <Gold.PLP.Chemscore.Hbond>
1.8500

> <Gold.PLP.Chemscore.CHOScore>
0.0000

> <Gold.PLP.Chemscore.Metal>
0.0000

> <Gold.Chemscore.Hbonds>
donor molecule, donor type, donor heavy atom, donor atom, acceptor molecule, acceptor atom, score
      L1  H     3    26       P1  7948  0.99
      L1  H    14    41       P1  7948  0.85

> <Gold.PLP.Chemscore.Internal.Correction>
0.1646

> <Gold.Rescore>
     Score         DG    S(hbond)    S(metal)    S(lipo)     H(rot)  DE(clash)    DE(int)     intcor
     15.60     -17.28       1.45        0.00      89.53       1.37       0.17       1.51       ----

> <Gold.Chemscore.Fitness>
15.6025

> <Gold.Chemscore.DG>
-17.2789

> <Gold.Chemscore.ZeroCoef>
-5.4800

> <Gold.Chemscore.Hbond>
1.4501

> <Gold.Chemscore.Metal>
0.0000

> <Gold.Chemscore.Lipo>
89.5255

> <Gold.Chemscore.Internal_Hbond>
0.0000

> <Gold.Chemscore.DEClash>
0.1711

> <Gold.Chemscore.DEInternal>
1.5052

> <Gold.Chemscore.Rot>
1.3746

> <Gold.Chemscore.Internal.Correction>
   9.000000E+99

> <Gold.Chemscore.Hbonds>
donor molecule, donor type, donor heavy atom, donor atom, acceptor molecule, acceptor atom, score
      L1  H     3    26       P1  7948  0.51
      L1  H    14    41       P1  7948  0.14

> <Gold.Chemscore.Hbond.Weighted>
-4.8433

> <Gold.Chemscore.Metal.Weighted>
-0.0000

> <Gold.Chemscore.Lipo.Weighted>
-10.4745

> <Gold.Chemscore.Internal_Hbond.Weighted>
0.0000

> <Gold.Chemscore.DEClash.Weighted>
0.1711

> <Gold.Chemscore.DEInternal.Weighted>
1.5052

> <Gold.Chemscore.Rot.Weighted>
3.5189

> <Gold.Chemscore.Internal.Correction.Weighted>
   9.000000E+99

> <Gold.Protein.RotatedTorsions>
[ 6907 6896 6895 6894 ] final  -96.50 input  -60.11 | X-H torsion
[ 7974 7965 7964 7962 ] final   33.49 input  175.53 | X-H torsion
[ 8008 7997 7996 7995 ] final   -5.04 input   59.86 | X-H torsion
[ 10167 10162 10161 10158 ] final    9.01 input  -65.29 | X-H torsion
[ 10718 10713 10712 10709 ] final   -6.44 input   66.30 | X-H torsion
[ 10763 10752 10751 10750 ] final  129.44 input  -60.55 | X-H torsion
[ 11005 11000 10999 10996 ] final  -92.80 input  -57.11 | X-H torsion

> <Gold.Protein.ActiveResidues>
 VAL166  LYS551  ARG553  GLY616  TRP617  ASP618  TYR619  PRO620  LYS621  CYS622 
 ASP623  PHE694  ASN695  SER759  ASP760  ASP761  ALA762  ILE779  LEU786  VAL792 
 PHE793  MET794  SER795  GLU796  ALA797  LYS798  CYS799  TRP800  GLU811  SER814 

> <Gold.Protein.RotatedAtoms>
  150.6990  134.1493  159.4133 H   0  0  0  0  0  0  0  0  0  0  0  0  # atno 6907 bound_to 6896
  151.9476  135.0182  160.0549 H   0  0  0  0  0  0  0  0  0  0  0  0  # atno 6908 bound_to 6896
  152.2039  133.4826  159.5110 H   0  0  0  0  0  0  0  0  0  0  0  0  # atno 6909 bound_to 6896
  146.1417  139.6391  142.9158 H   0  0  0  0  0  0  0  0  0  0  0  0  # atno 7974 bound_to 7965
  154.6080  140.2468  155.7706 H   0  0  0  0  0  0  0  0  0  0  0  0  # atno 8008 bound_to 7997
  156.2353  140.2952  156.0247 H   0  0  0  0  0  0  0  0  0  0  0  0  # atno 8009 bound_to 7997
  155.2099  140.0397  157.2922 H   0  0  0  0  0  0  0  0  0  0  0  0  # atno 8010 bound_to 7997
  140.6281  143.8056  150.7259 H   0  0  0  0  0  0  0  0  0  0  0  0  # atno 10167 bound_to 10162
  156.7319  130.5183  149.5843 H   0  0  0  0  0  0  0  0  0  0  0  0  # atno 10718 bound_to 10713
  153.7418  135.3223  155.3305 H   0  0  0  0  0  0  0  0  0  0  0  0  # atno 10763 bound_to 10752
  154.8292  135.4546  154.1019 H   0  0  0  0  0  0  0  0  0  0  0  0  # atno 10764 bound_to 10752
  153.2196  135.6946  153.8098 H   0  0  0  0  0  0  0  0  0  0  0  0  # atno 10765 bound_to 10752
  141.1513  133.7845  157.0071 H   0  0  0  0  0  0  0  0  0  0  0  0  # atno 11005 bound_to 11000
  145.5031  141.0437  143.2529 LP  0  0  0  0  0  0  0  0  0  0  0  0  # atno 17320 bound_to 7965
  144.7800  139.6546  143.7158 LP  0  0  0  0  0  0  0  0  0  0  0  0  # atno 17321 bound_to 7965
  140.1661  143.4234  152.2033 LP  0  0  0  0  0  0  0  0  0  0  0  0  # atno 17342 bound_to 10162
  139.5498  144.7328  151.4470 LP  0  0  0  0  0  0  0  0  0  0  0  0  # atno 17343 bound_to 10162
  156.1523  130.6318  151.0612 LP  0  0  0  0  0  0  0  0  0  0  0  0  # atno 17370 bound_to 10713
  157.6855  131.0826  150.7254 LP  0  0  0  0  0  0  0  0  0  0  0  0  # atno 17371 bound_to 10713
  140.0902  134.9597  157.1764 LP  0  0  0  0  0  0  0  0  0  0  0  0  # atno 17394 bound_to 11000
  140.3456  134.2655  155.7205 LP  0  0  0  0  0  0  0  0  0  0  0  0  # atno 17395 bound_to 11000

$$$$
