AV-unprocessed.smi:767|AV-procd|sdf|3672|dock2
  -GOLD-   22720 1 83D 1   1.00000     0.00000
 Structure written by MMmdl.
 48 50  0  0  0  0  0  0  0  0  2 V2000
  143.7204  132.8369  147.9771 C   0  0  0  0  0  0  0  0  0  0  0  0
  144.2788  132.9285  149.3808 C   0  0  0  0  0  0  0  0  0  0  0  0
  145.5579  132.4352  149.7135 C   0  0  0  0  0  0  0  0  0  0  0  0
  146.0272  132.5753  151.0356 C   0  0  0  0  0  0  0  0  0  0  0  0
  145.2064  133.2001  152.0004 C   0  0  0  0  0  0  0  0  0  0  0  0
  145.7012  133.4097  153.4220 C   0  0  0  0  0  0  0  0  0  0  0  0
  145.6736  134.8815  153.8830 C   0  0  0  0  0  0  0  0  0  0  0  0
  146.9889  135.5163  153.8162 N   0  0  0  0  0  0  0  0  0  0  0  0
  147.5882  136.1645  154.8261 C   0  0  0  0  0  0  0  0  0  0  0  0
  147.1026  136.2909  155.9506 O   0  0  0  0  0  0  0  0  0  0  0  0
  148.7662  136.6849  154.4601 N   0  0  0  0  0  0  0  0  0  0  0  0
  149.5925  137.5125  155.3308 C   0  0  1  0  0  0  0  0  0  0  0  0
  150.8953  137.9552  154.6671 C   0  0  2  0  0  0  0  0  0  0  0  0
  152.3365  137.6744  154.9031 C   0  0  0  0  0  0  0  0  0  0  0  0
  152.8538  139.1356  154.8228 C   0  0  0  0  0  0  0  0  0  0  0  0
  151.6740  139.9762  154.8319 O   0  0  0  0  0  0  0  0  0  0  0  0
  150.7133  139.1996  155.5168 C   0  0  1  0  0  0  0  0  0  0  0  0
  149.1943  139.0373  155.3104 C   0  0  0  0  0  0  0  0  0  0  0  0
  148.5786  139.6524  154.0373 C   0  0  0  0  0  0  0  0  0  0  0  0
  148.3128  139.4907  156.4747 C   0  0  0  0  0  0  0  0  0  0  0  0
  143.9265  133.6536  151.6143 C   0  0  0  0  0  0  0  0  0  0  0  0
  143.5175  133.5089  150.3351 N   0  3  0  0  0  0  0  0  0  0  0  0
  144.5203  132.6972  147.2490 H   0  0  0  0  0  0  0  0  0  0  0  0
  143.1828  133.7491  147.7162 H   0  0  0  0  0  0  0  0  0  0  0  0
  143.0328  131.9947  147.8980 H   0  0  0  0  0  0  0  0  0  0  0  0
  146.1794  131.9680  148.9637 H   0  0  0  0  0  0  0  0  0  0  0  0
  147.0126  132.2191  151.2983 H   0  0  0  0  0  0  0  0  0  0  0  0
  145.0910  132.8051  154.0936 H   0  0  0  0  0  0  0  0  0  0  0  0
  146.7174  133.0226  153.5077 H   0  0  0  0  0  0  0  0  0  0  0  0
  144.9492  135.4457  153.2931 H   0  0  0  0  0  0  0  0  0  0  0  0
  145.3239  134.9323  154.9141 H   0  0  0  0  0  0  0  0  0  0  0  0
  147.4723  135.4675  152.9312 H   0  0  0  0  0  0  0  0  0  0  0  0
  149.0960  136.5296  153.5187 H   0  0  0  0  0  0  0  0  0  0  0  0
  149.7426  137.0991  156.3326 H   0  0  0  0  0  0  0  0  0  0  0  0
  150.7351  138.1320  153.6010 H   0  0  0  0  0  0  0  0  0  0  0  0
  152.5111  137.2322  155.8851 H   0  0  0  0  0  0  0  0  0  0  0  0
  152.7750  137.0318  154.1390 H   0  0  0  0  0  0  0  0  0  0  0  0
  153.4944  139.3682  155.6744 H   0  0  0  0  0  0  0  0  0  0  0  0
  153.4232  139.3171  153.9109 H   0  0  0  0  0  0  0  0  0  0  0  0
  151.0010  139.0665  156.5661 H   0  0  0  0  0  0  0  0  0  0  0  0
  148.4503  140.7301  154.1430 H   0  0  0  0  0  0  0  0  0  0  0  0
  147.5964  139.2303  153.8301 H   0  0  0  0  0  0  0  0  0  0  0  0
  149.1814  139.5049  153.1433 H   0  0  0  0  0  0  0  0  0  0  0  0
  148.3121  140.5760  156.5794 H   0  0  0  0  0  0  0  0  0  0  0  0
  148.6569  139.0760  157.4226 H   0  0  0  0  0  0  0  0  0  0  0  0
  147.2794  139.1697  156.3416 H   0  0  0  0  0  0  0  0  0  0  0  0
  143.2336  134.1489  152.2789 H   0  0  0  0  0  0  0  0  0  0  0  0
  142.5955  133.8606  150.0762 H   0  0  0  0  0  0  0  0  0  0  0  0
  1  2  1  0  0  0  0
  1 23  1  0  0  0  0
  1 24  1  0  0  0  0
  1 25  1  0  0  0  0
  2 22  1  0  0  0  0
  2  3  2  0  0  0  0
  3  4  1  0  0  0  0
  3 26  1  0  0  0  0
  4  5  2  0  0  0  0
  4 27  1  0  0  0  0
  5  6  1  0  0  0  0
  5 21  1  0  0  0  0
  6  7  1  0  0  0  0
  6 28  1  0  0  0  0
  6 29  1  0  0  0  0
  7  8  1  0  0  0  0
  7 30  1  0  0  0  0
  7 31  1  0  0  0  0
  8  9  1  0  0  0  0
  8 32  1  0  0  0  0
  9 10  2  0  0  0  0
  9 11  1  0  0  0  0
 11 12  1  0  0  0  0
 11 33  1  0  0  0  0
 12 18  1  0  0  0  0
 12 13  1  0  0  0  0
 12 34  1  0  0  0  0
 13 17  1  0  0  0  0
 13 14  1  0  0  0  0
 13 35  1  0  0  0  0
 14 15  1  0  0  0  0
 14 36  1  0  0  0  0
 14 37  1  0  0  0  0
 15 16  1  0  0  0  0
 15 38  1  0  0  0  0
 15 39  1  0  0  0  0
 16 17  1  0  0  0  0
 17 18  1  0  0  0  0
 17 40  1  0  0  0  0
 18 19  1  0  0  0  0
 18 20  1  0  0  0  0
 19 41  1  0  0  0  0
 19 42  1  0  0  0  0
 19 43  1  0  0  0  0
 20 44  1  0  0  0  0
 20 45  1  0  0  0  0
 20 46  1  0  0  0  0
 21 22  2  0  0  0  0
 21 47  1  0  0  0  0
 22 48  1  0  0  0  0
M  CHG  1  22   1
M  END
> <s_m_source_file>
AV-unprocessed.smi

> <i_m_source_file_index>
767

> <i_lp_mmshare_version>
43012

> <i_f3d_flags>
0

> <s_epik_input>
W0NIM11jMVtjSF1bY0hdYyhbY0hdbjEpW0NIMl1bQ0gyXVtOSF1DKD1PKVtOSF1bQ0BIXTJDKFtDSDNdKShbQ0gzXSlbQ0BIXShbQ0BASF0yMylPW0NIMl1bQ0gyXTM=

> <s_epik_cmdline>
J2VwaWtfcHl0aG9uJywgJy1waCcsICc3LjAnLCAnLXRuJywgJzgnLCAnLW1hJywgJzIwMCcsICctbWV0YWxfYmluZGluZycsICctaW1hZScsICc8aW5maWxlLm1hZT4nLCAnLW9tYWUnLCAnPG91dGZpbGUubWFlPic=

> <r_epik_Ionization_Penalty>
1.41853

> <r_epik_Ionization_Penalty_Charging>
1.41848

> <r_epik_Ionization_Penalty_Neutral>
5.17407e-05

> <r_epik_State_Penalty>
1.50205

> <r_epik_Charging_Adjusted_Penalty>
2.92053

> <i_epik_Tot_Q>
1

> <i_epik_Tot_abs_Q>
1

> <r_epik_Metal_State_Penalty>
1.5544

> <b_epik_Metal_Only>
0

> <s_lp_Force_Field>
OPLS_2005

> <r_lp_Energy>
61.237

> <b_lp_Chiralities_Consistent>
1

> <s_lp_Variant>
AV-unprocessed.smi:767-16

> <Gold.Version>
5.8.1

> <Gold.Id.Protein>
6NUR|6NUR_protein|mol2

> <Gold.PLP.Fitness>
48.3845

> <Gold.PLP.PLP>
-34.4258

> <Gold.PLP.part.hbond>
-3.8720

> <Gold.PLP.part.metal>
0.0000

> <Gold.PLP.part.buried>
-0.3781

> <Gold.PLP.part.nonpolar>
-29.4498

> <Gold.PLP.part.repulsive>
0.1075

> <Gold.PLP.ligand.clash>
0.0000

> <Gold.PLP.ligand.torsion>
0.5024

> <Gold.PLP.Chemscore.Hbond>
4.8960

> <Gold.PLP.Chemscore.CHOScore>
0.0000

> <Gold.PLP.Chemscore.Metal>
0.0000

> <Gold.Chemscore.Hbonds>
donor molecule, donor type, donor heavy atom, donor atom, acceptor molecule, acceptor atom, score
      L1  H     8    32       P1  7948  0.91
      L1  H    11    33       P1  7948  1.00
      L1  H    22    48       P1 10186  2.00
      P1  H  7989  7998       L1    16  1.00

> <Gold.PLP.Chemscore.Internal.Correction>
0.2755

> <Gold.Rescore>
     Score         DG    S(hbond)    S(metal)    S(lipo)     H(rot)  DE(clash)    DE(int)     intcor
     23.97     -25.47       3.64        0.00     100.18       1.52       0.98       0.52       ----

> <Gold.Chemscore.Fitness>
23.9725

> <Gold.Chemscore.DG>
-25.4735

> <Gold.Chemscore.ZeroCoef>
-5.4800

> <Gold.Chemscore.Hbond>
3.6442

> <Gold.Chemscore.Metal>
0.0000

> <Gold.Chemscore.Lipo>
100.1843

> <Gold.Chemscore.Internal_Hbond>
0.0000

> <Gold.Chemscore.DEClash>
0.9761

> <Gold.Chemscore.DEInternal>
0.5250

> <Gold.Chemscore.Rot>
1.5233

> <Gold.Chemscore.Internal.Correction>
   9.000000E+99

> <Gold.Chemscore.Hbonds>
donor molecule, donor type, donor heavy atom, donor atom, acceptor molecule, acceptor atom, score
      L1  H     8    32       P1  7948  0.88
      L1  H    11    33       P1  7948  0.98
      L1  H    22    48       P1 10186  1.00
      P1  H  7989  7998       L1    16  0.67

> <Gold.Chemscore.Hbond.Weighted>
-12.1715

> <Gold.Chemscore.Metal.Weighted>
-0.0000

> <Gold.Chemscore.Lipo.Weighted>
-11.7216

> <Gold.Chemscore.Internal_Hbond.Weighted>
0.0000

> <Gold.Chemscore.DEClash.Weighted>
0.9761

> <Gold.Chemscore.DEInternal.Weighted>
0.5250

> <Gold.Chemscore.Rot.Weighted>
3.8995

> <Gold.Chemscore.Internal.Correction.Weighted>
   9.000000E+99

> <Gold.Protein.RotatedTorsions>
[ 6907 6896 6895 6894 ] final  -37.70 input  -60.11 | X-H torsion
[ 7974 7965 7964 7962 ] final   78.93 input  175.53 | X-H torsion
[ 8008 7997 7996 7995 ] final  163.76 input   59.86 | X-H torsion
[ 10167 10162 10161 10158 ] final  -87.50 input  -65.29 | X-H torsion
[ 10718 10713 10712 10709 ] final   81.88 input   66.30 | X-H torsion
[ 10763 10752 10751 10750 ] final   98.68 input  -60.55 | X-H torsion
[ 11005 11000 10999 10996 ] final  174.02 input  -57.11 | X-H torsion

> <Gold.Protein.ActiveResidues>
 VAL166  LYS551  ARG553  GLY616  TRP617  ASP618  TYR619  PRO620  LYS621  CYS622 
 ASP623  PHE694  ASN695  SER759  ASP760  ASP761  ALA762  ILE779  LEU786  VAL792 
 PHE793  MET794  SER795  GLU796  ALA797  LYS798  CYS799  TRP800  GLU811  SER814 

> <Gold.Protein.RotatedAtoms>
  151.0115  134.9400  159.8009 H   0  0  0  0  0  0  0  0  0  0  0  0  # atno 6907 bound_to 6896
  152.5303  134.3022  159.9092 H   0  0  0  0  0  0  0  0  0  0  0  0  # atno 6908 bound_to 6896
  151.3028  133.4073  159.2675 H   0  0  0  0  0  0  0  0  0  0  0  0  # atno 6909 bound_to 6896
  145.6707  139.2496  143.1870 H   0  0  0  0  0  0  0  0  0  0  0  0  # atno 7974 bound_to 7965
  156.1932  140.1715  156.8050 H   0  0  0  0  0  0  0  0  0  0  0  0  # atno 8008 bound_to 7997
  154.5497  140.0720  156.8680 H   0  0  0  0  0  0  0  0  0  0  0  0  # atno 8009 bound_to 7997
  155.3052  140.3364  155.4248 H   0  0  0  0  0  0  0  0  0  0  0  0  # atno 8010 bound_to 7997
  140.3838  143.2736  151.9350 H   0  0  0  0  0  0  0  0  0  0  0  0  # atno 10167 bound_to 10162
  157.6844  131.0023  150.2292 H   0  0  0  0  0  0  0  0  0  0  0  0  # atno 10718 bound_to 10713
  153.2921  135.4140  155.1176 H   0  0  0  0  0  0  0  0  0  0  0  0  # atno 10763 bound_to 10752
  154.8523  135.3521  154.5968 H   0  0  0  0  0  0  0  0  0  0  0  0  # atno 10764 bound_to 10752
  153.6390  135.7057  153.5306 H   0  0  0  0  0  0  0  0  0  0  0  0  # atno 10765 bound_to 10752
  140.3468  134.7229  157.4240 H   0  0  0  0  0  0  0  0  0  0  0  0  # atno 11005 bound_to 11000
  146.1047  140.7501  142.9532 LP  0  0  0  0  0  0  0  0  0  0  0  0  # atno 17320 bound_to 7965
  144.7058  140.3844  143.7119 LP  0  0  0  0  0  0  0  0  0  0  0  0  # atno 17321 bound_to 7965
  139.4793  144.5793  151.7959 LP  0  0  0  0  0  0  0  0  0  0  0  0  # atno 17342 bound_to 10162
  140.4910  144.1310  150.5950 LP  0  0  0  0  0  0  0  0  0  0  0  0  # atno 17343 bound_to 10162
  156.2928  130.3748  149.7825 LP  0  0  0  0  0  0  0  0  0  0  0  0  # atno 17370 bound_to 10713
  156.5479  130.8329  151.3290 LP  0  0  0  0  0  0  0  0  0  0  0  0  # atno 17371 bound_to 10713
  140.0736  134.5829  155.8616 LP  0  0  0  0  0  0  0  0  0  0  0  0  # atno 17394 bound_to 11000
  141.2023  133.6624  156.6000 LP  0  0  0  0  0  0  0  0  0  0  0  0  # atno 17395 bound_to 11000

$$$$
