AV-unprocessed.smi:828|AV-procd|sdf|3864|dock2
  -GOLD-   22720 1313D 1   1.00000     0.00000
 Structure written by MMmdl.
 34 35  0  0  0  0  0  0  0  0  3 V2000
  136.2492  137.5397  155.4978 C   0  0  0  0  0  0  0  0  0  0  0  0
  137.6509  137.1818  155.1397 C   0  0  0  0  0  0  0  0  0  0  0  0
  138.4812  136.5725  155.9896 N   0  0  0  0  0  0  0  0  0  0  0  0
  139.7286  136.3424  155.4275 N   0  0  0  0  0  0  0  0  0  0  0  0
  139.8206  136.7693  154.1601 C   0  0  0  0  0  0  0  0  0  0  0  0
  140.9453  136.6406  153.4369 N   0  5  0  0  0  0  0  0  0  0  0  0
  141.6321  135.4767  153.4591 C   0  0  0  0  0  0  0  0  0  0  0  0
  141.2181  134.3884  153.8641 O   0  0  0  0  0  0  0  0  0  0  0  0
  142.8811  135.5853  152.9884 N   0  0  0  0  0  0  0  0  0  0  0  0
  143.8638  134.5089  152.9240 C   0  0  0  0  0  0  0  0  0  0  0  0
  143.5765  133.5592  151.7416 C   0  0  2  0  0  0  0  0  0  0  0  0
  144.4986  132.3418  151.6849 C   0  0  0  0  0  0  0  0  0  0  0  0
  144.2463  131.8098  150.2812 C   0  0  0  0  0  0  0  0  0  0  0  0
  144.0833  133.0836  149.4480 C   0  0  0  0  0  0  0  0  0  0  0  0
  143.6078  134.1477  150.3694 N   0  3  2  0  0  0  0  0  0  0  0  0
  144.3614  135.4139  150.1912 C   0  0  0  0  0  0  0  0  0  0  0  0
  138.3430  137.5243  153.5631 S   0  0  0  0  0  0  0  0  0  0  0  0
  135.5972  136.6781  155.3531 H   0  0  0  0  0  0  0  0  0  0  0  0
  135.8953  138.3568  154.8690 H   0  0  0  0  0  0  0  0  0  0  0  0
  136.1926  137.8530  156.5406 H   0  0  0  0  0  0  0  0  0  0  0  0
  143.1701  136.4935  152.6555 H   0  0  0  0  0  0  0  0  0  0  0  0
  144.8805  134.9000  152.8636 H   0  0  0  0  0  0  0  0  0  0  0  0
  143.8060  133.9525  153.8603 H   0  0  0  0  0  0  0  0  0  0  0  0
  142.5620  133.1766  151.8689 H   0  0  0  0  0  0  0  0  0  0  0  0
  145.5410  132.6472  151.7897 H   0  0  0  0  0  0  0  0  0  0  0  0
  144.2790  131.6077  152.4607 H   0  0  0  0  0  0  0  0  0  0  0  0
  145.0488  131.1664  149.9198 H   0  0  0  0  0  0  0  0  0  0  0  0
  143.3200  131.2335  150.2654 H   0  0  0  0  0  0  0  0  0  0  0  0
  145.0496  133.3529  149.0177 H   0  0  0  0  0  0  0  0  0  0  0  0
  143.3859  132.9431  148.6215 H   0  0  0  0  0  0  0  0  0  0  0  0
  145.3974  135.3075  150.5155 H   0  0  0  0  0  0  0  0  0  0  0  0
  143.9068  136.2386  150.7375 H   0  0  0  0  0  0  0  0  0  0  0  0
  144.3666  135.7015  149.1392 H   0  0  0  0  0  0  0  0  0  0  0  0
  142.6491  134.3543  150.1273 H   0  0  0  0  0  0  0  0  0  0  0  0
  1  2  1  0  0  0  0
  1 18  1  0  0  0  0
  1 19  1  0  0  0  0
  1 20  1  0  0  0  0
  2 17  1  0  0  0  0
  2  3  2  0  0  0  0
  3  4  1  0  0  0  0
  4  5  2  0  0  0  0
  5  6  1  0  0  0  0
  5 17  1  0  0  0  0
  6  7  1  0  0  0  0
  7  8  2  0  0  0  0
  7  9  1  0  0  0  0
  9 10  1  0  0  0  0
  9 21  1  0  0  0  0
 10 11  1  0  0  0  0
 10 22  1  0  0  0  0
 10 23  1  0  0  0  0
 11 15  1  0  0  0  0
 11 12  1  0  0  0  0
 11 24  1  0  0  0  0
 12 13  1  0  0  0  0
 12 25  1  0  0  0  0
 12 26  1  0  0  0  0
 13 14  1  0  0  0  0
 13 27  1  0  0  0  0
 13 28  1  0  0  0  0
 14 15  1  0  0  0  0
 14 29  1  0  0  0  0
 14 30  1  0  0  0  0
 15 16  1  0  0  0  0
 15 34  1  0  0  0  0
 16 31  1  0  0  0  0
 16 32  1  0  0  0  0
 16 33  1  0  0  0  0
M  CHG  1   6  -1
M  CHG  1  15   1
M  END
> <s_m_source_file>
AV-unprocessed.smi

> <i_m_source_file_index>
828

> <i_lp_mmshare_version>
43012

> <i_f3d_flags>
0

> <s_epik_input>
W0NIM11jMW5uYyhzMSlbTkhdQyg9TylbTkhdW0NIMl1bQ0BASF0yW0NIMl1bQ0gyXVtDSDJdTjJbQ0gzXQ==

> <s_epik_cmdline>
J2VwaWtfcHl0aG9uJywgJy1waCcsICc3LjAnLCAnLXRuJywgJzgnLCAnLW1hJywgJzIwMCcsICctbWV0YWxfYmluZGluZycsICctaW1hZScsICc8aW5maWxlLm1hZT4nLCAnLW9tYWUnLCAnPG91dGZpbGUubWFlPic=

> <r_lp_tautomer_probability>
1

> <r_epik_Ionization_Penalty>
3.94379

> <r_epik_Ionization_Penalty_Charging>
3.83377

> <r_epik_Ionization_Penalty_Neutral>
0.110023

> <r_epik_State_Penalty>
3.83036

> <r_epik_Charging_Adjusted_Penalty>
7.66413

> <i_epik_Tot_Q>
0

> <i_epik_Tot_abs_Q>
2

> <r_epik_Metal_State_Penalty>
0.575095

> <b_epik_Metal_Only>
1

> <s_lp_Force_Field>
OPLS_2005

> <r_lp_Energy>
28.5427

> <b_lp_Chiralities_Consistent>
1

> <s_lp_Variant>
AV-unprocessed.smi:828-7

> <Gold.Version>
5.8.1

> <Gold.Id.Protein>
6NUR|6NUR_protein|mol2

> <Gold.PLP.Fitness>
42.3573

> <Gold.PLP.PLP>
-34.4115

> <Gold.PLP.part.hbond>
-4.1198

> <Gold.PLP.part.metal>
0.0000

> <Gold.PLP.part.buried>
-5.0711

> <Gold.PLP.part.nonpolar>
-25.0097

> <Gold.PLP.part.repulsive>
0.4860

> <Gold.PLP.ligand.clash>
0.0000

> <Gold.PLP.ligand.torsion>
0.5427

> <Gold.PLP.Chemscore.Hbond>
3.0000

> <Gold.PLP.Chemscore.CHOScore>
0.0000

> <Gold.PLP.Chemscore.Metal>
0.0000

> <Gold.Chemscore.Hbonds>
donor molecule, donor type, donor heavy atom, donor atom, acceptor molecule, acceptor atom, score
      L1  H    15    34       P1 10186  2.00
      P1  H 11000 11005       L1     8  1.00

> <Gold.PLP.Chemscore.Internal.Correction>
0.0313

> <Gold.Rescore>
     Score         DG    S(hbond)    S(metal)    S(lipo)     H(rot)  DE(clash)    DE(int)     intcor
     15.55     -16.35       1.92        0.00      66.87       1.31       0.03       0.76       ----

> <Gold.Chemscore.Fitness>
15.5524

> <Gold.Chemscore.DG>
-16.3465

> <Gold.Chemscore.ZeroCoef>
-5.4800

> <Gold.Chemscore.Hbond>
1.9189

> <Gold.Chemscore.Metal>
0.0000

> <Gold.Chemscore.Lipo>
66.8675

> <Gold.Chemscore.Internal_Hbond>
0.0000

> <Gold.Chemscore.DEClash>
0.0309

> <Gold.Chemscore.DEInternal>
0.7632

> <Gold.Chemscore.Rot>
1.3149

> <Gold.Chemscore.Internal.Correction>
   9.000000E+99

> <Gold.Chemscore.Hbonds>
donor molecule, donor type, donor heavy atom, donor atom, acceptor molecule, acceptor atom, score
      L1  H    15    34       P1 10186  0.85
      P1  H 11000 11005       L1     8  0.95

> <Gold.Chemscore.Hbond.Weighted>
-6.4092

> <Gold.Chemscore.Metal.Weighted>
-0.0000

> <Gold.Chemscore.Lipo.Weighted>
-7.8235

> <Gold.Chemscore.Internal_Hbond.Weighted>
0.0000

> <Gold.Chemscore.DEClash.Weighted>
0.0309

> <Gold.Chemscore.DEInternal.Weighted>
0.7632

> <Gold.Chemscore.Rot.Weighted>
3.3662

> <Gold.Chemscore.Internal.Correction.Weighted>
   9.000000E+99

> <Gold.Protein.RotatedTorsions>
[ 6907 6896 6895 6894 ] final  146.86 input  -60.11 | X-H torsion
[ 7974 7965 7964 7962 ] final   87.47 input  175.53 | X-H torsion
[ 8008 7997 7996 7995 ] final   44.12 input   59.86 | X-H torsion
[ 10167 10162 10161 10158 ] final  118.19 input  -65.29 | X-H torsion
[ 10718 10713 10712 10709 ] final   -8.34 input   66.30 | X-H torsion
[ 10763 10752 10751 10750 ] final    8.12 input  -60.55 | X-H torsion
[ 11005 11000 10999 10996 ] final   12.92 input  -57.11 | X-H torsion

> <Gold.Protein.ActiveResidues>
 VAL166  LYS551  ARG553  GLY616  TRP617  ASP618  TYR619  PRO620  LYS621  CYS622 
 ASP623  PHE694  ASN695  SER759  ASP760  ASP761  ALA762  ILE779  LEU786  VAL792 
 PHE793  MET794  SER795  GLU796  ALA797  LYS798  CYS799  TRP800  GLU811  SER814 

> <Gold.Protein.RotatedAtoms>
  152.1623  133.4590  159.4867 H   0  0  0  0  0  0  0  0  0  0  0  0  # atno 6907 bound_to 6896
  150.6908  134.2056  159.4348 H   0  0  0  0  0  0  0  0  0  0  0  0  # atno 6908 bound_to 6896
  151.9958  134.9954  160.0614 H   0  0  0  0  0  0  0  0  0  0  0  0  # atno 6909 bound_to 6896
  145.5586  139.2302  143.2472 H   0  0  0  0  0  0  0  0  0  0  0  0  # atno 7974 bound_to 7965
  155.3140  140.3393  155.4243 H   0  0  0  0  0  0  0  0  0  0  0  0  # atno 8008 bound_to 7997
  156.1942  140.1708  156.8070 H   0  0  0  0  0  0  0  0  0  0  0  0  # atno 8009 bound_to 7997
  154.5478  140.0711  156.8602 H   0  0  0  0  0  0  0  0  0  0  0  0  # atno 8010 bound_to 7997
  139.6128  144.7085  151.2806 H   0  0  0  0  0  0  0  0  0  0  0  0  # atno 10167 bound_to 10162
  156.7041  130.5102  149.5909 H   0  0  0  0  0  0  0  0  0  0  0  0  # atno 10718 bound_to 10713
  153.2286  135.6890  153.7916 H   0  0  0  0  0  0  0  0  0  0  0  0  # atno 10763 bound_to 10752
  153.7088  135.3285  155.3242 H   0  0  0  0  0  0  0  0  0  0  0  0  # atno 10764 bound_to 10752
  154.8303  135.4585  154.1163 H   0  0  0  0  0  0  0  0  0  0  0  0  # atno 10765 bound_to 10752
  140.4865  134.0882  155.7762 H   0  0  0  0  0  0  0  0  0  0  0  0  # atno 11005 bound_to 11000
  146.1867  140.6410  142.9164 LP  0  0  0  0  0  0  0  0  0  0  0  0  # atno 17320 bound_to 7965
  144.7494  140.5152  143.6812 LP  0  0  0  0  0  0  0  0  0  0  0  0  # atno 17321 bound_to 7965
  140.7331  143.6805  150.8005 LP  0  0  0  0  0  0  0  0  0  0  0  0  # atno 17342 bound_to 10162
  140.0403  143.5353  152.2721 LP  0  0  0  0  0  0  0  0  0  0  0  0  # atno 17343 bound_to 10162
  156.1708  130.6435  151.0835 LP  0  0  0  0  0  0  0  0  0  0  0  0  # atno 17370 bound_to 10713
  157.6962  131.0793  150.6962 LP  0  0  0  0  0  0  0  0  0  0  0  0  # atno 17371 bound_to 10713
  141.1505  133.8977  157.2109 LP  0  0  0  0  0  0  0  0  0  0  0  0  # atno 17394 bound_to 11000
  139.9794  135.0103  156.9713 LP  0  0  0  0  0  0  0  0  0  0  0  0  # atno 17395 bound_to 11000

$$$$
