AV-unprocessed.smi:1703|AV-procd|sdf|6864|dock4
  -GOLD-   22720 8 53D 1   1.00000     0.00000
 Structure written by MMmdl.
 49 51  0  0  0  0  0  0  0  0  2 V2000
  144.6551  144.5119  156.3370 C   0  0  0  0  0  0  0  0  0  0  0  0
  144.4968  143.5979  155.1090 C   0  0  1  0  0  0  0  0  0  0  0  0
  145.8383  143.1009  154.5353 C   0  0  0  0  0  0  0  0  0  0  0  0
  146.4409  142.0623  155.4036 N   0  3  2  0  0  0  0  0  0  0  0  0
  147.7692  141.6145  154.9140 C   0  0  0  0  0  0  0  0  0  0  0  0
  148.7977  141.4500  156.0547 C   0  0  2  0  0  0  0  0  0  0  0  0
  148.5470  142.4288  157.0427 O   0  0  0  0  0  0  0  0  0  0  0  0
  150.2620  141.6067  155.5980 C   0  0  0  0  0  0  0  0  0  0  0  0
  151.2156  141.2699  156.6470 N   0  0  0  0  0  0  0  0  0  0  0  0
  151.9289  140.1257  156.8106 C   0  0  0  0  0  0  0  0  0  0  0  0
  151.8270  138.9702  155.8623 C   0  0  0  0  0  0  0  0  0  0  0  0
  152.0003  139.3532  154.5150 O   0  0  0  0  0  0  0  0  0  0  0  0
  152.7278  140.0890  157.8772 N   0  0  0  0  0  0  0  0  0  0  0  0
  152.5260  141.3277  158.4529 C   0  0  0  0  0  0  0  0  0  0  0  0
  153.0889  141.9035  159.6142 C   0  0  0  0  0  0  0  0  0  0  0  0
  152.7264  143.2071  160.0120 C   0  0  0  0  0  0  0  0  0  0  0  0
  151.7973  143.9514  159.2568 C   0  0  0  0  0  0  0  0  0  0  0  0
  151.2229  143.3956  158.0977 C   0  0  0  0  0  0  0  0  0  0  0  0
  151.5878  142.0937  157.7049 C   0  0  0  0  0  0  0  0  0  0  0  0
  145.4799  140.9536  155.6177 C   0  0  0  0  0  0  0  0  0  0  0  0
  144.1701  141.4910  156.2212 C   0  0  2  0  0  0  0  0  0  0  0  0
  143.1179  140.3883  156.3822 C   0  0  0  0  0  0  0  0  0  0  0  0
  143.6288  142.4935  155.3645 O   0  0  0  0  0  0  0  0  0  0  0  0
  145.2132  145.4122  156.0785 H   0  0  0  0  0  0  0  0  0  0  0  0
  145.1895  144.0245  157.1518 H   0  0  0  0  0  0  0  0  0  0  0  0
  143.6821  144.8263  156.7149 H   0  0  0  0  0  0  0  0  0  0  0  0
  144.0076  144.1926  154.3368 H   0  0  0  0  0  0  0  0  0  0  0  0
  145.6795  142.6819  153.5401 H   0  0  0  0  0  0  0  0  0  0  0  0
  146.5246  143.9405  154.4183 H   0  0  0  0  0  0  0  0  0  0  0  0
  147.6393  140.6833  154.3611 H   0  0  0  0  0  0  0  0  0  0  0  0
  148.1614  142.3398  154.1995 H   0  0  0  0  0  0  0  0  0  0  0  0
  148.6882  140.4722  156.5219 H   0  0  0  0  0  0  0  0  0  0  0  0
  148.9173  143.2502  156.7565 H   0  0  0  0  0  0  0  0  0  0  0  0
  150.4527  140.9938  154.7175 H   0  0  0  0  0  0  0  0  0  0  0  0
  150.4494  142.6372  155.2933 H   0  0  0  0  0  0  0  0  0  0  0  0
  152.5875  138.2297  156.1128 H   0  0  0  0  0  0  0  0  0  0  0  0
  150.8615  138.4789  155.9813 H   0  0  0  0  0  0  0  0  0  0  0  0
  152.1825  138.5801  154.0027 H   0  0  0  0  0  0  0  0  0  0  0  0
  153.8025  141.3424  160.1992 H   0  0  0  0  0  0  0  0  0  0  0  0
  153.1649  143.6381  160.9000 H   0  0  0  0  0  0  0  0  0  0  0  0
  151.5271  144.9500  159.5677 H   0  0  0  0  0  0  0  0  0  0  0  0
  150.5128  143.9651  157.5168 H   0  0  0  0  0  0  0  0  0  0  0  0
  145.2819  140.4544  154.6677 H   0  0  0  0  0  0  0  0  0  0  0  0
  145.9019  140.2049  156.2869 H   0  0  0  0  0  0  0  0  0  0  0  0
  144.3669  141.9149  157.2062 H   0  0  0  0  0  0  0  0  0  0  0  0
  143.4748  139.5981  157.0434 H   0  0  0  0  0  0  0  0  0  0  0  0
  142.8698  139.9345  155.4222 H   0  0  0  0  0  0  0  0  0  0  0  0
  142.1977  140.7876  156.8095 H   0  0  0  0  0  0  0  0  0  0  0  0
  146.6002  142.4979  156.3013 H   0  0  0  0  0  0  0  0  0  0  0  0
  1  2  1  0  0  0  0
  1 24  1  0  0  0  0
  1 25  1  0  0  0  0
  1 26  1  0  0  0  0
  2 23  1  0  0  0  0
  2  3  1  0  0  0  0
  2 27  1  0  0  0  0
  3  4  1  0  0  0  0
  3 28  1  0  0  0  0
  3 29  1  0  0  0  0
  4  5  1  0  0  0  0
  4 20  1  0  0  0  0
  4 49  1  0  0  0  0
  5  6  1  0  0  0  0
  5 30  1  0  0  0  0
  5 31  1  0  0  0  0
  6  7  1  0  0  0  0
  6  8  1  0  0  0  0
  6 32  1  0  0  0  0
  7 33  1  0  0  0  0
  8  9  1  0  0  0  0
  8 34  1  0  0  0  0
  8 35  1  0  0  0  0
  9 19  1  0  0  0  0
  9 10  1  0  0  0  0
 10 11  1  0  0  0  0
 10 13  2  0  0  0  0
 11 12  1  0  0  0  0
 11 36  1  0  0  0  0
 11 37  1  0  0  0  0
 12 38  1  0  0  0  0
 13 14  1  0  0  0  0
 14 19  2  0  0  0  0
 14 15  1  0  0  0  0
 15 16  2  0  0  0  0
 15 39  1  0  0  0  0
 16 17  1  0  0  0  0
 16 40  1  0  0  0  0
 17 18  2  0  0  0  0
 17 41  1  0  0  0  0
 18 19  1  0  0  0  0
 18 42  1  0  0  0  0
 20 21  1  0  0  0  0
 20 43  1  0  0  0  0
 20 44  1  0  0  0  0
 21 22  1  0  0  0  0
 21 23  1  0  0  0  0
 21 45  1  0  0  0  0
 22 46  1  0  0  0  0
 22 47  1  0  0  0  0
 22 48  1  0  0  0  0
M  CHG  1   4   1
M  END
> <s_m_source_file>
AV-unprocessed.smi

> <i_m_source_file_index>
1703

> <i_lp_mmshare_version>
43012

> <i_f3d_flags>
0

> <s_epik_input>
W0NIM11bQ0BASF0xW0NIMl1OKFtDSDJdW0NASF0oTzEpW0NIM10pW0NIMl1bQ0BIXShbT0hdKVtDSDJdbihjKG4yKVtDSDJdW09IXSljKGMyMylbY0hdW2NIXVtjSF1bY0hdMw==

> <s_epik_cmdline>
J2VwaWtfcHl0aG9uJywgJy1waCcsICc3LjAnLCAnLXRuJywgJzgnLCAnLW1hJywgJzIwMCcsICctbWV0YWxfYmluZGluZycsICctaW1hZScsICc8aW5maWxlLm1hZT4nLCAnLW9tYWUnLCAnPG91dGZpbGUubWFlPic=

> <r_epik_Ionization_Penalty>
0.655661

> <r_epik_Ionization_Penalty_Charging>
0.608065

> <r_epik_Ionization_Penalty_Neutral>
0.0475963

> <r_epik_State_Penalty>
0.695267

> <r_epik_Charging_Adjusted_Penalty>
1.30333

> <i_epik_Tot_Q>
1

> <i_epik_Tot_abs_Q>
1

> <r_epik_Metal_State_Penalty>
0.653591

> <b_epik_Metal_Only>
0

> <s_lp_Force_Field>
OPLS_2005

> <r_lp_Energy>
25.3139

> <b_lp_Chiralities_Consistent>
1

> <s_lp_Variant>
AV-unprocessed.smi:1703-12

> <Gold.Version>
5.8.1

> <Gold.Id.Protein>
6NUR|6NUR_protein|mol2

> <Gold.PLP.Fitness>
46.8820

> <Gold.PLP.PLP>
-40.8326

> <Gold.PLP.part.hbond>
-3.0000

> <Gold.PLP.part.metal>
0.0000

> <Gold.PLP.part.buried>
-5.2071

> <Gold.PLP.part.nonpolar>
-31.8663

> <Gold.PLP.part.repulsive>
0.1880

> <Gold.PLP.ligand.clash>
0.0000

> <Gold.PLP.ligand.torsion>
1.2138

> <Gold.PLP.Chemscore.Hbond>
2.7859

> <Gold.PLP.Chemscore.CHOScore>
0.0000

> <Gold.PLP.Chemscore.Metal>
0.0000

> <Gold.Chemscore.Hbonds>
donor molecule, donor type, donor heavy atom, donor atom, acceptor molecule, acceptor atom, score
      L1  H     7    33       P1  8028  1.00
      P1  H  7989  7998       L1    12  0.90
      P1  H  7997  8010       L1    13  1.00

> <Gold.PLP.Chemscore.Internal.Correction>
0.1194

> <Gold.Rescore>
     Score         DG    S(hbond)    S(metal)    S(lipo)     H(rot)  DE(clash)    DE(int)     intcor
     15.64     -16.95       2.04        0.00     104.67       2.96       0.13       1.19       ----

> <Gold.Chemscore.Fitness>
15.6377

> <Gold.Chemscore.DG>
-16.9517

> <Gold.Chemscore.ZeroCoef>
-5.4800

> <Gold.Chemscore.Hbond>
2.0376

> <Gold.Chemscore.Metal>
0.0000

> <Gold.Chemscore.Lipo>
104.6717

> <Gold.Chemscore.Internal_Hbond>
0.0000

> <Gold.Chemscore.DEClash>
0.1280

> <Gold.Chemscore.DEInternal>
1.1860

> <Gold.Chemscore.Rot>
2.9611

> <Gold.Chemscore.Internal.Correction>
   9.000000E+99

> <Gold.Chemscore.Hbonds>
donor molecule, donor type, donor heavy atom, donor atom, acceptor molecule, acceptor atom, score
      L1  H     7    33       P1  8028  0.83
      P1  H  7989  7998       L1    12  0.75
      P1  H  7997  8010       L1    13  0.16

> <Gold.Chemscore.Hbond.Weighted>
-6.8055

> <Gold.Chemscore.Metal.Weighted>
-0.0000

> <Gold.Chemscore.Lipo.Weighted>
-12.2466

> <Gold.Chemscore.Internal_Hbond.Weighted>
0.0000

> <Gold.Chemscore.DEClash.Weighted>
0.1280

> <Gold.Chemscore.DEInternal.Weighted>
1.1860

> <Gold.Chemscore.Rot.Weighted>
7.5803

> <Gold.Chemscore.Internal.Correction.Weighted>
   9.000000E+99

> <Gold.Protein.RotatedTorsions>
[ 6907 6896 6895 6894 ] final   17.99 input  -60.11 | X-H torsion
[ 7974 7965 7964 7962 ] final   74.25 input  175.53 | X-H torsion
[ 8008 7997 7996 7995 ] final   38.75 input   59.86 | X-H torsion
[ 10167 10162 10161 10158 ] final   56.00 input  -65.29 | X-H torsion
[ 10718 10713 10712 10709 ] final  137.35 input   66.30 | X-H torsion
[ 10763 10752 10751 10750 ] final   57.55 input  -60.55 | X-H torsion
[ 11005 11000 10999 10996 ] final  -31.91 input  -57.11 | X-H torsion

> <Gold.Protein.ActiveResidues>
 VAL166  LYS551  ARG553  GLY616  TRP617  ASP618  TYR619  PRO620  LYS621  CYS622 
 ASP623  PHE694  ASN695  SER759  ASP760  ASP761  ALA762  ILE779  LEU786  VAL792 
 PHE793  MET794  SER795  GLU796  ALA797  LYS798  CYS799  TRP800  GLU811  SER814 

> <Gold.Protein.RotatedAtoms>
  151.8583  135.0533  160.0466 H   0  0  0  0  0  0  0  0  0  0  0  0  # atno 6907 bound_to 6896
  152.2683  133.5354  159.5432 H   0  0  0  0  0  0  0  0  0  0  0  0  # atno 6908 bound_to 6896
  150.7142  134.0650  159.3887 H   0  0  0  0  0  0  0  0  0  0  0  0  # atno 6909 bound_to 6896
  145.7306  139.2682  143.1543 H   0  0  0  0  0  0  0  0  0  0  0  0  # atno 7974 bound_to 7965
  155.2252  140.3334  155.4310 H   0  0  0  0  0  0  0  0  0  0  0  0  # atno 8008 bound_to 7997
  156.2317  140.1853  156.7272 H   0  0  0  0  0  0  0  0  0  0  0  0  # atno 8009 bound_to 7997
  154.5989  140.0626  156.9327 H   0  0  0  0  0  0  0  0  0  0  0  0  # atno 8010 bound_to 7997
  140.2135  144.3864  150.6479 H   0  0  0  0  0  0  0  0  0  0  0  0  # atno 10167 bound_to 10162
  157.4370  131.1054  151.0187 H   0  0  0  0  0  0  0  0  0  0  0  0  # atno 10718 bound_to 10713
  152.9852  135.5637  154.5409 H   0  0  0  0  0  0  0  0  0  0  0  0  # atno 10763 bound_to 10752
  154.4864  135.2791  155.1533 H   0  0  0  0  0  0  0  0  0  0  0  0  # atno 10764 bound_to 10752
  154.3021  135.6305  153.5482 H   0  0  0  0  0  0  0  0  0  0  0  0  # atno 10765 bound_to 10752
  140.9508  133.7222  156.1217 H   0  0  0  0  0  0  0  0  0  0  0  0  # atno 11005 bound_to 11000
  146.0541  140.8039  142.9767 LP  0  0  0  0  0  0  0  0  0  0  0  0  # atno 17320 bound_to 7965
  144.6894  140.3096  143.7250 LP  0  0  0  0  0  0  0  0  0  0  0  0  # atno 17321 bound_to 7965
  140.6307  143.2187  151.6502 LP  0  0  0  0  0  0  0  0  0  0  0  0  # atno 17342 bound_to 10162
  139.5171  144.3326  152.0812 LP  0  0  0  0  0  0  0  0  0  0  0  0  # atno 17343 bound_to 10162
  157.1063  130.6003  149.5471 LP  0  0  0  0  0  0  0  0  0  0  0  0  # atno 17370 bound_to 10713
  155.9934  130.4995  150.7379 LP  0  0  0  0  0  0  0  0  0  0  0  0  # atno 17371 bound_to 10713
  140.7605  134.3944  157.5526 LP  0  0  0  0  0  0  0  0  0  0  0  0  # atno 17394 bound_to 11000
  139.8847  134.8958  156.2688 LP  0  0  0  0  0  0  0  0  0  0  0  0  # atno 17395 bound_to 11000

$$$$
