AV-unprocessed.smi:1449|AV-procd|sdf|5895|dock4
  -GOLD-   22720 5583D 1   1.00000     0.00000
 Structure written by MMmdl.
 34 35  0  0  0  0  0  0  0  0  1 V2000
  145.8167  128.6596  152.4571 C   0  0  0  0  0  0  0  0  0  0  0  0
  146.8666  128.8346  153.4018 O   0  0  0  0  0  0  0  0  0  0  0  0
  147.4044  130.0957  153.5581 C   0  0  0  0  0  0  0  0  0  0  0  0
  148.4691  130.2666  154.4646 C   0  0  0  0  0  0  0  0  0  0  0  0
  149.0254  131.5496  154.6296 C   0  0  0  0  0  0  0  0  0  0  0  0
  148.4902  132.6280  153.8852 C   0  0  0  0  0  0  0  0  0  0  0  0
  148.9711  133.9640  153.9444 N   0  0  0  0  0  0  0  0  0  0  0  0
  149.6336  134.5833  154.9414 C   0  0  0  0  0  0  0  0  0  0  0  0
  149.9001  134.0758  156.0283 O   0  0  0  0  0  0  0  0  0  0  0  0
  149.9722  135.8568  154.6709 N   0  0  0  0  0  0  0  0  0  0  0  0
  150.6895  136.8069  155.5225 C   0  0  2  0  0  0  0  0  0  0  0  0
  149.7063  137.6421  156.3640 C   0  0  0  0  0  0  0  0  0  0  0  0
  150.4574  138.8421  156.9541 C   0  0  0  0  0  0  0  0  0  0  0  0
  151.7720  139.2621  155.7478 S   0  0  0  0  0  0  0  0  0  0  0  0
  151.3812  140.4584  154.9871 O   0  0  0  0  0  0  0  0  0  0  0  0
  153.0773  139.1850  156.4210 O   0  0  0  0  0  0  0  0  0  0  0  0
  151.5431  137.7809  154.6942 C   0  0  0  0  0  0  0  0  0  0  0  0
  147.4319  132.3489  152.9961 C   0  0  0  0  0  0  0  0  0  0  0  0
  146.8945  131.1217  152.8328 N   0  0  0  0  0  0  0  0  0  0  0  0
  145.5058  127.6150  152.4542 H   0  0  0  0  0  0  0  0  0  0  0  0
  146.1421  128.9102  151.4465 H   0  0  0  0  0  0  0  0  0  0  0  0
  144.9449  129.2632  152.7135 H   0  0  0  0  0  0  0  0  0  0  0  0
  148.8571  129.4264  155.0213 H   0  0  0  0  0  0  0  0  0  0  0  0
  149.8538  131.6719  155.3092 H   0  0  0  0  0  0  0  0  0  0  0  0
  148.7505  134.5356  153.1421 H   0  0  0  0  0  0  0  0  0  0  0  0
  149.6749  136.2142  153.7743 H   0  0  0  0  0  0  0  0  0  0  0  0
  151.3383  136.2721  156.2185 H   0  0  0  0  0  0  0  0  0  0  0  0
  148.9094  138.0154  155.7191 H   0  0  0  0  0  0  0  0  0  0  0  0
  149.2307  137.0459  157.1433 H   0  0  0  0  0  0  0  0  0  0  0  0
  149.8129  139.7042  157.1263 H   0  0  0  0  0  0  0  0  0  0  0  0
  150.9384  138.5733  157.8949 H   0  0  0  0  0  0  0  0  0  0  0  0
  152.5120  137.3706  154.4087 H   0  0  0  0  0  0  0  0  0  0  0  0
  151.0188  138.0948  153.7909 H   0  0  0  0  0  0  0  0  0  0  0  0
  146.9986  133.1361  152.3962 H   0  0  0  0  0  0  0  0  0  0  0  0
  1  2  1  0  0  0  0
  1 20  1  0  0  0  0
  1 21  1  0  0  0  0
  1 22  1  0  0  0  0
  2  3  1  0  0  0  0
  3 19  1  0  0  0  0
  3  4  2  0  0  0  0
  4  5  1  0  0  0  0
  4 23  1  0  0  0  0
  5  6  2  0  0  0  0
  5 24  1  0  0  0  0
  6  7  1  0  0  0  0
  6 18  1  0  0  0  0
  7  8  1  0  0  0  0
  7 25  1  0  0  0  0
  8  9  2  0  0  0  0
  8 10  1  0  0  0  0
 10 11  1  0  0  0  0
 10 26  1  0  0  0  0
 11 17  1  0  0  0  0
 11 12  1  0  0  0  0
 11 27  1  0  0  0  0
 12 13  1  0  0  0  0
 12 28  1  0  0  0  0
 12 29  1  0  0  0  0
 13 14  1  0  0  0  0
 13 30  1  0  0  0  0
 13 31  1  0  0  0  0
 14 15  2  0  0  0  0
 14 16  2  0  0  0  0
 14 17  1  0  0  0  0
 17 32  1  0  0  0  0
 17 33  1  0  0  0  0
 18 19  2  0  0  0  0
 18 34  1  0  0  0  0
M  END
> <s_m_source_file>
AV-unprocessed.smi

> <i_m_source_file_index>
1449

> <i_lp_mmshare_version>
43012

> <i_f3d_flags>
0

> <s_epik_input>
W0NIM11PYzFbY0hdW2NIXWMoW2NIXW4xKVtOSF1DKD1PKVtOSF1bQ0BASF0oW0NIMl0yKVtDSDJdW0NIMl1TMig9Tyk9Tw==

> <s_epik_cmdline>
J2VwaWtfcHl0aG9uJywgJy1waCcsICc3LjAnLCAnLXRuJywgJzgnLCAnLW1hJywgJzIwMCcsICctbWV0YWxfYmluZGluZycsICctaW1hZScsICc8aW5maWxlLm1hZT4nLCAnLW9tYWUnLCAnPG91dGZpbGUubWFlPic=

> <r_lp_tautomer_probability>
1

> <r_epik_Ionization_Penalty>
7.6506e-05

> <r_epik_Ionization_Penalty_Charging>
0

> <r_epik_Ionization_Penalty_Neutral>
7.6506e-05

> <r_epik_State_Penalty>
-0

> <r_epik_Charging_Adjusted_Penalty>
0

> <i_epik_Tot_Q>
0

> <i_epik_Tot_abs_Q>
0

> <r_epik_Metal_State_Penalty>
-0

> <b_epik_Metal_Only>
0

> <s_lp_Force_Field>
OPLS_2005

> <r_lp_Energy>
18.5668

> <b_lp_Chiralities_Consistent>
1

> <s_lp_Variant>
AV-unprocessed.smi:1449-1

> <Gold.Version>
5.8.1

> <Gold.Id.Protein>
6NUR|6NUR_protein|mol2

> <Gold.PLP.Fitness>
41.1380

> <Gold.PLP.PLP>
-30.3936

> <Gold.PLP.part.hbond>
-4.1252

> <Gold.PLP.part.metal>
0.0000

> <Gold.PLP.part.buried>
-4.5365

> <Gold.PLP.part.nonpolar>
-22.8854

> <Gold.PLP.part.repulsive>
0.6579

> <Gold.PLP.ligand.clash>
0.0000

> <Gold.PLP.ligand.torsion>
0.4972

> <Gold.PLP.Chemscore.Hbond>
3.9120

> <Gold.PLP.Chemscore.CHOScore>
0.0000

> <Gold.PLP.Chemscore.Metal>
0.0000

> <Gold.Chemscore.Hbonds>
donor molecule, donor type, donor heavy atom, donor atom, acceptor molecule, acceptor atom, score
      L1  H     7    25       P1  7948  0.72
      L1  H    10    26       P1  7948  1.00
      P1  H  7989  7998       L1    15  0.96
      P1  H  7997  8008       L1    16  1.00

> <Gold.PLP.Chemscore.Internal.Correction>
0.0029

> <Gold.Rescore>
     Score         DG    S(hbond)    S(metal)    S(lipo)     H(rot)  DE(clash)    DE(int)     intcor
     17.01     -18.44       3.09        0.00      51.36       1.31       0.10       1.33       ----

> <Gold.Chemscore.Fitness>
17.0149

> <Gold.Chemscore.DG>
-18.4375

> <Gold.Chemscore.ZeroCoef>
-5.4800

> <Gold.Chemscore.Hbond>
3.0852

> <Gold.Chemscore.Metal>
0.0000

> <Gold.Chemscore.Lipo>
51.3572

> <Gold.Chemscore.Internal_Hbond>
0.0000

> <Gold.Chemscore.DEClash>
0.0970

> <Gold.Chemscore.DEInternal>
1.3256

> <Gold.Chemscore.Rot>
1.3109

> <Gold.Chemscore.Internal.Correction>
   9.000000E+99

> <Gold.Chemscore.Hbonds>
donor molecule, donor type, donor heavy atom, donor atom, acceptor molecule, acceptor atom, score
      L1  H     7    25       P1  7948  0.12
      L1  H    10    26       P1  7948  0.42
      P1  H  7989  7998       L1    15  0.89
      P1  H  7997  8008       L1    16  0.96

> <Gold.Chemscore.Hbond.Weighted>
-10.3046

> <Gold.Chemscore.Metal.Weighted>
-0.0000

> <Gold.Chemscore.Lipo.Weighted>
-6.0088

> <Gold.Chemscore.Internal_Hbond.Weighted>
0.0000

> <Gold.Chemscore.DEClash.Weighted>
0.0970

> <Gold.Chemscore.DEInternal.Weighted>
1.3256

> <Gold.Chemscore.Rot.Weighted>
3.3559

> <Gold.Chemscore.Internal.Correction.Weighted>
   9.000000E+99

> <Gold.Protein.RotatedTorsions>
[ 6907 6896 6895 6894 ] final -109.77 input  -60.11 | X-H torsion
[ 7974 7965 7964 7962 ] final  155.46 input  175.53 | X-H torsion
[ 8008 7997 7996 7995 ] final  -33.12 input   59.86 | X-H torsion
[ 10167 10162 10161 10158 ] final -166.28 input  -65.29 | X-H torsion
[ 10718 10713 10712 10709 ] final   17.44 input   66.30 | X-H torsion
[ 10763 10752 10751 10750 ] final  100.14 input  -60.55 | X-H torsion
[ 11005 11000 10999 10996 ] final -141.93 input  -57.11 | X-H torsion

> <Gold.Protein.ActiveResidues>
 VAL166  LYS551  ARG553  GLY616  TRP617  ASP618  TYR619  PRO620  LYS621  CYS622 
 ASP623  PHE694  ASN695  SER759  ASP760  ASP761  ALA762  ILE779  LEU786  VAL792 
 PHE793  MET794  SER795  GLU796  ALA797  LYS798  CYS799  TRP800  GLU811  SER814 

> <Gold.Protein.RotatedAtoms>
  150.7583  133.9480  159.3476 H   0  0  0  0  0  0  0  0  0  0  0  0  # atno 6907 bound_to 6896
  151.7394  135.0855  160.0322 H   0  0  0  0  0  0  0  0  0  0  0  0  # atno 6908 bound_to 6896
  152.3538  133.6175  159.6000 H   0  0  0  0  0  0  0  0  0  0  0  0  # atno 6909 bound_to 6896
  144.8023  139.7071  143.6176 H   0  0  0  0  0  0  0  0  0  0  0  0  # atno 7974 bound_to 7965
  154.4158  140.1719  156.1837 H   0  0  0  0  0  0  0  0  0  0  0  0  # atno 8008 bound_to 7997
  155.9661  140.3389  155.6509 H   0  0  0  0  0  0  0  0  0  0  0  0  # atno 8009 bound_to 7997
  155.6686  140.0709  157.2519 H   0  0  0  0  0  0  0  0  0  0  0  0  # atno 8010 bound_to 7997
  139.6125  144.0785  152.1856 H   0  0  0  0  0  0  0  0  0  0  0  0  # atno 10167 bound_to 10162
  157.0821  130.6392  149.5829 H   0  0  0  0  0  0  0  0  0  0  0  0  # atno 10718 bound_to 10713
  153.3102  135.4089  155.1329 H   0  0  0  0  0  0  0  0  0  0  0  0  # atno 10763 bound_to 10752
  154.8573  135.3562  154.5734 H   0  0  0  0  0  0  0  0  0  0  0  0  # atno 10764 bound_to 10752
  153.6163  135.7066  153.5386 H   0  0  0  0  0  0  0  0  0  0  0  0  # atno 10765 bound_to 10752
  140.8276  134.2556  157.4872 H   0  0  0  0  0  0  0  0  0  0  0  0  # atno 11005 bound_to 11000
  146.2308  139.5809  142.9557 LP  0  0  0  0  0  0  0  0  0  0  0  0  # atno 17320 bound_to 7965
  145.5522  141.0412  143.2272 LP  0  0  0  0  0  0  0  0  0  0  0  0  # atno 17321 bound_to 7965
  140.0408  144.6009  150.7413 LP  0  0  0  0  0  0  0  0  0  0  0  0  # atno 17342 bound_to 10162
  140.7329  143.2711  151.3887 LP  0  0  0  0  0  0  0  0  0  0  0  0  # atno 17343 bound_to 10162
  155.9920  130.4977  150.7325 LP  0  0  0  0  0  0  0  0  0  0  0  0  # atno 17370 bound_to 10713
  157.4791  131.0900  151.0556 LP  0  0  0  0  0  0  0  0  0  0  0  0  # atno 17371 bound_to 10713
  139.8706  134.9569  156.4251 LP  0  0  0  0  0  0  0  0  0  0  0  0  # atno 17394 bound_to 11000
  140.9033  133.7764  155.9705 LP  0  0  0  0  0  0  0  0  0  0  0  0  # atno 17395 bound_to 11000

$$$$
