AV-unprocessed.smi:2988|AV-procd|sdf|11387|dock2
  -GOLD-   2272016313D 1   1.00000     0.00000
 Structure written by MMmdl.
 37 38  0  0  0  0  0  0  0  0  1 V2000
  151.8461  144.8173  157.8288 C   0  0  0  0  0  0  0  0  0  0  0  0
  151.7477  144.0434  159.1563 C   0  0  2  0  0  0  0  0  0  0  0  0
  152.3789  144.8585  160.3038 C   0  0  0  0  0  0  0  0  0  0  0  0
  152.2847  144.1236  161.6496 C   0  0  0  0  0  0  0  0  0  0  0  0
  152.9272  142.7326  161.5643 C   0  0  0  0  0  0  0  0  0  0  0  0
  152.2969  141.9044  160.4355 C   0  0  0  0  0  0  0  0  0  0  0  0
  152.3849  142.6313  159.0792 C   0  0  1  0  0  0  0  0  0  0  0  0
  151.7253  141.8134  158.0623 N   0  0  0  0  0  0  0  0  0  0  0  0
  152.0224  140.5395  157.7617 C   0  0  0  0  0  0  0  0  0  0  0  0
  152.8929  139.8894  158.3422 O   0  0  0  0  0  0  0  0  0  0  0  0
  151.1963  139.9034  156.6348 C   0  0  0  0  0  0  0  0  0  0  0  0
  150.0217  140.7052  156.2614 N   0  0  0  0  0  0  0  0  0  0  0  0
  149.3015  141.1893  157.3394 N   0  0  0  0  0  0  0  0  0  0  0  0
  148.2408  141.8902  157.1300 C   0  0  0  0  0  0  0  0  0  0  0  0
  147.7713  142.1984  155.7972 C   0  0  0  0  0  0  0  0  0  0  0  0
  146.3410  143.1438  155.5788 Cl  0  0  0  0  0  0  0  0  0  0  0  0
  148.4884  141.7247  154.7474 C   0  0  0  0  0  0  0  0  0  0  0  0
  147.9908  142.0539  153.1232 Cl  0  0  0  0  0  0  0  0  0  0  0  0
  149.7026  140.9218  154.9479 C   0  0  0  0  0  0  0  0  0  0  0  0
  150.3817  140.4755  154.0220 O   0  0  0  0  0  0  0  0  0  0  0  0
  152.8832  144.9236  157.5093 H   0  0  0  0  0  0  0  0  0  0  0  0
  151.4238  145.8177  157.9261 H   0  0  0  0  0  0  0  0  0  0  0  0
  151.3011  144.3166  157.0287 H   0  0  0  0  0  0  0  0  0  0  0  0
  150.6873  143.9240  159.3842 H   0  0  0  0  0  0  0  0  0  0  0  0
  153.4259  145.0634  160.0760 H   0  0  0  0  0  0  0  0  0  0  0  0
  151.8876  145.8287  160.3869 H   0  0  0  0  0  0  0  0  0  0  0  0
  152.7721  144.7106  162.4287 H   0  0  0  0  0  0  0  0  0  0  0  0
  151.2387  144.0276  161.9431 H   0  0  0  0  0  0  0  0  0  0  0  0
  153.9993  142.8335  161.3902 H   0  0  0  0  0  0  0  0  0  0  0  0
  152.8154  142.2115  162.5158 H   0  0  0  0  0  0  0  0  0  0  0  0
  152.7944  140.9355  160.3727 H   0  0  0  0  0  0  0  0  0  0  0  0
  151.2532  141.6995  160.6790 H   0  0  0  0  0  0  0  0  0  0  0  0
  153.4430  142.7466  158.8365 H   0  0  0  0  0  0  0  0  0  0  0  0
  150.9916  142.2607  157.5322 H   0  0  0  0  0  0  0  0  0  0  0  0
  151.8525  139.7649  155.7737 H   0  0  0  0  0  0  0  0  0  0  0  0
  150.8807  138.8998  156.9268 H   0  0  0  0  0  0  0  0  0  0  0  0
  147.6399  142.2891  157.9472 H   0  0  0  0  0  0  0  0  0  0  0  0
  1  2  1  0  0  0  0
  1 21  1  0  0  0  0
  1 22  1  0  0  0  0
  1 23  1  0  0  0  0
  2  7  1  0  0  0  0
  2  3  1  0  0  0  0
  2 24  1  0  0  0  0
  3  4  1  0  0  0  0
  3 25  1  0  0  0  0
  3 26  1  0  0  0  0
  4  5  1  0  0  0  0
  4 27  1  0  0  0  0
  4 28  1  0  0  0  0
  5  6  1  0  0  0  0
  5 29  1  0  0  0  0
  5 30  1  0  0  0  0
  6  7  1  0  0  0  0
  6 31  1  0  0  0  0
  6 32  1  0  0  0  0
  7  8  1  0  0  0  0
  7 33  1  0  0  0  0
  8  9  1  0  0  0  0
  8 34  1  0  0  0  0
  9 10  2  0  0  0  0
  9 11  1  0  0  0  0
 11 12  1  0  0  0  0
 11 35  1  0  0  0  0
 11 36  1  0  0  0  0
 12 19  1  0  0  0  0
 12 13  1  0  0  0  0
 13 14  2  0  0  0  0
 14 15  1  0  0  0  0
 14 37  1  0  0  0  0
 15 16  1  0  0  0  0
 15 17  2  0  0  0  0
 17 18  1  0  0  0  0
 17 19  1  0  0  0  0
 19 20  2  0  0  0  0
M  END
> <s_m_source_file>
AV-unprocessed.smi

> <i_m_source_file_index>
2988

> <i_lp_mmshare_version>
43012

> <i_f3d_flags>
0

> <s_epik_input>
W0NIM11bQ0BASF0xW0NIMl1bQ0gyXVtDSDJdW0NIMl1bQ0BIXTFbTkhdQyg9TylbQ0gyXW4ybltjSF1jKENsKWMoQ2wpYzI9Tw==

> <s_epik_cmdline>
J2VwaWtfcHl0aG9uJywgJy1waCcsICc3LjAnLCAnLXRuJywgJzgnLCAnLW1hJywgJzIwMCcsICctbWV0YWxfYmluZGluZycsICctaW1hZScsICc8aW5maWxlLm1hZT4nLCAnLW9tYWUnLCAnPG91dGZpbGUubWFlPic=

> <r_lp_tautomer_probability>
1

> <r_epik_Ionization_Penalty>
1.90782e-08

> <r_epik_Ionization_Penalty_Charging>
3.13143e-11

> <r_epik_Ionization_Penalty_Neutral>
1.90469e-08

> <r_epik_State_Penalty>
-0

> <r_epik_Charging_Adjusted_Penalty>
3.13143e-11

> <i_epik_Tot_Q>
0

> <i_epik_Tot_abs_Q>
0

> <r_epik_Metal_State_Penalty>
-0

> <b_epik_Metal_Only>
0

> <s_lp_Force_Field>
OPLS_2005

> <r_lp_Energy>
24.1537

> <b_lp_Chiralities_Consistent>
1

> <s_lp_Variant>
AV-unprocessed.smi:2988-1

> <Gold.Version>
5.8.1

> <Gold.Id.Protein>
6NUR|6NUR_protein|mol2

> <Gold.PLP.Fitness>
46.7444

> <Gold.PLP.PLP>
-41.4442

> <Gold.PLP.part.hbond>
-2.0000

> <Gold.PLP.part.metal>
0.0000

> <Gold.PLP.part.buried>
-6.6320

> <Gold.PLP.part.nonpolar>
-33.1034

> <Gold.PLP.part.repulsive>
0.6769

> <Gold.PLP.ligand.clash>
0.0000

> <Gold.PLP.ligand.torsion>
0.3402

> <Gold.PLP.Chemscore.Hbond>
1.9920

> <Gold.PLP.Chemscore.CHOScore>
0.0000

> <Gold.PLP.Chemscore.Metal>
0.0000

> <Gold.Chemscore.Hbonds>
donor molecule, donor type, donor heavy atom, donor atom, acceptor molecule, acceptor atom, score
      P1  H  7989  7998       L1    20  0.56
      P1  H  7997  8008       L1    10  0.70

> <Gold.PLP.Chemscore.Internal.Correction>
0.0047

> <Gold.Rescore>
     Score         DG    S(hbond)    S(metal)    S(lipo)     H(rot)  DE(clash)    DE(int)     intcor
     18.15     -19.98       1.80        0.00     105.38       1.50       0.16       1.67       ----

> <Gold.Chemscore.Fitness>
18.1499

> <Gold.Chemscore.DG>
-19.9751

> <Gold.Chemscore.ZeroCoef>
-5.4800

> <Gold.Chemscore.Hbond>
1.7964

> <Gold.Chemscore.Metal>
0.0000

> <Gold.Chemscore.Lipo>
105.3772

> <Gold.Chemscore.Internal_Hbond>
0.0000

> <Gold.Chemscore.DEClash>
0.1600

> <Gold.Chemscore.DEInternal>
1.6652

> <Gold.Chemscore.Rot>
1.4977

> <Gold.Chemscore.Internal.Correction>
   9.000000E+99

> <Gold.Chemscore.Hbonds>
donor molecule, donor type, donor heavy atom, donor atom, acceptor molecule, acceptor atom, score
      P1  H  7989  7998       L1    20  0.57
      P1  H  7997  8008       L1    10  0.24

> <Gold.Chemscore.Hbond.Weighted>
-6.0000

> <Gold.Chemscore.Metal.Weighted>
-0.0000

> <Gold.Chemscore.Lipo.Weighted>
-12.3291

> <Gold.Chemscore.Internal_Hbond.Weighted>
0.0000

> <Gold.Chemscore.DEClash.Weighted>
0.1600

> <Gold.Chemscore.DEInternal.Weighted>
1.6652

> <Gold.Chemscore.Rot.Weighted>
3.8341

> <Gold.Chemscore.Internal.Correction.Weighted>
   9.000000E+99

> <Gold.Protein.RotatedTorsions>
[ 6907 6896 6895 6894 ] final -117.72 input  -60.11 | X-H torsion
[ 7974 7965 7964 7962 ] final  -63.95 input  175.53 | X-H torsion
[ 8008 7997 7996 7995 ] final  -83.13 input   59.86 | X-H torsion
[ 10167 10162 10161 10158 ] final  -48.04 input  -65.29 | X-H torsion
[ 10718 10713 10712 10709 ] final   -1.25 input   66.30 | X-H torsion
[ 10763 10752 10751 10750 ] final   56.99 input  -60.55 | X-H torsion
[ 11005 11000 10999 10996 ] final   74.70 input  -57.11 | X-H torsion

> <Gold.Protein.ActiveResidues>
 VAL166  LYS551  ARG553  GLY616  TRP617  ASP618  TYR619  PRO620  LYS621  CYS622 
 ASP623  PHE694  ASN695  SER759  ASP760  ASP761  ALA762  ILE779  LEU786  VAL792 
 PHE793  MET794  SER795  GLU796  ALA797  LYS798  CYS799  TRP800  GLU811  SER814 

> <Gold.Protein.RotatedAtoms>
  150.8160  133.8337  159.3160 H   0  0  0  0  0  0  0  0  0  0  0  0  # atno 6907 bound_to 6896
  151.6109  135.1038  160.0090 H   0  0  0  0  0  0  0  0  0  0  0  0  # atno 6908 bound_to 6896
  152.4251  133.7140  159.6552 H   0  0  0  0  0  0  0  0  0  0  0  0  # atno 6909 bound_to 6896
  145.7728  140.8804  143.0371 H   0  0  0  0  0  0  0  0  0  0  0  0  # atno 7974 bound_to 7965
  154.6158  140.0623  156.9552 H   0  0  0  0  0  0  0  0  0  0  0  0  # atno 8008 bound_to 7997
  155.1898  140.3306  155.4342 H   0  0  0  0  0  0  0  0  0  0  0  0  # atno 8009 bound_to 7997
  156.2403  140.1883  156.6989 H   0  0  0  0  0  0  0  0  0  0  0  0  # atno 8010 bound_to 7997
  140.6748  143.2757  151.4014 H   0  0  0  0  0  0  0  0  0  0  0  0  # atno 10167 bound_to 10162
  156.8085  130.5416  149.5712 H   0  0  0  0  0  0  0  0  0  0  0  0  # atno 10718 bound_to 10713
  152.9842  135.5657  154.5319 H   0  0  0  0  0  0  0  0  0  0  0  0  # atno 10763 bound_to 10752
  154.4789  135.2788  155.1588 H   0  0  0  0  0  0  0  0  0  0  0  0  # atno 10764 bound_to 10752
  154.3105  135.6289  153.5517 H   0  0  0  0  0  0  0  0  0  0  0  0  # atno 10765 bound_to 10752
  139.9379  134.7455  156.1179 H   0  0  0  0  0  0  0  0  0  0  0  0  # atno 11005 bound_to 11000
  144.6810  139.9879  143.7484 LP  0  0  0  0  0  0  0  0  0  0  0  0  # atno 17320 bound_to 7965
  146.0153  139.3204  143.0846 LP  0  0  0  0  0  0  0  0  0  0  0  0  # atno 17321 bound_to 7965
  139.6035  144.1246  152.2224 LP  0  0  0  0  0  0  0  0  0  0  0  0  # atno 17342 bound_to 10162
  140.0637  144.5835  150.7243 LP  0  0  0  0  0  0  0  0  0  0  0  0  # atno 17343 bound_to 10162
  156.1059  130.6004  150.9969 LP  0  0  0  0  0  0  0  0  0  0  0  0  # atno 17370 bound_to 10713
  157.6518  131.0896  150.8034 LP  0  0  0  0  0  0  0  0  0  0  0  0  # atno 17371 bound_to 10713
  141.1000  133.6681  156.2733 LP  0  0  0  0  0  0  0  0  0  0  0  0  # atno 17394 bound_to 11000
  140.6029  134.5537  157.5520 LP  0  0  0  0  0  0  0  0  0  0  0  0  # atno 17395 bound_to 11000

$$$$
