AV-unprocessed.smi:2805|AV-procd|sdf|10814|dock7
  -GOLD-   2272015253D 1   1.00000     0.00000
 Structure written by MMmdl.
 43 44  0  0  0  0  0  0  0  0  1 V2000
  145.5197  132.1248  149.4259 C   0  0  0  0  0  0  0  0  0  0  0  0
  145.0661  133.0356  150.5471 C   0  0  0  0  0  0  0  0  0  0  0  0
  143.7394  132.9944  151.0163 C   0  0  0  0  0  0  0  0  0  0  0  0
  143.3776  133.8639  152.0641 C   0  0  0  0  0  0  0  0  0  0  0  0
  141.9684  133.8725  152.6184 C   0  0  0  0  0  0  0  0  0  0  0  0
  144.2428  134.7288  152.6356 N   0  0  0  0  0  0  0  0  0  0  0  0
  145.5233  134.7765  152.1921 C   0  0  0  0  0  0  0  0  0  0  0  0
  146.5095  135.6489  152.7235 N   0  0  0  0  0  0  0  0  0  0  0  0
  146.4595  136.3666  153.8592 C   0  0  0  0  0  0  0  0  0  0  0  0
  145.5129  136.3925  154.6465 O   0  0  0  0  0  0  0  0  0  0  0  0
  147.5909  137.0632  154.0392 N   0  0  0  0  0  0  0  0  0  0  0  0
  147.8830  137.9303  155.1795 C   0  0  1  0  0  0  0  0  0  0  0  0
  148.8832  137.2684  156.1504 C   0  0  0  0  0  0  0  0  0  0  0  0
  150.2924  137.1525  155.5435 C   0  0  0  0  0  0  0  0  0  0  0  0
  150.8282  138.5218  155.0735 C   0  0  1  0  0  0  0  0  0  0  0  0
  152.2289  138.4090  154.4442 C   0  0  0  0  0  0  0  0  0  0  0  0
  152.3617  137.1998  153.7273 O   0  0  0  0  0  0  0  0  0  0  0  0
  149.8347  139.1695  154.0882 C   0  0  0  0  0  0  0  0  0  0  0  0
  148.4223  139.2870  154.6893 C   0  0  0  0  0  0  0  0  0  0  0  0
  145.9682  133.9383  151.1453 C   0  0  0  0  0  0  0  0  0  0  0  0
  146.9480  138.1137  155.7122 H   0  0  0  0  0  0  0  0  0  0  0  0
  150.9019  139.1760  155.9438 H   0  0  0  0  0  0  0  0  0  0  0  0
  144.6718  131.7829  148.8315 H   0  0  0  0  0  0  0  0  0  0  0  0
  146.0282  131.2514  149.8341 H   0  0  0  0  0  0  0  0  0  0  0  0
  146.2098  132.6463  148.7622 H   0  0  0  0  0  0  0  0  0  0  0  0
  143.0189  132.3145  150.5854 H   0  0  0  0  0  0  0  0  0  0  0  0
  141.3032  133.2521  152.0172 H   0  0  0  0  0  0  0  0  0  0  0  0
  141.5690  134.8871  152.6284 H   0  0  0  0  0  0  0  0  0  0  0  0
  141.9623  133.4901  153.6395 H   0  0  0  0  0  0  0  0  0  0  0  0
  147.3545  135.7310  152.1782 H   0  0  0  0  0  0  0  0  0  0  0  0
  148.3128  136.9824  153.3384 H   0  0  0  0  0  0  0  0  0  0  0  0
  148.9389  137.8625  157.0634 H   0  0  0  0  0  0  0  0  0  0  0  0
  148.5269  136.2840  156.4562 H   0  0  0  0  0  0  0  0  0  0  0  0
  150.9645  136.7203  156.2852 H   0  0  0  0  0  0  0  0  0  0  0  0
  150.2745  136.4545  154.7054 H   0  0  0  0  0  0  0  0  0  0  0  0
  152.4244  139.2484  153.7762 H   0  0  0  0  0  0  0  0  0  0  0  0
  152.9967  138.4288  155.2184 H   0  0  0  0  0  0  0  0  0  0  0  0
  151.8105  137.2420  152.9609 H   0  0  0  0  0  0  0  0  0  0  0  0
  150.1881  140.1611  153.8039 H   0  0  0  0  0  0  0  0  0  0  0  0
  149.7943  138.5852  153.1681 H   0  0  0  0  0  0  0  0  0  0  0  0
  147.7400  139.7222  153.9582 H   0  0  0  0  0  0  0  0  0  0  0  0
  148.4503  139.9837  155.5280 H   0  0  0  0  0  0  0  0  0  0  0  0
  146.9919  133.9853  150.8025 H   0  0  0  0  0  0  0  0  0  0  0  0
  1  2  1  0  0  0  0
  1 23  1  0  0  0  0
  1 24  1  0  0  0  0
  1 25  1  0  0  0  0
  2 20  1  0  0  0  0
  2  3  2  0  0  0  0
  3  4  1  0  0  0  0
  3 26  1  0  0  0  0
  4  5  1  0  0  0  0
  4  6  2  0  0  0  0
  5 27  1  0  0  0  0
  5 28  1  0  0  0  0
  5 29  1  0  0  0  0
  6  7  1  0  0  0  0
  7  8  1  0  0  0  0
  7 20  2  0  0  0  0
  8  9  1  0  0  0  0
  8 30  1  0  0  0  0
  9 10  2  0  0  0  0
  9 11  1  0  0  0  0
 11 12  1  0  0  0  0
 11 31  1  0  0  0  0
 12 21  1  0  0  0  0
 12 19  1  0  0  0  0
 12 13  1  0  0  0  0
 13 14  1  0  0  0  0
 13 32  1  0  0  0  0
 13 33  1  0  0  0  0
 14 15  1  0  0  0  0
 14 34  1  0  0  0  0
 14 35  1  0  0  0  0
 15 22  1  0  0  0  0
 15 16  1  0  0  0  0
 15 18  1  0  0  0  0
 16 17  1  0  0  0  0
 16 36  1  0  0  0  0
 16 37  1  0  0  0  0
 17 38  1  0  0  0  0
 18 19  1  0  0  0  0
 18 39  1  0  0  0  0
 18 40  1  0  0  0  0
 19 41  1  0  0  0  0
 19 42  1  0  0  0  0
 20 43  1  0  0  0  0
M  END
> <s_m_source_file>
AV-unprocessed.smi

> <i_m_source_file_index>
2805

> <i_lp_mmshare_version>
43012

> <i_f3d_flags>
0

> <s_epik_input>
W0NIM11jMVtjSF1jKFtDSDNdKW5jKFtjSF0xKVtOSF1DKD1PKVtOSF1bQ0BIXTJbQ0gyXVtDSDJdW0NASF0oW0NIMl1bT0hdKVtDSDJdW0NIMl0y

> <s_epik_cmdline>
J2VwaWtfcHl0aG9uJywgJy1waCcsICc3LjAnLCAnLXRuJywgJzgnLCAnLW1hJywgJzIwMCcsICctbWV0YWxfYmluZGluZycsICctaW1hZScsICc8aW5maWxlLm1hZT4nLCAnLW9tYWUnLCAnPG91dGZpbGUubWFlPic=

> <r_lp_tautomer_probability>
1

> <r_epik_Ionization_Penalty>
0.000279533

> <r_epik_Ionization_Penalty_Charging>
0

> <r_epik_Ionization_Penalty_Neutral>
0.000279533

> <r_epik_State_Penalty>
-0

> <r_epik_Charging_Adjusted_Penalty>
0

> <i_epik_Tot_Q>
0

> <i_epik_Tot_abs_Q>
0

> <r_epik_Metal_State_Penalty>
-0

> <b_epik_Metal_Only>
0

> <s_lp_Force_Field>
OPLS_2005

> <r_lp_Energy>
9.89075

> <b_lp_Chiralities_Consistent>
1

> <s_lp_Variant>
AV-unprocessed.smi:2805-2

> <Gold.Version>
5.8.1

> <Gold.Id.Protein>
6NUR|6NUR_protein|mol2

> <Gold.PLP.Fitness>
42.1277

> <Gold.PLP.PLP>
-31.9144

> <Gold.PLP.part.hbond>
-3.9279

> <Gold.PLP.part.metal>
0.0000

> <Gold.PLP.part.buried>
-2.7722

> <Gold.PLP.part.nonpolar>
-25.2073

> <Gold.PLP.part.repulsive>
0.1198

> <Gold.PLP.ligand.clash>
0.0000

> <Gold.PLP.ligand.torsion>
0.5032

> <Gold.PLP.Chemscore.Hbond>
3.7370

> <Gold.PLP.Chemscore.CHOScore>
0.0000

> <Gold.PLP.Chemscore.Metal>
0.0000

> <Gold.Chemscore.Hbonds>
donor molecule, donor type, donor heavy atom, donor atom, acceptor molecule, acceptor atom, score
      L1  H     8    30       P1  7948  1.00
      L1  H    11    31       P1  7948  1.00
      L1  H    17    38       P1  7949  0.75
      P1  H 10752 10765       L1    17  0.94

> <Gold.PLP.Chemscore.Internal.Correction>
0.0088

> <Gold.Rescore>
     Score         DG    S(hbond)    S(metal)    S(lipo)     H(rot)  DE(clash)    DE(int)     intcor
     20.40     -22.17       3.62        0.00      77.66       1.75       0.06       1.71       ----

> <Gold.Chemscore.Fitness>
20.3991

> <Gold.Chemscore.DG>
-22.1724

> <Gold.Chemscore.ZeroCoef>
-5.4800

> <Gold.Chemscore.Hbond>
3.6222

> <Gold.Chemscore.Metal>
0.0000

> <Gold.Chemscore.Lipo>
77.6627

> <Gold.Chemscore.Internal_Hbond>
0.0000

> <Gold.Chemscore.DEClash>
0.0635

> <Gold.Chemscore.DEInternal>
1.7097

> <Gold.Chemscore.Rot>
1.7548

> <Gold.Chemscore.Internal.Correction>
   9.000000E+99

> <Gold.Chemscore.Hbonds>
donor molecule, donor type, donor heavy atom, donor atom, acceptor molecule, acceptor atom, score
      L1  H     8    30       P1  7948  0.99
      L1  H    11    31       P1  7948  0.95
      L1  H    17    38       P1  7949  0.70
      P1  H 10752 10765       L1    17  0.82

> <Gold.Chemscore.Hbond.Weighted>
-12.0982

> <Gold.Chemscore.Metal.Weighted>
-0.0000

> <Gold.Chemscore.Lipo.Weighted>
-9.0865

> <Gold.Chemscore.Internal_Hbond.Weighted>
0.0000

> <Gold.Chemscore.DEClash.Weighted>
0.0635

> <Gold.Chemscore.DEInternal.Weighted>
1.7097

> <Gold.Chemscore.Rot.Weighted>
4.4924

> <Gold.Chemscore.Internal.Correction.Weighted>
   9.000000E+99

> <Gold.Protein.RotatedTorsions>
[ 6907 6896 6895 6894 ] final -161.25 input  -60.11 | X-H torsion
[ 7974 7965 7964 7962 ] final  -32.28 input  175.53 | X-H torsion
[ 8008 7997 7996 7995 ] final  112.22 input   59.86 | X-H torsion
[ 10167 10162 10161 10158 ] final   41.16 input  -65.29 | X-H torsion
[ 10718 10713 10712 10709 ] final   88.55 input   66.30 | X-H torsion
[ 10763 10752 10751 10750 ] final  144.07 input  -60.55 | X-H torsion
[ 11005 11000 10999 10996 ] final -124.78 input  -57.11 | X-H torsion

> <Gold.Protein.ActiveResidues>
 VAL166  LYS551  ARG553  GLY616  TRP617  ASP618  TYR619  PRO620  LYS621  CYS622 
 ASP623  PHE694  ASN695  SER759  ASP760  ASP761  ALA762  ILE779  LEU786  VAL792 
 PHE793  MET794  SER795  GLU796  ALA797  LYS798  CYS799  TRP800  GLU811  SER814 

> <Gold.Protein.RotatedAtoms>
  151.3617  133.3887  159.2690 H   0  0  0  0  0  0  0  0  0  0  0  0  # atno 6907 bound_to 6896
  150.9720  134.9092  159.7804 H   0  0  0  0  0  0  0  0  0  0  0  0  # atno 6908 bound_to 6896
  152.5188  134.3579  159.9326 H   0  0  0  0  0  0  0  0  0  0  0  0  # atno 6909 bound_to 6896
  146.1002  140.5773  142.8824 H   0  0  0  0  0  0  0  0  0  0  0  0  # atno 7974 bound_to 7965
  156.2177  140.3004  155.9879 H   0  0  0  0  0  0  0  0  0  0  0  0  # atno 8008 bound_to 7997
  155.2562  140.0428  157.3009 H   0  0  0  0  0  0  0  0  0  0  0  0  # atno 8009 bound_to 7997
  154.5793  140.2370  155.8085 H   0  0  0  0  0  0  0  0  0  0  0  0  # atno 8010 bound_to 7997
  140.3670  144.2154  150.6135 H   0  0  0  0  0  0  0  0  0  0  0  0  # atno 10167 bound_to 10162
  157.6950  131.0299  150.3291 H   0  0  0  0  0  0  0  0  0  0  0  0  # atno 10718 bound_to 10713
  153.9829  135.2939  155.3418 H   0  0  0  0  0  0  0  0  0  0  0  0  # atno 10763 bound_to 10752
  154.7259  135.5089  153.8888 H   0  0  0  0  0  0  0  0  0  0  0  0  # atno 10764 bound_to 10752
  153.0846  135.6689  154.0090 H   0  0  0  0  0  0  0  0  0  0  0  0  # atno 10765 bound_to 10752
  140.9814  134.0668  157.3760 H   0  0  0  0  0  0  0  0  0  0  0  0  # atno 11005 bound_to 11000
  144.7427  140.4985  143.6858 LP  0  0  0  0  0  0  0  0  0  0  0  0  # atno 17320 bound_to 7965
  145.5869  139.1493  143.3204 LP  0  0  0  0  0  0  0  0  0  0  0  0  # atno 17321 bound_to 7965
  140.5071  143.2301  151.8592 LP  0  0  0  0  0  0  0  0  0  0  0  0  # atno 17342 bound_to 10162
  139.4808  144.4993  151.9082 LP  0  0  0  0  0  0  0  0  0  0  0  0  # atno 17343 bound_to 10162
  156.3767  130.3873  149.7133 LP  0  0  0  0  0  0  0  0  0  0  0  0  # atno 17370 bound_to 10713
  156.4529  130.7915  151.2936 LP  0  0  0  0  0  0  0  0  0  0  0  0  # atno 17371 bound_to 10713
  139.8952  135.0139  156.6988 LP  0  0  0  0  0  0  0  0  0  0  0  0  # atno 17394 bound_to 11000
  140.7181  133.9165  155.8128 LP  0  0  0  0  0  0  0  0  0  0  0  0  # atno 17395 bound_to 11000

$$$$
