AV-unprocessed.smi:697|AV-procd|sdf|3392|dock3
  -GOLD-   22720 0373D 1   1.00000     0.00000
 Structure written by MMmdl.
 44 45  0  0  0  0  0  0  0  0  1 V2000
  149.4945  141.5169  154.7756 C   0  0  0  0  0  0  0  0  0  0  0  0
  150.4067  140.5265  154.3193 O   0  0  0  0  0  0  0  0  0  0  0  0
  150.6284  139.4177  155.1926 C   0  0  2  0  0  0  0  0  0  0  0  0
  151.3674  139.8844  156.4565 C   0  0  0  0  0  0  0  0  0  0  0  0
  151.1799  138.1890  154.4462 C   0  0  0  0  0  0  0  0  0  0  0  0
  150.1863  137.3599  155.2569 C   0  0  2  0  0  0  0  0  0  0  0  0
  149.6141  136.2588  154.4896 N   0  0  0  0  0  0  0  0  0  0  0  0
  149.0390  135.1770  155.0316 C   0  0  0  0  0  0  0  0  0  0  0  0
  148.9640  134.9926  156.2461 O   0  0  0  0  0  0  0  0  0  0  0  0
  148.5772  134.3503  154.0755 N   0  0  0  0  0  0  0  0  0  0  0  0
  147.8747  133.1395  154.2015 C   0  0  0  0  0  0  0  0  0  0  0  0
  148.4252  131.9020  154.0886 C   0  0  0  0  0  0  0  0  0  0  0  0
  147.6384  130.6902  154.2460 C   0  0  0  0  0  0  0  0  0  0  0  0
  148.2492  129.3132  154.0366 C   0  0  0  0  0  0  0  0  0  0  0  0
  149.5665  129.3906  153.8450 F   0  0  0  0  0  0  0  0  0  0  0  0
  148.0254  128.5267  155.0895 F   0  0  0  0  0  0  0  0  0  0  0  0
  147.7068  128.7357  152.9656 F   0  0  0  0  0  0  0  0  0  0  0  0
  146.3279  130.8543  154.5039 C   0  0  0  0  0  0  0  0  0  0  0  0
  145.7586  132.1219  154.6429 N   0  0  0  0  0  0  0  0  0  0  0  0
  146.4419  133.2806  154.5101 C   0  0  0  0  0  0  0  0  0  0  0  0
  145.8660  134.3596  154.6467 O   0  0  0  0  0  0  0  0  0  0  0  0
  149.2913  138.6226  155.3493 C   0  0  0  0  0  0  0  0  0  0  0  0
  148.5295  138.8055  156.6659 C   0  0  0  0  0  0  0  0  0  0  0  0
  148.2497  138.8194  154.2289 C   0  0  0  0  0  0  0  0  0  0  0  0
  144.7718  132.1617  154.8536 H   0  0  0  0  0  0  0  0  0  0  0  0
  149.4923  142.3494  154.0720 H   0  0  0  0  0  0  0  0  0  0  0  0
  149.7747  141.9122  155.7522 H   0  0  0  0  0  0  0  0  0  0  0  0
  148.4748  141.1369  154.8293 H   0  0  0  0  0  0  0  0  0  0  0  0
  151.4298  139.0950  157.2054 H   0  0  0  0  0  0  0  0  0  0  0  0
  150.8631  140.7332  156.9187 H   0  0  0  0  0  0  0  0  0  0  0  0
  152.3927  140.1840  156.2418 H   0  0  0  0  0  0  0  0  0  0  0  0
  150.9731  138.1972  153.3743 H   0  0  0  0  0  0  0  0  0  0  0  0
  152.2269  137.9623  154.6485 H   0  0  0  0  0  0  0  0  0  0  0  0
  150.6023  137.0578  156.2208 H   0  0  0  0  0  0  0  0  0  0  0  0
  149.6422  136.3366  153.4835 H   0  0  0  0  0  0  0  0  0  0  0  0
  148.7721  134.6198  153.1219 H   0  0  0  0  0  0  0  0  0  0  0  0
  149.4776  131.7748  153.8972 H   0  0  0  0  0  0  0  0  0  0  0  0
  145.6234  130.0434  154.6167 H   0  0  0  0  0  0  0  0  0  0  0  0
  147.6507  138.1618  156.7137 H   0  0  0  0  0  0  0  0  0  0  0  0
  148.1917  139.8346  156.7906 H   0  0  0  0  0  0  0  0  0  0  0  0
  149.1437  138.5574  157.5312 H   0  0  0  0  0  0  0  0  0  0  0  0
  147.4373  138.0956  154.3017 H   0  0  0  0  0  0  0  0  0  0  0  0
  148.6846  138.7104  153.2354 H   0  0  0  0  0  0  0  0  0  0  0  0
  147.8004  139.8120  154.2725 H   0  0  0  0  0  0  0  0  0  0  0  0
  1  2  1  0  0  0  0
  1 26  1  0  0  0  0
  1 27  1  0  0  0  0
  1 28  1  0  0  0  0
  2  3  1  0  0  0  0
  3 22  1  0  0  0  0
  3  4  1  0  0  0  0
  3  5  1  0  0  0  0
  4 29  1  0  0  0  0
  4 30  1  0  0  0  0
  4 31  1  0  0  0  0
  5  6  1  0  0  0  0
  5 32  1  0  0  0  0
  5 33  1  0  0  0  0
  6  7  1  0  0  0  0
  6 22  1  0  0  0  0
  6 34  1  0  0  0  0
  7  8  1  0  0  0  0
  7 35  1  0  0  0  0
  8  9  2  0  0  0  0
  8 10  1  0  0  0  0
 10 11  1  0  0  0  0
 10 36  1  0  0  0  0
 11 20  1  0  0  0  0
 11 12  2  0  0  0  0
 12 13  1  0  0  0  0
 12 37  1  0  0  0  0
 13 14  1  0  0  0  0
 13 18  2  0  0  0  0
 14 15  1  0  0  0  0
 14 16  1  0  0  0  0
 14 17  1  0  0  0  0
 18 19  1  0  0  0  0
 18 38  1  0  0  0  0
 19 25  1  0  0  0  0
 19 20  1  0  0  0  0
 20 21  2  0  0  0  0
 22 23  1  0  0  0  0
 22 24  1  0  0  0  0
 23 39  1  0  0  0  0
 23 40  1  0  0  0  0
 23 41  1  0  0  0  0
 24 42  1  0  0  0  0
 24 43  1  0  0  0  0
 24 44  1  0  0  0  0
M  END
> <s_m_source_file>
AV-unprocessed.smi

> <i_m_source_file_index>
697

> <i_lp_mmshare_version>
43012

> <i_f3d_flags>
0

> <s_epik_input>
W0NIM11PW0NAQF0xKFtDSDNdKVtDSDJdW0NASF0oQzEoW0NIM10pW0NIM10pW05IXUMoPU8pW05IXWMyW2NIXWMoQyhGKShGKUYpW2NIXVtuSF1jMj1P

> <s_epik_cmdline>
J2VwaWtfcHl0aG9uJywgJy1waCcsICc3LjAnLCAnLXRuJywgJzgnLCAnLW1hJywgJzIwMCcsICctbWV0YWxfYmluZGluZycsICctaW1hZScsICc8aW5maWxlLm1hZT4nLCAnLW9tYWUnLCAnPG91dGZpbGUubWFlPic=

> <r_lp_tautomer_probability>
1

> <r_epik_Ionization_Penalty>
0.0036482

> <r_epik_Ionization_Penalty_Charging>
0.00362828

> <r_epik_Ionization_Penalty_Neutral>
1.99208e-05

> <r_epik_State_Penalty>
-0

> <r_epik_Charging_Adjusted_Penalty>
0.00362828

> <i_epik_Tot_Q>
0

> <i_epik_Tot_abs_Q>
0

> <r_epik_Metal_State_Penalty>
0.369362

> <b_epik_Metal_Only>
0

> <s_lp_Force_Field>
OPLS_2005

> <r_lp_Energy>
34.4916

> <b_lp_Chiralities_Consistent>
1

> <s_lp_Variant>
AV-unprocessed.smi:697-4

> <Gold.Version>
5.8.1

> <Gold.Id.Protein>
6NUR|6NUR_protein|mol2

> <Gold.PLP.Fitness>
40.3618

> <Gold.PLP.PLP>
-28.3368

> <Gold.PLP.part.hbond>
-3.7225

> <Gold.PLP.part.metal>
0.0000

> <Gold.PLP.part.buried>
-3.7496

> <Gold.PLP.part.nonpolar>
-22.6436

> <Gold.PLP.part.repulsive>
0.2516

> <Gold.PLP.ligand.clash>
0.0000

> <Gold.PLP.ligand.torsion>
1.1923

> <Gold.PLP.Chemscore.Hbond>
3.6641

> <Gold.PLP.Chemscore.CHOScore>
1.0000

> <Gold.PLP.Chemscore.Metal>
0.0000

> <Gold.Chemscore.Hbonds>
donor molecule, donor type, donor heavy atom, donor atom, acceptor molecule, acceptor atom, score
      L1  H     7    35       P1  7948  1.00
      L1  H    10    36       P1  7948  0.82
      L1  H    19    25       P1 10957  0.78
      P1  H  7989  7998       L1     2  0.87
      L1  C    18    38       P1 10956  1.00

> <Gold.PLP.Chemscore.Internal.Correction>
0.4172

> <Gold.Rescore>
     Score         DG    S(hbond)    S(metal)    S(lipo)     H(rot)  DE(clash)    DE(int)     intcor
     17.88     -19.37       3.22        0.00      55.41       1.31       0.43       1.06       ----

> <Gold.Chemscore.Fitness>
17.8844

> <Gold.Chemscore.DG>
-19.3738

> <Gold.Chemscore.ZeroCoef>
-5.4800

> <Gold.Chemscore.Hbond>
3.2202

> <Gold.Chemscore.Metal>
0.0000

> <Gold.Chemscore.Lipo>
55.4050

> <Gold.Chemscore.Internal_Hbond>
0.0000

> <Gold.Chemscore.DEClash>
0.4276

> <Gold.Chemscore.DEInternal>
1.0617

> <Gold.Chemscore.Rot>
1.3062

> <Gold.Chemscore.Internal.Correction>
   9.000000E+99

> <Gold.Chemscore.Hbonds>
donor molecule, donor type, donor heavy atom, donor atom, acceptor molecule, acceptor atom, score
      L1  H     7    35       P1  7948  0.39
      L1  H    10    36       P1  7948  0.15
      L1  H    19    25       P1 10957  0.42
      P1  H  7989  7998       L1     2  0.70

> <Gold.Chemscore.Hbond.Weighted>
-10.7554

> <Gold.Chemscore.Metal.Weighted>
-0.0000

> <Gold.Chemscore.Lipo.Weighted>
-6.4824

> <Gold.Chemscore.Internal_Hbond.Weighted>
0.0000

> <Gold.Chemscore.DEClash.Weighted>
0.4276

> <Gold.Chemscore.DEInternal.Weighted>
1.0617

> <Gold.Chemscore.Rot.Weighted>
3.3440

> <Gold.Chemscore.Internal.Correction.Weighted>
   9.000000E+99

> <Gold.Protein.RotatedTorsions>
[ 6907 6896 6895 6894 ] final  -93.52 input  -60.11 | X-H torsion
[ 7974 7965 7964 7962 ] final   -8.25 input  175.53 | X-H torsion
[ 8008 7997 7996 7995 ] final -112.74 input   59.86 | X-H torsion
[ 10167 10162 10161 10158 ] final   89.41 input  -65.29 | X-H torsion
[ 10718 10713 10712 10709 ] final   87.97 input   66.30 | X-H torsion
[ 10763 10752 10751 10750 ] final   47.43 input  -60.55 | X-H torsion
[ 11005 11000 10999 10996 ] final   50.34 input  -57.11 | X-H torsion

> <Gold.Protein.ActiveResidues>
 VAL166  LYS551  ARG553  GLY616  TRP617  ASP618  TYR619  PRO620  LYS621  CYS622 
 ASP623  PHE694  ASN695  SER759  ASP760  ASP761  ALA762  ILE779  LEU786  VAL792 
 PHE793  MET794  SER795  GLU796  ALA797  LYS798  CYS799  TRP800  GLU811  SER814 

> <Gold.Protein.RotatedAtoms>
  150.6924  134.1955  159.4301 H   0  0  0  0  0  0  0  0  0  0  0  0  # atno 6907 bound_to 6896
  151.9924  134.9970  160.0571 H   0  0  0  0  0  0  0  0  0  0  0  0  # atno 6908 bound_to 6896
  152.1655  133.4574  159.4919 H   0  0  0  0  0  0  0  0  0  0  0  0  # atno 6909 bound_to 6896
  146.2285  140.2440  142.8344 H   0  0  0  0  0  0  0  0  0  0  0  0  # atno 7974 bound_to 7965
  155.0099  140.0393  157.2395 H   0  0  0  0  0  0  0  0  0  0  0  0  # atno 8008 bound_to 7997
  154.7469  140.2759  155.6302 H   0  0  0  0  0  0  0  0  0  0  0  0  # atno 8009 bound_to 7997
  156.2877  140.2654  156.2212 H   0  0  0  0  0  0  0  0  0  0  0  0  # atno 8010 bound_to 7997
  139.8575  144.6561  150.9097 H   0  0  0  0  0  0  0  0  0  0  0  0  # atno 10167 bound_to 10162
  157.6945  131.0276  150.3204 H   0  0  0  0  0  0  0  0  0  0  0  0  # atno 10718 bound_to 10713
  152.9800  135.5976  154.3762 H   0  0  0  0  0  0  0  0  0  0  0  0  # atno 10763 bound_to 10752
  154.3431  135.2767  155.2414 H   0  0  0  0  0  0  0  0  0  0  0  0  # atno 10764 bound_to 10752
  154.4486  135.5995  153.6232 H   0  0  0  0  0  0  0  0  0  0  0  0  # atno 10765 bound_to 10752
  140.1025  134.5062  155.8749 H   0  0  0  0  0  0  0  0  0  0  0  0  # atno 11005 bound_to 11000
  144.9462  140.8131  143.5600 LP  0  0  0  0  0  0  0  0  0  0  0  0  # atno 17320 bound_to 7965
  145.2397  139.2078  143.4999 LP  0  0  0  0  0  0  0  0  0  0  0  0  # atno 17321 bound_to 7965
  140.7779  143.3773  151.1540 LP  0  0  0  0  0  0  0  0  0  0  0  0  # atno 17342 bound_to 10162
  139.7405  143.8931  152.3048 LP  0  0  0  0  0  0  0  0  0  0  0  0  # atno 17343 bound_to 10162
  156.3692  130.3860  149.7189 LP  0  0  0  0  0  0  0  0  0  0  0  0  # atno 17370 bound_to 10713
  156.4609  130.7951  151.2971 LP  0  0  0  0  0  0  0  0  0  0  0  0  # atno 17371 bound_to 10713
  141.2109  133.6701  156.6547 LP  0  0  0  0  0  0  0  0  0  0  0  0  # atno 17394 bound_to 11000
  140.3200  134.8016  157.4245 LP  0  0  0  0  0  0  0  0  0  0  0  0  # atno 17395 bound_to 11000

$$$$
