AV-unprocessed.smi:1484|AV-procd|sdf|5998|dock1
  -GOLD-   22720 6 93D 1   1.00000     0.00000
 Structure written by MMmdl.
 38 39  0  0  0  0  0  0  0  0  1 V2000
  153.3524  141.3082  159.4263 C   0  0  0  0  0  0  0  0  0  0  0  0
  152.3931  142.4969  159.5794 C   0  0  1  0  0  0  0  0  0  0  0  0
  153.0872  143.8286  159.2356 C   0  0  0  0  0  0  0  0  0  0  0  0
  152.1276  145.0189  159.3889 C   0  0  0  0  0  0  0  0  0  0  0  0
  150.8635  144.8302  158.5366 C   0  0  0  0  0  0  0  0  0  0  0  0
  150.1566  143.5005  158.8677 C   0  0  1  0  0  0  0  0  0  0  0  0
  149.0105  143.2976  157.9892 N   0  0  0  0  0  0  0  0  0  0  0  0
  147.8565  142.6971  158.3270 C   0  0  0  0  0  0  0  0  0  0  0  0
  147.6434  142.2479  159.4526 O   0  0  0  0  0  0  0  0  0  0  0  0
  146.7602  142.5761  157.2536 C   0  0  0  0  0  0  0  0  0  0  0  0
  147.2249  142.0877  155.9447 N   0  0  0  0  0  0  0  0  0  0  0  0
  148.5533  141.6898  155.9291 N   0  0  0  0  0  0  0  0  0  0  0  0
  149.0750  141.2263  154.8440 C   0  0  0  0  0  0  0  0  0  0  0  0
  150.3926  140.8411  154.8746 O   0  0  0  0  0  0  0  0  0  0  0  0
  148.2987  141.1137  153.6290 C   0  0  0  0  0  0  0  0  0  0  0  0
  147.0061  141.5057  153.6530 C   0  0  0  0  0  0  0  0  0  0  0  0
  146.3818  142.0331  154.8677 C   0  0  0  0  0  0  0  0  0  0  0  0
  145.2042  142.3862  154.9214 O   0  0  0  0  0  0  0  0  0  0  0  0
  151.1268  142.3131  158.7208 C   0  0  0  0  0  0  0  0  0  0  0  0
  150.6292  140.8287  155.7893 H   0  0  0  0  0  0  0  0  0  0  0  0
  153.7046  141.2122  158.3987 H   0  0  0  0  0  0  0  0  0  0  0  0
  152.8650  140.3721  159.7002 H   0  0  0  0  0  0  0  0  0  0  0  0
  154.2260  141.4239  160.0684 H   0  0  0  0  0  0  0  0  0  0  0  0
  152.0859  142.5374  160.6257 H   0  0  0  0  0  0  0  0  0  0  0  0
  153.9554  143.9748  159.8791 H   0  0  0  0  0  0  0  0  0  0  0  0
  153.4637  143.7956  158.2122 H   0  0  0  0  0  0  0  0  0  0  0  0
  151.8479  145.1305  160.4372 H   0  0  0  0  0  0  0  0  0  0  0  0
  152.6326  145.9422  159.1037 H   0  0  0  0  0  0  0  0  0  0  0  0
  150.1858  145.6691  158.6992 H   0  0  0  0  0  0  0  0  0  0  0  0
  151.1340  144.8521  157.4799 H   0  0  0  0  0  0  0  0  0  0  0  0
  149.8112  143.5307  159.9030 H   0  0  0  0  0  0  0  0  0  0  0  0
  149.1008  143.6369  157.0424 H   0  0  0  0  0  0  0  0  0  0  0  0
  145.9663  141.9332  157.6376 H   0  0  0  0  0  0  0  0  0  0  0  0
  146.2995  143.5586  157.1360 H   0  0  0  0  0  0  0  0  0  0  0  0
  148.7511  140.7250  152.7285 H   0  0  0  0  0  0  0  0  0  0  0  0
  146.4148  141.4271  152.7524 H   0  0  0  0  0  0  0  0  0  0  0  0
  151.4109  142.1982  157.6734 H   0  0  0  0  0  0  0  0  0  0  0  0
  150.6204  141.3894  159.0049 H   0  0  0  0  0  0  0  0  0  0  0  0
  1  2  1  0  0  0  0
  1 21  1  0  0  0  0
  1 22  1  0  0  0  0
  1 23  1  0  0  0  0
  2 19  1  0  0  0  0
  2  3  1  0  0  0  0
  2 24  1  0  0  0  0
  3  4  1  0  0  0  0
  3 25  1  0  0  0  0
  3 26  1  0  0  0  0
  4  5  1  0  0  0  0
  4 27  1  0  0  0  0
  4 28  1  0  0  0  0
  5  6  1  0  0  0  0
  5 29  1  0  0  0  0
  5 30  1  0  0  0  0
  6  7  1  0  0  0  0
  6 19  1  0  0  0  0
  6 31  1  0  0  0  0
  7  8  1  0  0  0  0
  7 32  1  0  0  0  0
  8  9  2  0  0  0  0
  8 10  1  0  0  0  0
 10 33  1  0  0  0  0
 10 34  1  0  0  0  0
 10 11  1  0  0  0  0
 11 12  1  0  0  0  0
 11 17  1  0  0  0  0
 12 13  2  0  0  0  0
 13 14  1  0  0  0  0
 13 15  1  0  0  0  0
 14 20  1  0  0  0  0
 15 35  1  0  0  0  0
 15 16  2  0  0  0  0
 16 36  1  0  0  0  0
 16 17  1  0  0  0  0
 17 18  2  0  0  0  0
 19 37  1  0  0  0  0
 19 38  1  0  0  0  0
M  END
> <s_m_source_file>
AV-unprocessed.smi

> <i_m_source_file_index>
1484

> <i_lp_mmshare_version>
43012

> <i_f3d_flags>
0

> <s_epik_input>
W0NIM11bQ0BASF0xW0NIMl1bQ0gyXVtDSDJdW0NASF0oW0NIMl0xKVtOSF1DKD1PKVtDSDJdbjJbbkhdYyg9TylbY0hdW2NIXWMyPU8=

> <s_epik_cmdline>
J2VwaWtfcHl0aG9uJywgJy1waCcsICc3LjAnLCAnLXRuJywgJzgnLCAnLW1hJywgJzIwMCcsICctbWV0YWxfYmluZGluZycsICctaW1hZScsICc8aW5maWxlLm1hZT4nLCAnLW9tYWUnLCAnPG91dGZpbGUubWFlPic=

> <r_lp_tautomer_probability>
0.9996

> <r_epik_Ionization_Penalty>
2.10343

> <r_epik_Ionization_Penalty_Charging>
3.97871e-08

> <r_epik_Ionization_Penalty_Neutral>
2.10343

> <r_epik_State_Penalty>
1.67966

> <r_epik_Charging_Adjusted_Penalty>
1.67966

> <i_epik_Tot_Q>
0

> <i_epik_Tot_abs_Q>
0

> <r_epik_Metal_State_Penalty>
1.67966

> <b_epik_Metal_Only>
0

> <s_lp_Force_Field>
OPLS_2005

> <r_lp_Energy>
20.3723

> <b_lp_Chiralities_Consistent>
1

> <s_lp_Variant>
AV-unprocessed.smi:1484-6

> <Gold.Version>
5.8.1

> <Gold.Id.Protein>
6NUR|6NUR_protein|mol2

> <Gold.PLP.Fitness>
44.6515

> <Gold.PLP.PLP>
-37.5125

> <Gold.PLP.part.hbond>
-5.0000

> <Gold.PLP.part.metal>
0.0000

> <Gold.PLP.part.buried>
-1.8370

> <Gold.PLP.part.nonpolar>
-31.6400

> <Gold.PLP.part.repulsive>
0.8667

> <Gold.PLP.ligand.clash>
0.0000

> <Gold.PLP.ligand.torsion>
0.5450

> <Gold.PLP.Chemscore.Hbond>
2.7412

> <Gold.PLP.Chemscore.CHOScore>
0.0000

> <Gold.PLP.Chemscore.Metal>
0.0000

> <Gold.Chemscore.Hbonds>
donor molecule, donor type, donor heavy atom, donor atom, acceptor molecule, acceptor atom, score
      L1  H     7    32       P1  8028  1.00
      P1  H  6933  6944       L1     9  0.27
      P1  H  6934  6946       L1     9  0.45
      P1  H  7989  7998       L1    14  0.80

> <Gold.PLP.Chemscore.Internal.Correction>
0.0054

> <Gold.Rescore>
     Score         DG    S(hbond)    S(metal)    S(lipo)     H(rot)  DE(clash)    DE(int)     intcor
     15.44     -17.53       2.24        0.00      88.02       2.24       0.11       1.98       ----

> <Gold.Chemscore.Fitness>
15.4360

> <Gold.Chemscore.DG>
-17.5334

> <Gold.Chemscore.ZeroCoef>
-5.4800

> <Gold.Chemscore.Hbond>
2.2439

> <Gold.Chemscore.Metal>
0.0000

> <Gold.Chemscore.Lipo>
88.0212

> <Gold.Chemscore.Internal_Hbond>
0.0000

> <Gold.Chemscore.DEClash>
0.1147

> <Gold.Chemscore.DEInternal>
1.9827

> <Gold.Chemscore.Rot>
2.2421

> <Gold.Chemscore.Internal.Correction>
   9.000000E+99

> <Gold.Chemscore.Hbonds>
donor molecule, donor type, donor heavy atom, donor atom, acceptor molecule, acceptor atom, score
      L1  H     7    32       P1  8028  0.60
      P1  H  6933  6944       L1     9  0.27
      P1  H  6934  6946       L1     9  0.45
      P1  H  7989  7998       L1    14  0.79

> <Gold.Chemscore.Hbond.Weighted>
-7.4947

> <Gold.Chemscore.Metal.Weighted>
-0.0000

> <Gold.Chemscore.Lipo.Weighted>
-10.2985

> <Gold.Chemscore.Internal_Hbond.Weighted>
0.0000

> <Gold.Chemscore.DEClash.Weighted>
0.1147

> <Gold.Chemscore.DEInternal.Weighted>
1.9827

> <Gold.Chemscore.Rot.Weighted>
5.7398

> <Gold.Chemscore.Internal.Correction.Weighted>
   9.000000E+99

> <Gold.Protein.RotatedTorsions>
[ 6907 6896 6895 6894 ] final -145.12 input  -60.11 | X-H torsion
[ 7974 7965 7964 7962 ] final   93.99 input  175.53 | X-H torsion
[ 8008 7997 7996 7995 ] final -111.05 input   59.86 | X-H torsion
[ 10167 10162 10161 10158 ] final  -31.23 input  -65.29 | X-H torsion
[ 10718 10713 10712 10709 ] final  -64.44 input   66.30 | X-H torsion
[ 10763 10752 10751 10750 ] final -107.67 input  -60.55 | X-H torsion
[ 11005 11000 10999 10996 ] final  131.73 input  -57.11 | X-H torsion

> <Gold.Protein.ActiveResidues>
 VAL166  LYS551  ARG553  GLY616  TRP617  ASP618  TYR619  PRO620  LYS621  CYS622 
 ASP623  PHE694  ASN695  SER759  ASP760  ASP761  ALA762  ILE779  LEU786  VAL792 
 PHE793  MET794  SER795  GLU796  ALA797  LYS798  CYS799  TRP800  GLU811  SER814 

> <Gold.Protein.RotatedAtoms>
  151.1234  133.5088  159.2601 H   0  0  0  0  0  0  0  0  0  0  0  0  # atno 6907 bound_to 6896
  151.1836  135.0371  159.8813 H   0  0  0  0  0  0  0  0  0  0  0  0  # atno 6908 bound_to 6896
  152.5457  134.1083  159.8401 H   0  0  0  0  0  0  0  0  0  0  0  0  # atno 6909 bound_to 6896
  145.4715  139.2282  143.2932 H   0  0  0  0  0  0  0  0  0  0  0  0  # atno 7974 bound_to 7965
  154.9839  140.0396  157.2290 H   0  0  0  0  0  0  0  0  0  0  0  0  # atno 8008 bound_to 7997
  154.7689  140.2798  155.6131 H   0  0  0  0  0  0  0  0  0  0  0  0  # atno 8009 bound_to 7997
  156.2917  140.2614  156.2487 H   0  0  0  0  0  0  0  0  0  0  0  0  # atno 8010 bound_to 7997
  140.7239  143.3787  151.1641 H   0  0  0  0  0  0  0  0  0  0  0  0  # atno 10167 bound_to 10162
  156.0729  130.4233  150.1420 H   0  0  0  0  0  0  0  0  0  0  0  0  # atno 10718 bound_to 10713
  154.8090  135.4666  154.0466 H   0  0  0  0  0  0  0  0  0  0  0  0  # atno 10763 bound_to 10752
  153.1912  135.6855  153.8357 H   0  0  0  0  0  0  0  0  0  0  0  0  # atno 10764 bound_to 10752
  153.7874  135.3248  155.3351 H   0  0  0  0  0  0  0  0  0  0  0  0  # atno 10765 bound_to 10752
  139.9748  134.9567  156.9480 H   0  0  0  0  0  0  0  0  0  0  0  0  # atno 11005 bound_to 11000
  146.2394  140.5494  142.8941 LP  0  0  0  0  0  0  0  0  0  0  0  0  # atno 17320 bound_to 7965
  144.7942  140.6091  143.6521 LP  0  0  0  0  0  0  0  0  0  0  0  0  # atno 17321 bound_to 7965
  139.7372  143.8981  152.3038 LP  0  0  0  0  0  0  0  0  0  0  0  0  # atno 17342 bound_to 10162
  139.8790  144.7028  150.8900 LP  0  0  0  0  0  0  0  0  0  0  0  0  # atno 17343 bound_to 10162
  156.9467  130.9762  151.3506 LP  0  0  0  0  0  0  0  0  0  0  0  0  # atno 17370 bound_to 10713
  157.5810  130.8376  149.8522 LP  0  0  0  0  0  0  0  0  0  0  0  0  # atno 17371 bound_to 10713
  140.5218  134.0899  155.7294 LP  0  0  0  0  0  0  0  0  0  0  0  0  # atno 17394 bound_to 11000
  141.1425  133.9112  157.2292 LP  0  0  0  0  0  0  0  0  0  0  0  0  # atno 17395 bound_to 11000

$$$$
