AV-unprocessed.smi:792|AV-procd|sdf|3750|dock8
  -GOLD-   22720 1183D 1   1.00000     0.00000
 Structure written by MMmdl.
 46 47  0  0  0  0  0  0  0  0  1 V2000
  143.8374  132.4100  149.5221 C   0  0  0  0  0  0  0  0  0  0  0  0
  144.9695  132.3842  150.5275 C   0  0  0  0  0  0  0  0  0  0  0  0
  145.2066  131.2426  151.3221 C   0  0  0  0  0  0  0  0  0  0  0  0
  146.2734  131.2748  152.2407 C   0  0  0  0  0  0  0  0  0  0  0  0
  147.0598  132.4417  152.3289 C   0  0  0  0  0  0  0  0  0  0  0  0
  148.2185  132.5286  153.3021 C   0  0  0  0  0  0  0  0  0  0  0  0
  147.9764  133.5741  154.3981 C   0  0  0  0  0  0  0  0  0  0  0  0
  148.7711  134.7681  154.1488 N   0  0  0  0  0  0  0  0  0  0  0  0
  149.4455  135.4355  155.0934 C   0  0  0  0  0  0  0  0  0  0  0  0
  149.4843  135.1020  156.2780 O   0  0  0  0  0  0  0  0  0  0  0  0
  150.0706  136.5114  154.5934 N   0  0  0  0  0  0  0  0  0  0  0  0
  150.9017  137.4342  155.3650 C   0  0  0  0  0  0  0  0  0  0  0  0
  150.4902  138.9106  155.2060 C   0  0  0  0  0  0  0  0  0  0  0  0
  150.4176  139.3922  154.0735 O   0  0  0  0  0  0  0  0  0  0  0  0
  150.2133  139.6366  156.3170 N   0  0  0  0  0  0  0  0  0  0  0  0
  149.8796  141.0668  156.2679 C   0  0  0  0  0  0  0  0  0  0  0  0
  151.0326  141.8699  156.8977 C   0  0  0  0  0  0  0  0  0  0  0  0
  151.3224  141.3882  158.3318 C   0  0  0  0  0  0  0  0  0  0  0  0
  151.4885  139.8581  158.3942 C   0  0  0  0  0  0  0  0  0  0  0  0
  150.3096  139.1513  157.7012 C   0  0  0  0  0  0  0  0  0  0  0  0
  146.7373  133.5293  151.4902 C   0  0  0  0  0  0  0  0  0  0  0  0
  145.7165  133.5075  150.6064 N   0  0  0  0  0  0  0  0  0  0  0  0
  143.2872  131.4686  149.5215 H   0  0  0  0  0  0  0  0  0  0  0  0
  144.2258  132.5771  148.5170 H   0  0  0  0  0  0  0  0  0  0  0  0
  143.1379  133.2121  149.7590 H   0  0  0  0  0  0  0  0  0  0  0  0
  144.5874  130.3623  151.2323 H   0  0  0  0  0  0  0  0  0  0  0  0
  146.4816  130.4191  152.8659 H   0  0  0  0  0  0  0  0  0  0  0  0
  148.3814  131.5469  153.7492 H   0  0  0  0  0  0  0  0  0  0  0  0
  149.1272  132.7699  152.7485 H   0  0  0  0  0  0  0  0  0  0  0  0
  146.9196  133.8446  154.4311 H   0  0  0  0  0  0  0  0  0  0  0  0
  148.2357  133.1634  155.3751 H   0  0  0  0  0  0  0  0  0  0  0  0
  148.8032  135.1109  153.1998 H   0  0  0  0  0  0  0  0  0  0  0  0
  149.9812  136.6982  153.6054 H   0  0  0  0  0  0  0  0  0  0  0  0
  150.8181  137.1560  156.4157 H   0  0  0  0  0  0  0  0  0  0  0  0
  151.9475  137.3063  155.0800 H   0  0  0  0  0  0  0  0  0  0  0  0
  149.6917  141.4257  155.2553 H   0  0  0  0  0  0  0  0  0  0  0  0
  148.9551  141.2416  156.8200 H   0  0  0  0  0  0  0  0  0  0  0  0
  151.9290  141.7583  156.2862 H   0  0  0  0  0  0  0  0  0  0  0  0
  150.7907  142.9331  156.9033 H   0  0  0  0  0  0  0  0  0  0  0  0
  152.2118  141.8818  158.7242 H   0  0  0  0  0  0  0  0  0  0  0  0
  150.4954  141.6823  158.9793 H   0  0  0  0  0  0  0  0  0  0  0  0
  152.4227  139.5694  157.9103 H   0  0  0  0  0  0  0  0  0  0  0  0
  151.5641  139.5341  159.4325 H   0  0  0  0  0  0  0  0  0  0  0  0
  149.3806  139.3814  158.2248 H   0  0  0  0  0  0  0  0  0  0  0  0
  150.4233  138.0718  157.7836 H   0  0  0  0  0  0  0  0  0  0  0  0
  147.3126  134.4426  151.5293 H   0  0  0  0  0  0  0  0  0  0  0  0
  1  2  1  0  0  0  0
  1 23  1  0  0  0  0
  1 24  1  0  0  0  0
  1 25  1  0  0  0  0
  2 22  1  0  0  0  0
  2  3  2  0  0  0  0
  3  4  1  0  0  0  0
  3 26  1  0  0  0  0
  4  5  2  0  0  0  0
  4 27  1  0  0  0  0
  5  6  1  0  0  0  0
  5 21  1  0  0  0  0
  6  7  1  0  0  0  0
  6 28  1  0  0  0  0
  6 29  1  0  0  0  0
  7  8  1  0  0  0  0
  7 30  1  0  0  0  0
  7 31  1  0  0  0  0
  8  9  1  0  0  0  0
  8 32  1  0  0  0  0
  9 10  2  0  0  0  0
  9 11  1  0  0  0  0
 11 12  1  0  0  0  0
 11 33  1  0  0  0  0
 12 13  1  0  0  0  0
 12 34  1  0  0  0  0
 12 35  1  0  0  0  0
 13 14  2  0  0  0  0
 13 15  1  0  0  0  0
 15 20  1  0  0  0  0
 15 16  1  0  0  0  0
 16 17  1  0  0  0  0
 16 36  1  0  0  0  0
 16 37  1  0  0  0  0
 17 18  1  0  0  0  0
 17 38  1  0  0  0  0
 17 39  1  0  0  0  0
 18 19  1  0  0  0  0
 18 40  1  0  0  0  0
 18 41  1  0  0  0  0
 19 20  1  0  0  0  0
 19 42  1  0  0  0  0
 19 43  1  0  0  0  0
 20 44  1  0  0  0  0
 20 45  1  0  0  0  0
 21 22  2  0  0  0  0
 21 46  1  0  0  0  0
M  END
> <s_m_source_file>
AV-unprocessed.smi

> <i_m_source_file_index>
792

> <i_lp_mmshare_version>
43012

> <i_f3d_flags>
0

> <s_epik_input>
W0NIM11jMVtjSF1bY0hdYyhbY0hdbjEpW0NIMl1bQ0gyXVtOSF1DKD1PKVtOSF1bQ0gyXUMoPU8pTjJbQ0gyXVtDSDJdW0NIMl1bQ0gyXVtDSDJdMg==

> <s_epik_cmdline>
J2VwaWtfcHl0aG9uJywgJy1waCcsICc3LjAnLCAnLXRuJywgJzgnLCAnLW1hJywgJzIwMCcsICctbWV0YWxfYmluZGluZycsICctaW1hZScsICc8aW5maWxlLm1hZT4nLCAnLW9tYWUnLCAnPG91dGZpbGUubWFlPic=

> <r_epik_Ionization_Penalty>
0.0629971

> <r_epik_Ionization_Penalty_Charging>
0

> <r_epik_Ionization_Penalty_Neutral>
0.0629971

> <r_epik_State_Penalty>
0.0547377

> <r_epik_Charging_Adjusted_Penalty>
0.0547377

> <i_epik_Tot_Q>
0

> <i_epik_Tot_abs_Q>
0

> <r_epik_Metal_State_Penalty>
0.0494478

> <b_epik_Metal_Only>
0

> <s_lp_Force_Field>
OPLS_2005

> <r_lp_Energy>
16.0081

> <b_lp_Chiralities_Consistent>
1

> <s_lp_Variant>
AV-unprocessed.smi:792-1

> <Gold.Version>
5.8.1

> <Gold.Id.Protein>
6NUR|6NUR_protein|mol2

> <Gold.PLP.Fitness>
48.3775

> <Gold.PLP.PLP>
-37.5647

> <Gold.PLP.part.hbond>
-3.0530

> <Gold.PLP.part.metal>
0.0000

> <Gold.PLP.part.buried>
-6.5753

> <Gold.PLP.part.nonpolar>
-29.9588

> <Gold.PLP.part.repulsive>
0.6187

> <Gold.PLP.ligand.clash>
0.0000

> <Gold.PLP.ligand.torsion>
0.5201

> <Gold.PLP.Chemscore.Hbond>
2.9440

> <Gold.PLP.Chemscore.CHOScore>
1.0000

> <Gold.PLP.Chemscore.Metal>
0.0000

> <Gold.Chemscore.Hbonds>
donor molecule, donor type, donor heavy atom, donor atom, acceptor molecule, acceptor atom, score
      L1  H     8    32       P1  7948  1.00
      L1  H    11    33       P1  7948  0.87
      P1  H  7989  7998       L1    14  1.00
      L1  C    21    46       P1  7948  1.00

> <Gold.PLP.Chemscore.Internal.Correction>
0.0210

> <Gold.Rescore>
     Score         DG    S(hbond)    S(metal)    S(lipo)     H(rot)  DE(clash)    DE(int)     intcor
     18.21     -18.74       2.16        0.00      90.38       1.78       0.01       0.52       ----

> <Gold.Chemscore.Fitness>
18.2112

> <Gold.Chemscore.DG>
-18.7388

> <Gold.Chemscore.ZeroCoef>
-5.4800

> <Gold.Chemscore.Hbond>
2.1641

> <Gold.Chemscore.Metal>
0.0000

> <Gold.Chemscore.Lipo>
90.3827

> <Gold.Chemscore.Internal_Hbond>
0.0000

> <Gold.Chemscore.DEClash>
0.0098

> <Gold.Chemscore.DEInternal>
0.5178

> <Gold.Chemscore.Rot>
1.7751

> <Gold.Chemscore.Internal.Correction>
   9.000000E+99

> <Gold.Chemscore.Hbonds>
donor molecule, donor type, donor heavy atom, donor atom, acceptor molecule, acceptor atom, score
      L1  H     8    32       P1  7948  0.50
      L1  H    11    33       P1  7948  0.18
      P1  H  7989  7998       L1    14  0.95

> <Gold.Chemscore.Hbond.Weighted>
-7.2282

> <Gold.Chemscore.Metal.Weighted>
-0.0000

> <Gold.Chemscore.Lipo.Weighted>
-10.5748

> <Gold.Chemscore.Internal_Hbond.Weighted>
0.0000

> <Gold.Chemscore.DEClash.Weighted>
0.0098

> <Gold.Chemscore.DEInternal.Weighted>
0.5178

> <Gold.Chemscore.Rot.Weighted>
4.5441

> <Gold.Chemscore.Internal.Correction.Weighted>
   9.000000E+99

> <Gold.Protein.RotatedTorsions>
[ 6907 6896 6895 6894 ] final  103.83 input  -60.11 | X-H torsion
[ 7974 7965 7964 7962 ] final   48.78 input  175.53 | X-H torsion
[ 8008 7997 7996 7995 ] final  -13.88 input   59.86 | X-H torsion
[ 10167 10162 10161 10158 ] final   21.25 input  -65.29 | X-H torsion
[ 10718 10713 10712 10709 ] final -134.76 input   66.30 | X-H torsion
[ 10763 10752 10751 10750 ] final   12.83 input  -60.55 | X-H torsion
[ 11005 11000 10999 10996 ] final  -31.07 input  -57.11 | X-H torsion

> <Gold.Protein.ActiveResidues>
 VAL166  LYS551  ARG553  GLY616  TRP617  ASP618  TYR619  PRO620  LYS621  CYS622 
 ASP623  PHE694  ASN695  SER759  ASP760  ASP761  ALA762  ILE779  LEU786  VAL792 
 PHE793  MET794  SER795  GLU796  ALA797  LYS798  CYS799  TRP800  GLU811  SER814 

> <Gold.Protein.RotatedAtoms>
  152.5283  133.9768  159.7787 H   0  0  0  0  0  0  0  0  0  0  0  0  # atno 6907 bound_to 6896
  151.0029  133.6031  159.2699 H   0  0  0  0  0  0  0  0  0  0  0  0  # atno 6908 bound_to 6896
  151.3133  135.0806  159.9333 H   0  0  0  0  0  0  0  0  0  0  0  0  # atno 6909 bound_to 6896
  146.0172  139.4610  142.9919 H   0  0  0  0  0  0  0  0  0  0  0  0  # atno 7974 bound_to 7965
  154.5256  140.2238  155.8896 H   0  0  0  0  0  0  0  0  0  0  0  0  # atno 8008 bound_to 7997
  156.1709  140.3122  155.8937 H   0  0  0  0  0  0  0  0  0  0  0  0  # atno 8009 bound_to 7997
  155.3559  140.0458  157.3037 H   0  0  0  0  0  0  0  0  0  0  0  0  # atno 8010 bound_to 7997
  140.5441  143.9625  150.6537 H   0  0  0  0  0  0  0  0  0  0  0  0  # atno 10167 bound_to 10162
  156.2589  130.7197  151.1124 H   0  0  0  0  0  0  0  0  0  0  0  0  # atno 10718 bound_to 10713
  153.1782  135.6823  153.8514 H   0  0  0  0  0  0  0  0  0  0  0  0  # atno 10763 bound_to 10752
  153.7854  135.3176  155.3372 H   0  0  0  0  0  0  0  0  0  0  0  0  # atno 10764 bound_to 10752
  154.8043  135.4758  154.0446 H   0  0  0  0  0  0  0  0  0  0  0  0  # atno 10765 bound_to 10752
  140.9437  133.7263  156.1114 H   0  0  0  0  0  0  0  0  0  0  0  0  # atno 11005 bound_to 11000
  145.7250  141.0062  143.1382 LP  0  0  0  0  0  0  0  0  0  0  0  0  # atno 17320 bound_to 7965
  144.6975  139.8916  143.7453 LP  0  0  0  0  0  0  0  0  0  0  0  0  # atno 17321 bound_to 7965
  140.3034  143.3245  152.0950 LP  0  0  0  0  0  0  0  0  0  0  0  0  # atno 17342 bound_to 10162
  139.5000  144.6682  151.6305 LP  0  0  0  0  0  0  0  0  0  0  0  0  # atno 17343 bound_to 10162
  157.7243  131.0661  150.6001 LP  0  0  0  0  0  0  0  0  0  0  0  0  # atno 17370 bound_to 10713
  156.6087  130.4374  149.5867 LP  0  0  0  0  0  0  0  0  0  0  0  0  # atno 17371 bound_to 10713
  140.7699  134.3844  157.5509 LP  0  0  0  0  0  0  0  0  0  0  0  0  # atno 17394 bound_to 11000
  139.8827  134.9015  156.2812 LP  0  0  0  0  0  0  0  0  0  0  0  0  # atno 17395 bound_to 11000

$$$$
