AV-unprocessed.smi:2562|AV-procd|sdf|10048|dock3
  -GOLD-   2272014 93D 1   1.00000     0.00000
 Structure written by MMmdl.
 30 31  0  0  0  0  0  0  0  0  1 V2000
  153.4037  142.2890  162.2131 C   0  0  0  0  0  0  0  0  0  0  0  0
  153.0257  142.1655  160.7329 C   0  0  0  0  0  0  0  0  0  0  0  0
  151.9979  143.2194  160.2960 C   0  0  0  0  0  0  0  0  0  0  0  0
  151.4031  142.9073  158.9628 C   0  0  0  0  0  0  0  0  0  0  0  0
  150.4577  143.6802  158.4313 N   0  0  0  0  0  0  0  0  0  0  0  0
  150.2456  143.0826  157.2402 N   0  0  0  0  0  0  0  0  0  0  0  0
  151.0530  142.0245  157.1235 C   0  0  0  0  0  0  0  0  0  0  0  0
  151.0924  141.1633  155.8996 C   0  0  2  0  0  0  0  0  0  0  0  0
  149.7844  141.2421  155.0876 C   0  0  0  0  0  0  0  0  0  0  0  0
  149.8361  140.3239  153.9507 N   0  0  0  0  0  0  0  0  0  0  0  0
  150.1372  138.9603  154.3836 C   0  0  0  0  0  0  0  0  0  0  0  0
  151.4334  138.9366  155.2131 C   0  0  0  0  0  0  0  0  0  0  0  0
  151.3044  139.8179  156.3235 O   0  0  0  0  0  0  0  0  0  0  0  0
  151.8327  141.8657  158.1883 N   0  0  0  0  0  0  0  0  0  0  0  0
  149.5727  143.4169  156.5653 H   0  0  0  0  0  0  0  0  0  0  0  0
  154.1319  141.5275  162.4928 H   0  0  0  0  0  0  0  0  0  0  0  0
  152.5304  142.1656  162.8538 H   0  0  0  0  0  0  0  0  0  0  0  0
  153.8427  143.2639  162.4267 H   0  0  0  0  0  0  0  0  0  0  0  0
  153.9262  142.2582  160.1247 H   0  0  0  0  0  0  0  0  0  0  0  0
  152.6275  141.1675  160.5453 H   0  0  0  0  0  0  0  0  0  0  0  0
  151.1969  143.2870  161.0333 H   0  0  0  0  0  0  0  0  0  0  0  0
  152.4651  144.2045  160.2563 H   0  0  0  0  0  0  0  0  0  0  0  0
  151.9359  141.4869  155.2864 H   0  0  0  0  0  0  0  0  0  0  0  0
  148.9375  140.9901  155.7274 H   0  0  0  0  0  0  0  0  0  0  0  0
  149.6199  142.2615  154.7374 H   0  0  0  0  0  0  0  0  0  0  0  0
  148.9466  140.3374  153.4617 H   0  0  0  0  0  0  0  0  0  0  0  0
  149.3131  138.5698  154.9818 H   0  0  0  0  0  0  0  0  0  0  0  0
  150.2337  138.3049  153.5178 H   0  0  0  0  0  0  0  0  0  0  0  0
  151.6239  137.9290  155.5825 H   0  0  0  0  0  0  0  0  0  0  0  0
  152.2931  139.2198  154.6034 H   0  0  0  0  0  0  0  0  0  0  0  0
  1  2  1  0  0  0  0
  1 16  1  0  0  0  0
  1 17  1  0  0  0  0
  1 18  1  0  0  0  0
  2  3  1  0  0  0  0
  2 19  1  0  0  0  0
  2 20  1  0  0  0  0
  3  4  1  0  0  0  0
  3 21  1  0  0  0  0
  3 22  1  0  0  0  0
  4 14  1  0  0  0  0
  4  5  2  0  0  0  0
  5  6  1  0  0  0  0
  6 15  1  0  0  0  0
  6  7  1  0  0  0  0
  7  8  1  0  0  0  0
  7 14  2  0  0  0  0
  8 13  1  0  0  0  0
  8  9  1  0  0  0  0
  8 23  1  0  0  0  0
  9 10  1  0  0  0  0
  9 24  1  0  0  0  0
  9 25  1  0  0  0  0
 10 11  1  0  0  0  0
 10 26  1  0  0  0  0
 11 12  1  0  0  0  0
 11 27  1  0  0  0  0
 11 28  1  0  0  0  0
 12 13  1  0  0  0  0
 12 29  1  0  0  0  0
 12 30  1  0  0  0  0
M  END
> <s_m_source_file>
AV-unprocessed.smi

> <i_m_source_file_index>
2562

> <i_lp_mmshare_version>
43012

> <i_f3d_flags>
0

> <s_epik_input>
W0NIM11bQ0gyXVtDSDJdYzFuW25IXWMobjEpW0NAQEhdMltDSDJdW05IXVtDSDJdW0NIMl1PMg==

> <s_epik_cmdline>
J2VwaWtfcHl0aG9uJywgJy1waCcsICc3LjAnLCAnLXRuJywgJzgnLCAnLW1hJywgJzIwMCcsICctbWV0YWxfYmluZGluZycsICctaW1hZScsICc8aW5maWxlLm1hZT4nLCAnLW9tYWUnLCAnPG91dGZpbGUubWFlPic=

> <r_lp_tautomer_probability>
0.948284

> <r_epik_Ionization_Penalty>
0.982917

> <r_epik_Ionization_Penalty_Charging>
0

> <r_epik_Ionization_Penalty_Neutral>
0.982917

> <r_epik_State_Penalty>
1.68334

> <r_epik_Charging_Adjusted_Penalty>
1.68334

> <i_epik_Tot_Q>
0

> <i_epik_Tot_abs_Q>
0

> <r_epik_Metal_State_Penalty>
1.80323

> <b_epik_Metal_Only>
0

> <s_lp_Force_Field>
OPLS_2005

> <r_lp_Energy>
10.5925

> <b_lp_Chiralities_Consistent>
1

> <s_lp_Variant>
AV-unprocessed.smi:2562-7

> <Gold.Version>
5.8.1

> <Gold.Id.Protein>
6NUR|6NUR_protein|mol2

> <Gold.PLP.Fitness>
35.7574

> <Gold.PLP.PLP>
-32.7336

> <Gold.PLP.part.hbond>
-3.0000

> <Gold.PLP.part.metal>
0.0000

> <Gold.PLP.part.buried>
-4.5321

> <Gold.PLP.part.nonpolar>
-24.6619

> <Gold.PLP.part.repulsive>
0.1720

> <Gold.PLP.ligand.clash>
0.0000

> <Gold.PLP.ligand.torsion>
0.6978

> <Gold.PLP.Chemscore.Hbond>
1.4690

> <Gold.PLP.Chemscore.CHOScore>
0.0000

> <Gold.PLP.Chemscore.Metal>
0.0000

> <Gold.Chemscore.Hbonds>
donor molecule, donor type, donor heavy atom, donor atom, acceptor molecule, acceptor atom, score
      L1  H     6    15       P1  8028  0.98
      P1  H  7989  7998       L1    10  0.45

> <Gold.PLP.Chemscore.Internal.Correction>
0.0125

> <Gold.Rescore>
     Score         DG    S(hbond)    S(metal)    S(lipo)     H(rot)  DE(clash)    DE(int)     intcor
     12.56     -13.22       1.22        0.00      63.48       1.48       0.10       0.56       ----

> <Gold.Chemscore.Fitness>
12.5575

> <Gold.Chemscore.DG>
-13.2154

> <Gold.Chemscore.ZeroCoef>
-5.4800

> <Gold.Chemscore.Hbond>
1.2243

> <Gold.Chemscore.Metal>
0.0000

> <Gold.Chemscore.Lipo>
63.4773

> <Gold.Chemscore.Internal_Hbond>
0.0000

> <Gold.Chemscore.DEClash>
0.1002

> <Gold.Chemscore.DEInternal>
0.5577

> <Gold.Chemscore.Rot>
1.4769

> <Gold.Chemscore.Internal.Correction>
   9.000000E+99

> <Gold.Chemscore.Hbonds>
donor molecule, donor type, donor heavy atom, donor atom, acceptor molecule, acceptor atom, score
      L1  H     6    15       P1  8028  0.93
      L1  H    10    26       P1  7957  0.01
      P1  H  7989  7998       L1    10  0.01

> <Gold.Chemscore.Hbond.Weighted>
-4.0893

> <Gold.Chemscore.Metal.Weighted>
-0.0000

> <Gold.Chemscore.Lipo.Weighted>
-7.4268

> <Gold.Chemscore.Internal_Hbond.Weighted>
0.0000

> <Gold.Chemscore.DEClash.Weighted>
0.1002

> <Gold.Chemscore.DEInternal.Weighted>
0.5577

> <Gold.Chemscore.Rot.Weighted>
3.7808

> <Gold.Chemscore.Internal.Correction.Weighted>
   9.000000E+99

> <Gold.Protein.RotatedTorsions>
[ 6907 6896 6895 6894 ] final  -11.42 input  -60.11 | X-H torsion
[ 7974 7965 7964 7962 ] final -144.92 input  175.53 | X-H torsion
[ 8008 7997 7996 7995 ] final -176.91 input   59.86 | X-H torsion
[ 10167 10162 10161 10158 ] final   80.39 input  -65.29 | X-H torsion
[ 10718 10713 10712 10709 ] final  120.68 input   66.30 | X-H torsion
[ 10763 10752 10751 10750 ] final -176.49 input  -60.55 | X-H torsion
[ 11005 11000 10999 10996 ] final    8.85 input  -57.11 | X-H torsion

> <Gold.Protein.ActiveResidues>
 VAL166  LYS551  ARG553  GLY616  TRP617  ASP618  TYR619  PRO620  LYS621  CYS622 
 ASP623  PHE694  ASN695  SER759  ASP760  ASP761  ALA762  ILE779  LEU786  VAL792 
 PHE793  MET794  SER795  GLU796  ALA797  LYS798  CYS799  TRP800  GLU811  SER814 

> <Gold.Protein.RotatedAtoms>
  151.3865  135.0949  159.9512 H   0  0  0  0  0  0  0  0  0  0  0  0  # atno 6907 bound_to 6896
  152.5093  133.9021  159.7457 H   0  0  0  0  0  0  0  0  0  0  0  0  # atno 6908 bound_to 6896
  150.9466  133.6541  159.2809 H   0  0  0  0  0  0  0  0  0  0  0  0  # atno 6909 bound_to 6896
  144.8264  140.5650  143.5544 H   0  0  0  0  0  0  0  0  0  0  0  0  # atno 7974 bound_to 7965
  156.0006  140.1220  157.0551 H   0  0  0  0  0  0  0  0  0  0  0  0  # atno 8008 bound_to 7997
  154.4241  140.1107  156.5760 H   0  0  0  0  0  0  0  0  0  0  0  0  # atno 8009 bound_to 7997
  155.6218  140.3472  155.4656 H   0  0  0  0  0  0  0  0  0  0  0  0  # atno 8010 bound_to 7997
  139.9502  144.6031  150.8168 H   0  0  0  0  0  0  0  0  0  0  0  0  # atno 10167 bound_to 10162
  157.5873  131.1068  150.8069 H   0  0  0  0  0  0  0  0  0  0  0  0  # atno 10718 bound_to 10713
  154.5717  135.2828  155.0820 H   0  0  0  0  0  0  0  0  0  0  0  0  # atno 10763 bound_to 10752
  154.2190  135.6394  153.5142 H   0  0  0  0  0  0  0  0  0  0  0  0  # atno 10764 bound_to 10752
  153.0059  135.5510  154.6343 H   0  0  0  0  0  0  0  0  0  0  0  0  # atno 10765 bound_to 10752
  140.5324  134.0453  155.7877 H   0  0  0  0  0  0  0  0  0  0  0  0  # atno 11005 bound_to 11000
  145.4992  139.1484  143.3667 LP  0  0  0  0  0  0  0  0  0  0  0  0  # atno 17320 bound_to 7965
  146.2569  140.5131  142.8870 LP  0  0  0  0  0  0  0  0  0  0  0  0  # atno 17321 bound_to 7965
  140.7585  143.3108  151.2849 LP  0  0  0  0  0  0  0  0  0  0  0  0  # atno 17342 bound_to 10162
  139.6634  144.0148  152.2707 LP  0  0  0  0  0  0  0  0  0  0  0  0  # atno 17343 bound_to 10162
  156.8500  130.5077  149.5313 LP  0  0  0  0  0  0  0  0  0  0  0  0  # atno 17370 bound_to 10713
  156.0923  130.5905  150.9754 LP  0  0  0  0  0  0  0  0  0  0  0  0  # atno 17371 bound_to 10713
  141.1274  133.9360  157.2607 LP  0  0  0  0  0  0  0  0  0  0  0  0  # atno 17394 bound_to 11000
  139.9547  135.0168  156.9094 LP  0  0  0  0  0  0  0  0  0  0  0  0  # atno 17395 bound_to 11000

$$$$
