AV-unprocessed.smi:177|AV-procd|sdf|1438|dock10
  -GOLD-   2262019223D 1   1.00000     0.00000
 Structure written by MMmdl.
 61 65  0  0  0  0  0  0  0  0  1 V2000
  146.4079  141.3913  157.1694 C   0  0  0  0  0  0  0  0  0  0  0  0
  147.2243  140.2603  156.9069 O   0  0  0  0  0  0  0  0  0  0  0  0
  147.0655  139.6983  155.6080 C   0  0  1  0  0  0  0  0  0  0  0  0
  147.5591  140.7382  154.5851 C   0  0  0  0  0  0  0  0  0  0  0  0
  149.0825  140.9378  154.6569 C   0  0  0  0  0  0  0  0  0  0  0  0
  149.8189  139.5992  154.5005 C   0  0  1  0  0  0  0  0  0  0  0  0
  151.2211  139.8209  154.6007 O   0  0  0  0  0  0  0  0  0  0  0  0
  151.9582  138.6268  154.3662 C   0  0  0  0  0  0  0  0  0  0  0  0
  151.5890  137.5831  155.4309 C   0  0  0  0  0  0  0  0  0  0  0  0
  150.1469  137.3540  155.4543 N   0  0  0  0  0  0  0  0  0  0  0  0
  149.8544  136.3332  156.2956 C   0  0  0  0  0  0  0  0  0  0  0  0
  150.2325  135.0614  155.9967 N   0  0  0  0  0  0  0  0  0  0  0  0
  149.9139  134.0579  156.8196 C   0  0  0  0  0  0  0  0  0  0  0  0
  149.2245  134.1023  157.9617 N   0  0  0  0  0  0  0  0  0  0  0  0
  148.8317  135.3747  158.2567 C   0  0  0  0  0  0  0  0  0  0  0  0
  149.1080  136.5382  157.4861 C   0  0  0  0  0  0  0  0  0  0  0  0
  148.5644  137.6584  158.0999 N   0  0  0  0  0  0  0  0  0  0  0  0
  147.9975  137.1837  159.1751 C   0  0  0  0  0  0  0  0  0  0  0  0
  148.0867  135.8180  159.3367 N   0  0  0  0  0  0  0  0  0  0  0  0
  147.5368  135.0316  160.4328 C   0  0  0  0  0  0  0  0  0  0  0  0
  147.2066  135.8447  161.7255 C   0  0  0  0  0  0  0  0  0  0  0  0
  148.4508  136.6267  162.2259 C   0  0  0  0  0  0  0  0  0  0  0  0
  148.1818  137.3655  163.4008 O   0  0  0  0  0  0  0  0  0  0  0  0
  146.0735  136.8739  161.4840 C   0  0  0  0  0  0  0  0  0  0  0  0
  144.6981  136.2119  161.2848 C   0  0  0  0  0  0  0  0  0  0  0  0
  144.3864  135.4013  162.4100 O   0  0  0  0  0  0  0  0  0  0  0  0
  145.3084  134.3341  162.5892 C   0  0  0  0  0  0  0  0  0  0  0  0
  146.7193  134.8937  162.8478 C   0  0  0  0  0  0  0  0  0  0  0  0
  149.3700  138.5919  155.5854 C   0  0  2  0  0  0  0  0  0  0  0  0
  147.8428  138.3717  155.4585 C   0  0  0  0  0  0  0  0  0  0  0  0
  146.6604  141.7969  158.1488 H   0  0  0  0  0  0  0  0  0  0  0  0
  145.3492  141.1349  157.1853 H   0  0  0  0  0  0  0  0  0  0  0  0
  146.5695  142.1782  156.4318 H   0  0  0  0  0  0  0  0  0  0  0  0
  146.0043  139.5218  155.4247 H   0  0  0  0  0  0  0  0  0  0  0  0
  147.2894  140.4099  153.5806 H   0  0  0  0  0  0  0  0  0  0  0  0
  147.0498  141.6893  154.7429 H   0  0  0  0  0  0  0  0  0  0  0  0
  149.4009  141.6310  153.8777 H   0  0  0  0  0  0  0  0  0  0  0  0
  149.3509  141.3975  155.6090 H   0  0  0  0  0  0  0  0  0  0  0  0
  149.5979  139.1983  153.5091 H   0  0  0  0  0  0  0  0  0  0  0  0
  151.7570  138.2488  153.3627 H   0  0  0  0  0  0  0  0  0  0  0  0
  153.0236  138.8515  154.4141 H   0  0  0  0  0  0  0  0  0  0  0  0
  152.1190  136.6516  155.2267 H   0  0  0  0  0  0  0  0  0  0  0  0
  151.9147  137.9278  156.4136 H   0  0  0  0  0  0  0  0  0  0  0  0
  150.2558  133.0790  156.5174 H   0  0  0  0  0  0  0  0  0  0  0  0
  147.4854  137.8219  159.8805 H   0  0  0  0  0  0  0  0  0  0  0  0
  146.6549  134.5145  160.0571 H   0  0  0  0  0  0  0  0  0  0  0  0
  148.2529  134.2414  160.6620 H   0  0  0  0  0  0  0  0  0  0  0  0
  149.2876  135.9549  162.4167 H   0  0  0  0  0  0  0  0  0  0  0  0
  148.7968  137.3264  161.4642 H   0  0  0  0  0  0  0  0  0  0  0  0
  147.8646  136.7704  164.0628 H   0  0  0  0  0  0  0  0  0  0  0  0
  145.9985  137.5377  162.3465 H   0  0  0  0  0  0  0  0  0  0  0  0
  146.3051  137.5212  160.6387 H   0  0  0  0  0  0  0  0  0  0  0  0
  143.9295  136.9781  161.1848 H   0  0  0  0  0  0  0  0  0  0  0  0
  144.6635  135.6158  160.3733 H   0  0  0  0  0  0  0  0  0  0  0  0
  144.9854  133.7377  163.4427 H   0  0  0  0  0  0  0  0  0  0  0  0
  145.2915  133.6713  161.7237 H   0  0  0  0  0  0  0  0  0  0  0  0
  147.4204  134.0697  162.9832 H   0  0  0  0  0  0  0  0  0  0  0  0
  146.6991  135.4310  163.7971 H   0  0  0  0  0  0  0  0  0  0  0  0
  149.5855  139.0228  156.5647 H   0  0  0  0  0  0  0  0  0  0  0  0
  147.4793  137.6457  156.1831 H   0  0  0  0  0  0  0  0  0  0  0  0
  147.6239  137.9382  154.4816 H   0  0  0  0  0  0  0  0  0  0  0  0
  1  2  1  0  0  0  0
  1 31  1  0  0  0  0
  1 32  1  0  0  0  0
  1 33  1  0  0  0  0
  2  3  1  0  0  0  0
  3 30  1  0  0  0  0
  3  4  1  0  0  0  0
  3 34  1  0  0  0  0
  4  5  1  0  0  0  0
  4 35  1  0  0  0  0
  4 36  1  0  0  0  0
  5  6  1  0  0  0  0
  5 37  1  0  0  0  0
  5 38  1  0  0  0  0
  6 29  1  0  0  0  0
  6  7  1  0  0  0  0
  6 39  1  0  0  0  0
  7  8  1  0  0  0  0
  8  9  1  0  0  0  0
  8 40  1  0  0  0  0
  8 41  1  0  0  0  0
  9 10  1  0  0  0  0
  9 42  1  0  0  0  0
  9 43  1  0  0  0  0
 10 11  1  0  0  0  0
 10 29  1  0  0  0  0
 11 16  1  0  0  0  0
 11 12  2  0  0  0  0
 12 13  1  0  0  0  0
 13 14  2  0  0  0  0
 13 44  1  0  0  0  0
 14 15  1  0  0  0  0
 15 19  1  0  0  0  0
 15 16  2  0  0  0  0
 16 17  1  0  0  0  0
 17 18  2  0  0  0  0
 18 19  1  0  0  0  0
 18 45  1  0  0  0  0
 19 20  1  0  0  0  0
 20 21  1  0  0  0  0
 20 46  1  0  0  0  0
 20 47  1  0  0  0  0
 21 28  1  0  0  0  0
 21 22  1  0  0  0  0
 21 24  1  0  0  0  0
 22 23  1  0  0  0  0
 22 48  1  0  0  0  0
 22 49  1  0  0  0  0
 23 50  1  0  0  0  0
 24 25  1  0  0  0  0
 24 51  1  0  0  0  0
 24 52  1  0  0  0  0
 25 26  1  0  0  0  0
 25 53  1  0  0  0  0
 25 54  1  0  0  0  0
 26 27  1  0  0  0  0
 27 28  1  0  0  0  0
 27 55  1  0  0  0  0
 27 56  1  0  0  0  0
 28 57  1  0  0  0  0
 28 58  1  0  0  0  0
 29 30  1  0  0  0  0
 29 59  1  0  0  0  0
 30 60  1  0  0  0  0
 30 61  1  0  0  0  0
M  END
> <s_m_source_file>
AV-unprocessed.smi

> <i_m_source_file_index>
177

> <i_lp_mmshare_version>
43012

> <i_f3d_flags>
0

> <s_epik_input>
W0NIM11PW0NASF0oW0NIMl1bQ0gyXTEpW0NIMl1bQ0BIXShbQ0BASF0xMilOKFtDSDJdW0NIMl1PMiljKG5bY0hdbjMpYyhjMzQpbltjSF1uNFtDSDJdQzUoW0NIMl1bT0hdKVtDSDJdW0NIMl1PW0NIMl1bQ0gyXTU=

> <s_epik_cmdline>
J2VwaWtfcHl0aG9uJywgJy1waCcsICc3LjAnLCAnLXRuJywgJzgnLCAnLW1hJywgJzIwMCcsICctbWV0YWxfYmluZGluZycsICctaW1hZScsICc8aW5maWxlLm1hZT4nLCAnLW9tYWUnLCAnPG91dGZpbGUubWFlPic=

> <r_lp_tautomer_probability>
1

> <r_epik_Ionization_Penalty>
0.0065899

> <r_epik_Ionization_Penalty_Charging>
0

> <r_epik_Ionization_Penalty_Neutral>
0.0065899

> <r_epik_State_Penalty>
0.00470042

> <r_epik_Charging_Adjusted_Penalty>
0.00470042

> <i_epik_Tot_Q>
0

> <i_epik_Tot_abs_Q>
0

> <r_epik_Metal_State_Penalty>
-0

> <b_epik_Metal_Only>
0

> <s_lp_Force_Field>
OPLS_2005

> <r_lp_Energy>
42.9311

> <b_lp_Chiralities_Consistent>
1

> <s_lp_Variant>
AV-unprocessed.smi:177-2

> <Gold.Version>
5.8.1

> <Gold.Id.Protein>
6NUR|6NUR_protein|mol2

> <Gold.PLP.Fitness>
41.4769

> <Gold.PLP.PLP>
-36.5642

> <Gold.PLP.part.hbond>
-3.0000

> <Gold.PLP.part.metal>
0.0000

> <Gold.PLP.part.buried>
-5.2765

> <Gold.PLP.part.nonpolar>
-28.3416

> <Gold.PLP.part.repulsive>
0.2281

> <Gold.PLP.ligand.clash>
0.0000

> <Gold.PLP.ligand.torsion>
0.6207

> <Gold.PLP.Chemscore.Hbond>
2.0000

> <Gold.PLP.Chemscore.CHOScore>
0.0000

> <Gold.PLP.Chemscore.Metal>
0.0000

> <Gold.Chemscore.Hbonds>
donor molecule, donor type, donor heavy atom, donor atom, acceptor molecule, acceptor atom, score
      P1  H  6896  6909       L1    14  0.90
      P1  H  7989  7998       L1     7  1.00

> <Gold.PLP.Chemscore.Internal.Correction>
0.1542

> <Gold.Rescore>
     Score         DG    S(hbond)    S(metal)    S(lipo)     H(rot)  DE(clash)    DE(int)     intcor
      7.56     -12.08       0.74        0.00      91.80       2.58       1.32       3.20       ----

> <Gold.Chemscore.Fitness>
7.5582

> <Gold.Chemscore.DG>
-12.0823

> <Gold.Chemscore.ZeroCoef>
-5.4800

> <Gold.Chemscore.Hbond>
0.7388

> <Gold.Chemscore.Metal>
0.0000

> <Gold.Chemscore.Lipo>
91.8029

> <Gold.Chemscore.Internal_Hbond>
0.0000

> <Gold.Chemscore.DEClash>
1.3208

> <Gold.Chemscore.DEInternal>
3.2033

> <Gold.Chemscore.Rot>
2.5806

> <Gold.Chemscore.Internal.Correction>
   9.000000E+99

> <Gold.Chemscore.Hbonds>
donor molecule, donor type, donor heavy atom, donor atom, acceptor molecule, acceptor atom, score
      P1  H  6896  6909       L1    14  0.05
      P1  H  7989  7998       L1     7  0.41

> <Gold.Chemscore.Hbond.Weighted>
-2.4676

> <Gold.Chemscore.Metal.Weighted>
-0.0000

> <Gold.Chemscore.Lipo.Weighted>
-10.7409

> <Gold.Chemscore.Internal_Hbond.Weighted>
0.0000

> <Gold.Chemscore.DEClash.Weighted>
1.3208

> <Gold.Chemscore.DEInternal.Weighted>
3.2033

> <Gold.Chemscore.Rot.Weighted>
6.6062

> <Gold.Chemscore.Internal.Correction.Weighted>
   9.000000E+99

> <Gold.Protein.RotatedTorsions>
[ 6907 6896 6895 6894 ] final    9.07 input  -60.11 | X-H torsion
[ 7974 7965 7964 7962 ] final  100.24 input  175.53 | X-H torsion
[ 8008 7997 7996 7995 ] final  -60.22 input   59.86 | X-H torsion
[ 10167 10162 10161 10158 ] final -136.30 input  -65.29 | X-H torsion
[ 10718 10713 10712 10709 ] final  113.11 input   66.30 | X-H torsion
[ 10763 10752 10751 10750 ] final    8.94 input  -60.55 | X-H torsion
[ 11005 11000 10999 10996 ] final  148.31 input  -57.11 | X-H torsion

> <Gold.Protein.ActiveResidues>
 VAL166  LYS551  ARG553  GLY616  TRP617  ASP618  TYR619  PRO620  LYS621  CYS622 
 ASP623  PHE694  ASN695  SER759  ASP760  ASP761  ALA762  ILE779  LEU786  VAL792 
 PHE793  MET794  SER795  GLU796  ALA797  LYS798  CYS799  TRP800  GLU811  SER814 

> <Gold.Protein.RotatedAtoms>
  151.7162  135.0903  160.0275 H   0  0  0  0  0  0  0  0  0  0  0  0  # atno 6907 bound_to 6896
  152.3631  133.6317  159.6038 H   0  0  0  0  0  0  0  0  0  0  0  0  # atno 6908 bound_to 6896
  150.7618  133.9308  159.3468 H   0  0  0  0  0  0  0  0  0  0  0  0  # atno 6909 bound_to 6896
  145.3882  139.2367  143.3366 H   0  0  0  0  0  0  0  0  0  0  0  0  # atno 7974 bound_to 7965
  154.4389  140.1044  156.6240 H   0  0  0  0  0  0  0  0  0  0  0  0  # atno 8008 bound_to 7997
  155.5677  140.3488  155.4488 H   0  0  0  0  0  0  0  0  0  0  0  0  # atno 8009 bound_to 7997
  156.0413  140.1282  157.0142 H   0  0  0  0  0  0  0  0  0  0  0  0  # atno 8010 bound_to 7997
  139.8692  143.6979  152.2642 H   0  0  0  0  0  0  0  0  0  0  0  0  # atno 10167 bound_to 10162
  157.6356  131.0978  150.6994 H   0  0  0  0  0  0  0  0  0  0  0  0  # atno 10718 bound_to 10713
  153.2194  135.6879  153.8018 H   0  0  0  0  0  0  0  0  0  0  0  0  # atno 10763 bound_to 10752
  153.7222  135.3265  155.3270 H   0  0  0  0  0  0  0  0  0  0  0  0  # atno 10764 bound_to 10752
  154.8262  135.4616  154.1035 H   0  0  0  0  0  0  0  0  0  0  0  0  # atno 10765 bound_to 10752
  140.0949  134.9018  157.1708 H   0  0  0  0  0  0  0  0  0  0  0  0  # atno 11005 bound_to 11000
  146.2810  140.4561  142.8776 LP  0  0  0  0  0  0  0  0  0  0  0  0  # atno 17320 bound_to 7965
  144.8459  140.6928  143.6199 LP  0  0  0  0  0  0  0  0  0  0  0  0  # atno 17321 bound_to 7965
  139.7300  144.7584  151.0817 LP  0  0  0  0  0  0  0  0  0  0  0  0  # atno 17342 bound_to 10162
  140.7763  143.5100  150.9665 LP  0  0  0  0  0  0  0  0  0  0  0  0  # atno 17343 bound_to 10162
  156.7326  130.4714  149.5496 LP  0  0  0  0  0  0  0  0  0  0  0  0  # atno 17370 bound_to 10713
  156.1592  130.6362  151.0697 LP  0  0  0  0  0  0  0  0  0  0  0  0  # atno 17371 bound_to 10713
  140.3300  134.2820  155.7230 LP  0  0  0  0  0  0  0  0  0  0  0  0  # atno 17394 bound_to 11000
  141.2089  133.7764  157.0030 LP  0  0  0  0  0  0  0  0  0  0  0  0  # atno 17395 bound_to 11000

$$$$
