AV-unprocessed.smi:3344|AV-procd|sdf|12897|dock2
  -GOLD-   2272019303D 1   1.00000     0.00000
 Structure written by MMmdl.
 43 44  0  0  0  0  0  0  0  0  2 V2000
  149.4848  140.8551  155.0053 C   0  0  0  0  0  0  0  0  0  0  0  0
  149.3738  139.3898  154.5363 C   0  0  2  0  0  0  0  0  0  0  0  0
  148.0011  138.7635  154.8375 C   0  0  0  0  0  0  0  0  0  0  0  0
  147.1871  139.3402  155.5600 O   0  0  0  0  0  0  0  0  0  0  0  0
  147.7490  137.5767  154.2641 N   0  0  0  0  0  0  0  0  0  0  0  0
  146.5067  136.8333  154.4226 C   0  0  0  0  0  0  0  0  0  0  0  0
  145.7370  136.7795  153.0918 C   0  0  0  0  0  0  0  0  0  0  0  0
  146.2641  135.7479  152.1575 N   0  3  0  0  0  0  0  0  0  0  0  0
  145.7286  135.9075  150.7761 C   0  0  0  0  0  0  0  0  0  0  0  0
  144.3805  135.2053  150.5243 C   0  0  0  0  0  0  0  0  0  0  0  0
  144.5505  133.7686  150.0056 C   0  0  0  0  0  0  0  0  0  0  0  0
  145.0867  132.7838  151.0524 C   0  0  0  0  0  0  0  0  0  0  0  0
  146.4021  133.2230  151.7175 C   0  0  0  0  0  0  0  0  0  0  0  0
  146.2103  134.3705  152.7285 C   0  0  0  0  0  0  0  0  0  0  0  0
  150.4458  138.5630  155.0779 N   0  0  0  0  0  0  0  0  0  0  0  0
  151.3258  137.7793  154.4509 C   0  0  0  0  0  0  0  0  0  0  0  0
  152.1472  137.1319  155.2653 N   0  0  0  0  0  0  0  0  0  0  0  0
  151.6849  137.5898  156.4665 C   0  0  0  0  0  0  0  0  0  0  0  0
  150.6590  138.4388  156.4117 N   0  0  0  0  0  0  0  0  0  0  0  0
  148.7162  141.4765  154.5443 H   0  0  0  0  0  0  0  0  0  0  0  0
  150.4516  141.2778  154.7304 H   0  0  0  0  0  0  0  0  0  0  0  0
  149.3807  140.9479  156.0872 H   0  0  0  0  0  0  0  0  0  0  0  0
  149.4887  139.3907  153.4512 H   0  0  0  0  0  0  0  0  0  0  0  0
  148.4642  137.1660  153.6814 H   0  0  0  0  0  0  0  0  0  0  0  0
  146.7240  135.8210  154.7679 H   0  0  0  0  0  0  0  0  0  0  0  0
  145.9179  137.3235  155.1985 H   0  0  0  0  0  0  0  0  0  0  0  0
  144.6753  136.6032  153.2713 H   0  0  0  0  0  0  0  0  0  0  0  0
  145.8121  137.7630  152.6252 H   0  0  0  0  0  0  0  0  0  0  0  0
  145.6290  136.9691  150.5471 H   0  0  0  0  0  0  0  0  0  0  0  0
  146.4744  135.5469  150.0670 H   0  0  0  0  0  0  0  0  0  0  0  0
  143.7413  135.2351  151.4074 H   0  0  0  0  0  0  0  0  0  0  0  0
  143.8479  135.7675  149.7563 H   0  0  0  0  0  0  0  0  0  0  0  0
  143.5866  133.4038  149.6489 H   0  0  0  0  0  0  0  0  0  0  0  0
  145.2069  133.7691  149.1344 H   0  0  0  0  0  0  0  0  0  0  0  0
  144.3280  132.6111  151.8167 H   0  0  0  0  0  0  0  0  0  0  0  0
  145.2414  131.8191  150.5680 H   0  0  0  0  0  0  0  0  0  0  0  0
  146.7855  132.3623  152.2668 H   0  0  0  0  0  0  0  0  0  0  0  0
  147.1680  133.4588  150.9778 H   0  0  0  0  0  0  0  0  0  0  0  0
  147.0043  134.2976  153.4717 H   0  0  0  0  0  0  0  0  0  0  0  0
  145.2757  134.2261  153.2727 H   0  0  0  0  0  0  0  0  0  0  0  0
  151.3645  137.6767  153.3762 H   0  0  0  0  0  0  0  0  0  0  0  0
  152.1119  137.2821  157.4097 H   0  0  0  0  0  0  0  0  0  0  0  0
  147.2470  135.9606  152.0623 H   0  0  0  0  0  0  0  0  0  0  0  0
  1  2  1  0  0  0  0
  1 20  1  0  0  0  0
  1 21  1  0  0  0  0
  1 22  1  0  0  0  0
  2  3  1  0  0  0  0
  2 15  1  0  0  0  0
  2 23  1  0  0  0  0
  3  4  2  0  0  0  0
  3  5  1  0  0  0  0
  5  6  1  0  0  0  0
  5 24  1  0  0  0  0
  6  7  1  0  0  0  0
  6 25  1  0  0  0  0
  6 26  1  0  0  0  0
  7  8  1  0  0  0  0
  7 27  1  0  0  0  0
  7 28  1  0  0  0  0
  8 14  1  0  0  0  0
  8  9  1  0  0  0  0
  8 43  1  0  0  0  0
  9 10  1  0  0  0  0
  9 29  1  0  0  0  0
  9 30  1  0  0  0  0
 10 11  1  0  0  0  0
 10 31  1  0  0  0  0
 10 32  1  0  0  0  0
 11 12  1  0  0  0  0
 11 33  1  0  0  0  0
 11 34  1  0  0  0  0
 12 13  1  0  0  0  0
 12 35  1  0  0  0  0
 12 36  1  0  0  0  0
 13 14  1  0  0  0  0
 13 37  1  0  0  0  0
 13 38  1  0  0  0  0
 14 39  1  0  0  0  0
 14 40  1  0  0  0  0
 15 19  1  0  0  0  0
 15 16  1  0  0  0  0
 16 17  2  0  0  0  0
 16 41  1  0  0  0  0
 17 18  1  0  0  0  0
 18 19  2  0  0  0  0
 18 42  1  0  0  0  0
M  CHG  1   8   1
M  END
> <s_m_source_file>
AV-unprocessed.smi

> <i_m_source_file_index>
3344

> <i_lp_mmshare_version>
43012

> <i_f3d_flags>
0

> <s_epik_input>
bjFbY0hdbltjSF1uMVtDQEhdKFtDSDNdKUMoPU8pW05IXVtDSDJdW0NIMl1OMltDSDJdW0NIMl1bQ0gyXVtDSDJdW0NIMl1bQ0gyXTI=

> <s_epik_cmdline>
J2VwaWtfcHl0aG9uJywgJy1waCcsICc3LjAnLCAnLXRuJywgJzgnLCAnLW1hJywgJzIwMCcsICctbWV0YWxfYmluZGluZycsICctaW1hZScsICc8aW5maWxlLm1hZT4nLCAnLW9tYWUnLCAnPG91dGZpbGUubWFlPic=

> <r_lp_tautomer_probability>
1

> <r_epik_Ionization_Penalty>
0.00266407

> <r_epik_Ionization_Penalty_Charging>
0.00265606

> <r_epik_Ionization_Penalty_Neutral>
8.01095e-06

> <r_epik_State_Penalty>
0.00184955

> <r_epik_Charging_Adjusted_Penalty>
0.00450561

> <i_epik_Tot_Q>
1

> <i_epik_Tot_abs_Q>
1

> <r_epik_Metal_State_Penalty>
-0

> <b_epik_Metal_Only>
0

> <s_lp_Force_Field>
OPLS_2005

> <r_lp_Energy>
29.261

> <b_lp_Chiralities_Consistent>
1

> <s_lp_Variant>
AV-unprocessed.smi:3344-1

> <Gold.Version>
5.8.1

> <Gold.Id.Protein>
6NUR|6NUR_protein|mol2

> <Gold.PLP.Fitness>
44.6925

> <Gold.PLP.PLP>
-31.1867

> <Gold.PLP.part.hbond>
-3.0000

> <Gold.PLP.part.metal>
0.0000

> <Gold.PLP.part.buried>
-4.2543

> <Gold.PLP.part.nonpolar>
-24.0825

> <Gold.PLP.part.repulsive>
0.1215

> <Gold.PLP.ligand.clash>
0.0000

> <Gold.PLP.ligand.torsion>
0.4134

> <Gold.PLP.Chemscore.Hbond>
3.7200

> <Gold.PLP.Chemscore.CHOScore>
1.0000

> <Gold.PLP.Chemscore.Metal>
0.0000

> <Gold.Chemscore.Hbonds>
donor molecule, donor type, donor heavy atom, donor atom, acceptor molecule, acceptor atom, score
      L1  H     5    24       P1  7948  0.80
      L1  H     8    43       P1  7948  2.00
      P1  H 10752 10764       L1    17  0.86
      L1  C    16    41       P1  7949  0.99

> <Gold.PLP.Chemscore.Internal.Correction>
0.1727

> <Gold.Rescore>
     Score         DG    S(hbond)    S(metal)    S(lipo)     H(rot)  DE(clash)    DE(int)     intcor
     15.20     -15.79       2.90        0.00      60.82       2.54       0.16       0.43       ----

> <Gold.Chemscore.Fitness>
15.1969

> <Gold.Chemscore.DG>
-15.7850

> <Gold.Chemscore.ZeroCoef>
-5.4800

> <Gold.Chemscore.Hbond>
2.8997

> <Gold.Chemscore.Metal>
0.0000

> <Gold.Chemscore.Lipo>
60.8249

> <Gold.Chemscore.Internal_Hbond>
0.0000

> <Gold.Chemscore.DEClash>
0.1552

> <Gold.Chemscore.DEInternal>
0.4330

> <Gold.Chemscore.Rot>
2.5377

> <Gold.Chemscore.Internal.Correction>
   9.000000E+99

> <Gold.Chemscore.Hbonds>
donor molecule, donor type, donor heavy atom, donor atom, acceptor molecule, acceptor atom, score
      L1  H     5    24       P1  7948  0.76
      L1  H     8    43       P1  7948  1.00
      P1  H 10752 10764       L1    17  0.80

> <Gold.Chemscore.Hbond.Weighted>
-9.6851

> <Gold.Chemscore.Metal.Weighted>
-0.0000

> <Gold.Chemscore.Lipo.Weighted>
-7.1165

> <Gold.Chemscore.Internal_Hbond.Weighted>
0.0000

> <Gold.Chemscore.DEClash.Weighted>
0.1552

> <Gold.Chemscore.DEInternal.Weighted>
0.4330

> <Gold.Chemscore.Rot.Weighted>
6.4966

> <Gold.Chemscore.Internal.Correction.Weighted>
   9.000000E+99

> <Gold.Protein.RotatedTorsions>
[ 6907 6896 6895 6894 ] final  -13.41 input  -60.11 | X-H torsion
[ 7974 7965 7964 7962 ] final   75.32 input  175.53 | X-H torsion
[ 8008 7997 7996 7995 ] final -174.50 input   59.86 | X-H torsion
[ 10167 10162 10161 10158 ] final  119.00 input  -65.29 | X-H torsion
[ 10718 10713 10712 10709 ] final -111.25 input   66.30 | X-H torsion
[ 10763 10752 10751 10750 ] final  -59.12 input  -60.55 | X-H torsion
[ 11005 11000 10999 10996 ] final  126.58 input  -57.11 | X-H torsion

> <Gold.Protein.ActiveResidues>
 VAL166  LYS551  ARG553  GLY616  TRP617  ASP618  TYR619  PRO620  LYS621  CYS622 
 ASP623  PHE694  ASN695  SER759  ASP760  ASP761  ALA762  ILE779  LEU786  VAL792 
 PHE793  MET794  SER795  GLU796  ALA797  LYS798  CYS799  TRP800  GLU811  SER814 

> <Gold.Protein.RotatedAtoms>
  151.3553  135.0893  159.9416 H   0  0  0  0  0  0  0  0  0  0  0  0  # atno 6907 bound_to 6896
  152.5176  133.9311  159.7591 H   0  0  0  0  0  0  0  0  0  0  0  0  # atno 6908 bound_to 6896
  150.9695  133.6305  159.2770 H   0  0  0  0  0  0  0  0  0  0  0  0  # atno 6909 bound_to 6896
  145.7171  139.2635  143.1617 H   0  0  0  0  0  0  0  0  0  0  0  0  # atno 7974 bound_to 7965
  155.9709  140.1163  157.0813 H   0  0  0  0  0  0  0  0  0  0  0  0  # atno 8008 bound_to 7997
  154.4156  140.1163  156.5373 H   0  0  0  0  0  0  0  0  0  0  0  0  # atno 8009 bound_to 7997
  155.6598  140.3473  155.4780 H   0  0  0  0  0  0  0  0  0  0  0  0  # atno 8010 bound_to 7997
  139.6074  144.7073  151.2921 H   0  0  0  0  0  0  0  0  0  0  0  0  # atno 10167 bound_to 10162
  156.0637  130.5858  150.8348 H   0  0  0  0  0  0  0  0  0  0  0  0  # atno 10718 bound_to 10713
  154.2488  135.6330  153.5233 H   0  0  0  0  0  0  0  0  0  0  0  0  # atno 10763 bound_to 10752
  152.9916  135.5560  154.5830 H   0  0  0  0  0  0  0  0  0  0  0  0  # atno 10764 bound_to 10752
  154.5353  135.2891  155.1119 H   0  0  0  0  0  0  0  0  0  0  0  0  # atno 10765 bound_to 10752
  139.9463  134.9629  156.8728 H   0  0  0  0  0  0  0  0  0  0  0  0  # atno 11005 bound_to 11000
  146.0659  140.7921  142.9712 LP  0  0  0  0  0  0  0  0  0  0  0  0  # atno 17320 bound_to 7965
  144.6926  140.3268  143.7223 LP  0  0  0  0  0  0  0  0  0  0  0  0  # atno 17321 bound_to 7965
  140.7295  143.6906  150.7925 LP  0  0  0  0  0  0  0  0  0  0  0  0  # atno 17342 bound_to 10162
  140.0494  143.5265  152.2680 LP  0  0  0  0  0  0  0  0  0  0  0  0  # atno 17343 bound_to 10162
  157.5663  131.0946  150.9484 LP  0  0  0  0  0  0  0  0  0  0  0  0  # atno 17370 bound_to 10713
  156.9710  130.5491  149.5290 LP  0  0  0  0  0  0  0  0  0  0  0  0  # atno 17371 bound_to 10713
  140.5826  134.0337  155.7470 LP  0  0  0  0  0  0  0  0  0  0  0  0  # atno 17394 bound_to 11000
  141.1114  133.9610  157.2902 LP  0  0  0  0  0  0  0  0  0  0  0  0  # atno 17395 bound_to 11000

$$$$
