AV-unprocessed.smi:2142|AV-procd|sdf|8721|dock2
  -GOLD-   2272011483D 1   1.00000     0.00000
 Structure written by MMmdl.
 39 40  0  0  0  0  0  0  0  0  2 V2000
  143.7734  146.3212  154.7265 C   0  0  0  0  0  0  0  0  0  0  0  0
  144.3455  145.1141  154.2543 O   0  0  0  0  0  0  0  0  0  0  0  0
  144.4761  144.1392  155.2757 C   0  0  0  0  0  0  0  0  0  0  0  0
  145.3175  142.9699  154.7549 C   0  0  0  0  0  0  0  0  0  0  0  0
  145.8578  142.2589  155.8648 O   0  0  0  0  0  0  0  0  0  0  0  0
  147.1757  141.8534  155.8079 C   0  0  0  0  0  0  0  0  0  0  0  0
  147.8202  141.8303  154.5565 C   0  0  0  0  0  0  0  0  0  0  0  0
  149.1619  141.4091  154.4953 C   0  0  0  0  0  0  0  0  0  0  0  0
  149.8292  141.0182  155.6770 C   0  0  0  0  0  0  0  0  0  0  0  0
  151.1077  140.6091  155.6600 N   0  5  0  0  0  0  0  0  0  0  0  0
  151.8021  140.4708  156.8216 C   0  0  0  0  0  0  0  0  0  0  0  0
  152.3659  139.4317  157.1736 O   0  0  0  0  0  0  0  0  0  0  0  0
  151.9057  141.6235  157.7618 C   0  0  0  0  0  0  0  0  0  0  0  0
  152.4434  141.4517  158.9290 N   0  0  0  0  0  0  0  0  0  0  0  0
  152.5871  142.4845  159.8324 N   0  0  0  0  0  0  0  0  0  0  0  0
  153.4506  142.1851  160.9727 C   0  0  0  0  0  0  0  0  0  0  0  0
  151.9736  143.6892  159.7295 C   0  0  0  0  0  0  0  0  0  0  0  0
  152.1259  144.6062  160.5367 O   0  0  0  0  0  0  0  0  0  0  0  0
  151.0209  143.8705  158.5452 C   0  0  0  0  0  0  0  0  0  0  0  0
  151.4177  142.9977  157.3384 C   0  0  0  0  0  0  0  0  0  0  0  0
  149.0880  141.0890  156.8784 C   0  0  0  0  0  0  0  0  0  0  0  0
  147.8011  141.4904  156.9537 N   0  0  0  0  0  0  0  0  0  0  0  0
  143.6894  147.0328  153.9051 H   0  0  0  0  0  0  0  0  0  0  0  0
  144.3920  146.7739  155.5026 H   0  0  0  0  0  0  0  0  0  0  0  0
  142.7738  146.1527  155.1294 H   0  0  0  0  0  0  0  0  0  0  0  0
  144.9741  144.5876  156.1364 H   0  0  0  0  0  0  0  0  0  0  0  0
  143.4985  143.7874  155.6093 H   0  0  0  0  0  0  0  0  0  0  0  0
  144.7108  142.3195  154.1228 H   0  0  0  0  0  0  0  0  0  0  0  0
  146.1331  143.3639  154.1464 H   0  0  0  0  0  0  0  0  0  0  0  0
  147.2962  142.1267  153.6602 H   0  0  0  0  0  0  0  0  0  0  0  0
  149.6733  141.3821  153.5439 H   0  0  0  0  0  0  0  0  0  0  0  0
  152.8948  142.2660  161.9078 H   0  0  0  0  0  0  0  0  0  0  0  0
  154.2896  142.8810  161.0115 H   0  0  0  0  0  0  0  0  0  0  0  0
  153.8626  141.1759  160.9198 H   0  0  0  0  0  0  0  0  0  0  0  0
  150.0220  143.5940  158.8844 H   0  0  0  0  0  0  0  0  0  0  0  0
  150.9757  144.9209  158.2558 H   0  0  0  0  0  0  0  0  0  0  0  0
  152.1983  143.4933  156.7602 H   0  0  0  0  0  0  0  0  0  0  0  0
  150.5518  142.9161  156.6805 H   0  0  0  0  0  0  0  0  0  0  0  0
  149.5436  140.8081  157.8170 H   0  0  0  0  0  0  0  0  0  0  0  0
  1  2  1  0  0  0  0
  1 23  1  0  0  0  0
  1 24  1  0  0  0  0
  1 25  1  0  0  0  0
  2  3  1  0  0  0  0
  3  4  1  0  0  0  0
  3 26  1  0  0  0  0
  3 27  1  0  0  0  0
  4  5  1  0  0  0  0
  4 28  1  0  0  0  0
  4 29  1  0  0  0  0
  5  6  1  0  0  0  0
  6 22  1  0  0  0  0
  6  7  2  0  0  0  0
  7  8  1  0  0  0  0
  7 30  1  0  0  0  0
  8  9  2  0  0  0  0
  8 31  1  0  0  0  0
  9 10  1  0  0  0  0
  9 21  1  0  0  0  0
 10 11  1  0  0  0  0
 11 12  2  0  0  0  0
 11 13  1  0  0  0  0
 13 20  1  0  0  0  0
 13 14  2  0  0  0  0
 14 15  1  0  0  0  0
 15 16  1  0  0  0  0
 15 17  1  0  0  0  0
 16 32  1  0  0  0  0
 16 33  1  0  0  0  0
 16 34  1  0  0  0  0
 17 18  2  0  0  0  0
 17 19  1  0  0  0  0
 19 20  1  0  0  0  0
 19 35  1  0  0  0  0
 19 36  1  0  0  0  0
 20 37  1  0  0  0  0
 20 38  1  0  0  0  0
 21 22  2  0  0  0  0
 21 39  1  0  0  0  0
M  CHG  1  10  -1
M  END
> <s_m_source_file>
AV-unprocessed.smi

> <i_m_source_file_index>
2142

> <i_lp_mmshare_version>
43012

> <i_f3d_flags>
0

> <s_epik_input>
W0NIM11PW0NIMl1bQ0gyXU9jMVtjSF1bY0hdYyhbY0hdbjEpW05IXUMoPU8pQzI9Tk4oW0NIM10pQyg9TylbQ0gyXVtDSDJdMg==

> <s_epik_cmdline>
J2VwaWtfcHl0aG9uJywgJy1waCcsICc3LjAnLCAnLXRuJywgJzgnLCAnLW1hJywgJzIwMCcsICctbWV0YWxfYmluZGluZycsICctaW1hZScsICc8aW5maWxlLm1hZT4nLCAnLW9tYWUnLCAnPG91dGZpbGUubWFlPic=

> <r_lp_tautomer_probability>
1

> <r_epik_Ionization_Penalty>
5.98992

> <r_epik_Ionization_Penalty_Charging>
5.98968

> <r_epik_Ionization_Penalty_Neutral>
0.000245408

> <r_epik_State_Penalty>
5.98965

> <r_epik_Charging_Adjusted_Penalty>
11.9793

> <i_epik_Tot_Q>
-1

> <i_epik_Tot_abs_Q>
1

> <r_epik_Metal_State_Penalty>
1.94325

> <b_epik_Metal_Only>
1

> <s_epik_Chemistry_Notes>
This compound has an imine and may undergo hydrolysis.

> <s_lp_Force_Field>
OPLS_2005

> <r_lp_Energy>
19.7207

> <b_lp_Chiralities_Consistent>
1

> <s_lp_Variant>
AV-unprocessed.smi:2142-2

> <Gold.Version>
5.8.1

> <Gold.Id.Protein>
6NUR|6NUR_protein|mol2

> <Gold.PLP.Fitness>
43.5876

> <Gold.PLP.PLP>
-39.7641

> <Gold.PLP.part.hbond>
-1.9815

> <Gold.PLP.part.metal>
0.0000

> <Gold.PLP.part.buried>
-5.0431

> <Gold.PLP.part.nonpolar>
-32.4369

> <Gold.PLP.part.repulsive>
0.4685

> <Gold.PLP.ligand.clash>
0.0000

> <Gold.PLP.ligand.torsion>
1.2219

> <Gold.PLP.Chemscore.Hbond>
1.7913

> <Gold.PLP.Chemscore.CHOScore>
0.0000

> <Gold.PLP.Chemscore.Metal>
0.0000

> <Gold.Chemscore.Hbonds>
donor molecule, donor type, donor heavy atom, donor atom, acceptor molecule, acceptor atom, score
      P1  H  7989  7998       L1    10  0.43
      P1  H  7997  8009       L1    12  0.48

> <Gold.PLP.Chemscore.Internal.Correction>
0.8936

> <Gold.Rescore>
     Score         DG    S(hbond)    S(metal)    S(lipo)     H(rot)  DE(clash)    DE(int)     intcor
     10.93     -12.98       0.68        0.00      81.99       1.71       0.23       1.82       ----

> <Gold.Chemscore.Fitness>
10.9304

> <Gold.Chemscore.DG>
-12.9758

> <Gold.Chemscore.ZeroCoef>
-5.4800

> <Gold.Chemscore.Hbond>
0.6819

> <Gold.Chemscore.Metal>
0.0000

> <Gold.Chemscore.Lipo>
81.9856

> <Gold.Chemscore.Internal_Hbond>
0.0000

> <Gold.Chemscore.DEClash>
0.2303

> <Gold.Chemscore.DEInternal>
1.8151

> <Gold.Chemscore.Rot>
1.7087

> <Gold.Chemscore.Internal.Correction>
   9.000000E+99

> <Gold.Chemscore.Hbonds>
donor molecule, donor type, donor heavy atom, donor atom, acceptor molecule, acceptor atom, score
      P1  H  7989  7998       L1    10  0.14
      P1  H  7997  8009       L1    12  0.06

> <Gold.Chemscore.Hbond.Weighted>
-2.2776

> <Gold.Chemscore.Metal.Weighted>
-0.0000

> <Gold.Chemscore.Lipo.Weighted>
-9.5923

> <Gold.Chemscore.Internal_Hbond.Weighted>
0.0000

> <Gold.Chemscore.DEClash.Weighted>
0.2303

> <Gold.Chemscore.DEInternal.Weighted>
1.8151

> <Gold.Chemscore.Rot.Weighted>
4.3742

> <Gold.Chemscore.Internal.Correction.Weighted>
   9.000000E+99

> <Gold.Protein.RotatedTorsions>
[ 6907 6896 6895 6894 ] final  -58.28 input  -60.11 | X-H torsion
[ 7974 7965 7964 7962 ] final  -97.69 input  175.53 | X-H torsion
[ 8008 7997 7996 7995 ] final -177.65 input   59.86 | X-H torsion
[ 10167 10162 10161 10158 ] final  -26.38 input  -65.29 | X-H torsion
[ 10718 10713 10712 10709 ] final    6.36 input   66.30 | X-H torsion
[ 10763 10752 10751 10750 ] final   88.68 input  -60.55 | X-H torsion
[ 11005 11000 10999 10996 ] final -156.87 input  -57.11 | X-H torsion

> <Gold.Protein.ActiveResidues>
 VAL166  LYS551  ARG553  GLY616  TRP617  ASP618  TYR619  PRO620  LYS621  CYS622 
 ASP623  PHE694  ASN695  SER759  ASP760  ASP761  ALA762  ILE779  LEU786  VAL792 
 PHE793  MET794  SER795  GLU796  ALA797  LYS798  CYS799  TRP800  GLU811  SER814 

> <Gold.Protein.RotatedAtoms>
  150.8019  134.7119  159.6608 H   0  0  0  0  0  0  0  0  0  0  0  0  # atno 6907 bound_to 6896
  152.4137  134.6077  160.0027 H   0  0  0  0  0  0  0  0  0  0  0  0  # atno 6908 bound_to 6896
  151.6312  133.3295  159.3145 H   0  0  0  0  0  0  0  0  0  0  0  0  # atno 6909 bound_to 6896
  145.3304  140.9440  143.2665 H   0  0  0  0  0  0  0  0  0  0  0  0  # atno 7974 bound_to 7965
  156.0094  140.1237  157.0469 H   0  0  0  0  0  0  0  0  0  0  0  0  # atno 8008 bound_to 7997
  154.4270  140.1091  156.5878 H   0  0  0  0  0  0  0  0  0  0  0  0  # atno 8009 bound_to 7997
  155.6101  140.3471  155.4622 H   0  0  0  0  0  0  0  0  0  0  0  0  # atno 8010 bound_to 7997
  140.7283  143.4183  151.0992 H   0  0  0  0  0  0  0  0  0  0  0  0  # atno 10167 bound_to 10162
  156.9211  130.5791  149.5648 H   0  0  0  0  0  0  0  0  0  0  0  0  # atno 10718 bound_to 10713
  153.1793  135.4498  155.0006 H   0  0  0  0  0  0  0  0  0  0  0  0  # atno 10763 bound_to 10752
  154.8019  135.3259  154.7531 H   0  0  0  0  0  0  0  0  0  0  0  0  # atno 10764 bound_to 10752
  153.7997  135.6963  153.4912 H   0  0  0  0  0  0  0  0  0  0  0  0  # atno 10765 bound_to 10752
  140.6709  134.4249  157.5231 H   0  0  0  0  0  0  0  0  0  0  0  0  # atno 11005 bound_to 11000
  144.8868  139.4828  143.6697 LP  0  0  0  0  0  0  0  0  0  0  0  0  # atno 17320 bound_to 7965
  146.3047  139.7542  142.9065 LP  0  0  0  0  0  0  0  0  0  0  0  0  # atno 17321 bound_to 7965
  139.7826  143.8334  152.3140 LP  0  0  0  0  0  0  0  0  0  0  0  0  # atno 17342 bound_to 10162
  139.8290  144.7262  150.9475 LP  0  0  0  0  0  0  0  0  0  0  0  0  # atno 17343 bound_to 10162
  156.0491  130.5563  150.8948 LP  0  0  0  0  0  0  0  0  0  0  0  0  # atno 17370 bound_to 10713
  157.5907  131.0944  150.9123 LP  0  0  0  0  0  0  0  0  0  0  0  0  # atno 17371 bound_to 10713
  139.8982  134.8619  156.2012 LP  0  0  0  0  0  0  0  0  0  0  0  0  # atno 17394 bound_to 11000
  141.0393  133.6946  156.1569 LP  0  0  0  0  0  0  0  0  0  0  0  0  # atno 17395 bound_to 11000

$$$$
