AV-unprocessed.smi:2592|AV-procd|sdf|10162|dock10
  -GOLD-   2272014173D 1   1.00000     0.00000
 Structure written by MMmdl.
 41 42  0  0  0  0  0  0  0  0  2 V2000
  151.9496  144.1961  159.6739 C   0  0  0  0  0  0  0  0  0  0  0  0
  152.6722  142.9758  160.1552 C   0  0  0  0  0  0  0  0  0  0  0  0
  153.0380  141.9839  159.2418 N   0  0  0  0  0  0  0  0  0  0  0  0
  153.6830  140.9539  159.7982 C   0  0  0  0  0  0  0  0  0  0  0  0
  154.1141  139.8935  159.0954 N   0  5  0  0  0  0  0  0  0  0  0  0
  154.6640  138.8358  159.7342 C   0  0  0  0  0  0  0  0  0  0  0  0
  155.8475  138.4910  159.6924 O   0  0  0  0  0  0  0  0  0  0  0  0
  153.7887  138.1366  160.4712 N   0  0  0  0  0  0  0  0  0  0  0  0
  154.0969  136.9606  161.2778 C   0  0  0  0  0  0  0  0  0  0  0  0
  154.6510  137.3510  162.6574 C   0  0  0  0  0  0  0  0  0  0  0  0
  154.1381  136.4240  163.7723 C   0  0  0  0  0  0  0  0  0  0  0  0
  154.8374  135.1447  163.8854 N   0  0  0  0  0  0  0  0  0  0  0  0
  154.2647  134.3304  164.9519 C   0  0  0  0  0  0  0  0  0  0  0  0
  154.9809  132.9759  165.0909 C   0  0  0  0  0  0  0  0  0  0  0  0
  154.9321  132.2828  163.8484 O   0  0  0  0  0  0  0  0  0  0  0  0
  155.5226  133.0223  162.7845 C   0  0  0  0  0  0  0  0  0  0  0  0
  154.8132  134.3799  162.6398 C   0  0  0  0  0  0  0  0  0  0  0  0
  153.8611  141.1545  161.5417 S   0  0  0  0  0  0  0  0  0  0  0  0
  153.0376  142.6880  161.4469 C   0  0  0  0  0  0  0  0  0  0  0  0
  152.8091  143.5124  162.6697 C   0  0  0  0  0  0  0  0  0  0  0  0
  150.9096  144.1887  160.0005 H   0  0  0  0  0  0  0  0  0  0  0  0
  151.9533  144.2644  158.5855 H   0  0  0  0  0  0  0  0  0  0  0  0
  152.4116  145.1047  160.0606 H   0  0  0  0  0  0  0  0  0  0  0  0
  152.8301  138.4533  160.4737 H   0  0  0  0  0  0  0  0  0  0  0  0
  153.1791  136.3844  161.3955 H   0  0  0  0  0  0  0  0  0  0  0  0
  154.8016  136.3168  160.7492 H   0  0  0  0  0  0  0  0  0  0  0  0
  155.7399  137.3273  162.6214 H   0  0  0  0  0  0  0  0  0  0  0  0
  154.3698  138.3805  162.8831 H   0  0  0  0  0  0  0  0  0  0  0  0
  154.2377  136.9604  164.7172 H   0  0  0  0  0  0  0  0  0  0  0  0
  153.0693  136.2499  163.6386 H   0  0  0  0  0  0  0  0  0  0  0  0
  154.3239  134.8667  165.8998 H   0  0  0  0  0  0  0  0  0  0  0  0
  153.2048  134.1583  164.7574 H   0  0  0  0  0  0  0  0  0  0  0  0
  156.0185  133.1160  165.3976 H   0  0  0  0  0  0  0  0  0  0  0  0
  154.4989  132.3688  165.8571 H   0  0  0  0  0  0  0  0  0  0  0  0
  156.5876  133.1622  162.9768 H   0  0  0  0  0  0  0  0  0  0  0  0
  155.4367  132.4490  161.8614 H   0  0  0  0  0  0  0  0  0  0  0  0
  153.7811  134.2159  162.3261 H   0  0  0  0  0  0  0  0  0  0  0  0
  155.2980  134.9395  161.8406 H   0  0  0  0  0  0  0  0  0  0  0  0
  153.5147  144.3422  162.7117 H   0  0  0  0  0  0  0  0  0  0  0  0
  152.9337  142.9172  163.5746 H   0  0  0  0  0  0  0  0  0  0  0  0
  151.8001  143.9252  162.6777 H   0  0  0  0  0  0  0  0  0  0  0  0
  1  2  1  0  0  0  0
  1 21  1  0  0  0  0
  1 22  1  0  0  0  0
  1 23  1  0  0  0  0
  2 19  2  0  0  0  0
  2  3  1  0  0  0  0
  3  4  2  0  0  0  0
  4  5  1  0  0  0  0
  4 18  1  0  0  0  0
  5  6  1  0  0  0  0
  6  7  2  0  0  0  0
  6  8  1  0  0  0  0
  8  9  1  0  0  0  0
  8 24  1  0  0  0  0
  9 10  1  0  0  0  0
  9 25  1  0  0  0  0
  9 26  1  0  0  0  0
 10 11  1  0  0  0  0
 10 27  1  0  0  0  0
 10 28  1  0  0  0  0
 11 12  1  0  0  0  0
 11 29  1  0  0  0  0
 11 30  1  0  0  0  0
 12 17  1  0  0  0  0
 12 13  1  0  0  0  0
 13 14  1  0  0  0  0
 13 31  1  0  0  0  0
 13 32  1  0  0  0  0
 14 15  1  0  0  0  0
 14 33  1  0  0  0  0
 14 34  1  0  0  0  0
 15 16  1  0  0  0  0
 16 17  1  0  0  0  0
 16 35  1  0  0  0  0
 16 36  1  0  0  0  0
 17 37  1  0  0  0  0
 17 38  1  0  0  0  0
 18 19  1  0  0  0  0
 19 20  1  0  0  0  0
 20 39  1  0  0  0  0
 20 40  1  0  0  0  0
 20 41  1  0  0  0  0
M  CHG  1   5  -1
M  END
> <s_m_source_file>
AV-unprocessed.smi

> <i_m_source_file_index>
2592

> <i_lp_mmshare_version>
43012

> <i_f3d_flags>
0

> <s_epik_input>
W0NIM11jMW5jKHNjMVtDSDNdKVtOSF1DKD1PKVtOSF1bQ0gyXVtDSDJdW0NIMl1OMltDSDJdW0NIMl1PW0NIMl1bQ0gyXTI=

> <s_epik_cmdline>
J2VwaWtfcHl0aG9uJywgJy1waCcsICc3LjAnLCAnLXRuJywgJzgnLCAnLW1hJywgJzIwMCcsICctbWV0YWxfYmluZGluZycsICctaW1hZScsICc8aW5maWxlLm1hZT4nLCAnLW9tYWUnLCAnPG91dGZpbGUubWFlPic=

> <r_lp_tautomer_probability>
0.999

> <r_epik_Ionization_Penalty>
8.38414

> <r_epik_Ionization_Penalty_Charging>
6.24826

> <r_epik_Ionization_Penalty_Neutral>
2.13587

> <r_epik_State_Penalty>
6.83636

> <r_epik_Charging_Adjusted_Penalty>
13.0846

> <i_epik_Tot_Q>
-1

> <i_epik_Tot_abs_Q>
1

> <r_epik_Metal_State_Penalty>
2.77797

> <b_epik_Metal_Only>
1

> <s_lp_Force_Field>
OPLS_2005

> <r_lp_Energy>
16.0962

> <b_lp_Chiralities_Consistent>
1

> <s_lp_Variant>
AV-unprocessed.smi:2592-4

> <Gold.Version>
5.8.1

> <Gold.Id.Protein>
6NUR|6NUR_protein|mol2

> <Gold.PLP.Fitness>
45.3243

> <Gold.PLP.PLP>
-41.5567

> <Gold.PLP.part.hbond>
-1.0000

> <Gold.PLP.part.metal>
0.0000

> <Gold.PLP.part.buried>
-3.5354

> <Gold.PLP.part.nonpolar>
-36.9845

> <Gold.PLP.part.repulsive>
0.1007

> <Gold.PLP.ligand.clash>
0.0000

> <Gold.PLP.ligand.torsion>
1.1881

> <Gold.PLP.Chemscore.Hbond>
2.0000

> <Gold.PLP.Chemscore.CHOScore>
0.0000

> <Gold.PLP.Chemscore.Metal>
0.0000

> <Gold.Chemscore.Hbonds>
donor molecule, donor type, donor heavy atom, donor atom, acceptor molecule, acceptor atom, score
      P1  H  7997  8010       L1     5  2.00

> <Gold.PLP.Chemscore.Internal.Correction>
0.1438

> <Gold.Rescore>
     Score         DG    S(hbond)    S(metal)    S(lipo)     H(rot)  DE(clash)    DE(int)     intcor
     14.69     -16.97       0.90        0.00     108.44       1.65       0.16       2.12       ----

> <Gold.Chemscore.Fitness>
14.6897

> <Gold.Chemscore.DG>
-16.9679

> <Gold.Chemscore.ZeroCoef>
-5.4800

> <Gold.Chemscore.Hbond>
0.9018

> <Gold.Chemscore.Metal>
0.0000

> <Gold.Chemscore.Lipo>
108.4431

> <Gold.Chemscore.Internal_Hbond>
0.0000

> <Gold.Chemscore.DEClash>
0.1570

> <Gold.Chemscore.DEInternal>
2.1212

> <Gold.Chemscore.Rot>
1.6452

> <Gold.Chemscore.Internal.Correction>
   9.000000E+99

> <Gold.Chemscore.Hbonds>
donor molecule, donor type, donor heavy atom, donor atom, acceptor molecule, acceptor atom, score
      P1  H  7997  8010       L1     5  0.62

> <Gold.Chemscore.Hbond.Weighted>
-3.0119

> <Gold.Chemscore.Metal.Weighted>
-0.0000

> <Gold.Chemscore.Lipo.Weighted>
-12.6878

> <Gold.Chemscore.Internal_Hbond.Weighted>
0.0000

> <Gold.Chemscore.DEClash.Weighted>
0.1570

> <Gold.Chemscore.DEInternal.Weighted>
2.1212

> <Gold.Chemscore.Rot.Weighted>
4.2118

> <Gold.Chemscore.Internal.Correction.Weighted>
   9.000000E+99

> <Gold.Protein.RotatedTorsions>
[ 6907 6896 6895 6894 ] final  -34.38 input  -60.11 | X-H torsion
[ 7974 7965 7964 7962 ] final -145.48 input  175.53 | X-H torsion
[ 8008 7997 7996 7995 ] final    8.62 input   59.86 | X-H torsion
[ 10167 10162 10161 10158 ] final   36.57 input  -65.29 | X-H torsion
[ 10718 10713 10712 10709 ] final  149.79 input   66.30 | X-H torsion
[ 10763 10752 10751 10750 ] final    0.30 input  -60.55 | X-H torsion
[ 11005 11000 10999 10996 ] final  140.82 input  -57.11 | X-H torsion

> <Gold.Protein.ActiveResidues>
 VAL166  LYS551  ARG553  GLY616  TRP617  ASP618  TYR619  PRO620  LYS621  CYS622 
 ASP623  PHE694  ASN695  SER759  ASP760  ASP761  ALA762  ILE779  LEU786  VAL792 
 PHE793  MET794  SER795  GLU796  ALA797  LYS798  CYS799  TRP800  GLU811  SER814 

> <Gold.Protein.RotatedAtoms>
  151.0534  134.9688  159.8222 H   0  0  0  0  0  0  0  0  0  0  0  0  # atno 6907 bound_to 6896
  152.5384  134.2508  159.8908 H   0  0  0  0  0  0  0  0  0  0  0  0  # atno 6908 bound_to 6896
  151.2525  133.4300  159.2646 H   0  0  0  0  0  0  0  0  0  0  0  0  # atno 6909 bound_to 6896
  144.8225  140.5578  143.5569 H   0  0  0  0  0  0  0  0  0  0  0  0  # atno 7974 bound_to 7965
  154.7693  140.2799  155.6151 H   0  0  0  0  0  0  0  0  0  0  0  0  # atno 8008 bound_to 7997
  156.2930  140.2644  156.2418 H   0  0  0  0  0  0  0  0  0  0  0  0  # atno 8009 bound_to 7997
  154.9920  140.0373  157.2313 H   0  0  0  0  0  0  0  0  0  0  0  0  # atno 8010 bound_to 7997
  140.4115  144.1586  150.6140 H   0  0  0  0  0  0  0  0  0  0  0  0  # atno 10167 bound_to 10162
  157.2917  131.0854  151.1457 H   0  0  0  0  0  0  0  0  0  0  0  0  # atno 10718 bound_to 10713
  153.3224  135.6970  153.7019 H   0  0  0  0  0  0  0  0  0  0  0  0  # atno 10763 bound_to 10752
  153.5854  135.3490  155.2891 H   0  0  0  0  0  0  0  0  0  0  0  0  # atno 10764 bound_to 10752
  154.8600  135.4305  154.2391 H   0  0  0  0  0  0  0  0  0  0  0  0  # atno 10765 bound_to 10752
  140.0355  134.9331  157.0745 H   0  0  0  0  0  0  0  0  0  0  0  0  # atno 11005 bound_to 11000
  145.5074  139.1480  143.3624 LP  0  0  0  0  0  0  0  0  0  0  0  0  # atno 17320 bound_to 7965
  146.2530  140.5214  142.8885 LP  0  0  0  0  0  0  0  0  0  0  0  0  # atno 17321 bound_to 7965
  140.4632  143.2441  151.9191 LP  0  0  0  0  0  0  0  0  0  0  0  0  # atno 17342 bound_to 10162
  139.4782  144.5446  151.8478 LP  0  0  0  0  0  0  0  0  0  0  0  0  # atno 17343 bound_to 10162
  157.2850  130.6768  149.6085 LP  0  0  0  0  0  0  0  0  0  0  0  0  # atno 17370 bound_to 10713
  155.9667  130.4438  150.5436 LP  0  0  0  0  0  0  0  0  0  0  0  0  # atno 17371 bound_to 10713
  140.4154  134.1936  155.7163 LP  0  0  0  0  0  0  0  0  0  0  0  0  # atno 17394 bound_to 11000
  141.1855  133.8322  157.1102 LP  0  0  0  0  0  0  0  0  0  0  0  0  # atno 17395 bound_to 11000

$$$$
