AV-unprocessed.smi:3316|AV-procd|sdf|12755|dock10
  -GOLD-   2272019 93D 1   1.00000     0.00000
 Structure written by MMmdl.
 41 43  0  0  0  0  0  0  0  0  2 V2000
  147.9544  140.5333  153.6590 C   0  0  0  0  0  0  0  0  0  0  0  0
  148.1111  141.6770  154.6732 C   0  0  2  0  0  0  0  0  0  0  0  0
  148.8611  141.2114  155.9368 C   0  0  0  0  0  0  0  0  0  0  0  0
  149.2887  142.3556  156.7680 N   0  3  0  0  0  0  0  0  0  0  0  0
  150.6464  142.2201  157.3309 C   0  0  0  0  0  0  0  0  0  0  0  0
  150.8166  143.0813  158.6047 C   0  0  1  0  0  0  0  0  0  0  0  0
  152.1127  142.7636  159.4215 C   0  0  0  0  0  0  0  0  0  0  0  0
  152.8247  144.1329  159.5034 C   0  0  2  0  0  0  0  0  0  0  0  0
  151.9634  145.0607  160.3329 C   0  0  0  0  0  0  0  0  0  0  0  0
  150.8751  145.3393  159.6139 C   0  0  0  0  0  0  0  0  0  0  0  0
  150.9987  144.5927  158.3016 C   0  0  1  0  0  0  0  0  0  0  0  0
  152.5177  144.6630  158.1003 C   0  0  0  0  0  0  0  0  0  0  0  0
  146.7631  142.3063  155.0061 C   0  0  0  0  0  0  0  0  0  0  0  0
  145.9583  142.8589  153.9873 C   0  0  0  0  0  0  0  0  0  0  0  0
  144.7240  143.4395  154.3422 C   0  0  0  0  0  0  0  0  0  0  0  0
  144.2708  143.4987  155.6125 N   0  0  0  0  0  0  0  0  0  0  0  0
  145.0425  142.9672  156.5839 C   0  0  0  0  0  0  0  0  0  0  0  0
  146.2912  142.3629  156.3358 C   0  0  0  0  0  0  0  0  0  0  0  0
  147.4738  140.8840  152.7451 H   0  0  0  0  0  0  0  0  0  0  0  0
  147.3505  139.7190  154.0607 H   0  0  0  0  0  0  0  0  0  0  0  0
  148.9240  140.1191  153.3809 H   0  0  0  0  0  0  0  0  0  0  0  0
  148.7236  142.4426  154.1945 H   0  0  0  0  0  0  0  0  0  0  0  0
  148.2296  140.5492  156.5305 H   0  0  0  0  0  0  0  0  0  0  0  0
  149.7436  140.6360  155.6539 H   0  0  0  0  0  0  0  0  0  0  0  0
  149.2534  143.1949  156.2071 H   0  0  0  0  0  0  0  0  0  0  0  0
  150.8297  141.1657  157.5385 H   0  0  0  0  0  0  0  0  0  0  0  0
  151.3712  142.5118  156.5696 H   0  0  0  0  0  0  0  0  0  0  0  0
  149.9442  142.9524  159.2491 H   0  0  0  0  0  0  0  0  0  0  0  0
  151.8847  142.3655  160.4111 H   0  0  0  0  0  0  0  0  0  0  0  0
  152.7545  142.0387  158.9198 H   0  0  0  0  0  0  0  0  0  0  0  0
  153.8793  144.1153  159.7792 H   0  0  0  0  0  0  0  0  0  0  0  0
  152.1997  145.3929  161.3332 H   0  0  0  0  0  0  0  0  0  0  0  0
  150.0296  145.9466  159.9016 H   0  0  0  0  0  0  0  0  0  0  0  0
  150.3964  145.0060  157.4921 H   0  0  0  0  0  0  0  0  0  0  0  0
  152.8804  145.6807  157.9411 H   0  0  0  0  0  0  0  0  0  0  0  0
  152.8916  144.0273  157.2953 H   0  0  0  0  0  0  0  0  0  0  0  0
  146.2724  142.8405  152.9538 H   0  0  0  0  0  0  0  0  0  0  0  0
  144.0852  143.8702  153.5855 H   0  0  0  0  0  0  0  0  0  0  0  0
  144.6554  143.0271  157.5903 H   0  0  0  0  0  0  0  0  0  0  0  0
  146.8675  141.9534  157.1523 H   0  0  0  0  0  0  0  0  0  0  0  0
  148.6364  142.4523  157.5335 H   0  0  0  0  0  0  0  0  0  0  0  0
  1  2  1  0  0  0  0
  1 19  1  0  0  0  0
  1 20  1  0  0  0  0
  1 21  1  0  0  0  0
  2  3  1  0  0  0  0
  2 13  1  0  0  0  0
  2 22  1  0  0  0  0
  3  4  1  0  0  0  0
  3 23  1  0  0  0  0
  3 24  1  0  0  0  0
  4  5  1  0  0  0  0
  4 25  1  0  0  0  0
  4 41  1  0  0  0  0
  5  6  1  0  0  0  0
  5 26  1  0  0  0  0
  5 27  1  0  0  0  0
  6 11  1  0  0  0  0
  6  7  1  0  0  0  0
  6 28  1  0  0  0  0
  7  8  1  0  0  0  0
  7 29  1  0  0  0  0
  7 30  1  0  0  0  0
  8 12  1  0  0  0  0
  8  9  1  0  0  0  0
  8 31  1  0  0  0  0
  9 10  2  0  0  0  0
  9 32  1  0  0  0  0
 10 11  1  0  0  0  0
 10 33  1  0  0  0  0
 11 12  1  0  0  0  0
 11 34  1  0  0  0  0
 12 35  1  0  0  0  0
 12 36  1  0  0  0  0
 13 18  1  0  0  0  0
 13 14  2  0  0  0  0
 14 15  1  0  0  0  0
 14 37  1  0  0  0  0
 15 16  2  0  0  0  0
 15 38  1  0  0  0  0
 16 17  1  0  0  0  0
 17 18  2  0  0  0  0
 17 39  1  0  0  0  0
 18 40  1  0  0  0  0
M  CHG  1   4   1
M  END
> <s_m_source_file>
AV-unprocessed.smi

> <i_m_source_file_index>
3316

> <i_lp_mmshare_version>
43012

> <i_f3d_flags>
0

> <s_epik_input>
W2NIXTFbY0hdbltjSF1bY0hdYzFbQ0BIXShbQ0gzXSlbQ0gyXVtOSF1bQ0gyXVtDQEhdKFtDSDJdW0NASF0yMylbQ0BIXShbQ0gyXTMpW0NIXT1bQ0hdMg==

> <s_epik_cmdline>
J2VwaWtfcHl0aG9uJywgJy1waCcsICc3LjAnLCAnLXRuJywgJzgnLCAnLW1hJywgJzIwMCcsICctbWV0YWxfYmluZGluZycsICctaW1hZScsICc8aW5maWxlLm1hZT4nLCAnLW9tYWUnLCAnPG91dGZpbGUubWFlPic=

> <r_lp_tautomer_probability>
1

> <r_epik_Ionization_Penalty>
0.00280406

> <r_epik_Ionization_Penalty_Charging>
0.000446589

> <r_epik_Ionization_Penalty_Neutral>
0.00235747

> <r_epik_State_Penalty>
-0

> <r_epik_Charging_Adjusted_Penalty>
0.000446589

> <i_epik_Tot_Q>
1

> <i_epik_Tot_abs_Q>
1

> <r_epik_Metal_State_Penalty>
-0

> <b_epik_Metal_Only>
0

> <s_lp_Force_Field>
OPLS_2005

> <r_lp_Energy>
68.7939

> <b_lp_Chiralities_Consistent>
1

> <s_lp_Variant>
AV-unprocessed.smi:3316-3

> <Gold.Version>
5.8.1

> <Gold.Id.Protein>
6NUR|6NUR_protein|mol2

> <Gold.PLP.Fitness>
51.6297

> <Gold.PLP.PLP>
-44.3390

> <Gold.PLP.part.hbond>
-1.0000

> <Gold.PLP.part.metal>
0.0000

> <Gold.PLP.part.buried>
-3.7361

> <Gold.PLP.part.nonpolar>
-40.8680

> <Gold.PLP.part.repulsive>
0.1283

> <Gold.PLP.ligand.clash>
0.0000

> <Gold.PLP.ligand.torsion>
0.5973

> <Gold.PLP.Chemscore.Hbond>
2.0000

> <Gold.PLP.Chemscore.CHOScore>
0.8080

> <Gold.PLP.Chemscore.Metal>
0.0000

> <Gold.Chemscore.Hbonds>
donor molecule, donor type, donor heavy atom, donor atom, acceptor molecule, acceptor atom, score
      L1  H     4    25       P1  8028  2.00
      L1  C    15    38       P1 10174  0.85

> <Gold.PLP.Chemscore.Internal.Correction>
0.0612

> <Gold.Rescore>
     Score         DG    S(hbond)    S(metal)    S(lipo)     H(rot)  DE(clash)    DE(int)     intcor
     19.57     -20.25       1.00        0.00     127.58       1.36       0.06       0.61       ----

> <Gold.Chemscore.Fitness>
19.5712

> <Gold.Chemscore.DG>
-20.2472

> <Gold.Chemscore.ZeroCoef>
-5.4800

> <Gold.Chemscore.Hbond>
0.9977

> <Gold.Chemscore.Metal>
0.0000

> <Gold.Chemscore.Lipo>
127.5787

> <Gold.Chemscore.Internal_Hbond>
0.0000

> <Gold.Chemscore.DEClash>
0.0636

> <Gold.Chemscore.DEInternal>
0.6123

> <Gold.Chemscore.Rot>
1.3640

> <Gold.Chemscore.Internal.Correction>
   9.000000E+99

> <Gold.Chemscore.Hbonds>
donor molecule, donor type, donor heavy atom, donor atom, acceptor molecule, acceptor atom, score
      L1  H     4    25       P1  8028  1.00

> <Gold.Chemscore.Hbond.Weighted>
-3.3324

> <Gold.Chemscore.Metal.Weighted>
-0.0000

> <Gold.Chemscore.Lipo.Weighted>
-14.9267

> <Gold.Chemscore.Internal_Hbond.Weighted>
0.0000

> <Gold.Chemscore.DEClash.Weighted>
0.0636

> <Gold.Chemscore.DEInternal.Weighted>
0.6123

> <Gold.Chemscore.Rot.Weighted>
3.4919

> <Gold.Chemscore.Internal.Correction.Weighted>
   9.000000E+99

> <Gold.Protein.RotatedTorsions>
[ 6907 6896 6895 6894 ] final  139.13 input  -60.11 | X-H torsion
[ 7974 7965 7964 7962 ] final -140.73 input  175.53 | X-H torsion
[ 8008 7997 7996 7995 ] final -115.71 input   59.86 | X-H torsion
[ 10167 10162 10161 10158 ] final  -42.43 input  -65.29 | X-H torsion
[ 10718 10713 10712 10709 ] final -160.43 input   66.30 | X-H torsion
[ 10763 10752 10751 10750 ] final  144.64 input  -60.55 | X-H torsion
[ 11005 11000 10999 10996 ] final   16.08 input  -57.11 | X-H torsion

> <Gold.Protein.ActiveResidues>
 VAL166  LYS551  ARG553  GLY616  TRP617  ASP618  TYR619  PRO620  LYS621  CYS622 
 ASP623  PHE694  ASN695  SER759  ASP760  ASP761  ALA762  ILE779  LEU786  VAL792 
 PHE793  MET794  SER795  GLU796  ALA797  LYS798  CYS799  TRP800  GLU811  SER814 

> <Gold.Protein.RotatedAtoms>
  152.2585  133.5277  159.5367 H   0  0  0  0  0  0  0  0  0  0  0  0  # atno 6907 bound_to 6896
  150.7117  134.0862  159.3924 H   0  0  0  0  0  0  0  0  0  0  0  0  # atno 6908 bound_to 6896
  151.8780  135.0464  160.0536 H   0  0  0  0  0  0  0  0  0  0  0  0  # atno 6909 bound_to 6896
  144.8574  140.6165  143.5350 H   0  0  0  0  0  0  0  0  0  0  0  0  # atno 7974 bound_to 7965
  155.0563  140.0393  157.2561 H   0  0  0  0  0  0  0  0  0  0  0  0  # atno 8008 bound_to 7997
  154.7096  140.2690  155.6617 H   0  0  0  0  0  0  0  0  0  0  0  0  # atno 8009 bound_to 7997
  156.2785  140.2724  156.1733 H   0  0  0  0  0  0  0  0  0  0  0  0  # atno 8010 bound_to 7997
  140.6969  143.3038  151.3208 H   0  0  0  0  0  0  0  0  0  0  0  0  # atno 10167 bound_to 10162
  156.5821  130.8734  151.2867 H   0  0  0  0  0  0  0  0  0  0  0  0  # atno 10718 bound_to 10713
  153.9921  135.2931  155.3411 H   0  0  0  0  0  0  0  0  0  0  0  0  # atno 10763 bound_to 10752
  154.7208  135.5110  153.8812 H   0  0  0  0  0  0  0  0  0  0  0  0  # atno 10764 bound_to 10752
  153.0805  135.6677  154.0173 H   0  0  0  0  0  0  0  0  0  0  0  0  # atno 10765 bound_to 10752
  140.4512  134.1223  155.7702 H   0  0  0  0  0  0  0  0  0  0  0  0  # atno 11005 bound_to 11000
  145.4378  139.1540  143.3987 LP  0  0  0  0  0  0  0  0  0  0  0  0  # atno 17320 bound_to 7965
  146.2834  140.4498  142.8767 LP  0  0  0  0  0  0  0  0  0  0  0  0  # atno 17321 bound_to 7965
  139.6436  144.0493  152.2573 LP  0  0  0  0  0  0  0  0  0  0  0  0  # atno 17342 bound_to 10162
  140.0006  144.6296  150.7733 LP  0  0  0  0  0  0  0  0  0  0  0  0  # atno 17343 bound_to 10162
  157.7324  130.9714  150.1926 LP  0  0  0  0  0  0  0  0  0  0  0  0  # atno 17370 bound_to 10713
  156.2623  130.3712  149.8118 LP  0  0  0  0  0  0  0  0  0  0  0  0  # atno 17371 bound_to 10713
  141.1663  133.8696  157.1704 LP  0  0  0  0  0  0  0  0  0  0  0  0  # atno 17394 bound_to 11000
  140.0006  135.0029  157.0181 LP  0  0  0  0  0  0  0  0  0  0  0  0  # atno 17395 bound_to 11000

$$$$
