AV-unprocessed.smi:146|AV-procd|sdf|1200|dock6
  -GOLD-   2262018363D 1   1.00000     0.00000
 Structure written by MMmdl.
 55 59  0  0  0  0  0  0  0  0  1 V2000
  145.0817  136.4278  158.9106 C   0  0  0  0  0  0  0  0  0  0  0  0
  146.5415  136.1916  158.4918 C   0  0  0  0  0  0  0  0  0  0  0  0
  147.1841  135.1928  159.4759 C   0  0  0  0  0  0  0  0  0  0  0  0
  146.5818  135.6582  157.0455 C   0  0  0  0  0  0  0  0  0  0  0  0
  147.9342  135.7274  156.5109 N   0  0  0  0  0  0  0  0  0  0  0  0
  148.1671  134.9454  155.4282 C   0  0  0  0  0  0  0  0  0  0  0  0
  149.4427  134.6999  155.0262 N   0  0  0  0  0  0  0  0  0  0  0  0
  149.6764  133.9376  153.9540 C   0  0  0  0  0  0  0  0  0  0  0  0
  148.7975  133.3284  153.1562 N   0  0  0  0  0  0  0  0  0  0  0  0
  147.5163  133.5596  153.5609 C   0  0  0  0  0  0  0  0  0  0  0  0
  147.1160  134.3524  154.6736 C   0  0  0  0  0  0  0  0  0  0  0  0
  145.7301  134.3569  154.7775 N   0  0  0  0  0  0  0  0  0  0  0  0
  145.3339  133.6196  153.7765 C   0  0  0  0  0  0  0  0  0  0  0  0
  146.3409  133.0892  153.0011 N   0  0  0  0  0  0  0  0  0  0  0  0
  146.1796  132.2340  151.8347 C   0  0  0  0  0  0  0  0  0  0  0  0
  145.2768  132.8287  150.7333 C   0  0  0  0  0  0  0  0  0  0  0  0
  145.3753  134.3644  150.7136 C   0  0  0  0  0  0  0  0  0  0  0  0
  144.5023  134.9279  149.7552 O   0  0  0  0  0  0  0  0  0  0  0  0
  145.3766  132.1603  149.3552 C   0  0  0  0  0  0  0  0  0  0  0  0
  143.9443  132.0102  149.2624 O   0  0  0  0  0  0  0  0  0  0  0  0
  143.8401  132.2890  150.6743 C   0  0  0  0  0  0  0  0  0  0  0  0
  148.4620  137.0851  156.5144 C   0  0  0  0  0  0  0  0  0  0  0  0
  148.4382  137.6739  157.9417 C   0  0  1  0  0  0  0  0  0  0  0  0
  149.5935  137.1763  158.8173 C   0  0  0  0  0  0  0  0  0  0  0  0
  150.6347  138.2989  158.7960 C   0  0  0  0  0  0  0  0  0  0  0  0
  150.1367  139.2633  157.8839 O   0  0  0  0  0  0  0  0  0  0  0  0
  148.7228  139.1781  157.9003 C   0  0  0  0  0  0  0  0  0  0  0  0
  147.1570  137.4877  158.5603 O   0  0  0  0  0  0  0  0  0  0  0  0
  144.5039  135.5034  158.8802 H   0  0  0  0  0  0  0  0  0  0  0  0
  144.5922  137.1449  158.2506 H   0  0  0  0  0  0  0  0  0  0  0  0
  145.0213  136.8233  159.9251 H   0  0  0  0  0  0  0  0  0  0  0  0
  146.6074  134.2685  159.5230 H   0  0  0  0  0  0  0  0  0  0  0  0
  147.2280  135.6052  160.4843 H   0  0  0  0  0  0  0  0  0  0  0  0
  148.1943  134.9114  159.1835 H   0  0  0  0  0  0  0  0  0  0  0  0
  146.1826  134.6446  157.0118 H   0  0  0  0  0  0  0  0  0  0  0  0
  145.9366  136.2637  156.4072 H   0  0  0  0  0  0  0  0  0  0  0  0
  150.7163  133.7959  153.6988 H   0  0  0  0  0  0  0  0  0  0  0  0
  144.2881  133.4326  153.5801 H   0  0  0  0  0  0  0  0  0  0  0  0
  147.1707  132.0110  151.4377 H   0  0  0  0  0  0  0  0  0  0  0  0
  145.7838  131.2771  152.1770 H   0  0  0  0  0  0  0  0  0  0  0  0
  145.1086  134.7766  151.6874 H   0  0  0  0  0  0  0  0  0  0  0  0
  146.3929  134.7008  150.5148 H   0  0  0  0  0  0  0  0  0  0  0  0
  145.0047  135.1511  148.9862 H   0  0  0  0  0  0  0  0  0  0  0  0
  145.7833  132.8039  148.5742 H   0  0  0  0  0  0  0  0  0  0  0  0
  145.8844  131.1944  149.3667 H   0  0  0  0  0  0  0  0  0  0  0  0
  143.6797  131.3749  151.2472 H   0  0  0  0  0  0  0  0  0  0  0  0
  143.0744  133.0314  150.9033 H   0  0  0  0  0  0  0  0  0  0  0  0
  149.4786  137.1049  156.1187 H   0  0  0  0  0  0  0  0  0  0  0  0
  147.8482  137.6941  155.8488 H   0  0  0  0  0  0  0  0  0  0  0  0
  149.2694  137.0156  159.8459 H   0  0  0  0  0  0  0  0  0  0  0  0
  150.0104  136.2372  158.4524 H   0  0  0  0  0  0  0  0  0  0  0  0
  150.7316  138.7516  159.7836 H   0  0  0  0  0  0  0  0  0  0  0  0
  151.6188  137.9477  158.4849 H   0  0  0  0  0  0  0  0  0  0  0  0
  148.2753  139.6809  157.0426 H   0  0  0  0  0  0  0  0  0  0  0  0
  148.3541  139.6674  158.8035 H   0  0  0  0  0  0  0  0  0  0  0  0
  1  2  1  0  0  0  0
  1 29  1  0  0  0  0
  1 30  1  0  0  0  0
  1 31  1  0  0  0  0
  2 28  1  0  0  0  0
  2  3  1  0  0  0  0
  2  4  1  0  0  0  0
  3 32  1  0  0  0  0
  3 33  1  0  0  0  0
  3 34  1  0  0  0  0
  4  5  1  0  0  0  0
  4 35  1  0  0  0  0
  4 36  1  0  0  0  0
  5  6  1  0  0  0  0
  5 22  1  0  0  0  0
  6 11  1  0  0  0  0
  6  7  2  0  0  0  0
  7  8  1  0  0  0  0
  8  9  2  0  0  0  0
  8 37  1  0  0  0  0
  9 10  1  0  0  0  0
 10 14  1  0  0  0  0
 10 11  2  0  0  0  0
 11 12  1  0  0  0  0
 12 13  2  0  0  0  0
 13 14  1  0  0  0  0
 13 38  1  0  0  0  0
 14 15  1  0  0  0  0
 15 16  1  0  0  0  0
 15 39  1  0  0  0  0
 15 40  1  0  0  0  0
 16 21  1  0  0  0  0
 16 17  1  0  0  0  0
 16 19  1  0  0  0  0
 17 18  1  0  0  0  0
 17 41  1  0  0  0  0
 17 42  1  0  0  0  0
 18 43  1  0  0  0  0
 19 20  1  0  0  0  0
 19 44  1  0  0  0  0
 19 45  1  0  0  0  0
 20 21  1  0  0  0  0
 21 46  1  0  0  0  0
 21 47  1  0  0  0  0
 22 23  1  0  0  0  0
 22 48  1  0  0  0  0
 22 49  1  0  0  0  0
 23 27  1  0  0  0  0
 23 24  1  0  0  0  0
 23 28  1  0  0  0  0
 24 25  1  0  0  0  0
 24 50  1  0  0  0  0
 24 51  1  0  0  0  0
 25 26  1  0  0  0  0
 25 52  1  0  0  0  0
 25 53  1  0  0  0  0
 26 27  1  0  0  0  0
 27 54  1  0  0  0  0
 27 55  1  0  0  0  0
M  END
> <s_m_source_file>
AV-unprocessed.smi

> <i_m_source_file_index>
146

> <i_lp_mmshare_version>
43012

> <i_f3d_flags>
0

> <s_epik_input>
W0NIMl0xT1tDSDJdW0NIMl1bQ0BAXTEyW0NIMl1OKFtDSDJdQyhPMikoW0NIM10pW0NIM10pYyhuW2NIXW4zKWMoYzM0KW5bY0hdbjRbQ0gyXUM1KFtDSDJdW09IXSlbQ0gyXU9bQ0gyXTU=

> <s_epik_cmdline>
J2VwaWtfcHl0aG9uJywgJy1waCcsICc3LjAnLCAnLXRuJywgJzgnLCAnLW1hJywgJzIwMCcsICctbWV0YWxfYmluZGluZycsICctaW1hZScsICc8aW5maWxlLm1hZT4nLCAnLW9tYWUnLCAnPG91dGZpbGUubWFlPic=

> <r_lp_tautomer_probability>
1

> <r_epik_Ionization_Penalty>
0.00353822

> <r_epik_Ionization_Penalty_Charging>
0

> <r_epik_Ionization_Penalty_Neutral>
0.00353822

> <r_epik_State_Penalty>
0.0023805

> <r_epik_Charging_Adjusted_Penalty>
0.0023805

> <i_epik_Tot_Q>
0

> <i_epik_Tot_abs_Q>
0

> <r_epik_Metal_State_Penalty>
-0

> <b_epik_Metal_Only>
0

> <s_lp_Force_Field>
OPLS_2005

> <r_lp_Energy>
57.4997

> <b_lp_Chiralities_Consistent>
1

> <s_lp_Variant>
AV-unprocessed.smi:146-2

> <Gold.Version>
5.8.1

> <Gold.Id.Protein>
6NUR|6NUR_protein|mol2

> <Gold.PLP.Fitness>
37.2023

> <Gold.PLP.PLP>
-29.8988

> <Gold.PLP.part.hbond>
-2.0000

> <Gold.PLP.part.metal>
0.0000

> <Gold.PLP.part.buried>
-8.5994

> <Gold.PLP.part.nonpolar>
-21.2499

> <Gold.PLP.part.repulsive>
0.6133

> <Gold.PLP.ligand.clash>
0.0000

> <Gold.PLP.ligand.torsion>
0.8320

> <Gold.PLP.Chemscore.Hbond>
1.7823

> <Gold.PLP.Chemscore.CHOScore>
0.9963

> <Gold.PLP.Chemscore.Metal>
0.0000

> <Gold.Chemscore.Hbonds>
donor molecule, donor type, donor heavy atom, donor atom, acceptor molecule, acceptor atom, score
      L1  H    18    43       P1  7921  1.00
      P1  H 10785 10796       L1    20  0.67
      L1  C    13    38       P1 10957  0.76

> <Gold.PLP.Chemscore.Internal.Correction>
0.6315

> <Gold.Rescore>
     Score         DG    S(hbond)    S(metal)    S(lipo)     H(rot)  DE(clash)    DE(int)     intcor
      8.49     -11.84       1.71        0.00      58.88       2.44       0.00       3.36       ----

> <Gold.Chemscore.Fitness>
8.4858

> <Gold.Chemscore.DG>
-11.8418

> <Gold.Chemscore.ZeroCoef>
-5.4800

> <Gold.Chemscore.Hbond>
1.7105

> <Gold.Chemscore.Metal>
0.0000

> <Gold.Chemscore.Lipo>
58.8801

> <Gold.Chemscore.Internal_Hbond>
0.0000

> <Gold.Chemscore.DEClash>
0.0000

> <Gold.Chemscore.DEInternal>
3.3560

> <Gold.Chemscore.Rot>
2.4376

> <Gold.Chemscore.Internal.Correction>
   9.000000E+99

> <Gold.Chemscore.Hbonds>
donor molecule, donor type, donor heavy atom, donor atom, acceptor molecule, acceptor atom, score
      L1  H    18    43       P1  7921  0.98
      P1  H 10785 10796       L1    20  0.54

> <Gold.Chemscore.Hbond.Weighted>
-5.7130

> <Gold.Chemscore.Metal.Weighted>
-0.0000

> <Gold.Chemscore.Lipo.Weighted>
-6.8890

> <Gold.Chemscore.Internal_Hbond.Weighted>
0.0000

> <Gold.Chemscore.DEClash.Weighted>
0.0000

> <Gold.Chemscore.DEInternal.Weighted>
3.3560

> <Gold.Chemscore.Rot.Weighted>
6.2402

> <Gold.Chemscore.Internal.Correction.Weighted>
   9.000000E+99

> <Gold.Protein.RotatedTorsions>
[ 6907 6896 6895 6894 ] final -148.97 input  -60.11 | X-H torsion
[ 7974 7965 7964 7962 ] final  -45.34 input  175.53 | X-H torsion
[ 8008 7997 7996 7995 ] final -104.23 input   59.86 | X-H torsion
[ 10167 10162 10161 10158 ] final -115.70 input  -65.29 | X-H torsion
[ 10718 10713 10712 10709 ] final  141.28 input   66.30 | X-H torsion
[ 10763 10752 10751 10750 ] final  -31.50 input  -60.55 | X-H torsion
[ 11005 11000 10999 10996 ] final -177.85 input  -57.11 | X-H torsion

> <Gold.Protein.ActiveResidues>
 VAL166  LYS551  ARG553  GLY616  TRP617  ASP618  TYR619  PRO620  LYS621  CYS622 
 ASP623  PHE694  ASN695  SER759  ASP760  ASP761  ALA762  ILE779  LEU786  VAL792 
 PHE793  MET794  SER795  GLU796  ALA797  LYS798  CYS799  TRP800  GLU811  SER814 

> <Gold.Protein.RotatedAtoms>
  151.1775  133.4746  159.2593 H   0  0  0  0  0  0  0  0  0  0  0  0  # atno 6907 bound_to 6896
  151.1293  135.0121  159.8585 H   0  0  0  0  0  0  0  0  0  0  0  0  # atno 6908 bound_to 6896
  152.5459  134.1679  159.8637 H   0  0  0  0  0  0  0  0  0  0  0  0  # atno 6909 bound_to 6896
  145.9830  140.7263  142.9354 H   0  0  0  0  0  0  0  0  0  0  0  0  # atno 7974 bound_to 7965
  154.8823  140.0419  157.1789 H   0  0  0  0  0  0  0  0  0  0  0  0  # atno 8008 bound_to 7997
  154.8626  140.2946  155.5508 H   0  0  0  0  0  0  0  0  0  0  0  0  # atno 8009 bound_to 7997
  156.2998  140.2444  156.3603 H   0  0  0  0  0  0  0  0  0  0  0  0  # atno 8010 bound_to 7997
  140.0872  143.4733  152.1891 H   0  0  0  0  0  0  0  0  0  0  0  0  # atno 10167 bound_to 10162
  157.3938  131.1008  151.0620 H   0  0  0  0  0  0  0  0  0  0  0  0  # atno 10718 bound_to 10713
  153.7984  135.6892  153.4860 H   0  0  0  0  0  0  0  0  0  0  0  0  # atno 10763 bound_to 10752
  153.1704  135.4545  154.9893 H   0  0  0  0  0  0  0  0  0  0  0  0  # atno 10764 bound_to 10752
  154.8016  135.3340  154.7474 H   0  0  0  0  0  0  0  0  0  0  0  0  # atno 10765 bound_to 10752
  140.4363  134.6472  157.4736 H   0  0  0  0  0  0  0  0  0  0  0  0  # atno 11005 bound_to 11000
  144.6867  140.2941  143.7273 LP  0  0  0  0  0  0  0  0  0  0  0  0  # atno 17320 bound_to 7965
  145.7741  139.1867  143.2195 LP  0  0  0  0  0  0  0  0  0  0  0  0  # atno 17321 bound_to 7965
  139.5745  144.7480  151.3802 LP  0  0  0  0  0  0  0  0  0  0  0  0  # atno 17342 bound_to 10162
  140.7047  143.7544  150.7462 LP  0  0  0  0  0  0  0  0  0  0  0  0  # atno 17343 bound_to 10162
  157.1644  130.6239  149.5620 LP  0  0  0  0  0  0  0  0  0  0  0  0  # atno 17370 bound_to 10713
  155.9805  130.4806  150.6776 LP  0  0  0  0  0  0  0  0  0  0  0  0  # atno 17371 bound_to 10713
  140.0100  134.6705  155.9396 LP  0  0  0  0  0  0  0  0  0  0  0  0  # atno 17394 bound_to 11000
  141.1724  133.6538  156.4702 LP  0  0  0  0  0  0  0  0  0  0  0  0  # atno 17395 bound_to 11000

$$$$
