AV-unprocessed.smi:625|AV-procd|sdf|3108|dock9
  -GOLD-   22720 0 33D 1   1.00000     0.00000
 Structure written by MMmdl.
 49 51  0  0  0  0  0  0  0  0  1 V2000
  143.5106  132.7658  150.0605 C   0  0  0  0  0  0  0  0  0  0  0  0
  144.6621  132.3645  150.8544 N   0  0  0  0  0  0  0  0  0  0  0  0
  145.5186  133.2178  151.4397 C   0  0  0  0  0  0  0  0  0  0  0  0
  145.3831  134.4386  151.3428 O   0  0  0  0  0  0  0  0  0  0  0  0
  146.5964  132.5589  152.1818 C   0  0  0  0  0  0  0  0  0  0  0  0
  146.5419  131.1639  152.5934 C   0  0  0  0  0  0  0  0  0  0  0  0
  147.5564  130.6139  153.2889 C   0  0  0  0  0  0  0  0  0  0  0  0
  148.7467  131.3849  153.6573 C   0  0  0  0  0  0  0  0  0  0  0  0
  149.6682  130.8920  154.3079 O   0  0  0  0  0  0  0  0  0  0  0  0
  148.7638  132.6877  153.2405 N   0  0  0  0  0  0  0  0  0  0  0  0
  149.9023  133.5672  153.5663 C   0  0  0  0  0  0  0  0  0  0  0  0
  149.7253  134.3858  154.8568 C   0  0  0  0  0  0  0  0  0  0  0  0
  149.8775  133.8331  155.9454 O   0  0  0  0  0  0  0  0  0  0  0  0
  149.3908  135.6815  154.7352 N   0  0  0  0  0  0  0  0  0  0  0  0
  149.0887  136.6015  155.8268 C   0  0  1  0  0  0  0  0  0  0  0  0
  150.2424  136.6089  156.8448 C   0  0  0  0  0  0  0  0  0  0  0  0
  148.8221  138.0039  155.2315 C   0  0  1  0  0  0  0  0  0  0  0  0
  148.7628  139.1522  156.2661 C   0  0  0  0  0  0  0  0  0  0  0  0
  149.6847  140.2206  155.6496 C   0  0  1  0  0  0  0  0  0  0  0  0
  151.1484  139.7751  155.8174 C   0  0  0  0  0  0  0  0  0  0  0  0
  151.2706  138.6276  154.7983 C   0  0  0  0  0  0  0  0  0  0  0  0
  149.8491  138.5419  154.2046 C   0  0  2  0  0  0  0  0  0  0  0  0
  149.4638  140.0173  154.1546 C   0  0  0  0  0  0  0  0  0  0  0  0
  147.6979  133.2588  152.5178 C   0  0  0  0  0  0  0  0  0  0  0  0
  142.9890  131.8834  149.6904 H   0  0  0  0  0  0  0  0  0  0  0  0
  143.8190  133.3641  149.2023 H   0  0  0  0  0  0  0  0  0  0  0  0
  142.8106  133.3497  150.6594 H   0  0  0  0  0  0  0  0  0  0  0  0
  144.8212  131.3739  150.9674 H   0  0  0  0  0  0  0  0  0  0  0  0
  145.6940  130.5392  152.3540 H   0  0  0  0  0  0  0  0  0  0  0  0
  147.4927  129.5768  153.5840 H   0  0  0  0  0  0  0  0  0  0  0  0
  150.8201  132.9820  153.6464 H   0  0  0  0  0  0  0  0  0  0  0  0
  150.0862  134.2656  152.7489 H   0  0  0  0  0  0  0  0  0  0  0  0
  149.2972  136.0518  153.8005 H   0  0  0  0  0  0  0  0  0  0  0  0
  148.1853  136.2436  156.3212 H   0  0  0  0  0  0  0  0  0  0  0  0
  150.0185  137.2581  157.6911 H   0  0  0  0  0  0  0  0  0  0  0  0
  151.1698  136.9601  156.3912 H   0  0  0  0  0  0  0  0  0  0  0  0
  150.4252  135.6113  157.2450 H   0  0  0  0  0  0  0  0  0  0  0  0
  147.8541  137.9639  154.7278 H   0  0  0  0  0  0  0  0  0  0  0  0
  147.7420  139.5229  156.3669 H   0  0  0  0  0  0  0  0  0  0  0  0
  149.1029  138.8533  157.2587 H   0  0  0  0  0  0  0  0  0  0  0  0
  149.4902  141.2297  156.0137 H   0  0  0  0  0  0  0  0  0  0  0  0
  151.8343  140.5852  155.5666 H   0  0  0  0  0  0  0  0  0  0  0  0
  151.3694  139.4531  156.8358 H   0  0  0  0  0  0  0  0  0  0  0  0
  151.9894  138.8914  154.0214 H   0  0  0  0  0  0  0  0  0  0  0  0
  151.6127  137.6964  155.2474 H   0  0  0  0  0  0  0  0  0  0  0  0
  149.8091  138.0352  153.2399 H   0  0  0  0  0  0  0  0  0  0  0  0
  148.4321  140.1881  153.8418 H   0  0  0  0  0  0  0  0  0  0  0  0
  150.1293  140.6190  153.5326 H   0  0  0  0  0  0  0  0  0  0  0  0
  147.8381  134.3018  152.2698 H   0  0  0  0  0  0  0  0  0  0  0  0
  1  2  1  0  0  0  0
  1 25  1  0  0  0  0
  1 26  1  0  0  0  0
  1 27  1  0  0  0  0
  2  3  1  0  0  0  0
  2 28  1  0  0  0  0
  3  4  2  0  0  0  0
  3  5  1  0  0  0  0
  5 24  2  0  0  0  0
  5  6  1  0  0  0  0
  6  7  2  0  0  0  0
  6 29  1  0  0  0  0
  7  8  1  0  0  0  0
  7 30  1  0  0  0  0
  8  9  2  0  0  0  0
  8 10  1  0  0  0  0
 10 11  1  0  0  0  0
 10 24  1  0  0  0  0
 11 12  1  0  0  0  0
 11 31  1  0  0  0  0
 11 32  1  0  0  0  0
 12 13  2  0  0  0  0
 12 14  1  0  0  0  0
 14 15  1  0  0  0  0
 14 33  1  0  0  0  0
 15 16  1  0  0  0  0
 15 17  1  0  0  0  0
 15 34  1  0  0  0  0
 16 35  1  0  0  0  0
 16 36  1  0  0  0  0
 16 37  1  0  0  0  0
 17 22  1  0  0  0  0
 17 18  1  0  0  0  0
 17 38  1  0  0  0  0
 18 19  1  0  0  0  0
 18 39  1  0  0  0  0
 18 40  1  0  0  0  0
 19 23  1  0  0  0  0
 19 20  1  0  0  0  0
 19 41  1  0  0  0  0
 20 21  1  0  0  0  0
 20 42  1  0  0  0  0
 20 43  1  0  0  0  0
 21 22  1  0  0  0  0
 21 44  1  0  0  0  0
 21 45  1  0  0  0  0
 22 23  1  0  0  0  0
 22 46  1  0  0  0  0
 23 47  1  0  0  0  0
 23 48  1  0  0  0  0
 24 49  1  0  0  0  0
M  END
> <s_m_source_file>
AV-unprocessed.smi

> <i_m_source_file_index>
625

> <i_lp_mmshare_version>
43012

> <i_f3d_flags>
0

> <s_epik_input>
W0NIM11bTkhdQyg9TyljMVtjSF1bY0hdYyg9TyluKFtjSF0xKVtDSDJdQyg9TylbTkhdW0NASF0oW0NIM10pW0NASF0oW0NIMl1bQ0BIXTIzKVtDQEhdKFtDSDJdMylbQ0gyXVtDSDJdMg==

> <s_epik_cmdline>
J2VwaWtfcHl0aG9uJywgJy1waCcsICc3LjAnLCAnLXRuJywgJzgnLCAnLW1hJywgJzIwMCcsICctbWV0YWxfYmluZGluZycsICctaW1hZScsICc8aW5maWxlLm1hZT4nLCAnLW9tYWUnLCAnPG91dGZpbGUubWFlPic=

> <r_lp_tautomer_probability>
1

> <r_epik_Ionization_Penalty>
3.7129e-07

> <r_epik_Ionization_Penalty_Charging>
5.04114e-08

> <r_epik_Ionization_Penalty_Neutral>
3.20879e-07

> <r_epik_State_Penalty>
-0

> <r_epik_Charging_Adjusted_Penalty>
5.04114e-08

> <i_epik_Tot_Q>
0

> <i_epik_Tot_abs_Q>
0

> <r_epik_Metal_State_Penalty>
-0

> <b_epik_Metal_Only>
0

> <s_lp_Force_Field>
OPLS_2005

> <r_lp_Energy>
63.411

> <b_lp_Chiralities_Consistent>
1

> <s_lp_Variant>
AV-unprocessed.smi:625-8

> <Gold.Version>
5.8.1

> <Gold.Id.Protein>
6NUR|6NUR_protein|mol2

> <Gold.PLP.Fitness>
39.7747

> <Gold.PLP.PLP>
-35.5323

> <Gold.PLP.part.hbond>
-1.0000

> <Gold.PLP.part.metal>
0.0000

> <Gold.PLP.part.buried>
-3.1940

> <Gold.PLP.part.nonpolar>
-32.3071

> <Gold.PLP.part.repulsive>
0.2606

> <Gold.PLP.ligand.clash>
0.0000

> <Gold.PLP.ligand.torsion>
0.9061

> <Gold.PLP.Chemscore.Hbond>
1.0000

> <Gold.PLP.Chemscore.CHOScore>
0.9954

> <Gold.PLP.Chemscore.Metal>
0.0000

> <Gold.Chemscore.Hbonds>
donor molecule, donor type, donor heavy atom, donor atom, acceptor molecule, acceptor atom, score
      L1  H    14    33       P1  7948  1.00
      L1  C    24    49       P1  7948  1.00

> <Gold.PLP.Chemscore.Internal.Correction>
0.0684

> <Gold.Rescore>
     Score         DG    S(hbond)    S(metal)    S(lipo)     H(rot)  DE(clash)    DE(int)     intcor
     11.24     -14.18       0.93        0.00      84.49       1.67       0.44       2.50       ----

> <Gold.Chemscore.Fitness>
11.2428

> <Gold.Chemscore.DG>
-14.1832

> <Gold.Chemscore.ZeroCoef>
-5.4800

> <Gold.Chemscore.Hbond>
0.9267

> <Gold.Chemscore.Metal>
0.0000

> <Gold.Chemscore.Lipo>
84.4904

> <Gold.Chemscore.Internal_Hbond>
0.0000

> <Gold.Chemscore.DEClash>
0.4375

> <Gold.Chemscore.DEInternal>
2.5029

> <Gold.Chemscore.Rot>
1.6709

> <Gold.Chemscore.Internal.Correction>
   9.000000E+99

> <Gold.Chemscore.Hbonds>
donor molecule, donor type, donor heavy atom, donor atom, acceptor molecule, acceptor atom, score
      L1  H    14    33       P1  7948  0.78

> <Gold.Chemscore.Hbond.Weighted>
-3.0952

> <Gold.Chemscore.Metal.Weighted>
-0.0000

> <Gold.Chemscore.Lipo.Weighted>
-9.8854

> <Gold.Chemscore.Internal_Hbond.Weighted>
0.0000

> <Gold.Chemscore.DEClash.Weighted>
0.4375

> <Gold.Chemscore.DEInternal.Weighted>
2.5029

> <Gold.Chemscore.Rot.Weighted>
4.2774

> <Gold.Chemscore.Internal.Correction.Weighted>
   9.000000E+99

> <Gold.Protein.RotatedTorsions>
[ 6907 6896 6895 6894 ] final  129.98 input  -60.11 | X-H torsion
[ 7974 7965 7964 7962 ] final -114.19 input  175.53 | X-H torsion
[ 8008 7997 7996 7995 ] final -179.36 input   59.86 | X-H torsion
[ 10167 10162 10161 10158 ] final   32.82 input  -65.29 | X-H torsion
[ 10718 10713 10712 10709 ] final   45.99 input   66.30 | X-H torsion
[ 10763 10752 10751 10750 ] final  146.09 input  -60.55 | X-H torsion
[ 11005 11000 10999 10996 ] final    9.47 input  -57.11 | X-H torsion

> <Gold.Protein.ActiveResidues>
 VAL166  LYS551  ARG553  GLY616  TRP617  ASP618  TYR619  PRO620  LYS621  CYS622 
 ASP623  PHE694  ASN695  SER759  ASP760  ASP761  ALA762  ILE779  LEU786  VAL792 
 PHE793  MET794  SER795  GLU796  ALA797  LYS798  CYS799  TRP800  GLU811  SER814 

> <Gold.Protein.RotatedAtoms>
  152.3571  133.6250  159.5986 H   0  0  0  0  0  0  0  0  0  0  0  0  # atno 6907 bound_to 6896
  150.7575  133.9483  159.3486 H   0  0  0  0  0  0  0  0  0  0  0  0  # atno 6908 bound_to 6896
  151.7327  135.0872  160.0354 H   0  0  0  0  0  0  0  0  0  0  0  0  # atno 6909 bound_to 6896
  145.1231  140.8681  143.3802 H   0  0  0  0  0  0  0  0  0  0  0  0  # atno 7974 bound_to 7965
  156.0296  140.1279  157.0272 H   0  0  0  0  0  0  0  0  0  0  0  0  # atno 8008 bound_to 7997
  154.4344  140.1052  156.6151 H   0  0  0  0  0  0  0  0  0  0  0  0  # atno 8009 bound_to 7997
  155.5826  140.3468  155.4546 H   0  0  0  0  0  0  0  0  0  0  0  0  # atno 8010 bound_to 7997
  140.4464  144.1113  150.6183 H   0  0  0  0  0  0  0  0  0  0  0  0  # atno 10167 bound_to 10162
  157.4434  130.8095  149.7717 H   0  0  0  0  0  0  0  0  0  0  0  0  # atno 10718 bound_to 10713
  154.0161  135.2910  155.3386 H   0  0  0  0  0  0  0  0  0  0  0  0  # atno 10763 bound_to 10752
  154.7074  135.5163  153.8619 H   0  0  0  0  0  0  0  0  0  0  0  0  # atno 10764 bound_to 10752
  153.0702  135.6645  154.0387 H   0  0  0  0  0  0  0  0  0  0  0  0  # atno 10765 bound_to 10752
  140.5254  134.0518  155.7857 H   0  0  0  0  0  0  0  0  0  0  0  0  # atno 11005 bound_to 11000
  145.0718  139.3026  143.5828 LP  0  0  0  0  0  0  0  0  0  0  0  0  # atno 17320 bound_to 7965
  146.3519  140.0195  142.8660 LP  0  0  0  0  0  0  0  0  0  0  0  0  # atno 17321 bound_to 7965
  140.4259  143.2590  151.9657 LP  0  0  0  0  0  0  0  0  0  0  0  0  # atno 17342 bound_to 10162
  139.4793  144.5789  151.7966 LP  0  0  0  0  0  0  0  0  0  0  0  0  # atno 17343 bound_to 10162
  155.9958  130.3910  150.2805 LP  0  0  0  0  0  0  0  0  0  0  0  0  # atno 17370 bound_to 10713
  157.0972  131.0185  151.3099 LP  0  0  0  0  0  0  0  0  0  0  0  0  # atno 17371 bound_to 10713
  141.1311  133.9300  157.2533 LP  0  0  0  0  0  0  0  0  0  0  0  0  # atno 17394 bound_to 11000
  139.9583  135.0160  156.9190 LP  0  0  0  0  0  0  0  0  0  0  0  0  # atno 17395 bound_to 11000

$$$$
