AV-unprocessed.smi:3158|AV-procd|sdf|12048|dock1
  -GOLD-   2272017473D 1   1.00000     0.00000
 Structure written by MMmdl.
 39 39  0  0  0  0  0  0  0  0  1 V2000
  152.2263  139.2109  155.2457 C   0  0  0  0  0  0  0  0  0  0  0  0
  151.7850  137.8738  154.6332 C   0  0  0  0  0  0  0  0  0  0  0  0
  150.5525  137.2486  155.3156 C   0  0  1  0  0  0  0  0  0  0  0  0
  149.3927  138.2487  155.4183 C   0  0  0  0  0  0  0  0  0  0  0  0
  150.0972  136.0674  154.5850 N   0  0  0  0  0  0  0  0  0  0  0  0
  150.0092  134.8203  155.0755 C   0  0  0  0  0  0  0  0  0  0  0  0
  150.3217  134.5202  156.2281 O   0  0  0  0  0  0  0  0  0  0  0  0
  149.4535  133.7493  154.1218 C   0  0  1  0  0  0  0  0  0  0  0  0
  149.3154  132.3963  154.8391 C   0  0  0  0  0  0  0  0  0  0  0  0
  148.1645  134.1249  153.5131 N   0  0  0  0  0  0  0  0  0  0  0  0
  147.5774  133.0931  152.6652 C   0  0  0  0  0  0  0  0  0  0  0  0
  146.7542  133.7548  151.5516 C   0  0  0  0  0  0  0  0  0  0  0  0
  145.6212  132.9343  151.1704 N   0  0  0  0  0  0  0  0  0  0  0  0
  144.6947  133.1616  150.1748 C   0  0  0  0  0  0  0  0  0  0  0  0
  143.8210  132.1123  150.1863 C   0  0  0  0  0  0  0  0  0  0  0  0
  144.3024  131.2830  151.2378 C   0  0  0  0  0  0  0  0  0  0  0  0
  145.3808  131.7772  151.8241 N   0  0  0  0  0  0  0  0  0  0  0  0
  153.0589  139.6367  154.6854 H   0  0  0  0  0  0  0  0  0  0  0  0
  152.5539  139.0910  156.2785 H   0  0  0  0  0  0  0  0  0  0  0  0
  151.4122  139.9362  155.2341 H   0  0  0  0  0  0  0  0  0  0  0  0
  151.5625  138.0359  153.5779 H   0  0  0  0  0  0  0  0  0  0  0  0
  152.6197  137.1721  154.6612 H   0  0  0  0  0  0  0  0  0  0  0  0
  150.8312  136.9746  156.3347 H   0  0  0  0  0  0  0  0  0  0  0  0
  149.6864  139.1330  155.9845 H   0  0  0  0  0  0  0  0  0  0  0  0
  148.5352  137.8044  155.9251 H   0  0  0  0  0  0  0  0  0  0  0  0
  149.0631  138.5789  154.4326 H   0  0  0  0  0  0  0  0  0  0  0  0
  149.8097  136.2129  153.6282 H   0  0  0  0  0  0  0  0  0  0  0  0
  150.1746  133.6118  153.3137 H   0  0  0  0  0  0  0  0  0  0  0  0
  150.2626  132.0840  155.2808 H   0  0  0  0  0  0  0  0  0  0  0  0
  149.0092  131.6154  154.1423 H   0  0  0  0  0  0  0  0  0  0  0  0
  148.5724  132.4350  155.6369 H   0  0  0  0  0  0  0  0  0  0  0  0
  148.2335  134.9932  153.0016 H   0  0  0  0  0  0  0  0  0  0  0  0
  148.3546  132.4717  152.2189 H   0  0  0  0  0  0  0  0  0  0  0  0
  146.9398  132.4431  153.2663 H   0  0  0  0  0  0  0  0  0  0  0  0
  146.3864  134.7312  151.8716 H   0  0  0  0  0  0  0  0  0  0  0  0
  147.3719  133.9220  150.6680 H   0  0  0  0  0  0  0  0  0  0  0  0
  144.7352  134.0399  149.5473 H   0  0  0  0  0  0  0  0  0  0  0  0
  142.9683  131.9600  149.5418 H   0  0  0  0  0  0  0  0  0  0  0  0
  143.9034  130.3431  151.5897 H   0  0  0  0  0  0  0  0  0  0  0  0
  1  2  1  0  0  0  0
  1 18  1  0  0  0  0
  1 19  1  0  0  0  0
  1 20  1  0  0  0  0
  2  3  1  0  0  0  0
  2 21  1  0  0  0  0
  2 22  1  0  0  0  0
  3  4  1  0  0  0  0
  3  5  1  0  0  0  0
  3 23  1  0  0  0  0
  4 24  1  0  0  0  0
  4 25  1  0  0  0  0
  4 26  1  0  0  0  0
  5  6  1  0  0  0  0
  5 27  1  0  0  0  0
  6  7  2  0  0  0  0
  6  8  1  0  0  0  0
  8  9  1  0  0  0  0
  8 10  1  0  0  0  0
  8 28  1  0  0  0  0
  9 29  1  0  0  0  0
  9 30  1  0  0  0  0
  9 31  1  0  0  0  0
 10 11  1  0  0  0  0
 10 32  1  0  0  0  0
 11 12  1  0  0  0  0
 11 33  1  0  0  0  0
 11 34  1  0  0  0  0
 12 13  1  0  0  0  0
 12 35  1  0  0  0  0
 12 36  1  0  0  0  0
 13 17  1  0  0  0  0
 13 14  1  0  0  0  0
 14 15  2  0  0  0  0
 14 37  1  0  0  0  0
 15 16  1  0  0  0  0
 15 38  1  0  0  0  0
 16 17  2  0  0  0  0
 16 39  1  0  0  0  0
M  END
> <s_m_source_file>
AV-unprocessed.smi

> <i_m_source_file_index>
3158

> <i_lp_mmshare_version>
43012

> <i_f3d_flags>
0

> <s_epik_input>
W0NIM11bQ0gyXVtDQEhdKFtDSDNdKVtOSF1DKD1PKVtDQEhdKFtDSDNdKVtOSF1bQ0gyXVtDSDJdbjFbY0hdW2NIXVtjSF1uMQ==

> <s_epik_cmdline>
J2VwaWtfcHl0aG9uJywgJy1waCcsICc3LjAnLCAnLXRuJywgJzgnLCAnLW1hJywgJzIwMCcsICctbWV0YWxfYmluZGluZycsICctaW1hZScsICc8aW5maWxlLm1hZT4nLCAnLW9tYWUnLCAnPG91dGZpbGUubWFlPic=

> <r_lp_tautomer_probability>
1

> <r_epik_Ionization_Penalty>
0.724013

> <r_epik_Ionization_Penalty_Charging>
0

> <r_epik_Ionization_Penalty_Neutral>
0.724013

> <r_epik_State_Penalty>
0.74758

> <r_epik_Charging_Adjusted_Penalty>
0.74758

> <i_epik_Tot_Q>
0

> <i_epik_Tot_abs_Q>
0

> <r_epik_Metal_State_Penalty>
0.746846

> <b_epik_Metal_Only>
0

> <s_lp_Force_Field>
OPLS_2005

> <r_lp_Energy>
5.19136

> <b_lp_Chiralities_Consistent>
1

> <s_lp_Variant>
AV-unprocessed.smi:3158-8

> <Gold.Version>
5.8.1

> <Gold.Id.Protein>
6NUR|6NUR_protein|mol2

> <Gold.PLP.Fitness>
42.5276

> <Gold.PLP.PLP>
-34.4894

> <Gold.PLP.part.hbond>
-2.4555

> <Gold.PLP.part.metal>
0.0000

> <Gold.PLP.part.buried>
-4.2526

> <Gold.PLP.part.nonpolar>
-28.6535

> <Gold.PLP.part.repulsive>
0.2088

> <Gold.PLP.ligand.clash>
0.0000

> <Gold.PLP.ligand.torsion>
0.5201

> <Gold.PLP.Chemscore.Hbond>
2.0000

> <Gold.PLP.Chemscore.CHOScore>
0.9814

> <Gold.PLP.Chemscore.Metal>
0.0000

> <Gold.Chemscore.Hbonds>
donor molecule, donor type, donor heavy atom, donor atom, acceptor molecule, acceptor atom, score
      L1  H     5    27       P1  7948  0.95
      L1  H    10    32       P1  7948  1.00
      L1  C    14    37       P1  7921  1.00

> <Gold.PLP.Chemscore.Internal.Correction>
0.1341

> <Gold.Rescore>
     Score         DG    S(hbond)    S(metal)    S(lipo)     H(rot)  DE(clash)    DE(int)     intcor
     13.26     -14.24       1.69        0.00      73.23       2.12       0.08       0.91       ----

> <Gold.Chemscore.Fitness>
13.2571

> <Gold.Chemscore.DG>
-14.2441

> <Gold.Chemscore.ZeroCoef>
-5.4800

> <Gold.Chemscore.Hbond>
1.6864

> <Gold.Chemscore.Metal>
0.0000

> <Gold.Chemscore.Lipo>
73.2258

> <Gold.Chemscore.Internal_Hbond>
0.0000

> <Gold.Chemscore.DEClash>
0.0753

> <Gold.Chemscore.DEInternal>
0.9117

> <Gold.Chemscore.Rot>
2.1234

> <Gold.Chemscore.Internal.Correction>
   9.000000E+99

> <Gold.Chemscore.Hbonds>
donor molecule, donor type, donor heavy atom, donor atom, acceptor molecule, acceptor atom, score
      L1  H     5    27       P1  7948  0.21
      L1  H    10    32       P1  7948  0.87

> <Gold.Chemscore.Hbond.Weighted>
-5.6325

> <Gold.Chemscore.Metal.Weighted>
-0.0000

> <Gold.Chemscore.Lipo.Weighted>
-8.5674

> <Gold.Chemscore.Internal_Hbond.Weighted>
0.0000

> <Gold.Chemscore.DEClash.Weighted>
0.0753

> <Gold.Chemscore.DEInternal.Weighted>
0.9117

> <Gold.Chemscore.Rot.Weighted>
5.4359

> <Gold.Chemscore.Internal.Correction.Weighted>
   9.000000E+99

> <Gold.Protein.RotatedTorsions>
[ 6907 6896 6895 6894 ] final -125.63 input  -60.11 | X-H torsion
[ 7974 7965 7964 7962 ] final   65.06 input  175.53 | X-H torsion
[ 8008 7997 7996 7995 ] final   90.38 input   59.86 | X-H torsion
[ 10167 10162 10161 10158 ] final  177.00 input  -65.29 | X-H torsion
[ 10718 10713 10712 10709 ] final   17.99 input   66.30 | X-H torsion
[ 10763 10752 10751 10750 ] final -149.01 input  -60.55 | X-H torsion
[ 11005 11000 10999 10996 ] final  141.18 input  -57.11 | X-H torsion

> <Gold.Protein.ActiveResidues>
 VAL166  LYS551  ARG553  GLY616  TRP617  ASP618  TYR619  PRO620  LYS621  CYS622 
 ASP623  PHE694  ASN695  SER759  ASP760  ASP761  ALA762  ILE779  LEU786  VAL792 
 PHE793  MET794  SER795  GLU796  ALA797  LYS798  CYS799  TRP800  GLU811  SER814 

> <Gold.Protein.RotatedAtoms>
  150.8887  133.7272  159.2910 H   0  0  0  0  0  0  0  0  0  0  0  0  # atno 6907 bound_to 6896
  151.4829  135.1052  159.9792 H   0  0  0  0  0  0  0  0  0  0  0  0  # atno 6908 bound_to 6896
  152.4806  133.8199  159.7103 H   0  0  0  0  0  0  0  0  0  0  0  0  # atno 6909 bound_to 6896
  145.8429  139.3206  143.0920 H   0  0  0  0  0  0  0  0  0  0  0  0  # atno 7974 bound_to 7965
  156.0112  140.3350  155.6943 H   0  0  0  0  0  0  0  0  0  0  0  0  # atno 8008 bound_to 7997
  155.6155  140.0669  157.2711 H   0  0  0  0  0  0  0  0  0  0  0  0  # atno 8009 bound_to 7997
  154.4282  140.1786  156.1304 H   0  0  0  0  0  0  0  0  0  0  0  0  # atno 8010 bound_to 7997
  139.5236  144.2850  152.0514 H   0  0  0  0  0  0  0  0  0  0  0  0  # atno 10167 bound_to 10162
  157.0900  130.6423  149.5846 H   0  0  0  0  0  0  0  0  0  0  0  0  # atno 10718 bound_to 10713
  154.8201  135.3320  154.7062 H   0  0  0  0  0  0  0  0  0  0  0  0  # atno 10763 bound_to 10752
  153.7696  135.6926  153.4913 H   0  0  0  0  0  0  0  0  0  0  0  0  # atno 10764 bound_to 10752
  153.2054  135.4501  155.0265 H   0  0  0  0  0  0  0  0  0  0  0  0  # atno 10765 bound_to 10752
  140.0382  134.9318  157.0793 H   0  0  0  0  0  0  0  0  0  0  0  0  # atno 11005 bound_to 11000
  145.9444  140.8955  143.0291 LP  0  0  0  0  0  0  0  0  0  0  0  0  # atno 17320 bound_to 7965
  144.6732  140.1594  143.7423 LP  0  0  0  0  0  0  0  0  0  0  0  0  # atno 17321 bound_to 7965
  140.2303  144.4375  150.6303 LP  0  0  0  0  0  0  0  0  0  0  0  0  # atno 17342 bound_to 10162
  140.6360  143.2195  151.6395 LP  0  0  0  0  0  0  0  0  0  0  0  0  # atno 17343 bound_to 10162
  155.9900  130.4950  150.7240 LP  0  0  0  0  0  0  0  0  0  0  0  0  # atno 17370 bound_to 10713
  157.4729  131.0895  151.0622 LP  0  0  0  0  0  0  0  0  0  0  0  0  # atno 17371 bound_to 10713
  140.4113  134.1978  155.7163 LP  0  0  0  0  0  0  0  0  0  0  0  0  # atno 17394 bound_to 11000
  141.1869  133.8293  157.1053 LP  0  0  0  0  0  0  0  0  0  0  0  0  # atno 17395 bound_to 11000

$$$$
