AV-unprocessed.smi:2352|AV-procd|sdf|9379|dock6
  -GOLD-   2272013 03D 1   1.00000     0.00000
 Structure written by MMmdl.
 37 38  0  0  0  0  0  0  0  0  1 V2000
  145.2275  139.5562  155.5661 C   0  0  0  0  0  0  0  0  0  0  0  0
  146.7040  139.6678  155.2286 C   0  0  0  0  0  0  0  0  0  0  0  0
  147.4946  138.5804  155.6117 N   0  0  0  0  0  0  0  0  0  0  0  0
  148.7633  138.5863  155.3630 C   0  0  0  0  0  0  0  0  0  0  0  0
  149.3820  139.6642  154.7088 N   0  0  0  0  0  0  0  0  0  0  0  0
  150.8328  139.5455  154.4840 C   0  0  0  0  0  0  0  0  0  0  0  0
  151.6081  139.2635  155.7902 C   0  0  1  0  0  0  0  0  0  0  0  0
  152.9250  138.8684  155.4587 O   0  0  0  0  0  0  0  0  0  0  0  0
  151.6079  140.4841  156.6986 C   0  0  0  0  0  0  0  0  0  0  0  0
  150.9828  141.6755  156.2745 C   0  0  0  0  0  0  0  0  0  0  0  0
  150.9823  142.8126  157.1052 C   0  0  0  0  0  0  0  0  0  0  0  0
  151.6053  142.7734  158.3710 C   0  0  0  0  0  0  0  0  0  0  0  0
  151.6079  144.0075  159.2613 C   0  0  0  0  0  0  0  0  0  0  0  0
  152.2451  143.7721  160.4090 F   0  0  0  0  0  0  0  0  0  0  0  0
  152.2230  145.0044  158.6264 F   0  0  0  0  0  0  0  0  0  0  0  0
  150.3612  144.3843  159.5470 F   0  0  0  0  0  0  0  0  0  0  0  0
  152.2422  141.5848  158.7892 C   0  0  0  0  0  0  0  0  0  0  0  0
  152.2432  140.4473  157.9588 C   0  0  0  0  0  0  0  0  0  0  0  0
  148.6866  140.7686  154.3103 C   0  0  0  0  0  0  0  0  0  0  0  0
  149.2425  141.7159  153.7508 O   0  0  0  0  0  0  0  0  0  0  0  0
  147.2430  140.7461  154.5966 C   0  0  0  0  0  0  0  0  0  0  0  0
  146.4317  141.9583  154.1560 C   0  0  0  0  0  0  0  0  0  0  0  0
  144.6237  139.5993  154.6593 H   0  0  0  0  0  0  0  0  0  0  0  0
  144.9241  140.3685  156.2271 H   0  0  0  0  0  0  0  0  0  0  0  0
  145.0051  138.6153  156.0709 H   0  0  0  0  0  0  0  0  0  0  0  0
  149.4249  137.7656  155.6454 H   0  0  0  0  0  0  0  0  0  0  0  0
  151.0776  138.8003  153.7240 H   0  0  0  0  0  0  0  0  0  0  0  0
  151.1824  140.4877  154.0569 H   0  0  0  0  0  0  0  0  0  0  0  0
  151.1458  138.4379  156.3327 H   0  0  0  0  0  0  0  0  0  0  0  0
  152.9143  137.9504  155.2350 H   0  0  0  0  0  0  0  0  0  0  0  0
  150.5030  141.7235  155.3077 H   0  0  0  0  0  0  0  0  0  0  0  0
  150.5027  143.7184  156.7643 H   0  0  0  0  0  0  0  0  0  0  0  0
  152.7363  141.5391  159.7486 H   0  0  0  0  0  0  0  0  0  0  0  0
  152.7374  139.5466  158.2930 H   0  0  0  0  0  0  0  0  0  0  0  0
  146.8002  142.8573  154.6513 H   0  0  0  0  0  0  0  0  0  0  0  0
  145.3705  141.8704  154.3827 H   0  0  0  0  0  0  0  0  0  0  0  0
  146.5257  142.1023  153.0790 H   0  0  0  0  0  0  0  0  0  0  0  0
  1  2  1  0  0  0  0
  1 23  1  0  0  0  0
  1 24  1  0  0  0  0
  1 25  1  0  0  0  0
  2 21  2  0  0  0  0
  2  3  1  0  0  0  0
  3  4  2  0  0  0  0
  4  5  1  0  0  0  0
  4 26  1  0  0  0  0
  5  6  1  0  0  0  0
  5 19  1  0  0  0  0
  6  7  1  0  0  0  0
  6 27  1  0  0  0  0
  6 28  1  0  0  0  0
  7  8  1  0  0  0  0
  7  9  1  0  0  0  0
  7 29  1  0  0  0  0
  8 30  1  0  0  0  0
  9 18  1  0  0  0  0
  9 10  2  0  0  0  0
 10 11  1  0  0  0  0
 10 31  1  0  0  0  0
 11 12  2  0  0  0  0
 11 32  1  0  0  0  0
 12 13  1  0  0  0  0
 12 17  1  0  0  0  0
 13 14  1  0  0  0  0
 13 15  1  0  0  0  0
 13 16  1  0  0  0  0
 17 18  2  0  0  0  0
 17 33  1  0  0  0  0
 18 34  1  0  0  0  0
 19 20  2  0  0  0  0
 19 21  1  0  0  0  0
 21 22  1  0  0  0  0
 22 35  1  0  0  0  0
 22 36  1  0  0  0  0
 22 37  1  0  0  0  0
M  END
> <s_m_source_file>
AV-unprocessed.smi

> <i_m_source_file_index>
2352

> <i_lp_mmshare_version>
43012

> <i_f3d_flags>
0

> <s_epik_input>
W0NIM11jMW5bY0hdbihjKD1PKWMxW0NIM10pW0NIMl1bQ0BIXShbT0hdKWMyW2NIXVtjSF1jKEMoRikoRilGKVtjSF1bY0hdMg==

> <s_epik_cmdline>
J2VwaWtfcHl0aG9uJywgJy1waCcsICc3LjAnLCAnLXRuJywgJzgnLCAnLW1hJywgJzIwMCcsICctbWV0YWxfYmluZGluZycsICctaW1hZScsICc8aW5maWxlLm1hZT4nLCAnLW9tYWUnLCAnPG91dGZpbGUubWFlPic=

> <r_lp_tautomer_probability>
1

> <r_epik_Ionization_Penalty>
5.07001e-05

> <r_epik_Ionization_Penalty_Charging>
7.56727e-08

> <r_epik_Ionization_Penalty_Neutral>
5.06244e-05

> <r_epik_State_Penalty>
-0

> <r_epik_Charging_Adjusted_Penalty>
7.56727e-08

> <i_epik_Tot_Q>
0

> <i_epik_Tot_abs_Q>
0

> <r_epik_Metal_State_Penalty>
-0

> <b_epik_Metal_Only>
0

> <s_lp_Force_Field>
OPLS_2005

> <r_lp_Energy>
21.4472

> <b_lp_Chiralities_Consistent>
1

> <s_lp_Variant>
AV-unprocessed.smi:2352-2

> <Gold.Version>
5.8.1

> <Gold.Id.Protein>
6NUR|6NUR_protein|mol2

> <Gold.PLP.Fitness>
49.1740

> <Gold.PLP.PLP>
-44.4314

> <Gold.PLP.part.hbond>
-2.8977

> <Gold.PLP.part.metal>
0.0000

> <Gold.PLP.part.buried>
-2.8360

> <Gold.PLP.part.nonpolar>
-39.2854

> <Gold.PLP.part.repulsive>
0.2327

> <Gold.PLP.ligand.clash>
1.0208

> <Gold.PLP.ligand.torsion>
0.1003

> <Gold.PLP.Chemscore.Hbond>
1.6400

> <Gold.PLP.Chemscore.CHOScore>
0.0000

> <Gold.PLP.Chemscore.Metal>
0.0000

> <Gold.Chemscore.Hbonds>
donor molecule, donor type, donor heavy atom, donor atom, acceptor molecule, acceptor atom, score
      P1  H  7997  8010       L1     8  0.99
      P1  H  8011  8017       L1    20  0.64

> <Gold.PLP.Chemscore.Internal.Correction>
1.0440

> <Gold.Rescore>
     Score         DG    S(hbond)    S(metal)    S(lipo)     H(rot)  DE(clash)    DE(int)     intcor
     15.23     -15.88       1.75        0.00      85.57       2.13       0.39       0.26       ----

> <Gold.Chemscore.Fitness>
15.2344

> <Gold.Chemscore.DG>
-15.8792

> <Gold.Chemscore.ZeroCoef>
-5.4800

> <Gold.Chemscore.Hbond>
1.7524

> <Gold.Chemscore.Metal>
0.0000

> <Gold.Chemscore.Lipo>
85.5653

> <Gold.Chemscore.Internal_Hbond>
0.0000

> <Gold.Chemscore.DEClash>
0.3880

> <Gold.Chemscore.DEInternal>
0.2568

> <Gold.Chemscore.Rot>
2.1347

> <Gold.Chemscore.Internal.Correction>
   9.000000E+99

> <Gold.Chemscore.Hbonds>
donor molecule, donor type, donor heavy atom, donor atom, acceptor molecule, acceptor atom, score
      P1  H  7997  8010       L1     8  0.81
      P1  H  8011  8017       L1    20  0.64

> <Gold.Chemscore.Hbond.Weighted>
-5.8530

> <Gold.Chemscore.Metal.Weighted>
-0.0000

> <Gold.Chemscore.Lipo.Weighted>
-10.0111

> <Gold.Chemscore.Internal_Hbond.Weighted>
0.0000

> <Gold.Chemscore.DEClash.Weighted>
0.3880

> <Gold.Chemscore.DEInternal.Weighted>
0.2568

> <Gold.Chemscore.Rot.Weighted>
5.4649

> <Gold.Chemscore.Internal.Correction.Weighted>
   9.000000E+99

> <Gold.Protein.RotatedTorsions>
[ 6907 6896 6895 6894 ] final  112.02 input  -60.11 | X-H torsion
[ 7974 7965 7964 7962 ] final  107.10 input  175.53 | X-H torsion
[ 8008 7997 7996 7995 ] final   89.83 input   59.86 | X-H torsion
[ 10167 10162 10161 10158 ] final   34.16 input  -65.29 | X-H torsion
[ 10718 10713 10712 10709 ] final  -80.55 input   66.30 | X-H torsion
[ 10763 10752 10751 10750 ] final  118.23 input  -60.55 | X-H torsion
[ 11005 11000 10999 10996 ] final  -83.60 input  -57.11 | X-H torsion

> <Gold.Protein.ActiveResidues>
 VAL166  LYS551  ARG553  GLY616  TRP617  ASP618  TYR619  PRO620  LYS621  CYS622 
 ASP623  PHE694  ASN695  SER759  ASP760  ASP761  ALA762  ILE779  LEU786  VAL792 
 PHE793  MET794  SER795  GLU796  ALA797  LYS798  CYS799  TRP800  GLU811  SER814 

> <Gold.Protein.RotatedAtoms>
  152.4939  133.8575  159.7232 H   0  0  0  0  0  0  0  0  0  0  0  0  # atno 6907 bound_to 6896
  150.9095  133.7006  159.2865 H   0  0  0  0  0  0  0  0  0  0  0  0  # atno 6908 bound_to 6896
  151.4420  135.1025  159.9725 H   0  0  0  0  0  0  0  0  0  0  0  0  # atno 6909 bound_to 6896
  145.2980  139.2579  143.3829 H   0  0  0  0  0  0  0  0  0  0  0  0  # atno 7974 bound_to 7965
  156.0047  140.3356  155.6880 H   0  0  0  0  0  0  0  0  0  0  0  0  # atno 8008 bound_to 7997
  155.6241  140.0678  157.2687 H   0  0  0  0  0  0  0  0  0  0  0  0  # atno 8009 bound_to 7997
  154.4261  140.1771  156.1391 H   0  0  0  0  0  0  0  0  0  0  0  0  # atno 8010 bound_to 7997
  140.4341  144.1283  150.6163 H   0  0  0  0  0  0  0  0  0  0  0  0  # atno 10167 bound_to 10162
  156.0068  130.4577  150.3817 H   0  0  0  0  0  0  0  0  0  0  0  0  # atno 10718 bound_to 10713
  153.5645  135.3514  155.2813 H   0  0  0  0  0  0  0  0  0  0  0  0  # atno 10763 bound_to 10752
  154.8690  135.4144  154.2793 H   0  0  0  0  0  0  0  0  0  0  0  0  # atno 10764 bound_to 10752
  153.3546  135.7057  153.6830 H   0  0  0  0  0  0  0  0  0  0  0  0  # atno 10765 bound_to 10752
  141.1656  133.7303  156.8744 H   0  0  0  0  0  0  0  0  0  0  0  0  # atno 11005 bound_to 11000
  146.3162  140.3487  142.8654 LP  0  0  0  0  0  0  0  0  0  0  0  0  # atno 17320 bound_to 7965
  144.9117  140.7765  143.5803 LP  0  0  0  0  0  0  0  0  0  0  0  0  # atno 17321 bound_to 7965
  140.4394  143.2533  151.9493 LP  0  0  0  0  0  0  0  0  0  0  0  0  # atno 17342 bound_to 10162
  139.4786  144.5669  151.8151 LP  0  0  0  0  0  0  0  0  0  0  0  0  # atno 17343 bound_to 10162
  157.1897  131.0412  151.2706 LP  0  0  0  0  0  0  0  0  0  0  0  0  # atno 17370 bound_to 10713
  157.4072  130.7365  149.6812 LP  0  0  0  0  0  0  0  0  0  0  0  0  # atno 17371 bound_to 10713
  140.1759  134.9068  157.2889 LP  0  0  0  0  0  0  0  0  0  0  0  0  # atno 17394 bound_to 11000
  140.2450  134.3751  155.7465 LP  0  0  0  0  0  0  0  0  0  0  0  0  # atno 17395 bound_to 11000

$$$$
