AV-unprocessed.smi:1116|AV-procd|sdf|4812|dock5
  -GOLD-   22720 3363D 1   1.00000     0.00000
 Structure written by MMmdl.
 35 36  0  0  0  0  0  0  0  0  2 V2000
  152.2986  144.0248  161.6908 C   0  0  0  0  0  0  0  0  0  0  0  0
  151.7307  144.0987  160.3150 C   0  0  0  0  0  0  0  0  0  0  0  0
  151.1016  143.0820  159.7197 N   0  0  0  0  0  0  0  0  0  0  0  0
  150.6655  143.4001  158.4295 C   0  0  0  0  0  0  0  0  0  0  0  0
  149.9471  142.3737  157.6072 C   0  0  0  0  0  0  0  0  0  0  0  0
  148.6362  141.9161  158.2682 C   0  0  0  0  0  0  0  0  0  0  0  0
  147.6180  142.9598  158.2274 N   0  0  0  0  0  0  0  0  0  0  0  0
  146.4151  142.8851  158.8172 C   0  0  0  0  0  0  0  0  0  0  0  0
  146.0374  141.9017  159.4547 O   0  0  0  0  0  0  0  0  0  0  0  0
  145.4997  144.1018  158.6527 C   0  0  0  0  0  0  0  0  0  0  0  0
  145.9179  145.2869  159.5439 C   0  0  0  0  0  0  0  0  0  0  0  0
  145.5140  145.1009  161.0198 C   0  0  1  0  0  0  0  0  0  0  0  0
  144.0946  144.8483  161.1444 N   0  0  0  0  0  0  0  0  0  0  0  0
  143.8595  143.6853  161.7487 C   0  0  0  0  0  0  0  0  0  0  0  0
  142.7164  143.2908  161.9680 O   0  0  0  0  0  0  0  0  0  0  0  0
  145.0219  143.0725  162.0452 N   0  5  0  0  0  0  0  0  0  0  0  0
  146.0717  143.8239  161.6485 C   0  0  0  0  0  0  0  0  0  0  0  0
  147.2801  143.6136  161.7397 O   0  0  0  0  0  0  0  0  0  0  0  0
  150.9724  144.6849  158.0560 C   0  0  0  0  0  0  0  0  0  0  0  0
  151.8235  145.5413  159.3121 S   0  0  0  0  0  0  0  0  0  0  0  0
  152.3118  142.9940  162.0463 H   0  0  0  0  0  0  0  0  0  0  0  0
  151.6969  144.6239  162.3744 H   0  0  0  0  0  0  0  0  0  0  0  0
  153.3194  144.4072  161.6941 H   0  0  0  0  0  0  0  0  0  0  0  0
  149.7345  142.7764  156.6159 H   0  0  0  0  0  0  0  0  0  0  0  0
  150.5967  141.5124  157.4459 H   0  0  0  0  0  0  0  0  0  0  0  0
  148.2628  141.0098  157.7882 H   0  0  0  0  0  0  0  0  0  0  0  0
  148.8160  141.6608  159.3130 H   0  0  0  0  0  0  0  0  0  0  0  0
  147.8471  143.8024  157.7203 H   0  0  0  0  0  0  0  0  0  0  0  0
  145.4948  144.4161  157.6076 H   0  0  0  0  0  0  0  0  0  0  0  0
  144.4813  143.7929  158.8904 H   0  0  0  0  0  0  0  0  0  0  0  0
  146.9953  145.4494  159.4754 H   0  0  0  0  0  0  0  0  0  0  0  0
  145.4499  146.1955  159.1610 H   0  0  0  0  0  0  0  0  0  0  0  0
  145.7989  145.9631  161.6245 H   0  0  0  0  0  0  0  0  0  0  0  0
  143.3827  145.4891  160.8264 H   0  0  0  0  0  0  0  0  0  0  0  0
  150.7519  145.1773  157.1203 H   0  0  0  0  0  0  0  0  0  0  0  0
  1  2  1  0  0  0  0
  1 21  1  0  0  0  0
  1 22  1  0  0  0  0
  1 23  1  0  0  0  0
  2 20  1  0  0  0  0
  2  3  2  0  0  0  0
  3  4  1  0  0  0  0
  4  5  1  0  0  0  0
  4 19  2  0  0  0  0
  5  6  1  0  0  0  0
  5 24  1  0  0  0  0
  5 25  1  0  0  0  0
  6  7  1  0  0  0  0
  6 26  1  0  0  0  0
  6 27  1  0  0  0  0
  7  8  1  0  0  0  0
  7 28  1  0  0  0  0
  8  9  2  0  0  0  0
  8 10  1  0  0  0  0
 10 11  1  0  0  0  0
 10 29  1  0  0  0  0
 10 30  1  0  0  0  0
 11 12  1  0  0  0  0
 11 31  1  0  0  0  0
 11 32  1  0  0  0  0
 12 17  1  0  0  0  0
 12 13  1  0  0  0  0
 12 33  1  0  0  0  0
 13 14  1  0  0  0  0
 13 34  1  0  0  0  0
 14 15  2  0  0  0  0
 14 16  1  0  0  0  0
 16 17  1  0  0  0  0
 17 18  2  0  0  0  0
 19 20  1  0  0  0  0
 19 35  1  0  0  0  0
M  CHG  1  16  -1
M  END
> <s_m_source_file>
AV-unprocessed.smi

> <i_m_source_file_index>
1116

> <i_lp_mmshare_version>
43012

> <i_f3d_flags>
0

> <s_epik_input>
W0NIM11jMW5jKFtjSF1zMSlbQ0gyXVtDSDJdW05IXUMoPU8pW0NIMl1bQ0gyXVtDQEBIXTJbTkhdQyg9TylbTkhdQzI9Tw==

> <s_epik_cmdline>
J2VwaWtfcHl0aG9uJywgJy1waCcsICc3LjAnLCAnLXRuJywgJzgnLCAnLW1hJywgJzIwMCcsICctbWV0YWxfYmluZGluZycsICctaW1hZScsICc8aW5maWxlLm1hZT4nLCAnLW9tYWUnLCAnPG91dGZpbGUubWFlPic=

> <r_lp_tautomer_probability>
1

> <r_epik_Ionization_Penalty>
2.5713

> <r_epik_Ionization_Penalty_Charging>
2.57023

> <r_epik_Ionization_Penalty_Neutral>
0.00106405

> <r_epik_State_Penalty>
2.56828

> <r_epik_Charging_Adjusted_Penalty>
5.13851

> <i_epik_Tot_Q>
-1

> <i_epik_Tot_abs_Q>
1

> <r_epik_Metal_State_Penalty>
0.44525

> <b_epik_Metal_Only>
1

> <s_lp_Force_Field>
OPLS_2005

> <r_lp_Energy>
2.19092

> <b_lp_Chiralities_Consistent>
1

> <s_lp_Variant>
AV-unprocessed.smi:1116-6

> <Gold.Version>
5.8.1

> <Gold.Id.Protein>
6NUR|6NUR_protein|mol2

> <Gold.PLP.Fitness>
46.3679

> <Gold.PLP.PLP>
-37.0758

> <Gold.PLP.part.hbond>
-4.8679

> <Gold.PLP.part.metal>
0.0000

> <Gold.PLP.part.buried>
-4.3521

> <Gold.PLP.part.nonpolar>
-28.8062

> <Gold.PLP.part.repulsive>
0.3360

> <Gold.PLP.ligand.clash>
0.0000

> <Gold.PLP.ligand.torsion>
0.3216

> <Gold.PLP.Chemscore.Hbond>
2.3668

> <Gold.PLP.Chemscore.CHOScore>
0.9248

> <Gold.PLP.Chemscore.Metal>
0.0000

> <Gold.Chemscore.Hbonds>
donor molecule, donor type, donor heavy atom, donor atom, acceptor molecule, acceptor atom, score
      L1  H     7    28       P1  8029  0.26
      P1  H  6933  6944       L1    18  1.00
      P1  H  6934  6946       L1     9  1.00
      L1  C    19    35       P1  8028  0.95

> <Gold.PLP.Chemscore.Internal.Correction>
0.0606

> <Gold.Rescore>
     Score         DG    S(hbond)    S(metal)    S(lipo)     H(rot)  DE(clash)    DE(int)     intcor
     12.74     -13.28       1.75        0.00      77.40       2.77       0.15       0.39       ----

> <Gold.Chemscore.Fitness>
12.7378

> <Gold.Chemscore.DG>
-13.2780

> <Gold.Chemscore.ZeroCoef>
-5.4800

> <Gold.Chemscore.Hbond>
1.7457

> <Gold.Chemscore.Metal>
0.0000

> <Gold.Chemscore.Lipo>
77.4049

> <Gold.Chemscore.Internal_Hbond>
0.0000

> <Gold.Chemscore.DEClash>
0.1532

> <Gold.Chemscore.DEInternal>
0.3870

> <Gold.Chemscore.Rot>
2.7691

> <Gold.Chemscore.Internal.Correction>
   9.000000E+99

> <Gold.Chemscore.Hbonds>
donor molecule, donor type, donor heavy atom, donor atom, acceptor molecule, acceptor atom, score
      L1  H     7    28       P1  8029  0.01
      P1  H  6933  6944       L1    18  0.96
      P1  H  6934  6946       L1     9  0.98

> <Gold.Chemscore.Hbond.Weighted>
-5.8306

> <Gold.Chemscore.Metal.Weighted>
-0.0000

> <Gold.Chemscore.Lipo.Weighted>
-9.0564

> <Gold.Chemscore.Internal_Hbond.Weighted>
0.0000

> <Gold.Chemscore.DEClash.Weighted>
0.1532

> <Gold.Chemscore.DEInternal.Weighted>
0.3870

> <Gold.Chemscore.Rot.Weighted>
7.0889

> <Gold.Chemscore.Internal.Correction.Weighted>
   9.000000E+99

> <Gold.Protein.RotatedTorsions>
[ 6907 6896 6895 6894 ] final   44.29 input  -60.11 | X-H torsion
[ 7974 7965 7964 7962 ] final  143.36 input  175.53 | X-H torsion
[ 8008 7997 7996 7995 ] final  -32.62 input   59.86 | X-H torsion
[ 10167 10162 10161 10158 ] final  125.35 input  -65.29 | X-H torsion
[ 10718 10713 10712 10709 ] final -167.24 input   66.30 | X-H torsion
[ 10763 10752 10751 10750 ] final   58.11 input  -60.55 | X-H torsion
[ 11005 11000 10999 10996 ] final   98.02 input  -57.11 | X-H torsion

> <Gold.Protein.ActiveResidues>
 VAL166  LYS551  ARG553  GLY616  TRP617  ASP618  TYR619  PRO620  LYS621  CYS622 
 ASP623  PHE694  ASN695  SER759  ASP760  ASP761  ALA762  ILE779  LEU786  VAL792 
 PHE793  MET794  SER795  GLU796  ALA797  LYS798  CYS799  TRP800  GLU811  SER814 

> <Gold.Protein.RotatedAtoms>
  152.2307  134.8324  160.0473 H   0  0  0  0  0  0  0  0  0  0  0  0  # atno 6907 bound_to 6896
  151.9074  133.3548  159.3860 H   0  0  0  0  0  0  0  0  0  0  0  0  # atno 6908 bound_to 6896
  150.7025  134.4692  159.5461 H   0  0  0  0  0  0  0  0  0  0  0  0  # atno 6909 bound_to 6896
  144.8927  139.5534  143.5790 H   0  0  0  0  0  0  0  0  0  0  0  0  # atno 7974 bound_to 7965
  154.4174  140.1732  156.1756 H   0  0  0  0  0  0  0  0  0  0  0  0  # atno 8008 bound_to 7997
  155.9724  140.3384  155.6564 H   0  0  0  0  0  0  0  0  0  0  0  0  # atno 8009 bound_to 7997
  155.6607  140.0700  157.2545 H   0  0  0  0  0  0  0  0  0  0  0  0  # atno 8010 bound_to 7997
  139.5691  144.6928  151.3829 H   0  0  0  0  0  0  0  0  0  0  0  0  # atno 10167 bound_to 10162
  156.6796  130.9116  151.3055 H   0  0  0  0  0  0  0  0  0  0  0  0  # atno 10718 bound_to 10713
  152.9864  135.5618  154.5499 H   0  0  0  0  0  0  0  0  0  0  0  0  # atno 10763 bound_to 10752
  154.4938  135.2794  155.1478 H   0  0  0  0  0  0  0  0  0  0  0  0  # atno 10764 bound_to 10752
  154.2936  135.6321  153.5448 H   0  0  0  0  0  0  0  0  0  0  0  0  # atno 10765 bound_to 10752
  139.8774  134.9029  156.4394 H   0  0  0  0  0  0  0  0  0  0  0  0  # atno 11005 bound_to 11000
  146.3063  139.7593  142.9053 LP  0  0  0  0  0  0  0  0  0  0  0  0  # atno 17320 bound_to 7965
  145.3754  141.0349  143.3208 LP  0  0  0  0  0  0  0  0  0  0  0  0  # atno 17321 bound_to 7965
  140.6975  143.7714  150.7349 LP  0  0  0  0  0  0  0  0  0  0  0  0  # atno 17342 bound_to 10162
  140.1214  143.4608  152.2310 LP  0  0  0  0  0  0  0  0  0  0  0  0  # atno 17343 bound_to 10162
  157.7048  130.9373  150.0898 LP  0  0  0  0  0  0  0  0  0  0  0  0  # atno 17370 bound_to 10713
  156.1878  130.3653  149.8950 LP  0  0  0  0  0  0  0  0  0  0  0  0  # atno 17371 bound_to 10713
  140.9010  133.7779  155.9681 LP  0  0  0  0  0  0  0  0  0  0  0  0  # atno 17394 bound_to 11000
  140.8650  134.2795  157.5217 LP  0  0  0  0  0  0  0  0  0  0  0  0  # atno 17395 bound_to 11000

$$$$
