AV-unprocessed.smi:2684|AV-procd|sdf|10380|dock6
  -GOLD-   2272014413D 1   1.00000     0.00000
 Structure written by MMmdl.
 44 45  0  0  0  0  0  0  0  0  1 V2000
  147.1762  141.9868  155.0200 C   0  0  0  0  0  0  0  0  0  0  0  0
  148.4138  141.1417  154.9389 C   0  0  0  0  0  0  0  0  0  0  0  0
  149.7493  141.5115  155.2653 C   0  0  0  0  0  0  0  0  0  0  0  0
  150.6167  140.5318  155.0701 N   0  0  0  0  0  0  0  0  0  0  0  0
  149.8663  139.5010  154.6251 N   0  0  0  0  0  0  0  0  0  0  0  0
  150.4960  138.2356  154.2917 C   0  0  0  0  0  0  0  0  0  0  0  0
  149.8964  137.0233  155.0404 C   0  0  2  0  0  0  0  0  0  0  0  0
  150.7908  135.7865  154.8774 C   0  0  0  0  0  0  0  0  0  0  0  0
  148.5823  136.6775  154.5041 N   0  0  0  0  0  0  0  0  0  0  0  0
  148.0571  135.4323  155.0784 C   0  0  0  0  0  0  0  0  0  0  0  0
  146.9850  134.8012  154.1792 C   0  0  0  0  0  0  0  0  0  0  0  0
  146.0182  134.2500  154.7024 O   0  0  0  0  0  0  0  0  0  0  0  0
  147.0932  134.8578  152.8395 N   0  0  0  0  0  0  0  0  0  0  0  0
  146.1890  134.3243  151.8226 C   0  0  0  0  0  0  0  0  0  0  0  0
  144.7803  134.9363  151.9398 C   0  0  0  0  0  0  0  0  0  0  0  0
  143.8069  134.2425  150.9742 C   0  0  0  0  0  0  0  0  0  0  0  0
  143.7750  132.8443  151.2382 O   0  0  0  0  0  0  0  0  0  0  0  0
  145.0331  132.2121  151.0322 C   0  0  0  0  0  0  0  0  0  0  0  0
  146.0851  132.8000  151.9868 C   0  0  0  0  0  0  0  0  0  0  0  0
  148.5342  139.8431  154.5325 C   0  0  0  0  0  0  0  0  0  0  0  0
  147.2824  142.7918  155.7474 H   0  0  0  0  0  0  0  0  0  0  0  0
  146.3062  141.3993  155.3142 H   0  0  0  0  0  0  0  0  0  0  0  0
  146.9431  142.4490  154.0604 H   0  0  0  0  0  0  0  0  0  0  0  0
  150.1127  142.4601  155.6319 H   0  0  0  0  0  0  0  0  0  0  0  0
  150.4314  138.0870  153.2125 H   0  0  0  0  0  0  0  0  0  0  0  0
  151.5580  138.3261  154.5249 H   0  0  0  0  0  0  0  0  0  0  0  0
  149.8346  137.2378  156.1091 H   0  0  0  0  0  0  0  0  0  0  0  0
  151.7878  135.9704  155.2784 H   0  0  0  0  0  0  0  0  0  0  0  0
  150.9025  135.5082  153.8287 H   0  0  0  0  0  0  0  0  0  0  0  0
  150.3789  134.9279  155.4095 H   0  0  0  0  0  0  0  0  0  0  0  0
  148.6519  136.5993  153.4994 H   0  0  0  0  0  0  0  0  0  0  0  0
  148.8692  134.7117  155.1833 H   0  0  0  0  0  0  0  0  0  0  0  0
  147.6830  135.6250  156.0792 H   0  0  0  0  0  0  0  0  0  0  0  0
  147.9029  135.3441  152.4825 H   0  0  0  0  0  0  0  0  0  0  0  0
  146.5975  134.5223  150.8313 H   0  0  0  0  0  0  0  0  0  0  0  0
  144.4124  134.8248  152.9606 H   0  0  0  0  0  0  0  0  0  0  0  0
  144.7979  136.0060  151.7332 H   0  0  0  0  0  0  0  0  0  0  0  0
  142.8027  134.6471  151.1005 H   0  0  0  0  0  0  0  0  0  0  0  0
  144.0942  134.4225  149.9371 H   0  0  0  0  0  0  0  0  0  0  0  0
  144.9226  131.1426  151.2118 H   0  0  0  0  0  0  0  0  0  0  0  0
  145.3425  132.3267  149.9935 H   0  0  0  0  0  0  0  0  0  0  0  0
  147.0538  132.3329  151.8061 H   0  0  0  0  0  0  0  0  0  0  0  0
  145.8079  132.5552  153.0133 H   0  0  0  0  0  0  0  0  0  0  0  0
  147.7895  139.1407  154.1883 H   0  0  0  0  0  0  0  0  0  0  0  0
  1  2  1  0  0  0  0
  1 21  1  0  0  0  0
  1 22  1  0  0  0  0
  1 23  1  0  0  0  0
  2 20  2  0  0  0  0
  2  3  1  0  0  0  0
  3  4  2  0  0  0  0
  3 24  1  0  0  0  0
  4  5  1  0  0  0  0
  5  6  1  0  0  0  0
  5 20  1  0  0  0  0
  6  7  1  0  0  0  0
  6 25  1  0  0  0  0
  6 26  1  0  0  0  0
  7  8  1  0  0  0  0
  7  9  1  0  0  0  0
  7 27  1  0  0  0  0
  8 28  1  0  0  0  0
  8 29  1  0  0  0  0
  8 30  1  0  0  0  0
  9 10  1  0  0  0  0
  9 31  1  0  0  0  0
 10 11  1  0  0  0  0
 10 32  1  0  0  0  0
 10 33  1  0  0  0  0
 11 12  2  0  0  0  0
 11 13  1  0  0  0  0
 13 14  1  0  0  0  0
 13 34  1  0  0  0  0
 14 19  1  0  0  0  0
 14 15  1  0  0  0  0
 14 35  1  0  0  0  0
 15 16  1  0  0  0  0
 15 36  1  0  0  0  0
 15 37  1  0  0  0  0
 16 17  1  0  0  0  0
 16 38  1  0  0  0  0
 16 39  1  0  0  0  0
 17 18  1  0  0  0  0
 18 19  1  0  0  0  0
 18 40  1  0  0  0  0
 18 41  1  0  0  0  0
 19 42  1  0  0  0  0
 19 43  1  0  0  0  0
 20 44  1  0  0  0  0
M  END
> <s_m_source_file>
AV-unprocessed.smi

> <i_m_source_file_index>
2684

> <i_lp_mmshare_version>
43012

> <i_f3d_flags>
0

> <s_epik_input>
W0NIM11jMVtjSF1ubihbY0hdMSlbQ0gyXVtDQEhdKFtDSDNdKVtOSF1bQ0gyXUMoPU8pW05IXVtDSF0yW0NIMl1bQ0gyXU9bQ0gyXVtDSDJdMg==

> <s_epik_cmdline>
J2VwaWtfcHl0aG9uJywgJy1waCcsICc3LjAnLCAnLXRuJywgJzgnLCAnLW1hJywgJzIwMCcsICctbWV0YWxfYmluZGluZycsICctaW1hZScsICc8aW5maWxlLm1hZT4nLCAnLW9tYWUnLCAnPG91dGZpbGUubWFlPic=

> <r_lp_tautomer_probability>
1

> <r_epik_Ionization_Penalty>
0.968507

> <r_epik_Ionization_Penalty_Charging>
0

> <r_epik_Ionization_Penalty_Neutral>
0.968507

> <r_epik_State_Penalty>
1.01412

> <r_epik_Charging_Adjusted_Penalty>
1.01412

> <i_epik_Tot_Q>
0

> <i_epik_Tot_abs_Q>
0

> <r_epik_Metal_State_Penalty>
1.01401

> <b_epik_Metal_Only>
0

> <s_lp_Force_Field>
OPLS_2005

> <r_lp_Energy>
12.1402

> <b_lp_Chiralities_Consistent>
1

> <s_lp_Variant>
AV-unprocessed.smi:2684-3

> <Gold.Version>
5.8.1

> <Gold.Id.Protein>
6NUR|6NUR_protein|mol2

> <Gold.PLP.Fitness>
46.0962

> <Gold.PLP.PLP>
-35.2020

> <Gold.PLP.part.hbond>
-2.8012

> <Gold.PLP.part.metal>
0.0000

> <Gold.PLP.part.buried>
-4.6627

> <Gold.PLP.part.nonpolar>
-28.7327

> <Gold.PLP.part.repulsive>
0.3117

> <Gold.PLP.ligand.clash>
0.0000

> <Gold.PLP.ligand.torsion>
0.5665

> <Gold.PLP.Chemscore.Hbond>
3.0000

> <Gold.PLP.Chemscore.CHOScore>
1.0000

> <Gold.PLP.Chemscore.Metal>
0.0000

> <Gold.Chemscore.Hbonds>
donor molecule, donor type, donor heavy atom, donor atom, acceptor molecule, acceptor atom, score
      L1  H     9    31       P1  7948  1.00
      L1  H    13    34       P1  7948  0.88
      P1  H  7989  7998       L1     4  0.99
      L1  C     3    24       P1  8028  0.87

> <Gold.PLP.Chemscore.Internal.Correction>
0.0272

> <Gold.Rescore>
     Score         DG    S(hbond)    S(metal)    S(lipo)     H(rot)  DE(clash)    DE(int)     intcor
     16.09     -18.60       2.75        0.00      76.68       1.97       0.02       2.49       ----

> <Gold.Chemscore.Fitness>
16.0882

> <Gold.Chemscore.DG>
-18.5980

> <Gold.Chemscore.ZeroCoef>
-5.4800

> <Gold.Chemscore.Hbond>
2.7541

> <Gold.Chemscore.Metal>
0.0000

> <Gold.Chemscore.Lipo>
76.6809

> <Gold.Chemscore.Internal_Hbond>
0.0000

> <Gold.Chemscore.DEClash>
0.0202

> <Gold.Chemscore.DEInternal>
2.4896

> <Gold.Chemscore.Rot>
1.9736

> <Gold.Chemscore.Internal.Correction>
   9.000000E+99

> <Gold.Chemscore.Hbonds>
donor molecule, donor type, donor heavy atom, donor atom, acceptor molecule, acceptor atom, score
      L1  H     9    31       P1  7948  1.00
      L1  H    13    34       P1  7948  0.85
      P1  H  7989  7998       L1     4  0.17

> <Gold.Chemscore.Hbond.Weighted>
-9.1987

> <Gold.Chemscore.Metal.Weighted>
-0.0000

> <Gold.Chemscore.Lipo.Weighted>
-8.9717

> <Gold.Chemscore.Internal_Hbond.Weighted>
0.0000

> <Gold.Chemscore.DEClash.Weighted>
0.0202

> <Gold.Chemscore.DEInternal.Weighted>
2.4896

> <Gold.Chemscore.Rot.Weighted>
5.0523

> <Gold.Chemscore.Internal.Correction.Weighted>
   9.000000E+99

> <Gold.Protein.RotatedTorsions>
[ 6907 6896 6895 6894 ] final  -53.46 input  -60.11 | X-H torsion
[ 7974 7965 7964 7962 ] final  -52.45 input  175.53 | X-H torsion
[ 8008 7997 7996 7995 ] final  -64.38 input   59.86 | X-H torsion
[ 10167 10162 10161 10158 ] final -163.41 input  -65.29 | X-H torsion
[ 10718 10713 10712 10709 ] final   16.75 input   66.30 | X-H torsion
[ 10763 10752 10751 10750 ] final   96.60 input  -60.55 | X-H torsion
[ 11005 11000 10999 10996 ] final   67.23 input  -57.11 | X-H torsion

> <Gold.Protein.ActiveResidues>
 VAL166  LYS551  ARG553  GLY616  TRP617  ASP618  TYR619  PRO620  LYS621  CYS622 
 ASP623  PHE694  ASN695  SER759  ASP760  ASP761  ALA762  ILE779  LEU786  VAL792 
 PHE793  MET794  SER795  GLU796  ALA797  LYS798  CYS799  TRP800  GLU811  SER814 

> <Gold.Protein.RotatedAtoms>
  150.8425  134.7722  159.6943 H   0  0  0  0  0  0  0  0  0  0  0  0  # atno 6907 bound_to 6896
  152.4509  134.5392  159.9844 H   0  0  0  0  0  0  0  0  0  0  0  0  # atno 6908 bound_to 6896
  151.5529  133.3377  159.2992 H   0  0  0  0  0  0  0  0  0  0  0  0  # atno 6909 bound_to 6896
  145.9078  140.7941  142.9710 H   0  0  0  0  0  0  0  0  0  0  0  0  # atno 7974 bound_to 7965
  154.4609  140.0955  156.6889 H   0  0  0  0  0  0  0  0  0  0  0  0  # atno 8008 bound_to 7997
  155.4998  140.3473  155.4351 H   0  0  0  0  0  0  0  0  0  0  0  0  # atno 8009 bound_to 7997
  156.0867  140.1387  156.9632 H   0  0  0  0  0  0  0  0  0  0  0  0  # atno 8010 bound_to 7997
  139.6323  144.0417  152.2025 H   0  0  0  0  0  0  0  0  0  0  0  0  # atno 10167 bound_to 10162
  157.0724  130.6353  149.5808 H   0  0  0  0  0  0  0  0  0  0  0  0  # atno 10718 bound_to 10713
  153.2669  135.4213  155.0949 H   0  0  0  0  0  0  0  0  0  0  0  0  # atno 10763 bound_to 10752
  154.8441  135.3462  154.6299 H   0  0  0  0  0  0  0  0  0  0  0  0  # atno 10764 bound_to 10752
  153.6719  135.7043  153.5202 H   0  0  0  0  0  0  0  0  0  0  0  0  # atno 10765 bound_to 10752
  139.9783  134.6785  156.0311 H   0  0  0  0  0  0  0  0  0  0  0  0  # atno 11005 bound_to 11000
  144.6740  140.1778  143.7408 LP  0  0  0  0  0  0  0  0  0  0  0  0  # atno 17320 bound_to 7965
  145.8710  139.2272  143.1661 LP  0  0  0  0  0  0  0  0  0  0  0  0  # atno 17321 bound_to 7965
  140.0085  144.6241  150.7667 LP  0  0  0  0  0  0  0  0  0  0  0  0  # atno 17342 bound_to 10162
  140.7446  143.2862  151.3456 LP  0  0  0  0  0  0  0  0  0  0  0  0  # atno 17343 bound_to 10162
  155.9947  130.5011  150.7429 LP  0  0  0  0  0  0  0  0  0  0  0  0  # atno 17370 bound_to 10713
  157.4867  131.0907  151.0474 LP  0  0  0  0  0  0  0  0  0  0  0  0  # atno 17371 bound_to 10713
  141.1458  133.6556  156.3863 LP  0  0  0  0  0  0  0  0  0  0  0  0  # atno 17394 bound_to 11000
  140.5148  134.6360  157.5297 LP  0  0  0  0  0  0  0  0  0  0  0  0  # atno 17395 bound_to 11000

$$$$
