AV-unprocessed.smi:3314|AV-procd|sdf|12743|dock9
  -GOLD-   2272019 83D 1   1.00000     0.00000
 Structure written by MMmdl.
 37 38  0  0  0  0  0  0  0  0  3 V2000
  151.8297  144.6661  160.0024 C   0  0  0  0  0  0  0  0  0  0  0  0
  151.9224  143.1845  159.7040 C   0  0  0  0  0  0  0  0  0  0  0  0
  152.6749  142.3266  160.5283 C   0  0  0  0  0  0  0  0  0  0  0  0
  152.7259  140.9601  160.1907 C   0  0  0  0  0  0  0  0  0  0  0  0
  153.5159  139.9806  161.0329 C   0  0  0  0  0  0  0  0  0  0  0  0
  152.0868  140.4397  159.1208 N   0  0  0  0  0  0  0  0  0  0  0  0
  151.3519  141.2528  158.3252 C   0  0  0  0  0  0  0  0  0  0  0  0
  150.7311  140.7249  157.2603 N   0  5  0  0  0  0  0  0  0  0  0  0
  151.4545  140.2913  156.1992 C   0  0  0  0  0  0  0  0  0  0  0  0
  152.6540  140.0129  156.1444 O   0  0  0  0  0  0  0  0  0  0  0  0
  150.5928  140.1682  154.9345 C   0  0  2  0  0  0  0  0  0  0  0  0
  149.6866  141.4024  154.7331 C   0  0  0  0  0  0  0  0  0  0  0  0
  148.8108  141.2070  153.5554 N   0  3  2  0  0  0  0  0  0  0  0  0
  147.9536  142.3795  153.2806 C   0  0  0  0  0  0  0  0  0  0  0  0
  148.0392  139.9491  153.6750 C   0  0  0  0  0  0  0  0  0  0  0  0
  148.9869  138.7629  153.9173 C   0  0  0  0  0  0  0  0  0  0  0  0
  149.7735  139.0111  155.0750 O   0  0  0  0  0  0  0  0  0  0  0  0
  151.2561  142.6391  158.5883 C   0  0  0  0  0  0  0  0  0  0  0  0
  152.2256  144.8958  160.9920 H   0  0  0  0  0  0  0  0  0  0  0  0
  150.7913  144.9963  159.9668 H   0  0  0  0  0  0  0  0  0  0  0  0
  152.3974  145.2340  159.2651 H   0  0  0  0  0  0  0  0  0  0  0  0
  153.1999  142.7049  161.3933 H   0  0  0  0  0  0  0  0  0  0  0  0
  154.2052  140.5009  161.6981 H   0  0  0  0  0  0  0  0  0  0  0  0
  154.0985  139.3116  160.3989 H   0  0  0  0  0  0  0  0  0  0  0  0
  152.8407  139.3782  161.6410 H   0  0  0  0  0  0  0  0  0  0  0  0
  151.2279  140.0465  154.0527 H   0  0  0  0  0  0  0  0  0  0  0  0
  149.0676  141.5780  155.6151 H   0  0  0  0  0  0  0  0  0  0  0  0
  150.2982  142.2939  154.5869 H   0  0  0  0  0  0  0  0  0  0  0  0
  147.2652  142.5640  154.1066 H   0  0  0  0  0  0  0  0  0  0  0  0
  147.3677  142.2234  152.3745 H   0  0  0  0  0  0  0  0  0  0  0  0
  148.5609  143.2733  153.1347 H   0  0  0  0  0  0  0  0  0  0  0  0
  147.3284  140.0315  154.4988 H   0  0  0  0  0  0  0  0  0  0  0  0
  147.4607  139.7826  152.7655 H   0  0  0  0  0  0  0  0  0  0  0  0
  148.4132  137.8486  154.0700 H   0  0  0  0  0  0  0  0  0  0  0  0
  149.6311  138.5936  153.0531 H   0  0  0  0  0  0  0  0  0  0  0  0
  150.6745  143.2790  157.9402 H   0  0  0  0  0  0  0  0  0  0  0  0
  149.4218  141.0981  152.7584 H   0  0  0  0  0  0  0  0  0  0  0  0
  1  2  1  0  0  0  0
  1 19  1  0  0  0  0
  1 20  1  0  0  0  0
  1 21  1  0  0  0  0
  2 18  2  0  0  0  0
  2  3  1  0  0  0  0
  3  4  2  0  0  0  0
  3 22  1  0  0  0  0
  4  5  1  0  0  0  0
  4  6  1  0  0  0  0
  5 23  1  0  0  0  0
  5 24  1  0  0  0  0
  5 25  1  0  0  0  0
  6  7  2  0  0  0  0
  7  8  1  0  0  0  0
  7 18  1  0  0  0  0
  8  9  1  0  0  0  0
  9 10  2  0  0  0  0
  9 11  1  0  0  0  0
 11 17  1  0  0  0  0
 11 12  1  0  0  0  0
 11 26  1  0  0  0  0
 12 13  1  0  0  0  0
 12 27  1  0  0  0  0
 12 28  1  0  0  0  0
 13 14  1  0  0  0  0
 13 15  1  0  0  0  0
 13 37  1  0  0  0  0
 14 29  1  0  0  0  0
 14 30  1  0  0  0  0
 14 31  1  0  0  0  0
 15 16  1  0  0  0  0
 15 32  1  0  0  0  0
 15 33  1  0  0  0  0
 16 17  1  0  0  0  0
 16 34  1  0  0  0  0
 16 35  1  0  0  0  0
 18 36  1  0  0  0  0
M  CHG  1   8  -1
M  CHG  1  13   1
M  END
> <s_m_source_file>
AV-unprocessed.smi

> <i_m_source_file_index>
3314

> <i_lp_mmshare_version>
43012

> <i_f3d_flags>
0

> <s_epik_input>
W0NIM11jMVtjSF1jKFtDSDNdKW5jKFtjSF0xKVtOSF1DKD1PKVtDQEBIXTJbQ0gyXU4oW0NIM10pW0NIMl1bQ0gyXU8y

> <s_epik_cmdline>
J2VwaWtfcHl0aG9uJywgJy1waCcsICc3LjAnLCAnLXRuJywgJzgnLCAnLW1hJywgJzIwMCcsICctbWV0YWxfYmluZGluZycsICctaW1hZScsICc8aW5maWxlLm1hZT4nLCAnLW9tYWUnLCAnPG91dGZpbGUubWFlPic=

> <r_epik_Ionization_Penalty>
13.8964

> <r_epik_Ionization_Penalty_Charging>
7.88995

> <r_epik_Ionization_Penalty_Neutral>
6.00641

> <r_epik_State_Penalty>
8.39989

> <r_epik_Charging_Adjusted_Penalty>
16.2898

> <i_epik_Tot_Q>
0

> <i_epik_Tot_abs_Q>
2

> <r_epik_Metal_State_Penalty>
4.31145

> <b_epik_Metal_Only>
1

> <s_lp_Force_Field>
OPLS_2005

> <r_lp_Energy>
9.48457

> <b_lp_Chiralities_Consistent>
1

> <s_lp_Variant>
AV-unprocessed.smi:3314-13

> <Gold.Version>
5.8.1

> <Gold.Id.Protein>
6NUR|6NUR_protein|mol2

> <Gold.PLP.Fitness>
42.3499

> <Gold.PLP.PLP>
-38.5213

> <Gold.PLP.part.hbond>
-2.0000

> <Gold.PLP.part.metal>
0.0000

> <Gold.PLP.part.buried>
-4.7030

> <Gold.PLP.part.nonpolar>
-32.4764

> <Gold.PLP.part.repulsive>
0.1698

> <Gold.PLP.ligand.clash>
0.0000

> <Gold.PLP.ligand.torsion>
1.0888

> <Gold.PLP.Chemscore.Hbond>
2.0000

> <Gold.PLP.Chemscore.CHOScore>
0.0000

> <Gold.PLP.Chemscore.Metal>
0.0000

> <Gold.Chemscore.Hbonds>
donor molecule, donor type, donor heavy atom, donor atom, acceptor molecule, acceptor atom, score
      L1  H    13    37       P1  7957  0.83
      P1  H  7997  8008       L1    10  1.00

> <Gold.PLP.Chemscore.Internal.Correction>
0.0062

> <Gold.Rescore>
     Score         DG    S(hbond)    S(metal)    S(lipo)     H(rot)  DE(clash)    DE(int)     intcor
     18.36     -20.45       1.97        0.00      93.61       1.00       0.06       2.03       ----

> <Gold.Chemscore.Fitness>
18.3577

> <Gold.Chemscore.DG>
-20.4543

> <Gold.Chemscore.ZeroCoef>
-5.4800

> <Gold.Chemscore.Hbond>
1.9708

> <Gold.Chemscore.Metal>
0.0000

> <Gold.Chemscore.Lipo>
93.6061

> <Gold.Chemscore.Internal_Hbond>
0.0000

> <Gold.Chemscore.DEClash>
0.0640

> <Gold.Chemscore.DEInternal>
2.0326

> <Gold.Chemscore.Rot>
1.0000

> <Gold.Chemscore.Internal.Correction>
   9.000000E+99

> <Gold.Chemscore.Hbonds>
donor molecule, donor type, donor heavy atom, donor atom, acceptor molecule, acceptor atom, score
      L1  H    13    37       P1  7957  0.81
      P1  H  7997  8008       L1    10  0.99

> <Gold.Chemscore.Hbond.Weighted>
-6.5824

> <Gold.Chemscore.Metal.Weighted>
-0.0000

> <Gold.Chemscore.Lipo.Weighted>
-10.9519

> <Gold.Chemscore.Internal_Hbond.Weighted>
0.0000

> <Gold.Chemscore.DEClash.Weighted>
0.0640

> <Gold.Chemscore.DEInternal.Weighted>
2.0326

> <Gold.Chemscore.Rot.Weighted>
2.5600

> <Gold.Chemscore.Internal.Correction.Weighted>
   9.000000E+99

> <Gold.Protein.RotatedTorsions>
[ 6907 6896 6895 6894 ] final -119.16 input  -60.11 | X-H torsion
[ 7974 7965 7964 7962 ] final  -53.43 input  175.53 | X-H torsion
[ 8008 7997 7996 7995 ] final  -32.02 input   59.86 | X-H torsion
[ 10167 10162 10161 10158 ] final -118.09 input  -65.29 | X-H torsion
[ 10718 10713 10712 10709 ] final  165.80 input   66.30 | X-H torsion
[ 10763 10752 10751 10750 ] final   99.31 input  -60.55 | X-H torsion
[ 11005 11000 10999 10996 ] final   98.24 input  -57.11 | X-H torsion

> <Gold.Protein.ActiveResidues>
 VAL166  LYS551  ARG553  GLY616  TRP617  ASP618  TYR619  PRO620  LYS621  CYS622 
 ASP623  PHE694  ASN695  SER759  ASP760  ASP761  ALA762  ILE779  LEU786  VAL792 
 PHE793  MET794  SER795  GLU796  ALA797  LYS798  CYS799  TRP800  GLU811  SER814 

> <Gold.Protein.RotatedAtoms>
  150.8281  133.8137  159.3109 H   0  0  0  0  0  0  0  0  0  0  0  0  # atno 6907 bound_to 6896
  151.5875  135.1053  160.0041 H   0  0  0  0  0  0  0  0  0  0  0  0  # atno 6908 bound_to 6896
  152.4364  133.7327  159.6653 H   0  0  0  0  0  0  0  0  0  0  0  0  # atno 6909 bound_to 6896
  145.8969  140.8026  142.9763 H   0  0  0  0  0  0  0  0  0  0  0  0  # atno 7974 bound_to 7965
  154.4194  140.1748  156.1660 H   0  0  0  0  0  0  0  0  0  0  0  0  # atno 8008 bound_to 7997
  155.9799  140.3378  155.6629 H   0  0  0  0  0  0  0  0  0  0  0  0  # atno 8009 bound_to 7997
  155.6513  140.0690  157.2576 H   0  0  0  0  0  0  0  0  0  0  0  0  # atno 8010 bound_to 7997
  140.0613  143.4965  152.2030 H   0  0  0  0  0  0  0  0  0  0  0  0  # atno 10167 bound_to 10162
  157.0750  131.0376  151.2597 H   0  0  0  0  0  0  0  0  0  0  0  0  # atno 10718 bound_to 10713
  153.2998  135.4118  155.1243 H   0  0  0  0  0  0  0  0  0  0  0  0  # atno 10763 bound_to 10752
  154.8546  135.3539  154.5867 H   0  0  0  0  0  0  0  0  0  0  0  0  # atno 10764 bound_to 10752
  153.6291  135.7061  153.5340 H   0  0  0  0  0  0  0  0  0  0  0  0  # atno 10765 bound_to 10752
  139.8773  134.9039  156.4426 H   0  0  0  0  0  0  0  0  0  0  0  0  # atno 11005 bound_to 11000
  144.6733  140.1616  143.7422 LP  0  0  0  0  0  0  0  0  0  0  0  0  # atno 17320 bound_to 7965
  145.8839  139.2338  143.1589 LP  0  0  0  0  0  0  0  0  0  0  0  0  # atno 17321 bound_to 7965
  139.5892  144.7543  151.3443 LP  0  0  0  0  0  0  0  0  0  0  0  0  # atno 17342 bound_to 10162
  140.7170  143.7238  150.7675 LP  0  0  0  0  0  0  0  0  0  0  0  0  # atno 17343 bound_to 10162
  157.4847  130.7786  149.7448 LP  0  0  0  0  0  0  0  0  0  0  0  0  # atno 17370 bound_to 10713
  155.9940  130.3921  150.2879 LP  0  0  0  0  0  0  0  0  0  0  0  0  # atno 17371 bound_to 10713
  140.8989  133.7794  155.9657 LP  0  0  0  0  0  0  0  0  0  0  0  0  # atno 17394 bound_to 11000
  140.8673  134.2769  157.5207 LP  0  0  0  0  0  0  0  0  0  0  0  0  # atno 17395 bound_to 11000

$$$$
