AV-unprocessed.smi:671|AV-procd|sdf|3285|dock2
  -GOLD-   22720 0243D 1   1.00000     0.00000
 Structure written by MMmdl.
 50 51  0  0  0  0  0  0  0  0  2 V2000
  147.9461  141.4370  153.8726 C   0  0  0  0  0  0  0  0  0  0  0  0
  149.0936  141.3167  154.8194 C   0  0  0  0  0  0  0  0  0  0  0  0
  149.4787  142.2913  155.6856 N   0  3  0  0  0  0  0  0  0  0  0  0
  150.5404  141.8866  156.3965 N   0  0  0  0  0  0  0  0  0  0  0  0
  151.1104  142.7987  157.3882 C   0  0  0  0  0  0  0  0  0  0  0  0
  150.9050  140.6260  156.0248 C   0  0  0  0  0  0  0  0  0  0  0  0
  152.0516  139.8717  156.6168 C   0  0  0  0  0  0  0  0  0  0  0  0
  149.9883  140.2608  155.0288 C   0  0  0  0  0  0  0  0  0  0  0  0
  149.9543  138.9533  154.2872 C   0  0  0  0  0  0  0  0  0  0  0  0
  149.3825  137.7904  155.1304 C   0  0  2  0  0  0  0  0  0  0  0  0
  150.4592  137.0836  155.9684 C   0  0  0  0  0  0  0  0  0  0  0  0
  148.7323  136.8025  154.2652 N   0  0  0  0  0  0  0  0  0  0  0  0
  147.6802  136.0120  154.5492 C   0  0  0  0  0  0  0  0  0  0  0  0
  147.1239  136.0405  155.6448 O   0  0  0  0  0  0  0  0  0  0  0  0
  147.3068  135.2011  153.5447 N   0  0  0  0  0  0  0  0  0  0  0  0
  146.2377  134.2044  153.5853 C   0  0  2  0  0  0  0  0  0  0  0  0
  146.8144  132.8446  154.0254 C   0  0  0  0  0  0  0  0  0  0  0  0
  146.7866  131.9262  152.7948 C   0  0  0  0  0  0  0  0  0  0  0  0
  146.4720  132.8301  151.6031 C   0  0  0  0  0  0  0  0  0  0  0  0
  145.6185  133.9520  152.1955 C   0  0  2  0  0  0  0  0  0  0  0  0
  145.4697  135.1757  151.2754 C   0  0  0  0  0  0  0  0  0  0  0  0
  147.3312  140.5379  153.9032 H   0  0  0  0  0  0  0  0  0  0  0  0
  148.3133  141.5723  152.8553 H   0  0  0  0  0  0  0  0  0  0  0  0
  147.3200  142.2909  154.1325 H   0  0  0  0  0  0  0  0  0  0  0  0
  151.7083  142.2356  158.1050 H   0  0  0  0  0  0  0  0  0  0  0  0
  150.3074  143.3128  157.9180 H   0  0  0  0  0  0  0  0  0  0  0  0
  151.7422  143.5278  156.8802 H   0  0  0  0  0  0  0  0  0  0  0  0
  152.2584  138.9620  156.0548 H   0  0  0  0  0  0  0  0  0  0  0  0
  151.8249  139.5950  157.6464 H   0  0  0  0  0  0  0  0  0  0  0  0
  152.9515  140.4874  156.6116 H   0  0  0  0  0  0  0  0  0  0  0  0
  149.3563  139.0827  153.3847 H   0  0  0  0  0  0  0  0  0  0  0  0
  150.9472  138.6880  153.9248 H   0  0  0  0  0  0  0  0  0  0  0  0
  148.6398  138.1823  155.8272 H   0  0  0  0  0  0  0  0  0  0  0  0
  150.9134  137.7630  156.6896 H   0  0  0  0  0  0  0  0  0  0  0  0
  151.2550  136.6844  155.3387 H   0  0  0  0  0  0  0  0  0  0  0  0
  150.0336  136.2530  156.5325 H   0  0  0  0  0  0  0  0  0  0  0  0
  149.1282  136.7032  153.3413 H   0  0  0  0  0  0  0  0  0  0  0  0
  147.8222  135.2663  152.6797 H   0  0  0  0  0  0  0  0  0  0  0  0
  145.4618  134.5192  154.2856 H   0  0  0  0  0  0  0  0  0  0  0  0
  147.8287  132.9418  154.4155 H   0  0  0  0  0  0  0  0  0  0  0  0
  146.2128  132.4123  154.8256 H   0  0  0  0  0  0  0  0  0  0  0  0
  147.7227  131.3833  152.6608 H   0  0  0  0  0  0  0  0  0  0  0  0
  145.9935  131.1865  152.9111 H   0  0  0  0  0  0  0  0  0  0  0  0
  147.3977  133.2397  151.1968 H   0  0  0  0  0  0  0  0  0  0  0  0
  145.9646  132.2963  150.7989 H   0  0  0  0  0  0  0  0  0  0  0  0
  144.6197  133.5441  152.3608 H   0  0  0  0  0  0  0  0  0  0  0  0
  146.4359  135.6013  151.0032 H   0  0  0  0  0  0  0  0  0  0  0  0
  144.8821  135.9571  151.7582 H   0  0  0  0  0  0  0  0  0  0  0  0
  144.9603  134.9039  150.3507 H   0  0  0  0  0  0  0  0  0  0  0  0
  149.0728  143.2078  155.8270 H   0  0  0  0  0  0  0  0  0  0  0  0
  1  2  1  0  0  0  0
  1 22  1  0  0  0  0
  1 23  1  0  0  0  0
  1 24  1  0  0  0  0
  2  8  1  0  0  0  0
  2  3  2  0  0  0  0
  3  4  1  0  0  0  0
  3 50  1  0  0  0  0
  4  5  1  0  0  0  0
  4  6  1  0  0  0  0
  5 25  1  0  0  0  0
  5 26  1  0  0  0  0
  5 27  1  0  0  0  0
  6  7  1  0  0  0  0
  6  8  2  0  0  0  0
  7 28  1  0  0  0  0
  7 29  1  0  0  0  0
  7 30  1  0  0  0  0
  8  9  1  0  0  0  0
  9 10  1  0  0  0  0
  9 31  1  0  0  0  0
  9 32  1  0  0  0  0
 10 11  1  0  0  0  0
 10 12  1  0  0  0  0
 10 33  1  0  0  0  0
 11 34  1  0  0  0  0
 11 35  1  0  0  0  0
 11 36  1  0  0  0  0
 12 13  1  0  0  0  0
 12 37  1  0  0  0  0
 13 14  2  0  0  0  0
 13 15  1  0  0  0  0
 15 16  1  0  0  0  0
 15 38  1  0  0  0  0
 16 20  1  0  0  0  0
 16 17  1  0  0  0  0
 16 39  1  0  0  0  0
 17 18  1  0  0  0  0
 17 40  1  0  0  0  0
 17 41  1  0  0  0  0
 18 19  1  0  0  0  0
 18 42  1  0  0  0  0
 18 43  1  0  0  0  0
 19 20  1  0  0  0  0
 19 44  1  0  0  0  0
 19 45  1  0  0  0  0
 20 21  1  0  0  0  0
 20 46  1  0  0  0  0
 21 47  1  0  0  0  0
 21 48  1  0  0  0  0
 21 49  1  0  0  0  0
M  CHG  1   3   1
M  END
> <s_m_source_file>
AV-unprocessed.smi

> <i_m_source_file_index>
671

> <i_lp_mmshare_version>
43012

> <i_f3d_flags>
0

> <s_epik_input>
W0NIM11jMW5uKFtDSDNdKWMoW0NIM10pYzFbQ0gyXVtDQEhdKFtDSDNdKVtOSF1DKD1PKVtOSF1bQ0BASF0yW0NIMl1bQ0gyXVtDSDJdW0NASF0yW0NIM10=

> <s_epik_cmdline>
J2VwaWtfcHl0aG9uJywgJy1waCcsICc3LjAnLCAnLXRuJywgJzgnLCAnLW1hJywgJzIwMCcsICctbWV0YWxfYmluZGluZycsICctaW1hZScsICc8aW5maWxlLm1hZT4nLCAnLW9tYWUnLCAnPG91dGZpbGUubWFlPic=

> <r_lp_tautomer_probability>
1

> <r_epik_Ionization_Penalty>
2.28705

> <r_epik_Ionization_Penalty_Charging>
2.28698

> <r_epik_Ionization_Penalty_Neutral>
6.23157e-05

> <r_epik_State_Penalty>
2.43671

> <r_epik_Charging_Adjusted_Penalty>
4.72369

> <i_epik_Tot_Q>
1

> <i_epik_Tot_abs_Q>
1

> <r_epik_Metal_State_Penalty>
2.44911

> <b_epik_Metal_Only>
0

> <s_lp_Force_Field>
OPLS_2005

> <r_lp_Energy>
35.629

> <b_lp_Chiralities_Consistent>
1

> <s_lp_Variant>
AV-unprocessed.smi:671-13

> <Gold.Version>
5.8.1

> <Gold.Id.Protein>
6NUR|6NUR_protein|mol2

> <Gold.PLP.Fitness>
44.3477

> <Gold.PLP.PLP>
-35.2719

> <Gold.PLP.part.hbond>
-2.6868

> <Gold.PLP.part.metal>
0.0000

> <Gold.PLP.part.buried>
-2.0305

> <Gold.PLP.part.nonpolar>
-30.7191

> <Gold.PLP.part.repulsive>
0.2024

> <Gold.PLP.ligand.clash>
0.0000

> <Gold.PLP.ligand.torsion>
1.2879

> <Gold.PLP.Chemscore.Hbond>
3.8720

> <Gold.PLP.Chemscore.CHOScore>
0.0000

> <Gold.PLP.Chemscore.Metal>
0.0000

> <Gold.Chemscore.Hbonds>
donor molecule, donor type, donor heavy atom, donor atom, acceptor molecule, acceptor atom, score
      L1  H     3    50       P1  8028  2.00
      L1  H    12    37       P1  7948  1.00
      L1  H    15    38       P1  7948  0.88

> <Gold.PLP.Chemscore.Internal.Correction>
0.0356

> <Gold.Rescore>
     Score         DG    S(hbond)    S(metal)    S(lipo)     H(rot)  DE(clash)    DE(int)     intcor
     20.27     -21.29       2.90        0.00      85.12       1.51       0.08       0.94       ----

> <Gold.Chemscore.Fitness>
20.2714

> <Gold.Chemscore.DG>
-21.2851

> <Gold.Chemscore.ZeroCoef>
-5.4800

> <Gold.Chemscore.Hbond>
2.9044

> <Gold.Chemscore.Metal>
0.0000

> <Gold.Chemscore.Lipo>
85.1218

> <Gold.Chemscore.Internal_Hbond>
0.0000

> <Gold.Chemscore.DEClash>
0.0785

> <Gold.Chemscore.DEInternal>
0.9352

> <Gold.Chemscore.Rot>
1.5057

> <Gold.Chemscore.Internal.Correction>
   9.000000E+99

> <Gold.Chemscore.Hbonds>
donor molecule, donor type, donor heavy atom, donor atom, acceptor molecule, acceptor atom, score
      L1  H     3    50       P1  8028  0.93
      L1  H    12    37       P1  7948  0.89
      L1  H    15    38       P1  7948  0.86

> <Gold.Chemscore.Hbond.Weighted>
-9.7005

> <Gold.Chemscore.Metal.Weighted>
-0.0000

> <Gold.Chemscore.Lipo.Weighted>
-9.9592

> <Gold.Chemscore.Internal_Hbond.Weighted>
0.0000

> <Gold.Chemscore.DEClash.Weighted>
0.0785

> <Gold.Chemscore.DEInternal.Weighted>
0.9352

> <Gold.Chemscore.Rot.Weighted>
3.8547

> <Gold.Chemscore.Internal.Correction.Weighted>
   9.000000E+99

> <Gold.Protein.RotatedTorsions>
[ 6907 6896 6895 6894 ] final   -7.30 input  -60.11 | X-H torsion
[ 7974 7965 7964 7962 ] final   27.87 input  175.53 | X-H torsion
[ 8008 7997 7996 7995 ] final  113.07 input   59.86 | X-H torsion
[ 10167 10162 10161 10158 ] final  169.37 input  -65.29 | X-H torsion
[ 10718 10713 10712 10709 ] final -157.56 input   66.30 | X-H torsion
[ 10763 10752 10751 10750 ] final  -74.91 input  -60.55 | X-H torsion
[ 11005 11000 10999 10996 ] final  134.41 input  -57.11 | X-H torsion

> <Gold.Protein.ActiveResidues>
 VAL166  LYS551  ARG553  GLY616  TRP617  ASP618  TYR619  PRO620  LYS621  CYS622 
 ASP623  PHE694  ASN695  SER759  ASP760  ASP761  ALA762  ILE779  LEU786  VAL792 
 PHE793  MET794  SER795  GLU796  ALA797  LYS798  CYS799  TRP800  GLU811  SER814 

> <Gold.Protein.RotatedAtoms>
  151.4518  135.1030  159.9699 H   0  0  0  0  0  0  0  0  0  0  0  0  # atno 6907 bound_to 6896
  152.4885  133.8433  159.7174 H   0  0  0  0  0  0  0  0  0  0  0  0  # atno 6908 bound_to 6896
  150.9017  133.7050  159.2904 H   0  0  0  0  0  0  0  0  0  0  0  0  # atno 6909 bound_to 6896
  146.1761  139.7133  142.8934 H   0  0  0  0  0  0  0  0  0  0  0  0  # atno 7974 bound_to 7965
  156.2234  140.2987  156.0007 H   0  0  0  0  0  0  0  0  0  0  0  0  # atno 8008 bound_to 7997
  155.2422  140.0423  157.2993 H   0  0  0  0  0  0  0  0  0  0  0  0  # atno 8009 bound_to 7997
  154.5876  140.2392  155.7973 H   0  0  0  0  0  0  0  0  0  0  0  0  # atno 8010 bound_to 7997
  139.4991  144.3713  151.9721 H   0  0  0  0  0  0  0  0  0  0  0  0  # atno 10167 bound_to 10162
  156.5420  130.8567  151.2752 H   0  0  0  0  0  0  0  0  0  0  0  0  # atno 10718 bound_to 10713
  154.4795  135.5848  153.6379 H   0  0  0  0  0  0  0  0  0  0  0  0  # atno 10763 bound_to 10752
  152.9845  135.6086  154.3265 H   0  0  0  0  0  0  0  0  0  0  0  0  # atno 10764 bound_to 10752
  154.3154  135.2844  155.2525 H   0  0  0  0  0  0  0  0  0  0  0  0  # atno 10765 bound_to 10752
  139.9913  134.9514  156.9862 H   0  0  0  0  0  0  0  0  0  0  0  0  # atno 11005 bound_to 11000
  145.4209  141.0406  143.2964 LP  0  0  0  0  0  0  0  0  0  0  0  0  # atno 17320 bound_to 7965
  144.8238  139.5746  143.6975 LP  0  0  0  0  0  0  0  0  0  0  0  0  # atno 17321 bound_to 7965
  140.3149  144.3495  150.6024 LP  0  0  0  0  0  0  0  0  0  0  0  0  # atno 17342 bound_to 10162
  140.5769  143.2176  151.7499 LP  0  0  0  0  0  0  0  0  0  0  0  0  # atno 17343 bound_to 10162
  157.7403  130.9848  150.2371 LP  0  0  0  0  0  0  0  0  0  0  0  0  # atno 17370 bound_to 10713
  156.2962  130.3752  149.7793 LP  0  0  0  0  0  0  0  0  0  0  0  0  # atno 17371 bound_to 10713
  140.4903  134.1200  155.7231 LP  0  0  0  0  0  0  0  0  0  0  0  0  # atno 17394 bound_to 11000
  141.1568  133.8867  157.1955 LP  0  0  0  0  0  0  0  0  0  0  0  0  # atno 17395 bound_to 11000

$$$$
