AV-unprocessed.smi:77|AV-procd|sdf|773|dock10
  -GOLD-   2262017123D 1   1.00000     0.00000
 Structure written by MMmdl.
 57 61  0  0  0  0  0  0  0  0  1 V2000
  152.7992  140.7035  158.8032 O   0  0  0  0  0  0  0  0  0  0  0  0
  151.8579  141.4461  158.5188 C   0  0  0  0  0  0  0  0  0  0  0  0
  150.7069  140.9596  157.6283 C   0  0  0  0  0  0  0  0  0  0  0  0
  150.8390  139.5519  157.2308 N   0  0  0  0  0  0  0  0  0  0  0  0
  150.4100  138.6008  158.1093 C   0  0  0  0  0  0  0  0  0  0  0  0
  151.3055  137.6966  158.5926 N   0  0  0  0  0  0  0  0  0  0  0  0
  150.9256  136.7479  159.4520 C   0  0  0  0  0  0  0  0  0  0  0  0
  149.7141  136.5200  159.9586 N   0  0  0  0  0  0  0  0  0  0  0  0
  148.8066  137.4212  159.4872 C   0  0  0  0  0  0  0  0  0  0  0  0
  149.0638  138.4826  158.5711 C   0  0  0  0  0  0  0  0  0  0  0  0
  147.8879  139.1903  158.3434 N   0  0  0  0  0  0  0  0  0  0  0  0
  146.9936  138.5846  159.0745 C   0  0  0  0  0  0  0  0  0  0  0  0
  147.4611  137.5130  159.7977 N   0  0  0  0  0  0  0  0  0  0  0  0
  146.6869  136.6652  160.6881 C   0  0  0  0  0  0  0  0  0  0  0  0
  146.0700  137.4287  161.8877 C   0  0  2  0  0  0  0  0  0  0  0  0
  147.1588  137.8360  162.9143 C   0  0  0  0  0  0  0  0  0  0  0  0
  147.0088  139.1748  163.3375 O   0  0  0  0  0  0  0  0  0  0  0  0
  144.9374  136.5811  162.5311 C   0  0  1  0  0  0  0  0  0  0  0  0
  145.3876  135.4196  163.4010 C   0  0  0  0  0  0  0  0  0  0  0  0
  144.1327  135.1155  164.2096 C   0  0  0  0  0  0  0  0  0  0  0  0
  143.5037  136.3736  164.4159 O   0  0  0  0  0  0  0  0  0  0  0  0
  144.0569  137.3431  163.5310 C   0  0  0  0  0  0  0  0  0  0  0  0
  150.7581  139.2591  155.7997 C   0  0  0  0  0  0  0  0  0  0  0  0
  149.4031  139.2329  155.1265 C   0  0  0  0  0  0  0  0  0  0  0  0
  150.1596  137.9456  155.3498 C   0  0  0  0  0  0  0  0  0  0  0  0
  151.7587  142.7094  158.9568 N   0  0  0  0  0  0  0  0  0  0  0  0
  152.7014  143.3709  159.7996 C   0  0  0  0  0  0  0  0  0  0  0  0
  152.9632  142.7715  161.1642 C   0  0  0  0  0  0  0  0  0  0  0  0
  152.1769  144.0479  161.0471 C   0  0  0  0  0  0  0  0  0  0  0  0
  149.7570  141.1451  158.1320 H   0  0  0  0  0  0  0  0  0  0  0  0
  150.6865  141.5803  156.7310 H   0  0  0  0  0  0  0  0  0  0  0  0
  151.7050  136.0766  159.7811 H   0  0  0  0  0  0  0  0  0  0  0  0
  145.9631  138.9074  159.1097 H   0  0  0  0  0  0  0  0  0  0  0  0
  145.9087  136.1976  160.0850 H   0  0  0  0  0  0  0  0  0  0  0  0
  147.3248  135.8560  161.0458 H   0  0  0  0  0  0  0  0  0  0  0  0
  145.6281  138.3440  161.4901 H   0  0  0  0  0  0  0  0  0  0  0  0
  147.1445  137.1726  163.7794 H   0  0  0  0  0  0  0  0  0  0  0  0
  148.1584  137.7712  162.4876 H   0  0  0  0  0  0  0  0  0  0  0  0
  146.1650  139.4878  163.0488 H   0  0  0  0  0  0  0  0  0  0  0  0
  144.2954  136.1848  161.7425 H   0  0  0  0  0  0  0  0  0  0  0  0
  145.7251  134.5555  162.8282 H   0  0  0  0  0  0  0  0  0  0  0  0
  146.1954  135.7296  164.0657 H   0  0  0  0  0  0  0  0  0  0  0  0
  143.4573  134.4785  163.6368 H   0  0  0  0  0  0  0  0  0  0  0  0
  144.3522  134.6161  165.1536 H   0  0  0  0  0  0  0  0  0  0  0  0
  144.6543  138.0387  164.1219 H   0  0  0  0  0  0  0  0  0  0  0  0
  143.2668  137.9117  163.0399 H   0  0  0  0  0  0  0  0  0  0  0  0
  151.5834  139.6345  155.1971 H   0  0  0  0  0  0  0  0  0  0  0  0
  148.5249  139.4108  155.7442 H   0  0  0  0  0  0  0  0  0  0  0  0
  149.3424  139.6128  154.1090 H   0  0  0  0  0  0  0  0  0  0  0  0
  150.6038  137.4656  154.4805 H   0  0  0  0  0  0  0  0  0  0  0  0
  149.7729  137.2678  156.1077 H   0  0  0  0  0  0  0  0  0  0  0  0
  150.9503  143.2440  158.6734 H   0  0  0  0  0  0  0  0  0  0  0  0
  153.5550  143.8468  159.3186 H   0  0  0  0  0  0  0  0  0  0  0  0
  152.4186  141.8698  161.4378 H   0  0  0  0  0  0  0  0  0  0  0  0
  153.9762  142.8400  161.5557 H   0  0  0  0  0  0  0  0  0  0  0  0
  152.6644  144.9693  161.3593 H   0  0  0  0  0  0  0  0  0  0  0  0
  151.1070  143.9989  161.2418 H   0  0  0  0  0  0  0  0  0  0  0  0
  1  2  2  0  0  0  0
  2  3  1  0  0  0  0
  2 26  1  0  0  0  0
  3  4  1  0  0  0  0
  3 30  1  0  0  0  0
  3 31  1  0  0  0  0
  4  5  1  0  0  0  0
  4 23  1  0  0  0  0
  5 10  1  0  0  0  0
  5  6  2  0  0  0  0
  6  7  1  0  0  0  0
  7  8  2  0  0  0  0
  7 32  1  0  0  0  0
  8  9  1  0  0  0  0
  9 13  1  0  0  0  0
  9 10  2  0  0  0  0
 10 11  1  0  0  0  0
 11 12  2  0  0  0  0
 12 13  1  0  0  0  0
 12 33  1  0  0  0  0
 13 14  1  0  0  0  0
 14 15  1  0  0  0  0
 14 34  1  0  0  0  0
 14 35  1  0  0  0  0
 15 16  1  0  0  0  0
 15 18  1  0  0  0  0
 15 36  1  0  0  0  0
 16 17  1  0  0  0  0
 16 37  1  0  0  0  0
 16 38  1  0  0  0  0
 17 39  1  0  0  0  0
 18 22  1  0  0  0  0
 18 19  1  0  0  0  0
 18 40  1  0  0  0  0
 19 20  1  0  0  0  0
 19 41  1  0  0  0  0
 19 42  1  0  0  0  0
 20 21  1  0  0  0  0
 20 43  1  0  0  0  0
 20 44  1  0  0  0  0
 21 22  1  0  0  0  0
 22 45  1  0  0  0  0
 22 46  1  0  0  0  0
 23 25  1  0  0  0  0
 23 24  1  0  0  0  0
 23 47  1  0  0  0  0
 24 25  1  0  0  0  0
 24 48  1  0  0  0  0
 24 49  1  0  0  0  0
 25 50  1  0  0  0  0
 25 51  1  0  0  0  0
 26 27  1  0  0  0  0
 26 52  1  0  0  0  0
 27 29  1  0  0  0  0
 27 28  1  0  0  0  0
 27 53  1  0  0  0  0
 28 29  1  0  0  0  0
 28 54  1  0  0  0  0
 28 55  1  0  0  0  0
 29 56  1  0  0  0  0
 29 57  1  0  0  0  0
M  END
> <s_m_source_file>
AV-unprocessed.smi

> <i_m_source_file_index>
77

> <i_lp_mmshare_version>
43012

> <i_f3d_flags>
0

> <s_epik_input>
W0NIMl0xW0NIMl1bQ0hdMVtOSF1DKD1PKVtDSDJdTihbQ0hdMltDSDJdW0NIMl0yKWMobltjSF1uMyljKGMzNCluW2NIXW40W0NIMl1bQ0BIXShbQ0gyXVtPSF0pW0NAQEhdNVtDSDJdW0NIMl1PW0NIMl01

> <s_epik_cmdline>
J2VwaWtfcHl0aG9uJywgJy1waCcsICc3LjAnLCAnLXRuJywgJzgnLCAnLW1hJywgJzIwMCcsICctbWV0YWxfYmluZGluZycsICctaW1hZScsICc8aW5maWxlLm1hZT4nLCAnLW9tYWUnLCAnPG91dGZpbGUubWFlPic=

> <r_lp_tautomer_probability>
1

> <r_epik_Ionization_Penalty>
0.000703847

> <r_epik_Ionization_Penalty_Charging>
0

> <r_epik_Ionization_Penalty_Neutral>
0.000703847

> <r_epik_State_Penalty>
0.00034025

> <r_epik_Charging_Adjusted_Penalty>
0.00034025

> <i_epik_Tot_Q>
0

> <i_epik_Tot_abs_Q>
0

> <r_epik_Metal_State_Penalty>
-0

> <b_epik_Metal_Only>
0

> <s_lp_Force_Field>
OPLS_2005

> <r_lp_Energy>
53.8068

> <b_lp_Chiralities_Consistent>
1

> <s_lp_Variant>
AV-unprocessed.smi:77-3

> <Gold.Version>
5.8.1

> <Gold.Id.Protein>
6NUR|6NUR_protein|mol2

> <Gold.PLP.Fitness>
47.7693

> <Gold.PLP.PLP>
-44.3440

> <Gold.PLP.part.hbond>
-3.6305

> <Gold.PLP.part.metal>
0.0000

> <Gold.PLP.part.buried>
-3.0114

> <Gold.PLP.part.nonpolar>
-37.6790

> <Gold.PLP.part.repulsive>
0.1662

> <Gold.PLP.ligand.clash>
0.0000

> <Gold.PLP.ligand.torsion>
2.7995

> <Gold.PLP.Chemscore.Hbond>
2.4960

> <Gold.PLP.Chemscore.CHOScore>
0.0000

> <Gold.PLP.Chemscore.Metal>
0.0000

> <Gold.PLP.Chemscore.Internal.Correction>
1.5362

> <Gold.Rescore>
     Score         DG    S(hbond)    S(metal)    S(lipo)     H(rot)  DE(clash)    DE(int)     intcor
      9.59     -13.36       1.11        0.00     111.57       3.47       1.08       2.69       ----

> <Gold.Chemscore.Fitness>
9.5878

> <Gold.Chemscore.DG>
-13.3623

> <Gold.Chemscore.ZeroCoef>
-5.4800

> <Gold.Chemscore.Hbond>
1.1111

> <Gold.Chemscore.Metal>
0.0000

> <Gold.Chemscore.Lipo>
111.5666

> <Gold.Chemscore.Internal_Hbond>
0.0000

> <Gold.Chemscore.DEClash>
1.0829

> <Gold.Chemscore.DEInternal>
2.6916

> <Gold.Chemscore.Rot>
3.4695

> <Gold.Chemscore.Internal.Correction>
   9.000000E+99

> <Gold.Chemscore.Hbond.Weighted>
-3.7110

> <Gold.Chemscore.Metal.Weighted>
-0.0000

> <Gold.Chemscore.Lipo.Weighted>
-13.0533

> <Gold.Chemscore.Internal_Hbond.Weighted>
0.0000

> <Gold.Chemscore.DEClash.Weighted>
1.0829

> <Gold.Chemscore.DEInternal.Weighted>
2.6916

> <Gold.Chemscore.Rot.Weighted>
8.8820

> <Gold.Chemscore.Internal.Correction.Weighted>
   9.000000E+99

> <Gold.Protein.RotatedTorsions>
[ 6907 6896 6895 6894 ] final -173.80 input  -60.11 | X-H torsion
[ 7974 7965 7964 7962 ] final -150.70 input  175.53 | X-H torsion
[ 8008 7997 7996 7995 ] final  156.72 input   59.86 | X-H torsion
[ 10167 10162 10161 10158 ] final   37.06 input  -65.29 | X-H torsion
[ 10718 10713 10712 10709 ] final -165.62 input   66.30 | X-H torsion
[ 10763 10752 10751 10750 ] final  -67.35 input  -60.55 | X-H torsion
[ 11005 11000 10999 10996 ] final   70.24 input  -57.11 | X-H torsion

> <Gold.Protein.ActiveResidues>
 VAL166  LYS551  ARG553  GLY616  TRP617  ASP618  TYR619  PRO620  LYS621  CYS622 
 ASP623  PHE694  ASN695  SER759  ASP760  ASP761  ALA762  ILE779  LEU786  VAL792 
 PHE793  MET794  SER795  GLU796  ALA797  LYS798  CYS799  TRP800  GLU811  SER814 

> <Gold.Protein.RotatedAtoms>
  151.5621  133.3402  159.2972 H   0  0  0  0  0  0  0  0  0  0  0  0  # atno 6907 bound_to 6896
  150.8417  134.7714  159.6948 H   0  0  0  0  0  0  0  0  0  0  0  0  # atno 6908 bound_to 6896
  152.4483  134.5455  159.9903 H   0  0  0  0  0  0  0  0  0  0  0  0  # atno 6909 bound_to 6896
  144.7892  140.4896  143.5785 H   0  0  0  0  0  0  0  0  0  0  0  0  # atno 7974 bound_to 7965
  156.2406  140.1905  156.6998 H   0  0  0  0  0  0  0  0  0  0  0  0  # atno 8008 bound_to 7997
  154.6190  140.0611  156.9617 H   0  0  0  0  0  0  0  0  0  0  0  0  # atno 8009 bound_to 7997
  155.1892  140.3283  155.4364 H   0  0  0  0  0  0  0  0  0  0  0  0  # atno 8010 bound_to 7997
  140.4069  144.1647  150.6137 H   0  0  0  0  0  0  0  0  0  0  0  0  # atno 10167 bound_to 10162
  156.6560  130.9027  151.3021 H   0  0  0  0  0  0  0  0  0  0  0  0  # atno 10718 bound_to 10713
  154.3733  135.6090  153.5751 H   0  0  0  0  0  0  0  0  0  0  0  0  # atno 10763 bound_to 10752
  152.9789  135.5843  154.4497 H   0  0  0  0  0  0  0  0  0  0  0  0  # atno 10764 bound_to 10752
  154.4254  135.2846  155.1925 H   0  0  0  0  0  0  0  0  0  0  0  0  # atno 10765 bound_to 10752
  139.9608  134.7064  156.0649 H   0  0  0  0  0  0  0  0  0  0  0  0  # atno 11005 bound_to 11000
  145.5840  139.1491  143.3219 LP  0  0  0  0  0  0  0  0  0  0  0  0  # atno 17320 bound_to 7965
  146.2137  140.5968  142.9048 LP  0  0  0  0  0  0  0  0  0  0  0  0  # atno 17321 bound_to 7965
  140.4680  143.2423  151.9128 LP  0  0  0  0  0  0  0  0  0  0  0  0  # atno 17342 bound_to 10162
  139.4783  144.5399  151.8543 LP  0  0  0  0  0  0  0  0  0  0  0  0  # atno 17343 bound_to 10162
  157.7125  130.9457  150.1139 LP  0  0  0  0  0  0  0  0  0  0  0  0  # atno 17370 bound_to 10713
  156.2047  130.3662  149.8744 LP  0  0  0  0  0  0  0  0  0  0  0  0  # atno 17371 bound_to 10713
  141.1285  133.6592  156.3401 LP  0  0  0  0  0  0  0  0  0  0  0  0  # atno 17394 bound_to 11000
  140.5504  134.6033  157.5406 LP  0  0  0  0  0  0  0  0  0  0  0  0  # atno 17395 bound_to 11000

$$$$
