AV-unprocessed.smi:85|AV-procd|sdf|811|dock1
  -GOLD-   2262017203D 1   1.00000     0.00000
 Structure written by MMmdl.
 62 65  0  0  0  0  0  0  0  0  1 V2000
  156.5152  137.3220  157.9111 C   0  0  0  0  0  0  0  0  0  0  0  0
  155.4714  136.3385  158.4664 C   0  0  0  0  0  0  0  0  0  0  0  0
  154.5117  136.9596  159.3860 N   0  0  0  0  0  0  0  0  0  0  0  0
  153.3046  137.3032  158.8739 C   0  0  0  0  0  0  0  0  0  0  0  0
  152.2352  137.2269  159.7055 N   0  0  0  0  0  0  0  0  0  0  0  0
  151.0182  137.5579  159.2645 C   0  0  0  0  0  0  0  0  0  0  0  0
  150.6567  137.9807  158.0518 N   0  0  0  0  0  0  0  0  0  0  0  0
  151.7266  138.0494  157.2087 C   0  0  0  0  0  0  0  0  0  0  0  0
  153.0743  137.7235  157.5320 C   0  0  0  0  0  0  0  0  0  0  0  0
  153.8802  137.8895  156.4122 N   0  0  0  0  0  0  0  0  0  0  0  0
  153.0593  138.2985  155.4851 C   0  0  0  0  0  0  0  0  0  0  0  0
  151.7491  138.4460  155.8820 N   0  0  0  0  0  0  0  0  0  0  0  0
  150.6345  138.8930  155.0574 C   0  0  0  0  0  0  0  0  0  0  0  0
  149.9643  140.2198  155.5255 C   0  0  0  0  0  0  0  0  0  0  0  0
  149.1515  140.8620  154.3648 C   0  0  0  0  0  0  0  0  0  0  0  0
  148.3117  139.9265  153.7188 O   0  0  0  0  0  0  0  0  0  0  0  0
  149.0213  139.9424  156.7250 C   0  0  0  0  0  0  0  0  0  0  0  0
  148.5774  141.2224  157.4578 C   0  0  0  0  0  0  0  0  0  0  0  0
  149.7122  141.9700  157.8732 O   0  0  0  0  0  0  0  0  0  0  0  0
  150.5167  142.3982  156.7827 C   0  0  0  0  0  0  0  0  0  0  0  0
  151.0740  141.1738  156.0356 C   0  0  0  0  0  0  0  0  0  0  0  0
  154.4350  136.5144  160.7834 C   0  0  1  0  0  0  0  0  0  0  0  0
  154.9960  135.0987  160.9931 C   0  0  0  0  0  0  0  0  0  0  0  0
  154.8741  134.6934  162.4681 C   0  0  0  0  0  0  0  0  0  0  0  0
  155.5274  135.6460  163.3059 O   0  0  0  0  0  0  0  0  0  0  0  0
  155.0543  136.9953  163.2251 C   0  0  0  0  0  0  0  0  0  0  0  0
  153.6330  137.1145  163.8166 C   0  0  0  0  0  0  0  0  0  0  0  0
  156.0248  137.8128  164.0943 C   0  0  0  0  0  0  0  0  0  0  0  0
  155.1318  137.4824  161.7577 C   0  0  0  0  0  0  0  0  0  0  0  0
  157.2413  136.7974  157.2901 H   0  0  0  0  0  0  0  0  0  0  0  0
  157.0618  137.8105  158.7183 H   0  0  0  0  0  0  0  0  0  0  0  0
  156.0620  138.0974  157.2938 H   0  0  0  0  0  0  0  0  0  0  0  0
  154.9438  135.8524  157.6465 H   0  0  0  0  0  0  0  0  0  0  0  0
  156.0064  135.5452  158.9846 H   0  0  0  0  0  0  0  0  0  0  0  0
  150.2200  137.4747  159.9872 H   0  0  0  0  0  0  0  0  0  0  0  0
  153.3925  138.5151  154.4806 H   0  0  0  0  0  0  0  0  0  0  0  0
  151.0059  139.0015  154.0374 H   0  0  0  0  0  0  0  0  0  0  0  0
  149.8979  138.0895  155.0151 H   0  0  0  0  0  0  0  0  0  0  0  0
  148.5356  141.6839  154.7300 H   0  0  0  0  0  0  0  0  0  0  0  0
  149.8028  141.2923  153.6059 H   0  0  0  0  0  0  0  0  0  0  0  0
  148.4358  140.0052  152.7852 H   0  0  0  0  0  0  0  0  0  0  0  0
  148.1370  139.3931  156.4013 H   0  0  0  0  0  0  0  0  0  0  0  0
  149.5316  139.3013  157.4452 H   0  0  0  0  0  0  0  0  0  0  0  0
  147.9284  141.8383  156.8349 H   0  0  0  0  0  0  0  0  0  0  0  0
  147.9964  140.9577  158.3414 H   0  0  0  0  0  0  0  0  0  0  0  0
  149.9454  143.0490  156.1201 H   0  0  0  0  0  0  0  0  0  0  0  0
  151.3389  142.9974  157.1742 H   0  0  0  0  0  0  0  0  0  0  0  0
  151.7278  140.6336  156.7217 H   0  0  0  0  0  0  0  0  0  0  0  0
  151.7141  141.5004  155.2155 H   0  0  0  0  0  0  0  0  0  0  0  0
  153.3804  136.4893  161.0601 H   0  0  0  0  0  0  0  0  0  0  0  0
  154.4646  134.3780  160.3714 H   0  0  0  0  0  0  0  0  0  0  0  0
  156.0443  135.0577  160.6960 H   0  0  0  0  0  0  0  0  0  0  0  0
  153.8292  134.5764  162.7548 H   0  0  0  0  0  0  0  0  0  0  0  0
  155.3431  133.7216  162.6225 H   0  0  0  0  0  0  0  0  0  0  0  0
  153.3092  138.1554  163.8453 H   0  0  0  0  0  0  0  0  0  0  0  0
  153.6022  136.7337  164.8378 H   0  0  0  0  0  0  0  0  0  0  0  0
  152.8874  136.5659  163.2434 H   0  0  0  0  0  0  0  0  0  0  0  0
  155.7690  138.8728  164.0851 H   0  0  0  0  0  0  0  0  0  0  0  0
  157.0518  137.7181  163.7398 H   0  0  0  0  0  0  0  0  0  0  0  0
  156.0064  137.4765  165.1315 H   0  0  0  0  0  0  0  0  0  0  0  0
  156.1827  137.5803  161.4873 H   0  0  0  0  0  0  0  0  0  0  0  0
  154.6998  138.4801  161.6688 H   0  0  0  0  0  0  0  0  0  0  0  0
  1  2  1  0  0  0  0
  1 30  1  0  0  0  0
  1 31  1  0  0  0  0
  1 32  1  0  0  0  0
  2  3  1  0  0  0  0
  2 33  1  0  0  0  0
  2 34  1  0  0  0  0
  3  4  1  0  0  0  0
  3 22  1  0  0  0  0
  4  9  1  0  0  0  0
  4  5  2  0  0  0  0
  5  6  1  0  0  0  0
  6  7  2  0  0  0  0
  6 35  1  0  0  0  0
  7  8  1  0  0  0  0
  8 12  1  0  0  0  0
  8  9  2  0  0  0  0
  9 10  1  0  0  0  0
 10 11  2  0  0  0  0
 11 12  1  0  0  0  0
 11 36  1  0  0  0  0
 12 13  1  0  0  0  0
 13 14  1  0  0  0  0
 13 37  1  0  0  0  0
 13 38  1  0  0  0  0
 14 21  1  0  0  0  0
 14 15  1  0  0  0  0
 14 17  1  0  0  0  0
 15 16  1  0  0  0  0
 15 39  1  0  0  0  0
 15 40  1  0  0  0  0
 16 41  1  0  0  0  0
 17 18  1  0  0  0  0
 17 42  1  0  0  0  0
 17 43  1  0  0  0  0
 18 19  1  0  0  0  0
 18 44  1  0  0  0  0
 18 45  1  0  0  0  0
 19 20  1  0  0  0  0
 20 21  1  0  0  0  0
 20 46  1  0  0  0  0
 20 47  1  0  0  0  0
 21 48  1  0  0  0  0
 21 49  1  0  0  0  0
 22 29  1  0  0  0  0
 22 23  1  0  0  0  0
 22 50  1  0  0  0  0
 23 24  1  0  0  0  0
 23 51  1  0  0  0  0
 23 52  1  0  0  0  0
 24 25  1  0  0  0  0
 24 53  1  0  0  0  0
 24 54  1  0  0  0  0
 25 26  1  0  0  0  0
 26 27  1  0  0  0  0
 26 28  1  0  0  0  0
 26 29  1  0  0  0  0
 27 55  1  0  0  0  0
 27 56  1  0  0  0  0
 27 57  1  0  0  0  0
 28 58  1  0  0  0  0
 28 59  1  0  0  0  0
 28 60  1  0  0  0  0
 29 61  1  0  0  0  0
 29 62  1  0  0  0  0
M  END
> <s_m_source_file>
AV-unprocessed.smi

> <i_m_source_file_index>
85

> <i_lp_mmshare_version>
43012

> <i_f3d_flags>
0

> <s_epik_input>
W0NIM11DMShbQ0gzXSlPW0NIMl1bQ0gyXVtDQEhdKFtDSDJdMSlOKFtDSDJdW0NIM10pYyhuW2NIXW4yKWMoYzIzKW5bY0hdbjNbQ0gyXUM0KFtDSDJdW09IXSlbQ0gyXVtDSDJdT1tDSDJdW0NIMl00

> <s_epik_cmdline>
J2VwaWtfcHl0aG9uJywgJy1waCcsICc3LjAnLCAnLXRuJywgJzgnLCAnLW1hJywgJzIwMCcsICctbWV0YWxfYmluZGluZycsICctaW1hZScsICc8aW5maWxlLm1hZT4nLCAnLW9tYWUnLCAnPG91dGZpbGUubWFlPic=

> <r_lp_tautomer_probability>
1

> <r_epik_Ionization_Penalty>
0.00336056

> <r_epik_Ionization_Penalty_Charging>
0

> <r_epik_Ionization_Penalty_Neutral>
0.00336056

> <r_epik_State_Penalty>
0.00222191

> <r_epik_Charging_Adjusted_Penalty>
0.00222191

> <i_epik_Tot_Q>
0

> <i_epik_Tot_abs_Q>
0

> <r_epik_Metal_State_Penalty>
-0

> <b_epik_Metal_Only>
0

> <s_lp_Force_Field>
OPLS_2005

> <r_lp_Energy>
36.9586

> <b_lp_Chiralities_Consistent>
1

> <s_lp_Variant>
AV-unprocessed.smi:85-2

> <Gold.Version>
5.8.1

> <Gold.Id.Protein>
6NUR|6NUR_protein|mol2

> <Gold.PLP.Fitness>
43.6488

> <Gold.PLP.PLP>
-38.6422

> <Gold.PLP.part.hbond>
-2.8782

> <Gold.PLP.part.metal>
0.0000

> <Gold.PLP.part.buried>
-4.8658

> <Gold.PLP.part.nonpolar>
-31.2910

> <Gold.PLP.part.repulsive>
0.1183

> <Gold.PLP.ligand.clash>
0.0000

> <Gold.PLP.ligand.torsion>
1.0697

> <Gold.PLP.Chemscore.Hbond>
1.9581

> <Gold.PLP.Chemscore.CHOScore>
0.0000

> <Gold.PLP.Chemscore.Metal>
0.0000

> <Gold.Chemscore.Hbonds>
donor molecule, donor type, donor heavy atom, donor atom, acceptor molecule, acceptor atom, score
      L1  H    16    41       P1  7957  1.00
      P1  H  6896  6909       L1     5  0.60
      P1  H  7997  8008       L1    10  0.09

> <Gold.PLP.Chemscore.Internal.Correction>
1.2718

> <Gold.Rescore>
     Score         DG    S(hbond)    S(metal)    S(lipo)     H(rot)  DE(clash)    DE(int)     intcor
     10.96     -14.27       1.19        0.00      93.71       2.41       0.17       3.14       ----

> <Gold.Chemscore.Fitness>
10.9555

> <Gold.Chemscore.DG>
-14.2658

> <Gold.Chemscore.ZeroCoef>
-5.4800

> <Gold.Chemscore.Hbond>
1.1937

> <Gold.Chemscore.Metal>
0.0000

> <Gold.Chemscore.Lipo>
93.7092

> <Gold.Chemscore.Internal_Hbond>
0.0000

> <Gold.Chemscore.DEClash>
0.1703

> <Gold.Chemscore.DEInternal>
3.1400

> <Gold.Chemscore.Rot>
2.4083

> <Gold.Chemscore.Internal.Correction>
   9.000000E+99

> <Gold.Chemscore.Hbonds>
donor molecule, donor type, donor heavy atom, donor atom, acceptor molecule, acceptor atom, score
      L1  H    16    41       P1  7957  0.92
      P1  H  6896  6909       L1     5  0.07

> <Gold.Chemscore.Hbond.Weighted>
-3.9870

> <Gold.Chemscore.Metal.Weighted>
-0.0000

> <Gold.Chemscore.Lipo.Weighted>
-10.9640

> <Gold.Chemscore.Internal_Hbond.Weighted>
0.0000

> <Gold.Chemscore.DEClash.Weighted>
0.1703

> <Gold.Chemscore.DEInternal.Weighted>
3.1400

> <Gold.Chemscore.Rot.Weighted>
6.1652

> <Gold.Chemscore.Internal.Correction.Weighted>
   9.000000E+99

> <Gold.Protein.RotatedTorsions>
[ 6907 6896 6895 6894 ] final  141.10 input  -60.11 | X-H torsion
[ 7974 7965 7964 7962 ] final   79.15 input  175.53 | X-H torsion
[ 8008 7997 7996 7995 ] final  -80.46 input   59.86 | X-H torsion
[ 10167 10162 10161 10158 ] final -128.46 input  -65.29 | X-H torsion
[ 10718 10713 10712 10709 ] final  100.73 input   66.30 | X-H torsion
[ 10763 10752 10751 10750 ] final  -56.40 input  -60.55 | X-H torsion
[ 11005 11000 10999 10996 ] final   85.81 input  -57.11 | X-H torsion

> <Gold.Protein.ActiveResidues>
 VAL166  LYS551  ARG553  GLY616  TRP617  ASP618  TYR619  PRO620  LYS621  CYS622 
 ASP623  PHE694  ASN695  SER759  ASP760  ASP761  ALA762  ILE779  LEU786  VAL792 
 PHE793  MET794  SER795  GLU796  ALA797  LYS798  CYS799  TRP800  GLU811  SER814 

> <Gold.Protein.RotatedAtoms>
  152.2350  133.5089  159.5237 H   0  0  0  0  0  0  0  0  0  0  0  0  # atno 6907 bound_to 6896
  150.7048  134.1165  159.4028 H   0  0  0  0  0  0  0  0  0  0  0  0  # atno 6908 bound_to 6896
  151.9086  135.0348  160.0563 H   0  0  0  0  0  0  0  0  0  0  0  0  # atno 6909 bound_to 6896
  145.6679  139.2489  143.1885 H   0  0  0  0  0  0  0  0  0  0  0  0  # atno 7974 bound_to 7965
  154.5885  140.0662  156.9205 H   0  0  0  0  0  0  0  0  0  0  0  0  # atno 8008 bound_to 7997
  155.2337  140.3339  155.4282 H   0  0  0  0  0  0  0  0  0  0  0  0  # atno 8009 bound_to 7997
  156.2239  140.1811  156.7394 H   0  0  0  0  0  0  0  0  0  0  0  0  # atno 8010 bound_to 7997
  139.9501  143.6066  152.2478 H   0  0  0  0  0  0  0  0  0  0  0  0  # atno 10167 bound_to 10162
  157.6847  131.0706  150.5145 H   0  0  0  0  0  0  0  0  0  0  0  0  # atno 10718 bound_to 10713
  154.2060  135.6402  153.5101 H   0  0  0  0  0  0  0  0  0  0  0  0  # atno 10763 bound_to 10752
  153.0001  135.5463  154.6265 H   0  0  0  0  0  0  0  0  0  0  0  0  # atno 10764 bound_to 10752
  154.5690  135.2915  155.0819 H   0  0  0  0  0  0  0  0  0  0  0  0  # atno 10765 bound_to 10752
  139.8961  134.8312  156.2633 H   0  0  0  0  0  0  0  0  0  0  0  0  # atno 11005 bound_to 11000
  146.1070  140.7475  142.9521 LP  0  0  0  0  0  0  0  0  0  0  0  0  # atno 17320 bound_to 7965
  144.7067  140.3878  143.7113 LP  0  0  0  0  0  0  0  0  0  0  0  0  # atno 17321 bound_to 7965
  139.6636  144.7662  151.1916 LP  0  0  0  0  0  0  0  0  0  0  0  0  # atno 17342 bound_to 10162
  140.7585  143.5973  150.8735 LP  0  0  0  0  0  0  0  0  0  0  0  0  # atno 17343 bound_to 10162
  156.5461  130.4220  149.6130 LP  0  0  0  0  0  0  0  0  0  0  0  0  # atno 17370 bound_to 10713
  156.2943  130.7141  151.1998 LP  0  0  0  0  0  0  0  0  0  0  0  0  # atno 17371 bound_to 10713
  141.0148  133.7075  156.1171 LP  0  0  0  0  0  0  0  0  0  0  0  0  # atno 17394 bound_to 11000
  140.7316  134.4248  157.5565 LP  0  0  0  0  0  0  0  0  0  0  0  0  # atno 17395 bound_to 11000

$$$$
