AV-unprocessed.smi:1897|AV-procd|sdf|7696|dock5
  -GOLD-   22720 9433D 1   1.00000     0.00000
 Structure written by MMmdl.
 38 40  0  0  0  0  0  0  0  0  3 V2000
  149.0692  140.9224  154.5891 C   0  0  0  0  0  0  0  0  0  0  0  0
  149.9339  139.7277  154.8041 C   0  0  0  0  0  0  0  0  0  0  0  0
  151.2653  139.8010  154.8751 N   0  0  0  0  0  0  0  0  0  0  0  0
  151.8470  138.5583  155.0775 N   0  0  0  0  0  0  0  0  0  0  0  0
  150.9490  137.5666  155.1720 C   0  0  0  0  0  0  0  0  0  0  0  0
  151.3048  136.2850  155.3801 N   0  5  0  0  0  0  0  0  0  0  0  0
  150.3978  135.2764  155.4507 C   0  0  0  0  0  0  0  0  0  0  0  0
  150.3179  134.5040  156.4048 O   0  0  0  0  0  0  0  0  0  0  0  0
  149.5383  135.1363  154.4228 N   0  0  0  0  0  0  0  0  0  0  0  0
  148.4466  134.1703  154.3238 C   0  0  2  0  0  0  0  0  0  0  0  0
  148.7067  133.1030  153.2421 C   0  0  0  0  0  0  0  0  0  0  0  0
  147.3875  132.9897  152.4718 C   0  0  0  0  0  0  0  0  0  0  0  0
  146.8274  134.3427  152.5677 N   0  3  1  0  0  0  0  0  0  0  0  0
  145.4240  134.5488  152.1545 C   0  0  0  0  0  0  0  0  0  0  0  0
  145.1172  136.0610  152.1884 C   0  0  0  0  0  0  0  0  0  0  0  0
  145.4740  136.6964  153.5504 C   0  0  0  0  0  0  0  0  0  0  0  0
  146.9134  136.3453  153.9819 C   0  0  0  0  0  0  0  0  0  0  0  0
  147.0960  134.8163  153.9362 C   0  0  2  0  0  0  0  0  0  0  0  0
  149.2813  138.1090  154.9938 S   0  0  0  0  0  0  0  0  0  0  0  0
  148.7910  141.3573  155.5491 H   0  0  0  0  0  0  0  0  0  0  0  0
  148.1615  140.6391  154.0560 H   0  0  0  0  0  0  0  0  0  0  0  0
  149.5973  141.6741  154.0016 H   0  0  0  0  0  0  0  0  0  0  0  0
  149.6373  135.7851  153.6558 H   0  0  0  0  0  0  0  0  0  0  0  0
  148.3274  133.6606  155.2818 H   0  0  0  0  0  0  0  0  0  0  0  0
  149.4931  133.4346  152.5618 H   0  0  0  0  0  0  0  0  0  0  0  0
  149.0219  132.1480  153.6640 H   0  0  0  0  0  0  0  0  0  0  0  0
  147.5291  132.6785  151.4365 H   0  0  0  0  0  0  0  0  0  0  0  0
  146.7190  132.2790  152.9603 H   0  0  0  0  0  0  0  0  0  0  0  0
  145.2757  134.1577  151.1475 H   0  0  0  0  0  0  0  0  0  0  0  0
  144.7531  134.0009  152.8177 H   0  0  0  0  0  0  0  0  0  0  0  0
  145.6885  136.5593  151.4039 H   0  0  0  0  0  0  0  0  0  0  0  0
  144.0655  136.2351  151.9586 H   0  0  0  0  0  0  0  0  0  0  0  0
  145.3505  137.7787  153.5038 H   0  0  0  0  0  0  0  0  0  0  0  0
  144.7742  136.3396  154.3073 H   0  0  0  0  0  0  0  0  0  0  0  0
  147.6298  136.8360  153.3210 H   0  0  0  0  0  0  0  0  0  0  0  0
  147.0994  136.7227  154.9879 H   0  0  0  0  0  0  0  0  0  0  0  0
  146.3437  134.3695  154.5900 H   0  0  0  0  0  0  0  0  0  0  0  0
  147.3955  134.9160  151.9603 H   0  0  0  0  0  0  0  0  0  0  0  0
  1  2  1  0  0  0  0
  1 20  1  0  0  0  0
  1 21  1  0  0  0  0
  1 22  1  0  0  0  0
  2 19  1  0  0  0  0
  2  3  2  0  0  0  0
  3  4  1  0  0  0  0
  4  5  2  0  0  0  0
  5  6  1  0  0  0  0
  5 19  1  0  0  0  0
  6  7  1  0  0  0  0
  7  8  2  0  0  0  0
  7  9  1  0  0  0  0
  9 10  1  0  0  0  0
  9 23  1  0  0  0  0
 10 18  1  0  0  0  0
 10 11  1  0  0  0  0
 10 24  1  0  0  0  0
 11 12  1  0  0  0  0
 11 25  1  0  0  0  0
 11 26  1  0  0  0  0
 12 13  1  0  0  0  0
 12 27  1  0  0  0  0
 12 28  1  0  0  0  0
 13 18  1  0  0  0  0
 13 14  1  0  0  0  0
 13 38  1  0  0  0  0
 14 15  1  0  0  0  0
 14 29  1  0  0  0  0
 14 30  1  0  0  0  0
 15 16  1  0  0  0  0
 15 31  1  0  0  0  0
 15 32  1  0  0  0  0
 16 17  1  0  0  0  0
 16 33  1  0  0  0  0
 16 34  1  0  0  0  0
 17 18  1  0  0  0  0
 17 35  1  0  0  0  0
 17 36  1  0  0  0  0
 18 37  1  0  0  0  0
M  CHG  1   6  -1
M  CHG  1  13   1
M  END
> <s_m_source_file>
AV-unprocessed.smi

> <i_m_source_file_index>
1897

> <i_lp_mmshare_version>
43012

> <i_f3d_flags>
0

> <s_epik_input>
W0NIM11jMW5uYyhzMSlbTkhdQyg9TylbTkhdW0NASF0oW0NIMl1bQ0gyXTIpW0NAQEhdKE4yMylbQ0gyXVtDSDJdW0NIMl1bQ0gyXTM=

> <s_epik_cmdline>
J2VwaWtfcHl0aG9uJywgJy1waCcsICc3LjAnLCAnLXRuJywgJzgnLCAnLW1hJywgJzIwMCcsICctbWV0YWxfYmluZGluZycsICctaW1hZScsICc8aW5maWxlLm1hZT4nLCAnLW9tYWUnLCAnPG91dGZpbGUubWFlPic=

> <r_lp_tautomer_probability>
1

> <r_epik_Ionization_Penalty>
3.77712

> <r_epik_Ionization_Penalty_Charging>
3.67739

> <r_epik_Ionization_Penalty_Neutral>
0.0997294

> <r_epik_State_Penalty>
3.67514

> <r_epik_Charging_Adjusted_Penalty>
7.35254

> <i_epik_Tot_Q>
0

> <i_epik_Tot_abs_Q>
2

> <r_epik_Metal_State_Penalty>
0.540795

> <b_epik_Metal_Only>
1

> <s_lp_Force_Field>
OPLS_2005

> <r_lp_Energy>
34.9816

> <b_lp_Chiralities_Consistent>
1

> <s_lp_Variant>
AV-unprocessed.smi:1897-13

> <Gold.Version>
5.8.1

> <Gold.Id.Protein>
6NUR|6NUR_protein|mol2

> <Gold.PLP.Fitness>
42.4808

> <Gold.PLP.PLP>
-26.6096

> <Gold.PLP.part.hbond>
-4.0000

> <Gold.PLP.part.metal>
0.0000

> <Gold.PLP.part.buried>
-1.1914

> <Gold.PLP.part.nonpolar>
-21.1175

> <Gold.PLP.part.repulsive>
0.2686

> <Gold.PLP.ligand.clash>
0.0000

> <Gold.PLP.ligand.torsion>
0.5779

> <Gold.PLP.Chemscore.Hbond>
5.6752

> <Gold.PLP.Chemscore.CHOScore>
0.0000

> <Gold.PLP.Chemscore.Metal>
0.0000

> <Gold.Chemscore.Hbonds>
donor molecule, donor type, donor heavy atom, donor atom, acceptor molecule, acceptor atom, score
      L1  H     9    23       P1  7948  0.84
      L1  H    13    38       P1  7948  1.86
      P1  H  7989  7998       L1     3  1.00
      P1  H 10752 10764       L1     6  2.00

> <Gold.PLP.Chemscore.Internal.Correction>
0.0013

> <Gold.Rescore>
     Score         DG    S(hbond)    S(metal)    S(lipo)     H(rot)  DE(clash)    DE(int)     intcor
     14.73     -16.21       2.32        0.00      47.26       1.00       0.04       1.44       ----

> <Gold.Chemscore.Fitness>
14.7350

> <Gold.Chemscore.DG>
-16.2141

> <Gold.Chemscore.ZeroCoef>
-5.4800

> <Gold.Chemscore.Hbond>
2.3249

> <Gold.Chemscore.Metal>
0.0000

> <Gold.Chemscore.Lipo>
47.2555

> <Gold.Chemscore.Internal_Hbond>
0.0000

> <Gold.Chemscore.DEClash>
0.0436

> <Gold.Chemscore.DEInternal>
1.4355

> <Gold.Chemscore.Rot>
1.0000

> <Gold.Chemscore.Internal.Correction>
   9.000000E+99

> <Gold.Chemscore.Hbonds>
donor molecule, donor type, donor heavy atom, donor atom, acceptor molecule, acceptor atom, score
      L1  H     9    23       P1  7948  0.19
      L1  H    13    38       P1  7948  0.77
      P1  H  7989  7998       L1     3  0.35
      P1  H 10752 10764       L1     6  0.64

> <Gold.Chemscore.Hbond.Weighted>
-7.7652

> <Gold.Chemscore.Metal.Weighted>
-0.0000

> <Gold.Chemscore.Lipo.Weighted>
-5.5289

> <Gold.Chemscore.Internal_Hbond.Weighted>
0.0000

> <Gold.Chemscore.DEClash.Weighted>
0.0436

> <Gold.Chemscore.DEInternal.Weighted>
1.4355

> <Gold.Chemscore.Rot.Weighted>
2.5600

> <Gold.Chemscore.Internal.Correction.Weighted>
   9.000000E+99

> <Gold.Protein.RotatedTorsions>
[ 6907 6896 6895 6894 ] final  -83.35 input  -60.11 | X-H torsion
[ 7974 7965 7964 7962 ] final  -92.64 input  175.53 | X-H torsion
[ 8008 7997 7996 7995 ] final -159.60 input   59.86 | X-H torsion
[ 10167 10162 10161 10158 ] final -121.61 input  -65.29 | X-H torsion
[ 10718 10713 10712 10709 ] final  -66.67 input   66.30 | X-H torsion
[ 10763 10752 10751 10750 ] final  -57.96 input  -60.55 | X-H torsion
[ 11005 11000 10999 10996 ] final  -39.54 input  -57.11 | X-H torsion

> <Gold.Protein.ActiveResidues>
 VAL166  LYS551  ARG553  GLY616  TRP617  ASP618  TYR619  PRO620  LYS621  CYS622 
 ASP623  PHE694  ASN695  SER759  ASP760  ASP761  ALA762  ILE779  LEU786  VAL792 
 PHE793  MET794  SER795  GLU796  ALA797  LYS798  CYS799  TRP800  GLU811  SER814 

> <Gold.Protein.RotatedAtoms>
  150.6886  134.3525  159.4914 H   0  0  0  0  0  0  0  0  0  0  0  0  # atno 6907 bound_to 6896
  152.1364  134.9093  160.0565 H   0  0  0  0  0  0  0  0  0  0  0  0  # atno 6908 bound_to 6896
  152.0243  133.3877  159.4308 H   0  0  0  0  0  0  0  0  0  0  0  0  # atno 6909 bound_to 6896
  145.3971  140.9534  143.2308 H   0  0  0  0  0  0  0  0  0  0  0  0  # atno 7974 bound_to 7965
  155.7649  140.0844  157.2137 H   0  0  0  0  0  0  0  0  0  0  0  0  # atno 8008 bound_to 7997
  154.4000  140.1536  156.2932 H   0  0  0  0  0  0  0  0  0  0  0  0  # atno 8009 bound_to 7997
  155.8803  140.3421  155.5886 H   0  0  0  0  0  0  0  0  0  0  0  0  # atno 8010 bound_to 7997
  140.0231  143.5324  152.2211 H   0  0  0  0  0  0  0  0  0  0  0  0  # atno 10167 bound_to 10162
  156.0600  130.4265  150.1742 H   0  0  0  0  0  0  0  0  0  0  0  0  # atno 10718 bound_to 10713
  154.2306  135.6361  153.5174 H   0  0  0  0  0  0  0  0  0  0  0  0  # atno 10763 bound_to 10752
  152.9950  135.5518  154.6016 H   0  0  0  0  0  0  0  0  0  0  0  0  # atno 10764 bound_to 10752
  154.5498  135.2901  155.0993 H   0  0  0  0  0  0  0  0  0  0  0  0  # atno 10765 bound_to 10752
  141.0109  133.6908  156.2201 H   0  0  0  0  0  0  0  0  0  0  0  0  # atno 11005 bound_to 11000
  144.8400  139.5488  143.6905 LP  0  0  0  0  0  0  0  0  0  0  0  0  # atno 17320 bound_to 7965
  146.2770  139.6778  142.9256 LP  0  0  0  0  0  0  0  0  0  0  0  0  # atno 17321 bound_to 7965
  139.6126  144.7612  151.2918 LP  0  0  0  0  0  0  0  0  0  0  0  0  # atno 17342 bound_to 10162
  140.7334  143.6796  150.8012 LP  0  0  0  0  0  0  0  0  0  0  0  0  # atno 17343 bound_to 10162
  156.9812  130.9864  151.3437 LP  0  0  0  0  0  0  0  0  0  0  0  0  # atno 17370 bound_to 10713
  157.5601  130.8240  149.8254 LP  0  0  0  0  0  0  0  0  0  0  0  0  # atno 17371 bound_to 10713
  140.6734  134.4843  157.5588 LP  0  0  0  0  0  0  0  0  0  0  0  0  # atno 17394 bound_to 11000
  139.9089  134.8387  156.1600 LP  0  0  0  0  0  0  0  0  0  0  0  0  # atno 17395 bound_to 11000

$$$$
