AV-unprocessed.smi:1035|AV-procd|sdf|4515|dock4
  -GOLD-   22720 2523D 1   1.00000     0.00000
 Structure written by MMmdl.
 42 43  0  0  0  0  0  0  0  0  1 V2000
  144.7114  141.8932  155.9138 C   0  0  0  0  0  0  0  0  0  0  0  0
  145.9826  141.8164  155.0863 C   0  0  0  0  0  0  0  0  0  0  0  0
  146.2680  142.7422  154.1451 C   0  0  0  0  0  0  0  0  0  0  0  0
  147.4754  142.6593  153.3598 C   0  0  0  0  0  0  0  0  0  0  0  0
  148.3113  141.6369  153.5895 C   0  0  0  0  0  0  0  0  0  0  0  0
  148.0392  140.6606  154.5659 N   0  0  0  0  0  0  0  0  0  0  0  0
  149.0298  139.5817  154.7242 C   0  0  0  0  0  0  0  0  0  0  0  0
  150.3932  140.0702  155.2350 C   0  0  0  0  0  0  0  0  0  0  0  0
  151.4386  139.7481  154.6680 O   0  0  0  0  0  0  0  0  0  0  0  0
  150.3621  140.8667  156.3122 N   0  0  0  0  0  0  0  0  0  0  0  0
  151.5420  141.4331  156.9541 C   0  0  0  0  0  0  0  0  0  0  0  0
  151.4147  142.9570  157.1219 C   0  0  0  0  0  0  0  0  0  0  0  0
  151.7766  143.4514  158.5149 C   0  0  0  0  0  0  0  0  0  0  0  0
  151.7393  144.7583  158.8410 C   0  0  0  0  0  0  0  0  0  0  0  0
  152.0703  145.3036  160.2193 C   0  0  0  0  0  0  0  0  0  0  0  0
  152.1171  144.2005  161.2901 C   0  0  0  0  0  0  0  0  0  0  0  0
  152.8585  142.9605  160.7755 C   0  0  0  0  0  0  0  0  0  0  0  0
  152.1777  142.3804  159.5229 C   0  0  0  0  0  0  0  0  0  0  0  0
  146.9070  140.6943  155.3356 C   0  0  0  0  0  0  0  0  0  0  0  0
  146.6817  139.8307  156.1858 O   0  0  0  0  0  0  0  0  0  0  0  0
  144.1144  142.7659  155.6469 H   0  0  0  0  0  0  0  0  0  0  0  0
  144.9504  141.9609  156.9755 H   0  0  0  0  0  0  0  0  0  0  0  0
  144.0990  141.0052  155.7541 H   0  0  0  0  0  0  0  0  0  0  0  0
  145.5845  143.5602  153.9689 H   0  0  0  0  0  0  0  0  0  0  0  0
  147.6974  143.3986  152.6043 H   0  0  0  0  0  0  0  0  0  0  0  0
  149.2316  141.4976  153.0407 H   0  0  0  0  0  0  0  0  0  0  0  0
  148.6601  138.8229  155.4154 H   0  0  0  0  0  0  0  0  0  0  0  0
  149.1697  139.0576  153.7766 H   0  0  0  0  0  0  0  0  0  0  0  0
  149.4656  141.0868  156.7216 H   0  0  0  0  0  0  0  0  0  0  0  0
  151.6871  140.9573  157.9251 H   0  0  0  0  0  0  0  0  0  0  0  0
  152.4256  141.2038  156.3564 H   0  0  0  0  0  0  0  0  0  0  0  0
  152.0542  143.4613  156.3969 H   0  0  0  0  0  0  0  0  0  0  0  0
  150.3934  143.2586  156.8847 H   0  0  0  0  0  0  0  0  0  0  0  0
  151.4669  145.4908  158.0953 H   0  0  0  0  0  0  0  0  0  0  0  0
  153.0339  145.8105  160.1581 H   0  0  0  0  0  0  0  0  0  0  0  0
  151.3323  146.0570  160.4954 H   0  0  0  0  0  0  0  0  0  0  0  0
  152.5922  144.5796  162.1955 H   0  0  0  0  0  0  0  0  0  0  0  0
  151.1007  143.9190  161.5688 H   0  0  0  0  0  0  0  0  0  0  0  0
  153.8877  143.2326  160.5373 H   0  0  0  0  0  0  0  0  0  0  0  0
  152.9132  142.2001  161.5549 H   0  0  0  0  0  0  0  0  0  0  0  0
  151.2797  141.8336  159.8125 H   0  0  0  0  0  0  0  0  0  0  0  0
  152.8454  141.6616  159.0466 H   0  0  0  0  0  0  0  0  0  0  0  0
  1  2  1  0  0  0  0
  1 21  1  0  0  0  0
  1 22  1  0  0  0  0
  1 23  1  0  0  0  0
  2 19  1  0  0  0  0
  2  3  2  0  0  0  0
  3  4  1  0  0  0  0
  3 24  1  0  0  0  0
  4  5  2  0  0  0  0
  4 25  1  0  0  0  0
  5  6  1  0  0  0  0
  5 26  1  0  0  0  0
  6  7  1  0  0  0  0
  6 19  1  0  0  0  0
  7  8  1  0  0  0  0
  7 27  1  0  0  0  0
  7 28  1  0  0  0  0
  8  9  2  0  0  0  0
  8 10  1  0  0  0  0
 10 11  1  0  0  0  0
 10 29  1  0  0  0  0
 11 12  1  0  0  0  0
 11 30  1  0  0  0  0
 11 31  1  0  0  0  0
 12 13  1  0  0  0  0
 12 32  1  0  0  0  0
 12 33  1  0  0  0  0
 13 18  1  0  0  0  0
 13 14  2  0  0  0  0
 14 15  1  0  0  0  0
 14 34  1  0  0  0  0
 15 16  1  0  0  0  0
 15 35  1  0  0  0  0
 15 36  1  0  0  0  0
 16 17  1  0  0  0  0
 16 37  1  0  0  0  0
 16 38  1  0  0  0  0
 17 18  1  0  0  0  0
 17 39  1  0  0  0  0
 17 40  1  0  0  0  0
 18 41  1  0  0  0  0
 18 42  1  0  0  0  0
 19 20  2  0  0  0  0
M  END
> <s_m_source_file>
AV-unprocessed.smi

> <i_m_source_file_index>
1035

> <i_lp_mmshare_version>
43012

> <i_f3d_flags>
0

> <s_epik_input>
W0NIM11jMVtjSF1bY0hdW2NIXW4oYzE9TylbQ0gyXUMoPU8pW05IXVtDSDJdW0NIMl1DMj1bQ0hdW0NIMl1bQ0gyXVtDSDJdW0NIMl0y

> <s_epik_cmdline>
J2VwaWtfcHl0aG9uJywgJy1waCcsICc3LjAnLCAnLXRuJywgJzgnLCAnLW1hJywgJzIwMCcsICctbWV0YWxfYmluZGluZycsICctaW1hZScsICc8aW5maWxlLm1hZT4nLCAnLW9tYWUnLCAnPG91dGZpbGUubWFlPic=

> <r_lp_tautomer_probability>
1

> <r_epik_Ionization_Penalty>
7.80073e-07

> <r_epik_Ionization_Penalty_Charging>
7.6197e-07

> <r_epik_Ionization_Penalty_Neutral>
1.81035e-08

> <r_epik_State_Penalty>
-0

> <r_epik_Charging_Adjusted_Penalty>
7.6197e-07

> <i_epik_Tot_Q>
0

> <i_epik_Tot_abs_Q>
0

> <r_epik_Metal_State_Penalty>
-0

> <b_epik_Metal_Only>
0

> <s_lp_Force_Field>
OPLS_2005

> <r_lp_Energy>
17.5966

> <b_lp_Chiralities_Consistent>
1

> <s_lp_Variant>
AV-unprocessed.smi:1035-1

> <Gold.Version>
5.8.1

> <Gold.Id.Protein>
6NUR|6NUR_protein|mol2

> <Gold.PLP.Fitness>
47.7383

> <Gold.PLP.PLP>
-42.6882

> <Gold.PLP.part.hbond>
-1.0000

> <Gold.PLP.part.metal>
0.0000

> <Gold.PLP.part.buried>
-7.2947

> <Gold.PLP.part.nonpolar>
-34.2453

> <Gold.PLP.part.repulsive>
0.1256

> <Gold.PLP.ligand.clash>
0.0000

> <Gold.PLP.ligand.torsion>
0.4940

> <Gold.PLP.Chemscore.Hbond>
1.0000

> <Gold.PLP.Chemscore.CHOScore>
1.0000

> <Gold.PLP.Chemscore.Metal>
0.0000

> <Gold.Chemscore.Hbonds>
donor molecule, donor type, donor heavy atom, donor atom, acceptor molecule, acceptor atom, score
      P1  H  7989  7998       L1     9  1.00
      L1  C     5    26       P1  7957  0.96

> <Gold.PLP.Chemscore.Internal.Correction>
0.0381

> <Gold.Rescore>
     Score         DG    S(hbond)    S(metal)    S(lipo)     H(rot)  DE(clash)    DE(int)     intcor
     17.32     -17.98       0.90        0.00     116.80       1.63       0.20       0.46       ----

> <Gold.Chemscore.Fitness>
17.3197

> <Gold.Chemscore.DG>
-17.9778

> <Gold.Chemscore.ZeroCoef>
-5.4800

> <Gold.Chemscore.Hbond>
0.9005

> <Gold.Chemscore.Metal>
0.0000

> <Gold.Chemscore.Lipo>
116.8012

> <Gold.Chemscore.Internal_Hbond>
0.0000

> <Gold.Chemscore.DEClash>
0.2014

> <Gold.Chemscore.DEInternal>
0.4567

> <Gold.Chemscore.Rot>
1.6311

> <Gold.Chemscore.Internal.Correction>
   9.000000E+99

> <Gold.Chemscore.Hbonds>
donor molecule, donor type, donor heavy atom, donor atom, acceptor molecule, acceptor atom, score
      P1  H  7989  7998       L1     9  0.50

> <Gold.Chemscore.Hbond.Weighted>
-3.0078

> <Gold.Chemscore.Metal.Weighted>
-0.0000

> <Gold.Chemscore.Lipo.Weighted>
-13.6657

> <Gold.Chemscore.Internal_Hbond.Weighted>
0.0000

> <Gold.Chemscore.DEClash.Weighted>
0.2014

> <Gold.Chemscore.DEInternal.Weighted>
0.4567

> <Gold.Chemscore.Rot.Weighted>
4.1757

> <Gold.Chemscore.Internal.Correction.Weighted>
   9.000000E+99

> <Gold.Protein.RotatedTorsions>
[ 6907 6896 6895 6894 ] final  -55.33 input  -60.11 | X-H torsion
[ 7974 7965 7964 7962 ] final  -70.94 input  175.53 | X-H torsion
[ 8008 7997 7996 7995 ] final  146.43 input   59.86 | X-H torsion
[ 10167 10162 10161 10158 ] final   41.03 input  -65.29 | X-H torsion
[ 10718 10713 10712 10709 ] final  -40.58 input   66.30 | X-H torsion
[ 10763 10752 10751 10750 ] final  -83.73 input  -60.55 | X-H torsion
[ 11005 11000 10999 10996 ] final -170.15 input  -57.11 | X-H torsion

> <Gold.Protein.ActiveResidues>
 VAL166  LYS551  ARG553  GLY616  TRP617  ASP618  TYR619  PRO620  LYS621  CYS622 
 ASP623  PHE694  ASN695  SER759  ASP760  ASP761  ALA762  ILE779  LEU786  VAL792 
 PHE793  MET794  SER795  GLU796  ALA797  LYS798  CYS799  TRP800  GLU811  SER814 

> <Gold.Protein.RotatedAtoms>
  150.8261  134.7493  159.6813 H   0  0  0  0  0  0  0  0  0  0  0  0  # atno 6907 bound_to 6896
  152.4372  134.5660  159.9917 H   0  0  0  0  0  0  0  0  0  0  0  0  # atno 6908 bound_to 6896
  151.5832  133.3337  159.3048 H   0  0  0  0  0  0  0  0  0  0  0  0  # atno 6909 bound_to 6896
  145.6845  140.9176  143.0814 H   0  0  0  0  0  0  0  0  0  0  0  0  # atno 7974 bound_to 7965
  156.2855  140.2182  156.5375 H   0  0  0  0  0  0  0  0  0  0  0  0  # atno 8008 bound_to 7997
  154.7397  140.0489  157.0822 H   0  0  0  0  0  0  0  0  0  0  0  0  # atno 8009 bound_to 7997
  155.0247  140.3128  155.4783 H   0  0  0  0  0  0  0  0  0  0  0  0  # atno 8010 bound_to 7997
  140.3683  144.2138  150.6134 H   0  0  0  0  0  0  0  0  0  0  0  0  # atno 10167 bound_to 10162
  156.2798  130.4216  149.8349 H   0  0  0  0  0  0  0  0  0  0  0  0  # atno 10718 bound_to 10713
  154.5912  135.5546  153.7280 H   0  0  0  0  0  0  0  0  0  0  0  0  # atno 10763 bound_to 10752
  153.0117  135.6343  154.1847 H   0  0  0  0  0  0  0  0  0  0  0  0  # atno 10764 bound_to 10752
  154.1788  135.2888  155.3038 H   0  0  0  0  0  0  0  0  0  0  0  0  # atno 10765 bound_to 10752
  140.5227  134.5694  157.5052 H   0  0  0  0  0  0  0  0  0  0  0  0  # atno 11005 bound_to 11000
  144.7015  139.8740  143.7442 LP  0  0  0  0  0  0  0  0  0  0  0  0  # atno 17320 bound_to 7965
  146.0935  139.3926  143.0391 LP  0  0  0  0  0  0  0  0  0  0  0  0  # atno 17321 bound_to 7965
  140.5058  143.2304  151.8610 LP  0  0  0  0  0  0  0  0  0  0  0  0  # atno 17342 bound_to 10162
  139.4806  144.5007  151.9065 LP  0  0  0  0  0  0  0  0  0  0  0  0  # atno 17343 bound_to 10162
  156.5800  130.8461  151.3380 LP  0  0  0  0  0  0  0  0  0  0  0  0  # atno 17370 bound_to 10713
  157.7311  130.9695  150.1863 LP  0  0  0  0  0  0  0  0  0  0  0  0  # atno 17371 bound_to 10713
  139.9597  134.7474  156.0264 LP  0  0  0  0  0  0  0  0  0  0  0  0  # atno 17394 bound_to 11000
  141.1325  133.6583  156.3504 LP  0  0  0  0  0  0  0  0  0  0  0  0  # atno 17395 bound_to 11000

$$$$
