AV-unprocessed.smi:1461|AV-procd|sdf|5930|dock1
  -GOLD-   22720 6 13D 1   1.00000     0.00000
 Structure written by MMmdl.
 41 42  0  0  0  0  0  0  0  0  1 V2000
  152.1523  142.9865  160.0853 C   0  0  0  0  0  0  0  0  0  0  0  0
  151.9022  144.4016  159.5347 C   0  0  0  0  0  0  0  0  0  0  0  0
  150.4494  144.8284  159.7903 C   0  0  0  0  0  0  0  0  0  0  0  0
  152.2506  144.5329  158.0370 C   0  0  0  0  0  0  0  0  0  0  0  0
  151.2387  143.9250  157.1776 N   0  0  0  0  0  0  0  0  0  0  0  0
  151.1528  142.6210  156.8780 C   0  0  0  0  0  0  0  0  0  0  0  0
  151.9221  141.7653  157.3162 O   0  0  0  0  0  0  0  0  0  0  0  0
  150.1433  142.3861  156.0240 N   0  0  0  0  0  0  0  0  0  0  0  0
  149.8083  141.1541  155.3969 C   0  0  0  0  0  0  0  0  0  0  0  0
  150.7723  140.1301  155.2323 C   0  0  0  0  0  0  0  0  0  0  0  0
  150.3842  138.9015  154.6712 C   0  0  0  0  0  0  0  0  0  0  0  0
  149.0377  138.7337  154.3080 C   0  0  0  0  0  0  0  0  0  0  0  0
  148.1053  139.6936  154.4706 N   0  0  0  0  0  0  0  0  0  0  0  0
  148.4668  140.8902  154.9968 C   0  0  0  0  0  0  0  0  0  0  0  0
  147.4497  141.8646  155.1253 N   0  0  0  0  0  0  0  0  0  0  0  0
  146.2451  141.5799  155.8975 C   0  0  0  0  0  0  0  0  0  0  0  0
  145.2534  142.6686  155.4988 C   0  0  0  0  0  0  0  0  0  0  0  0
  145.5768  142.8781  154.0228 C   0  0  0  0  0  0  0  0  0  0  0  0
  147.0898  142.6475  153.9462 C   0  0  0  0  0  0  0  0  0  0  0  0
  151.5768  142.2412  159.5354 H   0  0  0  0  0  0  0  0  0  0  0  0
  151.8669  142.9182  161.1354 H   0  0  0  0  0  0  0  0  0  0  0  0
  153.2045  142.7094  160.0212 H   0  0  0  0  0  0  0  0  0  0  0  0
  152.5436  145.0879  160.0893 H   0  0  0  0  0  0  0  0  0  0  0  0
  149.7481  144.1788  159.2659 H   0  0  0  0  0  0  0  0  0  0  0  0
  150.2733  145.8499  159.4526 H   0  0  0  0  0  0  0  0  0  0  0  0
  150.2080  144.7892  160.8527 H   0  0  0  0  0  0  0  0  0  0  0  0
  152.4124  145.5801  157.7758 H   0  0  0  0  0  0  0  0  0  0  0  0
  153.1936  144.0241  157.8351 H   0  0  0  0  0  0  0  0  0  0  0  0
  150.5616  144.5504  156.7659 H   0  0  0  0  0  0  0  0  0  0  0  0
  149.6535  143.1977  155.6764 H   0  0  0  0  0  0  0  0  0  0  0  0
  151.7962  140.2619  155.5483 H   0  0  0  0  0  0  0  0  0  0  0  0
  151.0989  138.1034  154.5350 H   0  0  0  0  0  0  0  0  0  0  0  0
  148.6980  137.8018  153.8806 H   0  0  0  0  0  0  0  0  0  0  0  0
  145.8375  140.6036  155.6316 H   0  0  0  0  0  0  0  0  0  0  0  0
  146.4478  141.5880  156.9687 H   0  0  0  0  0  0  0  0  0  0  0  0
  144.2156  142.3839  155.6738 H   0  0  0  0  0  0  0  0  0  0  0  0
  145.4559  143.5826  156.0589 H   0  0  0  0  0  0  0  0  0  0  0  0
  145.0606  142.1256  153.4250 H   0  0  0  0  0  0  0  0  0  0  0  0
  145.2795  143.8607  153.6558 H   0  0  0  0  0  0  0  0  0  0  0  0
  147.6118  143.6038  153.9863 H   0  0  0  0  0  0  0  0  0  0  0  0
  147.3699  142.1471  153.0182 H   0  0  0  0  0  0  0  0  0  0  0  0
  1  2  1  0  0  0  0
  1 20  1  0  0  0  0
  1 21  1  0  0  0  0
  1 22  1  0  0  0  0
  2  3  1  0  0  0  0
  2  4  1  0  0  0  0
  2 23  1  0  0  0  0
  3 24  1  0  0  0  0
  3 25  1  0  0  0  0
  3 26  1  0  0  0  0
  4  5  1  0  0  0  0
  4 27  1  0  0  0  0
  4 28  1  0  0  0  0
  5  6  1  0  0  0  0
  5 29  1  0  0  0  0
  6  7  2  0  0  0  0
  6  8  1  0  0  0  0
  8  9  1  0  0  0  0
  8 30  1  0  0  0  0
  9 14  1  0  0  0  0
  9 10  2  0  0  0  0
 10 11  1  0  0  0  0
 10 31  1  0  0  0  0
 11 12  2  0  0  0  0
 11 32  1  0  0  0  0
 12 13  1  0  0  0  0
 12 33  1  0  0  0  0
 13 14  2  0  0  0  0
 14 15  1  0  0  0  0
 15 19  1  0  0  0  0
 15 16  1  0  0  0  0
 16 17  1  0  0  0  0
 16 34  1  0  0  0  0
 16 35  1  0  0  0  0
 17 18  1  0  0  0  0
 17 36  1  0  0  0  0
 17 37  1  0  0  0  0
 18 19  1  0  0  0  0
 18 38  1  0  0  0  0
 18 39  1  0  0  0  0
 19 40  1  0  0  0  0
 19 41  1  0  0  0  0
M  END
> <s_m_source_file>
AV-unprocessed.smi

> <i_m_source_file_index>
1461

> <i_lp_mmshare_version>
43012

> <i_f3d_flags>
0

> <s_epik_input>
W0NIM11bQ0hdKFtDSDNdKVtDSDJdW05IXUMoPU8pW05IXWMxW2NIXVtjSF1bY0hdbmMxTjJbQ0gyXVtDSDJdW0NIMl1bQ0gyXTI=

> <s_epik_cmdline>
J2VwaWtfcHl0aG9uJywgJy1waCcsICc3LjAnLCAnLXRuJywgJzgnLCAnLW1hJywgJzIwMCcsICctbWV0YWxfYmluZGluZycsICctaW1hZScsICc8aW5maWxlLm1hZT4nLCAnLW9tYWUnLCAnPG91dGZpbGUubWFlPic=

> <r_lp_tautomer_probability>
1

> <r_epik_Ionization_Penalty>
0.101487

> <r_epik_Ionization_Penalty_Charging>
0

> <r_epik_Ionization_Penalty_Neutral>
0.101487

> <r_epik_State_Penalty>
0.0909146

> <r_epik_Charging_Adjusted_Penalty>
0.0909146

> <i_epik_Tot_Q>
0

> <i_epik_Tot_abs_Q>
0

> <r_epik_Metal_State_Penalty>
0.0775598

> <b_epik_Metal_Only>
0

> <s_lp_Force_Field>
OPLS_2005

> <r_lp_Energy>
32.2638

> <b_lp_Chiralities_Consistent>
1

> <s_lp_Variant>
AV-unprocessed.smi:1461-1

> <Gold.Version>
5.8.1

> <Gold.Id.Protein>
6NUR|6NUR_protein|mol2

> <Gold.PLP.Fitness>
47.0017

> <Gold.PLP.PLP>
-39.1131

> <Gold.PLP.part.hbond>
-2.0000

> <Gold.PLP.part.metal>
0.0000

> <Gold.PLP.part.buried>
-3.2709

> <Gold.PLP.part.nonpolar>
-34.9135

> <Gold.PLP.part.repulsive>
0.3805

> <Gold.PLP.ligand.clash>
0.0000

> <Gold.PLP.ligand.torsion>
0.6999

> <Gold.PLP.Chemscore.Hbond>
1.9760

> <Gold.PLP.Chemscore.CHOScore>
1.0000

> <Gold.PLP.Chemscore.Metal>
0.0000

> <Gold.Chemscore.Hbonds>
donor molecule, donor type, donor heavy atom, donor atom, acceptor molecule, acceptor atom, score
      L1  H     5    29       P1  8028  0.96
      L1  H     8    30       P1  8028  1.00
      L1  C    12    33       P1  7948  0.94

> <Gold.PLP.Chemscore.Internal.Correction>
0.3604

> <Gold.Rescore>
     Score         DG    S(hbond)    S(metal)    S(lipo)     H(rot)  DE(clash)    DE(int)     intcor
     15.39     -19.00       1.84        0.00      92.06       1.32       1.69       1.93       ----

> <Gold.Chemscore.Fitness>
15.3888

> <Gold.Chemscore.DG>
-19.0044

> <Gold.Chemscore.ZeroCoef>
-5.4800

> <Gold.Chemscore.Hbond>
1.8396

> <Gold.Chemscore.Metal>
0.0000

> <Gold.Chemscore.Lipo>
92.0648

> <Gold.Chemscore.Internal_Hbond>
0.0000

> <Gold.Chemscore.DEClash>
1.6875

> <Gold.Chemscore.DEInternal>
1.9281

> <Gold.Chemscore.Rot>
1.3248

> <Gold.Chemscore.Internal.Correction>
   9.000000E+99

> <Gold.Chemscore.Hbonds>
donor molecule, donor type, donor heavy atom, donor atom, acceptor molecule, acceptor atom, score
      L1  H     5    29       P1  8028  0.84
      L1  H     8    30       P1  8028  1.00

> <Gold.Chemscore.Hbond.Weighted>
-6.1443

> <Gold.Chemscore.Metal.Weighted>
-0.0000

> <Gold.Chemscore.Lipo.Weighted>
-10.7716

> <Gold.Chemscore.Internal_Hbond.Weighted>
0.0000

> <Gold.Chemscore.DEClash.Weighted>
1.6875

> <Gold.Chemscore.DEInternal.Weighted>
1.9281

> <Gold.Chemscore.Rot.Weighted>
3.3915

> <Gold.Chemscore.Internal.Correction.Weighted>
   9.000000E+99

> <Gold.Protein.RotatedTorsions>
[ 6907 6896 6895 6894 ] final    2.77 input  -60.11 | X-H torsion
[ 7974 7965 7964 7962 ] final -163.16 input  175.53 | X-H torsion
[ 8008 7997 7996 7995 ] final -108.33 input   59.86 | X-H torsion
[ 10167 10162 10161 10158 ] final -173.30 input  -65.29 | X-H torsion
[ 10718 10713 10712 10709 ] final  125.75 input   66.30 | X-H torsion
[ 10763 10752 10751 10750 ] final -100.03 input  -60.55 | X-H torsion
[ 11005 11000 10999 10996 ] final   91.01 input  -57.11 | X-H torsion

> <Gold.Protein.ActiveResidues>
 VAL166  LYS551  ARG553  GLY616  TRP617  ASP618  TYR619  PRO620  LYS621  CYS622 
 ASP623  PHE694  ASN695  SER759  ASP760  ASP761  ALA762  ILE779  LEU786  VAL792 
 PHE793  MET794  SER795  GLU796  ALA797  LYS798  CYS799  TRP800  GLU811  SER814 

> <Gold.Protein.RotatedAtoms>
  151.6143  135.1037  160.0087 H   0  0  0  0  0  0  0  0  0  0  0  0  # atno 6907 bound_to 6896
  152.4192  133.7084  159.6475 H   0  0  0  0  0  0  0  0  0  0  0  0  # atno 6908 bound_to 6896
  150.8079  133.8402  159.3218 H   0  0  0  0  0  0  0  0  0  0  0  0  # atno 6909 bound_to 6896
  144.7335  140.3148  143.6181 H   0  0  0  0  0  0  0  0  0  0  0  0  # atno 7974 bound_to 7965
  154.9427  140.0402  157.2105 H   0  0  0  0  0  0  0  0  0  0  0  0  # atno 8008 bound_to 7997
  154.8054  140.2859  155.5869 H   0  0  0  0  0  0  0  0  0  0  0  0  # atno 8009 bound_to 7997
  156.2966  140.2547  156.2931 H   0  0  0  0  0  0  0  0  0  0  0  0  # atno 8010 bound_to 7997
  139.5696  144.1673  152.1364 H   0  0  0  0  0  0  0  0  0  0  0  0  # atno 10167 bound_to 10162
  157.5477  131.1095  150.8754 H   0  0  0  0  0  0  0  0  0  0  0  0  # atno 10718 bound_to 10713
  154.7546  135.4950  153.9352 H   0  0  0  0  0  0  0  0  0  0  0  0  # atno 10763 bound_to 10752
  153.1182  135.6725  153.9390 H   0  0  0  0  0  0  0  0  0  0  0  0  # atno 10764 bound_to 10752
  153.9129  135.3097  155.3427 H   0  0  0  0  0  0  0  0  0  0  0  0  # atno 10765 bound_to 10752
  139.8846  134.8648  156.3366 H   0  0  0  0  0  0  0  0  0  0  0  0  # atno 11005 bound_to 11000
  145.7628  139.1830  143.2257 LP  0  0  0  0  0  0  0  0  0  0  0  0  # atno 17320 bound_to 7965
  146.0973  140.7586  142.9566 LP  0  0  0  0  0  0  0  0  0  0  0  0  # atno 17321 bound_to 7965
  140.1203  144.5379  150.6867 LP  0  0  0  0  0  0  0  0  0  0  0  0  # atno 17342 bound_to 10162
  140.6980  143.2416  151.4945 LP  0  0  0  0  0  0  0  0  0  0  0  0  # atno 17343 bound_to 10162
  156.9288  130.5342  149.5279 LP  0  0  0  0  0  0  0  0  0  0  0  0  # atno 17370 bound_to 10713
  156.0550  130.5613  150.9071 LP  0  0  0  0  0  0  0  0  0  0  0  0  # atno 17371 bound_to 10713
  140.9687  133.7341  156.0503 LP  0  0  0  0  0  0  0  0  0  0  0  0  # atno 17394 bound_to 11000
  140.7899  134.3630  157.5467 LP  0  0  0  0  0  0  0  0  0  0  0  0  # atno 17395 bound_to 11000

$$$$
