AV-unprocessed.smi:742|AV-procd|sdf|3558|dock6
  -GOLD-   22720 0553D 1   1.00000     0.00000
 Structure written by MMmdl.
 25 25  0  0  0  0  0  0  0  0  2 V2000
  147.7338  138.6539  152.0152 N   0  3  0  0  0  0  0  0  0  0  0  0
  147.4549  139.2409  153.3360 C   0  0  0  0  0  0  0  0  0  0  0  0
  148.7171  139.2695  154.2101 C   0  0  0  0  0  0  0  0  0  0  0  0
  149.5467  138.0903  153.9611 N   0  0  0  0  0  0  0  0  0  0  0  0
  150.7664  137.5789  155.0731 S   0  0  0  0  0  0  0  0  0  0  0  0
  150.1802  137.5816  156.4227 O   0  0  0  0  0  0  0  0  0  0  0  0
  151.3573  136.3515  154.5197 O   0  0  0  0  0  0  0  0  0  0  0  0
  152.0237  138.9269  154.9401 C   0  0  0  0  0  0  0  0  0  0  0  0
  151.7674  140.0018  155.9592 C   0  0  0  0  0  0  0  0  0  0  0  0
  150.7922  141.0371  155.9206 C   0  0  0  0  0  0  0  0  0  0  0  0
  151.0074  141.7217  157.0818 C   0  0  0  0  0  0  0  0  0  0  0  0
  152.0276  141.1633  157.7802 O   0  0  0  0  0  0  0  0  0  0  0  0
  152.5103  140.0696  157.0528 N   0  0  0  0  0  0  0  0  0  0  0  0
  146.8628  138.4720  151.5374 H   0  0  0  0  0  0  0  0  0  0  0  0
  148.2420  137.7887  152.1294 H   0  0  0  0  0  0  0  0  0  0  0  0
  147.0628  140.2467  153.1847 H   0  0  0  0  0  0  0  0  0  0  0  0
  146.6692  138.6610  153.8211 H   0  0  0  0  0  0  0  0  0  0  0  0
  149.3053  140.1628  153.9981 H   0  0  0  0  0  0  0  0  0  0  0  0
  148.4515  139.3052  155.2670 H   0  0  0  0  0  0  0  0  0  0  0  0
  149.1469  137.3554  153.3776 H   0  0  0  0  0  0  0  0  0  0  0  0
  153.0072  138.4816  155.0937 H   0  0  0  0  0  0  0  0  0  0  0  0
  152.0018  139.3237  153.9254 H   0  0  0  0  0  0  0  0  0  0  0  0
  150.0522  141.2439  155.1617 H   0  0  0  0  0  0  0  0  0  0  0  0
  150.5414  142.5861  157.5313 H   0  0  0  0  0  0  0  0  0  0  0  0
  148.2861  139.3006  151.4699 H   0  0  0  0  0  0  0  0  0  0  0  0
  1  2  1  0  0  0  0
  1 14  1  0  0  0  0
  1 15  1  0  0  0  0
  1 25  1  0  0  0  0
  2  3  1  0  0  0  0
  2 16  1  0  0  0  0
  2 17  1  0  0  0  0
  3  4  1  0  0  0  0
  3 18  1  0  0  0  0
  3 19  1  0  0  0  0
  4  5  1  0  0  0  0
  4 20  1  0  0  0  0
  5  6  2  0  0  0  0
  5  7  2  0  0  0  0
  5  8  1  0  0  0  0
  8  9  1  0  0  0  0
  8 21  1  0  0  0  0
  8 22  1  0  0  0  0
  9 13  2  0  0  0  0
  9 10  1  0  0  0  0
 10 11  2  0  0  0  0
 10 23  1  0  0  0  0
 11 12  1  0  0  0  0
 11 24  1  0  0  0  0
 12 13  1  0  0  0  0
M  CHG  1   1   1
M  END
> <s_m_source_file>
AV-unprocessed.smi

> <i_m_source_file_index>
742

> <i_lp_mmshare_version>
43012

> <i_f3d_flags>
0

> <s_epik_input>
W05IMl1bQ0gyXVtDSDJdW05IXVMoPU8pKD1PKVtDSDJdYzFbY0hdW2NIXW9uMQ==

> <s_epik_cmdline>
J2VwaWtfcHl0aG9uJywgJy1waCcsICc3LjAnLCAnLXRuJywgJzgnLCAnLW1hJywgJzIwMCcsICctbWV0YWxfYmluZGluZycsICctaW1hZScsICc8aW5maWxlLm1hZT4nLCAnLW9tYWUnLCAnPG91dGZpbGUubWFlPic=

> <r_lp_tautomer_probability>
1

> <r_epik_Ionization_Penalty>
0.00734165

> <r_epik_Ionization_Penalty_Charging>
0.00580839

> <r_epik_Ionization_Penalty_Neutral>
0.00153326

> <r_epik_State_Penalty>
-0

> <r_epik_Charging_Adjusted_Penalty>
0.00580839

> <i_epik_Tot_Q>
1

> <i_epik_Tot_abs_Q>
1

> <r_epik_Metal_State_Penalty>
0.322493

> <b_epik_Metal_Only>
0

> <s_lp_Force_Field>
OPLS_2005

> <r_lp_Energy>
-3.29025

> <b_lp_Chiralities_Consistent>
1

> <s_lp_Variant>
AV-unprocessed.smi:742-1

> <Gold.Version>
5.8.1

> <Gold.Id.Protein>
6NUR|6NUR_protein|mol2

> <Gold.PLP.Fitness>
39.6976

> <Gold.PLP.PLP>
-23.6827

> <Gold.PLP.part.hbond>
-4.8139

> <Gold.PLP.part.metal>
0.0000

> <Gold.PLP.part.buried>
-1.6099

> <Gold.PLP.part.nonpolar>
-16.6440

> <Gold.PLP.part.repulsive>
0.4888

> <Gold.PLP.ligand.clash>
0.0000

> <Gold.PLP.ligand.torsion>
1.5421

> <Gold.PLP.Chemscore.Hbond>
6.0000

> <Gold.PLP.Chemscore.CHOScore>
0.0000

> <Gold.PLP.Chemscore.Metal>
0.0000

> <Gold.Chemscore.Hbonds>
donor molecule, donor type, donor heavy atom, donor atom, acceptor molecule, acceptor atom, score
      L1  H     1    15       P1  7948  2.00
      L1  H     1    25       P1  7957  0.94
      L1  H     4    20       P1  7948  1.00
      P1  H  7997  8008       L1    13  1.00
      P1  H 10752 10763       L1     7  1.00

> <Gold.PLP.Chemscore.Internal.Correction>
1.0992

> <Gold.Rescore>
     Score         DG    S(hbond)    S(metal)    S(lipo)     H(rot)  DE(clash)    DE(int)     intcor
     18.92     -20.33       4.85        0.00      38.35       2.28       0.06       1.35       ----

> <Gold.Chemscore.Fitness>
18.9241

> <Gold.Chemscore.DG>
-20.3325

> <Gold.Chemscore.ZeroCoef>
-5.4800

> <Gold.Chemscore.Hbond>
4.8507

> <Gold.Chemscore.Metal>
0.0000

> <Gold.Chemscore.Lipo>
38.3529

> <Gold.Chemscore.Internal_Hbond>
0.0000

> <Gold.Chemscore.DEClash>
0.0584

> <Gold.Chemscore.DEInternal>
1.3500

> <Gold.Chemscore.Rot>
2.2798

> <Gold.Chemscore.Internal.Correction>
   9.000000E+99

> <Gold.Chemscore.Hbonds>
donor molecule, donor type, donor heavy atom, donor atom, acceptor molecule, acceptor atom, score
      L1  H     1    15       P1  7948  1.00
      L1  H     1    25       P1  7957  0.79
      L1  H     4    20       P1  7948  0.98
      P1  H  7997  8008       L1    13  0.65
      P1  H 10752 10763       L1     7  1.00

> <Gold.Chemscore.Hbond.Weighted>
-16.2014

> <Gold.Chemscore.Metal.Weighted>
-0.0000

> <Gold.Chemscore.Lipo.Weighted>
-4.4873

> <Gold.Chemscore.Internal_Hbond.Weighted>
0.0000

> <Gold.Chemscore.DEClash.Weighted>
0.0584

> <Gold.Chemscore.DEInternal.Weighted>
1.3500

> <Gold.Chemscore.Rot.Weighted>
5.8362

> <Gold.Chemscore.Internal.Correction.Weighted>
   9.000000E+99

> <Gold.Protein.RotatedTorsions>
[ 6907 6896 6895 6894 ] final   59.23 input  -60.11 | X-H torsion
[ 7974 7965 7964 7962 ] final  -94.56 input  175.53 | X-H torsion
[ 8008 7997 7996 7995 ] final  -55.05 input   59.86 | X-H torsion
[ 10167 10162 10161 10158 ] final   91.22 input  -65.29 | X-H torsion
[ 10718 10713 10712 10709 ] final  122.26 input   66.30 | X-H torsion
[ 10763 10752 10751 10750 ] final   38.00 input  -60.55 | X-H torsion
[ 11005 11000 10999 10996 ] final  -30.13 input  -57.11 | X-H torsion

> <Gold.Protein.ActiveResidues>
 VAL166  LYS551  ARG553  GLY616  TRP617  ASP618  TYR619  PRO620  LYS621  CYS622 
 ASP623  PHE694  ASN695  SER759  ASP760  ASP761  ALA762  ILE779  LEU786  VAL792 
 PHE793  MET794  SER795  GLU796  ALA797  LYS798  CYS799  TRP800  GLU811  SER814 

> <Gold.Protein.RotatedAtoms>
  152.3896  134.6462  160.0112 H   0  0  0  0  0  0  0  0  0  0  0  0  # atno 6907 bound_to 6896
  151.6700  133.3308  159.3202 H   0  0  0  0  0  0  0  0  0  0  0  0  # atno 6908 bound_to 6896
  150.7815  134.6808  159.6487 H   0  0  0  0  0  0  0  0  0  0  0  0  # atno 6909 bound_to 6896
  145.3716  140.9506  143.2444 H   0  0  0  0  0  0  0  0  0  0  0  0  # atno 7974 bound_to 7965
  154.4182  140.1162  156.5414 H   0  0  0  0  0  0  0  0  0  0  0  0  # atno 8008 bound_to 7997
  155.6504  140.3496  155.4727 H   0  0  0  0  0  0  0  0  0  0  0  0  # atno 8009 bound_to 7997
  155.9797  140.1158  157.0727 H   0  0  0  0  0  0  0  0  0  0  0  0  # atno 8010 bound_to 7997
  139.8396  144.6648  150.9300 H   0  0  0  0  0  0  0  0  0  0  0  0  # atno 10167 bound_to 10162
  157.5756  131.1079  150.8285 H   0  0  0  0  0  0  0  0  0  0  0  0  # atno 10718 bound_to 10713
  153.0017  135.6262  154.2235 H   0  0  0  0  0  0  0  0  0  0  0  0  # atno 10763 bound_to 10752
  154.1978  135.2805  155.3003 H   0  0  0  0  0  0  0  0  0  0  0  0  # atno 10764 bound_to 10752
  154.5708  135.5677  153.7153 H   0  0  0  0  0  0  0  0  0  0  0  0  # atno 10765 bound_to 10752
  140.9356  133.7311  156.1000 H   0  0  0  0  0  0  0  0  0  0  0  0  # atno 11005 bound_to 11000
  144.8572  139.5231  143.6829 LP  0  0  0  0  0  0  0  0  0  0  0  0  # atno 17320 bound_to 7965
  146.2883  139.7065  142.9180 LP  0  0  0  0  0  0  0  0  0  0  0  0  # atno 17321 bound_to 7965
  140.7799  143.3925  151.1286 LP  0  0  0  0  0  0  0  0  0  0  0  0  # atno 17342 bound_to 10162
  139.7572  143.8689  152.3091 LP  0  0  0  0  0  0  0  0  0  0  0  0  # atno 17343 bound_to 10162
  156.8745  130.5158  149.5294 LP  0  0  0  0  0  0  0  0  0  0  0  0  # atno 17370 bound_to 10713
  156.0801  130.5813  150.9546 LP  0  0  0  0  0  0  0  0  0  0  0  0  # atno 17371 bound_to 10713
  140.7803  134.3732  157.5488 LP  0  0  0  0  0  0  0  0  0  0  0  0  # atno 17394 bound_to 11000
  139.8807  134.9078  156.2952 LP  0  0  0  0  0  0  0  0  0  0  0  0  # atno 17395 bound_to 11000

$$$$
