AV-unprocessed.smi:157|AV-procd|sdf|1291|dock8
  -GOLD-   2262018573D 1   1.00000     0.00000
 Structure written by MMmdl.
 35 37  0  0  0  0  0  0  0  0  1 V2000
  145.5046  138.7350  151.3457 O   0  0  0  0  0  0  0  0  0  0  0  0
  146.8273  138.9926  151.7658 C   0  0  0  0  0  0  0  0  0  0  0  0
  146.9048  139.0267  153.3006 C   0  0  1  0  0  0  0  0  0  0  0  0
  145.9779  138.0979  153.8708 O   0  0  0  0  0  0  0  0  0  0  0  0
  146.5751  137.3739  154.9090 C   0  0  1  0  0  0  0  0  0  0  0  0
  146.8694  135.9819  154.4204 N   0  0  0  0  0  0  0  0  0  0  0  0
  147.6640  135.0692  154.9981 C   0  0  0  0  0  0  0  0  0  0  0  0
  147.7425  133.9178  154.3536 N   0  0  0  0  0  0  0  0  0  0  0  0
  146.9346  134.1040  153.2346 C   0  0  0  0  0  0  0  0  0  0  0  0
  146.3975  135.3832  153.2473 C   0  0  0  0  0  0  0  0  0  0  0  0
  145.5606  136.1189  152.4297 N   0  0  0  0  0  0  0  0  0  0  0  0
  145.3915  135.7176  151.2093 C   0  0  0  0  0  0  0  0  0  0  0  0
  145.8528  134.5764  150.5689 N   0  0  0  0  0  0  0  0  0  0  0  0
  145.7442  133.2430  151.1353 C   0  0  0  0  0  0  0  0  0  0  0  0
  146.7484  132.9745  152.2626 C   0  0  1  0  0  0  0  0  0  0  0  0
  148.0155  132.6970  151.7024 O   0  0  0  0  0  0  0  0  0  0  0  0
  147.8789  138.1006  155.2401 C   0  0  0  0  0  0  0  0  0  0  0  0
  148.2715  138.6492  153.8846 C   0  0  2  0  0  0  0  0  0  0  0  0
  149.1266  139.7643  154.0254 O   0  0  0  0  0  0  0  0  0  0  0  0
  146.6051  140.0109  153.6659 H   0  0  0  0  0  0  0  0  0  0  0  0
  145.9016  137.2369  155.7557 H   0  0  0  0  0  0  0  0  0  0  0  0
  146.4356  132.0765  152.7961 H   0  0  0  0  0  0  0  0  0  0  0  0
  148.7555  137.8747  153.2876 H   0  0  0  0  0  0  0  0  0  0  0  0
  144.9139  139.2323  151.8905 H   0  0  0  0  0  0  0  0  0  0  0  0
  147.4677  138.2003  151.3777 H   0  0  0  0  0  0  0  0  0  0  0  0
  147.1697  139.9299  151.3283 H   0  0  0  0  0  0  0  0  0  0  0  0
  148.2020  135.2445  155.9166 H   0  0  0  0  0  0  0  0  0  0  0  0
  144.7929  136.3365  150.5394 H   0  0  0  0  0  0  0  0  0  0  0  0
  145.8295  134.5480  149.5599 H   0  0  0  0  0  0  0  0  0  0  0  0
  144.7333  133.1407  151.5325 H   0  0  0  0  0  0  0  0  0  0  0  0
  145.8382  132.4958  150.3468 H   0  0  0  0  0  0  0  0  0  0  0  0
  147.9967  131.8203  151.3500 H   0  0  0  0  0  0  0  0  0  0  0  0
  147.6528  138.9060  155.9409 H   0  0  0  0  0  0  0  0  0  0  0  0
  148.6259  137.4436  155.6861 H   0  0  0  0  0  0  0  0  0  0  0  0
  149.2238  140.1729  153.1785 H   0  0  0  0  0  0  0  0  0  0  0  0
  1  2  1  0  0  0  0
  1 24  1  0  0  0  0
  2  3  1  0  0  0  0
  2 25  1  0  0  0  0
  2 26  1  0  0  0  0
  3 20  1  0  0  0  0
  3 18  1  0  0  0  0
  3  4  1  0  0  0  0
  4  5  1  0  0  0  0
  5 21  1  0  0  0  0
  5  6  1  0  0  0  0
  5 17  1  0  0  0  0
  6 10  1  0  0  0  0
  6  7  1  0  0  0  0
  7  8  2  0  0  0  0
  7 27  1  0  0  0  0
  8  9  1  0  0  0  0
  9 15  1  0  0  0  0
  9 10  2  0  0  0  0
 10 11  1  0  0  0  0
 11 12  2  0  0  0  0
 12 13  1  0  0  0  0
 12 28  1  0  0  0  0
 13 14  1  0  0  0  0
 13 29  1  0  0  0  0
 14 15  1  0  0  0  0
 14 30  1  0  0  0  0
 14 31  1  0  0  0  0
 15 22  1  0  0  0  0
 15 16  1  0  0  0  0
 16 32  1  0  0  0  0
 17 18  1  0  0  0  0
 17 33  1  0  0  0  0
 17 34  1  0  0  0  0
 18 23  1  0  0  0  0
 18 19  1  0  0  0  0
 19 35  1  0  0  0  0
M  END
> <s_m_source_file>
AV-unprocessed.smi

> <i_m_source_file_index>
157

> <i_lp_mmshare_version>
43012

> <i_f3d_flags>
0

> <s_epik_input>
W09IXVtDSDJdW0NASF0xT1tDQEhdKFtDSDJdW0NAQEhdMVtPSF0pbihbY0hdbjIpYyhjMjMpTj1bQ0hdW05IXVtDSDJdW0NASF0zW09IXQ==

> <s_epik_cmdline>
J2VwaWtfcHl0aG9uJywgJy1waCcsICc3LjAnLCAnLXRuJywgJzgnLCAnLW1hJywgJzIwMCcsICctbWV0YWxfYmluZGluZycsICctaW1hZScsICc8aW5maWxlLm1hZT4nLCAnLW9tYWUnLCAnPG91dGZpbGUubWFlPic=

> <r_lp_tautomer_probability>
1

> <r_epik_Ionization_Penalty>
0.0357149

> <r_epik_Ionization_Penalty_Charging>
0.0355056

> <r_epik_Ionization_Penalty_Neutral>
0.000209255

> <r_epik_State_Penalty>
0.0296046

> <r_epik_Charging_Adjusted_Penalty>
0.0651102

> <i_epik_Tot_Q>
0

> <i_epik_Tot_abs_Q>
0

> <r_epik_Metal_State_Penalty>
3.03559e-05

> <b_epik_Metal_Only>
0

> <s_epik_Chemistry_Notes>
This compound has an imine and may undergo hydrolysis. This compound contains an acetal/aminal-like group ( X-CH(R)-Y where X, Y are N, S, or O) that may be acid/base labile, releasing an aldehyde.

> <s_lp_Force_Field>
OPLS_2005

> <r_lp_Energy>
41.3094

> <b_lp_Chiralities_Consistent>
1

> <s_lp_Variant>
AV-unprocessed.smi:157-1

> <Gold.Version>
5.8.1

> <Gold.Id.Protein>
6NUR|6NUR_protein|mol2

> <Gold.PLP.Fitness>
33.7399

> <Gold.PLP.PLP>
-21.3448

> <Gold.PLP.part.hbond>
-3.8850

> <Gold.PLP.part.metal>
0.0000

> <Gold.PLP.part.buried>
0.4526

> <Gold.PLP.part.nonpolar>
-17.5896

> <Gold.PLP.part.repulsive>
0.4525

> <Gold.PLP.ligand.clash>
0.6620

> <Gold.PLP.ligand.torsion>
0.5488

> <Gold.PLP.Chemscore.Hbond>
3.7113

> <Gold.PLP.Chemscore.CHOScore>
1.0000

> <Gold.PLP.Chemscore.Metal>
0.0000

> <Gold.Chemscore.Hbonds>
donor molecule, donor type, donor heavy atom, donor atom, acceptor molecule, acceptor atom, score
      L1  H     1    24       P1 10175  1.00
      L1  H    13    29       P1  7921  1.00
      L1  H    16    32       P1 10747  0.72
      L1  H    19    35       P1  7957  0.93
      L1  C    12    28       P1 10171  1.00

> <Gold.PLP.Chemscore.Internal.Correction>
0.0209

> <Gold.Rescore>
     Score         DG    S(hbond)    S(metal)    S(lipo)     H(rot)  DE(clash)    DE(int)     intcor
      9.40     -11.83       3.34        0.00      38.39       3.64       0.30       2.13       ----

> <Gold.Chemscore.Fitness>
9.4015

> <Gold.Chemscore.DG>
-11.8286

> <Gold.Chemscore.ZeroCoef>
-5.4800

> <Gold.Chemscore.Hbond>
3.3432

> <Gold.Chemscore.Metal>
0.0000

> <Gold.Chemscore.Lipo>
38.3864

> <Gold.Chemscore.Internal_Hbond>
0.0000

> <Gold.Chemscore.DEClash>
0.2975

> <Gold.Chemscore.DEInternal>
2.1297

> <Gold.Chemscore.Rot>
3.6362

> <Gold.Chemscore.Internal.Correction>
   9.000000E+99

> <Gold.Chemscore.Hbonds>
donor molecule, donor type, donor heavy atom, donor atom, acceptor molecule, acceptor atom, score
      L1  H     1    24       P1 10175  0.98
      L1  H    13    29       P1  7921  0.73
      L1  H    16    32       P1 10747  0.72
      L1  H    19    35       P1  7957  0.84

> <Gold.Chemscore.Hbond.Weighted>
-11.1662

> <Gold.Chemscore.Metal.Weighted>
-0.0000

> <Gold.Chemscore.Lipo.Weighted>
-4.4912

> <Gold.Chemscore.Internal_Hbond.Weighted>
0.0000

> <Gold.Chemscore.DEClash.Weighted>
0.2975

> <Gold.Chemscore.DEInternal.Weighted>
2.1297

> <Gold.Chemscore.Rot.Weighted>
9.3087

> <Gold.Chemscore.Internal.Correction.Weighted>
   9.000000E+99

> <Gold.Protein.RotatedTorsions>
[ 6907 6896 6895 6894 ] final  104.12 input  -60.11 | X-H torsion
[ 7974 7965 7964 7962 ] final  157.07 input  175.53 | X-H torsion
[ 8008 7997 7996 7995 ] final   42.70 input   59.86 | X-H torsion
[ 10167 10162 10161 10158 ] final  133.60 input  -65.29 | X-H torsion
[ 10718 10713 10712 10709 ] final   41.48 input   66.30 | X-H torsion
[ 10763 10752 10751 10750 ] final  140.81 input  -60.55 | X-H torsion
[ 11005 11000 10999 10996 ] final   13.27 input  -57.11 | X-H torsion

> <Gold.Protein.ActiveResidues>
 VAL166  LYS551  ARG553  GLY616  TRP617  ASP618  TYR619  PRO620  LYS621  CYS622 
 ASP623  PHE694  ASN695  SER759  ASP760  ASP761  ALA762  ILE779  LEU786  VAL792 
 PHE793  MET794  SER795  GLU796  ALA797  LYS798  CYS799  TRP800  GLU811  SER814 

> <Gold.Protein.RotatedAtoms>
  152.5274  133.9724  159.7767 H   0  0  0  0  0  0  0  0  0  0  0  0  # atno 6907 bound_to 6896
  150.9993  133.6064  159.2704 H   0  0  0  0  0  0  0  0  0  0  0  0  # atno 6908 bound_to 6896
  151.3179  135.0817  159.9348 H   0  0  0  0  0  0  0  0  0  0  0  0  # atno 6909 bound_to 6896
  144.7925  139.7290  143.6215 H   0  0  0  0  0  0  0  0  0  0  0  0  # atno 7974 bound_to 7965
  155.2906  140.3378  155.4253 H   0  0  0  0  0  0  0  0  0  0  0  0  # atno 8008 bound_to 7997
  156.2048  140.1746  156.7864 H   0  0  0  0  0  0  0  0  0  0  0  0  # atno 8009 bound_to 7997
  154.5606  140.0688  156.8797 H   0  0  0  0  0  0  0  0  0  0  0  0  # atno 8010 bound_to 7997
  139.5290  144.6608  151.5019 H   0  0  0  0  0  0  0  0  0  0  0  0  # atno 10167 bound_to 10162
  157.3940  130.7822  149.7293 H   0  0  0  0  0  0  0  0  0  0  0  0  # atno 10718 bound_to 10713
  153.9288  135.2992  155.3446 H   0  0  0  0  0  0  0  0  0  0  0  0  # atno 10763 bound_to 10752
  154.7537  135.4968  153.9339 H   0  0  0  0  0  0  0  0  0  0  0  0  # atno 10764 bound_to 10752
  153.1102  135.6757  153.9618 H   0  0  0  0  0  0  0  0  0  0  0  0  # atno 10765 bound_to 10752
  140.4826  134.0920  155.7754 H   0  0  0  0  0  0  0  0  0  0  0  0  # atno 11005 bound_to 11000
  146.2182  139.5588  142.9636 LP  0  0  0  0  0  0  0  0  0  0  0  0  # atno 17320 bound_to 7965
  145.5757  141.0389  143.2149 LP  0  0  0  0  0  0  0  0  0  0  0  0  # atno 17321 bound_to 7965
  140.6455  143.8803  150.6733 LP  0  0  0  0  0  0  0  0  0  0  0  0  # atno 17342 bound_to 10162
  140.2151  143.3852  152.1687 LP  0  0  0  0  0  0  0  0  0  0  0  0  # atno 17343 bound_to 10162
  155.9805  130.4028  150.3522 LP  0  0  0  0  0  0  0  0  0  0  0  0  # atno 17370 bound_to 10713
  157.1641  131.0352  151.2827 LP  0  0  0  0  0  0  0  0  0  0  0  0  # atno 17371 bound_to 10713
  141.1523  133.8945  157.2065 LP  0  0  0  0  0  0  0  0  0  0  0  0  # atno 17394 bound_to 11000
  139.9817  135.0096  156.9765 LP  0  0  0  0  0  0  0  0  0  0  0  0  # atno 17395 bound_to 11000

$$$$
