AV-unprocessed.smi:1815|AV-procd|sdf|7363|dock7
  -GOLD-   22720 9 23D 1   1.00000     0.00000
 Structure written by MMmdl.
 39 40  0  0  0  0  0  0  0  0  3 V2000
  146.7686  138.7139  152.1683 C   0  0  0  0  0  0  0  0  0  0  0  0
  146.8790  138.9780  153.6807 C   0  0  1  0  0  0  0  0  0  0  0  0
  148.2613  138.6302  154.2679 C   0  0  0  0  0  0  0  0  0  0  0  0
  149.2786  139.6341  153.8755 N   0  3  2  0  0  0  0  0  0  0  0  0
  150.6340  139.2900  154.3713 C   0  0  0  0  0  0  0  0  0  0  0  0
  150.7644  139.4817  155.8900 C   0  0  0  0  0  0  0  0  0  0  0  0
  151.1629  140.8480  156.1965 N   0  0  0  0  0  0  0  0  0  0  0  0
  150.8655  141.5005  157.3275 C   0  0  0  0  0  0  0  0  0  0  0  0
  150.2085  140.9368  158.2059 O   0  0  0  0  0  0  0  0  0  0  0  0
  151.3477  142.7627  157.3690 N   0  5  0  0  0  0  0  0  0  0  0  0
  151.6674  143.3215  158.5477 C   0  0  0  0  0  0  0  0  0  0  0  0
  152.0483  142.6077  159.6133 N   0  0  0  0  0  0  0  0  0  0  0  0
  152.3269  143.3904  160.7352 C   0  0  0  0  0  0  0  0  0  0  0  0
  152.1455  144.7310  160.5213 C   0  0  0  0  0  0  0  0  0  0  0  0
  151.6167  145.0522  158.8946 S   0  0  0  0  0  0  0  0  0  0  0  0
  148.8324  140.9946  154.2611 C   0  0  0  0  0  0  0  0  0  0  0  0
  147.4635  141.3095  153.6317 C   0  0  2  0  0  0  0  0  0  0  0  0
  146.9258  142.6734  154.0789 C   0  0  0  0  0  0  0  0  0  0  0  0
  146.5194  140.3162  154.0240 O   0  0  0  0  0  0  0  0  0  0  0  0
  146.9171  137.6562  151.9500 H   0  0  0  0  0  0  0  0  0  0  0  0
  147.5100  139.2692  151.5944 H   0  0  0  0  0  0  0  0  0  0  0  0
  145.7816  138.9902  151.7969 H   0  0  0  0  0  0  0  0  0  0  0  0
  146.1428  138.3357  154.1651 H   0  0  0  0  0  0  0  0  0  0  0  0
  148.1995  138.5953  155.3570 H   0  0  0  0  0  0  0  0  0  0  0  0
  148.5647  137.6359  153.9373 H   0  0  0  0  0  0  0  0  0  0  0  0
  150.8871  138.2680  154.0843 H   0  0  0  0  0  0  0  0  0  0  0  0
  151.3659  139.9379  153.8857 H   0  0  0  0  0  0  0  0  0  0  0  0
  149.8127  139.2638  156.3778 H   0  0  0  0  0  0  0  0  0  0  0  0
  151.5074  138.8032  156.3095 H   0  0  0  0  0  0  0  0  0  0  0  0
  151.7025  141.3427  155.5010 H   0  0  0  0  0  0  0  0  0  0  0  0
  152.6475  142.9083  161.6465 H   0  0  0  0  0  0  0  0  0  0  0  0
  152.2885  145.5444  161.2165 H   0  0  0  0  0  0  0  0  0  0  0  0
  148.7743  141.0646  155.3487 H   0  0  0  0  0  0  0  0  0  0  0  0
  149.5564  141.7397  153.9330 H   0  0  0  0  0  0  0  0  0  0  0  0
  147.5547  141.3234  152.5454 H   0  0  0  0  0  0  0  0  0  0  0  0
  147.6068  143.4761  153.7950 H   0  0  0  0  0  0  0  0  0  0  0  0
  146.7953  142.7124  155.1609 H   0  0  0  0  0  0  0  0  0  0  0  0
  145.9592  142.8808  153.6195 H   0  0  0  0  0  0  0  0  0  0  0  0
  149.3281  139.6097  152.8668 H   0  0  0  0  0  0  0  0  0  0  0  0
  1  2  1  0  0  0  0
  1 20  1  0  0  0  0
  1 21  1  0  0  0  0
  1 22  1  0  0  0  0
  2 19  1  0  0  0  0
  2  3  1  0  0  0  0
  2 23  1  0  0  0  0
  3  4  1  0  0  0  0
  3 24  1  0  0  0  0
  3 25  1  0  0  0  0
  4  5  1  0  0  0  0
  4 16  1  0  0  0  0
  4 39  1  0  0  0  0
  5  6  1  0  0  0  0
  5 26  1  0  0  0  0
  5 27  1  0  0  0  0
  6  7  1  0  0  0  0
  6 28  1  0  0  0  0
  6 29  1  0  0  0  0
  7  8  1  0  0  0  0
  7 30  1  0  0  0  0
  8  9  2  0  0  0  0
  8 10  1  0  0  0  0
 10 11  1  0  0  0  0
 11 15  1  0  0  0  0
 11 12  2  0  0  0  0
 12 13  1  0  0  0  0
 13 14  2  0  0  0  0
 13 31  1  0  0  0  0
 14 15  1  0  0  0  0
 14 32  1  0  0  0  0
 16 17  1  0  0  0  0
 16 33  1  0  0  0  0
 16 34  1  0  0  0  0
 17 18  1  0  0  0  0
 17 19  1  0  0  0  0
 17 35  1  0  0  0  0
 18 36  1  0  0  0  0
 18 37  1  0  0  0  0
 18 38  1  0  0  0  0
M  CHG  1   4   1
M  CHG  1  10  -1
M  END
> <s_m_source_file>
AV-unprocessed.smi

> <i_m_source_file_index>
1815

> <i_lp_mmshare_version>
43012

> <i_f3d_flags>
0

> <s_epik_input>
W0NIM11bQ0BASF0xW0NIMl1OKFtDSDJdW0NASF0oTzEpW0NIM10pW0NIMl1bQ0gyXVtOSF1DKD1PKVtOSF1jMm5bY0hdW2NIXXMy

> <s_epik_cmdline>
J2VwaWtfcHl0aG9uJywgJy1waCcsICc3LjAnLCAnLXRuJywgJzgnLCAnLW1hJywgJzIwMCcsICctbWV0YWxfYmluZGluZycsICctaW1hZScsICc8aW5maWxlLm1hZT4nLCAnLW9tYWUnLCAnPG91dGZpbGUubWFlPic=

> <r_lp_tautomer_probability>
0.999

> <r_epik_Ionization_Penalty>
6.71699

> <r_epik_Ionization_Penalty_Charging>
5.88592

> <r_epik_Ionization_Penalty_Neutral>
0.831074

> <r_epik_State_Penalty>
6.08365

> <r_epik_Charging_Adjusted_Penalty>
11.9696

> <i_epik_Tot_Q>
0

> <i_epik_Tot_abs_Q>
2

> <r_epik_Metal_State_Penalty>
2.0947

> <b_epik_Metal_Only>
1

> <s_lp_Force_Field>
OPLS_2005

> <r_lp_Energy>
8.63778

> <b_lp_Chiralities_Consistent>
1

> <s_lp_Variant>
AV-unprocessed.smi:1815-14

> <Gold.Version>
5.8.1

> <Gold.Id.Protein>
6NUR|6NUR_protein|mol2

> <Gold.PLP.Fitness>
40.4765

> <Gold.PLP.PLP>
-38.9221

> <Gold.PLP.part.hbond>
-1.0000

> <Gold.PLP.part.metal>
0.0000

> <Gold.PLP.part.buried>
-5.1536

> <Gold.PLP.part.nonpolar>
-33.3708

> <Gold.PLP.part.repulsive>
0.4858

> <Gold.PLP.ligand.clash>
0.0000

> <Gold.PLP.ligand.torsion>
0.7451

> <Gold.PLP.Chemscore.Hbond>
1.0000

> <Gold.PLP.Chemscore.CHOScore>
0.0000

> <Gold.PLP.Chemscore.Metal>
0.0000

> <Gold.Chemscore.Hbonds>
donor molecule, donor type, donor heavy atom, donor atom, acceptor molecule, acceptor atom, score
      L1  H     4    39       P1  7957  1.00

> <Gold.PLP.Chemscore.Internal.Correction>
0.0446

> <Gold.Rescore>
     Score         DG    S(hbond)    S(metal)    S(lipo)     H(rot)  DE(clash)    DE(int)     intcor
     12.89     -15.41       1.00        0.00      91.53       1.61       0.45       2.06       ----

> <Gold.Chemscore.Fitness>
12.8943

> <Gold.Chemscore.DG>
-15.4056

> <Gold.Chemscore.ZeroCoef>
-5.4800

> <Gold.Chemscore.Hbond>
0.9963

> <Gold.Chemscore.Metal>
0.0000

> <Gold.Chemscore.Lipo>
91.5306

> <Gold.Chemscore.Internal_Hbond>
0.0000

> <Gold.Chemscore.DEClash>
0.4490

> <Gold.Chemscore.DEInternal>
2.0624

> <Gold.Chemscore.Rot>
1.6060

> <Gold.Chemscore.Internal.Correction>
   9.000000E+99

> <Gold.Chemscore.Hbonds>
donor molecule, donor type, donor heavy atom, donor atom, acceptor molecule, acceptor atom, score
      L1  H     4    39       P1  7957  1.00

> <Gold.Chemscore.Hbond.Weighted>
-3.3278

> <Gold.Chemscore.Metal.Weighted>
-0.0000

> <Gold.Chemscore.Lipo.Weighted>
-10.7091

> <Gold.Chemscore.Internal_Hbond.Weighted>
0.0000

> <Gold.Chemscore.DEClash.Weighted>
0.4490

> <Gold.Chemscore.DEInternal.Weighted>
2.0624

> <Gold.Chemscore.Rot.Weighted>
4.1112

> <Gold.Chemscore.Internal.Correction.Weighted>
   9.000000E+99

> <Gold.Protein.RotatedTorsions>
[ 6907 6896 6895 6894 ] final    9.17 input  -60.11 | X-H torsion
[ 7974 7965 7964 7962 ] final  134.66 input  175.53 | X-H torsion
[ 8008 7997 7996 7995 ] final -151.97 input   59.86 | X-H torsion
[ 10167 10162 10161 10158 ] final  103.52 input  -65.29 | X-H torsion
[ 10718 10713 10712 10709 ] final  -92.24 input   66.30 | X-H torsion
[ 10763 10752 10751 10750 ] final  -65.56 input  -60.55 | X-H torsion
[ 11005 11000 10999 10996 ] final  -45.35 input  -57.11 | X-H torsion

> <Gold.Protein.ActiveResidues>
 VAL166  LYS551  ARG553  GLY616  TRP617  ASP618  TYR619  PRO620  LYS621  CYS622 
 ASP623  PHE694  ASN695  SER759  ASP760  ASP761  ALA762  ILE779  LEU786  VAL792 
 PHE793  MET794  SER795  GLU796  ALA797  LYS798  CYS799  TRP800  GLU811  SER814 

> <Gold.Protein.RotatedAtoms>
  151.7178  135.0900  160.0278 H   0  0  0  0  0  0  0  0  0  0  0  0  # atno 6907 bound_to 6896
  152.3621  133.6306  159.6031 H   0  0  0  0  0  0  0  0  0  0  0  0  # atno 6908 bound_to 6896
  150.7612  133.9323  159.3472 H   0  0  0  0  0  0  0  0  0  0  0  0  # atno 6909 bound_to 6896
  144.9741  139.4574  143.5418 H   0  0  0  0  0  0  0  0  0  0  0  0  # atno 7974 bound_to 7965
  155.6478  140.0708  157.2597 H   0  0  0  0  0  0  0  0  0  0  0  0  # atno 8008 bound_to 7997
  154.4169  140.1739  156.1692 H   0  0  0  0  0  0  0  0  0  0  0  0  # atno 8009 bound_to 7997
  155.9802  140.3354  155.6659 H   0  0  0  0  0  0  0  0  0  0  0  0  # atno 8010 bound_to 7997
  139.7256  144.7048  151.0803 H   0  0  0  0  0  0  0  0  0  0  0  0  # atno 10167 bound_to 10162
  156.0000  130.4979  150.5595 H   0  0  0  0  0  0  0  0  0  0  0  0  # atno 10718 bound_to 10713
  154.3468  135.6145  153.5623 H   0  0  0  0  0  0  0  0  0  0  0  0  # atno 10763 bound_to 10752
  152.9800  135.5783  154.4789 H   0  0  0  0  0  0  0  0  0  0  0  0  # atno 10764 bound_to 10752
  154.4503  135.2852  155.1763 H   0  0  0  0  0  0  0  0  0  0  0  0  # atno 10765 bound_to 10752
  141.0510  133.6743  156.3001 H   0  0  0  0  0  0  0  0  0  0  0  0  # atno 11005 bound_to 11000
  146.3390  139.8972  142.8800 LP  0  0  0  0  0  0  0  0  0  0  0  0  # atno 17320 bound_to 7965
  145.2516  141.0046  143.3877 LP  0  0  0  0  0  0  0  0  0  0  0  0  # atno 17321 bound_to 7965
  140.7762  143.5109  150.9653 LP  0  0  0  0  0  0  0  0  0  0  0  0  # atno 17342 bound_to 10162
  139.8797  143.7088  152.3158 LP  0  0  0  0  0  0  0  0  0  0  0  0  # atno 17343 bound_to 10162
  157.3507  131.0733  151.1716 LP  0  0  0  0  0  0  0  0  0  0  0  0  # atno 17370 bound_to 10713
  157.2533  130.6624  149.5941 LP  0  0  0  0  0  0  0  0  0  0  0  0  # atno 17371 bound_to 10713
  140.6056  134.5511  157.5525 LP  0  0  0  0  0  0  0  0  0  0  0  0  # atno 17394 bound_to 11000
  139.9350  134.7892  156.0827 LP  0  0  0  0  0  0  0  0  0  0  0  0  # atno 17395 bound_to 11000

$$$$
