AV-unprocessed.smi:1144|AV-procd|sdf|4880|dock8
  -GOLD-   22720 3453D 1   1.00000     0.00000
 Structure written by MMmdl.
 34 35  0  0  0  0  0  0  0  0  1 V2000
  150.6684  135.0528  155.4972 C   0  0  0  0  0  0  0  0  0  0  0  0
  151.5077  136.2318  155.3457 N   0  0  0  0  0  0  0  0  0  0  0  0
  150.8740  137.2355  154.5011 C   0  0  0  0  0  0  0  0  0  0  0  0
  151.7492  138.4918  154.3578 C   0  0  0  0  0  0  0  0  0  0  0  0
  152.0518  139.0095  155.6498 O   0  0  0  0  0  0  0  0  0  0  0  0
  152.7315  138.0726  156.4837 C   0  0  1  0  0  0  0  0  0  0  0  0
  153.0081  138.7386  157.8381 C   0  0  0  0  0  0  0  0  0  0  0  0
  152.2218  139.9506  158.0120 N   0  0  0  0  0  0  0  0  0  0  0  0
  152.5019  140.9287  158.9468 C   0  0  0  0  0  0  0  0  0  0  0  0
  153.2265  140.5321  159.9955 N   0  0  0  0  0  0  0  0  0  0  0  0
  153.5182  141.4641  160.9283 C   0  0  0  0  0  0  0  0  0  0  0  0
  153.0812  142.7979  160.8080 C   0  0  0  0  0  0  0  0  0  0  0  0
  152.3210  143.1061  159.6577 C   0  0  0  0  0  0  0  0  0  0  0  0
  151.7815  144.5036  159.3942 C   0  0  0  0  0  0  0  0  0  0  0  0
  150.4717  144.4419  159.1519 F   0  0  0  0  0  0  0  0  0  0  0  0
  151.9806  145.3094  160.4378 F   0  0  0  0  0  0  0  0  0  0  0  0
  152.3918  145.0295  158.3320 F   0  0  0  0  0  0  0  0  0  0  0  0
  152.0346  142.1634  158.7301 N   0  0  0  0  0  0  0  0  0  0  0  0
  151.8447  136.8204  156.6357 C   0  0  0  0  0  0  0  0  0  0  0  0
  150.4481  134.6086  154.5260 H   0  0  0  0  0  0  0  0  0  0  0  0
  149.7223  135.3018  155.9795 H   0  0  0  0  0  0  0  0  0  0  0  0
  151.1693  134.2967  156.1022 H   0  0  0  0  0  0  0  0  0  0  0  0
  150.6740  136.8167  153.5141 H   0  0  0  0  0  0  0  0  0  0  0  0
  149.9080  137.5172  154.9232 H   0  0  0  0  0  0  0  0  0  0  0  0
  152.6732  138.2622  153.8248 H   0  0  0  0  0  0  0  0  0  0  0  0
  151.2264  139.2549  153.7810 H   0  0  0  0  0  0  0  0  0  0  0  0
  153.6778  137.7903  156.0178 H   0  0  0  0  0  0  0  0  0  0  0  0
  152.7964  138.0440  158.6520 H   0  0  0  0  0  0  0  0  0  0  0  0
  154.0640  139.0027  157.9068 H   0  0  0  0  0  0  0  0  0  0  0  0
  151.3844  140.0622  157.4590 H   0  0  0  0  0  0  0  0  0  0  0  0
  154.1049  141.1435  161.7764 H   0  0  0  0  0  0  0  0  0  0  0  0
  153.3194  143.5361  161.5594 H   0  0  0  0  0  0  0  0  0  0  0  0
  150.9303  137.0866  157.1687 H   0  0  0  0  0  0  0  0  0  0  0  0
  152.3603  136.0830  157.2522 H   0  0  0  0  0  0  0  0  0  0  0  0
  1  2  1  0  0  0  0
  1 20  1  0  0  0  0
  1 21  1  0  0  0  0
  1 22  1  0  0  0  0
  2 19  1  0  0  0  0
  2  3  1  0  0  0  0
  3  4  1  0  0  0  0
  3 23  1  0  0  0  0
  3 24  1  0  0  0  0
  4  5  1  0  0  0  0
  4 25  1  0  0  0  0
  4 26  1  0  0  0  0
  5  6  1  0  0  0  0
  6  7  1  0  0  0  0
  6 19  1  0  0  0  0
  6 27  1  0  0  0  0
  7  8  1  0  0  0  0
  7 28  1  0  0  0  0
  7 29  1  0  0  0  0
  8  9  1  0  0  0  0
  8 30  1  0  0  0  0
  9 18  1  0  0  0  0
  9 10  2  0  0  0  0
 10 11  1  0  0  0  0
 11 12  2  0  0  0  0
 11 31  1  0  0  0  0
 12 13  1  0  0  0  0
 12 32  1  0  0  0  0
 13 14  1  0  0  0  0
 13 18  2  0  0  0  0
 14 15  1  0  0  0  0
 14 16  1  0  0  0  0
 14 17  1  0  0  0  0
 19 33  1  0  0  0  0
 19 34  1  0  0  0  0
M  END
> <s_m_source_file>
AV-unprocessed.smi

> <i_m_source_file_index>
1144

> <i_lp_mmshare_version>
43012

> <i_f3d_flags>
0

> <s_epik_input>
W0NIM11OMVtDSDJdW0NIMl1PW0NASF0oW0NIMl0xKVtDSDJdW05IXWMybltjSF1bY0hdYyhuMilDKEYpKEYpRg==

> <s_epik_cmdline>
J2VwaWtfcHl0aG9uJywgJy1waCcsICc3LjAnLCAnLXRuJywgJzgnLCAnLW1hJywgJzIwMCcsICctbWV0YWxfYmluZGluZycsICctaW1hZScsICc8aW5maWxlLm1hZT4nLCAnLW9tYWUnLCAnPG91dGZpbGUubWFlPic=

> <r_lp_tautomer_probability>
1

> <r_epik_Ionization_Penalty>
0.797829

> <r_epik_Ionization_Penalty_Charging>
0

> <r_epik_Ionization_Penalty_Neutral>
0.797829

> <r_epik_State_Penalty>
0.828842

> <r_epik_Charging_Adjusted_Penalty>
0.828842

> <i_epik_Tot_Q>
0

> <i_epik_Tot_abs_Q>
0

> <r_epik_Metal_State_Penalty>
0.828842

> <b_epik_Metal_Only>
0

> <s_lp_Force_Field>
OPLS_2005

> <r_lp_Energy>
13.1173

> <b_lp_Chiralities_Consistent>
1

> <s_lp_Variant>
AV-unprocessed.smi:1144-5

> <Gold.Version>
5.8.1

> <Gold.Id.Protein>
6NUR|6NUR_protein|mol2

> <Gold.PLP.Fitness>
42.7924

> <Gold.PLP.PLP>
-41.8553

> <Gold.PLP.part.hbond>
-1.0000

> <Gold.PLP.part.metal>
0.0000

> <Gold.PLP.part.buried>
-7.0956

> <Gold.PLP.part.nonpolar>
-33.9915

> <Gold.PLP.part.repulsive>
0.1585

> <Gold.PLP.ligand.clash>
0.0000

> <Gold.PLP.ligand.torsion>
1.0328

> <Gold.PLP.Chemscore.Hbond>
1.0000

> <Gold.PLP.Chemscore.CHOScore>
0.0000

> <Gold.PLP.Chemscore.Metal>
0.0000

> <Gold.Chemscore.Hbonds>
donor molecule, donor type, donor heavy atom, donor atom, acceptor molecule, acceptor atom, score
      P1  H 10752 10763       L1     2  1.00

> <Gold.PLP.Chemscore.Internal.Correction>
0.0028

> <Gold.Rescore>
     Score         DG    S(hbond)    S(metal)    S(lipo)     H(rot)  DE(clash)    DE(int)     intcor
     11.45     -12.42       0.29        0.00      79.69       1.31       0.09       0.87       ----

> <Gold.Chemscore.Fitness>
11.4533

> <Gold.Chemscore.DG>
-12.4162

> <Gold.Chemscore.ZeroCoef>
-5.4800

> <Gold.Chemscore.Hbond>
0.2931

> <Gold.Chemscore.Metal>
0.0000

> <Gold.Chemscore.Lipo>
79.6868

> <Gold.Chemscore.Internal_Hbond>
0.0000

> <Gold.Chemscore.DEClash>
0.0884

> <Gold.Chemscore.DEInternal>
0.8745

> <Gold.Chemscore.Rot>
1.3149

> <Gold.Chemscore.Internal.Correction>
   9.000000E+99

> <Gold.Chemscore.Hbonds>
donor molecule, donor type, donor heavy atom, donor atom, acceptor molecule, acceptor atom, score
      P1  H 10752 10763       L1     2  0.16

> <Gold.Chemscore.Hbond.Weighted>
-0.9791

> <Gold.Chemscore.Metal.Weighted>
-0.0000

> <Gold.Chemscore.Lipo.Weighted>
-9.3234

> <Gold.Chemscore.Internal_Hbond.Weighted>
0.0000

> <Gold.Chemscore.DEClash.Weighted>
0.0884

> <Gold.Chemscore.DEInternal.Weighted>
0.8745

> <Gold.Chemscore.Rot.Weighted>
3.3662

> <Gold.Chemscore.Internal.Correction.Weighted>
   9.000000E+99

> <Gold.Protein.RotatedTorsions>
[ 6907 6896 6895 6894 ] final -167.05 input  -60.11 | X-H torsion
[ 7974 7965 7964 7962 ] final   89.05 input  175.53 | X-H torsion
[ 8008 7997 7996 7995 ] final -105.53 input   59.86 | X-H torsion
[ 10167 10162 10161 10158 ] final   29.51 input  -65.29 | X-H torsion
[ 10718 10713 10712 10709 ] final  111.92 input   66.30 | X-H torsion
[ 10763 10752 10751 10750 ] final   70.42 input  -60.55 | X-H torsion
[ 11005 11000 10999 10996 ] final  -69.68 input  -57.11 | X-H torsion

> <Gold.Protein.ActiveResidues>
 VAL166  LYS551  ARG553  GLY616  TRP617  ASP618  TYR619  PRO620  LYS621  CYS622 
 ASP623  PHE694  ASN695  SER759  ASP760  ASP761  ALA762  ILE779  LEU786  VAL792 
 PHE793  MET794  SER795  GLU796  ALA797  LYS798  CYS799  TRP800  GLU811  SER814 

> <Gold.Protein.RotatedAtoms>
  151.4534  133.3611  159.2798 H   0  0  0  0  0  0  0  0  0  0  0  0  # atno 6907 bound_to 6896
  150.9075  134.8492  159.7413 H   0  0  0  0  0  0  0  0  0  0  0  0  # atno 6908 bound_to 6896
  152.4914  134.4461  159.9611 H   0  0  0  0  0  0  0  0  0  0  0  0  # atno 6909 bound_to 6896
  145.5375  139.2286  143.2584 H   0  0  0  0  0  0  0  0  0  0  0  0  # atno 7974 bound_to 7965
  154.9012  140.0413  157.1894 H   0  0  0  0  0  0  0  0  0  0  0  0  # atno 8008 bound_to 7997
  154.8442  140.2919  155.5619 H   0  0  0  0  0  0  0  0  0  0  0  0  # atno 8009 bound_to 7997
  156.2993  140.2477  156.3389 H   0  0  0  0  0  0  0  0  0  0  0  0  # atno 8010 bound_to 7997
  140.4759  144.0690  150.6250 H   0  0  0  0  0  0  0  0  0  0  0  0  # atno 10167 bound_to 10162
  157.6419  131.0959  150.6820 H   0  0  0  0  0  0  0  0  0  0  0  0  # atno 10718 bound_to 10713
  153.0341  135.5174  154.7438 H   0  0  0  0  0  0  0  0  0  0  0  0  # atno 10763 bound_to 10752
  154.6430  135.2915  155.0083 H   0  0  0  0  0  0  0  0  0  0  0  0  # atno 10764 bound_to 10752
  154.0994  135.6638  153.4918 H   0  0  0  0  0  0  0  0  0  0  0  0  # atno 10765 bound_to 10752
  141.1559  133.6770  156.6637 H   0  0  0  0  0  0  0  0  0  0  0  0  # atno 11005 bound_to 11000
  146.2003  140.6194  142.9105 LP  0  0  0  0  0  0  0  0  0  0  0  0  # atno 17320 bound_to 7965
  144.7594  140.5385  143.6746 LP  0  0  0  0  0  0  0  0  0  0  0  0  # atno 17321 bound_to 7965
  140.3919  143.2748  152.0051 LP  0  0  0  0  0  0  0  0  0  0  0  0  # atno 17342 bound_to 10162
  139.4825  144.6070  151.7502 LP  0  0  0  0  0  0  0  0  0  0  0  0  # atno 17343 bound_to 10162
  156.7142  130.4661  149.5539 LP  0  0  0  0  0  0  0  0  0  0  0  0  # atno 17370 bound_to 10713
  156.1709  130.6436  151.0836 LP  0  0  0  0  0  0  0  0  0  0  0  0  # atno 17371 bound_to 10713
  140.3228  134.7994  157.4265 LP  0  0  0  0  0  0  0  0  0  0  0  0  # atno 17394 bound_to 11000
  140.1083  134.5380  155.8289 LP  0  0  0  0  0  0  0  0  0  0  0  0  # atno 17395 bound_to 11000

$$$$
