AV-unprocessed.smi:283|AV-procd|sdf|2125|dock5
  -GOLD-   2262021433D 1   1.00000     0.00000
 Structure written by MMmdl.
 48 51  0  0  0  0  0  0  0  0  1 V2000
  152.0915  139.3534  156.0023 C   0  0  0  0  0  0  0  0  0  0  0  0
  150.9899  140.3479  156.4125 C   0  0  2  0  0  0  0  0  0  0  0  0
  150.5127  141.1132  155.2610 N   0  0  0  0  0  0  0  0  0  0  0  0
  149.3352  140.8331  154.6590 C   0  0  0  0  0  0  0  0  0  0  0  0
  148.6228  141.7950  154.0166 N   0  0  0  0  0  0  0  0  0  0  0  0
  147.4614  141.4885  153.4314 C   0  0  0  0  0  0  0  0  0  0  0  0
  146.8441  140.3066  153.3714 N   0  0  0  0  0  0  0  0  0  0  0  0
  147.5578  139.3344  154.0100 C   0  0  0  0  0  0  0  0  0  0  0  0
  148.8048  139.5171  154.6707 C   0  0  0  0  0  0  0  0  0  0  0  0
  149.2365  138.3096  155.2038 N   0  0  0  0  0  0  0  0  0  0  0  0
  148.2954  137.4654  154.8758 C   0  0  0  0  0  0  0  0  0  0  0  0
  147.2447  137.9986  154.1623 N   0  0  0  0  0  0  0  0  0  0  0  0
  146.0309  137.2852  153.6613 C   0  0  2  0  0  0  0  0  0  0  0  0
  146.2441  135.9135  153.7960 O   0  0  0  0  0  0  0  0  0  0  0  0
  145.7584  135.2394  152.6406 C   0  0  2  0  0  0  0  0  0  0  0  0
  146.4712  133.8869  152.4885 C   0  0  0  0  0  0  0  0  0  0  0  0
  147.8137  133.9955  152.9111 O   0  0  0  0  0  0  0  0  0  0  0  0
  146.0858  136.2321  151.5240 C   0  0  1  0  0  0  0  0  0  0  0  0
  145.3444  136.0022  150.3395 O   0  0  0  0  0  0  0  0  0  0  0  0
  145.7945  137.5840  152.1717 C   0  0  1  0  0  0  0  0  0  0  0  0
  144.4609  138.0077  151.9523 O   0  0  0  0  0  0  0  0  0  0  0  0
  151.4944  141.2422  157.5442 C   0  0  0  0  0  0  0  0  0  0  0  0
  151.4823  142.6491  157.3916 C   0  0  0  0  0  0  0  0  0  0  0  0
  151.9545  143.4876  158.4187 C   0  0  0  0  0  0  0  0  0  0  0  0
  152.4512  142.9288  159.6096 C   0  0  0  0  0  0  0  0  0  0  0  0
  152.4793  141.5312  159.7686 C   0  0  0  0  0  0  0  0  0  0  0  0
  152.0085  140.6862  158.7435 C   0  0  0  0  0  0  0  0  0  0  0  0
  152.0877  138.9762  158.9887 Cl  0  0  0  0  0  0  0  0  0  0  0  0
  145.2206  137.6187  154.3117 H   0  0  0  0  0  0  0  0  0  0  0  0
  144.6764  135.1155  152.7189 H   0  0  0  0  0  0  0  0  0  0  0  0
  147.1467  136.1699  151.2818 H   0  0  0  0  0  0  0  0  0  0  0  0
  146.4729  138.3577  151.8090 H   0  0  0  0  0  0  0  0  0  0  0  0
  152.4117  138.7529  156.8542 H   0  0  0  0  0  0  0  0  0  0  0  0
  152.9688  139.8730  155.6161 H   0  0  0  0  0  0  0  0  0  0  0  0
  151.7516  138.6627  155.2311 H   0  0  0  0  0  0  0  0  0  0  0  0
  150.1367  139.7876  156.7929 H   0  0  0  0  0  0  0  0  0  0  0  0
  151.1620  141.7939  154.8940 H   0  0  0  0  0  0  0  0  0  0  0  0
  146.9536  142.3067  152.9428 H   0  0  0  0  0  0  0  0  0  0  0  0
  148.3395  136.4221  155.1530 H   0  0  0  0  0  0  0  0  0  0  0  0
  145.9916  133.1363  153.1172 H   0  0  0  0  0  0  0  0  0  0  0  0
  146.4230  133.5263  151.4605 H   0  0  0  0  0  0  0  0  0  0  0  0
  148.1215  134.8666  152.7123 H   0  0  0  0  0  0  0  0  0  0  0  0
  145.9232  135.6322  149.6905 H   0  0  0  0  0  0  0  0  0  0  0  0
  144.3465  138.8549  152.3548 H   0  0  0  0  0  0  0  0  0  0  0  0
  151.1155  143.0989  156.4810 H   0  0  0  0  0  0  0  0  0  0  0  0
  151.9386  144.5599  158.2912 H   0  0  0  0  0  0  0  0  0  0  0  0
  152.8153  143.5708  160.3981 H   0  0  0  0  0  0  0  0  0  0  0  0
  152.8685  141.1054  160.6818 H   0  0  0  0  0  0  0  0  0  0  0  0
  1  2  1  0  0  0  0
  1 33  1  0  0  0  0
  1 34  1  0  0  0  0
  1 35  1  0  0  0  0
  2  3  1  0  0  0  0
  2 22  1  0  0  0  0
  2 36  1  0  0  0  0
  3  4  1  0  0  0  0
  3 37  1  0  0  0  0
  4  9  1  0  0  0  0
  4  5  2  0  0  0  0
  5  6  1  0  0  0  0
  6  7  2  0  0  0  0
  6 38  1  0  0  0  0
  7  8  1  0  0  0  0
  8 12  1  0  0  0  0
  8  9  2  0  0  0  0
  9 10  1  0  0  0  0
 10 11  2  0  0  0  0
 11 12  1  0  0  0  0
 11 39  1  0  0  0  0
 12 13  1  0  0  0  0
 13 29  1  0  0  0  0
 13 20  1  0  0  0  0
 13 14  1  0  0  0  0
 14 15  1  0  0  0  0
 15 30  1  0  0  0  0
 15 16  1  0  0  0  0
 15 18  1  0  0  0  0
 16 17  1  0  0  0  0
 16 40  1  0  0  0  0
 16 41  1  0  0  0  0
 17 42  1  0  0  0  0
 18 31  1  0  0  0  0
 18 19  1  0  0  0  0
 18 20  1  0  0  0  0
 19 43  1  0  0  0  0
 20 32  1  0  0  0  0
 20 21  1  0  0  0  0
 21 44  1  0  0  0  0
 22 27  1  0  0  0  0
 22 23  2  0  0  0  0
 23 24  1  0  0  0  0
 23 45  1  0  0  0  0
 24 25  2  0  0  0  0
 24 46  1  0  0  0  0
 25 26  1  0  0  0  0
 25 47  1  0  0  0  0
 26 27  2  0  0  0  0
 26 48  1  0  0  0  0
 27 28  1  0  0  0  0
M  END
> <s_m_source_file>
AV-unprocessed.smi

> <i_m_source_file_index>
283

> <i_lp_mmshare_version>
43012

> <i_f3d_flags>
0

> <s_epik_input>
Q2xjMVtjSF1bY0hdW2NIXVtjSF1jMVtDQEhdKFtDSDNdKVtOSF1jKG5bY0hdbjIpYyhjMjMpbltjSF1uM1tDQEBIXTRPW0NASF0oW0NIMl1bT0hdKVtDQEBIXShbT0hdKVtDQEhdNFtPSF0=

> <s_epik_cmdline>
J2VwaWtfcHl0aG9uJywgJy1waCcsICc3LjAnLCAnLXRuJywgJzgnLCAnLW1hJywgJzIwMCcsICctbWV0YWxfYmluZGluZycsICctaW1hZScsICc8aW5maWxlLm1hZT4nLCAnLW9tYWUnLCAnPG91dGZpbGUubWFlPic=

> <r_lp_tautomer_probability>
1

> <r_epik_Ionization_Penalty>
0.000266407

> <r_epik_Ionization_Penalty_Charging>
0

> <r_epik_Ionization_Penalty_Neutral>
0.000266407

> <r_epik_State_Penalty>
-0

> <r_epik_Charging_Adjusted_Penalty>
0

> <i_epik_Tot_Q>
0

> <i_epik_Tot_abs_Q>
0

> <r_epik_Metal_State_Penalty>
-0

> <b_epik_Metal_Only>
0

> <s_epik_Chemistry_Notes>
This compound contains an acetal/aminal-like group ( X-CH(R)-Y where X, Y are N, S, or O) that may be acid/base labile, releasing an aldehyde.

> <s_lp_Force_Field>
OPLS_2005

> <r_lp_Energy>
47.4388

> <b_lp_Chiralities_Consistent>
1

> <s_lp_Variant>
AV-unprocessed.smi:283-1

> <Gold.Version>
5.8.1

> <Gold.Id.Protein>
6NUR|6NUR_protein|mol2

> <Gold.PLP.Fitness>
49.4082

> <Gold.PLP.PLP>
-42.3373

> <Gold.PLP.part.hbond>
-5.2730

> <Gold.PLP.part.metal>
0.0000

> <Gold.PLP.part.buried>
-4.5498

> <Gold.PLP.part.nonpolar>
-34.0326

> <Gold.PLP.part.repulsive>
2.0545

> <Gold.PLP.ligand.clash>
0.0000

> <Gold.PLP.ligand.torsion>
0.8147

> <Gold.PLP.Chemscore.Hbond>
2.8528

> <Gold.PLP.Chemscore.CHOScore>
0.0000

> <Gold.PLP.Chemscore.Metal>
0.0000

> <Gold.Chemscore.Hbonds>
donor molecule, donor type, donor heavy atom, donor atom, acceptor molecule, acceptor atom, score
      L1  H    17    42       P1  7948  1.00
      L1  H    19    43       P1  7921  0.52
      L1  H    21    44       P1 10175  1.00
      P1  H  8011  8017       L1     5  0.37

> <Gold.PLP.Chemscore.Internal.Correction>
0.1419

> <Gold.Rescore>
     Score         DG    S(hbond)    S(metal)    S(lipo)     H(rot)  DE(clash)    DE(int)     intcor
     10.52     -14.32       2.50        0.00      93.83       4.10       1.33       2.47       ----

> <Gold.Chemscore.Fitness>
10.5153

> <Gold.Chemscore.DG>
-14.3235

> <Gold.Chemscore.ZeroCoef>
-5.4800

> <Gold.Chemscore.Hbond>
2.5009

> <Gold.Chemscore.Metal>
0.0000

> <Gold.Chemscore.Lipo>
93.8319

> <Gold.Chemscore.Internal_Hbond>
0.0000

> <Gold.Chemscore.DEClash>
1.3333

> <Gold.Chemscore.DEInternal>
2.4749

> <Gold.Chemscore.Rot>
4.0968

> <Gold.Chemscore.Internal.Correction>
   9.000000E+99

> <Gold.Chemscore.Hbonds>
donor molecule, donor type, donor heavy atom, donor atom, acceptor molecule, acceptor atom, score
      L1  H    17    42       P1  7948  0.78
      L1  H    19    43       P1  7921  0.50
      L1  H    21    44       P1 10175  0.97
      P1  H  8011  8017       L1     5  0.07

> <Gold.Chemscore.Hbond.Weighted>
-8.3531

> <Gold.Chemscore.Metal.Weighted>
-0.0000

> <Gold.Chemscore.Lipo.Weighted>
-10.9783

> <Gold.Chemscore.Internal_Hbond.Weighted>
0.0000

> <Gold.Chemscore.DEClash.Weighted>
1.3333

> <Gold.Chemscore.DEInternal.Weighted>
2.4749

> <Gold.Chemscore.Rot.Weighted>
10.4879

> <Gold.Chemscore.Internal.Correction.Weighted>
   9.000000E+99

> <Gold.Protein.RotatedTorsions>
[ 6907 6896 6895 6894 ] final -158.60 input  -60.11 | X-H torsion
[ 7974 7965 7964 7962 ] final  -80.22 input  175.53 | X-H torsion
[ 8008 7997 7996 7995 ] final  -57.99 input   59.86 | X-H torsion
[ 10167 10162 10161 10158 ] final  -85.45 input  -65.29 | X-H torsion
[ 10718 10713 10712 10709 ] final  -60.09 input   66.30 | X-H torsion
[ 10763 10752 10751 10750 ] final  -21.52 input  -60.55 | X-H torsion
[ 11005 11000 10999 10996 ] final -178.12 input  -57.11 | X-H torsion

> <Gold.Protein.ActiveResidues>
 VAL166  LYS551  ARG553  GLY616  TRP617  ASP618  TYR619  PRO620  LYS621  CYS622 
 ASP623  PHE694  ASN695  SER759  ASP760  ASP761  ALA762  ILE779  LEU786  VAL792 
 PHE793  MET794  SER795  GLU796  ALA797  LYS798  CYS799  TRP800  GLU811  SER814 

> <Gold.Protein.RotatedAtoms>
  151.3207  133.4041  159.2653 H   0  0  0  0  0  0  0  0  0  0  0  0  # atno 6907 bound_to 6896
  151.0037  134.9343  159.7978 H   0  0  0  0  0  0  0  0  0  0  0  0  # atno 6908 bound_to 6896
  152.5282  134.3172  159.9187 H   0  0  0  0  0  0  0  0  0  0  0  0  # atno 6909 bound_to 6896
  145.5628  140.9479  143.1438 H   0  0  0  0  0  0  0  0  0  0  0  0  # atno 7974 bound_to 7965
  154.4290  140.1094  156.5885 H   0  0  0  0  0  0  0  0  0  0  0  0  # atno 8008 bound_to 7997
  155.6037  140.3493  155.4582 H   0  0  0  0  0  0  0  0  0  0  0  0  # atno 8009 bound_to 7997
  156.0153  140.1228  157.0402 H   0  0  0  0  0  0  0  0  0  0  0  0  # atno 8010 bound_to 7997
  140.4037  143.2652  151.9109 H   0  0  0  0  0  0  0  0  0  0  0  0  # atno 10167 bound_to 10162
  156.1015  130.4185  150.0805 H   0  0  0  0  0  0  0  0  0  0  0  0  # atno 10718 bound_to 10713
  153.6375  135.6986  153.5253 H   0  0  0  0  0  0  0  0  0  0  0  0  # atno 10763 bound_to 10752
  153.2809  135.4186  155.1077 H   0  0  0  0  0  0  0  0  0  0  0  0  # atno 10764 bound_to 10752
  154.8507  135.3601  154.5919 H   0  0  0  0  0  0  0  0  0  0  0  0  # atno 10765 bound_to 10752
  140.4334  134.6498  157.4723 H   0  0  0  0  0  0  0  0  0  0  0  0  # atno 11005 bound_to 11000
  144.7474  139.7282  143.7286 LP  0  0  0  0  0  0  0  0  0  0  0  0  # atno 17320 bound_to 7965
  146.1839  139.5044  142.9849 LP  0  0  0  0  0  0  0  0  0  0  0  0  # atno 17321 bound_to 7965
  139.4784  144.5608  151.8242 LP  0  0  0  0  0  0  0  0  0  0  0  0  # atno 17342 bound_to 10162
  140.4713  144.1583  150.5918 LP  0  0  0  0  0  0  0  0  0  0  0  0  # atno 17343 bound_to 10162
  156.8791  130.9550  151.3601 LP  0  0  0  0  0  0  0  0  0  0  0  0  # atno 17370 bound_to 10713
  157.6186  130.8637  149.9070 LP  0  0  0  0  0  0  0  0  0  0  0  0  # atno 17371 bound_to 10713
  140.0119  134.6678  155.9368 LP  0  0  0  0  0  0  0  0  0  0  0  0  # atno 17394 bound_to 11000
  141.1736  133.6539  156.4744 LP  0  0  0  0  0  0  0  0  0  0  0  0  # atno 17395 bound_to 11000

$$$$
