AV-unprocessed.smi:3241|AV-procd|sdf|12388|dock4
  -GOLD-   2272018253D 1   1.00000     0.00000
 Structure written by MMmdl.
 44 45  0  0  0  0  0  0  0  0  2 V2000
  152.8933  140.9850  159.4275 C   0  0  0  0  0  0  0  0  0  0  0  0
  152.1292  142.3079  159.6018 C   0  0  1  0  0  0  0  0  0  0  0  0
  152.8878  143.2520  160.5564 C   0  0  0  0  0  0  0  0  0  0  0  0
  152.1516  144.5874  160.7426 C   0  0  0  0  0  0  0  0  0  0  0  0
  151.9040  145.2731  159.3920 C   0  0  0  0  0  0  0  0  0  0  0  0
  151.1380  144.3460  158.4370 C   0  0  0  0  0  0  0  0  0  0  0  0
  151.8681  143.0000  158.2447 C   0  0  2  0  0  0  0  0  0  0  0  0
  151.0593  142.1323  157.4600 O   0  0  0  0  0  0  0  0  0  0  0  0
  149.9037  141.6450  158.1254 C   0  0  0  0  0  0  0  0  0  0  0  0
  148.9623  141.0349  157.0823 C   0  0  0  0  0  0  0  0  0  0  0  0
  148.1244  142.0763  156.4572 N   0  3  0  0  0  0  0  0  0  0  0  0
  147.5787  141.7039  155.1366 C   0  0  0  0  0  0  0  0  0  0  0  0
  148.6944  141.5092  154.0975 C   0  0  0  0  0  0  0  0  0  0  0  0
  149.4992  140.3317  154.3687 N   0  0  0  0  0  0  0  0  0  0  0  0
  149.1402  139.0047  154.2608 C   0  0  0  0  0  0  0  0  0  0  0  0
  150.2290  138.2598  154.6134 C   0  0  0  0  0  0  0  0  0  0  0  0
  151.2182  139.2331  154.9268 C   0  0  0  0  0  0  0  0  0  0  0  0
  150.7793  140.4726  154.7760 N   0  0  0  0  0  0  0  0  0  0  0  0
  153.8612  141.1461  158.9520 H   0  0  0  0  0  0  0  0  0  0  0  0
  152.3340  140.2799  158.8123 H   0  0  0  0  0  0  0  0  0  0  0  0
  153.0723  140.5055  160.3904 H   0  0  0  0  0  0  0  0  0  0  0  0
  151.1652  142.0767  160.0575 H   0  0  0  0  0  0  0  0  0  0  0  0
  153.0209  142.7726  161.5269 H   0  0  0  0  0  0  0  0  0  0  0  0
  153.8891  143.4430  160.1675 H   0  0  0  0  0  0  0  0  0  0  0  0
  151.1996  144.4140  161.2460 H   0  0  0  0  0  0  0  0  0  0  0  0
  152.7304  145.2444  161.3925 H   0  0  0  0  0  0  0  0  0  0  0  0
  151.3450  146.1972  159.5415 H   0  0  0  0  0  0  0  0  0  0  0  0
  152.8571  145.5564  158.9432 H   0  0  0  0  0  0  0  0  0  0  0  0
  150.1382  144.1660  158.8339 H   0  0  0  0  0  0  0  0  0  0  0  0
  151.0031  144.8497  157.4802 H   0  0  0  0  0  0  0  0  0  0  0  0
  152.8294  143.1703  157.7555 H   0  0  0  0  0  0  0  0  0  0  0  0
  150.1797  140.8849  158.8564 H   0  0  0  0  0  0  0  0  0  0  0  0
  149.4008  142.4502  158.6633 H   0  0  0  0  0  0  0  0  0  0  0  0
  149.5353  140.5105  156.3166 H   0  0  0  0  0  0  0  0  0  0  0  0
  148.3142  140.3000  157.5615 H   0  0  0  0  0  0  0  0  0  0  0  0
  147.3510  142.2834  157.0737 H   0  0  0  0  0  0  0  0  0  0  0  0
  147.0115  140.7779  155.2389 H   0  0  0  0  0  0  0  0  0  0  0  0
  146.8804  142.4712  154.7990 H   0  0  0  0  0  0  0  0  0  0  0  0
  148.2773  141.4342  153.0920 H   0  0  0  0  0  0  0  0  0  0  0  0
  149.3540  142.3776  154.0968 H   0  0  0  0  0  0  0  0  0  0  0  0
  148.1518  138.7041  153.9451 H   0  0  0  0  0  0  0  0  0  0  0  0
  150.3070  137.1831  154.6447 H   0  0  0  0  0  0  0  0  0  0  0  0
  152.2352  139.0772  155.2552 H   0  0  0  0  0  0  0  0  0  0  0  0
  148.6808  142.9128  156.3513 H   0  0  0  0  0  0  0  0  0  0  0  0
  1  2  1  0  0  0  0
  1 19  1  0  0  0  0
  1 20  1  0  0  0  0
  1 21  1  0  0  0  0
  2  7  1  0  0  0  0
  2  3  1  0  0  0  0
  2 22  1  0  0  0  0
  3  4  1  0  0  0  0
  3 23  1  0  0  0  0
  3 24  1  0  0  0  0
  4  5  1  0  0  0  0
  4 25  1  0  0  0  0
  4 26  1  0  0  0  0
  5  6  1  0  0  0  0
  5 27  1  0  0  0  0
  5 28  1  0  0  0  0
  6  7  1  0  0  0  0
  6 29  1  0  0  0  0
  6 30  1  0  0  0  0
  7  8  1  0  0  0  0
  7 31  1  0  0  0  0
  8  9  1  0  0  0  0
  9 10  1  0  0  0  0
  9 32  1  0  0  0  0
  9 33  1  0  0  0  0
 10 11  1  0  0  0  0
 10 34  1  0  0  0  0
 10 35  1  0  0  0  0
 11 12  1  0  0  0  0
 11 36  1  0  0  0  0
 11 44  1  0  0  0  0
 12 13  1  0  0  0  0
 12 37  1  0  0  0  0
 12 38  1  0  0  0  0
 13 14  1  0  0  0  0
 13 39  1  0  0  0  0
 13 40  1  0  0  0  0
 14 18  1  0  0  0  0
 14 15  1  0  0  0  0
 15 16  2  0  0  0  0
 15 41  1  0  0  0  0
 16 17  1  0  0  0  0
 16 42  1  0  0  0  0
 17 18  2  0  0  0  0
 17 43  1  0  0  0  0
M  CHG  1  11   1
M  END
> <s_m_source_file>
AV-unprocessed.smi

> <i_m_source_file_index>
3241

> <i_lp_mmshare_version>
43012

> <i_f3d_flags>
0

> <s_epik_input>
W0NIM11bQ0BASF0xW0NIMl1bQ0gyXVtDSDJdW0NIMl1bQ0BIXTFPW0NIMl1bQ0gyXVtOSF1bQ0gyXVtDSDJdbjJbY0hdW2NIXVtjSF1uMg==

> <s_epik_cmdline>
J2VwaWtfcHl0aG9uJywgJy1waCcsICc3LjAnLCAnLXRuJywgJzgnLCAnLW1hJywgJzIwMCcsICctbWV0YWxfYmluZGluZycsICctaW1hZScsICc8aW5maWxlLm1hZT4nLCAnLW9tYWUnLCAnPG91dGZpbGUubWFlPic=

> <r_lp_tautomer_probability>
1

> <r_epik_Ionization_Penalty>
0.00924946

> <r_epik_Ionization_Penalty_Charging>
0.00924645

> <r_epik_Ionization_Penalty_Neutral>
3.00629e-06

> <r_epik_State_Penalty>
0.0070118

> <r_epik_Charging_Adjusted_Penalty>
0.0162583

> <i_epik_Tot_Q>
1

> <i_epik_Tot_abs_Q>
1

> <r_epik_Metal_State_Penalty>
0.00702523

> <b_epik_Metal_Only>
0

> <s_lp_Force_Field>
OPLS_2005

> <r_lp_Energy>
14.0519

> <b_lp_Chiralities_Consistent>
1

> <s_lp_Variant>
AV-unprocessed.smi:3241-4

> <Gold.Version>
5.8.1

> <Gold.Id.Protein>
6NUR|6NUR_protein|mol2

> <Gold.PLP.Fitness>
51.5343

> <Gold.PLP.PLP>
-43.3183

> <Gold.PLP.part.hbond>
-2.0000

> <Gold.PLP.part.metal>
0.0000

> <Gold.PLP.part.buried>
-3.5564

> <Gold.PLP.part.nonpolar>
-37.4035

> <Gold.PLP.part.repulsive>
0.1482

> <Gold.PLP.ligand.clash>
0.0000

> <Gold.PLP.ligand.torsion>
0.4561

> <Gold.PLP.Chemscore.Hbond>
3.0000

> <Gold.PLP.Chemscore.CHOScore>
0.0000

> <Gold.PLP.Chemscore.Metal>
0.0000

> <Gold.Chemscore.Hbonds>
donor molecule, donor type, donor heavy atom, donor atom, acceptor molecule, acceptor atom, score
      L1  H    11    44       P1  8028  1.95
      P1  H  7989  7998       L1    18  0.95

> <Gold.PLP.Chemscore.Internal.Correction>
0.1282

> <Gold.Rescore>
     Score         DG    S(hbond)    S(metal)    S(lipo)     H(rot)  DE(clash)    DE(int)     intcor
     19.12     -20.76       1.92        0.00     117.11       1.89       0.00       1.64       ----

> <Gold.Chemscore.Fitness>
19.1182

> <Gold.Chemscore.DG>
-20.7592

> <Gold.Chemscore.ZeroCoef>
-5.4800

> <Gold.Chemscore.Hbond>
1.9212

> <Gold.Chemscore.Metal>
0.0000

> <Gold.Chemscore.Lipo>
117.1139

> <Gold.Chemscore.Internal_Hbond>
0.0000

> <Gold.Chemscore.DEClash>
0.0039

> <Gold.Chemscore.DEInternal>
1.6371

> <Gold.Chemscore.Rot>
1.8906

> <Gold.Chemscore.Internal.Correction>
   9.000000E+99

> <Gold.Chemscore.Hbonds>
donor molecule, donor type, donor heavy atom, donor atom, acceptor molecule, acceptor atom, score
      L1  H    11    44       P1  8028  0.90
      P1  H  7989  7998       L1    18  0.12

> <Gold.Chemscore.Hbond.Weighted>
-6.4169

> <Gold.Chemscore.Metal.Weighted>
-0.0000

> <Gold.Chemscore.Lipo.Weighted>
-13.7023

> <Gold.Chemscore.Internal_Hbond.Weighted>
0.0000

> <Gold.Chemscore.DEClash.Weighted>
0.0039

> <Gold.Chemscore.DEInternal.Weighted>
1.6371

> <Gold.Chemscore.Rot.Weighted>
4.8400

> <Gold.Chemscore.Internal.Correction.Weighted>
   9.000000E+99

> <Gold.Protein.RotatedTorsions>
[ 6907 6896 6895 6894 ] final  -55.81 input  -60.11 | X-H torsion
[ 7974 7965 7964 7962 ] final -125.72 input  175.53 | X-H torsion
[ 8008 7997 7996 7995 ] final   33.80 input   59.86 | X-H torsion
[ 10167 10162 10161 10158 ] final   63.85 input  -65.29 | X-H torsion
[ 10718 10713 10712 10709 ] final  139.83 input   66.30 | X-H torsion
[ 10763 10752 10751 10750 ] final   63.18 input  -60.55 | X-H torsion
[ 11005 11000 10999 10996 ] final -156.21 input  -57.11 | X-H torsion

> <Gold.Protein.ActiveResidues>
 VAL166  LYS551  ARG553  GLY616  TRP617  ASP618  TYR619  PRO620  LYS621  CYS622 
 ASP623  PHE694  ASN695  SER759  ASP760  ASP761  ALA762  ILE779  LEU786  VAL792 
 PHE793  MET794  SER795  GLU796  ALA797  LYS798  CYS799  TRP800  GLU811  SER814 

> <Gold.Protein.RotatedAtoms>
  150.8220  134.7432  159.6779 H   0  0  0  0  0  0  0  0  0  0  0  0  # atno 6907 bound_to 6896
  152.4334  134.5729  159.9936 H   0  0  0  0  0  0  0  0  0  0  0  0  # atno 6908 bound_to 6896
  151.5911  133.3329  159.3064 H   0  0  0  0  0  0  0  0  0  0  0  0  # atno 6909 bound_to 6896
  144.9947  140.7764  143.4533 H   0  0  0  0  0  0  0  0  0  0  0  0  # atno 7974 bound_to 7965
  155.1445  140.3269  155.4444 H   0  0  0  0  0  0  0  0  0  0  0  0  # atno 8008 bound_to 7997
  156.2594  140.1988  156.6509 H   0  0  0  0  0  0  0  0  0  0  0  0  # atno 8009 bound_to 7997
  154.6518  140.0557  156.9950 H   0  0  0  0  0  0  0  0  0  0  0  0  # atno 8010 bound_to 7997
  140.1286  144.4664  150.6878 H   0  0  0  0  0  0  0  0  0  0  0  0  # atno 10167 bound_to 10162
  157.4100  131.1027  151.0464 H   0  0  0  0  0  0  0  0  0  0  0  0  # atno 10718 bound_to 10713
  153.0008  135.5438  154.6310 H   0  0  0  0  0  0  0  0  0  0  0  0  # atno 10763 bound_to 10752
  154.5588  135.2832  155.0941 H   0  0  0  0  0  0  0  0  0  0  0  0  # atno 10764 bound_to 10752
  154.2152  135.6460  153.5180 H   0  0  0  0  0  0  0  0  0  0  0  0  # atno 10765 bound_to 10752
  140.6780  134.4175  157.5228 H   0  0  0  0  0  0  0  0  0  0  0  0  # atno 11005 bound_to 11000
  145.2237  139.2147  143.5079 LP  0  0  0  0  0  0  0  0  0  0  0  0  # atno 17320 bound_to 7965
  146.3439  140.2100  142.8590 LP  0  0  0  0  0  0  0  0  0  0  0  0  # atno 17321 bound_to 7965
  140.6830  143.2336  151.5334 LP  0  0  0  0  0  0  0  0  0  0  0  0  # atno 17342 bound_to 10162
  139.5531  144.2344  152.1565 LP  0  0  0  0  0  0  0  0  0  0  0  0  # atno 17343 bound_to 10162
  157.1432  130.6152  149.5561 LP  0  0  0  0  0  0  0  0  0  0  0  0  # atno 17370 bound_to 10713
  155.9848  130.4874  150.6999 LP  0  0  0  0  0  0  0  0  0  0  0  0  # atno 17371 bound_to 10713
  139.8960  134.8669  156.2105 LP  0  0  0  0  0  0  0  0  0  0  0  0  # atno 17394 bound_to 11000
  141.0340  133.6973  156.1479 LP  0  0  0  0  0  0  0  0  0  0  0  0  # atno 17395 bound_to 11000

$$$$
