AV-unprocessed.smi:249|AV-procd|sdf|1928|dock6
  -GOLD-   2262021 43D 1   1.00000     0.00000
 Structure written by MMmdl.
 64 67  0  0  0  0  0  0  0  0  2 V2000
  154.3779  141.5617  160.4479 C   0  0  0  0  0  0  0  0  0  0  0  0
  153.7769  142.7079  159.6196 C   0  0  0  0  0  0  0  0  0  0  0  0
  152.3013  142.8517  159.7945 N   0  3  2  0  0  0  0  0  0  0  0  0
  151.5630  141.5579  159.8394 C   0  0  0  0  0  0  0  0  0  0  0  0
  151.4828  140.8929  158.4523 C   0  0  0  0  0  0  0  0  0  0  0  0
  150.8430  141.8466  157.4240 C   0  0  2  0  0  0  0  0  0  0  0  0
  150.7494  141.2492  156.0872 N   0  0  0  0  0  0  0  0  0  0  0  0
  151.4803  140.0188  155.7850 C   0  0  0  0  0  0  0  0  0  0  0  0
  149.5476  141.4018  155.4741 C   0  0  0  0  0  0  0  0  0  0  0  0
  149.4232  141.1041  154.1534 N   0  0  0  0  0  0  0  0  0  0  0  0
  148.2405  141.2250  153.5443 C   0  0  0  0  0  0  0  0  0  0  0  0
  147.0764  141.6261  154.0575 N   0  0  0  0  0  0  0  0  0  0  0  0
  147.1961  141.9447  155.3780 C   0  0  0  0  0  0  0  0  0  0  0  0
  148.3832  141.8512  156.1586 C   0  0  0  0  0  0  0  0  0  0  0  0
  148.1224  142.2408  157.4665 N   0  0  0  0  0  0  0  0  0  0  0  0
  146.8527  142.5405  157.4610 C   0  0  0  0  0  0  0  0  0  0  0  0
  146.2236  142.4257  156.2409 N   0  0  0  0  0  0  0  0  0  0  0  0
  144.8172  142.6900  155.9687 C   0  0  0  0  0  0  0  0  0  0  0  0
  144.4268  144.1955  155.9027 C   0  0  1  0  0  0  0  0  0  0  0  0
  143.7155  144.4660  154.5546 C   0  0  0  0  0  0  0  0  0  0  0  0
  142.5752  143.6449  154.4061 O   0  0  0  0  0  0  0  0  0  0  0  0
  143.5336  144.6912  157.0833 C   0  0  1  0  0  0  0  0  0  0  0  0
  144.1019  144.5520  158.4891 C   0  0  0  0  0  0  0  0  0  0  0  0
  145.0434  145.7459  158.6056 C   0  0  0  0  0  0  0  0  0  0  0  0
  144.4743  146.7496  157.7725 O   0  0  0  0  0  0  0  0  0  0  0  0
  143.3500  146.2177  157.0784 C   0  0  0  0  0  0  0  0  0  0  0  0
  151.5747  143.2036  157.4187 C   0  0  0  0  0  0  0  0  0  0  0  0
  151.6385  143.7958  158.8425 C   0  0  2  0  0  0  0  0  0  0  0  0
  152.2352  145.2146  158.8648 C   0  0  0  0  0  0  0  0  0  0  0  0
  155.4668  141.5969  160.4118 H   0  0  0  0  0  0  0  0  0  0  0  0
  154.0824  140.5825  160.0721 H   0  0  0  0  0  0  0  0  0  0  0  0
  154.0812  141.6305  161.4948 H   0  0  0  0  0  0  0  0  0  0  0  0
  154.2741  143.6180  159.9495 H   0  0  0  0  0  0  0  0  0  0  0  0
  154.0361  142.5833  158.5684 H   0  0  0  0  0  0  0  0  0  0  0  0
  151.9982  140.8749  160.5667 H   0  0  0  0  0  0  0  0  0  0  0  0
  150.5523  141.7536  160.2003 H   0  0  0  0  0  0  0  0  0  0  0  0
  152.4783  140.5893  158.1291 H   0  0  0  0  0  0  0  0  0  0  0  0
  150.8951  139.9770  158.5241 H   0  0  0  0  0  0  0  0  0  0  0  0
  149.8331  142.0498  157.7801 H   0  0  0  0  0  0  0  0  0  0  0  0
  151.4369  139.7975  154.7177 H   0  0  0  0  0  0  0  0  0  0  0  0
  151.0619  139.1696  156.3258 H   0  0  0  0  0  0  0  0  0  0  0  0
  152.5326  140.1073  156.0503 H   0  0  0  0  0  0  0  0  0  0  0  0
  148.2237  140.9643  152.4963 H   0  0  0  0  0  0  0  0  0  0  0  0
  146.3401  142.8756  158.3513 H   0  0  0  0  0  0  0  0  0  0  0  0
  144.6011  142.1974  155.0206 H   0  0  0  0  0  0  0  0  0  0  0  0
  144.2063  142.1784  156.7134 H   0  0  0  0  0  0  0  0  0  0  0  0
  145.3333  144.7990  155.9054 H   0  0  0  0  0  0  0  0  0  0  0  0
  143.4188  145.5127  154.4793 H   0  0  0  0  0  0  0  0  0  0  0  0
  144.3631  144.2658  153.7031 H   0  0  0  0  0  0  0  0  0  0  0  0
  142.7252  143.0483  153.6887 H   0  0  0  0  0  0  0  0  0  0  0  0
  142.5687  144.1856  157.0262 H   0  0  0  0  0  0  0  0  0  0  0  0
  143.2922  144.6706  159.2108 H   0  0  0  0  0  0  0  0  0  0  0  0
  144.5668  143.5989  158.7173 H   0  0  0  0  0  0  0  0  0  0  0  0
  145.1467  146.0926  159.6339 H   0  0  0  0  0  0  0  0  0  0  0  0
  146.0359  145.4967  158.2290 H   0  0  0  0  0  0  0  0  0  0  0  0
  143.2632  146.6645  156.0896 H   0  0  0  0  0  0  0  0  0  0  0  0
  142.4495  146.4862  157.6331 H   0  0  0  0  0  0  0  0  0  0  0  0
  152.5840  143.1045  157.0203 H   0  0  0  0  0  0  0  0  0  0  0  0
  151.0504  143.8935  156.7560 H   0  0  0  0  0  0  0  0  0  0  0  0
  150.6113  143.9043  159.1952 H   0  0  0  0  0  0  0  0  0  0  0  0
  151.5940  145.9077  158.3193 H   0  0  0  0  0  0  0  0  0  0  0  0
  153.2176  145.2573  158.3944 H   0  0  0  0  0  0  0  0  0  0  0  0
  152.3272  145.5900  159.8845 H   0  0  0  0  0  0  0  0  0  0  0  0
  152.1855  143.2655  160.7087 H   0  0  0  0  0  0  0  0  0  0  0  0
  1  2  1  0  0  0  0
  1 30  1  0  0  0  0
  1 31  1  0  0  0  0
  1 32  1  0  0  0  0
  2  3  1  0  0  0  0
  2 33  1  0  0  0  0
  2 34  1  0  0  0  0
  3 28  1  0  0  0  0
  3  4  1  0  0  0  0
  3 64  1  0  0  0  0
  4  5  1  0  0  0  0
  4 35  1  0  0  0  0
  4 36  1  0  0  0  0
  5  6  1  0  0  0  0
  5 37  1  0  0  0  0
  5 38  1  0  0  0  0
  6  7  1  0  0  0  0
  6 27  1  0  0  0  0
  6 39  1  0  0  0  0
  7  8  1  0  0  0  0
  7  9  1  0  0  0  0
  8 40  1  0  0  0  0
  8 41  1  0  0  0  0
  8 42  1  0  0  0  0
  9 14  1  0  0  0  0
  9 10  2  0  0  0  0
 10 11  1  0  0  0  0
 11 12  2  0  0  0  0
 11 43  1  0  0  0  0
 12 13  1  0  0  0  0
 13 17  1  0  0  0  0
 13 14  2  0  0  0  0
 14 15  1  0  0  0  0
 15 16  2  0  0  0  0
 16 17  1  0  0  0  0
 16 44  1  0  0  0  0
 17 18  1  0  0  0  0
 18 19  1  0  0  0  0
 18 45  1  0  0  0  0
 18 46  1  0  0  0  0
 19 20  1  0  0  0  0
 19 22  1  0  0  0  0
 19 47  1  0  0  0  0
 20 21  1  0  0  0  0
 20 48  1  0  0  0  0
 20 49  1  0  0  0  0
 21 50  1  0  0  0  0
 22 26  1  0  0  0  0
 22 23  1  0  0  0  0
 22 51  1  0  0  0  0
 23 24  1  0  0  0  0
 23 52  1  0  0  0  0
 23 53  1  0  0  0  0
 24 25  1  0  0  0  0
 24 54  1  0  0  0  0
 24 55  1  0  0  0  0
 25 26  1  0  0  0  0
 26 56  1  0  0  0  0
 26 57  1  0  0  0  0
 27 28  1  0  0  0  0
 27 58  1  0  0  0  0
 27 59  1  0  0  0  0
 28 29  1  0  0  0  0
 28 60  1  0  0  0  0
 29 61  1  0  0  0  0
 29 62  1  0  0  0  0
 29 63  1  0  0  0  0
M  CHG  1   3   1
M  END
> <s_m_source_file>
AV-unprocessed.smi

> <i_m_source_file_index>
249

> <i_lp_mmshare_version>
43012

> <i_f3d_flags>
0

> <s_epik_input>
W0NIM11bQ0gyXU4xW0NIMl1bQ0gyXVtDQEhdKFtDSDJdW0NASF0xW0NIM10pTihbQ0gzXSljKG5bY0hdbjIpYyhjMjMpbltjSF1uM1tDSDJdW0NASF0oW0NIMl1bT0hdKVtDQEBIXTRbQ0gyXVtDSDJdT1tDSDJdNA==

> <s_epik_cmdline>
J2VwaWtfcHl0aG9uJywgJy1waCcsICc3LjAnLCAnLXRuJywgJzgnLCAnLW1hJywgJzIwMCcsICctbWV0YWxfYmluZGluZycsICctaW1hZScsICc8aW5maWxlLm1hZT4nLCAnLW9tYWUnLCAnPG91dGZpbGUubWFlPic=

> <r_lp_tautomer_probability>
1

> <r_epik_Ionization_Penalty>
0.00294688

> <r_epik_Ionization_Penalty_Charging>
0.00169971

> <r_epik_Ionization_Penalty_Neutral>
0.00124717

> <r_epik_State_Penalty>
-0

> <r_epik_Charging_Adjusted_Penalty>
0.00169971

> <i_epik_Tot_Q>
1

> <i_epik_Tot_abs_Q>
1

> <r_epik_Metal_State_Penalty>
-0

> <b_epik_Metal_Only>
0

> <s_lp_Force_Field>
OPLS_2005

> <r_lp_Energy>
58.8032

> <b_lp_Chiralities_Consistent>
1

> <s_lp_Variant>
AV-unprocessed.smi:249-31

> <Gold.Version>
5.8.1

> <Gold.Id.Protein>
6NUR|6NUR_protein|mol2

> <Gold.PLP.Fitness>
49.5978

> <Gold.PLP.PLP>
-45.6807

> <Gold.PLP.part.hbond>
-2.9155

> <Gold.PLP.part.metal>
0.0000

> <Gold.PLP.part.buried>
-2.9805

> <Gold.PLP.part.nonpolar>
-40.9331

> <Gold.PLP.part.repulsive>
0.7553

> <Gold.PLP.ligand.clash>
0.0253

> <Gold.PLP.ligand.torsion>
1.7518

> <Gold.PLP.Chemscore.Hbond>
1.1105

> <Gold.PLP.Chemscore.CHOScore>
1.0000

> <Gold.PLP.Chemscore.Metal>
0.0000

> <Gold.Chemscore.Hbonds>
donor molecule, donor type, donor heavy atom, donor atom, acceptor molecule, acceptor atom, score
      L1  H    21    50       P1 10174  1.00
      P1  H  7989  7998       L1    10  0.15
      L1  C    11    43       P1  7957  1.00

> <Gold.PLP.Chemscore.Internal.Correction>
1.1144

> <Gold.Rescore>
     Score         DG    S(hbond)    S(metal)    S(lipo)     H(rot)  DE(clash)    DE(int)     intcor
     11.13     -14.80       1.06        0.00     107.45       2.65       0.59       3.07       ----

> <Gold.Chemscore.Fitness>
11.1307

> <Gold.Chemscore.DG>
-14.7952

> <Gold.Chemscore.ZeroCoef>
-5.4800

> <Gold.Chemscore.Hbond>
1.0574

> <Gold.Chemscore.Metal>
0.0000

> <Gold.Chemscore.Lipo>
107.4491

> <Gold.Chemscore.Internal_Hbond>
0.0000

> <Gold.Chemscore.DEClash>
0.5900

> <Gold.Chemscore.DEInternal>
3.0746

> <Gold.Chemscore.Rot>
2.6515

> <Gold.Chemscore.Internal.Correction>
   9.000000E+99

> <Gold.Chemscore.Hbonds>
donor molecule, donor type, donor heavy atom, donor atom, acceptor molecule, acceptor atom, score
      L1  H    21    50       P1 10174  0.97
      P1  H  7989  7998       L1    10  0.06

> <Gold.Chemscore.Hbond.Weighted>
-3.5317

> <Gold.Chemscore.Metal.Weighted>
-0.0000

> <Gold.Chemscore.Lipo.Weighted>
-12.5715

> <Gold.Chemscore.Internal_Hbond.Weighted>
0.0000

> <Gold.Chemscore.DEClash.Weighted>
0.5900

> <Gold.Chemscore.DEInternal.Weighted>
3.0746

> <Gold.Chemscore.Rot.Weighted>
6.7880

> <Gold.Chemscore.Internal.Correction.Weighted>
   9.000000E+99

> <Gold.Protein.RotatedTorsions>
[ 6907 6896 6895 6894 ] final  144.51 input  -60.11 | X-H torsion
[ 7974 7965 7964 7962 ] final  150.25 input  175.53 | X-H torsion
[ 8008 7997 7996 7995 ] final   93.40 input   59.86 | X-H torsion
[ 10167 10162 10161 10158 ] final  160.38 input  -65.29 | X-H torsion
[ 10718 10713 10712 10709 ] final  173.41 input   66.30 | X-H torsion
[ 10763 10752 10751 10750 ] final  125.83 input  -60.55 | X-H torsion
[ 11005 11000 10999 10996 ] final -159.26 input  -57.11 | X-H torsion

> <Gold.Protein.ActiveResidues>
 VAL166  LYS551  ARG553  GLY616  TRP617  ASP618  TYR619  PRO620  LYS621  CYS622 
 ASP623  PHE694  ASN695  SER759  ASP760  ASP761  ALA762  ILE779  LEU786  VAL792 
 PHE793  MET794  SER795  GLU796  ALA797  LYS798  CYS799  TRP800  GLU811  SER814 

> <Gold.Protein.RotatedAtoms>
  152.1927  133.4784  159.5016 H   0  0  0  0  0  0  0  0  0  0  0  0  # atno 6907 bound_to 6896
  150.6954  134.1691  159.4214 H   0  0  0  0  0  0  0  0  0  0  0  0  # atno 6908 bound_to 6896
  151.9607  135.0125  160.0598 H   0  0  0  0  0  0  0  0  0  0  0  0  # atno 6909 bound_to 6896
  144.8378  139.6384  143.6030 H   0  0  0  0  0  0  0  0  0  0  0  0  # atno 7974 bound_to 7965
  156.0463  140.3313  155.7300 H   0  0  0  0  0  0  0  0  0  0  0  0  # atno 8008 bound_to 7997
  155.5668  140.0624  157.2833 H   0  0  0  0  0  0  0  0  0  0  0  0  # atno 8009 bound_to 7997
  154.4415  140.1868  156.0827 H   0  0  0  0  0  0  0  0  0  0  0  0  # atno 8010 bound_to 7997
  139.4839  144.4640  151.8667 H   0  0  0  0  0  0  0  0  0  0  0  0  # atno 10167 bound_to 10162
  156.9646  131.0071  151.2919 H   0  0  0  0  0  0  0  0  0  0  0  0  # atno 10718 bound_to 10713
  153.6837  135.3310  155.3184 H   0  0  0  0  0  0  0  0  0  0  0  0  # atno 10763 bound_to 10752
  154.8459  135.4415  154.1580 H   0  0  0  0  0  0  0  0  0  0  0  0  # atno 10764 bound_to 10752
  153.2603  135.6990  153.7662 H   0  0  0  0  0  0  0  0  0  0  0  0  # atno 10765 bound_to 10752
  140.6445  134.4516  157.5234 H   0  0  0  0  0  0  0  0  0  0  0  0  # atno 11005 bound_to 11000
  146.2674  139.6553  142.9319 LP  0  0  0  0  0  0  0  0  0  0  0  0  # atno 17320 bound_to 7965
  145.4758  141.0437  143.2673 LP  0  0  0  0  0  0  0  0  0  0  0  0  # atno 17321 bound_to 7965
  140.4104  144.2376  150.5889 LP  0  0  0  0  0  0  0  0  0  0  0  0  # atno 17342 bound_to 10162
  140.4972  143.2329  151.8732 LP  0  0  0  0  0  0  0  0  0  0  0  0  # atno 17343 bound_to 10162
  157.5634  130.8261  149.8295 LP  0  0  0  0  0  0  0  0  0  0  0  0  # atno 17370 bound_to 10713
  156.0308  130.3765  150.1694 LP  0  0  0  0  0  0  0  0  0  0  0  0  # atno 17371 bound_to 10713
  139.9068  134.8432  156.1677 LP  0  0  0  0  0  0  0  0  0  0  0  0  # atno 17394 bound_to 11000
  141.0582  133.6855  156.1901 LP  0  0  0  0  0  0  0  0  0  0  0  0  # atno 17395 bound_to 11000

$$$$
