AV-unprocessed.smi:311|AV-procd|sdf|2304|dock6
  -GOLD-   2262022203D 1   1.00000     0.00000
 Structure written by MMmdl.
 44 46  0  0  0  0  0  0  0  0  2 V2000
  151.1581  131.5073  156.2817 C   0  0  0  0  0  0  0  0  0  0  0  0
  150.4572  132.8259  156.4431 C   0  0  0  0  0  0  0  0  0  0  0  0
  150.3910  133.3884  157.6377 N   0  0  0  0  0  0  0  0  0  0  0  0
  149.6981  134.5893  157.4580 O   0  0  0  0  0  0  0  0  0  0  0  0
  149.3751  134.7070  156.1452 C   0  0  0  0  0  0  0  0  0  0  0  0
  148.6346  135.9395  155.7494 C   0  0  0  0  0  0  0  0  0  0  0  0
  149.8273  133.6229  155.4439 C   0  0  0  0  0  0  0  0  0  0  0  0
  149.7100  133.3349  153.9684 C   0  0  0  0  0  0  0  0  0  0  0  0
  148.2348  133.1820  153.6016 C   0  0  0  0  0  0  0  0  0  0  0  0
  147.6132  132.1788  153.9504 O   0  0  0  0  0  0  0  0  0  0  0  0
  147.6980  134.1704  152.8696 N   0  0  0  0  0  0  0  0  0  0  0  0
  146.3511  134.1670  152.3090 C   0  0  1  0  0  0  0  0  0  0  0  0
  145.6576  135.5331  152.4003 C   0  0  0  0  0  0  0  0  0  0  0  0
  144.8552  135.6720  151.0907 C   0  0  0  0  0  0  0  0  0  0  0  0
  145.0493  134.4132  150.3340 N   0  3  2  0  0  0  0  0  0  0  0  0
  143.9064  133.4741  150.5071 C   0  0  0  0  0  0  0  0  0  0  0  0
  144.2043  132.0845  149.9286 C   0  0  0  0  0  0  0  0  0  0  0  0
  145.4587  131.4970  150.5804 C   0  0  0  0  0  0  0  0  0  0  0  0
  146.6412  132.4414  150.3449 C   0  0  0  0  0  0  0  0  0  0  0  0
  146.3566  133.8913  150.7997 C   0  0  2  0  0  0  0  0  0  0  0  0
  150.6331  130.8684  155.5715 H   0  0  0  0  0  0  0  0  0  0  0  0
  151.2217  130.9662  157.2265 H   0  0  0  0  0  0  0  0  0  0  0  0
  152.1729  131.6505  155.9102 H   0  0  0  0  0  0  0  0  0  0  0  0
  148.8403  136.2029  154.7117 H   0  0  0  0  0  0  0  0  0  0  0  0
  148.9242  136.7854  156.3736 H   0  0  0  0  0  0  0  0  0  0  0  0
  147.5597  135.7932  155.8557 H   0  0  0  0  0  0  0  0  0  0  0  0
  150.1472  134.1375  153.3732 H   0  0  0  0  0  0  0  0  0  0  0  0
  150.2430  132.4254  153.6895 H   0  0  0  0  0  0  0  0  0  0  0  0
  148.2885  134.9559  152.6366 H   0  0  0  0  0  0  0  0  0  0  0  0
  145.7256  133.4323  152.8192 H   0  0  0  0  0  0  0  0  0  0  0  0
  145.0132  135.5877  153.2784 H   0  0  0  0  0  0  0  0  0  0  0  0
  146.3829  136.3447  152.4758 H   0  0  0  0  0  0  0  0  0  0  0  0
  143.8019  135.8927  151.2706 H   0  0  0  0  0  0  0  0  0  0  0  0
  145.2595  136.4943  150.4991 H   0  0  0  0  0  0  0  0  0  0  0  0
  143.6606  133.3780  151.5660 H   0  0  0  0  0  0  0  0  0  0  0  0
  143.0259  133.8955  150.0209 H   0  0  0  0  0  0  0  0  0  0  0  0
  143.3540  131.4224  150.0950 H   0  0  0  0  0  0  0  0  0  0  0  0
  144.3402  132.1512  148.8483 H   0  0  0  0  0  0  0  0  0  0  0  0
  145.2970  131.3530  151.6494 H   0  0  0  0  0  0  0  0  0  0  0  0
  145.6756  130.5135  150.1623 H   0  0  0  0  0  0  0  0  0  0  0  0
  147.5364  132.0545  150.8315 H   0  0  0  0  0  0  0  0  0  0  0  0
  146.8674  132.4506  149.2779 H   0  0  0  0  0  0  0  0  0  0  0  0
  147.1225  134.5271  150.3503 H   0  0  0  0  0  0  0  0  0  0  0  0
  145.1177  134.6221  149.3481 H   0  0  0  0  0  0  0  0  0  0  0  0
  1  2  1  0  0  0  0
  1 21  1  0  0  0  0
  1 22  1  0  0  0  0
  1 23  1  0  0  0  0
  2  7  1  0  0  0  0
  2  3  2  0  0  0  0
  3  4  1  0  0  0  0
  4  5  1  0  0  0  0
  5  6  1  0  0  0  0
  5  7  2  0  0  0  0
  6 24  1  0  0  0  0
  6 25  1  0  0  0  0
  6 26  1  0  0  0  0
  7  8  1  0  0  0  0
  8  9  1  0  0  0  0
  8 27  1  0  0  0  0
  8 28  1  0  0  0  0
  9 10  2  0  0  0  0
  9 11  1  0  0  0  0
 11 12  1  0  0  0  0
 11 29  1  0  0  0  0
 12 20  1  0  0  0  0
 12 13  1  0  0  0  0
 12 30  1  0  0  0  0
 13 14  1  0  0  0  0
 13 31  1  0  0  0  0
 13 32  1  0  0  0  0
 14 15  1  0  0  0  0
 14 33  1  0  0  0  0
 14 34  1  0  0  0  0
 15 20  1  0  0  0  0
 15 16  1  0  0  0  0
 15 44  1  0  0  0  0
 16 17  1  0  0  0  0
 16 35  1  0  0  0  0
 16 36  1  0  0  0  0
 17 18  1  0  0  0  0
 17 37  1  0  0  0  0
 17 38  1  0  0  0  0
 18 19  1  0  0  0  0
 18 39  1  0  0  0  0
 18 40  1  0  0  0  0
 19 20  1  0  0  0  0
 19 41  1  0  0  0  0
 19 42  1  0  0  0  0
 20 43  1  0  0  0  0
M  CHG  1  15   1
M  END
> <s_m_source_file>
AV-unprocessed.smi

> <i_m_source_file_index>
311

> <i_lp_mmshare_version>
43012

> <i_f3d_flags>
0

> <s_epik_input>
W0NIM11jMW5vYyhbQ0gzXSljMVtDSDJdQyg9TylbTkhdW0NASF0oW0NIMl1bQ0gyXTIpW0NAQEhdKE4yMylbQ0gyXVtDSDJdW0NIMl1bQ0gyXTM=

> <s_epik_cmdline>
J2VwaWtfcHl0aG9uJywgJy1waCcsICc3LjAnLCAnLXRuJywgJzgnLCAnLW1hJywgJzIwMCcsICctbWV0YWxfYmluZGluZycsICctaW1hZScsICc8aW5maWxlLm1hZT4nLCAnLW9tYWUnLCAnPG91dGZpbGUubWFlPic=

> <r_epik_Ionization_Penalty>
0.00173669

> <r_epik_Ionization_Penalty_Charging>
0.0017366

> <r_epik_Ionization_Penalty_Neutral>
9.2145e-08

> <r_epik_State_Penalty>
0.00117499

> <r_epik_Charging_Adjusted_Penalty>
0.00291159

> <i_epik_Tot_Q>
1

> <i_epik_Tot_abs_Q>
1

> <r_epik_Metal_State_Penalty>
-0

> <b_epik_Metal_Only>
0

> <s_lp_Force_Field>
OPLS_2005

> <r_lp_Energy>
30.3664

> <b_lp_Chiralities_Consistent>
1

> <s_lp_Variant>
AV-unprocessed.smi:311-8

> <Gold.Version>
5.8.1

> <Gold.Id.Protein>
6NUR|6NUR_protein|mol2

> <Gold.PLP.Fitness>
41.5580

> <Gold.PLP.PLP>
-33.2983

> <Gold.PLP.part.hbond>
-3.8425

> <Gold.PLP.part.metal>
0.0000

> <Gold.PLP.part.buried>
-1.6445

> <Gold.PLP.part.nonpolar>
-27.6230

> <Gold.PLP.part.repulsive>
0.1075

> <Gold.PLP.ligand.clash>
0.0000

> <Gold.PLP.ligand.torsion>
0.3767

> <Gold.PLP.Chemscore.Hbond>
3.0000

> <Gold.PLP.Chemscore.CHOScore>
0.0000

> <Gold.PLP.Chemscore.Metal>
0.0000

> <Gold.Chemscore.Hbonds>
donor molecule, donor type, donor heavy atom, donor atom, acceptor molecule, acceptor atom, score
      L1  H    11    29       P1  7948  1.00
      L1  H    15    44       P1  7921  1.00
      P1  H  6896  6909       L1     3  1.00

> <Gold.PLP.Chemscore.Internal.Correction>
0.0131

> <Gold.Rescore>
     Score         DG    S(hbond)    S(metal)    S(lipo)     H(rot)  DE(clash)    DE(int)     intcor
     19.59     -21.37       2.75        0.00      86.91       1.36       1.38       0.41       ----

> <Gold.Chemscore.Fitness>
19.5856

> <Gold.Chemscore.DG>
-21.3703

> <Gold.Chemscore.ZeroCoef>
-5.4800

> <Gold.Chemscore.Hbond>
2.7528

> <Gold.Chemscore.Metal>
0.0000

> <Gold.Chemscore.Lipo>
86.9148

> <Gold.Chemscore.Internal_Hbond>
0.0000

> <Gold.Chemscore.DEClash>
1.3754

> <Gold.Chemscore.DEInternal>
0.4093

> <Gold.Chemscore.Rot>
1.3567

> <Gold.Chemscore.Internal.Correction>
   9.000000E+99

> <Gold.Chemscore.Hbonds>
donor molecule, donor type, donor heavy atom, donor atom, acceptor molecule, acceptor atom, score
      L1  H    11    29       P1  7948  0.64
      L1  H    15    44       P1  7921  0.93
      P1  H  6896  6909       L1     3  0.33

> <Gold.Chemscore.Hbond.Weighted>
-9.1944

> <Gold.Chemscore.Metal.Weighted>
-0.0000

> <Gold.Chemscore.Lipo.Weighted>
-10.1690

> <Gold.Chemscore.Internal_Hbond.Weighted>
0.0000

> <Gold.Chemscore.DEClash.Weighted>
1.3754

> <Gold.Chemscore.DEInternal.Weighted>
0.4093

> <Gold.Chemscore.Rot.Weighted>
3.4731

> <Gold.Chemscore.Internal.Correction.Weighted>
   9.000000E+99

> <Gold.Protein.RotatedTorsions>
[ 6907 6896 6895 6894 ] final  -18.49 input  -60.11 | X-H torsion
[ 7974 7965 7964 7962 ] final  103.78 input  175.53 | X-H torsion
[ 8008 7997 7996 7995 ] final -110.21 input   59.86 | X-H torsion
[ 10167 10162 10161 10158 ] final   59.12 input  -65.29 | X-H torsion
[ 10718 10713 10712 10709 ] final    1.48 input   66.30 | X-H torsion
[ 10763 10752 10751 10750 ] final   60.88 input  -60.55 | X-H torsion
[ 11005 11000 10999 10996 ] final   -0.37 input  -57.11 | X-H torsion

> <Gold.Protein.ActiveResidues>
 VAL166  LYS551  ARG553  GLY616  TRP617  ASP618  TYR619  PRO620  LYS621  CYS622 
 ASP623  PHE694  ASN695  SER759  ASP760  ASP761  ALA762  ILE779  LEU786  VAL792 
 PHE793  MET794  SER795  GLU796  ALA797  LYS798  CYS799  TRP800  GLU811  SER814 

> <Gold.Protein.RotatedAtoms>
  151.2774  135.0703  159.9156 H   0  0  0  0  0  0  0  0  0  0  0  0  # atno 6907 bound_to 6896
  152.5340  134.0067  159.7930 H   0  0  0  0  0  0  0  0  0  0  0  0  # atno 6908 bound_to 6896
  151.0315  133.5736  159.2691 H   0  0  0  0  0  0  0  0  0  0  0  0  # atno 6909 bound_to 6896
  145.3414  139.2461  143.3607 H   0  0  0  0  0  0  0  0  0  0  0  0  # atno 7974 bound_to 7965
  154.9710  140.0397  157.2234 H   0  0  0  0  0  0  0  0  0  0  0  0  # atno 8008 bound_to 7997
  154.7801  140.2817  155.6048 H   0  0  0  0  0  0  0  0  0  0  0  0  # atno 8009 bound_to 7997
  156.2935  140.2593  156.2625 H   0  0  0  0  0  0  0  0  0  0  0  0  # atno 8010 bound_to 7997
  140.1798  144.4193  150.6620 H   0  0  0  0  0  0  0  0  0  0  0  0  # atno 10167 bound_to 10162
  156.8488  130.5546  149.5671 H   0  0  0  0  0  0  0  0  0  0  0  0  # atno 10718 bound_to 10713
  152.9934  135.5520  154.5945 H   0  0  0  0  0  0  0  0  0  0  0  0  # atno 10763 bound_to 10752
  154.5300  135.2813  155.1191 H   0  0  0  0  0  0  0  0  0  0  0  0  # atno 10764 bound_to 10752
  154.2510  135.6399  153.5293 H   0  0  0  0  0  0  0  0  0  0  0  0  # atno 10765 bound_to 10752
  140.6356  133.9536  155.8298 H   0  0  0  0  0  0  0  0  0  0  0  0  # atno 11005 bound_to 11000
  146.3006  140.4012  142.8705 LP  0  0  0  0  0  0  0  0  0  0  0  0  # atno 17320 bound_to 7965
  144.8787  140.7371  143.6000 LP  0  0  0  0  0  0  0  0  0  0  0  0  # atno 17321 bound_to 7965
  140.6527  143.2229  151.6040 LP  0  0  0  0  0  0  0  0  0  0  0  0  # atno 17342 bound_to 10162
  139.5301  144.2942  152.1127 LP  0  0  0  0  0  0  0  0  0  0  0  0  # atno 17343 bound_to 10162
  156.0839  130.5843  150.9613 LP  0  0  0  0  0  0  0  0  0  0  0  0  # atno 17370 bound_to 10713
  157.6315  131.0920  150.8432 LP  0  0  0  0  0  0  0  0  0  0  0  0  # atno 17371 bound_to 10713
  141.0644  134.0298  157.3614 LP  0  0  0  0  0  0  0  0  0  0  0  0  # atno 17394 bound_to 11000
  139.9099  135.0188  156.7649 LP  0  0  0  0  0  0  0  0  0  0  0  0  # atno 17395 bound_to 11000

$$$$
