AV-unprocessed.smi:3246|AV-procd|sdf|12410|dock9
  -GOLD-   2272018293D 1   1.00000     0.00000
 Structure written by MMmdl.
 35 36  0  0  0  0  0  0  0  0  1 V2000
  152.3658  140.0029  155.3062 O   0  0  0  0  0  0  0  0  0  0  0  0
  151.2239  139.6548  155.6046 C   0  0  0  0  0  0  0  0  0  0  0  0
  150.4568  138.7250  154.6498 C   0  0  0  0  0  0  0  0  0  0  0  0
  149.0957  139.1585  154.3228 N   0  0  0  0  0  0  0  0  0  0  0  0
  147.9943  138.2096  154.3291 C   0  0  0  0  0  0  0  0  0  0  0  0
  146.7299  139.0664  154.1732 C   0  0  0  0  0  0  0  0  0  0  0  0
  147.2161  140.4480  153.7222 C   0  0  0  0  0  0  0  0  0  0  0  0
  148.7120  140.3952  153.9815 C   0  0  0  0  0  0  0  0  0  0  0  0
  149.4416  141.3809  153.8895 O   0  0  0  0  0  0  0  0  0  0  0  0
  150.6175  140.0508  156.7368 N   0  0  0  0  0  0  0  0  0  0  0  0
  151.2045  140.9262  157.7433 C   0  0  0  0  0  0  0  0  0  0  0  0
  151.3472  142.3661  157.2254 C   0  0  0  0  0  0  0  0  0  0  0  0
  151.6290  143.3480  158.3452 C   0  0  0  0  0  0  0  0  0  0  0  0
  152.1407  142.9094  159.5839 C   0  0  0  0  0  0  0  0  0  0  0  0
  152.3800  143.8612  160.5937 C   0  0  0  0  0  0  0  0  0  0  0  0
  152.0964  145.2145  160.3209 C   0  0  0  0  0  0  0  0  0  0  0  0
  151.6056  145.6456  159.1387 N   0  0  0  0  0  0  0  0  0  0  0  0
  151.3791  144.7264  158.1756 C   0  0  0  0  0  0  0  0  0  0  0  0
  151.0349  138.6164  153.7306 H   0  0  0  0  0  0  0  0  0  0  0  0
  150.4154  137.7325  155.0998 H   0  0  0  0  0  0  0  0  0  0  0  0
  148.1069  137.5222  153.4896 H   0  0  0  0  0  0  0  0  0  0  0  0
  147.9770  137.6258  155.2503 H   0  0  0  0  0  0  0  0  0  0  0  0
  146.0296  138.6270  153.4621 H   0  0  0  0  0  0  0  0  0  0  0  0
  146.2146  139.1506  155.1310 H   0  0  0  0  0  0  0  0  0  0  0  0
  147.0385  140.6060  152.6581 H   0  0  0  0  0  0  0  0  0  0  0  0
  146.7420  141.2551  154.2812 H   0  0  0  0  0  0  0  0  0  0  0  0
  149.6771  139.7255  156.9082 H   0  0  0  0  0  0  0  0  0  0  0  0
  150.6048  140.9028  158.6548 H   0  0  0  0  0  0  0  0  0  0  0  0
  152.1846  140.5270  158.0062 H   0  0  0  0  0  0  0  0  0  0  0  0
  152.1505  142.4218  156.4893 H   0  0  0  0  0  0  0  0  0  0  0  0
  150.4366  142.6760  156.7106 H   0  0  0  0  0  0  0  0  0  0  0  0
  152.3451  141.8635  159.7595 H   0  0  0  0  0  0  0  0  0  0  0  0
  152.7714  143.5619  161.5547 H   0  0  0  0  0  0  0  0  0  0  0  0
  152.2685  145.9707  161.0725 H   0  0  0  0  0  0  0  0  0  0  0  0
  150.9839  145.1020  157.2429 H   0  0  0  0  0  0  0  0  0  0  0  0
  1  2  2  0  0  0  0
  2  3  1  0  0  0  0
  2 10  1  0  0  0  0
  3  4  1  0  0  0  0
  3 19  1  0  0  0  0
  3 20  1  0  0  0  0
  4  8  1  0  0  0  0
  4  5  1  0  0  0  0
  5  6  1  0  0  0  0
  5 21  1  0  0  0  0
  5 22  1  0  0  0  0
  6  7  1  0  0  0  0
  6 23  1  0  0  0  0
  6 24  1  0  0  0  0
  7  8  1  0  0  0  0
  7 25  1  0  0  0  0
  7 26  1  0  0  0  0
  8  9  2  0  0  0  0
 10 11  1  0  0  0  0
 10 27  1  0  0  0  0
 11 12  1  0  0  0  0
 11 28  1  0  0  0  0
 11 29  1  0  0  0  0
 12 13  1  0  0  0  0
 12 30  1  0  0  0  0
 12 31  1  0  0  0  0
 13 18  1  0  0  0  0
 13 14  2  0  0  0  0
 14 15  1  0  0  0  0
 14 32  1  0  0  0  0
 15 16  2  0  0  0  0
 15 33  1  0  0  0  0
 16 17  1  0  0  0  0
 16 34  1  0  0  0  0
 17 18  2  0  0  0  0
 18 35  1  0  0  0  0
M  END
> <s_m_source_file>
AV-unprocessed.smi

> <i_m_source_file_index>
3246

> <i_lp_mmshare_version>
43012

> <i_f3d_flags>
0

> <s_epik_input>
Tz1DMVtDSDJdW0NIMl1bQ0gyXU4xW0NIMl1DKD1PKVtOSF1bQ0gyXVtDSDJdYzJbY0hdW2NIXVtjSF1uW2NIXTI=

> <s_epik_cmdline>
J2VwaWtfcHl0aG9uJywgJy1waCcsICc3LjAnLCAnLXRuJywgJzgnLCAnLW1hJywgJzIwMCcsICctbWV0YWxfYmluZGluZycsICctaW1hZScsICc8aW5maWxlLm1hZT4nLCAnLW9tYWUnLCAnPG91dGZpbGUubWFlPic=

> <r_epik_Ionization_Penalty>
0.0129263

> <r_epik_Ionization_Penalty_Charging>
0

> <r_epik_Ionization_Penalty_Neutral>
0.0129263

> <r_epik_State_Penalty>
0.0100328

> <r_epik_Charging_Adjusted_Penalty>
0.0100328

> <i_epik_Tot_Q>
0

> <i_epik_Tot_abs_Q>
0

> <r_epik_Metal_State_Penalty>
0.00981748

> <b_epik_Metal_Only>
0

> <s_lp_Force_Field>
OPLS_2005

> <r_lp_Energy>
11.4517

> <b_lp_Chiralities_Consistent>
1

> <s_lp_Variant>
AV-unprocessed.smi:3246-1

> <Gold.Version>
5.8.1

> <Gold.Id.Protein>
6NUR|6NUR_protein|mol2

> <Gold.PLP.Fitness>
45.3102

> <Gold.PLP.PLP>
-38.1748

> <Gold.PLP.part.hbond>
-4.5235

> <Gold.PLP.part.metal>
0.0000

> <Gold.PLP.part.buried>
-4.4428

> <Gold.PLP.part.nonpolar>
-30.6821

> <Gold.PLP.part.repulsive>
0.6104

> <Gold.PLP.ligand.clash>
0.0000

> <Gold.PLP.ligand.torsion>
0.6703

> <Gold.PLP.Chemscore.Hbond>
1.8170

> <Gold.PLP.Chemscore.CHOScore>
1.0000

> <Gold.PLP.Chemscore.Metal>
0.0000

> <Gold.Chemscore.Hbonds>
donor molecule, donor type, donor heavy atom, donor atom, acceptor molecule, acceptor atom, score
      P1  H  7989  7998       L1     1  0.29
      P1  H  7997  8009       L1     1  0.70
      P1  H  8011  8017       L1     9  0.77
      L1  C    18    35       P1  8028  0.81

> <Gold.PLP.Chemscore.Internal.Correction>
0.0250

> <Gold.Rescore>
     Score         DG    S(hbond)    S(metal)    S(lipo)     H(rot)  DE(clash)    DE(int)     intcor
     15.73     -17.82       1.93        0.00      90.74       1.85       0.87       1.22       ----

> <Gold.Chemscore.Fitness>
15.7266

> <Gold.Chemscore.DG>
-17.8165

> <Gold.Chemscore.ZeroCoef>
-5.4800

> <Gold.Chemscore.Hbond>
1.9326

> <Gold.Chemscore.Metal>
0.0000

> <Gold.Chemscore.Lipo>
90.7357

> <Gold.Chemscore.Internal_Hbond>
0.0000

> <Gold.Chemscore.DEClash>
0.8706

> <Gold.Chemscore.DEInternal>
1.2193

> <Gold.Chemscore.Rot>
1.8494

> <Gold.Chemscore.Internal.Correction>
   9.000000E+99

> <Gold.Chemscore.Hbonds>
donor molecule, donor type, donor heavy atom, donor atom, acceptor molecule, acceptor atom, score
      P1  H  7989  7998       L1     9  0.10
      P1  H  7997  8009       L1     1  0.69
      P1  H  8011  8017       L1     9  0.76

> <Gold.Chemscore.Hbond.Weighted>
-6.4548

> <Gold.Chemscore.Metal.Weighted>
-0.0000

> <Gold.Chemscore.Lipo.Weighted>
-10.6161

> <Gold.Chemscore.Internal_Hbond.Weighted>
0.0000

> <Gold.Chemscore.DEClash.Weighted>
0.8706

> <Gold.Chemscore.DEInternal.Weighted>
1.2193

> <Gold.Chemscore.Rot.Weighted>
4.7344

> <Gold.Chemscore.Internal.Correction.Weighted>
   9.000000E+99

> <Gold.Protein.RotatedTorsions>
[ 6907 6896 6895 6894 ] final   44.01 input  -60.11 | X-H torsion
[ 7974 7965 7964 7962 ] final -126.32 input  175.53 | X-H torsion
[ 8008 7997 7996 7995 ] final -146.23 input   59.86 | X-H torsion
[ 10167 10162 10161 10158 ] final   83.91 input  -65.29 | X-H torsion
[ 10718 10713 10712 10709 ] final  122.41 input   66.30 | X-H torsion
[ 10763 10752 10751 10750 ] final   23.27 input  -60.55 | X-H torsion
[ 11005 11000 10999 10996 ] final  -26.61 input  -57.11 | X-H torsion

> <Gold.Protein.ActiveResidues>
 VAL166  LYS551  ARG553  GLY616  TRP617  ASP618  TYR619  PRO620  LYS621  CYS622 
 ASP623  PHE694  ASN695  SER759  ASP760  ASP761  ALA762  ILE779  LEU786  VAL792 
 PHE793  MET794  SER795  GLU796  ALA797  LYS798  CYS799  TRP800  GLU811  SER814 

> <Gold.Protein.RotatedAtoms>
  152.2273  134.8355  160.0477 H   0  0  0  0  0  0  0  0  0  0  0  0  # atno 6907 bound_to 6896
  151.9117  133.3558  159.3874 H   0  0  0  0  0  0  0  0  0  0  0  0  # atno 6908 bound_to 6896
  150.7016  134.4650  159.5443 H   0  0  0  0  0  0  0  0  0  0  0  0  # atno 6909 bound_to 6896
  144.9885  140.7709  143.4569 H   0  0  0  0  0  0  0  0  0  0  0  0  # atno 7974 bound_to 7965
  155.5560  140.0621  157.2839 H   0  0  0  0  0  0  0  0  0  0  0  0  # atno 8008 bound_to 7997
  154.4405  140.1894  156.0779 H   0  0  0  0  0  0  0  0  0  0  0  0  # atno 8009 bound_to 7997
  156.0481  140.3287  155.7324 H   0  0  0  0  0  0  0  0  0  0  0  0  # atno 8010 bound_to 7997
  139.9135  144.6257  150.8512 H   0  0  0  0  0  0  0  0  0  0  0  0  # atno 10167 bound_to 10162
  157.5744  131.1080  150.8306 H   0  0  0  0  0  0  0  0  0  0  0  0  # atno 10718 bound_to 10713
  153.0851  135.6630  153.9965 H   0  0  0  0  0  0  0  0  0  0  0  0  # atno 10763 bound_to 10752
  153.9577  135.2977  155.3436 H   0  0  0  0  0  0  0  0  0  0  0  0  # atno 10764 bound_to 10752
  154.7258  135.5145  153.8956 H   0  0  0  0  0  0  0  0  0  0  0  0  # atno 10765 bound_to 10752
  140.9045  133.7502  156.0588 H   0  0  0  0  0  0  0  0  0  0  0  0  # atno 11005 bound_to 11000
  145.2320  139.2111  143.5038 LP  0  0  0  0  0  0  0  0  0  0  0  0  # atno 17320 bound_to 7965
  146.3425  140.2198  142.8591 LP  0  0  0  0  0  0  0  0  0  0  0  0  # atno 17321 bound_to 7965
  140.7679  143.3348  151.2332 LP  0  0  0  0  0  0  0  0  0  0  0  0  # atno 17342 bound_to 10162
  139.6922  143.9673  152.2865 LP  0  0  0  0  0  0  0  0  0  0  0  0  # atno 17343 bound_to 10162
  156.8769  130.5165  149.5293 LP  0  0  0  0  0  0  0  0  0  0  0  0  # atno 17370 bound_to 10713
  156.0789  130.5804  150.9526 LP  0  0  0  0  0  0  0  0  0  0  0  0  # atno 17371 bound_to 10713
  140.8188  134.3313  157.5388 LP  0  0  0  0  0  0  0  0  0  0  0  0  # atno 17394 bound_to 11000
  139.8747  134.9297  156.3484 LP  0  0  0  0  0  0  0  0  0  0  0  0  # atno 17395 bound_to 11000

$$$$
