AV-unprocessed.smi:1503|AV-procd|sdf|6069|dock6
  -GOLD-   22720 6183D 1   1.00000     0.00000
 Structure written by MMmdl.
 44 45  0  0  0  0  0  0  0  0  1 V2000
  152.6605  144.6857  159.1104 C   0  0  0  0  0  0  0  0  0  0  0  0
  152.7508  143.3659  158.8883 C   0  0  0  0  0  0  0  0  0  0  0  0
  152.3610  142.2991  159.8919 C   0  0  0  0  0  0  0  0  0  0  0  0
  151.8115  141.1214  159.2322 N   0  0  0  0  0  0  0  0  0  0  0  0
  152.5217  140.0465  158.8571 C   0  0  0  0  0  0  0  0  0  0  0  0
  153.7347  139.9419  159.0435 O   0  0  0  0  0  0  0  0  0  0  0  0
  151.7280  138.9286  158.1733 C   0  0  0  0  0  0  0  0  0  0  0  0
  152.3104  138.4971  156.8133 C   0  0  0  0  0  0  0  0  0  0  0  0
  151.6076  137.2641  156.2527 C   0  0  0  0  0  0  0  0  0  0  0  0
  150.8910  137.2790  155.1035 C   0  0  0  0  0  0  0  0  0  0  0  0
  150.7126  138.5008  154.2195 C   0  0  0  0  0  0  0  0  0  0  0  0
  150.2629  136.1380  154.6397 N   0  0  0  0  0  0  0  0  0  0  0  0
  150.3537  134.9643  155.3781 C   0  0  0  0  0  0  0  0  0  0  0  0
  149.6759  133.8794  154.8233 N   0  0  0  0  0  0  0  0  0  0  0  0
  148.3747  134.0830  154.1860 C   0  0  0  0  0  0  0  0  0  0  0  0
  148.0361  132.9274  153.2293 C   0  0  0  0  0  0  0  0  0  0  0  0
  148.0902  131.6931  153.9320 O   0  0  0  0  0  0  0  0  0  0  0  0
  149.3904  131.4468  154.4510 C   0  0  0  0  0  0  0  0  0  0  0  0
  149.7706  132.5581  155.4436 C   0  0  0  0  0  0  0  0  0  0  0  0
  151.0264  134.8764  156.4895 N   0  0  0  0  0  0  0  0  0  0  0  0
  151.6965  135.9957  157.0052 C   0  0  0  0  0  0  0  0  0  0  0  0
  152.3400  135.9110  158.0502 O   0  0  0  0  0  0  0  0  0  0  0  0
  149.7493  136.2002  153.7727 H   0  0  0  0  0  0  0  0  0  0  0  0
  152.2954  145.0727  160.0504 H   0  0  0  0  0  0  0  0  0  0  0  0
  152.9523  145.3972  158.3522 H   0  0  0  0  0  0  0  0  0  0  0  0
  153.1190  143.0158  157.9348 H   0  0  0  0  0  0  0  0  0  0  0  0
  153.2137  142.0276  160.5172 H   0  0  0  0  0  0  0  0  0  0  0  0
  151.5991  142.7085  160.5553 H   0  0  0  0  0  0  0  0  0  0  0  0
  150.8198  141.1252  159.0423 H   0  0  0  0  0  0  0  0  0  0  0  0
  151.6927  138.0723  158.8477 H   0  0  0  0  0  0  0  0  0  0  0  0
  150.6990  139.2660  158.0417 H   0  0  0  0  0  0  0  0  0  0  0  0
  152.2411  139.3147  156.0937 H   0  0  0  0  0  0  0  0  0  0  0  0
  153.3767  138.2959  156.9149 H   0  0  0  0  0  0  0  0  0  0  0  0
  151.6824  138.9078  153.9319 H   0  0  0  0  0  0  0  0  0  0  0  0
  150.1564  139.2746  154.7487 H   0  0  0  0  0  0  0  0  0  0  0  0
  150.1663  138.2607  153.3066 H   0  0  0  0  0  0  0  0  0  0  0  0
  148.3476  135.0225  153.6333 H   0  0  0  0  0  0  0  0  0  0  0  0
  147.6126  134.1556  154.9632 H   0  0  0  0  0  0  0  0  0  0  0  0
  147.0335  133.0589  152.8223 H   0  0  0  0  0  0  0  0  0  0  0  0
  148.7243  132.9096  152.3826 H   0  0  0  0  0  0  0  0  0  0  0  0
  149.3946  130.4789  154.9521 H   0  0  0  0  0  0  0  0  0  0  0  0
  150.1147  131.3877  153.6370 H   0  0  0  0  0  0  0  0  0  0  0  0
  149.1099  132.5252  156.3109 H   0  0  0  0  0  0  0  0  0  0  0  0
  150.7838  132.3829  155.8080 H   0  0  0  0  0  0  0  0  0  0  0  0
  1  2  2  0  0  0  0
  1 24  1  0  0  0  0
  1 25  1  0  0  0  0
  2  3  1  0  0  0  0
  2 26  1  0  0  0  0
  3  4  1  0  0  0  0
  3 27  1  0  0  0  0
  3 28  1  0  0  0  0
  4  5  1  0  0  0  0
  4 29  1  0  0  0  0
  5  6  2  0  0  0  0
  5  7  1  0  0  0  0
  7  8  1  0  0  0  0
  7 30  1  0  0  0  0
  7 31  1  0  0  0  0
  8 32  1  0  0  0  0
  8 33  1  0  0  0  0
  8  9  1  0  0  0  0
  9 21  1  0  0  0  0
  9 10  2  0  0  0  0
 10 12  1  0  0  0  0
 10 11  1  0  0  0  0
 11 34  1  0  0  0  0
 11 35  1  0  0  0  0
 11 36  1  0  0  0  0
 12 23  1  0  0  0  0
 12 13  1  0  0  0  0
 13 14  1  0  0  0  0
 13 20  2  0  0  0  0
 14 19  1  0  0  0  0
 14 15  1  0  0  0  0
 15 16  1  0  0  0  0
 15 37  1  0  0  0  0
 15 38  1  0  0  0  0
 16 17  1  0  0  0  0
 16 39  1  0  0  0  0
 16 40  1  0  0  0  0
 17 18  1  0  0  0  0
 18 19  1  0  0  0  0
 18 41  1  0  0  0  0
 18 42  1  0  0  0  0
 19 43  1  0  0  0  0
 19 44  1  0  0  0  0
 20 21  1  0  0  0  0
 21 22  2  0  0  0  0
M  END
> <s_m_source_file>
AV-unprocessed.smi

> <i_m_source_file_index>
1503

> <i_lp_mmshare_version>
43012

> <i_f3d_flags>
0

> <s_epik_input>
W0NIMl09W0NIXVtDSDJdW05IXUMoPU8pW0NIMl1bQ0gyXWMxYyhbQ0gzXSluYyhbbkhdYzE9TylOMltDSDJdW0NIMl1PW0NIMl1bQ0gyXTI=

> <s_epik_cmdline>
J2VwaWtfcHl0aG9uJywgJy1waCcsICc3LjAnLCAnLXRuJywgJzgnLCAnLW1hJywgJzIwMCcsICctbWV0YWxfYmluZGluZycsICctaW1hZScsICc8aW5maWxlLm1hZT4nLCAnLW9tYWUnLCAnPG91dGZpbGUubWFlPic=

> <r_lp_tautomer_probability>
0.108306

> <r_epik_Ionization_Penalty>
0.0745381

> <r_epik_Ionization_Penalty_Charging>
0.0625831

> <r_epik_Ionization_Penalty_Neutral>
0.0119549

> <r_epik_State_Penalty>
1.70762

> <r_epik_Charging_Adjusted_Penalty>
1.7702

> <i_epik_Tot_Q>
0

> <i_epik_Tot_abs_Q>
0

> <r_epik_Metal_State_Penalty>
2.68249

> <b_epik_Metal_Only>
0

> <s_lp_Force_Field>
OPLS_2005

> <r_lp_Energy>
25.2683

> <b_lp_Chiralities_Consistent>
1

> <s_lp_Variant>
AV-unprocessed.smi:1503-2

> <Gold.Version>
5.8.1

> <Gold.Id.Protein>
6NUR|6NUR_protein|mol2

> <Gold.PLP.Fitness>
45.8604

> <Gold.PLP.PLP>
-41.1210

> <Gold.PLP.part.hbond>
-3.9949

> <Gold.PLP.part.metal>
0.0000

> <Gold.PLP.part.buried>
-4.2282

> <Gold.PLP.part.nonpolar>
-33.3696

> <Gold.PLP.part.repulsive>
0.2929

> <Gold.PLP.ligand.clash>
0.0000

> <Gold.PLP.ligand.torsion>
0.7379

> <Gold.PLP.Chemscore.Hbond>
1.9600

> <Gold.PLP.Chemscore.CHOScore>
0.0000

> <Gold.PLP.Chemscore.Metal>
0.0000

> <Gold.Chemscore.Hbonds>
donor molecule, donor type, donor heavy atom, donor atom, acceptor molecule, acceptor atom, score
      L1  H    12    23       P1  7948  0.99
      P1  H  6896  6908       L1    22  0.12
      P1  H  7997  8009       L1     6  0.76

> <Gold.PLP.Chemscore.Internal.Correction>
0.3352

> <Gold.Rescore>
     Score         DG    S(hbond)    S(metal)    S(lipo)     H(rot)  DE(clash)    DE(int)     intcor
     14.05     -14.78       1.07        0.00      90.82       1.92       0.02       0.71       ----

> <Gold.Chemscore.Fitness>
14.0502

> <Gold.Chemscore.DG>
-14.7799

> <Gold.Chemscore.ZeroCoef>
-5.4800

> <Gold.Chemscore.Hbond>
1.0737

> <Gold.Chemscore.Metal>
0.0000

> <Gold.Chemscore.Lipo>
90.8171

> <Gold.Chemscore.Internal_Hbond>
0.0000

> <Gold.Chemscore.DEClash>
0.0246

> <Gold.Chemscore.DEInternal>
0.7052

> <Gold.Chemscore.Rot>
1.9187

> <Gold.Chemscore.Internal.Correction>
   9.000000E+99

> <Gold.Chemscore.Hbonds>
donor molecule, donor type, donor heavy atom, donor atom, acceptor molecule, acceptor atom, score
      L1  H    12    23       P1  7948  0.32
      P1  H  6896  6908       L1    22  0.13
      P1  H  7997  8009       L1     6  0.51

> <Gold.Chemscore.Hbond.Weighted>
-3.5862

> <Gold.Chemscore.Metal.Weighted>
-0.0000

> <Gold.Chemscore.Lipo.Weighted>
-10.6256

> <Gold.Chemscore.Internal_Hbond.Weighted>
0.0000

> <Gold.Chemscore.DEClash.Weighted>
0.0246

> <Gold.Chemscore.DEInternal.Weighted>
0.7052

> <Gold.Chemscore.Rot.Weighted>
4.9119

> <Gold.Chemscore.Internal.Correction.Weighted>
   9.000000E+99

> <Gold.Protein.RotatedTorsions>
[ 6907 6896 6895 6894 ] final -120.28 input  -60.11 | X-H torsion
[ 7974 7965 7964 7962 ] final  112.48 input  175.53 | X-H torsion
[ 8008 7997 7996 7995 ] final  143.31 input   59.86 | X-H torsion
[ 10167 10162 10161 10158 ] final   91.30 input  -65.29 | X-H torsion
[ 10718 10713 10712 10709 ] final   51.92 input   66.30 | X-H torsion
[ 10763 10752 10751 10750 ] final  113.72 input  -60.55 | X-H torsion
[ 11005 11000 10999 10996 ] final -133.99 input  -57.11 | X-H torsion

> <Gold.Protein.ActiveResidues>
 VAL166  LYS551  ARG553  GLY616  TRP617  ASP618  TYR619  PRO620  LYS621  CYS622 
 ASP623  PHE694  ASN695  SER759  ASP760  ASP761  ALA762  ILE779  LEU786  VAL792 
 PHE793  MET794  SER795  GLU796  ALA797  LYS798  CYS799  TRP800  GLU811  SER814 

> <Gold.Protein.RotatedAtoms>
  150.8379  133.7984  159.3072 H   0  0  0  0  0  0  0  0  0  0  0  0  # atno 6907 bound_to 6896
  151.5694  135.1061  160.0001 H   0  0  0  0  0  0  0  0  0  0  0  0  # atno 6908 bound_to 6896
  152.4448  133.7473  159.6731 H   0  0  0  0  0  0  0  0  0  0  0  0  # atno 6909 bound_to 6896
  145.2290  139.2828  143.4178 H   0  0  0  0  0  0  0  0  0  0  0  0  # atno 7974 bound_to 7965
  156.2932  140.2266  156.4870 H   0  0  0  0  0  0  0  0  0  0  0  0  # atno 8008 bound_to 7997
  154.7804  140.0460  157.1143 H   0  0  0  0  0  0  0  0  0  0  0  0  # atno 8009 bound_to 7997
  154.9766  140.3073  155.4968 H   0  0  0  0  0  0  0  0  0  0  0  0  # atno 8010 bound_to 7997
  139.8388  144.6651  150.9308 H   0  0  0  0  0  0  0  0  0  0  0  0  # atno 10167 bound_to 10162
  157.5027  130.8448  149.8336 H   0  0  0  0  0  0  0  0  0  0  0  0  # atno 10718 bound_to 10713
  153.4967  135.3647  155.2519 H   0  0  0  0  0  0  0  0  0  0  0  0  # atno 10763 bound_to 10752
  154.8749  135.3990  154.3525 H   0  0  0  0  0  0  0  0  0  0  0  0  # atno 10764 bound_to 10752
  153.4154  135.7079  153.6396 H   0  0  0  0  0  0  0  0  0  0  0  0  # atno 10765 bound_to 10752
  140.9031  134.1665  157.4446 H   0  0  0  0  0  0  0  0  0  0  0  0  # atno 11005 bound_to 11000
  146.3357  140.2620  142.8602 LP  0  0  0  0  0  0  0  0  0  0  0  0  # atno 17320 bound_to 7965
  144.9694  140.8354  143.5465 LP  0  0  0  0  0  0  0  0  0  0  0  0  # atno 17321 bound_to 7965
  140.7800  143.3931  151.1275 LP  0  0  0  0  0  0  0  0  0  0  0  0  # atno 17342 bound_to 10162
  139.7579  143.8679  152.3093 LP  0  0  0  0  0  0  0  0  0  0  0  0  # atno 17343 bound_to 10162
  156.0239  130.3786  150.1881 LP  0  0  0  0  0  0  0  0  0  0  0  0  # atno 17370 bound_to 10713
  157.0071  130.9939  151.3376 LP  0  0  0  0  0  0  0  0  0  0  0  0  # atno 17371 bound_to 10713
  139.8745  134.9906  156.5510 LP  0  0  0  0  0  0  0  0  0  0  0  0  # atno 17394 bound_to 11000
  140.8205  133.8357  155.8891 LP  0  0  0  0  0  0  0  0  0  0  0  0  # atno 17395 bound_to 11000

$$$$
