AV-unprocessed.smi:122|AV-procd|sdf|1141|dock5
  -GOLD-   2262018273D 1   1.00000     0.00000
 Structure written by MMmdl.
 48 50  0  0  0  0  0  0  0  0  1 V2000
  152.4341  139.0993  157.6323 C   0  0  0  0  0  0  0  0  0  0  0  0
  152.1793  138.7326  155.8479 S   0  0  0  0  0  0  0  0  0  0  0  0
  152.7883  139.8149  155.0598 O   0  0  0  0  0  0  0  0  0  0  0  0
  152.5663  137.3353  155.6005 O   0  0  0  0  0  0  0  0  0  0  0  0
  150.4583  138.8491  155.6742 N   0  0  0  0  0  0  0  0  0  0  0  0
  149.6239  137.7701  156.2515 C   0  0  0  0  0  0  0  0  0  0  0  0
  148.1362  138.1626  156.3037 C   0  0  0  0  0  0  0  0  0  0  0  0
  147.7170  138.5955  154.9713 N   0  0  0  0  0  0  0  0  0  0  0  0
  146.9035  137.8649  154.1725 C   0  0  0  0  0  0  0  0  0  0  0  0
  146.6238  138.2199  153.0256 O   0  0  0  0  0  0  0  0  0  0  0  0
  146.3065  136.5521  154.7210 C   0  0  0  0  0  0  0  0  0  0  0  0
  146.6493  135.3604  153.9131 N   0  0  0  0  0  0  0  0  0  0  0  0
  147.7078  134.5244  154.3478 C   0  0  0  0  0  0  0  0  0  0  0  0
  148.3319  134.7701  155.3809 O   0  0  0  0  0  0  0  0  0  0  0  0
  148.0006  133.3816  153.4902 C   0  0  0  0  0  0  0  0  0  0  0  0
  148.9880  132.5342  153.8258 F   0  0  0  0  0  0  0  0  0  0  0  0
  147.2967  133.1608  152.3608 C   0  0  0  0  0  0  0  0  0  0  0  0
  146.2669  133.9872  151.9467 N   0  0  0  0  0  0  0  0  0  0  0  0
  145.4970  133.7358  150.6672 C   0  0  2  0  0  0  0  0  0  0  0  0
  143.9818  133.6997  150.9435 C   0  0  0  0  0  0  0  0  0  0  0  0
  143.5534  132.4031  150.2857 C   0  0  0  0  0  0  0  0  0  0  0  0
  144.8096  131.5556  150.4168 C   0  0  0  0  0  0  0  0  0  0  0  0
  145.8462  132.4877  150.1388 O   0  0  0  0  0  0  0  0  0  0  0  0
  145.9286  135.1197  152.7190 C   0  0  0  0  0  0  0  0  0  0  0  0
  145.0284  135.8804  152.3562 O   0  0  0  0  0  0  0  0  0  0  0  0
  148.4222  139.8230  154.6007 C   0  0  0  0  0  0  0  0  0  0  0  0
  149.9220  139.5075  154.4609 C   0  0  0  0  0  0  0  0  0  0  0  0
  153.4999  139.0686  157.8571 H   0  0  0  0  0  0  0  0  0  0  0  0
  151.9171  138.3556  158.2378 H   0  0  0  0  0  0  0  0  0  0  0  0
  152.0466  140.0913  157.8624 H   0  0  0  0  0  0  0  0  0  0  0  0
  149.7494  136.8687  155.6507 H   0  0  0  0  0  0  0  0  0  0  0  0
  149.9727  137.5327  157.2565 H   0  0  0  0  0  0  0  0  0  0  0  0
  147.5456  137.3271  156.6819 H   0  0  0  0  0  0  0  0  0  0  0  0
  147.9864  138.9746  157.0168 H   0  0  0  0  0  0  0  0  0  0  0  0
  146.6358  136.4239  155.7531 H   0  0  0  0  0  0  0  0  0  0  0  0
  145.2227  136.6582  154.7916 H   0  0  0  0  0  0  0  0  0  0  0  0
  147.5669  132.2994  151.7696 H   0  0  0  0  0  0  0  0  0  0  0  0
  145.8078  134.5208  149.9753 H   0  0  0  0  0  0  0  0  0  0  0  0
  143.7942  133.6599  152.0180 H   0  0  0  0  0  0  0  0  0  0  0  0
  143.4864  134.5783  150.5292 H   0  0  0  0  0  0  0  0  0  0  0  0
  142.6810  131.9509  150.7581 H   0  0  0  0  0  0  0  0  0  0  0  0
  143.3260  132.5724  149.2322 H   0  0  0  0  0  0  0  0  0  0  0  0
  144.9126  131.1687  151.4317 H   0  0  0  0  0  0  0  0  0  0  0  0
  144.8280  130.7152  149.7226 H   0  0  0  0  0  0  0  0  0  0  0  0
  148.0513  140.2828  153.6861 H   0  0  0  0  0  0  0  0  0  0  0  0
  148.2732  140.5742  155.3780 H   0  0  0  0  0  0  0  0  0  0  0  0
  150.4715  140.4291  154.2697 H   0  0  0  0  0  0  0  0  0  0  0  0
  150.0877  138.8549  153.6030 H   0  0  0  0  0  0  0  0  0  0  0  0
  1  2  1  0  0  0  0
  1 28  1  0  0  0  0
  1 29  1  0  0  0  0
  1 30  1  0  0  0  0
  2  3  2  0  0  0  0
  2  4  2  0  0  0  0
  2  5  1  0  0  0  0
  5 27  1  0  0  0  0
  5  6  1  0  0  0  0
  6  7  1  0  0  0  0
  6 31  1  0  0  0  0
  6 32  1  0  0  0  0
  7  8  1  0  0  0  0
  7 33  1  0  0  0  0
  7 34  1  0  0  0  0
  8  9  1  0  0  0  0
  8 26  1  0  0  0  0
  9 10  2  0  0  0  0
  9 11  1  0  0  0  0
 11 12  1  0  0  0  0
 11 35  1  0  0  0  0
 11 36  1  0  0  0  0
 12 24  1  0  0  0  0
 12 13  1  0  0  0  0
 13 14  2  0  0  0  0
 13 15  1  0  0  0  0
 15 16  1  0  0  0  0
 15 17  2  0  0  0  0
 17 18  1  0  0  0  0
 17 37  1  0  0  0  0
 18 19  1  0  0  0  0
 18 24  1  0  0  0  0
 19 23  1  0  0  0  0
 19 20  1  0  0  0  0
 19 38  1  0  0  0  0
 20 21  1  0  0  0  0
 20 39  1  0  0  0  0
 20 40  1  0  0  0  0
 21 22  1  0  0  0  0
 21 41  1  0  0  0  0
 21 42  1  0  0  0  0
 22 23  1  0  0  0  0
 22 43  1  0  0  0  0
 22 44  1  0  0  0  0
 24 25  2  0  0  0  0
 26 27  1  0  0  0  0
 26 45  1  0  0  0  0
 26 46  1  0  0  0  0
 27 47  1  0  0  0  0
 27 48  1  0  0  0  0
M  END
> <s_m_source_file>
AV-unprocessed.smi

> <i_m_source_file_index>
122

> <i_lp_mmshare_version>
43012

> <i_f3d_flags>
0

> <s_epik_input>
W0NIM11TKD1PKSg9TylOMVtDSDJdW0NIMl1OKFtDSDJdW0NIMl0xKUMoPU8pW0NIMl1uMmMoPU8pYyhGKVtjSF1uKGMyPU8pW0NAQEhdM1tDSDJdW0NIMl1bQ0gyXU8z

> <s_epik_cmdline>
J2VwaWtfcHl0aG9uJywgJy1waCcsICc3LjAnLCAnLXRuJywgJzgnLCAnLW1hJywgJzIwMCcsICctbWV0YWxfYmluZGluZycsICctaW1hZScsICc8aW5maWxlLm1hZT4nLCAnLW9tYWUnLCAnPG91dGZpbGUubWFlPic=

> <r_lp_tautomer_probability>
1

> <r_epik_Ionization_Penalty>
4.55442e-09

> <r_epik_Ionization_Penalty_Charging>
4.02834e-09

> <r_epik_Ionization_Penalty_Neutral>
5.2608e-10

> <r_epik_State_Penalty>
-0

> <r_epik_Charging_Adjusted_Penalty>
4.02834e-09

> <i_epik_Tot_Q>
0

> <i_epik_Tot_abs_Q>
0

> <r_epik_Metal_State_Penalty>
-0

> <b_epik_Metal_Only>
0

> <s_epik_Chemistry_Notes>
This compound contains an acetal/aminal-like group ( X-CH(R)-Y where X, Y are N, S, or O) that may be acid/base labile, releasing an aldehyde.

> <s_lp_Force_Field>
OPLS_2005

> <r_lp_Energy>
39.2384

> <b_lp_Chiralities_Consistent>
1

> <s_lp_Variant>
AV-unprocessed.smi:122-1

> <Gold.Version>
5.8.1

> <Gold.Id.Protein>
6NUR|6NUR_protein|mol2

> <Gold.PLP.Fitness>
44.1906

> <Gold.PLP.PLP>
-35.9093

> <Gold.PLP.part.hbond>
-3.0000

> <Gold.PLP.part.metal>
0.0000

> <Gold.PLP.part.buried>
-4.5526

> <Gold.PLP.part.nonpolar>
-29.5602

> <Gold.PLP.part.repulsive>
0.6344

> <Gold.PLP.ligand.clash>
0.0000

> <Gold.PLP.ligand.torsion>
1.4858

> <Gold.PLP.Chemscore.Hbond>
2.0560

> <Gold.PLP.Chemscore.CHOScore>
1.0000

> <Gold.PLP.Chemscore.Metal>
0.0000

> <Gold.Chemscore.Hbonds>
donor molecule, donor type, donor heavy atom, donor atom, acceptor molecule, acceptor atom, score
      P1  H  7989  7998       L1     3  0.31
      P1  H  7997  8009       L1     3  1.00
      P1  H 10752 10765       L1     4  0.66
      L1  C    17    37       P1 10747  1.00

> <Gold.PLP.Chemscore.Internal.Correction>
2.0849

> <Gold.Rescore>
     Score         DG    S(hbond)    S(metal)    S(lipo)     H(rot)  DE(clash)    DE(int)     intcor
     10.22     -14.35       1.84        0.00      60.34       1.69       0.05       4.08       ----

> <Gold.Chemscore.Fitness>
10.2250

> <Gold.Chemscore.DG>
-14.3483

> <Gold.Chemscore.ZeroCoef>
-5.4800

> <Gold.Chemscore.Hbond>
1.8360

> <Gold.Chemscore.Metal>
0.0000

> <Gold.Chemscore.Lipo>
60.3396

> <Gold.Chemscore.Internal_Hbond>
0.0000

> <Gold.Chemscore.DEClash>
0.0480

> <Gold.Chemscore.DEInternal>
4.0753

> <Gold.Chemscore.Rot>
1.6890

> <Gold.Chemscore.Internal.Correction>
   9.000000E+99

> <Gold.Chemscore.Hbonds>
donor molecule, donor type, donor heavy atom, donor atom, acceptor molecule, acceptor atom, score
      P1  H  7989  7998       L1     3  0.31
      P1  H  7997  8009       L1     3  0.65
      P1  H 10752 10765       L1     4  0.64

> <Gold.Chemscore.Hbond.Weighted>
-6.1324

> <Gold.Chemscore.Metal.Weighted>
-0.0000

> <Gold.Chemscore.Lipo.Weighted>
-7.0597

> <Gold.Chemscore.Internal_Hbond.Weighted>
0.0000

> <Gold.Chemscore.DEClash.Weighted>
0.0480

> <Gold.Chemscore.DEInternal.Weighted>
4.0753

> <Gold.Chemscore.Rot.Weighted>
4.3239

> <Gold.Chemscore.Internal.Correction.Weighted>
   9.000000E+99

> <Gold.Protein.RotatedTorsions>
[ 6907 6896 6895 6894 ] final -161.96 input  -60.11 | X-H torsion
[ 7974 7965 7964 7962 ] final  132.81 input  175.53 | X-H torsion
[ 8008 7997 7996 7995 ] final -131.50 input   59.86 | X-H torsion
[ 10167 10162 10161 10158 ] final   33.56 input  -65.29 | X-H torsion
[ 10718 10713 10712 10709 ] final  115.19 input   66.30 | X-H torsion
[ 10763 10752 10751 10750 ] final -167.84 input  -60.55 | X-H torsion
[ 11005 11000 10999 10996 ] final  173.55 input  -57.11 | X-H torsion

> <Gold.Protein.ActiveResidues>
 VAL166  LYS551  ARG553  GLY616  TRP617  ASP618  TYR619  PRO620  LYS621  CYS622 
 ASP623  PHE694  ASN695  SER759  ASP760  ASP761  ALA762  ILE779  LEU786  VAL792 
 PHE793  MET794  SER795  GLU796  ALA797  LYS798  CYS799  TRP800  GLU811  SER814 

> <Gold.Protein.RotatedAtoms>
  151.3728  133.3848  159.2701 H   0  0  0  0  0  0  0  0  0  0  0  0  # atno 6907 bound_to 6896
  150.9637  134.9022  159.7757 H   0  0  0  0  0  0  0  0  0  0  0  0  # atno 6908 bound_to 6896
  152.5159  134.3688  159.9363 H   0  0  0  0  0  0  0  0  0  0  0  0  # atno 6909 bound_to 6896
  144.9930  139.4388  143.5330 H   0  0  0  0  0  0  0  0  0  0  0  0  # atno 7974 bound_to 7965
  155.3133  140.0458  157.3036 H   0  0  0  0  0  0  0  0  0  0  0  0  # atno 8008 bound_to 7997
  154.5421  140.2291  155.8591 H   0  0  0  0  0  0  0  0  0  0  0  0  # atno 8009 bound_to 7997
  156.1890  140.3055  155.9301 H   0  0  0  0  0  0  0  0  0  0  0  0  # atno 8010 bound_to 7997
  140.4396  144.1206  150.6172 H   0  0  0  0  0  0  0  0  0  0  0  0  # atno 10167 bound_to 10162
  157.6237  131.1009  150.7293 H   0  0  0  0  0  0  0  0  0  0  0  0  # atno 10718 bound_to 10713
  154.6691  135.2936  154.9766 H   0  0  0  0  0  0  0  0  0  0  0  0  # atno 10763 bound_to 10752
  154.0799  135.6606  153.4840 H   0  0  0  0  0  0  0  0  0  0  0  0  # atno 10764 bound_to 10752
  153.0475  135.5195  154.7678 H   0  0  0  0  0  0  0  0  0  0  0  0  # atno 10765 bound_to 10752
  140.3417  134.7271  157.4206 H   0  0  0  0  0  0  0  0  0  0  0  0  # atno 11005 bound_to 11000
  146.3435  139.9273  142.8758 LP  0  0  0  0  0  0  0  0  0  0  0  0  # atno 17320 bound_to 7965
  145.2259  140.9954  143.4018 LP  0  0  0  0  0  0  0  0  0  0  0  0  # atno 17321 bound_to 7965
  140.4333  143.2558  151.9567 LP  0  0  0  0  0  0  0  0  0  0  0  0  # atno 17342 bound_to 10162
  139.4789  144.5723  151.8068 LP  0  0  0  0  0  0  0  0  0  0  0  0  # atno 17343 bound_to 10162
  156.7646  130.4809  149.5430 LP  0  0  0  0  0  0  0  0  0  0  0  0  # atno 17370 bound_to 10713
  156.1396  130.6235  151.0449 LP  0  0  0  0  0  0  0  0  0  0  0  0  # atno 17371 bound_to 10713
  140.0776  134.5776  155.8575 LP  0  0  0  0  0  0  0  0  0  0  0  0  # atno 17394 bound_to 11000
  141.2037  133.6633  156.6076 LP  0  0  0  0  0  0  0  0  0  0  0  0  # atno 17395 bound_to 11000

$$$$
