AV-unprocessed.smi:3277|AV-procd|sdf|12537|dock7
  -GOLD-   2272018453D 1   1.00000     0.00000
 Structure written by MMmdl.
 35 37  0  0  0  0  0  0  0  0  1 V2000
  147.1475  139.6147  153.5422 C   0  0  0  0  0  0  0  0  0  0  0  0
  148.4038  139.2231  154.1612 N   0  0  0  0  0  0  0  0  0  0  0  0
  149.4231  140.0617  154.4012 C   0  0  0  0  0  0  0  0  0  0  0  0
  149.3894  141.2627  154.1329 O   0  0  0  0  0  0  0  0  0  0  0  0
  150.6730  139.4557  155.0425 C   0  0  0  0  0  0  0  0  0  0  0  0
  150.9510  140.2055  156.3053 C   0  0  0  0  0  0  0  0  0  0  0  0
  151.0030  141.5381  156.3742 N   0  0  0  0  0  0  0  0  0  0  0  0
  151.2507  142.0119  157.6677 C   0  0  0  0  0  0  0  0  0  0  0  0
  151.3044  143.4896  157.9686 C   0  0  1  0  0  0  0  0  0  0  0  0
  150.2246  144.0026  158.9472 C   0  0  0  0  0  0  0  0  0  0  0  0
  151.0530  144.8258  159.9536 C   0  0  1  0  0  0  0  0  0  0  0  0
  151.8559  143.8696  160.8581 C   0  0  0  0  0  0  0  0  0  0  0  0
  152.9767  143.3758  159.9236 C   0  0  0  0  0  0  0  0  0  0  0  0
  152.6163  144.0427  158.5805 C   0  0  2  0  0  0  0  0  0  0  0  0
  152.1476  145.4115  159.0673 C   0  0  0  0  0  0  0  0  0  0  0  0
  151.4081  140.9986  158.5813 C   0  0  0  0  0  0  0  0  0  0  0  0
  151.2375  139.4240  157.8546 S   0  0  0  0  0  0  0  0  0  0  0  0
  146.5014  138.7442  153.4310 H   0  0  0  0  0  0  0  0  0  0  0  0
  147.3183  140.0403  152.5527 H   0  0  0  0  0  0  0  0  0  0  0  0
  146.6262  140.3518  154.1540 H   0  0  0  0  0  0  0  0  0  0  0  0
  148.5149  138.2499  154.4080 H   0  0  0  0  0  0  0  0  0  0  0  0
  150.5145  138.4007  155.2678 H   0  0  0  0  0  0  0  0  0  0  0  0
  151.5275  139.5287  154.3682 H   0  0  0  0  0  0  0  0  0  0  0  0
  151.1532  144.0207  157.0270 H   0  0  0  0  0  0  0  0  0  0  0  0
  149.4990  144.6275  158.4251 H   0  0  0  0  0  0  0  0  0  0  0  0
  149.6707  143.2064  159.4456 H   0  0  0  0  0  0  0  0  0  0  0  0
  150.4648  145.5585  160.5068 H   0  0  0  0  0  0  0  0  0  0  0  0
  152.2767  144.3993  161.7135 H   0  0  0  0  0  0  0  0  0  0  0  0
  151.2432  143.0517  161.2393 H   0  0  0  0  0  0  0  0  0  0  0  0
  153.9423  143.7423  160.2746 H   0  0  0  0  0  0  0  0  0  0  0  0
  153.0538  142.2912  159.8758 H   0  0  0  0  0  0  0  0  0  0  0  0
  153.4477  144.0682  157.8753 H   0  0  0  0  0  0  0  0  0  0  0  0
  151.7629  146.0502  158.2701 H   0  0  0  0  0  0  0  0  0  0  0  0
  152.9092  145.9597  159.6250 H   0  0  0  0  0  0  0  0  0  0  0  0
  151.6053  141.0835  159.6396 H   0  0  0  0  0  0  0  0  0  0  0  0
  1  2  1  0  0  0  0
  1 18  1  0  0  0  0
  1 19  1  0  0  0  0
  1 20  1  0  0  0  0
  2  3  1  0  0  0  0
  2 21  1  0  0  0  0
  3  4  2  0  0  0  0
  3  5  1  0  0  0  0
  5  6  1  0  0  0  0
  5 22  1  0  0  0  0
  5 23  1  0  0  0  0
  6 17  1  0  0  0  0
  6  7  2  0  0  0  0
  7  8  1  0  0  0  0
  8  9  1  0  0  0  0
  8 16  2  0  0  0  0
  9 14  1  0  0  0  0
  9 10  1  0  0  0  0
  9 24  1  0  0  0  0
 10 11  1  0  0  0  0
 10 25  1  0  0  0  0
 10 26  1  0  0  0  0
 11 15  1  0  0  0  0
 11 12  1  0  0  0  0
 11 27  1  0  0  0  0
 12 13  1  0  0  0  0
 12 28  1  0  0  0  0
 12 29  1  0  0  0  0
 13 14  1  0  0  0  0
 13 30  1  0  0  0  0
 13 31  1  0  0  0  0
 14 15  1  0  0  0  0
 14 32  1  0  0  0  0
 15 33  1  0  0  0  0
 15 34  1  0  0  0  0
 16 17  1  0  0  0  0
 16 35  1  0  0  0  0
M  END
> <s_m_source_file>
AV-unprocessed.smi

> <i_m_source_file_index>
3277

> <i_lp_mmshare_version>
43012

> <i_f3d_flags>
0

> <s_epik_input>
W0NIM11bTkhdQyg9TylbQ0gyXWMxbmMoW2NIXXMxKVtDQEhdKFtDSDJdW0NAQEhdMjMpW0NAQEhdKFtDSDJdMylbQ0gyXVtDSDJdMg==

> <s_epik_cmdline>
J2VwaWtfcHl0aG9uJywgJy1waCcsICc3LjAnLCAnLXRuJywgJzgnLCAnLW1hJywgJzIwMCcsICctbWV0YWxfYmluZGluZycsICctaW1hZScsICc8aW5maWxlLm1hZT4nLCAnLW9tYWUnLCAnPG91dGZpbGUubWFlPic=

> <r_lp_tautomer_probability>
1

> <r_epik_Ionization_Penalty>
8.50008e-05

> <r_epik_Ionization_Penalty_Charging>
0

> <r_epik_Ionization_Penalty_Neutral>
8.50008e-05

> <r_epik_State_Penalty>
-0

> <r_epik_Charging_Adjusted_Penalty>
0

> <i_epik_Tot_Q>
0

> <i_epik_Tot_abs_Q>
0

> <r_epik_Metal_State_Penalty>
-0

> <b_epik_Metal_Only>
0

> <s_lp_Force_Field>
OPLS_2005

> <r_lp_Energy>
45.709

> <b_lp_Chiralities_Consistent>
1

> <s_lp_Variant>
AV-unprocessed.smi:3277-2

> <Gold.Version>
5.8.1

> <Gold.Id.Protein>
6NUR|6NUR_protein|mol2

> <Gold.PLP.Fitness>
44.0163

> <Gold.PLP.PLP>
-42.0968

> <Gold.PLP.part.hbond>
-2.5166

> <Gold.PLP.part.metal>
0.0000

> <Gold.PLP.part.buried>
-3.1205

> <Gold.PLP.part.nonpolar>
-36.4931

> <Gold.PLP.part.repulsive>
0.2959

> <Gold.PLP.ligand.clash>
0.0000

> <Gold.PLP.ligand.torsion>
0.1126

> <Gold.PLP.Chemscore.Hbond>
0.7137

> <Gold.PLP.Chemscore.CHOScore>
0.0000

> <Gold.PLP.Chemscore.Metal>
0.0000

> <Gold.Chemscore.Hbonds>
donor molecule, donor type, donor heavy atom, donor atom, acceptor molecule, acceptor atom, score
      P1  H  7989  7998       L1     4  0.02
      P1  H  8011  8017       L1     4  0.49

> <Gold.PLP.Chemscore.Internal.Correction>
0.0035

> <Gold.Rescore>
     Score         DG    S(hbond)    S(metal)    S(lipo)     H(rot)  DE(clash)    DE(int)     intcor
     17.14     -18.77       0.75        0.00     123.04       1.41       0.30       1.34       ----

> <Gold.Chemscore.Fitness>
17.1379

> <Gold.Chemscore.DG>
-18.7712

> <Gold.Chemscore.ZeroCoef>
-5.4800

> <Gold.Chemscore.Hbond>
0.7516

> <Gold.Chemscore.Metal>
0.0000

> <Gold.Chemscore.Lipo>
123.0429

> <Gold.Chemscore.Internal_Hbond>
0.0000

> <Gold.Chemscore.DEClash>
0.2959

> <Gold.Chemscore.DEInternal>
1.3374

> <Gold.Chemscore.Rot>
1.4122

> <Gold.Chemscore.Internal.Correction>
   9.000000E+99

> <Gold.Chemscore.Hbonds>
donor molecule, donor type, donor heavy atom, donor atom, acceptor molecule, acceptor atom, score
      P1  H  8011  8017       L1     4  0.49

> <Gold.Chemscore.Hbond.Weighted>
-2.5103

> <Gold.Chemscore.Metal.Weighted>
-0.0000

> <Gold.Chemscore.Lipo.Weighted>
-14.3960

> <Gold.Chemscore.Internal_Hbond.Weighted>
0.0000

> <Gold.Chemscore.DEClash.Weighted>
0.2959

> <Gold.Chemscore.DEInternal.Weighted>
1.3374

> <Gold.Chemscore.Rot.Weighted>
3.6151

> <Gold.Chemscore.Internal.Correction.Weighted>
   9.000000E+99

> <Gold.Protein.RotatedTorsions>
[ 6907 6896 6895 6894 ] final   99.98 input  -60.11 | X-H torsion
[ 7974 7965 7964 7962 ] final  -17.47 input  175.53 | X-H torsion
[ 8008 7997 7996 7995 ] final  147.47 input   59.86 | X-H torsion
[ 10167 10162 10161 10158 ] final   80.15 input  -65.29 | X-H torsion
[ 10718 10713 10712 10709 ] final  125.91 input   66.30 | X-H torsion
[ 10763 10752 10751 10750 ] final   -1.48 input  -60.55 | X-H torsion
[ 11005 11000 10999 10996 ] final  -23.38 input  -57.11 | X-H torsion

> <Gold.Protein.ActiveResidues>
 VAL166  LYS551  ARG553  GLY616  TRP617  ASP618  TYR619  PRO620  LYS621  CYS622 
 ASP623  PHE694  ASN695  SER759  ASP760  ASP761  ALA762  ILE779  LEU786  VAL792 
 PHE793  MET794  SER795  GLU796  ALA797  LYS798  CYS799  TRP800  GLU811  SER814 

> <Gold.Protein.RotatedAtoms>
  152.5381  134.0346  159.8039 H   0  0  0  0  0  0  0  0  0  0  0  0  # atno 6907 bound_to 6896
  151.0511  133.5615  159.2649 H   0  0  0  0  0  0  0  0  0  0  0  0  # atno 6908 bound_to 6896
  151.2549  135.0642  159.9130 H   0  0  0  0  0  0  0  0  0  0  0  0  # atno 6909 bound_to 6896
  146.1939  140.3784  142.8448 H   0  0  0  0  0  0  0  0  0  0  0  0  # atno 7974 bound_to 7965
  156.2823  140.2155  156.5543 H   0  0  0  0  0  0  0  0  0  0  0  0  # atno 8008 bound_to 7997
  154.7265  140.0499  157.0710 H   0  0  0  0  0  0  0  0  0  0  0  0  # atno 8009 bound_to 7997
  155.0409  140.3145  155.4728 H   0  0  0  0  0  0  0  0  0  0  0  0  # atno 8010 bound_to 7997
  139.9528  144.6014  150.8144 H   0  0  0  0  0  0  0  0  0  0  0  0  # atno 10167 bound_to 10162
  157.5463  131.1095  150.8776 H   0  0  0  0  0  0  0  0  0  0  0  0  # atno 10718 bound_to 10713
  153.3454  135.6983  153.6832 H   0  0  0  0  0  0  0  0  0  0  0  0  # atno 10763 bound_to 10752
  153.5580  135.3540  155.2788 H   0  0  0  0  0  0  0  0  0  0  0  0  # atno 10764 bound_to 10752
  154.8644  135.4242  154.2677 H   0  0  0  0  0  0  0  0  0  0  0  0  # atno 10765 bound_to 10752
  140.8746  133.7696  156.0228 H   0  0  0  0  0  0  0  0  0  0  0  0  # atno 11005 bound_to 11000
  144.8541  140.7045  143.6149 LP  0  0  0  0  0  0  0  0  0  0  0  0  # atno 17320 bound_to 7965
  145.3705  139.1660  143.4334 LP  0  0  0  0  0  0  0  0  0  0  0  0  # atno 17321 bound_to 7965
  140.7577  143.3092  151.2885 LP  0  0  0  0  0  0  0  0  0  0  0  0  # atno 17342 bound_to 10162
  139.6615  144.0181  152.2695 LP  0  0  0  0  0  0  0  0  0  0  0  0  # atno 17343 bound_to 10162
  156.9313  130.5351  149.5279 LP  0  0  0  0  0  0  0  0  0  0  0  0  # atno 17370 bound_to 10713
  156.0539  130.5603  150.9048 LP  0  0  0  0  0  0  0  0  0  0  0  0  # atno 17371 bound_to 10713
  140.8533  134.2928  157.5266 LP  0  0  0  0  0  0  0  0  0  0  0  0  # atno 17394 bound_to 11000
  139.8714  134.9479  156.3982 LP  0  0  0  0  0  0  0  0  0  0  0  0  # atno 17395 bound_to 11000

$$$$
