AV-unprocessed.smi:1403|AV-procd|sdf|5703|dock2
  -GOLD-   22720 5333D 1   1.00000     0.00000
 Structure written by MMmdl.
 35 36  0  0  0  0  0  0  0  0  2 V2000
  150.0975  142.4935  157.5373 C   0  0  0  0  0  0  0  0  0  0  0  0
  151.5498  142.3003  157.9962 C   0  0  2  0  0  0  0  0  0  0  0  0
  151.6513  141.0269  158.7045 N   0  0  0  0  0  0  0  0  0  0  0  0
  152.2541  139.9107  158.2591 C   0  0  0  0  0  0  0  0  0  0  0  0
  152.8137  139.8429  157.1653 O   0  0  0  0  0  0  0  0  0  0  0  0
  152.2533  138.6732  159.1734 C   0  0  0  0  0  0  0  0  0  0  0  0
  153.2103  138.7291  160.2938 N   0  0  0  0  0  0  0  0  0  0  0  0
  153.6327  139.9995  160.7233 C   0  0  0  0  0  0  0  0  0  0  0  0
  154.4985  140.1535  161.7431 C   0  0  0  0  0  0  0  0  0  0  0  0
  155.0010  138.9578  162.4082 C   0  0  0  0  0  0  0  0  0  0  0  0
  155.7942  139.0790  163.3396 O   0  0  0  0  0  0  0  0  0  0  0  0
  154.5581  137.7477  161.9577 N   0  5  0  0  0  0  0  0  0  0  0  0
  153.6757  137.6062  160.9206 C   0  0  0  0  0  0  0  0  0  0  0  0
  153.2805  136.5051  160.5370 O   0  0  0  0  0  0  0  0  0  0  0  0
  152.0225  143.4552  158.9020 C   0  0  1  0  0  0  0  0  0  0  0  0
  151.6527  144.8557  158.4139 C   0  0  0  0  0  0  0  0  0  0  0  0
  151.7135  145.6889  159.6818 C   0  0  0  0  0  0  0  0  0  0  0  0
  151.5598  144.6608  160.8071 C   0  0  0  0  0  0  0  0  0  0  0  0
  151.3706  143.4075  160.1618 O   0  0  0  0  0  0  0  0  0  0  0  0
  149.9822  143.4192  156.9731 H   0  0  0  0  0  0  0  0  0  0  0  0
  149.4141  142.5337  158.3864 H   0  0  0  0  0  0  0  0  0  0  0  0
  149.7781  141.6744  156.8921 H   0  0  0  0  0  0  0  0  0  0  0  0
  152.1779  142.2794  157.1038 H   0  0  0  0  0  0  0  0  0  0  0  0
  151.2150  140.9828  159.6147 H   0  0  0  0  0  0  0  0  0  0  0  0
  151.2395  138.5200  159.5471 H   0  0  0  0  0  0  0  0  0  0  0  0
  152.4589  137.7983  158.5551 H   0  0  0  0  0  0  0  0  0  0  0  0
  153.2085  140.8323  160.1816 H   0  0  0  0  0  0  0  0  0  0  0  0
  154.8109  141.1369  162.0623 H   0  0  0  0  0  0  0  0  0  0  0  0
  153.1010  143.3957  159.0613 H   0  0  0  0  0  0  0  0  0  0  0  0
  152.3180  145.2233  157.6320 H   0  0  0  0  0  0  0  0  0  0  0  0
  150.6348  144.8595  158.0212 H   0  0  0  0  0  0  0  0  0  0  0  0
  152.6745  146.1974  159.7654 H   0  0  0  0  0  0  0  0  0  0  0  0
  150.9290  146.4459  159.7022 H   0  0  0  0  0  0  0  0  0  0  0  0
  152.4629  144.6219  161.4174 H   0  0  0  0  0  0  0  0  0  0  0  0
  150.7171  144.8841  161.4616 H   0  0  0  0  0  0  0  0  0  0  0  0
  1  2  1  0  0  0  0
  1 20  1  0  0  0  0
  1 21  1  0  0  0  0
  1 22  1  0  0  0  0
  2  3  1  0  0  0  0
  2 15  1  0  0  0  0
  2 23  1  0  0  0  0
  3  4  1  0  0  0  0
  3 24  1  0  0  0  0
  4  5  2  0  0  0  0
  4  6  1  0  0  0  0
  6  7  1  0  0  0  0
  6 25  1  0  0  0  0
  6 26  1  0  0  0  0
  7 13  1  0  0  0  0
  7  8  1  0  0  0  0
  8  9  2  0  0  0  0
  8 27  1  0  0  0  0
  9 10  1  0  0  0  0
  9 28  1  0  0  0  0
 10 11  2  0  0  0  0
 10 12  1  0  0  0  0
 12 13  1  0  0  0  0
 13 14  2  0  0  0  0
 15 19  1  0  0  0  0
 15 16  1  0  0  0  0
 15 29  1  0  0  0  0
 16 17  1  0  0  0  0
 16 30  1  0  0  0  0
 16 31  1  0  0  0  0
 17 18  1  0  0  0  0
 17 32  1  0  0  0  0
 17 33  1  0  0  0  0
 18 19  1  0  0  0  0
 18 34  1  0  0  0  0
 18 35  1  0  0  0  0
M  CHG  1  12  -1
M  END
> <s_m_source_file>
AV-unprocessed.smi

> <i_m_source_file_index>
1403

> <i_lp_mmshare_version>
43012

> <i_f3d_flags>
0

> <s_epik_input>
TzFbQ0gyXVtDSDJdW0NIMl1bQ0BIXTFbQ0BIXShbQ0gzXSlbTkhdQyg9TylbQ0gyXW4yW2NIXVtjSF1jKD1PKVtuSF1jMj1P

> <s_epik_cmdline>
J2VwaWtfcHl0aG9uJywgJy1waCcsICc3LjAnLCAnLXRuJywgJzgnLCAnLW1hJywgJzIwMCcsICctbWV0YWxfYmluZGluZycsICctaW1hZScsICc8aW5maWxlLm1hZT4nLCAnLW9tYWUnLCAnPG91dGZpbGUubWFlPic=

> <r_lp_tautomer_probability>
0.999537

> <r_epik_Ionization_Penalty>
3.07438

> <r_epik_Ionization_Penalty_Charging>
2.82466e-08

> <r_epik_Ionization_Penalty_Neutral>
3.07438

> <r_epik_State_Penalty>
3.07341

> <r_epik_Charging_Adjusted_Penalty>
3.07341

> <i_epik_Tot_Q>
-1

> <i_epik_Tot_abs_Q>
1

> <r_epik_Metal_State_Penalty>
0.45947

> <b_epik_Metal_Only>
1

> <s_lp_Force_Field>
OPLS_2005

> <r_lp_Energy>
26.9379

> <b_lp_Chiralities_Consistent>
1

> <s_lp_Variant>
AV-unprocessed.smi:1403-7

> <Gold.Version>
5.8.1

> <Gold.Id.Protein>
6NUR|6NUR_protein|mol2

> <Gold.PLP.Fitness>
40.2607

> <Gold.PLP.PLP>
-35.8129

> <Gold.PLP.part.hbond>
-2.0625

> <Gold.PLP.part.metal>
0.0000

> <Gold.PLP.part.buried>
-5.8593

> <Gold.PLP.part.nonpolar>
-28.3141

> <Gold.PLP.part.repulsive>
0.1845

> <Gold.PLP.ligand.clash>
0.0000

> <Gold.PLP.ligand.torsion>
0.7934

> <Gold.PLP.Chemscore.Hbond>
2.0000

> <Gold.PLP.Chemscore.CHOScore>
0.0000

> <Gold.PLP.Chemscore.Metal>
0.0000

> <Gold.Chemscore.Hbonds>
donor molecule, donor type, donor heavy atom, donor atom, acceptor molecule, acceptor atom, score
      P1  H  6896  6907       L1    14  1.00
      P1  H  7997  8008       L1     5  1.00

> <Gold.PLP.Chemscore.Internal.Correction>
0.0346

> <Gold.Rescore>
     Score         DG    S(hbond)    S(metal)    S(lipo)     H(rot)  DE(clash)    DE(int)     intcor
     16.44     -17.25       1.98        0.00      87.64       1.99       0.00       0.80       ----

> <Gold.Chemscore.Fitness>
16.4427

> <Gold.Chemscore.DG>
-17.2483

> <Gold.Chemscore.ZeroCoef>
-5.4800

> <Gold.Chemscore.Hbond>
1.9819

> <Gold.Chemscore.Metal>
0.0000

> <Gold.Chemscore.Lipo>
87.6363

> <Gold.Chemscore.Internal_Hbond>
0.0000

> <Gold.Chemscore.DEClash>
0.0034

> <Gold.Chemscore.DEInternal>
0.8023

> <Gold.Chemscore.Rot>
1.9940

> <Gold.Chemscore.Internal.Correction>
   9.000000E+99

> <Gold.Chemscore.Hbonds>
donor molecule, donor type, donor heavy atom, donor atom, acceptor molecule, acceptor atom, score
      P1  H  6896  6907       L1    14  0.99
      P1  H  7997  8008       L1     5  1.00

> <Gold.Chemscore.Hbond.Weighted>
-6.6196

> <Gold.Chemscore.Metal.Weighted>
-0.0000

> <Gold.Chemscore.Lipo.Weighted>
-10.2534

> <Gold.Chemscore.Internal_Hbond.Weighted>
0.0000

> <Gold.Chemscore.DEClash.Weighted>
0.0034

> <Gold.Chemscore.DEInternal.Weighted>
0.8023

> <Gold.Chemscore.Rot.Weighted>
5.1047

> <Gold.Chemscore.Internal.Correction.Weighted>
   9.000000E+99

> <Gold.Protein.RotatedTorsions>
[ 6907 6896 6895 6894 ] final   35.90 input  -60.11 | X-H torsion
[ 7974 7965 7964 7962 ] final  -36.84 input  175.53 | X-H torsion
[ 8008 7997 7996 7995 ] final  -66.14 input   59.86 | X-H torsion
[ 10167 10162 10161 10158 ] final  -77.12 input  -65.29 | X-H torsion
[ 10718 10713 10712 10709 ] final   88.05 input   66.30 | X-H torsion
[ 10763 10752 10751 10750 ] final -161.05 input  -60.55 | X-H torsion
[ 11005 11000 10999 10996 ] final  -87.16 input  -57.11 | X-H torsion

> <Gold.Protein.ActiveResidues>
 VAL166  LYS551  ARG553  GLY616  TRP617  ASP618  TYR619  PRO620  LYS621  CYS622 
 ASP623  PHE694  ASN695  SER759  ASP760  ASP761  ALA762  ILE779  LEU786  VAL792 
 PHE793  MET794  SER795  GLU796  ALA797  LYS798  CYS799  TRP800  GLU811  SER814 

> <Gold.Protein.RotatedAtoms>
  152.1225  134.9195  160.0562 H   0  0  0  0  0  0  0  0  0  0  0  0  # atno 6907 bound_to 6896
  152.0330  133.3940  159.4313 H   0  0  0  0  0  0  0  0  0  0  0  0  # atno 6908 bound_to 6896
  150.6850  134.3420  159.4916 H   0  0  0  0  0  0  0  0  0  0  0  0  # atno 6909 bound_to 6896
  146.0627  140.6325  142.8989 H   0  0  0  0  0  0  0  0  0  0  0  0  # atno 7974 bound_to 7965
  154.4715  140.0919  156.7157 H   0  0  0  0  0  0  0  0  0  0  0  0  # atno 8008 bound_to 7997
  155.4710  140.3464  155.4307 H   0  0  0  0  0  0  0  0  0  0  0  0  # atno 8009 bound_to 7997
  156.1047  140.1431  156.9408 H   0  0  0  0  0  0  0  0  0  0  0  0  # atno 8010 bound_to 7997
  140.4797  143.2405  151.8076 H   0  0  0  0  0  0  0  0  0  0  0  0  # atno 10167 bound_to 10162
  157.6946  131.0279  150.3216 H   0  0  0  0  0  0  0  0  0  0  0  0  # atno 10718 bound_to 10713
  154.7337  135.3052  154.8848 H   0  0  0  0  0  0  0  0  0  0  0  0  # atno 10763 bound_to 10752
  153.9683  135.6745  153.4750 H   0  0  0  0  0  0  0  0  0  0  0  0  # atno 10764 bound_to 10752
  153.0942  135.4944  154.8669 H   0  0  0  0  0  0  0  0  0  0  0  0  # atno 10765 bound_to 10752
  141.1620  133.7495  156.9267 H   0  0  0  0  0  0  0  0  0  0  0  0  # atno 11005 bound_to 11000
  144.7184  140.4290  143.7027 LP  0  0  0  0  0  0  0  0  0  0  0  0  # atno 17320 bound_to 7965
  145.6532  139.1568  143.2850 LP  0  0  0  0  0  0  0  0  0  0  0  0  # atno 17321 bound_to 7965
  139.4831  144.4787  151.9333 LP  0  0  0  0  0  0  0  0  0  0  0  0  # atno 17342 bound_to 10162
  140.3873  144.2660  150.5903 LP  0  0  0  0  0  0  0  0  0  0  0  0  # atno 17343 bound_to 10162
  156.3702  130.3862  149.7181 LP  0  0  0  0  0  0  0  0  0  0  0  0  # atno 17370 bound_to 10713
  156.4598  130.7946  151.2967 LP  0  0  0  0  0  0  0  0  0  0  0  0  # atno 17371 bound_to 10713
  140.1414  134.9291  157.2472 LP  0  0  0  0  0  0  0  0  0  0  0  0  # atno 17394 bound_to 11000
  140.2832  134.3326  155.7337 LP  0  0  0  0  0  0  0  0  0  0  0  0  # atno 17395 bound_to 11000

$$$$
