AV-unprocessed.smi:2448|AV-procd|sdf|9652|dock2
  -GOLD-   2272013283D 1   1.00000     0.00000
 Structure written by MMmdl.
 37 38  0  0  0  0  0  0  0  0  1 V2000
  152.7615  137.1873  160.0695 O   0  0  0  0  0  0  0  0  0  0  0  0
  154.0115  137.8545  160.0816 C   0  0  2  0  0  0  0  0  0  0  0  0
  153.8455  139.1979  159.3418 C   0  0  0  0  0  0  0  0  0  0  0  0
  152.9292  139.0838  158.2046 N   0  0  0  0  0  0  0  0  0  0  0  0
  152.2301  140.3103  157.7920 C   0  0  2  0  0  0  0  0  0  0  0  0
  151.5906  140.9218  159.0614 C   0  0  0  0  0  0  0  0  0  0  0  0
  151.5949  142.4398  159.1096 C   0  0  0  0  0  0  0  0  0  0  0  0
  150.5773  143.1859  158.4788 C   0  0  0  0  0  0  0  0  0  0  0  0
  150.6280  144.5920  158.5573 C   0  0  0  0  0  0  0  0  0  0  0  0
  151.6010  145.2640  159.2094 N   0  0  0  0  0  0  0  0  0  0  0  0
  152.5693  144.5434  159.8147 C   0  0  0  0  0  0  0  0  0  0  0  0
  152.6117  143.1349  159.7966 C   0  0  0  0  0  0  0  0  0  0  0  0
  151.1949  140.0469  156.6621 C   0  0  0  0  0  0  0  0  0  0  0  0
  150.6394  141.1805  156.2375 F   0  0  0  0  0  0  0  0  0  0  0  0
  151.7837  139.4437  155.6287 F   0  0  0  0  0  0  0  0  0  0  0  0
  150.1977  139.2756  157.0923 F   0  0  0  0  0  0  0  0  0  0  0  0
  155.0267  136.9407  159.3756 C   0  0  0  0  0  0  0  0  0  0  0  0
  155.3586  135.7846  160.3248 C   0  0  0  0  0  0  0  0  0  0  0  0
  155.3008  136.4313  162.0147 S   0  0  0  0  0  0  0  0  0  0  0  0
  154.5216  137.9944  161.5280 C   0  0  0  0  0  0  0  0  0  0  0  0
  152.1888  137.6154  160.6868 H   0  0  0  0  0  0  0  0  0  0  0  0
  153.4655  139.9466  160.0381 H   0  0  0  0  0  0  0  0  0  0  0  0
  154.8283  139.5390  159.0199 H   0  0  0  0  0  0  0  0  0  0  0  0
  153.4313  138.7009  157.4096 H   0  0  0  0  0  0  0  0  0  0  0  0
  152.9689  141.0207  157.4190 H   0  0  0  0  0  0  0  0  0  0  0  0
  150.5678  140.5595  159.1739 H   0  0  0  0  0  0  0  0  0  0  0  0
  152.1290  140.5746  159.9446 H   0  0  0  0  0  0  0  0  0  0  0  0
  149.7769  142.6970  157.9432 H   0  0  0  0  0  0  0  0  0  0  0  0
  149.8656  145.1931  158.0841 H   0  0  0  0  0  0  0  0  0  0  0  0
  153.3337  145.1057  160.3302 H   0  0  0  0  0  0  0  0  0  0  0  0
  153.4077  142.6043  160.2985 H   0  0  0  0  0  0  0  0  0  0  0  0
  154.6628  136.5808  158.4122 H   0  0  0  0  0  0  0  0  0  0  0  0
  155.9410  137.5017  159.1775 H   0  0  0  0  0  0  0  0  0  0  0  0
  154.6081  134.9985  160.2353 H   0  0  0  0  0  0  0  0  0  0  0  0
  156.3303  135.3412  160.1075 H   0  0  0  0  0  0  0  0  0  0  0  0
  155.2890  138.7677  161.5784 H   0  0  0  0  0  0  0  0  0  0  0  0
  153.7334  138.2726  162.2285 H   0  0  0  0  0  0  0  0  0  0  0  0
  1  2  1  0  0  0  0
  1 21  1  0  0  0  0
  2 20  1  0  0  0  0
  2  3  1  0  0  0  0
  2 17  1  0  0  0  0
  3  4  1  0  0  0  0
  3 22  1  0  0  0  0
  3 23  1  0  0  0  0
  4  5  1  0  0  0  0
  4 24  1  0  0  0  0
  5  6  1  0  0  0  0
  5 13  1  0  0  0  0
  5 25  1  0  0  0  0
  6  7  1  0  0  0  0
  6 26  1  0  0  0  0
  6 27  1  0  0  0  0
  7 12  1  0  0  0  0
  7  8  2  0  0  0  0
  8  9  1  0  0  0  0
  8 28  1  0  0  0  0
  9 10  2  0  0  0  0
  9 29  1  0  0  0  0
 10 11  1  0  0  0  0
 11 12  2  0  0  0  0
 11 30  1  0  0  0  0
 12 31  1  0  0  0  0
 13 14  1  0  0  0  0
 13 15  1  0  0  0  0
 13 16  1  0  0  0  0
 17 18  1  0  0  0  0
 17 32  1  0  0  0  0
 17 33  1  0  0  0  0
 18 19  1  0  0  0  0
 18 34  1  0  0  0  0
 18 35  1  0  0  0  0
 19 20  1  0  0  0  0
 20 36  1  0  0  0  0
 20 37  1  0  0  0  0
M  END
> <s_m_source_file>
AV-unprocessed.smi

> <i_m_source_file_index>
2448

> <i_lp_mmshare_version>
43012

> <i_f3d_flags>
0

> <s_epik_input>
W0NIMl0xU1tDSDJdW0NIMl1bQ0BAXTEoW09IXSlbQ0gyXVtOSF1bQ0BASF0oQyhGKShGKUYpW0NIMl1jMltjSF1bY0hdbltjSF1bY0hdMg==

> <s_epik_cmdline>
J2VwaWtfcHl0aG9uJywgJy1waCcsICc3LjAnLCAnLXRuJywgJzgnLCAnLW1hJywgJzIwMCcsICctbWV0YWxfYmluZGluZycsICctaW1hZScsICc8aW5maWxlLm1hZT4nLCAnLW9tYWUnLCAnPG91dGZpbGUubWFlPic=

> <r_epik_Ionization_Penalty>
0.187708

> <r_epik_Ionization_Penalty_Charging>
0

> <r_epik_Ionization_Penalty_Neutral>
0.187708

> <r_epik_State_Penalty>
0.22769

> <r_epik_Charging_Adjusted_Penalty>
0.22769

> <i_epik_Tot_Q>
0

> <i_epik_Tot_abs_Q>
0

> <r_epik_Metal_State_Penalty>
0.176206

> <b_epik_Metal_Only>
0

> <s_lp_Force_Field>
OPLS_2005

> <r_lp_Energy>
30.9139

> <b_lp_Chiralities_Consistent>
1

> <s_lp_Variant>
AV-unprocessed.smi:2448-2

> <Gold.Version>
5.8.1

> <Gold.Id.Protein>
6NUR|6NUR_protein|mol2

> <Gold.PLP.Fitness>
39.9462

> <Gold.PLP.PLP>
-36.0717

> <Gold.PLP.part.hbond>
-1.0015

> <Gold.PLP.part.metal>
0.0000

> <Gold.PLP.part.buried>
-5.4658

> <Gold.PLP.part.nonpolar>
-29.2832

> <Gold.PLP.part.repulsive>
0.1079

> <Gold.PLP.ligand.clash>
0.0000

> <Gold.PLP.ligand.torsion>
1.3420

> <Gold.PLP.Chemscore.Hbond>
1.0000

> <Gold.PLP.Chemscore.CHOScore>
0.9410

> <Gold.PLP.Chemscore.Metal>
0.0000

> <Gold.Chemscore.Hbonds>
donor molecule, donor type, donor heavy atom, donor atom, acceptor molecule, acceptor atom, score
      P1  H  6896  6908       L1     1  0.46
      L1  C     9    29       P1  8028  0.05
      L1  C     9    29       P1  8029  0.90

> <Gold.PLP.Chemscore.Internal.Correction>
0.7355

> <Gold.Rescore>
     Score         DG    S(hbond)    S(metal)    S(lipo)     H(rot)  DE(clash)    DE(int)     intcor
     13.13     -14.73       0.94        0.00     102.87       2.31       0.00       1.60       ----

> <Gold.Chemscore.Fitness>
13.1350

> <Gold.Chemscore.DG>
-14.7337

> <Gold.Chemscore.ZeroCoef>
-5.4800

> <Gold.Chemscore.Hbond>
0.9384

> <Gold.Chemscore.Metal>
0.0000

> <Gold.Chemscore.Lipo>
102.8691

> <Gold.Chemscore.Internal_Hbond>
0.0000

> <Gold.Chemscore.DEClash>
0.0029

> <Gold.Chemscore.DEInternal>
1.5958

> <Gold.Chemscore.Rot>
2.3111

> <Gold.Chemscore.Internal.Correction>
   9.000000E+99

> <Gold.Chemscore.Hbonds>
donor molecule, donor type, donor heavy atom, donor atom, acceptor molecule, acceptor atom, score
      P1  H  6896  6908       L1     1  0.14

> <Gold.Chemscore.Hbond.Weighted>
-3.1344

> <Gold.Chemscore.Metal.Weighted>
-0.0000

> <Gold.Chemscore.Lipo.Weighted>
-12.0357

> <Gold.Chemscore.Internal_Hbond.Weighted>
0.0000

> <Gold.Chemscore.DEClash.Weighted>
0.0029

> <Gold.Chemscore.DEInternal.Weighted>
1.5958

> <Gold.Chemscore.Rot.Weighted>
5.9164

> <Gold.Chemscore.Internal.Correction.Weighted>
   9.000000E+99

> <Gold.Protein.RotatedTorsions>
[ 6907 6896 6895 6894 ] final -101.06 input  -60.11 | X-H torsion
[ 7974 7965 7964 7962 ] final  -91.23 input  175.53 | X-H torsion
[ 8008 7997 7996 7995 ] final  167.91 input   59.86 | X-H torsion
[ 10167 10162 10161 10158 ] final   19.61 input  -65.29 | X-H torsion
[ 10718 10713 10712 10709 ] final  -29.35 input   66.30 | X-H torsion
[ 10763 10752 10751 10750 ] final  -57.53 input  -60.55 | X-H torsion
[ 11005 11000 10999 10996 ] final   44.34 input  -57.11 | X-H torsion

> <Gold.Protein.ActiveResidues>
 VAL166  LYS551  ARG553  GLY616  TRP617  ASP618  TYR619  PRO620  LYS621  CYS622 
 ASP623  PHE694  ASN695  SER759  ASP760  ASP761  ALA762  ILE779  LEU786  VAL792 
 PHE793  MET794  SER795  GLU796  ALA797  LYS798  CYS799  TRP800  GLU811  SER814 

> <Gold.Protein.RotatedAtoms>
  150.7140  134.0791  159.3891 H   0  0  0  0  0  0  0  0  0  0  0  0  # atno 6907 bound_to 6896
  151.8775  135.0464  160.0495 H   0  0  0  0  0  0  0  0  0  0  0  0  # atno 6908 bound_to 6896
  152.2594  133.5249  159.5409 H   0  0  0  0  0  0  0  0  0  0  0  0  # atno 6909 bound_to 6896
  145.4160  140.9548  143.2208 H   0  0  0  0  0  0  0  0  0  0  0  0  # atno 7974 bound_to 7965
  156.1593  140.1604  156.8639 H   0  0  0  0  0  0  0  0  0  0  0  0  # atno 8008 bound_to 7997
  154.5145  140.0793  156.8090 H   0  0  0  0  0  0  0  0  0  0  0  0  # atno 8009 bound_to 7997
  155.3739  140.3401  155.4246 H   0  0  0  0  0  0  0  0  0  0  0  0  # atno 8010 bound_to 7997
  140.5566  143.9413  150.6613 H   0  0  0  0  0  0  0  0  0  0  0  0  # atno 10167 bound_to 10162
  156.4136  130.4413  149.7234 H   0  0  0  0  0  0  0  0  0  0  0  0  # atno 10718 bound_to 10713
  154.2239  135.6373  153.5153 H   0  0  0  0  0  0  0  0  0  0  0  0  # atno 10763 bound_to 10752
  152.9963  135.5503  154.6084 H   0  0  0  0  0  0  0  0  0  0  0  0  # atno 10764 bound_to 10752
  154.5551  135.2904  155.0946 H   0  0  0  0  0  0  0  0  0  0  0  0  # atno 10765 bound_to 10752
  140.1561  134.4400  155.8349 H   0  0  0  0  0  0  0  0  0  0  0  0  # atno 11005 bound_to 11000
  144.8277  139.5681  143.6958 LP  0  0  0  0  0  0  0  0  0  0  0  0  # atno 17320 bound_to 7965
  146.2681  139.6568  142.9315 LP  0  0  0  0  0  0  0  0  0  0  0  0  # atno 17321 bound_to 7965
  140.2853  143.3361  152.1113 LP  0  0  0  0  0  0  0  0  0  0  0  0  # atno 17342 bound_to 10162
  139.5051  144.6788  151.6062 LP  0  0  0  0  0  0  0  0  0  0  0  0  # atno 17343 bound_to 10162
  156.4203  130.7765  151.2782 LP  0  0  0  0  0  0  0  0  0  0  0  0  # atno 17370 bound_to 10713
  157.7507  131.0185  150.3627 LP  0  0  0  0  0  0  0  0  0  0  0  0  # atno 17371 bound_to 10713
  141.2204  133.6893  156.7509 LP  0  0  0  0  0  0  0  0  0  0  0  0  # atno 17394 bound_to 11000
  140.2546  134.8514  157.3700 LP  0  0  0  0  0  0  0  0  0  0  0  0  # atno 17395 bound_to 11000

$$$$
