AV-unprocessed.smi:684|AV-procd|sdf|3332|dock3
  -GOLD-   22720 0303D 1   1.00000     0.00000
 Structure written by MMmdl.
 40 41  0  0  0  0  0  0  0  0  1 V2000
  153.4720  138.8137  159.0102 C   0  0  0  0  0  0  0  0  0  0  0  0
  153.5125  140.1422  159.7741 C   0  0  0  0  0  0  0  0  0  0  0  0
  152.6494  141.1382  159.1637 N   0  0  0  0  0  0  0  0  0  0  0  0
  151.9467  140.8035  158.0599 N   0  0  0  0  0  0  0  0  0  0  0  0
  151.2816  141.9066  157.7534 C   0  0  0  0  0  0  0  0  0  0  0  0
  150.3892  142.0695  156.6634 N   0  0  0  0  0  0  0  0  0  0  0  0
  149.9701  141.1295  155.7990 C   0  0  0  0  0  0  0  0  0  0  0  0
  150.3121  139.9465  155.8169 O   0  0  0  0  0  0  0  0  0  0  0  0
  149.1250  141.6454  154.8943 N   0  0  0  0  0  0  0  0  0  0  0  0
  148.4836  140.9043  153.8115 C   0  0  0  0  0  0  0  0  0  0  0  0
  146.9436  140.9461  153.9041 C   0  0  0  0  0  0  0  0  0  0  0  0
  146.4353  142.3931  153.8245 C   0  0  0  0  0  0  0  0  0  0  0  0
  146.4020  140.2562  155.1683 C   0  0  0  0  0  0  0  0  0  0  0  0
  151.5379  142.9811  158.6469 C   0  0  0  0  0  0  0  0  0  0  0  0
  152.4286  142.4533  159.5404 C   0  0  0  0  0  0  0  0  0  0  0  0
  153.0923  143.0747  160.7272 C   0  0  0  0  0  0  0  0  0  0  0  0
  152.9624  142.4750  162.1072 C   0  0  0  0  0  0  0  0  0  0  0  0
  152.2845  143.7872  161.7837 C   0  0  0  0  0  0  0  0  0  0  0  0
  154.1257  138.0775  159.4780 H   0  0  0  0  0  0  0  0  0  0  0  0
  153.7994  138.9413  157.9780 H   0  0  0  0  0  0  0  0  0  0  0  0
  152.4632  138.4001  158.9932 H   0  0  0  0  0  0  0  0  0  0  0  0
  153.1997  139.9910  160.8085 H   0  0  0  0  0  0  0  0  0  0  0  0
  154.5320  140.5267  159.8110 H   0  0  0  0  0  0  0  0  0  0  0  0
  150.0313  143.0030  156.5267 H   0  0  0  0  0  0  0  0  0  0  0  0
  148.9066  142.6289  154.9584 H   0  0  0  0  0  0  0  0  0  0  0  0
  148.8154  141.2650  152.8362 H   0  0  0  0  0  0  0  0  0  0  0  0
  148.8262  139.8715  153.8818 H   0  0  0  0  0  0  0  0  0  0  0  0
  146.5414  140.4141  153.0407 H   0  0  0  0  0  0  0  0  0  0  0  0
  146.7952  142.9860  154.6659 H   0  0  0  0  0  0  0  0  0  0  0  0
  145.3454  142.4280  153.8348 H   0  0  0  0  0  0  0  0  0  0  0  0
  146.7695  142.8788  152.9074 H   0  0  0  0  0  0  0  0  0  0  0  0
  146.8080  140.7124  156.0718 H   0  0  0  0  0  0  0  0  0  0  0  0
  146.6537  139.1960  155.1879 H   0  0  0  0  0  0  0  0  0  0  0  0
  145.3153  140.3285  155.2192 H   0  0  0  0  0  0  0  0  0  0  0  0
  151.1355  143.9830  158.6347 H   0  0  0  0  0  0  0  0  0  0  0  0
  154.0595  143.4975  160.4622 H   0  0  0  0  0  0  0  0  0  0  0  0
  152.3243  141.6020  162.2302 H   0  0  0  0  0  0  0  0  0  0  0  0
  153.8377  142.5069  162.7528 H   0  0  0  0  0  0  0  0  0  0  0  0
  152.7078  144.6939  162.2108 H   0  0  0  0  0  0  0  0  0  0  0  0
  151.2008  143.7801  161.6820 H   0  0  0  0  0  0  0  0  0  0  0  0
  1  2  1  0  0  0  0
  1 19  1  0  0  0  0
  1 20  1  0  0  0  0
  1 21  1  0  0  0  0
  2  3  1  0  0  0  0
  2 22  1  0  0  0  0
  2 23  1  0  0  0  0
  3 15  1  0  0  0  0
  3  4  1  0  0  0  0
  4  5  2  0  0  0  0
  5  6  1  0  0  0  0
  5 14  1  0  0  0  0
  6  7  1  0  0  0  0
  6 24  1  0  0  0  0
  7  8  2  0  0  0  0
  7  9  1  0  0  0  0
  9 10  1  0  0  0  0
  9 25  1  0  0  0  0
 10 11  1  0  0  0  0
 10 26  1  0  0  0  0
 10 27  1  0  0  0  0
 11 12  1  0  0  0  0
 11 13  1  0  0  0  0
 11 28  1  0  0  0  0
 12 29  1  0  0  0  0
 12 30  1  0  0  0  0
 12 31  1  0  0  0  0
 13 32  1  0  0  0  0
 13 33  1  0  0  0  0
 13 34  1  0  0  0  0
 14 15  2  0  0  0  0
 14 35  1  0  0  0  0
 15 16  1  0  0  0  0
 16 18  1  0  0  0  0
 16 17  1  0  0  0  0
 16 36  1  0  0  0  0
 17 18  1  0  0  0  0
 17 37  1  0  0  0  0
 17 38  1  0  0  0  0
 18 39  1  0  0  0  0
 18 40  1  0  0  0  0
M  END
> <s_m_source_file>
AV-unprocessed.smi

> <i_m_source_file_index>
684

> <i_lp_mmshare_version>
43012

> <i_f3d_flags>
0

> <s_epik_input>
W0NIMl0xW0NIMl1bQ0hdMWMyW2NIXWMobm4yW0NIMl1bQ0gzXSlbTkhdQyg9TylbTkhdW0NIMl1bQ0hdKFtDSDNdKVtDSDNd

> <s_epik_cmdline>
J2VwaWtfcHl0aG9uJywgJy1waCcsICc3LjAnLCAnLXRuJywgJzgnLCAnLW1hJywgJzIwMCcsICctbWV0YWxfYmluZGluZycsICctaW1hZScsICc8aW5maWxlLm1hZT4nLCAnLW9tYWUnLCAnPG91dGZpbGUubWFlPic=

> <r_lp_tautomer_probability>
1

> <r_epik_Ionization_Penalty>
4.15598e-05

> <r_epik_Ionization_Penalty_Charging>
0

> <r_epik_Ionization_Penalty_Neutral>
4.15598e-05

> <r_epik_State_Penalty>
-0

> <r_epik_Charging_Adjusted_Penalty>
0

> <i_epik_Tot_Q>
0

> <i_epik_Tot_abs_Q>
0

> <r_epik_Metal_State_Penalty>
-0

> <b_epik_Metal_Only>
0

> <s_lp_Force_Field>
OPLS_2005

> <r_lp_Energy>
10.212

> <b_lp_Chiralities_Consistent>
1

> <s_lp_Variant>
AV-unprocessed.smi:684-1

> <Gold.Version>
5.8.1

> <Gold.Id.Protein>
6NUR|6NUR_protein|mol2

> <Gold.PLP.Fitness>
47.1017

> <Gold.PLP.PLP>
-41.1179

> <Gold.PLP.part.hbond>
-2.0000

> <Gold.PLP.part.metal>
0.0000

> <Gold.PLP.part.buried>
-5.5824

> <Gold.PLP.part.nonpolar>
-33.8318

> <Gold.PLP.part.repulsive>
0.3001

> <Gold.PLP.ligand.clash>
0.0000

> <Gold.PLP.ligand.torsion>
0.0899

> <Gold.PLP.Chemscore.Hbond>
2.0000

> <Gold.PLP.Chemscore.CHOScore>
0.0000

> <Gold.PLP.Chemscore.Metal>
0.0000

> <Gold.Chemscore.Hbonds>
donor molecule, donor type, donor heavy atom, donor atom, acceptor molecule, acceptor atom, score
      L1  H     6    24       P1  8028  0.49
      L1  H     9    25       P1  8028  0.60

> <Gold.PLP.Chemscore.Internal.Correction>
0.1635

> <Gold.Rescore>
     Score         DG    S(hbond)    S(metal)    S(lipo)     H(rot)  DE(clash)    DE(int)     intcor
     17.88     -19.37       1.97        0.00      93.96       1.45       0.09       1.40       ----

> <Gold.Chemscore.Fitness>
17.8833

> <Gold.Chemscore.DG>
-19.3691

> <Gold.Chemscore.ZeroCoef>
-5.4800

> <Gold.Chemscore.Hbond>
1.9748

> <Gold.Chemscore.Metal>
0.0000

> <Gold.Chemscore.Lipo>
93.9574

> <Gold.Chemscore.Internal_Hbond>
0.0000

> <Gold.Chemscore.DEClash>
0.0886

> <Gold.Chemscore.DEInternal>
1.3972

> <Gold.Chemscore.Rot>
1.4452

> <Gold.Chemscore.Internal.Correction>
   9.000000E+99

> <Gold.Chemscore.Hbonds>
donor molecule, donor type, donor heavy atom, donor atom, acceptor molecule, acceptor atom, score
      L1  H     6    24       P1  8028  0.48
      L1  H     9    25       P1  8028  0.60

> <Gold.Chemscore.Hbond.Weighted>
-6.5959

> <Gold.Chemscore.Metal.Weighted>
-0.0000

> <Gold.Chemscore.Lipo.Weighted>
-10.9930

> <Gold.Chemscore.Internal_Hbond.Weighted>
0.0000

> <Gold.Chemscore.DEClash.Weighted>
0.0886

> <Gold.Chemscore.DEInternal.Weighted>
1.3972

> <Gold.Chemscore.Rot.Weighted>
3.6998

> <Gold.Chemscore.Internal.Correction.Weighted>
   9.000000E+99

> <Gold.Protein.RotatedTorsions>
[ 6907 6896 6895 6894 ] final   57.25 input  -60.11 | X-H torsion
[ 7974 7965 7964 7962 ] final  114.46 input  175.53 | X-H torsion
[ 8008 7997 7996 7995 ] final  -42.53 input   59.86 | X-H torsion
[ 10167 10162 10161 10158 ] final  -85.72 input  -65.29 | X-H torsion
[ 10718 10713 10712 10709 ] final   33.97 input   66.30 | X-H torsion
[ 10763 10752 10751 10750 ] final   96.97 input  -60.55 | X-H torsion
[ 11005 11000 10999 10996 ] final  -88.92 input  -57.11 | X-H torsion

> <Gold.Protein.ActiveResidues>
 VAL166  LYS551  ARG553  GLY616  TRP617  ASP618  TYR619  PRO620  LYS621  CYS622 
 ASP623  PHE694  ASN695  SER759  ASP760  ASP761  ALA762  ILE779  LEU786  VAL792 
 PHE793  MET794  SER795  GLU796  ALA797  LYS798  CYS799  TRP800  GLU811  SER814 

> <Gold.Protein.RotatedAtoms>
  152.3713  134.6729  160.0174 H   0  0  0  0  0  0  0  0  0  0  0  0  # atno 6907 bound_to 6896
  151.7021  133.3306  159.3277 H   0  0  0  0  0  0  0  0  0  0  0  0  # atno 6908 bound_to 6896
  150.7676  134.6541  159.6349 H   0  0  0  0  0  0  0  0  0  0  0  0  # atno 6909 bound_to 6896
  145.2042  139.2937  143.4302 H   0  0  0  0  0  0  0  0  0  0  0  0  # atno 7974 bound_to 7965
  154.3999  140.1471  156.3370 H   0  0  0  0  0  0  0  0  0  0  0  0  # atno 8008 bound_to 7997
  155.8391  140.3462  155.5599 H   0  0  0  0  0  0  0  0  0  0  0  0  # atno 8009 bound_to 7997
  155.8106  140.0883  157.1896 H   0  0  0  0  0  0  0  0  0  0  0  0  # atno 8010 bound_to 7997
  140.4010  143.2663  151.9143 H   0  0  0  0  0  0  0  0  0  0  0  0  # atno 10167 bound_to 10162
  157.3045  130.7367  149.6687 H   0  0  0  0  0  0  0  0  0  0  0  0  # atno 10718 bound_to 10713
  153.2713  135.4199  155.0991 H   0  0  0  0  0  0  0  0  0  0  0  0  # atno 10763 bound_to 10752
  154.8457  135.3473  154.6240 H   0  0  0  0  0  0  0  0  0  0  0  0  # atno 10764 bound_to 10752
  153.6660  135.7046  153.5219 H   0  0  0  0  0  0  0  0  0  0  0  0  # atno 10765 bound_to 10752
  141.1594  133.7599  156.9520 H   0  0  0  0  0  0  0  0  0  0  0  0  # atno 11005 bound_to 11000
  146.3411  140.2296  142.8593 LP  0  0  0  0  0  0  0  0  0  0  0  0  # atno 17320 bound_to 7965
  144.9918  140.8554  143.5334 LP  0  0  0  0  0  0  0  0  0  0  0  0  # atno 17321 bound_to 7965
  139.4785  144.5634  151.8204 LP  0  0  0  0  0  0  0  0  0  0  0  0  # atno 17342 bound_to 10162
  140.4740  144.1546  150.5922 LP  0  0  0  0  0  0  0  0  0  0  0  0  # atno 17343 bound_to 10162
  155.9673  130.4270  150.4723 LP  0  0  0  0  0  0  0  0  0  0  0  0  # atno 17370 bound_to 10713
  157.2710  131.0587  151.2259 LP  0  0  0  0  0  0  0  0  0  0  0  0  # atno 17371 bound_to 10713
  140.1250  134.9392  157.2258 LP  0  0  0  0  0  0  0  0  0  0  0  0  # atno 17394 bound_to 11000
  140.3024  134.3117  155.7286 LP  0  0  0  0  0  0  0  0  0  0  0  0  # atno 17395 bound_to 11000

$$$$
