AV-unprocessed.smi:3147|AV-procd|sdf|11988|dock4
  -GOLD-   2272017393D 1   1.00000     0.00000
 Structure written by MMmdl.
 37 38  0  0  0  0  0  0  0  0  2 V2000
  153.0667  142.8546  162.8141 C   0  0  0  0  0  0  0  0  0  0  0  0
  152.5040  143.3639  161.5294 C   0  0  0  0  0  0  0  0  0  0  0  0
  151.6615  144.4435  161.4885 N   0  3  0  0  0  0  0  0  0  0  0  0
  151.2966  144.7073  160.2333 C   0  0  0  0  0  0  0  0  0  0  0  0
  151.8992  143.7998  159.4575 N   0  0  0  0  0  0  0  0  0  0  0  0
  151.7294  143.7971  157.9960 C   0  0  0  0  0  0  0  0  0  0  0  0
  151.1113  142.4950  157.4726 C   0  0  0  0  0  0  0  0  0  0  0  0
  151.0149  141.5026  158.1962 O   0  0  0  0  0  0  0  0  0  0  0  0
  150.6945  142.5164  156.1981 N   0  0  0  0  0  0  0  0  0  0  0  0
  150.0942  141.3888  155.4938 C   0  0  0  0  0  0  0  0  0  0  0  0
  150.8454  140.0769  155.7770 C   0  0  1  0  0  0  0  0  0  0  0  0
  150.1566  138.8390  155.2084 C   0  0  0  0  0  0  0  0  0  0  0  0
  151.3108  137.8668  155.1202 C   0  0  0  0  0  0  0  0  0  0  0  0
  152.4648  138.7755  154.7022 C   0  0  0  0  0  0  0  0  0  0  0  0
  152.1286  140.0846  155.1577 O   0  0  0  0  0  0  0  0  0  0  0  0
  152.6609  142.9477  160.2264 C   0  0  0  0  0  0  0  0  0  0  0  0
  153.4620  141.8281  159.6434 C   0  0  0  0  0  0  0  0  0  0  0  0
  153.7225  142.0020  162.6394 H   0  0  0  0  0  0  0  0  0  0  0  0
  152.2621  142.5403  163.4792 H   0  0  0  0  0  0  0  0  0  0  0  0
  153.6430  143.6370  163.3084 H   0  0  0  0  0  0  0  0  0  0  0  0
  150.6466  145.5006  159.9096 H   0  0  0  0  0  0  0  0  0  0  0  0
  151.1009  144.6435  157.7177 H   0  0  0  0  0  0  0  0  0  0  0  0
  152.7063  143.9561  157.5365 H   0  0  0  0  0  0  0  0  0  0  0  0
  150.8106  143.3704  155.6718 H   0  0  0  0  0  0  0  0  0  0  0  0
  149.0451  141.2925  155.7783 H   0  0  0  0  0  0  0  0  0  0  0  0
  150.1060  141.6052  154.4251 H   0  0  0  0  0  0  0  0  0  0  0  0
  150.9878  139.9390  156.8501 H   0  0  0  0  0  0  0  0  0  0  0  0
  149.3410  138.4794  155.8363 H   0  0  0  0  0  0  0  0  0  0  0  0
  149.7602  139.0402  154.2121 H   0  0  0  0  0  0  0  0  0  0  0  0
  151.5096  137.4351  156.1019 H   0  0  0  0  0  0  0  0  0  0  0  0
  151.1339  137.0513  154.4185 H   0  0  0  0  0  0  0  0  0  0  0  0
  153.4174  138.4441  155.1167 H   0  0  0  0  0  0  0  0  0  0  0  0
  152.5595  138.8009  153.6162 H   0  0  0  0  0  0  0  0  0  0  0  0
  154.1222  141.3935  160.3931 H   0  0  0  0  0  0  0  0  0  0  0  0
  154.0764  142.1891  158.8183 H   0  0  0  0  0  0  0  0  0  0  0  0
  152.8001  141.0463  159.2709 H   0  0  0  0  0  0  0  0  0  0  0  0
  151.3588  144.9729  162.2965 H   0  0  0  0  0  0  0  0  0  0  0  0
  1  2  1  0  0  0  0
  1 18  1  0  0  0  0
  1 19  1  0  0  0  0
  1 20  1  0  0  0  0
  2 16  2  0  0  0  0
  2  3  1  0  0  0  0
  3  4  2  0  0  0  0
  3 37  1  0  0  0  0
  4  5  1  0  0  0  0
  4 21  1  0  0  0  0
  5  6  1  0  0  0  0
  5 16  1  0  0  0  0
  6  7  1  0  0  0  0
  6 22  1  0  0  0  0
  6 23  1  0  0  0  0
  7  8  2  0  0  0  0
  7  9  1  0  0  0  0
  9 10  1  0  0  0  0
  9 24  1  0  0  0  0
 10 11  1  0  0  0  0
 10 25  1  0  0  0  0
 10 26  1  0  0  0  0
 11 15  1  0  0  0  0
 11 12  1  0  0  0  0
 11 27  1  0  0  0  0
 12 13  1  0  0  0  0
 12 28  1  0  0  0  0
 12 29  1  0  0  0  0
 13 14  1  0  0  0  0
 13 30  1  0  0  0  0
 13 31  1  0  0  0  0
 14 15  1  0  0  0  0
 14 32  1  0  0  0  0
 14 33  1  0  0  0  0
 16 17  1  0  0  0  0
 17 34  1  0  0  0  0
 17 35  1  0  0  0  0
 17 36  1  0  0  0  0
M  CHG  1   3   1
M  END
> <s_m_source_file>
AV-unprocessed.smi

> <i_m_source_file_index>
3147

> <i_lp_mmshare_version>
43012

> <i_f3d_flags>
0

> <s_epik_input>
W0NIM11jMW5bY0hdbihjMVtDSDNdKVtDSDJdQyg9TylbTkhdW0NIMl1bQ0BASF0yW0NIMl1bQ0gyXVtDSDJdTzI=

> <s_epik_cmdline>
J2VwaWtfcHl0aG9uJywgJy1waCcsICc3LjAnLCAnLXRuJywgJzgnLCAnLW1hJywgJzIwMCcsICctbWV0YWxfYmluZGluZycsICctaW1hZScsICc8aW5maWxlLm1hZT4nLCAnLW9tYWUnLCAnPG91dGZpbGUubWFlPic=

> <r_lp_tautomer_probability>
1

> <r_epik_Ionization_Penalty>
0.131257

> <r_epik_Ionization_Penalty_Charging>
0

> <r_epik_Ionization_Penalty_Neutral>
0.131257

> <r_epik_State_Penalty>
0.12065

> <r_epik_Charging_Adjusted_Penalty>
0.12065

> <i_epik_Tot_Q>
1

> <i_epik_Tot_abs_Q>
1

> <r_epik_Metal_State_Penalty>
0.448684

> <b_epik_Metal_Only>
0

> <s_lp_Force_Field>
OPLS_2005

> <r_lp_Energy>
19.5729

> <b_lp_Chiralities_Consistent>
1

> <s_lp_Variant>
AV-unprocessed.smi:3147-2

> <Gold.Version>
5.8.1

> <Gold.Id.Protein>
6NUR|6NUR_protein|mol2

> <Gold.PLP.Fitness>
49.8827

> <Gold.PLP.PLP>
-48.1026

> <Gold.PLP.part.hbond>
-3.0000

> <Gold.PLP.part.metal>
0.0000

> <Gold.PLP.part.buried>
-6.5151

> <Gold.PLP.part.nonpolar>
-38.8894

> <Gold.PLP.part.repulsive>
0.2221

> <Gold.PLP.ligand.clash>
0.0000

> <Gold.PLP.ligand.torsion>
0.2827

> <Gold.PLP.Chemscore.Hbond>
0.7782

> <Gold.PLP.Chemscore.CHOScore>
0.0000

> <Gold.PLP.Chemscore.Metal>
0.0000

> <Gold.Chemscore.Hbonds>
donor molecule, donor type, donor heavy atom, donor atom, acceptor molecule, acceptor atom, score
      L1  H     9    24       P1  8028  0.07
      P1  H  7989  7998       L1    15  0.70

> <Gold.PLP.Chemscore.Internal.Correction>
0.0109

> <Gold.Rescore>
     Score         DG    S(hbond)    S(metal)    S(lipo)     H(rot)  DE(clash)    DE(int)     intcor
     10.36     -14.36       0.98        0.00      86.35       1.76       0.01       4.00       ----

> <Gold.Chemscore.Fitness>
10.3581

> <Gold.Chemscore.DG>
-14.3634

> <Gold.Chemscore.ZeroCoef>
-5.4800

> <Gold.Chemscore.Hbond>
0.9820

> <Gold.Chemscore.Metal>
0.0000

> <Gold.Chemscore.Lipo>
86.3545

> <Gold.Chemscore.Internal_Hbond>
0.0000

> <Gold.Chemscore.DEClash>
0.0063

> <Gold.Chemscore.DEInternal>
3.9990

> <Gold.Chemscore.Rot>
1.7577

> <Gold.Chemscore.Internal.Correction>
   9.000000E+99

> <Gold.Chemscore.Hbonds>
donor molecule, donor type, donor heavy atom, donor atom, acceptor molecule, acceptor atom, score
      L1  H     9    24       P1  8028  0.07
      P1  H  7989  7998       L1    15  0.04

> <Gold.Chemscore.Hbond.Weighted>
-3.2797

> <Gold.Chemscore.Metal.Weighted>
-0.0000

> <Gold.Chemscore.Lipo.Weighted>
-10.1035

> <Gold.Chemscore.Internal_Hbond.Weighted>
0.0000

> <Gold.Chemscore.DEClash.Weighted>
0.0063

> <Gold.Chemscore.DEInternal.Weighted>
3.9990

> <Gold.Chemscore.Rot.Weighted>
4.4998

> <Gold.Chemscore.Internal.Correction.Weighted>
   9.000000E+99

> <Gold.Protein.RotatedTorsions>
[ 6907 6896 6895 6894 ] final   65.36 input  -60.11 | X-H torsion
[ 7974 7965 7964 7962 ] final  173.82 input  175.53 | X-H torsion
[ 8008 7997 7996 7995 ] final    3.79 input   59.86 | X-H torsion
[ 10167 10162 10161 10158 ] final  -11.35 input  -65.29 | X-H torsion
[ 10718 10713 10712 10709 ] final  -49.22 input   66.30 | X-H torsion
[ 10763 10752 10751 10750 ] final  174.57 input  -60.55 | X-H torsion
[ 11005 11000 10999 10996 ] final  161.98 input  -57.11 | X-H torsion

> <Gold.Protein.ActiveResidues>
 VAL166  LYS551  ARG553  GLY616  TRP617  ASP618  TYR619  PRO620  LYS621  CYS622 
 ASP623  PHE694  ASN695  SER759  ASP760  ASP761  ALA762  ILE779  LEU786  VAL792 
 PHE793  MET794  SER795  GLU796  ALA797  LYS798  CYS799  TRP800  GLU811  SER814 

> <Gold.Protein.RotatedAtoms>
  152.4402  134.5606  159.9892 H   0  0  0  0  0  0  0  0  0  0  0  0  # atno 6907 bound_to 6896
  151.5706  133.3385  159.2996 H   0  0  0  0  0  0  0  0  0  0  0  0  # atno 6908 bound_to 6896
  150.8307  134.7592  159.6915 H   0  0  0  0  0  0  0  0  0  0  0  0  # atno 6909 bound_to 6896
  144.7235  139.9704  143.6437 H   0  0  0  0  0  0  0  0  0  0  0  0  # atno 7974 bound_to 7965
  154.7079  140.2686  155.6657 H   0  0  0  0  0  0  0  0  0  0  0  0  # atno 8008 bound_to 7997
  156.2786  140.2759  156.1635 H   0  0  0  0  0  0  0  0  0  0  0  0  # atno 8009 bound_to 7997
  155.0674  140.0372  157.2587 H   0  0  0  0  0  0  0  0  0  0  0  0  # atno 8010 bound_to 7997
  140.7136  143.5649  150.9155 H   0  0  0  0  0  0  0  0  0  0  0  0  # atno 10167 bound_to 10162
  156.1914  130.4153  149.9367 H   0  0  0  0  0  0  0  0  0  0  0  0  # atno 10718 bound_to 10713
  154.4558  135.2766  155.1749 H   0  0  0  0  0  0  0  0  0  0  0  0  # atno 10763 bound_to 10752
  154.3557  135.6140  153.5668 H   0  0  0  0  0  0  0  0  0  0  0  0  # atno 10764 bound_to 10752
  152.9850  135.5822  154.4911 H   0  0  0  0  0  0  0  0  0  0  0  0  # atno 10765 bound_to 10752
  140.2212  134.8195  157.3222 H   0  0  0  0  0  0  0  0  0  0  0  0  # atno 11005 bound_to 11000
  146.0567  139.3563  143.0606 LP  0  0  0  0  0  0  0  0  0  0  0  0  # atno 17320 bound_to 7965
  145.8145  140.9709  143.0931 LP  0  0  0  0  0  0  0  0  0  0  0  0  # atno 17321 bound_to 7965
  139.9375  143.6421  152.3062 LP  0  0  0  0  0  0  0  0  0  0  0  0  # atno 17342 bound_to 10162
  139.6893  144.7648  151.1466 LP  0  0  0  0  0  0  0  0  0  0  0  0  # atno 17343 bound_to 10162
  156.7106  130.8968  151.3609 LP  0  0  0  0  0  0  0  0  0  0  0  0  # atno 17370 bound_to 10713
  157.6931  130.9254  150.0568 LP  0  0  0  0  0  0  0  0  0  0  0  0  # atno 17371 bound_to 10713
  140.1848  134.4445  155.7750 LP  0  0  0  0  0  0  0  0  0  0  0  0  # atno 17394 bound_to 11000
  141.2223  133.7000  156.7929 LP  0  0  0  0  0  0  0  0  0  0  0  0  # atno 17395 bound_to 11000

$$$$
