AV-unprocessed.smi:100|AV-procd|sdf|912|dock6
  -GOLD-   2262017413D 1   1.00000     0.00000
 Structure written by MMmdl.
 31 33  0  0  0  0  0  0  0  0  1 V2000
  146.4484  142.0633  154.0134 N   0  0  0  0  0  0  0  0  0  0  0  0
  147.2755  141.0089  153.9871 C   0  0  0  0  0  0  0  0  0  0  0  0
  146.8538  139.8768  153.3778 N   0  0  0  0  0  0  0  0  0  0  0  0
  147.6573  138.8094  153.3456 C   0  0  0  0  0  0  0  0  0  0  0  0
  148.8878  138.6751  153.8467 N   0  0  0  0  0  0  0  0  0  0  0  0
  149.3194  139.8202  154.4554 C   0  0  0  0  0  0  0  0  0  0  0  0
  148.5677  141.0235  154.5714 C   0  0  0  0  0  0  0  0  0  0  0  0
  149.2989  141.9750  155.2670 N   0  0  0  0  0  0  0  0  0  0  0  0
  150.4165  141.3631  155.5503 C   0  0  0  0  0  0  0  0  0  0  0  0
  150.5319  140.0727  155.0744 N   0  0  0  0  0  0  0  0  0  0  0  0
  151.6861  139.1277  155.2805 C   0  0  1  0  0  0  0  0  0  0  0  0
  151.9922  139.0608  156.6405 O   0  0  0  0  0  0  0  0  0  0  0  0
  151.2623  137.9935  157.2265 C   0  0  2  0  0  0  0  0  0  0  0  0
  151.8561  137.6420  158.5985 C   0  0  0  0  0  0  0  0  0  0  0  0
  151.0582  136.6780  159.2518 O   0  0  0  0  0  0  0  0  0  0  0  0
  151.4146  136.9117  156.1598 C   0  0  1  0  0  0  0  0  0  0  0  0
  150.4702  135.9750  156.2552 F   0  0  0  0  0  0  0  0  0  0  0  0
  151.2901  137.6946  154.8588 C   0  0  2  0  0  0  0  0  0  0  0  0
  152.1504  137.1609  153.8731 O   0  0  0  0  0  0  0  0  0  0  0  0
  146.7388  142.9185  154.4653 H   0  0  0  0  0  0  0  0  0  0  0  0
  145.5370  142.0000  153.5837 H   0  0  0  0  0  0  0  0  0  0  0  0
  147.2583  137.9384  152.8470 H   0  0  0  0  0  0  0  0  0  0  0  0
  151.1984  141.8448  156.1195 H   0  0  0  0  0  0  0  0  0  0  0  0
  152.5014  139.5699  154.7064 H   0  0  0  0  0  0  0  0  0  0  0  0
  150.2173  138.2943  157.3258 H   0  0  0  0  0  0  0  0  0  0  0  0
  152.8753  137.2675  158.5003 H   0  0  0  0  0  0  0  0  0  0  0  0
  151.8989  138.5334  159.2248 H   0  0  0  0  0  0  0  0  0  0  0  0
  150.1643  136.7826  158.9637 H   0  0  0  0  0  0  0  0  0  0  0  0
  152.3881  136.4259  156.2434 H   0  0  0  0  0  0  0  0  0  0  0  0
  150.2599  137.6676  154.5024 H   0  0  0  0  0  0  0  0  0  0  0  0
  151.6558  137.0466  153.0759 H   0  0  0  0  0  0  0  0  0  0  0  0
  1  2  1  0  0  0  0
  1 20  1  0  0  0  0
  1 21  1  0  0  0  0
  2  7  1  0  0  0  0
  2  3  2  0  0  0  0
  3  4  1  0  0  0  0
  4  5  2  0  0  0  0
  4 22  1  0  0  0  0
  5  6  1  0  0  0  0
  6 10  1  0  0  0  0
  6  7  2  0  0  0  0
  7  8  1  0  0  0  0
  8  9  2  0  0  0  0
  9 10  1  0  0  0  0
  9 23  1  0  0  0  0
 10 11  1  0  0  0  0
 11 18  1  0  0  0  0
 11 12  1  0  0  0  0
 11 24  1  0  0  0  0
 12 13  1  0  0  0  0
 13 14  1  0  0  0  0
 13 16  1  0  0  0  0
 13 25  1  0  0  0  0
 14 15  1  0  0  0  0
 14 26  1  0  0  0  0
 14 27  1  0  0  0  0
 15 28  1  0  0  0  0
 16 17  1  0  0  0  0
 16 18  1  0  0  0  0
 16 29  1  0  0  0  0
 18 19  1  0  0  0  0
 18 30  1  0  0  0  0
 19 31  1  0  0  0  0
M  END
> <s_m_source_file>
AV-unprocessed.smi

> <i_m_source_file_index>
100

> <i_lp_mmshare_version>
43012

> <i_f3d_flags>
0

> <s_epik_input>
bjFbY0hdbmMoW05IMl0pYyhjMTIpbltjSF1uMltDQEBIXTNPW0NAQEhdKFtDSDJdW09IXSlbQ0BIXShGKVtDQEhdM1tPSF0=

> <s_epik_cmdline>
J2VwaWtfcHl0aG9uJywgJy1waCcsICc3LjAnLCAnLXRuJywgJzgnLCAnLW1hJywgJzIwMCcsICctbWV0YWxfYmluZGluZycsICctaW1hZScsICc8aW5maWxlLm1hZT4nLCAnLW9tYWUnLCAnPG91dGZpbGUubWFlPic=

> <r_lp_tautomer_probability>
1

> <r_epik_Ionization_Penalty>
0.000750324

> <r_epik_Ionization_Penalty_Charging>
0

> <r_epik_Ionization_Penalty_Neutral>
0.000750324

> <r_epik_State_Penalty>
-0

> <r_epik_Charging_Adjusted_Penalty>
0

> <i_epik_Tot_Q>
0

> <i_epik_Tot_abs_Q>
0

> <r_epik_Metal_State_Penalty>
-0

> <b_epik_Metal_Only>
0

> <s_epik_Chemistry_Notes>
This compound contains an acetal/aminal-like group ( X-CH(R)-Y where X, Y are N, S, or O) that may be acid/base labile, releasing an aldehyde.

> <s_lp_Force_Field>
OPLS_2005

> <r_lp_Energy>
30.8526

> <b_lp_Chiralities_Consistent>
1

> <s_lp_Variant>
AV-unprocessed.smi:100-16

> <Gold.Version>
5.8.1

> <Gold.Id.Protein>
6NUR|6NUR_protein|mol2

> <Gold.PLP.Fitness>
37.7971

> <Gold.PLP.PLP>
-26.8819

> <Gold.PLP.part.hbond>
-3.0000

> <Gold.PLP.part.metal>
0.0000

> <Gold.PLP.part.buried>
-3.6619

> <Gold.PLP.part.nonpolar>
-22.3351

> <Gold.PLP.part.repulsive>
3.4811

> <Gold.PLP.ligand.clash>
0.0000

> <Gold.PLP.ligand.torsion>
0.1931

> <Gold.PLP.Chemscore.Hbond>
2.9760

> <Gold.PLP.Chemscore.CHOScore>
0.7745

> <Gold.PLP.Chemscore.Metal>
0.0000

> <Gold.Chemscore.Hbonds>
donor molecule, donor type, donor heavy atom, donor atom, acceptor molecule, acceptor atom, score
      L1  H    19    31       P1  7949  1.00
      P1  H  6896  6908       L1    15  1.00
      P1  H 10752 10764       L1    19  0.99
      L1  C     4    22       P1  7948  0.64

> <Gold.PLP.Chemscore.Internal.Correction>
0.0500

> <Gold.Rescore>
     Score         DG    S(hbond)    S(metal)    S(lipo)     H(rot)  DE(clash)    DE(int)     intcor
      6.60      -8.94       2.54        0.00      26.89       3.19       0.78       1.56       ----

> <Gold.Chemscore.Fitness>
6.6025

> <Gold.Chemscore.DG>
-8.9398

> <Gold.Chemscore.ZeroCoef>
-5.4800

> <Gold.Chemscore.Hbond>
2.5391

> <Gold.Chemscore.Metal>
0.0000

> <Gold.Chemscore.Lipo>
26.8884

> <Gold.Chemscore.Internal_Hbond>
0.0000

> <Gold.Chemscore.DEClash>
0.7799

> <Gold.Chemscore.DEInternal>
1.5574

> <Gold.Chemscore.Rot>
3.1901

> <Gold.Chemscore.Internal.Correction>
   9.000000E+99

> <Gold.Chemscore.Hbonds>
donor molecule, donor type, donor heavy atom, donor atom, acceptor molecule, acceptor atom, score
      L1  H    19    31       P1  7949  0.91
      P1  H  6896  6908       L1    15  0.70
      P1  H 10752 10764       L1    19  0.37

> <Gold.Chemscore.Hbond.Weighted>
-8.4805

> <Gold.Chemscore.Metal.Weighted>
-0.0000

> <Gold.Chemscore.Lipo.Weighted>
-3.1459

> <Gold.Chemscore.Internal_Hbond.Weighted>
0.0000

> <Gold.Chemscore.DEClash.Weighted>
0.7799

> <Gold.Chemscore.DEInternal.Weighted>
1.5574

> <Gold.Chemscore.Rot.Weighted>
8.1667

> <Gold.Chemscore.Internal.Correction.Weighted>
   9.000000E+99

> <Gold.Protein.RotatedTorsions>
[ 6907 6896 6895 6894 ] final -139.94 input  -60.11 | X-H torsion
[ 7974 7965 7964 7962 ] final   64.57 input  175.53 | X-H torsion
[ 8008 7997 7996 7995 ] final  -14.91 input   59.86 | X-H torsion
[ 10167 10162 10161 10158 ] final   91.71 input  -65.29 | X-H torsion
[ 10718 10713 10712 10709 ] final  -10.06 input   66.30 | X-H torsion
[ 10763 10752 10751 10750 ] final  -96.13 input  -60.55 | X-H torsion
[ 11005 11000 10999 10996 ] final  -53.26 input  -57.11 | X-H torsion

> <Gold.Protein.ActiveResidues>
 VAL166  LYS551  ARG553  GLY616  TRP617  ASP618  TYR619  PRO620  LYS621  CYS622 
 ASP623  PHE694  ASN695  SER759  ASP760  ASP761  ALA762  ILE779  LEU786  VAL792 
 PHE793  MET794  SER795  GLU796  ALA797  LYS798  CYS799  TRP800  GLU811  SER814 

> <Gold.Protein.RotatedAtoms>
  151.0543  133.5598  159.2639 H   0  0  0  0  0  0  0  0  0  0  0  0  # atno 6907 bound_to 6896
  151.2597  135.0649  159.9103 H   0  0  0  0  0  0  0  0  0  0  0  0  # atno 6908 bound_to 6896
  152.5387  134.0290  159.8070 H   0  0  0  0  0  0  0  0  0  0  0  0  # atno 6909 bound_to 6896
  145.8487  139.3240  143.0888 H   0  0  0  0  0  0  0  0  0  0  0  0  # atno 7974 bound_to 7965
  154.5172  140.2210  155.9044 H   0  0  0  0  0  0  0  0  0  0  0  0  # atno 8008 bound_to 7997
  156.1621  140.3140  155.8790 H   0  0  0  0  0  0  0  0  0  0  0  0  # atno 8009 bound_to 7997
  155.3731  140.0468  157.3036 H   0  0  0  0  0  0  0  0  0  0  0  0  # atno 8010 bound_to 7997
  139.8348  144.6670  150.9355 H   0  0  0  0  0  0  0  0  0  0  0  0  # atno 10167 bound_to 10162
  156.6790  130.5031  149.5977 H   0  0  0  0  0  0  0  0  0  0  0  0  # atno 10718 bound_to 10713
  154.7212  135.5095  153.8815 H   0  0  0  0  0  0  0  0  0  0  0  0  # atno 10763 bound_to 10752
  153.0864  135.6646  153.9950 H   0  0  0  0  0  0  0  0  0  0  0  0  # atno 10764 bound_to 10752
  153.9772  135.3032  155.3402 H   0  0  0  0  0  0  0  0  0  0  0  0  # atno 10765 bound_to 10752
  141.0967  133.6623  156.4146 H   0  0  0  0  0  0  0  0  0  0  0  0  # atno 11005 bound_to 11000
  145.9382  140.8999  143.0321 LP  0  0  0  0  0  0  0  0  0  0  0  0  # atno 17320 bound_to 7965
  144.6730  140.1512  143.7430 LP  0  0  0  0  0  0  0  0  0  0  0  0  # atno 17321 bound_to 7965
  140.7803  143.3967  151.1218 LP  0  0  0  0  0  0  0  0  0  0  0  0  # atno 17342 bound_to 10162
  139.7618  143.8624  152.3102 LP  0  0  0  0  0  0  0  0  0  0  0  0  # atno 17343 bound_to 10162
  156.1882  130.6542  151.1030 LP  0  0  0  0  0  0  0  0  0  0  0  0  # atno 17370 bound_to 10713
  157.7050  131.0760  150.6696 LP  0  0  0  0  0  0  0  0  0  0  0  0  # atno 17371 bound_to 10713
  140.5123  134.6383  157.5289 LP  0  0  0  0  0  0  0  0  0  0  0  0  # atno 17394 bound_to 11000
  139.9805  134.7144  155.9868 LP  0  0  0  0  0  0  0  0  0  0  0  0  # atno 17395 bound_to 11000

$$$$
