AV-unprocessed.smi:848|AV-procd|sdf|3940|dock6
  -GOLD-   22720 1403D 1   1.00000     0.00000
 Structure written by MMmdl.
 46 48  0  0  0  0  0  0  0  0  1 V2000
  146.9634  137.4352  163.3211 C   0  0  0  0  0  0  0  0  0  0  0  0
  147.2394  136.3788  162.2710 C   0  0  0  0  0  0  0  0  0  0  0  0
  146.6676  135.0959  162.3848 C   0  0  0  0  0  0  0  0  0  0  0  0
  146.9321  134.1159  161.4081 C   0  0  0  0  0  0  0  0  0  0  0  0
  146.3131  132.7382  161.5249 C   0  0  0  0  0  0  0  0  0  0  0  0
  147.7703  134.4239  160.3176 C   0  0  0  0  0  0  0  0  0  0  0  0
  148.3500  135.7026  160.1882 C   0  0  0  0  0  0  0  0  0  0  0  0
  149.1584  135.9127  159.0919 O   0  0  0  0  0  0  0  0  0  0  0  0
  149.8084  137.1711  158.9617 C   0  0  0  0  0  0  0  0  0  0  0  0
  150.8574  137.1109  157.8387 C   0  0  1  0  0  0  0  0  0  0  0  0
  150.2928  136.4763  156.7085 O   0  0  0  0  0  0  0  0  0  0  0  0
  151.4637  138.4827  157.4777 C   0  0  0  0  0  0  0  0  0  0  0  0
  152.3892  138.9660  158.4939 N   0  0  0  0  0  0  0  0  0  0  0  0
  153.3945  138.2923  159.1089 C   0  0  0  0  0  0  0  0  0  0  0  0
  153.6950  136.8569  158.7809 C   0  0  0  0  0  0  0  0  0  0  0  0
  153.6318  135.9877  159.8938 O   0  0  0  0  0  0  0  0  0  0  0  0
  154.0925  138.9938  160.0058 N   0  0  0  0  0  0  0  0  0  0  0  0
  153.4814  140.2312  159.9715 C   0  0  0  0  0  0  0  0  0  0  0  0
  153.7574  141.4131  160.6955 C   0  0  0  0  0  0  0  0  0  0  0  0
  152.9865  142.5753  160.4856 C   0  0  0  0  0  0  0  0  0  0  0  0
  151.9310  142.5724  159.5507 C   0  0  0  0  0  0  0  0  0  0  0  0
  151.6392  141.4051  158.8191 C   0  0  0  0  0  0  0  0  0  0  0  0
  152.4117  140.2479  159.0330 C   0  0  0  0  0  0  0  0  0  0  0  0
  148.0754  136.6812  161.1767 C   0  0  0  0  0  0  0  0  0  0  0  0
  146.2267  137.0920  164.0479 H   0  0  0  0  0  0  0  0  0  0  0  0
  146.5823  138.3438  162.8544 H   0  0  0  0  0  0  0  0  0  0  0  0
  147.8806  137.6825  163.8562 H   0  0  0  0  0  0  0  0  0  0  0  0
  146.0253  134.8618  163.2216 H   0  0  0  0  0  0  0  0  0  0  0  0
  146.9720  131.9785  161.1031 H   0  0  0  0  0  0  0  0  0  0  0  0
  145.3646  132.7072  160.9884 H   0  0  0  0  0  0  0  0  0  0  0  0
  146.1266  132.4810  162.5680 H   0  0  0  0  0  0  0  0  0  0  0  0
  147.9722  133.6722  159.5682 H   0  0  0  0  0  0  0  0  0  0  0  0
  149.0633  137.9268  158.7075 H   0  0  0  0  0  0  0  0  0  0  0  0
  150.2793  137.4722  159.8991 H   0  0  0  0  0  0  0  0  0  0  0  0
  151.6617  136.4563  158.1765 H   0  0  0  0  0  0  0  0  0  0  0  0
  150.8671  136.6102  155.9700 H   0  0  0  0  0  0  0  0  0  0  0  0
  151.9713  138.4444  156.5140 H   0  0  0  0  0  0  0  0  0  0  0  0
  150.6679  139.2203  157.3684 H   0  0  0  0  0  0  0  0  0  0  0  0
  152.9896  136.4977  158.0325 H   0  0  0  0  0  0  0  0  0  0  0  0
  154.6926  136.7955  158.3457 H   0  0  0  0  0  0  0  0  0  0  0  0
  153.9911  136.4347  160.6444 H   0  0  0  0  0  0  0  0  0  0  0  0
  154.5643  141.4248  161.4133 H   0  0  0  0  0  0  0  0  0  0  0  0
  153.2067  143.4731  161.0445 H   0  0  0  0  0  0  0  0  0  0  0  0
  151.3462  143.4672  159.3954 H   0  0  0  0  0  0  0  0  0  0  0  0
  150.8319  141.3992  158.1021 H   0  0  0  0  0  0  0  0  0  0  0  0
  148.4974  137.6729  161.1181 H   0  0  0  0  0  0  0  0  0  0  0  0
  1  2  1  0  0  0  0
  1 25  1  0  0  0  0
  1 26  1  0  0  0  0
  1 27  1  0  0  0  0
  2 24  1  0  0  0  0
  2  3  2  0  0  0  0
  3  4  1  0  0  0  0
  3 28  1  0  0  0  0
  4  5  1  0  0  0  0
  4  6  2  0  0  0  0
  5 29  1  0  0  0  0
  5 30  1  0  0  0  0
  5 31  1  0  0  0  0
  6  7  1  0  0  0  0
  6 32  1  0  0  0  0
  7  8  1  0  0  0  0
  7 24  2  0  0  0  0
  8  9  1  0  0  0  0
  9 10  1  0  0  0  0
  9 33  1  0  0  0  0
  9 34  1  0  0  0  0
 10 11  1  0  0  0  0
 10 12  1  0  0  0  0
 10 35  1  0  0  0  0
 11 36  1  0  0  0  0
 12 13  1  0  0  0  0
 12 37  1  0  0  0  0
 12 38  1  0  0  0  0
 13 23  1  0  0  0  0
 13 14  1  0  0  0  0
 14 15  1  0  0  0  0
 14 17  2  0  0  0  0
 15 16  1  0  0  0  0
 15 39  1  0  0  0  0
 15 40  1  0  0  0  0
 16 41  1  0  0  0  0
 17 18  1  0  0  0  0
 18 23  2  0  0  0  0
 18 19  1  0  0  0  0
 19 20  2  0  0  0  0
 19 42  1  0  0  0  0
 20 21  1  0  0  0  0
 20 43  1  0  0  0  0
 21 22  2  0  0  0  0
 21 44  1  0  0  0  0
 22 23  1  0  0  0  0
 22 45  1  0  0  0  0
 24 46  1  0  0  0  0
M  END
> <s_m_source_file>
AV-unprocessed.smi

> <i_m_source_file_index>
848

> <i_lp_mmshare_version>
43012

> <i_f3d_flags>
0

> <s_epik_input>
W0NIM11jMVtjSF1jKFtDSDNdKVtjSF1jKFtjSF0xKU9bQ0gyXVtDQEhdKFtPSF0pW0NIMl1uKGMobjIpW0NIMl1bT0hdKWMoYzIzKVtjSF1bY0hdW2NIXVtjSF0z

> <s_epik_cmdline>
J2VwaWtfcHl0aG9uJywgJy1waCcsICc3LjAnLCAnLXRuJywgJzgnLCAnLW1hJywgJzIwMCcsICctbWV0YWxfYmluZGluZycsICctaW1hZScsICc8aW5maWxlLm1hZT4nLCAnLW9tYWUnLCAnPG91dGZpbGUubWFlPic=

> <r_lp_tautomer_probability>
1

> <r_epik_Ionization_Penalty>
0.0554234

> <r_epik_Ionization_Penalty_Charging>
0

> <r_epik_Ionization_Penalty_Neutral>
0.0554234

> <r_epik_State_Penalty>
0.0476717

> <r_epik_Charging_Adjusted_Penalty>
0.0476717

> <i_epik_Tot_Q>
0

> <i_epik_Tot_abs_Q>
0

> <r_epik_Metal_State_Penalty>
4.96399e-05

> <b_epik_Metal_Only>
0

> <s_lp_Force_Field>
OPLS_2005

> <r_lp_Energy>
17.6838

> <b_lp_Chiralities_Consistent>
1

> <s_lp_Variant>
AV-unprocessed.smi:848-2

> <Gold.Version>
5.8.1

> <Gold.Id.Protein>
6NUR|6NUR_protein|mol2

> <Gold.PLP.Fitness>
50.1325

> <Gold.PLP.PLP>
-44.7786

> <Gold.PLP.part.hbond>
-2.0000

> <Gold.PLP.part.metal>
0.0000

> <Gold.PLP.part.buried>
-3.7132

> <Gold.PLP.part.nonpolar>
-39.3418

> <Gold.PLP.part.repulsive>
0.0000

> <Gold.PLP.ligand.clash>
0.0000

> <Gold.PLP.ligand.torsion>
0.3762

> <Gold.PLP.Chemscore.Hbond>
2.0000

> <Gold.PLP.Chemscore.CHOScore>
0.0000

> <Gold.PLP.Chemscore.Metal>
0.0000

> <Gold.Chemscore.Hbonds>
donor molecule, donor type, donor heavy atom, donor atom, acceptor molecule, acceptor atom, score
      P1  H  6896  6907       L1     8  0.80
      P1  H  6896  6908       L1    16  1.00

> <Gold.PLP.Chemscore.Internal.Correction>
0.1062

> <Gold.Rescore>
     Score         DG    S(hbond)    S(metal)    S(lipo)     H(rot)  DE(clash)    DE(int)     intcor
     16.28     -17.98       1.40        0.00     131.50       2.96       0.54       1.16       ----

> <Gold.Chemscore.Fitness>
16.2829

> <Gold.Chemscore.DG>
-17.9774

> <Gold.Chemscore.ZeroCoef>
-5.4800

> <Gold.Chemscore.Hbond>
1.4010

> <Gold.Chemscore.Metal>
0.0000

> <Gold.Chemscore.Lipo>
131.5026

> <Gold.Chemscore.Internal_Hbond>
0.0000

> <Gold.Chemscore.DEClash>
0.5363

> <Gold.Chemscore.DEInternal>
1.1582

> <Gold.Chemscore.Rot>
2.9561

> <Gold.Chemscore.Internal.Correction>
   9.000000E+99

> <Gold.Chemscore.Hbonds>
donor molecule, donor type, donor heavy atom, donor atom, acceptor molecule, acceptor atom, score
      P1  H  6896  6907       L1     8  0.10
      P1  H  6896  6908       L1    16  0.96

> <Gold.Chemscore.Hbond.Weighted>
-4.6793

> <Gold.Chemscore.Metal.Weighted>
-0.0000

> <Gold.Chemscore.Lipo.Weighted>
-15.3858

> <Gold.Chemscore.Internal_Hbond.Weighted>
0.0000

> <Gold.Chemscore.DEClash.Weighted>
0.5363

> <Gold.Chemscore.DEInternal.Weighted>
1.1582

> <Gold.Chemscore.Rot.Weighted>
7.5677

> <Gold.Chemscore.Internal.Correction.Weighted>
   9.000000E+99

> <Gold.Protein.RotatedTorsions>
[ 6907 6896 6895 6894 ] final  -75.75 input  -60.11 | X-H torsion
[ 7974 7965 7964 7962 ] final -114.23 input  175.53 | X-H torsion
[ 8008 7997 7996 7995 ] final -177.48 input   59.86 | X-H torsion
[ 10167 10162 10161 10158 ] final  -65.54 input  -65.29 | X-H torsion
[ 10718 10713 10712 10709 ] final   41.66 input   66.30 | X-H torsion
[ 10763 10752 10751 10750 ] final    2.86 input  -60.55 | X-H torsion
[ 11005 11000 10999 10996 ] final  -29.04 input  -57.11 | X-H torsion

> <Gold.Protein.ActiveResidues>
 VAL166  LYS551  ARG553  GLY616  TRP617  ASP618  TYR619  PRO620  LYS621  CYS622 
 ASP623  PHE694  ASN695  SER759  ASP760  ASP761  ALA762  ILE779  LEU786  VAL792 
 PHE793  MET794  SER795  GLU796  ALA797  LYS798  CYS799  TRP800  GLU811  SER814 

> <Gold.Protein.RotatedAtoms>
  150.7049  134.4675  159.5409 H   0  0  0  0  0  0  0  0  0  0  0  0  # atno 6907 bound_to 6896
  152.2338  134.8293  160.0479 H   0  0  0  0  0  0  0  0  0  0  0  0  # atno 6908 bound_to 6896
  151.9100  133.3524  159.3897 H   0  0  0  0  0  0  0  0  0  0  0  0  # atno 6909 bound_to 6896
  145.1226  140.8678  143.3805 H   0  0  0  0  0  0  0  0  0  0  0  0  # atno 7974 bound_to 7965
  156.0075  140.1233  157.0487 H   0  0  0  0  0  0  0  0  0  0  0  0  # atno 8008 bound_to 7997
  154.4264  140.1094  156.5852 H   0  0  0  0  0  0  0  0  0  0  0  0  # atno 8009 bound_to 7997
  155.6126  140.3471  155.4629 H   0  0  0  0  0  0  0  0  0  0  0  0  # atno 8010 bound_to 7997
  140.5722  143.2319  151.6515 H   0  0  0  0  0  0  0  0  0  0  0  0  # atno 10167 bound_to 10162
  157.3960  130.7833  149.7309 H   0  0  0  0  0  0  0  0  0  0  0  0  # atno 10718 bound_to 10713
  153.2904  135.6948  153.7298 H   0  0  0  0  0  0  0  0  0  0  0  0  # atno 10763 bound_to 10752
  153.6251  135.3420  155.3024 H   0  0  0  0  0  0  0  0  0  0  0  0  # atno 10764 bound_to 10752
  154.8522  135.4395  154.1985 H   0  0  0  0  0  0  0  0  0  0  0  0  # atno 10765 bound_to 10752
  140.9262  133.7367  156.0870 H   0  0  0  0  0  0  0  0  0  0  0  0  # atno 11005 bound_to 11000
  145.0723  139.3022  143.5825 LP  0  0  0  0  0  0  0  0  0  0  0  0  # atno 17320 bound_to 7965
  146.3520  140.0202  142.8659 LP  0  0  0  0  0  0  0  0  0  0  0  0  # atno 17321 bound_to 7965
  139.5123  144.3479  152.0679 LP  0  0  0  0  0  0  0  0  0  0  0  0  # atno 17342 bound_to 10162
  140.2618  144.4059  150.6183 LP  0  0  0  0  0  0  0  0  0  0  0  0  # atno 17343 bound_to 10162
  155.9810  130.4023  150.3493 LP  0  0  0  0  0  0  0  0  0  0  0  0  # atno 17370 bound_to 10713
  157.1615  131.0346  151.2838 LP  0  0  0  0  0  0  0  0  0  0  0  0  # atno 17371 bound_to 10713
  140.7923  134.3603  157.5461 LP  0  0  0  0  0  0  0  0  0  0  0  0  # atno 17394 bound_to 11000
  139.8786  134.9148  156.3115 LP  0  0  0  0  0  0  0  0  0  0  0  0  # atno 17395 bound_to 11000

$$$$
