AV-unprocessed.smi:73|AV-procd|sdf|762|dock8
  -GOLD-   2262017103D 1   1.00000     0.00000
 Structure written by MMmdl.
 35 36  0  0  0  0  0  0  0  0  2 V2000
  150.9063  138.6456  155.1816 C   0  0  0  0  0  0  0  0  0  0  0  0
  151.2665  140.1155  155.4505 C   0  0  0  0  0  0  0  0  0  0  0  0
  150.2804  140.9031  156.2185 N   0  0  0  0  0  0  0  0  0  0  0  0
  150.3428  140.4876  157.6314 C   0  0  0  0  0  0  0  0  0  0  0  0
  151.7282  140.4750  158.1970 C   0  0  0  0  0  0  0  0  0  0  0  0
  152.7484  139.6965  157.8275 N   0  0  0  0  0  0  0  0  0  0  0  0
  153.8032  140.0523  158.6384 N   0  0  0  0  0  0  0  0  0  0  0  0
  153.3399  141.0194  159.4339 C   0  0  0  0  0  0  0  0  0  0  0  0
  154.0860  141.7547  160.4938 C   0  0  0  0  0  0  0  0  0  0  0  0
  152.0386  141.3329  159.2029 O   0  0  0  0  0  0  0  0  0  0  0  0
  148.8975  140.7543  155.7089 C   0  0  1  0  0  0  0  0  0  0  0  0
  147.8637  141.6487  156.4520 C   0  0  0  0  0  0  0  0  0  0  0  0
  147.1827  142.4898  155.4558 N   0  3  0  0  0  0  0  0  0  0  0  0
  147.2932  141.7936  154.1755 C   0  0  0  0  0  0  0  0  0  0  0  0
  148.6726  141.1453  154.2282 C   0  0  2  0  0  0  0  0  0  0  0  0
  148.6893  140.0168  153.3777 O   0  0  0  0  0  0  0  0  0  0  0  0
  149.3984  141.8921  153.9072 H   0  0  0  0  0  0  0  0  0  0  0  0
  151.5294  138.2499  154.3793 H   0  0  0  0  0  0  0  0  0  0  0  0
  149.8677  138.5461  154.8645 H   0  0  0  0  0  0  0  0  0  0  0  0
  151.0682  137.9974  156.0390 H   0  0  0  0  0  0  0  0  0  0  0  0
  152.2513  140.1854  155.9143 H   0  0  0  0  0  0  0  0  0  0  0  0
  151.3970  140.5525  154.4607 H   0  0  0  0  0  0  0  0  0  0  0  0
  149.7633  141.1481  158.2728 H   0  0  0  0  0  0  0  0  0  0  0  0
  149.9013  139.4967  157.7497 H   0  0  0  0  0  0  0  0  0  0  0  0
  154.8093  141.0941  160.9725 H   0  0  0  0  0  0  0  0  0  0  0  0
  153.3977  142.1274  161.2530 H   0  0  0  0  0  0  0  0  0  0  0  0
  154.6176  142.5997  160.0560 H   0  0  0  0  0  0  0  0  0  0  0  0
  148.5823  139.7174  155.8420 H   0  0  0  0  0  0  0  0  0  0  0  0
  147.1268  141.0274  156.9623 H   0  0  0  0  0  0  0  0  0  0  0  0
  148.3084  142.3151  157.1911 H   0  0  0  0  0  0  0  0  0  0  0  0
  146.2201  142.6645  155.7070 H   0  0  0  0  0  0  0  0  0  0  0  0
  146.5061  141.0389  154.1275 H   0  0  0  0  0  0  0  0  0  0  0  0
  147.1708  142.4703  153.3293 H   0  0  0  0  0  0  0  0  0  0  0  0
  149.3279  140.1630  152.6959 H   0  0  0  0  0  0  0  0  0  0  0  0
  147.6844  143.3636  155.3842 H   0  0  0  0  0  0  0  0  0  0  0  0
  1  2  1  0  0  0  0
  1 18  1  0  0  0  0
  1 19  1  0  0  0  0
  1 20  1  0  0  0  0
  2  3  1  0  0  0  0
  2 21  1  0  0  0  0
  2 22  1  0  0  0  0
  3  4  1  0  0  0  0
  3 11  1  0  0  0  0
  4  5  1  0  0  0  0
  4 23  1  0  0  0  0
  4 24  1  0  0  0  0
  5 10  1  0  0  0  0
  5  6  2  0  0  0  0
  6  7  1  0  0  0  0
  7  8  2  0  0  0  0
  8  9  1  0  0  0  0
  8 10  1  0  0  0  0
  9 25  1  0  0  0  0
  9 26  1  0  0  0  0
  9 27  1  0  0  0  0
 11 15  1  0  0  0  0
 11 12  1  0  0  0  0
 11 28  1  0  0  0  0
 12 13  1  0  0  0  0
 12 29  1  0  0  0  0
 12 30  1  0  0  0  0
 13 14  1  0  0  0  0
 13 31  1  0  0  0  0
 13 35  1  0  0  0  0
 14 15  1  0  0  0  0
 14 32  1  0  0  0  0
 14 33  1  0  0  0  0
 15 17  1  0  0  0  0
 15 16  1  0  0  0  0
 16 34  1  0  0  0  0
M  CHG  1  13   1
M  END
> <s_m_source_file>
AV-unprocessed.smi

> <i_m_source_file_index>
73

> <i_lp_mmshare_version>
43012

> <i_f3d_flags>
0

> <s_epik_input>
W09IXVtDQEBIXTFbQ0gyXVtOSF1bQ0gyXVtDQEhdMU4oW0NIMl1bQ0gzXSlbQ0gyXWMybm5jKG8yKVtDSDNd

> <s_epik_cmdline>
J2VwaWtfcHl0aG9uJywgJy1waCcsICc3LjAnLCAnLXRuJywgJzgnLCAnLW1hJywgJzIwMCcsICctbWV0YWxfYmluZGluZycsICctaW1hZScsICc8aW5maWxlLm1hZT4nLCAnLW9tYWUnLCAnPG91dGZpbGUubWFlPic=

> <r_lp_tautomer_probability>
1

> <r_epik_Ionization_Penalty>
0.00160433

> <r_epik_Ionization_Penalty_Charging>
0.000122314

> <r_epik_Ionization_Penalty_Neutral>
0.00148202

> <r_epik_State_Penalty>
-0

> <r_epik_Charging_Adjusted_Penalty>
0.000122314

> <i_epik_Tot_Q>
1

> <i_epik_Tot_abs_Q>
1

> <r_epik_Metal_State_Penalty>
-0

> <b_epik_Metal_Only>
0

> <s_lp_Force_Field>
OPLS_2005

> <r_lp_Energy>
41.961

> <b_lp_Chiralities_Consistent>
1

> <s_lp_Variant>
AV-unprocessed.smi:73-4

> <Gold.Version>
5.8.1

> <Gold.Id.Protein>
6NUR|6NUR_protein|mol2

> <Gold.PLP.Fitness>
38.5836

> <Gold.PLP.PLP>
-27.1494

> <Gold.PLP.part.hbond>
-3.2316

> <Gold.PLP.part.metal>
0.0000

> <Gold.PLP.part.buried>
-2.8900

> <Gold.PLP.part.nonpolar>
-20.3745

> <Gold.PLP.part.repulsive>
0.1287

> <Gold.PLP.ligand.clash>
0.0000

> <Gold.PLP.ligand.torsion>
0.1418

> <Gold.PLP.Chemscore.Hbond>
3.8968

> <Gold.PLP.Chemscore.CHOScore>
0.0000

> <Gold.PLP.Chemscore.Metal>
0.0000

> <Gold.Chemscore.Hbonds>
donor molecule, donor type, donor heavy atom, donor atom, acceptor molecule, acceptor atom, score
      L1  H    13    35       P1  8028  2.00
      L1  H    16    34       P1  7957  0.90
      P1  H  7997  8008       L1     7  0.59

> <Gold.PLP.Chemscore.Internal.Correction>
0.0275

> <Gold.Rescore>
     Score         DG    S(hbond)    S(metal)    S(lipo)     H(rot)  DE(clash)    DE(int)     intcor
     10.43     -11.87       2.13        0.00      48.56       2.51       0.02       1.42       ----

> <Gold.Chemscore.Fitness>
10.4312

> <Gold.Chemscore.DG>
-11.8696

> <Gold.Chemscore.ZeroCoef>
-5.4800

> <Gold.Chemscore.Hbond>
2.1322

> <Gold.Chemscore.Metal>
0.0000

> <Gold.Chemscore.Lipo>
48.5583

> <Gold.Chemscore.Internal_Hbond>
0.0000

> <Gold.Chemscore.DEClash>
0.0203

> <Gold.Chemscore.DEInternal>
1.4181

> <Gold.Chemscore.Rot>
2.5051

> <Gold.Chemscore.Internal.Correction>
   9.000000E+99

> <Gold.Chemscore.Hbonds>
donor molecule, donor type, donor heavy atom, donor atom, acceptor molecule, acceptor atom, score
      L1  H    13    35       P1  8028  0.26
      L1  H    16    34       P1  7957  0.85
      P1  H  7997  8008       L1     7  0.05

> <Gold.Chemscore.Hbond.Weighted>
-7.1214

> <Gold.Chemscore.Metal.Weighted>
-0.0000

> <Gold.Chemscore.Lipo.Weighted>
-5.6813

> <Gold.Chemscore.Internal_Hbond.Weighted>
0.0000

> <Gold.Chemscore.DEClash.Weighted>
0.0203

> <Gold.Chemscore.DEInternal.Weighted>
1.4181

> <Gold.Chemscore.Rot.Weighted>
6.4131

> <Gold.Chemscore.Internal.Correction.Weighted>
   9.000000E+99

> <Gold.Protein.RotatedTorsions>
[ 6907 6896 6895 6894 ] final  -25.92 input  -60.11 | X-H torsion
[ 7974 7965 7964 7962 ] final  -73.43 input  175.53 | X-H torsion
[ 8008 7997 7996 7995 ] final -112.49 input   59.86 | X-H torsion
[ 10167 10162 10161 10158 ] final   52.81 input  -65.29 | X-H torsion
[ 10718 10713 10712 10709 ] final   45.57 input   66.30 | X-H torsion
[ 10763 10752 10751 10750 ] final  -48.21 input  -60.55 | X-H torsion
[ 11005 11000 10999 10996 ] final  -99.13 input  -57.11 | X-H torsion

> <Gold.Protein.ActiveResidues>
 VAL166  LYS551  ARG553  GLY616  TRP617  ASP618  TYR619  PRO620  LYS621  CYS622 
 ASP623  PHE694  ASN695  SER759  ASP760  ASP761  ALA762  ILE779  LEU786  VAL792 
 PHE793  MET794  SER795  GLU796  ALA797  LYS798  CYS799  TRP800  GLU811  SER814 

> <Gold.Protein.RotatedAtoms>
  151.1682  135.0305  159.8739 H   0  0  0  0  0  0  0  0  0  0  0  0  # atno 6907 bound_to 6896
  152.5449  134.1200  159.8405 H   0  0  0  0  0  0  0  0  0  0  0  0  # atno 6908 bound_to 6896
  151.1303  133.4995  159.2632 H   0  0  0  0  0  0  0  0  0  0  0  0  # atno 6909 bound_to 6896
  145.6522  140.9279  143.0978 H   0  0  0  0  0  0  0  0  0  0  0  0  # atno 7974 bound_to 7965
  155.0060  140.0394  157.2380 H   0  0  0  0  0  0  0  0  0  0  0  0  # atno 8008 bound_to 7997
  154.7502  140.2765  155.6276 H   0  0  0  0  0  0  0  0  0  0  0  0  # atno 8009 bound_to 7997
  156.2883  140.2648  156.2253 H   0  0  0  0  0  0  0  0  0  0  0  0  # atno 8010 bound_to 7997
  140.2475  144.3516  150.6359 H   0  0  0  0  0  0  0  0  0  0  0  0  # atno 10167 bound_to 10162
  157.4389  130.8069  149.7675 H   0  0  0  0  0  0  0  0  0  0  0  0  # atno 10718 bound_to 10713
  154.0741  135.6600  153.4828 H   0  0  0  0  0  0  0  0  0  0  0  0  # atno 10763 bound_to 10752
  153.0380  135.5164  154.7538 H   0  0  0  0  0  0  0  0  0  0  0  0  # atno 10764 bound_to 10752
  154.6613  135.3015  154.9830 H   0  0  0  0  0  0  0  0  0  0  0  0  # atno 10765 bound_to 10752
  141.1320  133.8298  157.0930 H   0  0  0  0  0  0  0  0  0  0  0  0  # atno 11005 bound_to 11000
  144.7118  139.8342  143.7412 LP  0  0  0  0  0  0  0  0  0  0  0  0  # atno 17320 bound_to 7965
  146.1194  139.4210  143.0238 LP  0  0  0  0  0  0  0  0  0  0  0  0  # atno 17321 bound_to 7965
  140.6066  143.2168  151.6968 LP  0  0  0  0  0  0  0  0  0  0  0  0  # atno 17342 bound_to 10162
  139.5057  144.3708  152.0472 LP  0  0  0  0  0  0  0  0  0  0  0  0  # atno 17343 bound_to 10162
  155.9941  130.3920  150.2872 LP  0  0  0  0  0  0  0  0  0  0  0  0  # atno 17370 bound_to 10713
  157.1036  131.0202  151.3076 LP  0  0  0  0  0  0  0  0  0  0  0  0  # atno 17371 bound_to 10713
  140.0380  134.9868  157.0908 LP  0  0  0  0  0  0  0  0  0  0  0  0  # atno 17394 bound_to 11000
  140.4180  134.1911  155.7164 LP  0  0  0  0  0  0  0  0  0  0  0  0  # atno 17395 bound_to 11000

$$$$
