AV-unprocessed.smi:907|AV-procd|sdf|4106|dock4
  -GOLD-   22720 2 03D 1   1.00000     0.00000
 Structure written by MMmdl.
 53 56  0  0  0  0  0  0  0  0  2 V2000
  149.7544  138.4336  156.6532 O   0  0  0  0  0  0  0  0  0  0  0  0
  148.8720  139.1682  157.0988 C   0  0  0  0  0  0  0  0  0  0  0  0
  147.8726  138.7013  157.8668 N   0  0  0  0  0  0  0  0  0  0  0  0
  147.7167  137.3122  158.2838 C   0  0  0  0  0  0  0  0  0  0  0  0
  148.6332  136.9710  159.4708 C   0  0  0  0  0  0  0  0  0  0  0  0
  147.8621  136.3994  160.6451 C   0  0  0  0  0  0  0  0  0  0  0  0
  147.2117  135.1517  160.5377 C   0  0  0  0  0  0  0  0  0  0  0  0
  146.5141  134.6601  161.6579 C   0  0  0  0  0  0  0  0  0  0  0  0
  146.4956  135.4304  162.8365 C   0  0  0  0  0  0  0  0  0  0  0  0
  147.1784  136.6632  162.8424 C   0  0  0  0  0  0  0  0  0  0  0  0
  147.8501  137.1440  161.7738 N   0  0  0  0  0  0  0  0  0  0  0  0
  148.7927  140.4902  156.8058 N   0  0  0  0  0  0  0  0  0  0  0  0
  148.2669  141.5414  157.6862 C   0  0  0  0  0  0  0  0  0  0  0  0
  149.4482  142.3402  158.2681 C   0  0  0  0  0  0  0  0  0  0  0  0
  150.3224  142.8994  157.1960 N   0  3  0  0  0  0  0  0  0  0  0  0
  151.4734  143.6741  157.7429 C   0  0  2  0  0  0  0  0  0  0  0  0
  152.1312  143.0419  158.9942 C   0  0  0  0  0  0  0  0  0  0  0  0
  152.2054  144.2199  159.9843 C   0  0  2  0  0  0  0  0  0  0  0  0
  150.8003  144.4768  160.5549 C   0  0  0  0  0  0  0  0  0  0  0  0
  150.0545  145.0732  159.3481 C   0  0  0  0  0  0  0  0  0  0  0  0
  151.1384  145.1004  158.2479 C   0  0  1  0  0  0  0  0  0  0  0  0
  152.3885  145.4189  159.0614 C   0  0  0  0  0  0  0  0  0  0  0  0
  150.7287  141.8620  156.2043 C   0  0  0  0  0  0  0  0  0  0  0  0
  149.5149  141.0774  155.6752 C   0  0  0  0  0  0  0  0  0  0  0  0
  147.1661  139.3522  158.1771 H   0  0  0  0  0  0  0  0  0  0  0  0
  146.6740  137.1139  158.5375 H   0  0  0  0  0  0  0  0  0  0  0  0
  147.9550  136.6731  157.4331 H   0  0  0  0  0  0  0  0  0  0  0  0
  149.3936  136.2521  159.1624 H   0  0  0  0  0  0  0  0  0  0  0  0
  149.1707  137.8605  159.8021 H   0  0  0  0  0  0  0  0  0  0  0  0
  147.2466  134.5823  159.6204 H   0  0  0  0  0  0  0  0  0  0  0  0
  146.0036  133.7096  161.6136 H   0  0  0  0  0  0  0  0  0  0  0  0
  145.9716  135.0846  163.7151 H   0  0  0  0  0  0  0  0  0  0  0  0
  147.1848  137.2794  163.7291 H   0  0  0  0  0  0  0  0  0  0  0  0
  147.6201  142.2018  157.1066 H   0  0  0  0  0  0  0  0  0  0  0  0
  147.6444  141.1660  158.4984 H   0  0  0  0  0  0  0  0  0  0  0  0
  149.0570  143.1378  158.8983 H   0  0  0  0  0  0  0  0  0  0  0  0
  150.0426  141.6934  158.9156 H   0  0  0  0  0  0  0  0  0  0  0  0
  152.2229  143.7602  156.9536 H   0  0  0  0  0  0  0  0  0  0  0  0
  151.5589  142.2158  159.4178 H   0  0  0  0  0  0  0  0  0  0  0  0
  153.1266  142.6668  158.7534 H   0  0  0  0  0  0  0  0  0  0  0  0
  152.9725  144.1028  160.7502 H   0  0  0  0  0  0  0  0  0  0  0  0
  150.3286  143.5683  160.9312 H   0  0  0  0  0  0  0  0  0  0  0  0
  150.8402  145.1957  161.3745 H   0  0  0  0  0  0  0  0  0  0  0  0
  149.1791  144.4865  159.0699 H   0  0  0  0  0  0  0  0  0  0  0  0
  149.7133  146.0838  159.5761 H   0  0  0  0  0  0  0  0  0  0  0  0
  150.9370  145.8157  157.4501 H   0  0  0  0  0  0  0  0  0  0  0  0
  152.3360  146.3772  159.5817 H   0  0  0  0  0  0  0  0  0  0  0  0
  153.3104  145.3796  158.4783 H   0  0  0  0  0  0  0  0  0  0  0  0
  151.2373  142.3214  155.3574 H   0  0  0  0  0  0  0  0  0  0  0  0
  151.4394  141.1764  156.6685 H   0  0  0  0  0  0  0  0  0  0  0  0
  149.8386  140.3298  154.9493 H   0  0  0  0  0  0  0  0  0  0  0  0
  148.8467  141.7451  155.1291 H   0  0  0  0  0  0  0  0  0  0  0  0
  149.7538  143.5599  156.6855 H   0  0  0  0  0  0  0  0  0  0  0  0
  1  2  2  0  0  0  0
  2  3  1  0  0  0  0
  2 12  1  0  0  0  0
  3  4  1  0  0  0  0
  3 25  1  0  0  0  0
  4  5  1  0  0  0  0
  4 26  1  0  0  0  0
  4 27  1  0  0  0  0
  5  6  1  0  0  0  0
  5 28  1  0  0  0  0
  5 29  1  0  0  0  0
  6 11  1  0  0  0  0
  6  7  2  0  0  0  0
  7  8  1  0  0  0  0
  7 30  1  0  0  0  0
  8  9  2  0  0  0  0
  8 31  1  0  0  0  0
  9 10  1  0  0  0  0
  9 32  1  0  0  0  0
 10 11  2  0  0  0  0
 10 33  1  0  0  0  0
 12 24  1  0  0  0  0
 12 13  1  0  0  0  0
 13 14  1  0  0  0  0
 13 34  1  0  0  0  0
 13 35  1  0  0  0  0
 14 15  1  0  0  0  0
 14 36  1  0  0  0  0
 14 37  1  0  0  0  0
 15 16  1  0  0  0  0
 15 23  1  0  0  0  0
 15 53  1  0  0  0  0
 16 21  1  0  0  0  0
 16 17  1  0  0  0  0
 16 38  1  0  0  0  0
 17 18  1  0  0  0  0
 17 39  1  0  0  0  0
 17 40  1  0  0  0  0
 18 22  1  0  0  0  0
 18 19  1  0  0  0  0
 18 41  1  0  0  0  0
 19 20  1  0  0  0  0
 19 42  1  0  0  0  0
 19 43  1  0  0  0  0
 20 21  1  0  0  0  0
 20 44  1  0  0  0  0
 20 45  1  0  0  0  0
 21 22  1  0  0  0  0
 21 46  1  0  0  0  0
 22 47  1  0  0  0  0
 22 48  1  0  0  0  0
 23 24  1  0  0  0  0
 23 49  1  0  0  0  0
 23 50  1  0  0  0  0
 24 51  1  0  0  0  0
 24 52  1  0  0  0  0
M  CHG  1  15   1
M  END
> <s_m_source_file>
AV-unprocessed.smi

> <i_m_source_file_index>
907

> <i_lp_mmshare_version>
43012

> <i_f3d_flags>
0

> <s_epik_input>
W0NIMl0xW0NIMl1bQ0BASF0oW0NIMl0yKVtDQEBIXShbQ0gyXVtDQEhdMTIpTihbQ0gyXVtDSDJdMylbQ0gyXVtDSDJdTjNDKD1PKVtOSF1bQ0gyXVtDSDJdYzRbY0hdW2NIXVtjSF1bY0hdbjQ=

> <s_epik_cmdline>
J2VwaWtfcHl0aG9uJywgJy1waCcsICc3LjAnLCAnLXRuJywgJzgnLCAnLW1hJywgJzIwMCcsICctbWV0YWxfYmluZGluZycsICctaW1hZScsICc8aW5maWxlLm1hZT4nLCAnLW9tYWUnLCAnPG91dGZpbGUubWFlPic=

> <r_epik_Ionization_Penalty>
0.0419258

> <r_epik_Ionization_Penalty_Charging>
0.00262064

> <r_epik_Ionization_Penalty_Neutral>
0.0393052

> <r_epik_State_Penalty>
0.0329887

> <r_epik_Charging_Adjusted_Penalty>
0.0356093

> <i_epik_Tot_Q>
1

> <i_epik_Tot_abs_Q>
1

> <r_epik_Metal_State_Penalty>
0.0309172

> <b_epik_Metal_Only>
0

> <s_lp_Force_Field>
OPLS_2005

> <r_lp_Energy>
94.5265

> <b_lp_Chiralities_Consistent>
1

> <s_lp_Variant>
AV-unprocessed.smi:907-1

> <Gold.Version>
5.8.1

> <Gold.Id.Protein>
6NUR|6NUR_protein|mol2

> <Gold.PLP.Fitness>
57.1063

> <Gold.PLP.PLP>
-50.6069

> <Gold.PLP.part.hbond>
-2.3109

> <Gold.PLP.part.metal>
0.0000

> <Gold.PLP.part.buried>
-7.6919

> <Gold.PLP.part.nonpolar>
-40.8242

> <Gold.PLP.part.repulsive>
0.1197

> <Gold.PLP.ligand.clash>
0.0000

> <Gold.PLP.ligand.torsion>
1.3130

> <Gold.PLP.Chemscore.Hbond>
3.0000

> <Gold.PLP.Chemscore.CHOScore>
0.0000

> <Gold.PLP.Chemscore.Metal>
0.0000

> <Gold.Chemscore.Hbonds>
donor molecule, donor type, donor heavy atom, donor atom, acceptor molecule, acceptor atom, score
      L1  H    15    53       P1  8028  2.00
      P1  H  6931  6943       L1    11  1.00
      P1  H  6934  6947       L1    11  0.44

> <Gold.PLP.Chemscore.Internal.Correction>
0.1254

> <Gold.Rescore>
     Score         DG    S(hbond)    S(metal)    S(lipo)     H(rot)  DE(clash)    DE(int)     intcor
     22.70     -25.03       2.00        0.00     139.94       1.37       0.07       2.26       ----

> <Gold.Chemscore.Fitness>
22.7031

> <Gold.Chemscore.DG>
-25.0335

> <Gold.Chemscore.ZeroCoef>
-5.4800

> <Gold.Chemscore.Hbond>
2.0049

> <Gold.Chemscore.Metal>
0.0000

> <Gold.Chemscore.Lipo>
139.9351

> <Gold.Chemscore.Internal_Hbond>
0.0000

> <Gold.Chemscore.DEClash>
0.0727

> <Gold.Chemscore.DEInternal>
2.2576

> <Gold.Chemscore.Rot>
1.3731

> <Gold.Chemscore.Internal.Correction>
   9.000000E+99

> <Gold.Chemscore.Hbonds>
donor molecule, donor type, donor heavy atom, donor atom, acceptor molecule, acceptor atom, score
      L1  H    15    53       P1  8028  1.00
      P1  H  6931  6943       L1    11  0.90
      P1  H  6934  6947       L1    11  0.11

> <Gold.Chemscore.Hbond.Weighted>
-6.6963

> <Gold.Chemscore.Metal.Weighted>
-0.0000

> <Gold.Chemscore.Lipo.Weighted>
-16.3724

> <Gold.Chemscore.Internal_Hbond.Weighted>
0.0000

> <Gold.Chemscore.DEClash.Weighted>
0.0727

> <Gold.Chemscore.DEInternal.Weighted>
2.2576

> <Gold.Chemscore.Rot.Weighted>
3.5152

> <Gold.Chemscore.Internal.Correction.Weighted>
   9.000000E+99

> <Gold.Protein.RotatedTorsions>
[ 6907 6896 6895 6894 ] final   27.36 input  -60.11 | X-H torsion
[ 7974 7965 7964 7962 ] final  -74.83 input  175.53 | X-H torsion
[ 8008 7997 7996 7995 ] final   -5.73 input   59.86 | X-H torsion
[ 10167 10162 10161 10158 ] final   86.93 input  -65.29 | X-H torsion
[ 10718 10713 10712 10709 ] final  147.73 input   66.30 | X-H torsion
[ 10763 10752 10751 10750 ] final -139.56 input  -60.55 | X-H torsion
[ 11005 11000 10999 10996 ] final    3.71 input  -57.11 | X-H torsion

> <Gold.Protein.ActiveResidues>
 VAL166  LYS551  ARG553  GLY616  TRP617  ASP618  TYR619  PRO620  LYS621  CYS622 
 ASP623  PHE694  ASN695  SER759  ASP760  ASP761  ALA762  ILE779  LEU786  VAL792 
 PHE793  MET794  SER795  GLU796  ALA797  LYS798  CYS799  TRP800  GLU811  SER814 

> <Gold.Protein.RotatedAtoms>
  152.0012  134.9927  160.0564 H   0  0  0  0  0  0  0  0  0  0  0  0  # atno 6907 bound_to 6896
  152.1518  133.4522  159.4825 H   0  0  0  0  0  0  0  0  0  0  0  0  # atno 6908 bound_to 6896
  150.6876  134.2098  159.4398 H   0  0  0  0  0  0  0  0  0  0  0  0  # atno 6909 bound_to 6896
  145.6340  140.9330  143.1072 H   0  0  0  0  0  0  0  0  0  0  0  0  # atno 7974 bound_to 7965
  154.6009  140.2451  155.7794 H   0  0  0  0  0  0  0  0  0  0  0  0  # atno 8008 bound_to 7997
  156.2310  140.2966  156.0141 H   0  0  0  0  0  0  0  0  0  0  0  0  # atno 8009 bound_to 7997
  155.2213  140.0400  157.2939 H   0  0  0  0  0  0  0  0  0  0  0  0  # atno 8010 bound_to 7997
  139.8825  144.6432  150.8827 H   0  0  0  0  0  0  0  0  0  0  0  0  # atno 10167 bound_to 10162
  157.3174  131.0898  151.1268 H   0  0  0  0  0  0  0  0  0  0  0  0  # atno 10718 bound_to 10713
  154.8605  135.3579  154.5565 H   0  0  0  0  0  0  0  0  0  0  0  0  # atno 10763 bound_to 10752
  153.6182  135.7007  153.5325 H   0  0  0  0  0  0  0  0  0  0  0  0  # atno 10764 bound_to 10752
  153.3151  135.4167  155.1330 H   0  0  0  0  0  0  0  0  0  0  0  0  # atno 10765 bound_to 10752
  140.5900  133.9933  155.8085 H   0  0  0  0  0  0  0  0  0  0  0  0  # atno 11005 bound_to 11000
  144.7183  139.8120  143.7391 LP  0  0  0  0  0  0  0  0  0  0  0  0  # atno 17320 bound_to 7965
  146.1334  139.4374  143.0154 LP  0  0  0  0  0  0  0  0  0  0  0  0  # atno 17321 bound_to 7965
  140.7742  143.3574  151.1894 LP  0  0  0  0  0  0  0  0  0  0  0  0  # atno 17342 bound_to 10162
  139.7183  143.9265  152.2975 LP  0  0  0  0  0  0  0  0  0  0  0  0  # atno 17343 bound_to 10162
  157.2566  130.6639  149.5955 LP  0  0  0  0  0  0  0  0  0  0  0  0  # atno 17370 bound_to 10713
  155.9683  130.4521  150.5763 LP  0  0  0  0  0  0  0  0  0  0  0  0  # atno 17371 bound_to 10713
  141.0941  133.9871  157.3189 LP  0  0  0  0  0  0  0  0  0  0  0  0  # atno 17394 bound_to 11000
  139.9278  135.0201  156.8296 LP  0  0  0  0  0  0  0  0  0  0  0  0  # atno 17395 bound_to 11000

$$$$
