AV-unprocessed.smi:1179|AV-procd|sdf|4959|dock9
  -GOLD-   22720 3553D 1   1.00000     0.00000
 Structure written by MMmdl.
 47 48  0  0  0  0  0  0  0  0  2 V2000
  151.9964  138.9562  155.8612 C   0  0  0  0  0  0  0  0  0  0  0  0
  150.8682  139.9116  156.1171 C   0  0  0  0  0  0  0  0  0  0  0  0
  150.4229  140.4377  157.3621 C   0  0  0  0  0  0  0  0  0  0  0  0
  149.3752  141.2501  157.0305 C   0  0  0  0  0  0  0  0  0  0  0  0
  148.4914  142.0854  157.8973 C   0  0  0  0  0  0  0  0  0  0  0  0
  149.2359  141.1838  155.6555 N   0  0  0  0  0  0  0  0  0  0  0  0
  148.2769  141.8608  154.7959 C   0  0  0  0  0  0  0  0  0  0  0  0
  147.2390  140.8841  154.2396 C   0  0  0  0  0  0  0  0  0  0  0  0
  146.0957  140.8735  154.6956 O   0  0  0  0  0  0  0  0  0  0  0  0
  147.6485  140.0667  153.2568 N   0  0  0  0  0  0  0  0  0  0  0  0
  146.8168  139.0661  152.6005 C   0  0  0  0  0  0  0  0  0  0  0  0
  146.5016  137.8857  153.5403 C   0  0  0  0  0  0  0  0  0  0  0  0
  146.6084  136.5730  152.8547 N   0  3  2  0  0  0  0  0  0  0  0  0
  145.8501  136.5422  151.5775 C   0  0  0  0  0  0  0  0  0  0  0  0
  146.0935  135.2269  150.8156 C   0  0  0  0  0  0  0  0  0  0  0  0
  145.7650  133.9881  151.6685 C   0  0  2  0  0  0  0  0  0  0  0  0
  144.2520  133.7631  151.8352 C   0  0  0  0  0  0  0  0  0  0  0  0
  146.5044  134.0830  153.0154 C   0  0  0  0  0  0  0  0  0  0  0  0
  146.2495  135.4236  153.7278 C   0  0  0  0  0  0  0  0  0  0  0  0
  150.1551  140.3643  155.0991 N   0  0  0  0  0  0  0  0  0  0  0  0
  152.4189  138.5855  156.7953 H   0  0  0  0  0  0  0  0  0  0  0  0
  152.7988  139.4379  155.3022 H   0  0  0  0  0  0  0  0  0  0  0  0
  151.6593  138.0936  155.2857 H   0  0  0  0  0  0  0  0  0  0  0  0
  150.8136  140.2461  158.3505 H   0  0  0  0  0  0  0  0  0  0  0  0
  148.7768  141.9961  158.9457 H   0  0  0  0  0  0  0  0  0  0  0  0
  147.4507  141.7737  157.8062 H   0  0  0  0  0  0  0  0  0  0  0  0
  148.5569  143.1378  157.6209 H   0  0  0  0  0  0  0  0  0  0  0  0
  147.7764  142.6505  155.3588 H   0  0  0  0  0  0  0  0  0  0  0  0
  148.8120  142.3460  153.9789 H   0  0  0  0  0  0  0  0  0  0  0  0
  148.6061  140.1475  152.9439 H   0  0  0  0  0  0  0  0  0  0  0  0
  145.8908  139.5490  152.2878 H   0  0  0  0  0  0  0  0  0  0  0  0
  147.3163  138.7338  151.6901 H   0  0  0  0  0  0  0  0  0  0  0  0
  147.1520  137.8926  154.4163 H   0  0  0  0  0  0  0  0  0  0  0  0
  145.4844  138.0164  153.9130 H   0  0  0  0  0  0  0  0  0  0  0  0
  144.7865  136.6792  151.7777 H   0  0  0  0  0  0  0  0  0  0  0  0
  146.1599  137.3765  150.9470 H   0  0  0  0  0  0  0  0  0  0  0  0
  145.5129  135.2149  149.8924 H   0  0  0  0  0  0  0  0  0  0  0  0
  147.1409  135.1838  150.5133 H   0  0  0  0  0  0  0  0  0  0  0  0
  146.1496  133.1132  151.1421 H   0  0  0  0  0  0  0  0  0  0  0  0
  143.7667  134.5900  152.3526 H   0  0  0  0  0  0  0  0  0  0  0  0
  144.0537  132.8556  152.4064 H   0  0  0  0  0  0  0  0  0  0  0  0
  143.7657  133.6500  150.8660 H   0  0  0  0  0  0  0  0  0  0  0  0
  146.2173  133.2538  153.6633 H   0  0  0  0  0  0  0  0  0  0  0  0
  147.5759  133.9727  152.8428 H   0  0  0  0  0  0  0  0  0  0  0  0
  146.8371  135.4455  154.6444 H   0  0  0  0  0  0  0  0  0  0  0  0
  145.2040  135.5034  154.0288 H   0  0  0  0  0  0  0  0  0  0  0  0
  147.5804  136.4609  152.6044 H   0  0  0  0  0  0  0  0  0  0  0  0
  1  2  1  0  0  0  0
  1 21  1  0  0  0  0
  1 22  1  0  0  0  0
  1 23  1  0  0  0  0
  2 20  2  0  0  0  0
  2  3  1  0  0  0  0
  3  4  2  0  0  0  0
  3 24  1  0  0  0  0
  4  5  1  0  0  0  0
  4  6  1  0  0  0  0
  5 25  1  0  0  0  0
  5 26  1  0  0  0  0
  5 27  1  0  0  0  0
  6  7  1  0  0  0  0
  6 20  1  0  0  0  0
  7  8  1  0  0  0  0
  7 28  1  0  0  0  0
  7 29  1  0  0  0  0
  8  9  2  0  0  0  0
  8 10  1  0  0  0  0
 10 11  1  0  0  0  0
 10 30  1  0  0  0  0
 11 12  1  0  0  0  0
 11 31  1  0  0  0  0
 11 32  1  0  0  0  0
 12 13  1  0  0  0  0
 12 33  1  0  0  0  0
 12 34  1  0  0  0  0
 13 19  1  0  0  0  0
 13 14  1  0  0  0  0
 13 47  1  0  0  0  0
 14 15  1  0  0  0  0
 14 35  1  0  0  0  0
 14 36  1  0  0  0  0
 15 16  1  0  0  0  0
 15 37  1  0  0  0  0
 15 38  1  0  0  0  0
 16 17  1  0  0  0  0
 16 18  1  0  0  0  0
 16 39  1  0  0  0  0
 17 40  1  0  0  0  0
 17 41  1  0  0  0  0
 17 42  1  0  0  0  0
 18 19  1  0  0  0  0
 18 43  1  0  0  0  0
 18 44  1  0  0  0  0
 19 45  1  0  0  0  0
 19 46  1  0  0  0  0
M  CHG  1  13   1
M  END
> <s_m_source_file>
AV-unprocessed.smi

> <i_m_source_file_index>
1179

> <i_lp_mmshare_version>
43012

> <i_f3d_flags>
0

> <s_epik_input>
W0NIM11jMVtjSF1jKFtDSDNdKW4objEpW0NIMl1DKD1PKVtOSF1bQ0gyXVtDSDJdTjJbQ0gyXVtDSDJdW0NIXShbQ0gzXSlbQ0gyXVtDSDJdMg==

> <s_epik_cmdline>
J2VwaWtfcHl0aG9uJywgJy1waCcsICc3LjAnLCAnLXRuJywgJzgnLCAnLW1hJywgJzIwMCcsICctbWV0YWxfYmluZGluZycsICctaW1hZScsICc8aW5maWxlLm1hZT4nLCAnLW9tYWUnLCAnPG91dGZpbGUubWFlPic=

> <r_lp_tautomer_probability>
1

> <r_epik_Ionization_Penalty>
0.00206343

> <r_epik_Ionization_Penalty_Charging>
0.00187095

> <r_epik_Ionization_Penalty_Neutral>
0.000192474

> <r_epik_State_Penalty>
-0

> <r_epik_Charging_Adjusted_Penalty>
0.00187095

> <i_epik_Tot_Q>
1

> <i_epik_Tot_abs_Q>
1

> <r_epik_Metal_State_Penalty>
-0

> <b_epik_Metal_Only>
0

> <s_lp_Force_Field>
OPLS_2005

> <r_lp_Energy>
16.047

> <b_lp_Chiralities_Consistent>
1

> <s_lp_Variant>
AV-unprocessed.smi:1179-2

> <Gold.Version>
5.8.1

> <Gold.Id.Protein>
6NUR|6NUR_protein|mol2

> <Gold.PLP.Fitness>
48.9489

> <Gold.PLP.PLP>
-38.3090

> <Gold.PLP.part.hbond>
-3.0000

> <Gold.PLP.part.metal>
0.0000

> <Gold.PLP.part.buried>
-2.2562

> <Gold.PLP.part.nonpolar>
-32.9695

> <Gold.PLP.part.repulsive>
0.3324

> <Gold.PLP.ligand.clash>
0.0000

> <Gold.PLP.ligand.torsion>
0.6907

> <Gold.PLP.Chemscore.Hbond>
4.0000

> <Gold.PLP.Chemscore.CHOScore>
0.0000

> <Gold.PLP.Chemscore.Metal>
0.0000

> <Gold.Chemscore.Hbonds>
donor molecule, donor type, donor heavy atom, donor atom, acceptor molecule, acceptor atom, score
      L1  H    10    30       P1  7957  0.69
      L1  H    13    47       P1  7948  2.00
      P1  H  7989  7998       L1    20  0.50

> <Gold.PLP.Chemscore.Internal.Correction>
0.0214

> <Gold.Rescore>
     Score         DG    S(hbond)    S(metal)    S(lipo)     H(rot)  DE(clash)    DE(int)     intcor
     18.37     -19.45       2.95        0.00      71.64       1.67       0.02       1.06       ----

> <Gold.Chemscore.Fitness>
18.3685

> <Gold.Chemscore.DG>
-19.4514

> <Gold.Chemscore.ZeroCoef>
-5.4800

> <Gold.Chemscore.Hbond>
2.9501

> <Gold.Chemscore.Metal>
0.0000

> <Gold.Chemscore.Lipo>
71.6422

> <Gold.Chemscore.Internal_Hbond>
0.0000

> <Gold.Chemscore.DEClash>
0.0203

> <Gold.Chemscore.DEInternal>
1.0625

> <Gold.Chemscore.Rot>
1.6657

> <Gold.Chemscore.Internal.Correction>
   9.000000E+99

> <Gold.Chemscore.Hbonds>
donor molecule, donor type, donor heavy atom, donor atom, acceptor molecule, acceptor atom, score
      L1  H    10    30       P1  7957  0.66
      L1  H    13    47       P1  7948  0.97
      P1  H  7989  7998       L1    20  0.26

> <Gold.Chemscore.Hbond.Weighted>
-9.8533

> <Gold.Chemscore.Metal.Weighted>
-0.0000

> <Gold.Chemscore.Lipo.Weighted>
-8.3821

> <Gold.Chemscore.Internal_Hbond.Weighted>
0.0000

> <Gold.Chemscore.DEClash.Weighted>
0.0203

> <Gold.Chemscore.DEInternal.Weighted>
1.0625

> <Gold.Chemscore.Rot.Weighted>
4.2641

> <Gold.Chemscore.Internal.Correction.Weighted>
   9.000000E+99

> <Gold.Protein.RotatedTorsions>
[ 6907 6896 6895 6894 ] final   36.93 input  -60.11 | X-H torsion
[ 7974 7965 7964 7962 ] final  -89.22 input  175.53 | X-H torsion
[ 8008 7997 7996 7995 ] final  -57.09 input   59.86 | X-H torsion
[ 10167 10162 10161 10158 ] final  -21.21 input  -65.29 | X-H torsion
[ 10718 10713 10712 10709 ] final  177.49 input   66.30 | X-H torsion
[ 10763 10752 10751 10750 ] final  157.39 input  -60.55 | X-H torsion
[ 11005 11000 10999 10996 ] final  -10.80 input  -57.11 | X-H torsion

> <Gold.Protein.ActiveResidues>
 VAL166  LYS551  ARG553  GLY616  TRP617  ASP618  TYR619  PRO620  LYS621  CYS622 
 ASP623  PHE694  ASN695  SER759  ASP760  ASP761  ALA762  ILE779  LEU786  VAL792 
 PHE793  MET794  SER795  GLU796  ALA797  LYS798  CYS799  TRP800  GLU811  SER814 

> <Gold.Protein.RotatedAtoms>
  152.1363  134.9096  160.0555 H   0  0  0  0  0  0  0  0  0  0  0  0  # atno 6907 bound_to 6896
  152.0181  133.3883  159.4255 H   0  0  0  0  0  0  0  0  0  0  0  0  # atno 6908 bound_to 6896
  150.6861  134.3578  159.4981 H   0  0  0  0  0  0  0  0  0  0  0  0  # atno 6909 bound_to 6896
  145.4427  140.9559  143.2066 H   0  0  0  0  0  0  0  0  0  0  0  0  # atno 7974 bound_to 7965
  154.4254  140.1115  156.5741 H   0  0  0  0  0  0  0  0  0  0  0  0  # atno 8008 bound_to 7997
  155.6181  140.3495  155.4624 H   0  0  0  0  0  0  0  0  0  0  0  0  # atno 8009 bound_to 7997
  156.0046  140.1206  157.0503 H   0  0  0  0  0  0  0  0  0  0  0  0  # atno 8010 bound_to 7997
  140.7281  143.4649  151.0327 H   0  0  0  0  0  0  0  0  0  0  0  0  # atno 10167 bound_to 10162
  156.9045  130.9890  151.3030 H   0  0  0  0  0  0  0  0  0  0  0  0  # atno 10718 bound_to 10713
  154.1995  135.2791  155.2995 H   0  0  0  0  0  0  0  0  0  0  0  0  # atno 10763 bound_to 10752
  154.5866  135.5573  153.7240 H   0  0  0  0  0  0  0  0  0  0  0  0  # atno 10764 bound_to 10752
  153.0091  135.6358  154.2133 H   0  0  0  0  0  0  0  0  0  0  0  0  # atno 10765 bound_to 10752
  140.7485  133.8611  155.9025 H   0  0  0  0  0  0  0  0  0  0  0  0  # atno 11005 bound_to 11000
  144.8111  139.5960  143.7029 LP  0  0  0  0  0  0  0  0  0  0  0  0  # atno 17320 bound_to 7965
  146.2547  139.6277  142.9403 LP  0  0  0  0  0  0  0  0  0  0  0  0  # atno 17321 bound_to 7965
  139.8337  143.7657  152.3180 LP  0  0  0  0  0  0  0  0  0  0  0  0  # atno 17342 bound_to 10162
  139.7781  144.7454  151.0127 LP  0  0  0  0  0  0  0  0  0  0  0  0  # atno 17343 bound_to 10162
  157.6005  130.8509  149.8795 LP  0  0  0  0  0  0  0  0  0  0  0  0  # atno 17370 bound_to 10713
  156.0565  130.3707  150.1078 LP  0  0  0  0  0  0  0  0  0  0  0  0  # atno 17371 bound_to 10713
  140.9772  134.1453  157.4526 LP  0  0  0  0  0  0  0  0  0  0  0  0  # atno 17394 bound_to 11000
  139.8792  134.9998  156.5977 LP  0  0  0  0  0  0  0  0  0  0  0  0  # atno 17395 bound_to 11000

$$$$
