AV-unprocessed.smi:3303|AV-procd|sdf|12679|dock10
  -GOLD-   2272019 13D 1   1.00000     0.00000
 Structure written by MMmdl.
 44 45  0  0  0  0  0  0  0  0  2 V2000
  146.8304  142.5281  153.9392 C   0  0  0  0  0  0  0  0  0  0  0  0
  147.5668  141.1800  154.0102 C   0  0  2  0  0  0  0  0  0  0  0  0
  146.8406  140.1710  154.9222 C   0  0  0  0  0  0  0  0  0  0  0  0
  147.5015  138.8674  154.8532 N   0  0  0  0  0  0  0  0  0  0  0  0
  146.7071  137.8518  155.5335 C   0  0  0  0  0  0  0  0  0  0  0  0
  148.9020  138.8951  155.3019 C   0  0  2  0  0  0  0  0  0  0  0  0
  149.0805  139.0961  156.8249 C   0  0  0  0  0  0  0  0  0  0  0  0
  149.6942  139.9146  154.4493 C   0  0  0  0  0  0  0  0  0  0  0  0
  149.0545  141.3206  154.3979 C   0  0  2  0  0  0  0  0  0  0  0  0
  149.2163  142.0670  155.6686 N   0  3  0  0  0  0  0  0  0  0  0  0
  150.5703  142.0337  156.2587 C   0  0  0  0  0  0  0  0  0  0  0  0
  150.5000  141.8767  157.7834 C   0  0  0  0  0  0  0  0  0  0  0  0
  150.6483  143.2046  158.5008 C   0  0  0  0  0  0  0  0  0  0  0  0
  151.7334  144.0613  158.2178 C   0  0  0  0  0  0  0  0  0  0  0  0
  151.8289  145.2774  158.9221 C   0  0  0  0  0  0  0  0  0  0  0  0
  150.8420  145.5868  159.8776 C   0  0  0  0  0  0  0  0  0  0  0  0
  149.7982  144.6636  160.0869 C   0  0  0  0  0  0  0  0  0  0  0  0
  149.6978  143.4946  159.4175 N   0  0  0  0  0  0  0  0  0  0  0  0
  146.7482  142.9978  154.9198 H   0  0  0  0  0  0  0  0  0  0  0  0
  145.8185  142.3978  153.5543 H   0  0  0  0  0  0  0  0  0  0  0  0
  147.3459  143.2232  153.2759 H   0  0  0  0  0  0  0  0  0  0  0  0
  147.5410  140.7679  152.9995 H   0  0  0  0  0  0  0  0  0  0  0  0
  146.7925  140.5307  155.9501 H   0  0  0  0  0  0  0  0  0  0  0  0
  145.8100  140.0616  154.5815 H   0  0  0  0  0  0  0  0  0  0  0  0
  147.1945  136.8783  155.4740 H   0  0  0  0  0  0  0  0  0  0  0  0
  145.7278  137.7602  155.0624 H   0  0  0  0  0  0  0  0  0  0  0  0
  146.5505  138.0977  156.5842 H   0  0  0  0  0  0  0  0  0  0  0  0
  149.3188  137.9132  155.0733 H   0  0  0  0  0  0  0  0  0  0  0  0
  150.1371  139.1883  157.0786 H   0  0  0  0  0  0  0  0  0  0  0  0
  148.6999  138.2435  157.3874 H   0  0  0  0  0  0  0  0  0  0  0  0
  148.5764  139.9848  157.2008 H   0  0  0  0  0  0  0  0  0  0  0  0
  150.7323  139.9582  154.7769 H   0  0  0  0  0  0  0  0  0  0  0  0
  149.7389  139.5312  153.4287 H   0  0  0  0  0  0  0  0  0  0  0  0
  149.5505  141.9003  153.6178 H   0  0  0  0  0  0  0  0  0  0  0  0
  148.9925  143.0341  155.4830 H   0  0  0  0  0  0  0  0  0  0  0  0
  151.1386  141.2069  155.8331 H   0  0  0  0  0  0  0  0  0  0  0  0
  151.0975  142.9545  156.0058 H   0  0  0  0  0  0  0  0  0  0  0  0
  149.5530  141.4170  158.0694 H   0  0  0  0  0  0  0  0  0  0  0  0
  151.2852  141.2012  158.1269 H   0  0  0  0  0  0  0  0  0  0  0  0
  152.4770  143.7963  157.4806 H   0  0  0  0  0  0  0  0  0  0  0  0
  152.6445  145.9599  158.7331 H   0  0  0  0  0  0  0  0  0  0  0  0
  150.8833  146.5096  160.4369 H   0  0  0  0  0  0  0  0  0  0  0  0
  149.0249  144.8690  160.8121 H   0  0  0  0  0  0  0  0  0  0  0  0
  148.5526  141.7086  156.3405 H   0  0  0  0  0  0  0  0  0  0  0  0
  1  2  1  0  0  0  0
  1 19  1  0  0  0  0
  1 20  1  0  0  0  0
  1 21  1  0  0  0  0
  2  9  1  0  0  0  0
  2  3  1  0  0  0  0
  2 22  1  0  0  0  0
  3  4  1  0  0  0  0
  3 23  1  0  0  0  0
  3 24  1  0  0  0  0
  4  5  1  0  0  0  0
  4  6  1  0  0  0  0
  5 25  1  0  0  0  0
  5 26  1  0  0  0  0
  5 27  1  0  0  0  0
  6  7  1  0  0  0  0
  6  8  1  0  0  0  0
  6 28  1  0  0  0  0
  7 29  1  0  0  0  0
  7 30  1  0  0  0  0
  7 31  1  0  0  0  0
  8  9  1  0  0  0  0
  8 32  1  0  0  0  0
  8 33  1  0  0  0  0
  9 10  1  0  0  0  0
  9 34  1  0  0  0  0
 10 11  1  0  0  0  0
 10 35  1  0  0  0  0
 10 44  1  0  0  0  0
 11 12  1  0  0  0  0
 11 36  1  0  0  0  0
 11 37  1  0  0  0  0
 12 13  1  0  0  0  0
 12 38  1  0  0  0  0
 12 39  1  0  0  0  0
 13 18  1  0  0  0  0
 13 14  2  0  0  0  0
 14 15  1  0  0  0  0
 14 40  1  0  0  0  0
 15 16  2  0  0  0  0
 15 41  1  0  0  0  0
 16 17  1  0  0  0  0
 16 42  1  0  0  0  0
 17 18  2  0  0  0  0
 17 43  1  0  0  0  0
M  CHG  1  10   1
M  END
> <s_m_source_file>
AV-unprocessed.smi

> <i_m_source_file_index>
3303

> <i_lp_mmshare_version>
43012

> <i_f3d_flags>
0

> <s_epik_input>
W0NIM11bQ0BASF0xW0NIMl1OKFtDSDNdKVtDQEBIXShbQ0gzXSlbQ0gyXVtDQEhdMVtOSF1bQ0gyXVtDSDJdYzJbY0hdW2NIXVtjSF1bY0hdbjI=

> <s_epik_cmdline>
J2VwaWtfcHl0aG9uJywgJy1waCcsICc3LjAnLCAnLXRuJywgJzgnLCAnLW1hJywgJzIwMCcsICctbWV0YWxfYmluZGluZycsICctaW1hZScsICc8aW5maWxlLm1hZT4nLCAnLW9tYWUnLCAnPG91dGZpbGUubWFlPic=

> <r_epik_Ionization_Penalty>
1.37325

> <r_epik_Ionization_Penalty_Charging>
0.000251572

> <r_epik_Ionization_Penalty_Neutral>
1.373

> <r_epik_State_Penalty>
1.46343

> <r_epik_Charging_Adjusted_Penalty>
1.46368

> <i_epik_Tot_Q>
1

> <i_epik_Tot_abs_Q>
1

> <r_epik_Metal_State_Penalty>
1.46331

> <b_epik_Metal_Only>
0

> <s_lp_Force_Field>
OPLS_2005

> <r_lp_Energy>
24.8082

> <b_lp_Chiralities_Consistent>
1

> <s_lp_Variant>
AV-unprocessed.smi:3303-23

> <Gold.Version>
5.8.1

> <Gold.Id.Protein>
6NUR|6NUR_protein|mol2

> <Gold.PLP.Fitness>
43.4755

> <Gold.PLP.PLP>
-38.8578

> <Gold.PLP.part.hbond>
-1.6788

> <Gold.PLP.part.metal>
0.0000

> <Gold.PLP.part.buried>
-5.3774

> <Gold.PLP.part.nonpolar>
-32.0425

> <Gold.PLP.part.repulsive>
0.3065

> <Gold.PLP.ligand.clash>
0.0000

> <Gold.PLP.ligand.torsion>
0.6962

> <Gold.PLP.Chemscore.Hbond>
2.0000

> <Gold.PLP.Chemscore.CHOScore>
0.0000

> <Gold.PLP.Chemscore.Metal>
0.0000

> <Gold.Chemscore.Hbonds>
donor molecule, donor type, donor heavy atom, donor atom, acceptor molecule, acceptor atom, score
      L1  H    10    35       P1  8028  2.00

> <Gold.PLP.Chemscore.Internal.Correction>
0.0100

> <Gold.Rescore>
     Score         DG    S(hbond)    S(metal)    S(lipo)     H(rot)  DE(clash)    DE(int)     intcor
     17.31     -17.93       1.00        0.00     106.97       1.33       0.12       0.51       ----

> <Gold.Chemscore.Fitness>
17.3067

> <Gold.Chemscore.DG>
-17.9306

> <Gold.Chemscore.ZeroCoef>
-5.4800

> <Gold.Chemscore.Hbond>
0.9999

> <Gold.Chemscore.Metal>
0.0000

> <Gold.Chemscore.Lipo>
106.9665

> <Gold.Chemscore.Internal_Hbond>
0.0000

> <Gold.Chemscore.DEClash>
0.1158

> <Gold.Chemscore.DEInternal>
0.5080

> <Gold.Chemscore.Rot>
1.3298

> <Gold.Chemscore.Internal.Correction>
   9.000000E+99

> <Gold.Chemscore.Hbonds>
donor molecule, donor type, donor heavy atom, donor atom, acceptor molecule, acceptor atom, score
      L1  H    10    35       P1  8028  1.00

> <Gold.Chemscore.Hbond.Weighted>
-3.3398

> <Gold.Chemscore.Metal.Weighted>
-0.0000

> <Gold.Chemscore.Lipo.Weighted>
-12.5151

> <Gold.Chemscore.Internal_Hbond.Weighted>
0.0000

> <Gold.Chemscore.DEClash.Weighted>
0.1158

> <Gold.Chemscore.DEInternal.Weighted>
0.5080

> <Gold.Chemscore.Rot.Weighted>
3.4043

> <Gold.Chemscore.Internal.Correction.Weighted>
   9.000000E+99

> <Gold.Protein.RotatedTorsions>
[ 6907 6896 6895 6894 ] final -174.00 input  -60.11 | X-H torsion
[ 7974 7965 7964 7962 ] final  -40.10 input  175.53 | X-H torsion
[ 8008 7997 7996 7995 ] final  174.92 input   59.86 | X-H torsion
[ 10167 10162 10161 10158 ] final    3.43 input  -65.29 | X-H torsion
[ 10718 10713 10712 10709 ] final -125.80 input   66.30 | X-H torsion
[ 10763 10752 10751 10750 ] final   95.09 input  -60.55 | X-H torsion
[ 11005 11000 10999 10996 ] final  -59.09 input  -57.11 | X-H torsion

> <Gold.Protein.ActiveResidues>
 VAL166  LYS551  ARG553  GLY616  TRP617  ASP618  TYR619  PRO620  LYS621  CYS622 
 ASP623  PHE694  ASN695  SER759  ASP760  ASP761  ALA762  ILE779  LEU786  VAL792 
 PHE793  MET794  SER795  GLU796  ALA797  LYS798  CYS799  TRP800  GLU811  SER814 

> <Gold.Protein.RotatedAtoms>
  151.5653  133.3397  159.2978 H   0  0  0  0  0  0  0  0  0  0  0  0  # atno 6907 bound_to 6896
  150.8399  134.7689  159.6934 H   0  0  0  0  0  0  0  0  0  0  0  0  # atno 6908 bound_to 6896
  152.4468  134.5484  159.9911 H   0  0  0  0  0  0  0  0  0  0  0  0  # atno 6909 bound_to 6896
  146.0335  140.6701  142.9121 H   0  0  0  0  0  0  0  0  0  0  0  0  # atno 7974 bound_to 7965
  156.0925  140.1422  156.9574 H   0  0  0  0  0  0  0  0  0  0  0  0  # atno 8008 bound_to 7997
  154.4650  140.0929  156.7044 H   0  0  0  0  0  0  0  0  0  0  0  0  # atno 8009 bound_to 7997
  155.4896  140.3447  155.4355 H   0  0  0  0  0  0  0  0  0  0  0  0  # atno 8010 bound_to 7997
  140.6586  143.7363  150.7698 H   0  0  0  0  0  0  0  0  0  0  0  0  # atno 10167 bound_to 10162
  156.1708  130.6666  151.0177 H   0  0  0  0  0  0  0  0  0  0  0  0  # atno 10718 bound_to 10713
  153.2492  135.4266  155.0779 H   0  0  0  0  0  0  0  0  0  0  0  0  # atno 10763 bound_to 10752
  154.8374  135.3421  154.6538 H   0  0  0  0  0  0  0  0  0  0  0  0  # atno 10764 bound_to 10752
  153.6959  135.7031  153.5133 H   0  0  0  0  0  0  0  0  0  0  0  0  # atno 10765 bound_to 10752
  141.1234  133.6615  156.5019 H   0  0  0  0  0  0  0  0  0  0  0  0  # atno 11005 bound_to 11000
  144.7041  140.3779  143.7132 LP  0  0  0  0  0  0  0  0  0  0  0  0  # atno 17320 bound_to 7965
  145.7002  139.1659  143.2597 LP  0  0  0  0  0  0  0  0  0  0  0  0  # atno 17321 bound_to 7965
  140.1027  143.4772  152.2416 LP  0  0  0  0  0  0  0  0  0  0  0  0  # atno 17342 bound_to 10162
  139.5814  144.7512  151.3630 LP  0  0  0  0  0  0  0  0  0  0  0  0  # atno 17343 bound_to 10162
  157.6801  131.0840  150.7392 LP  0  0  0  0  0  0  0  0  0  0  0  0  # atno 17370 bound_to 10713
  156.7452  130.4751  149.5469 LP  0  0  0  0  0  0  0  0  0  0  0  0  # atno 17371 bound_to 10713
  140.4439  134.6990  157.5006 LP  0  0  0  0  0  0  0  0  0  0  0  0  # atno 17394 bound_to 11000
  140.0210  134.6547  155.9239 LP  0  0  0  0  0  0  0  0  0  0  0  0  # atno 17395 bound_to 11000

$$$$
