AV-unprocessed.smi:1874|AV-procd|sdf|7611|dock1
  -GOLD-   22720 9333D 1   1.00000     0.00000
 Structure written by MMmdl.
 45 46  0  0  0  0  0  0  0  0  1 V2000
  144.2448  145.6995  153.9175 C   0  0  0  0  0  0  0  0  0  0  0  0
  144.3950  145.1087  155.3212 C   0  0  0  0  0  0  0  0  0  0  0  0
  144.1264  145.8285  156.2831 O   0  0  0  0  0  0  0  0  0  0  0  0
  144.8166  143.8286  155.4600 N   0  0  0  0  0  0  0  0  0  0  0  0
  145.2308  142.9461  154.3622 C   0  0  0  0  0  0  0  0  0  0  0  0
  146.7563  142.7538  154.4294 C   0  0  0  0  0  0  0  0  0  0  0  0
  147.1953  142.2125  155.8100 C   0  0  0  0  0  0  0  0  0  0  0  0
  148.6499  142.2288  155.9275 N   0  0  0  0  0  0  0  0  0  0  0  0
  149.4079  141.1937  156.3191 C   0  0  0  0  0  0  0  0  0  0  0  0
  148.9404  140.1008  156.6434 O   0  0  0  0  0  0  0  0  0  0  0  0
  150.9223  141.4490  156.3577 C   0  0  0  0  0  0  0  0  0  0  0  0
  151.4031  141.9216  157.6645 N   0  0  0  0  0  0  0  0  0  0  0  0
  150.8685  143.1339  158.0557 N   0  0  0  0  0  0  0  0  0  0  0  0
  151.1685  143.6656  159.1948 C   0  0  0  0  0  0  0  0  0  0  0  0
  150.5209  144.9857  159.5158 C   0  0  0  0  0  0  0  0  0  0  0  0
  152.0932  142.9799  160.0919 C   0  0  0  0  0  0  0  0  0  0  0  0
  152.4050  143.6506  161.4226 C   0  0  0  0  0  0  0  0  0  0  0  0
  152.6228  141.7972  159.6906 C   0  0  0  0  0  0  0  0  0  0  0  0
  153.5388  141.0581  160.4980 C   0  0  0  0  0  0  0  0  0  0  0  0
  154.2865  140.4767  161.1636 N   0  0  0  0  0  0  0  0  0  0  0  0
  152.2895  141.1901  158.4000 C   0  0  0  0  0  0  0  0  0  0  0  0
  152.7526  140.1188  158.0048 O   0  0  0  0  0  0  0  0  0  0  0  0
  146.5740  143.0322  156.9613 C   0  0  0  0  0  0  0  0  0  0  0  0
  145.0574  143.2104  156.7687 C   0  0  0  0  0  0  0  0  0  0  0  0
  145.1949  145.6744  153.3829 H   0  0  0  0  0  0  0  0  0  0  0  0
  143.9214  146.7396  153.9717 H   0  0  0  0  0  0  0  0  0  0  0  0
  143.4987  145.1488  153.3443 H   0  0  0  0  0  0  0  0  0  0  0  0
  144.7306  141.9824  154.4692 H   0  0  0  0  0  0  0  0  0  0  0  0
  144.9466  143.3111  153.3766 H   0  0  0  0  0  0  0  0  0  0  0  0
  147.0779  142.0752  153.6386 H   0  0  0  0  0  0  0  0  0  0  0  0
  147.2453  143.7094  154.2334 H   0  0  0  0  0  0  0  0  0  0  0  0
  146.8379  141.1854  155.9070 H   0  0  0  0  0  0  0  0  0  0  0  0
  149.1157  143.0913  155.6853 H   0  0  0  0  0  0  0  0  0  0  0  0
  151.4504  140.5366  156.0738 H   0  0  0  0  0  0  0  0  0  0  0  0
  151.1622  142.1783  155.5817 H   0  0  0  0  0  0  0  0  0  0  0  0
  151.2707  145.7367  159.7664 H   0  0  0  0  0  0  0  0  0  0  0  0
  149.8437  144.8863  160.3644 H   0  0  0  0  0  0  0  0  0  0  0  0
  149.9411  145.3688  158.6745 H   0  0  0  0  0  0  0  0  0  0  0  0
  153.0196  143.0228  162.0668 H   0  0  0  0  0  0  0  0  0  0  0  0
  151.4871  143.8726  161.9679 H   0  0  0  0  0  0  0  0  0  0  0  0
  152.9434  144.5847  161.2603 H   0  0  0  0  0  0  0  0  0  0  0  0
  146.7729  142.5462  157.9171 H   0  0  0  0  0  0  0  0  0  0  0  0
  147.0436  144.0161  157.0112 H   0  0  0  0  0  0  0  0  0  0  0  0
  144.6441  143.7925  157.5934 H   0  0  0  0  0  0  0  0  0  0  0  0
  144.5569  142.2419  156.8099 H   0  0  0  0  0  0  0  0  0  0  0  0
  1  2  1  0  0  0  0
  1 25  1  0  0  0  0
  1 26  1  0  0  0  0
  1 27  1  0  0  0  0
  2  3  2  0  0  0  0
  2  4  1  0  0  0  0
  4 24  1  0  0  0  0
  4  5  1  0  0  0  0
  5  6  1  0  0  0  0
  5 28  1  0  0  0  0
  5 29  1  0  0  0  0
  6  7  1  0  0  0  0
  6 30  1  0  0  0  0
  6 31  1  0  0  0  0
  7  8  1  0  0  0  0
  7 23  1  0  0  0  0
  7 32  1  0  0  0  0
  8  9  1  0  0  0  0
  8 33  1  0  0  0  0
  9 10  2  0  0  0  0
  9 11  1  0  0  0  0
 11 12  1  0  0  0  0
 11 34  1  0  0  0  0
 11 35  1  0  0  0  0
 12 21  1  0  0  0  0
 12 13  1  0  0  0  0
 13 14  2  0  0  0  0
 14 15  1  0  0  0  0
 14 16  1  0  0  0  0
 15 36  1  0  0  0  0
 15 37  1  0  0  0  0
 15 38  1  0  0  0  0
 16 17  1  0  0  0  0
 16 18  2  0  0  0  0
 17 39  1  0  0  0  0
 17 40  1  0  0  0  0
 17 41  1  0  0  0  0
 18 19  1  0  0  0  0
 18 21  1  0  0  0  0
 19 20  3  0  0  0  0
 21 22  2  0  0  0  0
 23 24  1  0  0  0  0
 23 42  1  0  0  0  0
 23 43  1  0  0  0  0
 24 44  1  0  0  0  0
 24 45  1  0  0  0  0
M  END
> <s_m_source_file>
AV-unprocessed.smi

> <i_m_source_file_index>
1874

> <i_lp_mmshare_version>
43012

> <i_f3d_flags>
0

> <s_epik_input>
W0NIM11DKD1PKU4xW0NIMl1bQ0gyXVtDSF0oW0NIMl1bQ0gyXTEpW05IXUMoPU8pW0NIMl1uMm5jKFtDSDNdKWMoW0NIM10pYyhDI04pYzI9Tw==

> <s_epik_cmdline>
J2VwaWtfcHl0aG9uJywgJy1waCcsICc3LjAnLCAnLXRuJywgJzgnLCAnLW1hJywgJzIwMCcsICctbWV0YWxfYmluZGluZycsICctaW1hZScsICc8aW5maWxlLm1hZT4nLCAnLW9tYWUnLCAnPG91dGZpbGUubWFlPic=

> <r_lp_tautomer_probability>
1

> <r_epik_Ionization_Penalty>
1.12408e-06

> <r_epik_Ionization_Penalty_Charging>
2.25008e-11

> <r_epik_Ionization_Penalty_Neutral>
1.12405e-06

> <r_epik_State_Penalty>
-0

> <r_epik_Charging_Adjusted_Penalty>
2.25008e-11

> <i_epik_Tot_Q>
0

> <i_epik_Tot_abs_Q>
0

> <r_epik_Metal_State_Penalty>
-0

> <b_epik_Metal_Only>
0

> <s_lp_Force_Field>
OPLS_2005

> <r_lp_Energy>
36.4073

> <b_lp_Chiralities_Consistent>
1

> <s_lp_Variant>
AV-unprocessed.smi:1874-1

> <Gold.Version>
5.8.1

> <Gold.Id.Protein>
6NUR|6NUR_protein|mol2

> <Gold.PLP.Fitness>
48.7003

> <Gold.PLP.PLP>
-43.9721

> <Gold.PLP.part.hbond>
-2.0000

> <Gold.PLP.part.metal>
0.0000

> <Gold.PLP.part.buried>
-5.6550

> <Gold.PLP.part.nonpolar>
-35.8291

> <Gold.PLP.part.repulsive>
0.2697

> <Gold.PLP.ligand.clash>
0.0000

> <Gold.PLP.ligand.torsion>
0.5012

> <Gold.PLP.Chemscore.Hbond>
1.9040

> <Gold.PLP.Chemscore.CHOScore>
0.0000

> <Gold.PLP.Chemscore.Metal>
0.0000

> <Gold.Chemscore.Hbonds>
donor molecule, donor type, donor heavy atom, donor atom, acceptor molecule, acceptor atom, score
      L1  H     8    33       P1  8028  0.83
      P1  H  7997  8010       L1    22  0.93

> <Gold.PLP.Chemscore.Internal.Correction>
0.0186

> <Gold.Rescore>
     Score         DG    S(hbond)    S(metal)    S(lipo)     H(rot)  DE(clash)    DE(int)     intcor
     17.22     -17.73       1.88        0.00      85.50       1.58       0.05       0.46       ----

> <Gold.Chemscore.Fitness>
17.2207

> <Gold.Chemscore.DG>
-17.7323

> <Gold.Chemscore.ZeroCoef>
-5.4800

> <Gold.Chemscore.Hbond>
1.8849

> <Gold.Chemscore.Metal>
0.0000

> <Gold.Chemscore.Lipo>
85.5007

> <Gold.Chemscore.Internal_Hbond>
0.0000

> <Gold.Chemscore.DEClash>
0.0505

> <Gold.Chemscore.DEInternal>
0.4610

> <Gold.Chemscore.Rot>
1.5808

> <Gold.Chemscore.Internal.Correction>
   9.000000E+99

> <Gold.Chemscore.Hbonds>
donor molecule, donor type, donor heavy atom, donor atom, acceptor molecule, acceptor atom, score
      L1  H     8    33       P1  8028  0.81
      P1  H  7997  8010       L1    22  0.83

> <Gold.Chemscore.Hbond.Weighted>
-6.2956

> <Gold.Chemscore.Metal.Weighted>
-0.0000

> <Gold.Chemscore.Lipo.Weighted>
-10.0036

> <Gold.Chemscore.Internal_Hbond.Weighted>
0.0000

> <Gold.Chemscore.DEClash.Weighted>
0.0505

> <Gold.Chemscore.DEInternal.Weighted>
0.4610

> <Gold.Chemscore.Rot.Weighted>
4.0469

> <Gold.Chemscore.Internal.Correction.Weighted>
   9.000000E+99

> <Gold.Protein.RotatedTorsions>
[ 6907 6896 6895 6894 ] final -141.10 input  -60.11 | X-H torsion
[ 7974 7965 7964 7962 ] final  165.34 input  175.53 | X-H torsion
[ 8008 7997 7996 7995 ] final   47.20 input   59.86 | X-H torsion
[ 10167 10162 10161 10158 ] final  -42.18 input  -65.29 | X-H torsion
[ 10718 10713 10712 10709 ] final -178.71 input   66.30 | X-H torsion
[ 10763 10752 10751 10750 ] final -151.81 input  -60.55 | X-H torsion
[ 11005 11000 10999 10996 ] final  -87.96 input  -57.11 | X-H torsion

> <Gold.Protein.ActiveResidues>
 VAL166  LYS551  ARG553  GLY616  TRP617  ASP618  TYR619  PRO620  LYS621  CYS622 
 ASP623  PHE694  ASN695  SER759  ASP760  ASP761  ALA762  ILE779  LEU786  VAL792 
 PHE793  MET794  SER795  GLU796  ALA797  LYS798  CYS799  TRP800  GLU811  SER814 

> <Gold.Protein.RotatedAtoms>
  151.0694  133.5478  159.2628 H   0  0  0  0  0  0  0  0  0  0  0  0  # atno 6907 bound_to 6896
  151.2424  135.0593  159.9040 H   0  0  0  0  0  0  0  0  0  0  0  0  # atno 6908 bound_to 6896
  152.5409  134.0467  159.8145 H   0  0  0  0  0  0  0  0  0  0  0  0  # atno 6909 bound_to 6896
  144.7506  139.8457  143.6367 H   0  0  0  0  0  0  0  0  0  0  0  0  # atno 7974 bound_to 7965
  155.3651  140.3421  155.4241 H   0  0  0  0  0  0  0  0  0  0  0  0  # atno 8008 bound_to 7997
  156.1693  140.1626  156.8511 H   0  0  0  0  0  0  0  0  0  0  0  0  # atno 8009 bound_to 7997
  154.5216  140.0765  156.8165 H   0  0  0  0  0  0  0  0  0  0  0  0  # atno 8010 bound_to 7997
  140.6978  143.3052  151.3173 H   0  0  0  0  0  0  0  0  0  0  0  0  # atno 10167 bound_to 10162
  156.8483  130.9710  151.3094 H   0  0  0  0  0  0  0  0  0  0  0  0  # atno 10718 bound_to 10713
  154.8034  135.3251  154.7493 H   0  0  0  0  0  0  0  0  0  0  0  0  # atno 10763 bound_to 10752
  153.8156  135.6892  153.4839 H   0  0  0  0  0  0  0  0  0  0  0  0  # atno 10764 bound_to 10752
  153.1764  135.4603  154.9915 H   0  0  0  0  0  0  0  0  0  0  0  0  # atno 10765 bound_to 10752
  141.1609  133.7541  156.9382 H   0  0  0  0  0  0  0  0  0  0  0  0  # atno 11005 bound_to 11000
  146.1451  139.4519  143.0084 LP  0  0  0  0  0  0  0  0  0  0  0  0  # atno 17320 bound_to 7965
  145.6957  141.0151  143.1531 LP  0  0  0  0  0  0  0  0  0  0  0  0  # atno 17321 bound_to 7965
  139.6455  144.0459  152.2587 LP  0  0  0  0  0  0  0  0  0  0  0  0  # atno 17342 bound_to 10162
  139.9978  144.6315  150.7756 LP  0  0  0  0  0  0  0  0  0  0  0  0  # atno 17343 bound_to 10162
  157.6317  130.8735  149.9287 LP  0  0  0  0  0  0  0  0  0  0  0  0  # atno 17370 bound_to 10713
  156.0842  130.3670  150.0520 LP  0  0  0  0  0  0  0  0  0  0  0  0  # atno 17371 bound_to 10713
  140.1340  134.9337  157.2376 LP  0  0  0  0  0  0  0  0  0  0  0  0  # atno 17394 bound_to 11000
  140.2918  134.3231  155.7313 LP  0  0  0  0  0  0  0  0  0  0  0  0  # atno 17395 bound_to 11000

$$$$
