AV-unprocessed.smi:1701|AV-procd|sdf|6829|dock4
  -GOLD-   22720 8 03D 1   1.00000     0.00000
 Structure written by MMmdl.
 54 56  0  0  0  0  0  0  0  0  2 V2000
  151.8316  143.4520  158.6378 C   0  0  0  0  0  0  0  0  0  0  0  0
  151.2793  142.4971  157.5703 C   0  0  0  0  0  0  0  0  0  0  0  0
  151.4776  141.0864  157.9036 N   0  0  0  0  0  0  0  0  0  0  0  0
  151.9662  140.7308  159.2381 C   0  0  0  0  0  0  0  0  0  0  0  0
  153.4535  141.0596  159.4411 C   0  0  0  0  0  0  0  0  0  0  0  0
  151.0588  140.0690  157.0105 C   0  0  0  0  0  0  0  0  0  0  0  0
  151.0949  140.2472  155.6043 C   0  0  0  0  0  0  0  0  0  0  0  0
  150.6703  139.2022  154.7616 C   0  0  0  0  0  0  0  0  0  0  0  0
  150.2126  137.9969  155.3401 C   0  0  0  0  0  0  0  0  0  0  0  0
  149.7890  136.8661  154.5924 N   0  0  0  0  0  0  0  0  0  0  0  0
  149.5263  135.6225  155.0397 C   0  0  0  0  0  0  0  0  0  0  0  0
  149.7258  135.2379  156.1896 O   0  0  0  0  0  0  0  0  0  0  0  0
  149.0540  134.7847  154.0998 N   0  0  0  0  0  0  0  0  0  0  0  0
  148.6734  133.3798  154.2526 C   0  0  2  0  0  0  0  0  0  0  0  0
  149.7553  132.5015  154.9056 C   0  0  0  0  0  0  0  0  0  0  0  0
  149.7245  131.1669  154.1351 C   0  0  0  0  0  0  0  0  0  0  0  0
  148.6008  131.2565  153.1752 N   0  3  1  0  0  0  0  0  0  0  0  0
  147.3675  130.6036  153.6942 C   0  0  0  0  0  0  0  0  0  0  0  0
  146.1452  130.8969  152.8149 C   0  0  0  0  0  0  0  0  0  0  0  0
  145.9196  132.4072  152.7109 C   0  0  0  0  0  0  0  0  0  0  0  0
  147.1720  133.0717  152.1289 C   0  0  0  0  0  0  0  0  0  0  0  0
  148.4649  132.7057  152.8921 C   0  0  1  0  0  0  0  0  0  0  0  0
  150.2254  137.9035  156.7447 C   0  0  0  0  0  0  0  0  0  0  0  0
  150.6274  138.9044  157.5549 N   0  0  0  0  0  0  0  0  0  0  0  0
  151.6126  144.4870  158.3754 H   0  0  0  0  0  0  0  0  0  0  0  0
  152.9132  143.3626  158.7306 H   0  0  0  0  0  0  0  0  0  0  0  0
  151.3924  143.2591  159.6166 H   0  0  0  0  0  0  0  0  0  0  0  0
  150.2250  142.6995  157.3836 H   0  0  0  0  0  0  0  0  0  0  0  0
  151.7766  142.7023  156.6219 H   0  0  0  0  0  0  0  0  0  0  0  0
  151.3641  141.2229  160.0023 H   0  0  0  0  0  0  0  0  0  0  0  0
  151.8176  139.6623  159.3957 H   0  0  0  0  0  0  0  0  0  0  0  0
  153.7758  140.7711  160.4416 H   0  0  0  0  0  0  0  0  0  0  0  0
  153.6467  142.1265  159.3294 H   0  0  0  0  0  0  0  0  0  0  0  0
  154.0846  140.5301  158.7286 H   0  0  0  0  0  0  0  0  0  0  0  0
  151.4341  141.1648  155.1495 H   0  0  0  0  0  0  0  0  0  0  0  0
  150.7190  139.3405  153.6926 H   0  0  0  0  0  0  0  0  0  0  0  0
  149.7004  137.0119  153.5976 H   0  0  0  0  0  0  0  0  0  0  0  0
  148.9979  135.1555  153.1619 H   0  0  0  0  0  0  0  0  0  0  0  0
  147.7512  133.3099  154.8317 H   0  0  0  0  0  0  0  0  0  0  0  0
  150.7446  132.9542  154.8228 H   0  0  0  0  0  0  0  0  0  0  0  0
  149.5503  132.3574  155.9671 H   0  0  0  0  0  0  0  0  0  0  0  0
  150.6494  131.0516  153.5688 H   0  0  0  0  0  0  0  0  0  0  0  0
  149.6431  130.3036  154.7973 H   0  0  0  0  0  0  0  0  0  0  0  0
  147.5331  129.5271  153.7497 H   0  0  0  0  0  0  0  0  0  0  0  0
  147.1685  130.9406  154.7130 H   0  0  0  0  0  0  0  0  0  0  0  0
  146.2883  130.4701  151.8213 H   0  0  0  0  0  0  0  0  0  0  0  0
  145.2611  130.4172  153.2359 H   0  0  0  0  0  0  0  0  0  0  0  0
  145.0568  132.6162  152.0780 H   0  0  0  0  0  0  0  0  0  0  0  0
  145.6927  132.8218  153.6936 H   0  0  0  0  0  0  0  0  0  0  0  0
  147.2789  132.7546  151.0905 H   0  0  0  0  0  0  0  0  0  0  0  0
  147.0442  134.1541  152.0992 H   0  0  0  0  0  0  0  0  0  0  0  0
  149.3088  132.9759  152.2535 H   0  0  0  0  0  0  0  0  0  0  0  0
  149.9000  136.9986  157.2373 H   0  0  0  0  0  0  0  0  0  0  0  0
  148.8524  130.7816  152.3197 H   0  0  0  0  0  0  0  0  0  0  0  0
  1  2  1  0  0  0  0
  1 25  1  0  0  0  0
  1 26  1  0  0  0  0
  1 27  1  0  0  0  0
  2  3  1  0  0  0  0
  2 28  1  0  0  0  0
  2 29  1  0  0  0  0
  3  4  1  0  0  0  0
  3  6  1  0  0  0  0
  4  5  1  0  0  0  0
  4 30  1  0  0  0  0
  4 31  1  0  0  0  0
  5 32  1  0  0  0  0
  5 33  1  0  0  0  0
  5 34  1  0  0  0  0
  6 24  1  0  0  0  0
  6  7  2  0  0  0  0
  7  8  1  0  0  0  0
  7 35  1  0  0  0  0
  8  9  2  0  0  0  0
  8 36  1  0  0  0  0
  9 10  1  0  0  0  0
  9 23  1  0  0  0  0
 10 11  1  0  0  0  0
 10 37  1  0  0  0  0
 11 12  2  0  0  0  0
 11 13  1  0  0  0  0
 13 14  1  0  0  0  0
 13 38  1  0  0  0  0
 14 22  1  0  0  0  0
 14 15  1  0  0  0  0
 14 39  1  0  0  0  0
 15 16  1  0  0  0  0
 15 40  1  0  0  0  0
 15 41  1  0  0  0  0
 16 17  1  0  0  0  0
 16 42  1  0  0  0  0
 16 43  1  0  0  0  0
 17 22  1  0  0  0  0
 17 18  1  0  0  0  0
 17 54  1  0  0  0  0
 18 19  1  0  0  0  0
 18 44  1  0  0  0  0
 18 45  1  0  0  0  0
 19 20  1  0  0  0  0
 19 46  1  0  0  0  0
 19 47  1  0  0  0  0
 20 21  1  0  0  0  0
 20 48  1  0  0  0  0
 20 49  1  0  0  0  0
 21 22  1  0  0  0  0
 21 50  1  0  0  0  0
 21 51  1  0  0  0  0
 22 52  1  0  0  0  0
 23 24  2  0  0  0  0
 23 53  1  0  0  0  0
M  CHG  1  17   1
M  END
> <s_m_source_file>
AV-unprocessed.smi

> <i_m_source_file_index>
1701

> <i_lp_mmshare_version>
43012

> <i_f3d_flags>
0

> <s_epik_input>
W0NIM11bQ0gyXU4oW0NIMl1bQ0gzXSljMVtjSF1bY0hdYyhbY0hdbjEpW05IXUMoPU8pW05IXVtDQEhdKFtDSDJdW0NIMl0yKVtDQEBIXShOMjMpW0NIMl1bQ0gyXVtDSDJdW0NIMl0z

> <s_epik_cmdline>
J2VwaWtfcHl0aG9uJywgJy1waCcsICc3LjAnLCAnLXRuJywgJzgnLCAnLW1hJywgJzIwMCcsICctbWV0YWxfYmluZGluZycsICctaW1hZScsICc8aW5maWxlLm1hZT4nLCAnLW9tYWUnLCAnPG91dGZpbGUubWFlPic=

> <r_lp_tautomer_probability>
1

> <r_epik_Ionization_Penalty>
0.56662

> <r_epik_Ionization_Penalty_Charging>
0.000974069

> <r_epik_Ionization_Penalty_Neutral>
0.565646

> <r_epik_State_Penalty>
2.0247

> <r_epik_Charging_Adjusted_Penalty>
2.02568

> <i_epik_Tot_Q>
1

> <i_epik_Tot_abs_Q>
1

> <r_epik_Metal_State_Penalty>
1.51504

> <b_epik_Metal_Only>
0

> <s_lp_Force_Field>
OPLS_2005

> <r_lp_Energy>
57.8718

> <b_lp_Chiralities_Consistent>
1

> <s_lp_Variant>
AV-unprocessed.smi:1701-9

> <Gold.Version>
5.8.1

> <Gold.Id.Protein>
6NUR|6NUR_protein|mol2

> <Gold.PLP.Fitness>
49.4990

> <Gold.PLP.PLP>
-41.9294

> <Gold.PLP.part.hbond>
-3.0000

> <Gold.PLP.part.metal>
0.0000

> <Gold.PLP.part.buried>
-4.0318

> <Gold.PLP.part.nonpolar>
-34.5243

> <Gold.PLP.part.repulsive>
0.0712

> <Gold.PLP.ligand.clash>
0.0027

> <Gold.PLP.ligand.torsion>
0.6076

> <Gold.PLP.Chemscore.Hbond>
2.8880

> <Gold.PLP.Chemscore.CHOScore>
0.0000

> <Gold.PLP.Chemscore.Metal>
0.0000

> <Gold.Chemscore.Hbonds>
donor molecule, donor type, donor heavy atom, donor atom, acceptor molecule, acceptor atom, score
      L1  H    10    37       P1  7948  0.91
      L1  H    13    38       P1  7948  1.00
      L1  H    17    54       P1 10747  0.98

> <Gold.PLP.Chemscore.Internal.Correction>
0.1236

> <Gold.Rescore>
     Score         DG    S(hbond)    S(metal)    S(lipo)     H(rot)  DE(clash)    DE(int)     intcor
     19.49     -22.53       2.64        0.00      98.54       1.28       0.03       3.02       ----

> <Gold.Chemscore.Fitness>
19.4852

> <Gold.Chemscore.DG>
-22.5336

> <Gold.Chemscore.ZeroCoef>
-5.4800

> <Gold.Chemscore.Hbond>
2.6380

> <Gold.Chemscore.Metal>
0.0000

> <Gold.Chemscore.Lipo>
98.5396

> <Gold.Chemscore.Internal_Hbond>
0.0000

> <Gold.Chemscore.DEClash>
0.0250

> <Gold.Chemscore.DEInternal>
3.0234

> <Gold.Chemscore.Rot>
1.2838

> <Gold.Chemscore.Internal.Correction>
   9.000000E+99

> <Gold.Chemscore.Hbonds>
donor molecule, donor type, donor heavy atom, donor atom, acceptor molecule, acceptor atom, score
      L1  H    10    37       P1  7948  0.59
      L1  H    13    38       P1  7948  0.30
      L1  H    17    54       P1 10747  0.49

> <Gold.Chemscore.Hbond.Weighted>
-8.8110

> <Gold.Chemscore.Metal.Weighted>
-0.0000

> <Gold.Chemscore.Lipo.Weighted>
-11.5291

> <Gold.Chemscore.Internal_Hbond.Weighted>
0.0000

> <Gold.Chemscore.DEClash.Weighted>
0.0250

> <Gold.Chemscore.DEInternal.Weighted>
3.0234

> <Gold.Chemscore.Rot.Weighted>
3.2865

> <Gold.Chemscore.Internal.Correction.Weighted>
   9.000000E+99

> <Gold.Protein.RotatedTorsions>
[ 6907 6896 6895 6894 ] final  142.45 input  -60.11 | X-H torsion
[ 7974 7965 7964 7962 ] final  -73.36 input  175.53 | X-H torsion
[ 8008 7997 7996 7995 ] final  167.67 input   59.86 | X-H torsion
[ 10167 10162 10161 10158 ] final   75.81 input  -65.29 | X-H torsion
[ 10718 10713 10712 10709 ] final  123.06 input   66.30 | X-H torsion
[ 10763 10752 10751 10750 ] final    1.09 input  -60.55 | X-H torsion
[ 11005 11000 10999 10996 ] final  170.30 input  -57.11 | X-H torsion

> <Gold.Protein.ActiveResidues>
 VAL166  LYS551  ARG553  GLY616  TRP617  ASP618  TYR619  PRO620  LYS621  CYS622 
 ASP623  PHE694  ASN695  SER759  ASP760  ASP761  ALA762  ILE779  LEU786  VAL792 
 PHE793  MET794  SER795  GLU796  ALA797  LYS798  CYS799  TRP800  GLU811  SER814 

> <Gold.Protein.RotatedAtoms>
  152.2185  133.4965  159.5148 H   0  0  0  0  0  0  0  0  0  0  0  0  # atno 6907 bound_to 6896
  150.7007  134.1374  159.4101 H   0  0  0  0  0  0  0  0  0  0  0  0  # atno 6908 bound_to 6896
  151.9294  135.0263  160.0579 H   0  0  0  0  0  0  0  0  0  0  0  0  # atno 6909 bound_to 6896
  145.6532  140.9276  143.0974 H   0  0  0  0  0  0  0  0  0  0  0  0  # atno 7974 bound_to 7965
  156.1613  140.1610  156.8607 H   0  0  0  0  0  0  0  0  0  0  0  0  # atno 8008 bound_to 7997
  154.5164  140.0788  156.8124 H   0  0  0  0  0  0  0  0  0  0  0  0  # atno 8009 bound_to 7997
  155.3701  140.3400  155.4245 H   0  0  0  0  0  0  0  0  0  0  0  0  # atno 8010 bound_to 7997
  139.9989  144.5701  150.7754 H   0  0  0  0  0  0  0  0  0  0  0  0  # atno 10167 bound_to 10162
  157.5694  131.1084  150.8395 H   0  0  0  0  0  0  0  0  0  0  0  0  # atno 10718 bound_to 10713
  153.3124  135.6963  153.7103 H   0  0  0  0  0  0  0  0  0  0  0  0  # atno 10763 bound_to 10752
  153.5975  135.3468  155.2934 H   0  0  0  0  0  0  0  0  0  0  0  0  # atno 10764 bound_to 10752
  154.8578  135.4333  154.2266 H   0  0  0  0  0  0  0  0  0  0  0  0  # atno 10765 bound_to 10752
  140.3069  134.7549  157.3960 H   0  0  0  0  0  0  0  0  0  0  0  0  # atno 11005 bound_to 11000
  144.7115  139.8353  143.7413 LP  0  0  0  0  0  0  0  0  0  0  0  0  # atno 17320 bound_to 7965
  146.1187  139.4201  143.0242 LP  0  0  0  0  0  0  0  0  0  0  0  0  # atno 17321 bound_to 7965
  140.7426  143.2835  151.3531 LP  0  0  0  0  0  0  0  0  0  0  0  0  # atno 17342 bound_to 10162
  139.6286  144.0765  152.2456 LP  0  0  0  0  0  0  0  0  0  0  0  0  # atno 17343 bound_to 10162
  156.8871  130.5200  149.5288 LP  0  0  0  0  0  0  0  0  0  0  0  0  # atno 17370 bound_to 10713
  156.0740  130.5766  150.9438 LP  0  0  0  0  0  0  0  0  0  0  0  0  # atno 17371 bound_to 10713
  140.1059  134.5410  155.8310 LP  0  0  0  0  0  0  0  0  0  0  0  0  # atno 17394 bound_to 11000
  141.2116  133.6709  156.6598 LP  0  0  0  0  0  0  0  0  0  0  0  0  # atno 17395 bound_to 11000

$$$$
