AV-unprocessed.smi:2706|AV-procd|sdf|10454|dock2
  -GOLD-   2272014493D 1   1.00000     0.00000
 Structure written by MMmdl.
 43 46  0  0  0  0  0  0  0  0  1 V2000
  151.0081  144.4124  158.1765 C   0  0  0  0  0  0  0  0  0  0  0  0
  151.7797  144.2176  159.3993 N   0  0  0  0  0  0  0  0  0  0  0  0
  151.8150  145.3912  160.2659 C   0  0  0  0  0  0  0  0  0  0  0  0
  152.4819  143.0387  159.6613 C   0  0  0  0  0  0  0  0  0  0  0  0
  153.1922  142.8900  160.8024 C   0  0  0  0  0  0  0  0  0  0  0  0
  153.9286  141.6669  161.0481 C   0  0  0  0  0  0  0  0  0  0  0  0
  153.9103  140.6510  160.1632 C   0  0  0  0  0  0  0  0  0  0  0  0
  153.1350  140.7465  158.9409 C   0  0  0  0  0  0  0  0  0  0  0  0
  153.1113  139.7529  158.0973 N   0  0  0  0  0  0  0  0  0  0  0  0
  152.2763  139.7176  156.9798 C   0  0  0  0  0  0  0  0  0  0  0  0
  151.4302  140.5823  156.7553 O   0  0  0  0  0  0  0  0  0  0  0  0
  152.5325  138.7410  156.0854 N   0  0  0  0  0  0  0  0  0  0  0  0
  151.8793  138.5441  154.8319 C   0  0  2  0  0  0  0  0  0  0  0  0
  150.3574  138.4596  154.7418 C   0  0  2  0  0  0  0  0  0  0  0  0
  149.3497  138.0304  155.8118 C   0  0  1  0  0  0  0  0  0  0  0  0
  148.3544  137.0568  155.1435 C   0  0  0  0  0  0  0  0  0  0  0  0
  149.2156  135.7838  154.9434 C   0  0  0  0  0  0  0  0  0  0  0  0
  150.5815  136.2180  155.5161 C   0  0  2  0  0  0  0  0  0  0  0  0
  150.0959  137.0441  156.7086 C   0  0  0  0  0  0  0  0  0  0  0  0
  151.1840  137.2239  154.5317 C   0  0  2  0  0  0  0  0  0  0  0  0
  152.4779  141.9773  158.7524 N   0  0  0  0  0  0  0  0  0  0  0  0
  151.6133  144.9314  157.4329 H   0  0  0  0  0  0  0  0  0  0  0  0
  150.1150  145.0087  158.3665 H   0  0  0  0  0  0  0  0  0  0  0  0
  150.6784  143.4689  157.7433 H   0  0  0  0  0  0  0  0  0  0  0  0
  151.4370  145.1420  161.2578 H   0  0  0  0  0  0  0  0  0  0  0  0
  151.2088  146.2087  159.8743 H   0  0  0  0  0  0  0  0  0  0  0  0
  152.8368  145.7580  160.3670 H   0  0  0  0  0  0  0  0  0  0  0  0
  153.2385  143.6702  161.5473 H   0  0  0  0  0  0  0  0  0  0  0  0
  154.5086  141.5713  161.9541 H   0  0  0  0  0  0  0  0  0  0  0  0
  154.4813  139.7650  160.4001 H   0  0  0  0  0  0  0  0  0  0  0  0
  153.2758  138.0941  156.3065 H   0  0  0  0  0  0  0  0  0  0  0  0
  152.3546  139.0174  153.9740 H   0  0  0  0  0  0  0  0  0  0  0  0
  149.9142  138.9274  153.8645 H   0  0  0  0  0  0  0  0  0  0  0  0
  148.8831  138.8728  156.3208 H   0  0  0  0  0  0  0  0  0  0  0  0
  147.5071  136.8502  155.7989 H   0  0  0  0  0  0  0  0  0  0  0  0
  147.9625  137.4458  154.2029 H   0  0  0  0  0  0  0  0  0  0  0  0
  148.8024  134.9457  155.5064 H   0  0  0  0  0  0  0  0  0  0  0  0
  149.2801  135.4838  153.8969 H   0  0  0  0  0  0  0  0  0  0  0  0
  151.2595  135.3987  155.7556 H   0  0  0  0  0  0  0  0  0  0  0  0
  150.8762  137.4783  157.3269 H   0  0  0  0  0  0  0  0  0  0  0  0
  149.4369  136.4883  157.3790 H   0  0  0  0  0  0  0  0  0  0  0  0
  151.2950  136.8546  153.5138 H   0  0  0  0  0  0  0  0  0  0  0  0
  151.9413  142.1357  157.9119 H   0  0  0  0  0  0  0  0  0  0  0  0
  1  2  1  0  0  0  0
  1 22  1  0  0  0  0
  1 23  1  0  0  0  0
  1 24  1  0  0  0  0
  2  3  1  0  0  0  0
  2  4  1  0  0  0  0
  3 25  1  0  0  0  0
  3 26  1  0  0  0  0
  3 27  1  0  0  0  0
  4 21  1  0  0  0  0
  4  5  2  0  0  0  0
  5  6  1  0  0  0  0
  5 28  1  0  0  0  0
  6  7  2  0  0  0  0
  6 29  1  0  0  0  0
  7  8  1  0  0  0  0
  7 30  1  0  0  0  0
  8  9  2  0  0  0  0
  8 21  1  0  0  0  0
  9 10  1  0  0  0  0
 10 11  2  0  0  0  0
 10 12  1  0  0  0  0
 12 13  1  0  0  0  0
 12 31  1  0  0  0  0
 13 20  1  0  0  0  0
 13 14  1  0  0  0  0
 13 32  1  0  0  0  0
 14 20  1  0  0  0  0
 14 15  1  0  0  0  0
 14 33  1  0  0  0  0
 15 19  1  0  0  0  0
 15 16  1  0  0  0  0
 15 34  1  0  0  0  0
 16 17  1  0  0  0  0
 16 35  1  0  0  0  0
 16 36  1  0  0  0  0
 17 18  1  0  0  0  0
 17 37  1  0  0  0  0
 17 38  1  0  0  0  0
 18 19  1  0  0  0  0
 18 20  1  0  0  0  0
 18 39  1  0  0  0  0
 19 40  1  0  0  0  0
 19 41  1  0  0  0  0
 20 42  1  0  0  0  0
 21 43  1  0  0  0  0
M  END
> <s_m_source_file>
AV-unprocessed.smi

> <i_m_source_file_index>
2706

> <i_lp_mmshare_version>
43012

> <i_f3d_flags>
0

> <s_epik_input>
W0NIM11OKFtDSDNdKWMxW2NIXVtjSF1bY0hdYyhuMSlbTkhdQyg9TylbTkhdW0NASF0yW0NAQEhdM1tDQEBIXShbQ0gyXTQpW0NIMl1bQ0gyXVtDQEBIXTRbQ0BIXTIz

> <s_epik_cmdline>
J2VwaWtfcHl0aG9uJywgJy1waCcsICc3LjAnLCAnLXRuJywgJzgnLCAnLW1hJywgJzIwMCcsICctbWV0YWxfYmluZGluZycsICctaW1hZScsICc8aW5maWxlLm1hZT4nLCAnLW9tYWUnLCAnPG91dGZpbGUubWFlPic=

> <r_lp_tautomer_probability>
0.999994

> <r_epik_Ionization_Penalty>
2.07242

> <r_epik_Ionization_Penalty_Charging>
2.07242

> <r_epik_Ionization_Penalty_Neutral>
9.73808e-07

> <r_epik_State_Penalty>
3.96009

> <r_epik_Charging_Adjusted_Penalty>
6.03251

> <i_epik_Tot_Q>
0

> <i_epik_Tot_abs_Q>
0

> <r_epik_Metal_State_Penalty>
3.98849

> <b_epik_Metal_Only>
1

> <s_lp_Force_Field>
OPLS_2005

> <r_lp_Energy>
93.8849

> <b_lp_Chiralities_Consistent>
1

> <s_lp_Variant>
AV-unprocessed.smi:2706-11

> <Gold.Version>
5.8.1

> <Gold.Id.Protein>
6NUR|6NUR_protein|mol2

> <Gold.PLP.Fitness>
43.3619

> <Gold.PLP.PLP>
-40.6193

> <Gold.PLP.part.hbond>
-1.0000

> <Gold.PLP.part.metal>
0.0000

> <Gold.PLP.part.buried>
-4.2127

> <Gold.PLP.part.nonpolar>
-35.6159

> <Gold.PLP.part.repulsive>
0.2490

> <Gold.PLP.ligand.clash>
0.0000

> <Gold.PLP.ligand.torsion>
0.0493

> <Gold.PLP.Chemscore.Hbond>
0.9272

> <Gold.PLP.Chemscore.CHOScore>
0.0000

> <Gold.PLP.Chemscore.Metal>
0.0000

> <Gold.Chemscore.Hbonds>
donor molecule, donor type, donor heavy atom, donor atom, acceptor molecule, acceptor atom, score
      P1  H  7997  8008       L1     9  0.83

> <Gold.PLP.Chemscore.Internal.Correction>
0.0596

> <Gold.Rescore>
     Score         DG    S(hbond)    S(metal)    S(lipo)     H(rot)  DE(clash)    DE(int)     intcor
     14.13     -14.24       0.20        0.00      91.05       1.00       0.06       0.05       ----

> <Gold.Chemscore.Fitness>
14.1288

> <Gold.Chemscore.DG>
-14.2361

> <Gold.Chemscore.ZeroCoef>
-5.4800

> <Gold.Chemscore.Hbond>
0.1987

> <Gold.Chemscore.Metal>
0.0000

> <Gold.Chemscore.Lipo>
91.0457

> <Gold.Chemscore.Internal_Hbond>
0.0000

> <Gold.Chemscore.DEClash>
0.0600

> <Gold.Chemscore.DEInternal>
0.0473

> <Gold.Chemscore.Rot>
1.0000

> <Gold.Chemscore.Internal.Correction>
   9.000000E+99

> <Gold.Chemscore.Hbonds>
donor molecule, donor type, donor heavy atom, donor atom, acceptor molecule, acceptor atom, score
      P1  H  7997  8008       L1     9  0.04

> <Gold.Chemscore.Hbond.Weighted>
-0.6637

> <Gold.Chemscore.Metal.Weighted>
-0.0000

> <Gold.Chemscore.Lipo.Weighted>
-10.6523

> <Gold.Chemscore.Internal_Hbond.Weighted>
0.0000

> <Gold.Chemscore.DEClash.Weighted>
0.0600

> <Gold.Chemscore.DEInternal.Weighted>
0.0473

> <Gold.Chemscore.Rot.Weighted>
2.5600

> <Gold.Chemscore.Internal.Correction.Weighted>
   9.000000E+99

> <Gold.Protein.RotatedTorsions>
[ 6907 6896 6895 6894 ] final   38.35 input  -60.11 | X-H torsion
[ 7974 7965 7964 7962 ] final  -94.27 input  175.53 | X-H torsion
[ 8008 7997 7996 7995 ] final  -99.42 input   59.86 | X-H torsion
[ 10167 10162 10161 10158 ] final   16.02 input  -65.29 | X-H torsion
[ 10718 10713 10712 10709 ] final -129.12 input   66.30 | X-H torsion
[ 10763 10752 10751 10750 ] final   86.93 input  -60.55 | X-H torsion
[ 11005 11000 10999 10996 ] final   33.92 input  -57.11 | X-H torsion

> <Gold.Protein.ActiveResidues>
 VAL166  LYS551  ARG553  GLY616  TRP617  ASP618  TYR619  PRO620  LYS621  CYS622 
 ASP623  PHE694  ASN695  SER759  ASP760  ASP761  ALA762  ILE779  LEU786  VAL792 
 PHE793  MET794  SER795  GLU796  ALA797  LYS798  CYS799  TRP800  GLU811  SER814 

> <Gold.Protein.RotatedAtoms>
  152.1553  134.8956  160.0545 H   0  0  0  0  0  0  0  0  0  0  0  0  # atno 6907 bound_to 6896
  151.9972  133.3807  159.4176 H   0  0  0  0  0  0  0  0  0  0  0  0  # atno 6908 bound_to 6896
  150.6880  134.3795  159.5071 H   0  0  0  0  0  0  0  0  0  0  0  0  # atno 6909 bound_to 6896
  145.3755  140.9511  143.2423 H   0  0  0  0  0  0  0  0  0  0  0  0  # atno 7974 bound_to 7965
  154.8146  140.0448  157.1367 H   0  0  0  0  0  0  0  0  0  0  0  0  # atno 8008 bound_to 7997
  154.9329  140.3042  155.5139 H   0  0  0  0  0  0  0  0  0  0  0  0  # atno 8009 bound_to 7997
  156.2975  140.2320  156.4390 H   0  0  0  0  0  0  0  0  0  0  0  0  # atno 8010 bound_to 7997
  140.5827  143.8950  150.6803 H   0  0  0  0  0  0  0  0  0  0  0  0  # atno 10167 bound_to 10162
  156.2016  130.6861  151.0545 H   0  0  0  0  0  0  0  0  0  0  0  0  # atno 10718 bound_to 10713
  153.1618  135.4562  154.9782 H   0  0  0  0  0  0  0  0  0  0  0  0  # atno 10763 bound_to 10752
  154.7903  135.3218  154.7795 H   0  0  0  0  0  0  0  0  0  0  0  0  # atno 10764 bound_to 10752
  153.8284  135.6941  153.4872 H   0  0  0  0  0  0  0  0  0  0  0  0  # atno 10765 bound_to 10752
  140.2581  134.3224  155.7867 H   0  0  0  0  0  0  0  0  0  0  0  0  # atno 11005 bound_to 11000
  144.8545  139.5270  143.6841 LP  0  0  0  0  0  0  0  0  0  0  0  0  # atno 17320 bound_to 7965
  146.2866  139.7021  142.9191 LP  0  0  0  0  0  0  0  0  0  0  0  0  # atno 17321 bound_to 7965
  140.2453  143.3633  152.1452 LP  0  0  0  0  0  0  0  0  0  0  0  0  # atno 17342 bound_to 10162
  139.5179  144.6998  151.5525 LP  0  0  0  0  0  0  0  0  0  0  0  0  # atno 17343 bound_to 10162
  157.6989  131.0783  150.6883 LP  0  0  0  0  0  0  0  0  0  0  0  0  # atno 17370 bound_to 10713
  156.6941  130.4604  149.5591 LP  0  0  0  0  0  0  0  0  0  0  0  0  # atno 17371 bound_to 10713
  141.2193  133.7393  156.9144 LP  0  0  0  0  0  0  0  0  0  0  0  0  # atno 17394 bound_to 11000
  140.1491  134.9242  157.2569 LP  0  0  0  0  0  0  0  0  0  0  0  0  # atno 17395 bound_to 11000

$$$$
