AV-unprocessed.smi:1816|AV-procd|sdf|7367|dock2
  -GOLD-   22720 9 33D 1   1.00000     0.00000
 Structure written by MMmdl.
 35 36  0  0  0  0  0  0  0  0  3 V2000
  141.9061  135.1397  153.2528 C   0  0  0  0  0  0  0  0  0  0  0  0
  143.4434  134.9790  153.2758 C   0  0  1  0  0  0  0  0  0  0  0  0
  144.0071  135.2967  154.6807 C   0  0  0  0  0  0  0  0  0  0  0  0
  143.4878  134.3844  155.6918 N   0  0  0  0  0  0  0  0  0  0  0  0
  143.7290  134.4722  157.0060 C   0  0  0  0  0  0  0  0  0  0  0  0
  144.4383  135.3828  157.4398 O   0  0  0  0  0  0  0  0  0  0  0  0
  143.1346  133.4992  157.7318 N   0  5  0  0  0  0  0  0  0  0  0  0
  143.1206  133.5747  159.0727 C   0  0  0  0  0  0  0  0  0  0  0  0
  143.7361  134.5473  159.7549 N   0  0  0  0  0  0  0  0  0  0  0  0
  143.5870  134.4348  161.1385 C   0  0  0  0  0  0  0  0  0  0  0  0
  142.8318  133.3569  161.5179 C   0  0  0  0  0  0  0  0  0  0  0  0
  142.2835  132.4446  160.1407 S   0  0  0  0  0  0  0  0  0  0  0  0
  143.8494  133.6099  152.8451 N   0  3  0  0  0  0  0  0  0  0  0  0
  143.3545  133.1785  151.5195 C   0  0  0  0  0  0  0  0  0  0  0  0
  144.2677  132.0286  151.1115 C   0  0  0  0  0  0  0  0  0  0  0  0
  145.6282  132.4686  151.6389 C   0  0  0  0  0  0  0  0  0  0  0  0
  145.3119  133.3498  152.8554 C   0  0  0  0  0  0  0  0  0  0  0  0
  141.5989  136.1345  153.5755 H   0  0  0  0  0  0  0  0  0  0  0  0
  141.4241  134.4179  153.9129 H   0  0  0  0  0  0  0  0  0  0  0  0
  141.4944  135.0059  152.2528 H   0  0  0  0  0  0  0  0  0  0  0  0
  143.8663  135.6909  152.5648 H   0  0  0  0  0  0  0  0  0  0  0  0
  145.0967  135.2360  154.6667 H   0  0  0  0  0  0  0  0  0  0  0  0
  143.7500  136.3106  154.9890 H   0  0  0  0  0  0  0  0  0  0  0  0
  142.9019  133.6256  155.3755 H   0  0  0  0  0  0  0  0  0  0  0  0
  144.0521  135.1688  161.7794 H   0  0  0  0  0  0  0  0  0  0  0  0
  142.5650  133.0456  162.5165 H   0  0  0  0  0  0  0  0  0  0  0  0
  142.3077  132.8749  151.5515 H   0  0  0  0  0  0  0  0  0  0  0  0
  143.4527  133.9974  150.8047 H   0  0  0  0  0  0  0  0  0  0  0  0
  143.9545  131.1105  151.6109 H   0  0  0  0  0  0  0  0  0  0  0  0
  144.2672  131.8457  150.0365 H   0  0  0  0  0  0  0  0  0  0  0  0
  146.2709  131.6236  151.8879 H   0  0  0  0  0  0  0  0  0  0  0  0
  146.1408  133.0619  150.8804 H   0  0  0  0  0  0  0  0  0  0  0  0
  145.8876  134.2747  152.7949 H   0  0  0  0  0  0  0  0  0  0  0  0
  145.5807  132.8516  153.7875 H   0  0  0  0  0  0  0  0  0  0  0  0
  143.4489  132.9640  153.5104 H   0  0  0  0  0  0  0  0  0  0  0  0
  1  2  1  0  0  0  0
  1 18  1  0  0  0  0
  1 19  1  0  0  0  0
  1 20  1  0  0  0  0
  2  3  1  0  0  0  0
  2 13  1  0  0  0  0
  2 21  1  0  0  0  0
  3  4  1  0  0  0  0
  3 22  1  0  0  0  0
  3 23  1  0  0  0  0
  4  5  1  0  0  0  0
  4 24  1  0  0  0  0
  5  6  2  0  0  0  0
  5  7  1  0  0  0  0
  7  8  1  0  0  0  0
  8 12  1  0  0  0  0
  8  9  2  0  0  0  0
  9 10  1  0  0  0  0
 10 11  2  0  0  0  0
 10 25  1  0  0  0  0
 11 12  1  0  0  0  0
 11 26  1  0  0  0  0
 13 17  1  0  0  0  0
 13 14  1  0  0  0  0
 13 35  1  0  0  0  0
 14 15  1  0  0  0  0
 14 27  1  0  0  0  0
 14 28  1  0  0  0  0
 15 16  1  0  0  0  0
 15 29  1  0  0  0  0
 15 30  1  0  0  0  0
 16 17  1  0  0  0  0
 16 31  1  0  0  0  0
 16 32  1  0  0  0  0
 17 33  1  0  0  0  0
 17 34  1  0  0  0  0
M  CHG  1   7  -1
M  CHG  1  13   1
M  END
> <s_m_source_file>
AV-unprocessed.smi

> <i_m_source_file_index>
1816

> <i_lp_mmshare_version>
43012

> <i_f3d_flags>
0

> <s_epik_input>
W0NIMl0xW0NIMl1bQ0gyXVtDSDJdTjFbQ0BIXShbQ0gzXSlbQ0gyXVtOSF1DKD1PKVtOSF1jMm5bY0hdW2NIXXMy

> <s_epik_cmdline>
J2VwaWtfcHl0aG9uJywgJy1waCcsICc3LjAnLCAnLXRuJywgJzgnLCAnLW1hJywgJzIwMCcsICctbWV0YWxfYmluZGluZycsICctaW1hZScsICc8aW5maWxlLm1hZT4nLCAnLW9tYWUnLCAnPG91dGZpbGUubWFlPic=

> <r_lp_tautomer_probability>
0.999

> <r_epik_Ionization_Penalty>
6.21769

> <r_epik_Ionization_Penalty_Charging>
5.38662

> <r_epik_Ionization_Penalty_Neutral>
0.831074

> <r_epik_State_Penalty>
5.38626

> <r_epik_Charging_Adjusted_Penalty>
10.7729

> <i_epik_Tot_Q>
0

> <i_epik_Tot_abs_Q>
2

> <r_epik_Metal_State_Penalty>
1.41347

> <b_epik_Metal_Only>
1

> <s_lp_Force_Field>
OPLS_2005

> <r_lp_Energy>
20.95

> <b_lp_Chiralities_Consistent>
1

> <s_lp_Variant>
AV-unprocessed.smi:1816-4

> <Gold.Version>
5.8.1

> <Gold.Id.Protein>
6NUR|6NUR_protein|mol2

> <Gold.PLP.Fitness>
34.5765

> <Gold.PLP.PLP>
-22.8533

> <Gold.PLP.part.hbond>
-3.4748

> <Gold.PLP.part.metal>
0.0000

> <Gold.PLP.part.buried>
-4.2388

> <Gold.PLP.part.nonpolar>
-15.0473

> <Gold.PLP.part.repulsive>
0.1071

> <Gold.PLP.ligand.clash>
0.0000

> <Gold.PLP.ligand.torsion>
0.0499

> <Gold.PLP.Chemscore.Hbond>
3.9260

> <Gold.PLP.Chemscore.CHOScore>
0.0000

> <Gold.PLP.Chemscore.Metal>
0.0000

> <Gold.Chemscore.Hbonds>
donor molecule, donor type, donor heavy atom, donor atom, acceptor molecule, acceptor atom, score
      L1  H     4    24       P1 10957  1.00
      L1  H    13    35       P1 10957  2.00
      P1  H 11000 11005       L1     7  0.82

> <Gold.PLP.Chemscore.Internal.Correction>
0.0450

> <Gold.Rescore>
     Score         DG    S(hbond)    S(metal)    S(lipo)     H(rot)  DE(clash)    DE(int)     intcor
     14.37     -16.29       2.62        0.00      51.94       1.57       0.00       1.92       ----

> <Gold.Chemscore.Fitness>
14.3710

> <Gold.Chemscore.DG>
-16.2862

> <Gold.Chemscore.ZeroCoef>
-5.4800

> <Gold.Chemscore.Hbond>
2.6203

> <Gold.Chemscore.Metal>
0.0000

> <Gold.Chemscore.Lipo>
51.9357

> <Gold.Chemscore.Internal_Hbond>
0.0000

> <Gold.Chemscore.DEClash>
0.0000

> <Gold.Chemscore.DEInternal>
1.9153

> <Gold.Chemscore.Rot>
1.5710

> <Gold.Chemscore.Internal.Correction>
   9.000000E+99

> <Gold.Chemscore.Hbonds>
donor molecule, donor type, donor heavy atom, donor atom, acceptor molecule, acceptor atom, score
      L1  H     4    24       P1 10957  0.95
      L1  H    13    35       P1 10957  0.85
      P1  H 11000 11005       L1     7  0.07

> <Gold.Chemscore.Hbond.Weighted>
-8.7517

> <Gold.Chemscore.Metal.Weighted>
-0.0000

> <Gold.Chemscore.Lipo.Weighted>
-6.0765

> <Gold.Chemscore.Internal_Hbond.Weighted>
0.0000

> <Gold.Chemscore.DEClash.Weighted>
0.0000

> <Gold.Chemscore.DEInternal.Weighted>
1.9153

> <Gold.Chemscore.Rot.Weighted>
4.0219

> <Gold.Chemscore.Internal.Correction.Weighted>
   9.000000E+99

> <Gold.Protein.RotatedTorsions>
[ 6907 6896 6895 6894 ] final   64.04 input  -60.11 | X-H torsion
[ 7974 7965 7964 7962 ] final -175.36 input  175.53 | X-H torsion
[ 8008 7997 7996 7995 ] final    6.66 input   59.86 | X-H torsion
[ 10167 10162 10161 10158 ] final -107.64 input  -65.29 | X-H torsion
[ 10718 10713 10712 10709 ] final  -60.21 input   66.30 | X-H torsion
[ 10763 10752 10751 10750 ] final   82.17 input  -60.55 | X-H torsion
[ 11005 11000 10999 10996 ] final -109.23 input  -57.11 | X-H torsion

> <Gold.Protein.ActiveResidues>
 VAL166  LYS551  ARG553  GLY616  TRP617  ASP618  TYR619  PRO620  LYS621  CYS622 
 ASP623  PHE694  ASN695  SER759  ASP760  ASP761  ALA762  ILE779  LEU786  VAL792 
 PHE793  MET794  SER795  GLU796  ALA797  LYS798  CYS799  TRP800  GLU811  SER814 

> <Gold.Protein.RotatedAtoms>
  152.4301  134.5794  159.9943 H   0  0  0  0  0  0  0  0  0  0  0  0  # atno 6907 bound_to 6896
  151.5920  133.3360  159.3037 H   0  0  0  0  0  0  0  0  0  0  0  0  # atno 6908 bound_to 6896
  150.8193  134.7428  159.6823 H   0  0  0  0  0  0  0  0  0  0  0  0  # atno 6909 bound_to 6896
  144.7128  140.1332  143.6397 H   0  0  0  0  0  0  0  0  0  0  0  0  # atno 7974 bound_to 7965
  154.7439  140.2754  155.6350 H   0  0  0  0  0  0  0  0  0  0  0  0  # atno 8008 bound_to 7997
  156.2880  140.2691  156.2100 H   0  0  0  0  0  0  0  0  0  0  0  0  # atno 8009 bound_to 7997
  155.0223  140.0371  157.2432 H   0  0  0  0  0  0  0  0  0  0  0  0  # atno 8010 bound_to 7997
  140.1747  143.4014  152.1327 H   0  0  0  0  0  0  0  0  0  0  0  0  # atno 10167 bound_to 10162
  156.1006  130.4187  150.0822 H   0  0  0  0  0  0  0  0  0  0  0  0  # atno 10718 bound_to 10713
  153.1180  135.4738  154.9147 H   0  0  0  0  0  0  0  0  0  0  0  0  # atno 10763 bound_to 10752
  154.7547  135.3115  154.8494 H   0  0  0  0  0  0  0  0  0  0  0  0  # atno 10764 bound_to 10752
  153.9066  135.6869  153.4806 H   0  0  0  0  0  0  0  0  0  0  0  0  # atno 10765 bound_to 10752
  141.0859  133.9140  157.2187 H   0  0  0  0  0  0  0  0  0  0  0  0  # atno 11005 bound_to 11000
  145.9268  139.2580  143.1349 LP  0  0  0  0  0  0  0  0  0  0  0  0  # atno 17320 bound_to 7965
  145.9564  140.8869  143.0233 LP  0  0  0  0  0  0  0  0  0  0  0  0  # atno 17321 bound_to 7965
  139.5322  144.7171  151.5016 LP  0  0  0  0  0  0  0  0  0  0  0  0  # atno 17342 bound_to 10162
  140.6559  143.8601  150.6834 LP  0  0  0  0  0  0  0  0  0  0  0  0  # atno 17343 bound_to 10162
  156.8810  130.9556  151.3599 LP  0  0  0  0  0  0  0  0  0  0  0  0  # atno 17370 bound_to 10713
  157.6176  130.8630  149.9054 LP  0  0  0  0  0  0  0  0  0  0  0  0  # atno 17371 bound_to 10713
  139.9677  135.0137  156.9430 LP  0  0  0  0  0  0  0  0  0  0  0  0  # atno 17394 bound_to 11000
  140.5365  134.0762  155.7329 LP  0  0  0  0  0  0  0  0  0  0  0  0  # atno 17395 bound_to 11000

$$$$
