AV-unprocessed.smi:91|AV-procd|sdf|839|dock3
  -GOLD-   2262017273D 1   1.00000     0.00000
 Structure written by MMmdl.
 60 63  0  0  0  0  0  0  0  0  1 V2000
  147.9935  134.1845  159.8940 C   0  0  0  0  0  0  0  0  0  0  0  0
  147.2350  134.9115  158.9438 O   0  0  0  0  0  0  0  0  0  0  0  0
  147.1232  134.2349  157.7016 C   0  0  0  0  0  0  0  0  0  0  0  0
  148.4845  134.2130  156.9933 C   0  0  2  0  0  0  0  0  0  0  0  0
  149.0326  135.6227  156.7033 C   0  0  0  0  0  0  0  0  0  0  0  0
  150.2566  135.5259  155.9225 N   0  0  0  0  0  0  0  0  0  0  0  0
  150.8913  136.7073  155.7728 C   0  0  0  0  0  0  0  0  0  0  0  0
  151.5738  136.9758  154.6285 N   0  0  0  0  0  0  0  0  0  0  0  0
  152.1991  138.1486  154.4856 C   0  0  0  0  0  0  0  0  0  0  0  0
  152.2679  139.1686  155.3448 N   0  0  0  0  0  0  0  0  0  0  0  0
  151.5819  138.8973  156.4926 C   0  0  0  0  0  0  0  0  0  0  0  0
  150.8688  137.7017  156.7843 C   0  0  0  0  0  0  0  0  0  0  0  0
  150.2955  137.7818  158.0469 N   0  0  0  0  0  0  0  0  0  0  0  0
  150.6550  138.9594  158.4816 C   0  0  0  0  0  0  0  0  0  0  0  0
  151.4337  139.6933  157.6150 N   0  0  0  0  0  0  0  0  0  0  0  0
  151.9731  141.0221  157.8475 C   0  0  0  0  0  0  0  0  0  0  0  0
  152.1980  141.3386  159.3472 C   0  0  1  0  0  0  0  0  0  0  0  0
  153.2574  140.4204  160.0049 C   0  0  0  0  0  0  0  0  0  0  0  0
  154.4466  140.3724  159.2436 O   0  0  0  0  0  0  0  0  0  0  0  0
  152.5058  142.8411  159.5712 C   0  0  1  0  0  0  0  0  0  0  0  0
  151.4863  143.7977  158.9782 C   0  0  0  0  0  0  0  0  0  0  0  0
  151.7912  145.0902  159.7263 C   0  0  0  0  0  0  0  0  0  0  0  0
  152.2040  144.6873  161.0269 O   0  0  0  0  0  0  0  0  0  0  0  0
  152.4890  143.2915  161.0364 C   0  0  0  0  0  0  0  0  0  0  0  0
  150.0660  134.7824  154.6836 C   0  0  0  0  0  0  0  0  0  0  0  0
  149.5230  133.3653  154.9721 C   0  0  0  0  0  0  0  0  0  0  0  0
  149.0634  132.7081  153.6617 C   0  0  0  0  0  0  0  0  0  0  0  0
  150.5825  132.4679  155.6461 C   0  0  0  0  0  0  0  0  0  0  0  0
  148.3457  133.4684  155.7815 O   0  0  0  0  0  0  0  0  0  0  0  0
  148.0499  134.7475  160.8256 H   0  0  0  0  0  0  0  0  0  0  0  0
  149.0114  134.0156  159.5404 H   0  0  0  0  0  0  0  0  0  0  0  0
  147.5333  133.2199  160.1114 H   0  0  0  0  0  0  0  0  0  0  0  0
  146.7801  133.2132  157.8714 H   0  0  0  0  0  0  0  0  0  0  0  0
  146.3827  134.7261  157.0682 H   0  0  0  0  0  0  0  0  0  0  0  0
  149.1815  133.6903  157.6484 H   0  0  0  0  0  0  0  0  0  0  0  0
  148.2991  136.2093  156.1485 H   0  0  0  0  0  0  0  0  0  0  0  0
  149.2264  136.1495  157.6388 H   0  0  0  0  0  0  0  0  0  0  0  0
  152.7200  138.2890  153.5500 H   0  0  0  0  0  0  0  0  0  0  0  0
  150.3648  139.3267  159.4554 H   0  0  0  0  0  0  0  0  0  0  0  0
  152.9090  141.1190  157.2962 H   0  0  0  0  0  0  0  0  0  0  0  0
  151.2821  141.7394  157.4046 H   0  0  0  0  0  0  0  0  0  0  0  0
  151.2562  141.1262  159.8551 H   0  0  0  0  0  0  0  0  0  0  0  0
  153.5017  140.7674  161.0087 H   0  0  0  0  0  0  0  0  0  0  0  0
  152.8782  139.4057  160.1263 H   0  0  0  0  0  0  0  0  0  0  0  0
  155.1628  140.1497  159.8195 H   0  0  0  0  0  0  0  0  0  0  0  0
  153.4828  143.0802  159.1478 H   0  0  0  0  0  0  0  0  0  0  0  0
  151.5769  143.9115  157.8976 H   0  0  0  0  0  0  0  0  0  0  0  0
  150.4719  143.4660  159.2045 H   0  0  0  0  0  0  0  0  0  0  0  0
  152.6164  145.6196  159.2480 H   0  0  0  0  0  0  0  0  0  0  0  0
  150.9344  145.7631  159.7681 H   0  0  0  0  0  0  0  0  0  0  0  0
  151.6948  142.7875  161.5886 H   0  0  0  0  0  0  0  0  0  0  0  0
  153.4325  143.0892  161.5442 H   0  0  0  0  0  0  0  0  0  0  0  0
  149.3616  135.3234  154.0496 H   0  0  0  0  0  0  0  0  0  0  0  0
  151.0077  134.7233  154.1353 H   0  0  0  0  0  0  0  0  0  0  0  0
  149.8908  132.6021  152.9593 H   0  0  0  0  0  0  0  0  0  0  0  0
  148.2885  133.3000  153.1733 H   0  0  0  0  0  0  0  0  0  0  0  0
  148.6517  131.7145  153.8417 H   0  0  0  0  0  0  0  0  0  0  0  0
  151.4289  132.2984  154.9801 H   0  0  0  0  0  0  0  0  0  0  0  0
  150.1660  131.4938  155.9031 H   0  0  0  0  0  0  0  0  0  0  0  0
  150.9830  132.9074  156.5592 H   0  0  0  0  0  0  0  0  0  0  0  0
  1  2  1  0  0  0  0
  1 30  1  0  0  0  0
  1 31  1  0  0  0  0
  1 32  1  0  0  0  0
  2  3  1  0  0  0  0
  3  4  1  0  0  0  0
  3 33  1  0  0  0  0
  3 34  1  0  0  0  0
  4 29  1  0  0  0  0
  4  5  1  0  0  0  0
  4 35  1  0  0  0  0
  5  6  1  0  0  0  0
  5 36  1  0  0  0  0
  5 37  1  0  0  0  0
  6  7  1  0  0  0  0
  6 25  1  0  0  0  0
  7 12  1  0  0  0  0
  7  8  2  0  0  0  0
  8  9  1  0  0  0  0
  9 10  2  0  0  0  0
  9 38  1  0  0  0  0
 10 11  1  0  0  0  0
 11 15  1  0  0  0  0
 11 12  2  0  0  0  0
 12 13  1  0  0  0  0
 13 14  2  0  0  0  0
 14 15  1  0  0  0  0
 14 39  1  0  0  0  0
 15 16  1  0  0  0  0
 16 17  1  0  0  0  0
 16 40  1  0  0  0  0
 16 41  1  0  0  0  0
 17 18  1  0  0  0  0
 17 20  1  0  0  0  0
 17 42  1  0  0  0  0
 18 19  1  0  0  0  0
 18 43  1  0  0  0  0
 18 44  1  0  0  0  0
 19 45  1  0  0  0  0
 20 24  1  0  0  0  0
 20 21  1  0  0  0  0
 20 46  1  0  0  0  0
 21 22  1  0  0  0  0
 21 47  1  0  0  0  0
 21 48  1  0  0  0  0
 22 23  1  0  0  0  0
 22 49  1  0  0  0  0
 22 50  1  0  0  0  0
 23 24  1  0  0  0  0
 24 51  1  0  0  0  0
 24 52  1  0  0  0  0
 25 26  1  0  0  0  0
 25 53  1  0  0  0  0
 25 54  1  0  0  0  0
 26 27  1  0  0  0  0
 26 28  1  0  0  0  0
 26 29  1  0  0  0  0
 27 55  1  0  0  0  0
 27 56  1  0  0  0  0
 27 57  1  0  0  0  0
 28 58  1  0  0  0  0
 28 59  1  0  0  0  0
 28 60  1  0  0  0  0
M  END
> <s_m_source_file>
AV-unprocessed.smi

> <i_m_source_file_index>
91

> <i_lp_mmshare_version>
43012

> <i_f3d_flags>
0

> <s_epik_input>
W0NIM11PW0NIMl1bQ0BASF0oTzEpW0NIMl1OKFtDSDJdQzEoW0NIM10pW0NIM10pYyhuW2NIXW4yKWMoYzIzKW5bY0hdbjNbQ0gyXVtDQEhdKFtDSDJdW09IXSlbQ0BASF00W0NIMl1bQ0gyXU9bQ0gyXTQ=

> <s_epik_cmdline>
J2VwaWtfcHl0aG9uJywgJy1waCcsICc3LjAnLCAnLXRuJywgJzgnLCAnLW1hJywgJzIwMCcsICctbWV0YWxfYmluZGluZycsICctaW1hZScsICc8aW5maWxlLm1hZT4nLCAnLW9tYWUnLCAnPG91dGZpbGUubWFlPic=

> <r_lp_tautomer_probability>
1

> <r_epik_Ionization_Penalty>
8.63591e-05

> <r_epik_Ionization_Penalty_Charging>
0

> <r_epik_Ionization_Penalty_Neutral>
8.63591e-05

> <r_epik_State_Penalty>
-0

> <r_epik_Charging_Adjusted_Penalty>
0

> <i_epik_Tot_Q>
0

> <i_epik_Tot_abs_Q>
0

> <r_epik_Metal_State_Penalty>
-0

> <b_epik_Metal_Only>
0

> <s_lp_Force_Field>
OPLS_2005

> <r_lp_Energy>
46.8468

> <b_lp_Chiralities_Consistent>
1

> <s_lp_Variant>
AV-unprocessed.smi:91-7

> <Gold.Version>
5.8.1

> <Gold.Id.Protein>
6NUR|6NUR_protein|mol2

> <Gold.PLP.Fitness>
48.3305

> <Gold.PLP.PLP>
-44.6162

> <Gold.PLP.part.hbond>
-2.0000

> <Gold.PLP.part.metal>
0.0000

> <Gold.PLP.part.buried>
-6.0869

> <Gold.PLP.part.nonpolar>
-36.8599

> <Gold.PLP.part.repulsive>
0.3927

> <Gold.PLP.ligand.clash>
0.0000

> <Gold.PLP.ligand.torsion>
1.1292

> <Gold.PLP.Chemscore.Hbond>
1.8320

> <Gold.PLP.Chemscore.CHOScore>
0.0000

> <Gold.PLP.Chemscore.Metal>
0.0000

> <Gold.Chemscore.Hbonds>
donor molecule, donor type, donor heavy atom, donor atom, acceptor molecule, acceptor atom, score
      P1  H  7997  8009       L1    19  0.81
      P1  H 10752 10763       L1     8  1.00

> <Gold.PLP.Chemscore.Internal.Correction>
0.4767

> <Gold.Rescore>
     Score         DG    S(hbond)    S(metal)    S(lipo)     H(rot)  DE(clash)    DE(int)     intcor
     13.49     -16.17       1.71        0.00     108.82       3.03       0.18       2.50       ----

> <Gold.Chemscore.Fitness>
13.4885

> <Gold.Chemscore.DG>
-16.1704

> <Gold.Chemscore.ZeroCoef>
-5.4800

> <Gold.Chemscore.Hbond>
1.7100

> <Gold.Chemscore.Metal>
0.0000

> <Gold.Chemscore.Lipo>
108.8196

> <Gold.Chemscore.Internal_Hbond>
0.0000

> <Gold.Chemscore.DEClash>
0.1805

> <Gold.Chemscore.DEInternal>
2.5014

> <Gold.Chemscore.Rot>
3.0284

> <Gold.Chemscore.Internal.Correction>
   9.000000E+99

> <Gold.Chemscore.Hbonds>
donor molecule, donor type, donor heavy atom, donor atom, acceptor molecule, acceptor atom, score
      P1  H  7997  8009       L1    19  0.42
      P1  H 10752 10763       L1     8  0.30

> <Gold.Chemscore.Hbond.Weighted>
-5.7113

> <Gold.Chemscore.Metal.Weighted>
-0.0000

> <Gold.Chemscore.Lipo.Weighted>
-12.7319

> <Gold.Chemscore.Internal_Hbond.Weighted>
0.0000

> <Gold.Chemscore.DEClash.Weighted>
0.1805

> <Gold.Chemscore.DEInternal.Weighted>
2.5014

> <Gold.Chemscore.Rot.Weighted>
7.7528

> <Gold.Chemscore.Internal.Correction.Weighted>
   9.000000E+99

> <Gold.Protein.RotatedTorsions>
[ 6907 6896 6895 6894 ] final -107.97 input  -60.11 | X-H torsion
[ 7974 7965 7964 7962 ] final   12.95 input  175.53 | X-H torsion
[ 8008 7997 7996 7995 ] final  119.18 input   59.86 | X-H torsion
[ 10167 10162 10161 10158 ] final -163.89 input  -65.29 | X-H torsion
[ 10718 10713 10712 10709 ] final   36.49 input   66.30 | X-H torsion
[ 10763 10752 10751 10750 ] final   53.22 input  -60.55 | X-H torsion
[ 11005 11000 10999 10996 ] final  163.37 input  -57.11 | X-H torsion

> <Gold.Protein.ActiveResidues>
 VAL166  LYS551  ARG553  GLY616  TRP617  ASP618  TYR619  PRO620  LYS621  CYS622 
 ASP623  PHE694  ASN695  SER759  ASP760  ASP761  ALA762  ILE779  LEU786  VAL792 
 PHE793  MET794  SER795  GLU796  ALA797  LYS798  CYS799  TRP800  GLU811  SER814 

> <Gold.Protein.RotatedAtoms>
  150.7474  133.9747  159.3556 H   0  0  0  0  0  0  0  0  0  0  0  0  # atno 6907 bound_to 6896
  151.7683  135.0791  160.0365 H   0  0  0  0  0  0  0  0  0  0  0  0  # atno 6908 bound_to 6896
  152.3356  133.5971  159.5876 H   0  0  0  0  0  0  0  0  0  0  0  0  # atno 6909 bound_to 6896
  146.2340  139.9261  142.8503 H   0  0  0  0  0  0  0  0  0  0  0  0  # atno 7974 bound_to 7965
  156.2583  140.2858  156.0951 H   0  0  0  0  0  0  0  0  0  0  0  0  # atno 8008 bound_to 7997
  155.1421  140.0396  157.2818 H   0  0  0  0  0  0  0  0  0  0  0  0  # atno 8009 bound_to 7997
  154.6522  140.2547  155.7207 H   0  0  0  0  0  0  0  0  0  0  0  0  # atno 8010 bound_to 7997
  139.6289  144.0478  152.1998 H   0  0  0  0  0  0  0  0  0  0  0  0  # atno 10167 bound_to 10162
  157.3355  130.7520  149.6876 H   0  0  0  0  0  0  0  0  0  0  0  0  # atno 10718 bound_to 10713
  152.9794  135.5786  154.4705 H   0  0  0  0  0  0  0  0  0  0  0  0  # atno 10763 bound_to 10752
  154.4268  135.2773  155.1941 H   0  0  0  0  0  0  0  0  0  0  0  0  # atno 10764 bound_to 10752
  154.3666  135.6177  153.5772 H   0  0  0  0  0  0  0  0  0  0  0  0  # atno 10765 bound_to 10752
  140.2351  134.8094  157.3356 H   0  0  0  0  0  0  0  0  0  0  0  0  # atno 11005 bound_to 11000
  145.2090  140.9887  143.4112 LP  0  0  0  0  0  0  0  0  0  0  0  0  # atno 17320 bound_to 7965
  144.9708  139.3882  143.6310 LP  0  0  0  0  0  0  0  0  0  0  0  0  # atno 17321 bound_to 7965
  140.0139  144.6203  150.7624 LP  0  0  0  0  0  0  0  0  0  0  0  0  # atno 17342 bound_to 10162
  140.7427  143.2836  151.3527 LP  0  0  0  0  0  0  0  0  0  0  0  0  # atno 17343 bound_to 10162
  155.9701  130.4183  150.4320 LP  0  0  0  0  0  0  0  0  0  0  0  0  # atno 17370 bound_to 10713
  157.2359  131.0514  151.2465 LP  0  0  0  0  0  0  0  0  0  0  0  0  # atno 17371 bound_to 10713
  140.1710  134.4609  155.7832 LP  0  0  0  0  0  0  0  0  0  0  0  0  # atno 17394 bound_to 11000
  141.2215  133.6941  156.7707 LP  0  0  0  0  0  0  0  0  0  0  0  0  # atno 17395 bound_to 11000

$$$$
