AV-unprocessed.smi:2660|AV-procd|sdf|10315|dock9
  -GOLD-   2272014333D 1   1.00000     0.00000
 Structure written by MMmdl.
 36 37  0  0  0  0  0  0  0  0  1 V2000
  153.8822  138.4768  160.8040 N   0  0  0  0  0  0  0  0  0  0  0  0
  152.9193  138.7083  159.9031 C   0  0  0  0  0  0  0  0  0  0  0  0
  152.3724  137.7486  159.3598 O   0  0  0  0  0  0  0  0  0  0  0  0
  152.6328  140.1425  159.6748 C   0  0  0  0  0  0  0  0  0  0  0  0
  153.2419  141.1298  160.3696 C   0  0  0  0  0  0  0  0  0  0  0  0
  152.9178  142.5073  160.1192 C   0  0  0  0  0  0  0  0  0  0  0  0
  152.0704  142.8325  159.1252 C   0  0  0  0  0  0  0  0  0  0  0  0
  151.6194  144.2848  158.9236 C   0  0  0  0  0  0  0  0  0  0  0  0
  152.1330  145.0856  159.8583 F   0  0  0  0  0  0  0  0  0  0  0  0
  152.0229  144.7585  157.7462 F   0  0  0  0  0  0  0  0  0  0  0  0
  150.2932  144.3961  159.0144 F   0  0  0  0  0  0  0  0  0  0  0  0
  151.4946  141.8018  158.3182 N   0  0  0  0  0  0  0  0  0  0  0  0
  150.7335  142.1401  157.0876 C   0  0  0  0  0  0  0  0  0  0  0  0
  149.2376  141.7351  157.1585 C   0  0  1  0  0  0  0  0  0  0  0  0
  148.4987  142.8413  157.6375 O   0  0  0  0  0  0  0  0  0  0  0  0
  148.6957  141.1891  155.8420 C   0  0  0  0  0  0  0  0  0  0  0  0
  147.6236  141.8265  155.1779 C   0  0  0  0  0  0  0  0  0  0  0  0
  147.1413  141.3196  153.9557 C   0  0  0  0  0  0  0  0  0  0  0  0
  147.7254  140.1710  153.3894 C   0  0  0  0  0  0  0  0  0  0  0  0
  148.7914  139.5283  154.0470 C   0  0  0  0  0  0  0  0  0  0  0  0
  149.2730  140.0344  155.2697 C   0  0  0  0  0  0  0  0  0  0  0  0
  151.6470  140.4661  158.6122 C   0  0  0  0  0  0  0  0  0  0  0  0
  151.0041  139.6172  157.9873 O   0  0  0  0  0  0  0  0  0  0  0  0
  154.1409  137.5259  161.0245 H   0  0  0  0  0  0  0  0  0  0  0  0
  154.3437  139.2488  161.2617 H   0  0  0  0  0  0  0  0  0  0  0  0
  153.9750  140.9258  161.1357 H   0  0  0  0  0  0  0  0  0  0  0  0
  153.3354  143.2640  160.7664 H   0  0  0  0  0  0  0  0  0  0  0  0
  150.8140  143.2133  156.9032 H   0  0  0  0  0  0  0  0  0  0  0  0
  151.1460  141.6994  156.1870 H   0  0  0  0  0  0  0  0  0  0  0  0
  149.1015  140.9576  157.9103 H   0  0  0  0  0  0  0  0  0  0  0  0
  148.7656  143.6106  157.1584 H   0  0  0  0  0  0  0  0  0  0  0  0
  147.1716  142.7140  155.5958 H   0  0  0  0  0  0  0  0  0  0  0  0
  146.3243  141.8143  153.4513 H   0  0  0  0  0  0  0  0  0  0  0  0
  147.3556  139.7829  152.4518 H   0  0  0  0  0  0  0  0  0  0  0  0
  149.2402  138.6471  153.6131 H   0  0  0  0  0  0  0  0  0  0  0  0
  150.0930  139.5353  155.7650 H   0  0  0  0  0  0  0  0  0  0  0  0
  1  2  1  0  0  0  0
  1 24  1  0  0  0  0
  1 25  1  0  0  0  0
  2  3  2  0  0  0  0
  2  4  1  0  0  0  0
  4 22  1  0  0  0  0
  4  5  2  0  0  0  0
  5  6  1  0  0  0  0
  5 26  1  0  0  0  0
  6  7  2  0  0  0  0
  6 27  1  0  0  0  0
  7  8  1  0  0  0  0
  7 12  1  0  0  0  0
  8  9  1  0  0  0  0
  8 10  1  0  0  0  0
  8 11  1  0  0  0  0
 12 13  1  0  0  0  0
 12 22  1  0  0  0  0
 13 14  1  0  0  0  0
 13 28  1  0  0  0  0
 13 29  1  0  0  0  0
 14 15  1  0  0  0  0
 14 16  1  0  0  0  0
 14 30  1  0  0  0  0
 15 31  1  0  0  0  0
 16 21  1  0  0  0  0
 16 17  2  0  0  0  0
 17 18  1  0  0  0  0
 17 32  1  0  0  0  0
 18 19  2  0  0  0  0
 18 33  1  0  0  0  0
 19 20  1  0  0  0  0
 19 34  1  0  0  0  0
 20 21  2  0  0  0  0
 20 35  1  0  0  0  0
 21 36  1  0  0  0  0
 22 23  2  0  0  0  0
M  END
> <s_m_source_file>
AV-unprocessed.smi

> <i_m_source_file_index>
2660

> <i_lp_mmshare_version>
43012

> <i_f3d_flags>
0

> <s_epik_input>
W05IMl1DKD1PKWMxW2NIXVtjSF1jKEMoRikoRilGKW4oYzE9TylbQ0gyXVtDQEhdKFtPSF0pYzJbY0hdW2NIXVtjSF1bY0hdW2NIXTI=

> <s_epik_cmdline>
J2VwaWtfcHl0aG9uJywgJy1waCcsICc3LjAnLCAnLXRuJywgJzgnLCAnLW1hJywgJzIwMCcsICctbWV0YWxfYmluZGluZycsICctaW1hZScsICc8aW5maWxlLm1hZT4nLCAnLW9tYWUnLCAnPG91dGZpbGUubWFlPic=

> <r_lp_tautomer_probability>
1

> <r_epik_Ionization_Penalty>
1.58596e-06

> <r_epik_Ionization_Penalty_Charging>
5.13453e-09

> <r_epik_Ionization_Penalty_Neutral>
1.58083e-06

> <r_epik_State_Penalty>
-0

> <r_epik_Charging_Adjusted_Penalty>
5.13453e-09

> <i_epik_Tot_Q>
0

> <i_epik_Tot_abs_Q>
0

> <r_epik_Metal_State_Penalty>
-0

> <b_epik_Metal_Only>
0

> <s_lp_Force_Field>
OPLS_2005

> <r_lp_Energy>
32.13

> <b_lp_Chiralities_Consistent>
1

> <s_lp_Variant>
AV-unprocessed.smi:2660-2

> <Gold.Version>
5.8.1

> <Gold.Id.Protein>
6NUR|6NUR_protein|mol2

> <Gold.PLP.Fitness>
48.6274

> <Gold.PLP.PLP>
-47.2374

> <Gold.PLP.part.hbond>
-1.5078

> <Gold.PLP.part.metal>
0.0000

> <Gold.PLP.part.buried>
-3.2144

> <Gold.PLP.part.nonpolar>
-42.8468

> <Gold.PLP.part.repulsive>
0.0155

> <Gold.PLP.ligand.clash>
1.8139

> <Gold.PLP.ligand.torsion>
0.6180

> <Gold.PLP.Chemscore.Hbond>
0.8000

> <Gold.PLP.Chemscore.CHOScore>
0.0000

> <Gold.PLP.Chemscore.Metal>
0.0000

> <Gold.Chemscore.Hbonds>
donor molecule, donor type, donor heavy atom, donor atom, acceptor molecule, acceptor atom, score
      L1  H    15    31       P1  8028  0.95

> <Gold.PLP.Chemscore.Internal.Correction>
2.0399

> <Gold.Rescore>
     Score         DG    S(hbond)    S(metal)    S(lipo)     H(rot)  DE(clash)    DE(int)     intcor
      7.02     -14.29       0.90        0.00      97.84       2.21       1.71       5.56       ----

> <Gold.Chemscore.Fitness>
7.0210

> <Gold.Chemscore.DG>
-14.2940

> <Gold.Chemscore.ZeroCoef>
-5.4800

> <Gold.Chemscore.Hbond>
0.9044

> <Gold.Chemscore.Metal>
0.0000

> <Gold.Chemscore.Lipo>
97.8411

> <Gold.Chemscore.Internal_Hbond>
0.0000

> <Gold.Chemscore.DEClash>
1.7108

> <Gold.Chemscore.DEInternal>
5.5621

> <Gold.Chemscore.Rot>
2.2086

> <Gold.Chemscore.Internal.Correction>
   9.000000E+99

> <Gold.Chemscore.Hbonds>
donor molecule, donor type, donor heavy atom, donor atom, acceptor molecule, acceptor atom, score
      L1  H    15    31       P1  8028  0.21

> <Gold.Chemscore.Hbond.Weighted>
-3.0206

> <Gold.Chemscore.Metal.Weighted>
-0.0000

> <Gold.Chemscore.Lipo.Weighted>
-11.4474

> <Gold.Chemscore.Internal_Hbond.Weighted>
0.0000

> <Gold.Chemscore.DEClash.Weighted>
1.7108

> <Gold.Chemscore.DEInternal.Weighted>
5.5621

> <Gold.Chemscore.Rot.Weighted>
5.6540

> <Gold.Chemscore.Internal.Correction.Weighted>
   9.000000E+99

> <Gold.Protein.RotatedTorsions>
[ 6907 6896 6895 6894 ] final   20.79 input  -60.11 | X-H torsion
[ 7974 7965 7964 7962 ] final   15.81 input  175.53 | X-H torsion
[ 8008 7997 7996 7995 ] final   82.27 input   59.86 | X-H torsion
[ 10167 10162 10161 10158 ] final   92.97 input  -65.29 | X-H torsion
[ 10718 10713 10712 10709 ] final   35.91 input   66.30 | X-H torsion
[ 10763 10752 10751 10750 ] final  -56.55 input  -60.55 | X-H torsion
[ 11005 11000 10999 10996 ] final   64.54 input  -57.11 | X-H torsion

> <Gold.Protein.ActiveResidues>
 VAL166  LYS551  ARG553  GLY616  TRP617  ASP618  TYR619  PRO620  LYS621  CYS622 
 ASP623  PHE694  ASN695  SER759  ASP760  ASP761  ALA762  ILE779  LEU786  VAL792 
 PHE793  MET794  SER795  GLU796  ALA797  LYS798  CYS799  TRP800  GLU811  SER814 

> <Gold.Protein.RotatedAtoms>
  151.9018  135.0375  160.0506 H   0  0  0  0  0  0  0  0  0  0  0  0  # atno 6907 bound_to 6896
  152.2352  133.5085  159.5246 H   0  0  0  0  0  0  0  0  0  0  0  0  # atno 6908 bound_to 6896
  150.7037  134.1080  159.4032 H   0  0  0  0  0  0  0  0  0  0  0  0  # atno 6909 bound_to 6896
  146.2268  139.8840  142.8566 H   0  0  0  0  0  0  0  0  0  0  0  0  # atno 7974 bound_to 7965
  155.9083  140.3429  155.6079 H   0  0  0  0  0  0  0  0  0  0  0  0  # atno 8008 bound_to 7997
  155.7417  140.0808  157.2261 H   0  0  0  0  0  0  0  0  0  0  0  0  # atno 8009 bound_to 7997
  154.4052  140.1569  156.2611 H   0  0  0  0  0  0  0  0  0  0  0  0  # atno 8010 bound_to 7997
  139.8225  144.6725  150.9501 H   0  0  0  0  0  0  0  0  0  0  0  0  # atno 10167 bound_to 10162
  157.3285  130.7485  149.6831 H   0  0  0  0  0  0  0  0  0  0  0  0  # atno 10718 bound_to 10713
  154.2085  135.6398  153.5108 H   0  0  0  0  0  0  0  0  0  0  0  0  # atno 10763 bound_to 10752
  152.9995  135.5468  154.6240 H   0  0  0  0  0  0  0  0  0  0  0  0  # atno 10764 bound_to 10752
  154.5671  135.2913  155.0837 H   0  0  0  0  0  0  0  0  0  0  0  0  # atno 10765 bound_to 10752
  139.9952  134.6528  156.0022 H   0  0  0  0  0  0  0  0  0  0  0  0  # atno 11005 bound_to 11000
  145.2484  141.0035  143.3895 LP  0  0  0  0  0  0  0  0  0  0  0  0  # atno 17320 bound_to 7965
  144.9394  139.4206  143.6456 LP  0  0  0  0  0  0  0  0  0  0  0  0  # atno 17321 bound_to 7965
  140.7812  143.4078  151.1042 LP  0  0  0  0  0  0  0  0  0  0  0  0  # atno 17342 bound_to 10162
  139.7737  143.8456  152.3125 LP  0  0  0  0  0  0  0  0  0  0  0  0  # atno 17343 bound_to 10162
  155.9693  130.4202  150.4412 LP  0  0  0  0  0  0  0  0  0  0  0  0  # atno 17370 bound_to 10713
  157.2440  131.0532  151.2419 LP  0  0  0  0  0  0  0  0  0  0  0  0  # atno 17371 bound_to 10713
  141.1598  133.6539  156.4282 LP  0  0  0  0  0  0  0  0  0  0  0  0  # atno 17394 bound_to 11000
  140.4832  134.6645  157.5180 LP  0  0  0  0  0  0  0  0  0  0  0  0  # atno 17395 bound_to 11000

$$$$
