AV-unprocessed.smi:2018|AV-procd|sdf|8170|dock6
  -GOLD-   2272010413D 1   1.00000     0.00000
 Structure written by MMmdl.
 34 35  0  0  0  0  0  0  0  0  2 V2000
  153.0225  143.0717  161.9860 C   0  0  0  0  0  0  0  0  0  0  0  0
  152.6165  143.4932  160.6157 C   0  0  0  0  0  0  0  0  0  0  0  0
  152.2160  142.6398  159.6716 N   0  0  0  0  0  0  0  0  0  0  0  0
  151.8592  143.2775  158.4750 C   0  0  0  0  0  0  0  0  0  0  0  0
  151.3558  142.4710  157.3019 C   0  0  0  0  0  0  0  0  0  0  0  0
  150.9547  141.0156  157.6369 C   0  0  0  0  0  0  0  0  0  0  0  0
  150.9824  140.1912  156.4287 N   0  5  0  0  0  0  0  0  0  0  0  0
  150.2073  140.3818  155.3207 C   0  0  0  0  0  0  0  0  0  0  0  0
  150.3862  139.8744  154.2069 O   0  0  0  0  0  0  0  0  0  0  0  0
  149.0319  141.2960  155.4255 C   0  0  0  0  0  0  0  0  0  0  0  0
  148.4577  141.4695  156.5752 N   0  0  0  0  0  0  0  0  0  0  0  0
  147.3939  142.3290  156.7498 N   0  0  0  0  0  0  0  0  0  0  0  0
  147.0911  142.6023  158.1544 C   0  0  0  0  0  0  0  0  0  0  0  0
  146.6709  142.8698  155.7360 C   0  0  0  0  0  0  0  0  0  0  0  0
  145.7349  143.6535  155.8958 O   0  0  0  0  0  0  0  0  0  0  0  0
  147.0531  142.4334  154.3187 C   0  0  0  0  0  0  0  0  0  0  0  0
  148.5425  142.0534  154.2052 C   0  0  0  0  0  0  0  0  0  0  0  0
  152.0359  144.6400  158.5249 C   0  0  0  0  0  0  0  0  0  0  0  0
  152.6170  145.1683  160.0805 S   0  0  0  0  0  0  0  0  0  0  0  0
  152.9057  141.9940  162.1069 H   0  0  0  0  0  0  0  0  0  0  0  0
  152.4025  143.5743  162.7283 H   0  0  0  0  0  0  0  0  0  0  0  0
  154.0658  143.3332  162.1623 H   0  0  0  0  0  0  0  0  0  0  0  0
  150.4903  142.9730  156.8685 H   0  0  0  0  0  0  0  0  0  0  0  0
  152.1061  142.4620  156.5100 H   0  0  0  0  0  0  0  0  0  0  0  0
  151.6234  140.6368  158.4114 H   0  0  0  0  0  0  0  0  0  0  0  0
  149.9598  141.0219  158.0834 H   0  0  0  0  0  0  0  0  0  0  0  0
  146.2219  143.2442  158.3023 H   0  0  0  0  0  0  0  0  0  0  0  0
  147.9432  143.0884  158.6312 H   0  0  0  0  0  0  0  0  0  0  0  0
  146.9004  141.6686  158.6848 H   0  0  0  0  0  0  0  0  0  0  0  0
  146.4348  141.5717  154.0644 H   0  0  0  0  0  0  0  0  0  0  0  0
  146.8066  143.2192  153.6040 H   0  0  0  0  0  0  0  0  0  0  0  0
  149.1480  142.9505  154.0729 H   0  0  0  0  0  0  0  0  0  0  0  0
  148.6733  141.4563  153.3021 H   0  0  0  0  0  0  0  0  0  0  0  0
  151.8456  145.3627  157.7455 H   0  0  0  0  0  0  0  0  0  0  0  0
  1  2  1  0  0  0  0
  1 20  1  0  0  0  0
  1 21  1  0  0  0  0
  1 22  1  0  0  0  0
  2 19  1  0  0  0  0
  2  3  2  0  0  0  0
  3  4  1  0  0  0  0
  4  5  1  0  0  0  0
  4 18  2  0  0  0  0
  5  6  1  0  0  0  0
  5 23  1  0  0  0  0
  5 24  1  0  0  0  0
  6  7  1  0  0  0  0
  6 25  1  0  0  0  0
  6 26  1  0  0  0  0
  7  8  1  0  0  0  0
  8  9  2  0  0  0  0
  8 10  1  0  0  0  0
 10 17  1  0  0  0  0
 10 11  2  0  0  0  0
 11 12  1  0  0  0  0
 12 13  1  0  0  0  0
 12 14  1  0  0  0  0
 13 27  1  0  0  0  0
 13 28  1  0  0  0  0
 13 29  1  0  0  0  0
 14 15  2  0  0  0  0
 14 16  1  0  0  0  0
 16 17  1  0  0  0  0
 16 30  1  0  0  0  0
 16 31  1  0  0  0  0
 17 32  1  0  0  0  0
 17 33  1  0  0  0  0
 18 19  1  0  0  0  0
 18 34  1  0  0  0  0
M  CHG  1   7  -1
M  END
> <s_m_source_file>
AV-unprocessed.smi

> <i_m_source_file_index>
2018

> <i_lp_mmshare_version>
43012

> <i_f3d_flags>
0

> <s_epik_input>
W0NIM11jMW5jKFtjSF1zMSlbQ0gyXVtDSDJdW05IXUMoPU8pQzI9Tk4oW0NIM10pQyg9TylbQ0gyXVtDSDJdMg==

> <s_epik_cmdline>
J2VwaWtfcHl0aG9uJywgJy1waCcsICc3LjAnLCAnLXRuJywgJzgnLCAnLW1hJywgJzIwMCcsICctbWV0YWxfYmluZGluZycsICctaW1hZScsICc8aW5maWxlLm1hZT4nLCAnLW9tYWUnLCAnPG91dGZpbGUubWFlPic=

> <r_epik_Ionization_Penalty>
5.30398

> <r_epik_Ionization_Penalty_Charging>
5.30014

> <r_epik_Ionization_Penalty_Neutral>
0.0038335

> <r_epik_State_Penalty>
5.30046

> <r_epik_Charging_Adjusted_Penalty>
10.6006

> <i_epik_Tot_Q>
-1

> <i_epik_Tot_abs_Q>
1

> <r_epik_Metal_State_Penalty>
1.34504

> <b_epik_Metal_Only>
1

> <s_epik_Chemistry_Notes>
This compound has an imine and may undergo hydrolysis.

> <s_lp_Force_Field>
OPLS_2005

> <r_lp_Energy>
22.7314

> <b_lp_Chiralities_Consistent>
1

> <s_lp_Variant>
AV-unprocessed.smi:2018-2

> <Gold.Version>
5.8.1

> <Gold.Id.Protein>
6NUR|6NUR_protein|mol2

> <Gold.PLP.Fitness>
42.7666

> <Gold.PLP.PLP>
-41.0291

> <Gold.PLP.part.hbond>
-1.0000

> <Gold.PLP.part.metal>
0.0000

> <Gold.PLP.part.buried>
-6.0317

> <Gold.PLP.part.nonpolar>
-34.4622

> <Gold.PLP.part.repulsive>
0.3932

> <Gold.PLP.ligand.clash>
0.0000

> <Gold.PLP.ligand.torsion>
0.6426

> <Gold.PLP.Chemscore.Hbond>
1.0000

> <Gold.PLP.Chemscore.CHOScore>
0.0000

> <Gold.PLP.Chemscore.Metal>
0.0000

> <Gold.Chemscore.Hbonds>
donor molecule, donor type, donor heavy atom, donor atom, acceptor molecule, acceptor atom, score
      P1  H  7989  7998       L1     9  1.00

> <Gold.PLP.Chemscore.Internal.Correction>
0.0227

> <Gold.Rescore>
     Score         DG    S(hbond)    S(metal)    S(lipo)     H(rot)  DE(clash)    DE(int)     intcor
     13.69     -16.10       0.96        0.00      94.49       1.42       0.16       2.25       ----

> <Gold.Chemscore.Fitness>
13.6882

> <Gold.Chemscore.DG>
-16.0962

> <Gold.Chemscore.ZeroCoef>
-5.4800

> <Gold.Chemscore.Hbond>
0.9551

> <Gold.Chemscore.Metal>
0.0000

> <Gold.Chemscore.Lipo>
94.4923

> <Gold.Chemscore.Internal_Hbond>
0.0000

> <Gold.Chemscore.DEClash>
0.1558

> <Gold.Chemscore.DEInternal>
2.2523

> <Gold.Chemscore.Rot>
1.4178

> <Gold.Chemscore.Internal.Correction>
   9.000000E+99

> <Gold.Chemscore.Hbonds>
donor molecule, donor type, donor heavy atom, donor atom, acceptor molecule, acceptor atom, score
      P1  H  7989  7998       L1     9  0.44

> <Gold.Chemscore.Hbond.Weighted>
-3.1901

> <Gold.Chemscore.Metal.Weighted>
-0.0000

> <Gold.Chemscore.Lipo.Weighted>
-11.0556

> <Gold.Chemscore.Internal_Hbond.Weighted>
0.0000

> <Gold.Chemscore.DEClash.Weighted>
0.1558

> <Gold.Chemscore.DEInternal.Weighted>
2.2523

> <Gold.Chemscore.Rot.Weighted>
3.6295

> <Gold.Chemscore.Internal.Correction.Weighted>
   9.000000E+99

> <Gold.Protein.RotatedTorsions>
[ 6907 6896 6895 6894 ] final  127.29 input  -60.11 | X-H torsion
[ 7974 7965 7964 7962 ] final  -55.26 input  175.53 | X-H torsion
[ 8008 7997 7996 7995 ] final   37.24 input   59.86 | X-H torsion
[ 10167 10162 10161 10158 ] final   41.43 input  -65.29 | X-H torsion
[ 10718 10713 10712 10709 ] final  -59.78 input   66.30 | X-H torsion
[ 10763 10752 10751 10750 ] final  -56.10 input  -60.55 | X-H torsion
[ 11005 11000 10999 10996 ] final  138.87 input  -57.11 | X-H torsion

> <Gold.Protein.ActiveResidues>
 VAL166  LYS551  ARG553  GLY616  TRP617  ASP618  TYR619  PRO620  LYS621  CYS622 
 ASP623  PHE694  ASN695  SER759  ASP760  ASP761  ALA762  ILE779  LEU786  VAL792 
 PHE793  MET794  SER795  GLU796  ALA797  LYS798  CYS799  TRP800  GLU811  SER814 

> <Gold.Protein.RotatedAtoms>
  152.3826  133.6567  159.6172 H   0  0  0  0  0  0  0  0  0  0  0  0  # atno 6907 bound_to 6896
  150.7753  133.9089  159.3372 H   0  0  0  0  0  0  0  0  0  0  0  0  # atno 6908 bound_to 6896
  151.6891  135.0950  160.0281 H   0  0  0  0  0  0  0  0  0  0  0  0  # atno 6909 bound_to 6896
  145.8762  140.8179  142.9863 H   0  0  0  0  0  0  0  0  0  0  0  0  # atno 7974 bound_to 7965
  155.2006  140.3315  155.4344 H   0  0  0  0  0  0  0  0  0  0  0  0  # atno 8008 bound_to 7997
  156.2408  140.1894  156.7043 H   0  0  0  0  0  0  0  0  0  0  0  0  # atno 8009 bound_to 7997
  154.6144  140.0604  156.9521 H   0  0  0  0  0  0  0  0  0  0  0  0  # atno 8010 bound_to 7997
  140.3644  144.2186  150.6136 H   0  0  0  0  0  0  0  0  0  0  0  0  # atno 10167 bound_to 10162
  156.1037  130.4183  150.0763 H   0  0  0  0  0  0  0  0  0  0  0  0  # atno 10718 bound_to 10713
  154.2013  135.6410  153.5088 H   0  0  0  0  0  0  0  0  0  0  0  0  # atno 10763 bound_to 10752
  153.0011  135.5452  154.6312 H   0  0  0  0  0  0  0  0  0  0  0  0  # atno 10764 bound_to 10752
  154.5726  135.2918  155.0786 H   0  0  0  0  0  0  0  0  0  0  0  0  # atno 10765 bound_to 10752
  140.0214  134.9395  157.0481 H   0  0  0  0  0  0  0  0  0  0  0  0  # atno 11005 bound_to 11000
  144.6726  140.1313  143.7443 LP  0  0  0  0  0  0  0  0  0  0  0  0  # atno 17320 bound_to 7965
  145.9079  139.2469  143.1455 LP  0  0  0  0  0  0  0  0  0  0  0  0  # atno 17321 bound_to 7965
  140.5095  143.2294  151.8557 LP  0  0  0  0  0  0  0  0  0  0  0  0  # atno 17342 bound_to 10162
  139.4810  144.4966  151.9115 LP  0  0  0  0  0  0  0  0  0  0  0  0  # atno 17343 bound_to 10162
  156.8744  130.9535  151.3606 LP  0  0  0  0  0  0  0  0  0  0  0  0  # atno 17370 bound_to 10713
  157.6211  130.8655  149.9110 LP  0  0  0  0  0  0  0  0  0  0  0  0  # atno 17371 bound_to 10713
  140.4381  134.1710  155.7172 LP  0  0  0  0  0  0  0  0  0  0  0  0  # atno 17394 bound_to 11000
  141.1776  133.8482  157.1369 LP  0  0  0  0  0  0  0  0  0  0  0  0  # atno 17395 bound_to 11000

$$$$
