AV-unprocessed.smi:245|AV-procd|sdf|1876|dock9
  -GOLD-   2262020523D 1   1.00000     0.00000
 Structure written by MMmdl.
 54 58  0  0  0  0  0  0  0  0  1 V2000
  153.8827  141.4571  161.3543 O   0  0  0  0  0  0  0  0  0  0  0  0
  153.4133  141.9191  160.3169 C   0  0  0  0  0  0  0  0  0  0  0  0
  152.9782  140.9651  159.1904 C   0  0  0  0  0  0  0  0  0  0  0  0
  152.2912  141.5861  158.0414 N   0  0  0  0  0  0  0  0  0  0  0  0
  151.8193  140.7713  157.0427 C   0  0  0  0  0  0  0  0  0  0  0  0
  152.6407  139.8013  156.5547 N   0  0  0  0  0  0  0  0  0  0  0  0
  152.2469  138.9760  155.5837 C   0  0  0  0  0  0  0  0  0  0  0  0
  151.0755  138.9355  154.9539 N   0  0  0  0  0  0  0  0  0  0  0  0
  150.2289  139.8937  155.4257 C   0  0  0  0  0  0  0  0  0  0  0  0
  150.5125  140.8424  156.4555 C   0  0  0  0  0  0  0  0  0  0  0  0
  149.3907  141.6447  156.6476 N   0  0  0  0  0  0  0  0  0  0  0  0
  148.5107  141.2038  155.7934 C   0  0  0  0  0  0  0  0  0  0  0  0
  148.9295  140.1510  155.0159 N   0  0  0  0  0  0  0  0  0  0  0  0
  148.1597  139.4803  154.0050 C   0  0  0  0  0  0  0  0  0  0  0  0
  146.6975  139.8498  153.7453 C   0  0  0  0  0  0  0  0  0  0  0  0
  146.3530  138.3643  153.4948 C   0  0  0  0  0  0  0  0  0  0  0  0
  145.1141  137.8488  154.2430 C   0  0  0  0  0  0  0  0  0  0  0  0
  144.1864  138.8868  154.4882 O   0  0  0  0  0  0  0  0  0  0  0  0
  146.2191  137.9160  152.0231 C   0  0  0  0  0  0  0  0  0  0  0  0
  147.3965  138.1275  151.2696 O   0  0  0  0  0  0  0  0  0  0  0  0
  147.6945  138.0333  154.1883 C   0  0  0  0  0  0  0  0  0  0  0  0
  151.7185  142.9318  158.2195 C   0  0  1  0  0  0  0  0  0  0  0  0
  150.3755  142.8798  158.9896 C   0  0  0  0  0  0  0  0  0  0  0  0
  149.8104  144.2854  159.2433 C   0  0  0  0  0  0  0  0  0  0  0  0
  150.8271  145.1657  159.9844 C   0  0  0  0  0  0  0  0  0  0  0  0
  152.1529  145.2444  159.2102 C   0  0  0  0  0  0  0  0  0  0  0  0
  152.7448  143.8503  158.9228 C   0  0  1  0  0  0  0  0  0  0  0  0
  153.2552  143.2393  160.1446 N   0  0  0  0  0  0  0  0  0  0  0  0
  153.8929  140.4879  158.8396 H   0  0  0  0  0  0  0  0  0  0  0  0
  152.3401  140.1945  159.6253 H   0  0  0  0  0  0  0  0  0  0  0  0
  152.9750  138.2440  155.2673 H   0  0  0  0  0  0  0  0  0  0  0  0
  147.5256  141.6396  155.7096 H   0  0  0  0  0  0  0  0  0  0  0  0
  148.7296  139.5673  153.0788 H   0  0  0  0  0  0  0  0  0  0  0  0
  146.1989  140.2565  154.6261 H   0  0  0  0  0  0  0  0  0  0  0  0
  146.5487  140.5024  152.8844 H   0  0  0  0  0  0  0  0  0  0  0  0
  144.6175  137.0544  153.6848 H   0  0  0  0  0  0  0  0  0  0  0  0
  145.3933  137.4201  155.2063 H   0  0  0  0  0  0  0  0  0  0  0  0
  144.2060  139.4859  153.7574 H   0  0  0  0  0  0  0  0  0  0  0  0
  145.9733  136.8553  151.9633 H   0  0  0  0  0  0  0  0  0  0  0  0
  145.4123  138.4525  151.5226 H   0  0  0  0  0  0  0  0  0  0  0  0
  147.8495  138.8766  151.6255 H   0  0  0  0  0  0  0  0  0  0  0  0
  148.3093  137.2989  153.6673 H   0  0  0  0  0  0  0  0  0  0  0  0
  147.5755  137.7562  155.2363 H   0  0  0  0  0  0  0  0  0  0  0  0
  151.5395  143.4004  157.2508 H   0  0  0  0  0  0  0  0  0  0  0  0
  149.6447  142.2936  158.4321 H   0  0  0  0  0  0  0  0  0  0  0  0
  150.5052  142.3700  159.9448 H   0  0  0  0  0  0  0  0  0  0  0  0
  149.5456  144.7505  158.2928 H   0  0  0  0  0  0  0  0  0  0  0  0
  148.8885  144.2151  159.8213 H   0  0  0  0  0  0  0  0  0  0  0  0
  150.4188  146.1673  160.1226 H   0  0  0  0  0  0  0  0  0  0  0  0
  151.0026  144.7639  160.9830 H   0  0  0  0  0  0  0  0  0  0  0  0
  151.9822  145.7612  158.2649 H   0  0  0  0  0  0  0  0  0  0  0  0
  152.8709  145.8528  159.7615 H   0  0  0  0  0  0  0  0  0  0  0  0
  153.6052  143.9776  158.2637 H   0  0  0  0  0  0  0  0  0  0  0  0
  153.5298  143.8577  160.8940 H   0  0  0  0  0  0  0  0  0  0  0  0
  1  2  2  0  0  0  0
  2 28  1  0  0  0  0
  2  3  1  0  0  0  0
  3  4  1  0  0  0  0
  3 29  1  0  0  0  0
  3 30  1  0  0  0  0
  4  5  1  0  0  0  0
  4 22  1  0  0  0  0
  5 10  1  0  0  0  0
  5  6  2  0  0  0  0
  6  7  1  0  0  0  0
  7  8  2  0  0  0  0
  7 31  1  0  0  0  0
  8  9  1  0  0  0  0
  9 13  1  0  0  0  0
  9 10  2  0  0  0  0
 10 11  1  0  0  0  0
 11 12  2  0  0  0  0
 12 13  1  0  0  0  0
 12 32  1  0  0  0  0
 13 14  1  0  0  0  0
 14 21  1  0  0  0  0
 14 15  1  0  0  0  0
 14 33  1  0  0  0  0
 15 16  1  0  0  0  0
 15 34  1  0  0  0  0
 15 35  1  0  0  0  0
 16 17  1  0  0  0  0
 16 19  1  0  0  0  0
 16 21  1  0  0  0  0
 17 18  1  0  0  0  0
 17 36  1  0  0  0  0
 17 37  1  0  0  0  0
 18 38  1  0  0  0  0
 19 20  1  0  0  0  0
 19 39  1  0  0  0  0
 19 40  1  0  0  0  0
 20 41  1  0  0  0  0
 21 42  1  0  0  0  0
 21 43  1  0  0  0  0
 22 27  1  0  0  0  0
 22 23  1  0  0  0  0
 22 44  1  0  0  0  0
 23 24  1  0  0  0  0
 23 45  1  0  0  0  0
 23 46  1  0  0  0  0
 24 25  1  0  0  0  0
 24 47  1  0  0  0  0
 24 48  1  0  0  0  0
 25 26  1  0  0  0  0
 25 49  1  0  0  0  0
 25 50  1  0  0  0  0
 26 27  1  0  0  0  0
 26 51  1  0  0  0  0
 26 52  1  0  0  0  0
 27 28  1  0  0  0  0
 27 53  1  0  0  0  0
 28 54  1  0  0  0  0
M  END
> <s_m_source_file>
AV-unprocessed.smi

> <i_m_source_file_index>
245

> <i_lp_mmshare_version>
43012

> <i_f3d_flags>
0

> <s_epik_input>
W0NIMl0xW0NIMl1bQ0gyXVtDSDJdW0NASF0oW0NASF0xMilbTkhdQyg9TylbQ0gyXU4yYyhuW2NIXW4zKWMoYzM0KW5bY0hdbjRbQ0hdKFtDSDJdNSlbQ0gyXUM1KFtDSDJdW09IXSlbQ0gyXVtPSF0=

> <s_epik_cmdline>
J2VwaWtfcHl0aG9uJywgJy1waCcsICc3LjAnLCAnLXRuJywgJzgnLCAnLW1hJywgJzIwMCcsICctbWV0YWxfYmluZGluZycsICctaW1hZScsICc8aW5maWxlLm1hZT4nLCAnLW9tYWUnLCAnPG91dGZpbGUubWFlPic=

> <r_lp_tautomer_probability>
1

> <r_epik_Ionization_Penalty>
0.000702616

> <r_epik_Ionization_Penalty_Charging>
0

> <r_epik_Ionization_Penalty_Neutral>
0.000702616

> <r_epik_State_Penalty>
0.000343985

> <r_epik_Charging_Adjusted_Penalty>
0.000343985

> <i_epik_Tot_Q>
0

> <i_epik_Tot_abs_Q>
0

> <r_epik_Metal_State_Penalty>
-0

> <b_epik_Metal_Only>
0

> <s_lp_Force_Field>
OPLS_2005

> <r_lp_Energy>
53.0031

> <b_lp_Chiralities_Consistent>
1

> <s_lp_Variant>
AV-unprocessed.smi:245-1

> <Gold.Version>
5.8.1

> <Gold.Id.Protein>
6NUR|6NUR_protein|mol2

> <Gold.PLP.Fitness>
57.4561

> <Gold.PLP.PLP>
-49.0775

> <Gold.PLP.part.hbond>
-4.6237

> <Gold.PLP.part.metal>
0.0000

> <Gold.PLP.part.buried>
-5.4588

> <Gold.PLP.part.nonpolar>
-38.8937

> <Gold.PLP.part.repulsive>
0.2166

> <Gold.PLP.ligand.clash>
0.0000

> <Gold.PLP.ligand.torsion>
1.6084

> <Gold.PLP.Chemscore.Hbond>
3.7056

> <Gold.PLP.Chemscore.CHOScore>
0.0000

> <Gold.PLP.Chemscore.Metal>
0.0000

> <Gold.Chemscore.Hbonds>
donor molecule, donor type, donor heavy atom, donor atom, acceptor molecule, acceptor atom, score
      L1  H    18    38       P1 10175  1.00
      L1  H    20    41       P1  7957  0.56
      P1  H  7954  7966       L1    20  1.00
      P1  H  7997  8010       L1     6  1.00

> <Gold.PLP.Chemscore.Internal.Correction>
0.4784

> <Gold.Rescore>
     Score         DG    S(hbond)    S(metal)    S(lipo)     H(rot)  DE(clash)    DE(int)     intcor
     17.89     -20.91       3.17        0.00     105.29       2.91       0.08       2.94       ----

> <Gold.Chemscore.Fitness>
17.8931

> <Gold.Chemscore.DG>
-20.9108

> <Gold.Chemscore.ZeroCoef>
-5.4800

> <Gold.Chemscore.Hbond>
3.1656

> <Gold.Chemscore.Metal>
0.0000

> <Gold.Chemscore.Lipo>
105.2934

> <Gold.Chemscore.Internal_Hbond>
0.0000

> <Gold.Chemscore.DEClash>
0.0762

> <Gold.Chemscore.DEInternal>
2.9414

> <Gold.Chemscore.Rot>
2.9147

> <Gold.Chemscore.Internal.Correction>
   9.000000E+99

> <Gold.Chemscore.Hbonds>
donor molecule, donor type, donor heavy atom, donor atom, acceptor molecule, acceptor atom, score
      L1  H    18    38       P1 10175  0.99
      L1  H    20    41       P1  7957  0.47
      P1  H  7954  7966       L1    20  0.34
      P1  H  7997  8010       L1     6  0.82

> <Gold.Chemscore.Hbond.Weighted>
-10.5732

> <Gold.Chemscore.Metal.Weighted>
-0.0000

> <Gold.Chemscore.Lipo.Weighted>
-12.3193

> <Gold.Chemscore.Internal_Hbond.Weighted>
0.0000

> <Gold.Chemscore.DEClash.Weighted>
0.0762

> <Gold.Chemscore.DEInternal.Weighted>
2.9414

> <Gold.Chemscore.Rot.Weighted>
7.4617

> <Gold.Chemscore.Internal.Correction.Weighted>
   9.000000E+99

> <Gold.Protein.RotatedTorsions>
[ 6907 6896 6895 6894 ] final   82.95 input  -60.11 | X-H torsion
[ 7974 7965 7964 7962 ] final  144.29 input  175.53 | X-H torsion
[ 8008 7997 7996 7995 ] final   65.40 input   59.86 | X-H torsion
[ 10167 10162 10161 10158 ] final  108.58 input  -65.29 | X-H torsion
[ 10718 10713 10712 10709 ] final   25.20 input   66.30 | X-H torsion
[ 10763 10752 10751 10750 ] final -176.92 input  -60.55 | X-H torsion
[ 11005 11000 10999 10996 ] final  -87.34 input  -57.11 | X-H torsion

> <Gold.Protein.ActiveResidues>
 VAL166  LYS551  ARG553  GLY616  TRP617  ASP618  TYR619  PRO620  LYS621  CYS622 
 ASP623  PHE694  ASN695  SER759  ASP760  ASP761  ALA762  ILE779  LEU786  VAL792 
 PHE793  MET794  SER795  GLU796  ALA797  LYS798  CYS799  TRP800  GLU811  SER814 

> <Gold.Protein.RotatedAtoms>
  152.5314  134.2970  159.9064 H   0  0  0  0  0  0  0  0  0  0  0  0  # atno 6907 bound_to 6896
  151.2921  133.4154  159.2641 H   0  0  0  0  0  0  0  0  0  0  0  0  # atno 6908 bound_to 6896
  151.0191  134.9471  159.8107 H   0  0  0  0  0  0  0  0  0  0  0  0  # atno 6909 bound_to 6896
  144.8848  139.5645  143.5826 H   0  0  0  0  0  0  0  0  0  0  0  0  # atno 7974 bound_to 7965
  155.6611  140.3497  155.4783 H   0  0  0  0  0  0  0  0  0  0  0  0  # atno 8008 bound_to 7997
  155.9768  140.1166  157.0786 H   0  0  0  0  0  0  0  0  0  0  0  0  # atno 8009 bound_to 7997
  154.4181  140.1146  156.5367 H   0  0  0  0  0  0  0  0  0  0  0  0  # atno 8010 bound_to 7997
  139.6835  144.7116  151.1474 H   0  0  0  0  0  0  0  0  0  0  0  0  # atno 10167 bound_to 10162
  157.1901  130.6842  149.6146 H   0  0  0  0  0  0  0  0  0  0  0  0  # atno 10718 bound_to 10713
  154.5664  135.2824  155.0870 H   0  0  0  0  0  0  0  0  0  0  0  0  # atno 10763 bound_to 10752
  154.2259  135.6383  153.5163 H   0  0  0  0  0  0  0  0  0  0  0  0  # atno 10764 bound_to 10752
  153.0044  135.5525  154.6274 H   0  0  0  0  0  0  0  0  0  0  0  0  # atno 10765 bound_to 10752
  141.1618  133.7506  156.9292 H   0  0  0  0  0  0  0  0  0  0  0  0  # atno 11005 bound_to 11000
  146.3017  139.7449  142.9086 LP  0  0  0  0  0  0  0  0  0  0  0  0  # atno 17320 bound_to 7965
  145.3888  141.0369  143.3135 LP  0  0  0  0  0  0  0  0  0  0  0  0  # atno 17321 bound_to 7965
  140.7660  143.5664  150.9042 LP  0  0  0  0  0  0  0  0  0  0  0  0  # atno 17342 bound_to 10162
  139.9338  143.6462  152.3070 LP  0  0  0  0  0  0  0  0  0  0  0  0  # atno 17343 bound_to 10162
  155.9713  130.4617  150.6121 LP  0  0  0  0  0  0  0  0  0  0  0  0  # atno 17370 bound_to 10713
  157.3869  131.0789  151.1428 LP  0  0  0  0  0  0  0  0  0  0  0  0  # atno 17371 bound_to 10713
  140.1398  134.9301  157.2451 LP  0  0  0  0  0  0  0  0  0  0  0  0  # atno 17394 bound_to 11000
  140.2851  134.3305  155.7331 LP  0  0  0  0  0  0  0  0  0  0  0  0  # atno 17395 bound_to 11000

$$$$
