AV-unprocessed.smi:2786|AV-procd|sdf|10749|dock2
  -GOLD-   2272015183D 1   1.00000     0.00000
 Structure written by MMmdl.
 27 28  0  0  0  0  0  0  0  0  2 V2000
  149.4023  137.0177  154.9975 C   0  0  0  0  0  0  0  0  0  0  0  0
  150.5089  137.9480  154.8846 N   0  0  0  0  0  0  0  0  0  0  0  0
  151.8558  137.6103  154.8708 C   0  0  0  0  0  0  0  0  0  0  0  0
  152.5563  138.7867  154.7595 C   0  0  0  0  0  0  0  0  0  0  0  0
  151.6631  139.8509  154.7039 N   0  0  0  0  0  0  0  0  0  0  0  0
  150.4577  139.2901  154.7733 C   0  0  0  0  0  0  0  0  0  0  0  0
  149.1709  140.0640  154.7630 C   0  0  1  0  0  0  0  0  0  0  0  0
  149.4211  141.5738  154.9738 C   0  0  0  0  0  0  0  0  0  0  0  0
  148.1398  142.3094  155.0036 N   0  3  0  0  0  0  0  0  0  0  0  0
  147.3437  142.0452  153.7883 C   0  0  0  0  0  0  0  0  0  0  0  0
  147.1391  140.5291  153.6142 C   0  0  0  0  0  0  0  0  0  0  0  0
  148.4366  139.8684  153.5124 N   0  0  0  0  0  0  0  0  0  0  0  0
  149.7763  136.0072  155.1650 H   0  0  0  0  0  0  0  0  0  0  0  0
  148.8165  137.0285  154.0782 H   0  0  0  0  0  0  0  0  0  0  0  0
  148.7647  137.2994  155.8360 H   0  0  0  0  0  0  0  0  0  0  0  0
  152.1966  136.5877  154.9412 H   0  0  0  0  0  0  0  0  0  0  0  0
  153.6233  138.9484  154.7165 H   0  0  0  0  0  0  0  0  0  0  0  0
  148.5438  139.6883  155.5723 H   0  0  0  0  0  0  0  0  0  0  0  0
  149.9433  141.7450  155.9155 H   0  0  0  0  0  0  0  0  0  0  0  0
  150.0531  141.9766  154.1805 H   0  0  0  0  0  0  0  0  0  0  0  0
  147.6110  142.0040  155.8079 H   0  0  0  0  0  0  0  0  0  0  0  0
  146.3820  142.5512  153.8749 H   0  0  0  0  0  0  0  0  0  0  0  0
  147.8514  142.4678  152.9198 H   0  0  0  0  0  0  0  0  0  0  0  0
  146.5668  140.1103  154.4435 H   0  0  0  0  0  0  0  0  0  0  0  0
  146.5729  140.3321  152.7036 H   0  0  0  0  0  0  0  0  0  0  0  0
  148.9563  140.3071  152.7650 H   0  0  0  0  0  0  0  0  0  0  0  0
  148.3198  143.3001  155.0819 H   0  0  0  0  0  0  0  0  0  0  0  0
  1  2  1  0  0  0  0
  1 13  1  0  0  0  0
  1 14  1  0  0  0  0
  1 15  1  0  0  0  0
  2  6  1  0  0  0  0
  2  3  1  0  0  0  0
  3  4  2  0  0  0  0
  3 16  1  0  0  0  0
  4  5  1  0  0  0  0
  4 17  1  0  0  0  0
  5  6  2  0  0  0  0
  6  7  1  0  0  0  0
  7 12  1  0  0  0  0
  7  8  1  0  0  0  0
  7 18  1  0  0  0  0
  8  9  1  0  0  0  0
  8 19  1  0  0  0  0
  8 20  1  0  0  0  0
  9 10  1  0  0  0  0
  9 21  1  0  0  0  0
  9 27  1  0  0  0  0
 10 11  1  0  0  0  0
 10 22  1  0  0  0  0
 10 23  1  0  0  0  0
 11 12  1  0  0  0  0
 11 24  1  0  0  0  0
 11 25  1  0  0  0  0
 12 26  1  0  0  0  0
M  CHG  1   9   1
M  END
> <s_m_source_file>
AV-unprocessed.smi

> <i_m_source_file_index>
2786

> <i_lp_mmshare_version>
43012

> <i_f3d_flags>
0

> <s_epik_input>
W0NIM11uMVtjSF1bY0hdbmMxW0NAQEhdMltDSDJdW05IXVtDSDJdW0NIMl1bTkhdMg==

> <s_epik_cmdline>
J2VwaWtfcHl0aG9uJywgJy1waCcsICc3LjAnLCAnLXRuJywgJzgnLCAnLW1hJywgJzIwMCcsICctbWV0YWxfYmluZGluZycsICctaW1hZScsICc8aW5maWxlLm1hZT4nLCAnLW9tYWUnLCAnPG91dGZpbGUubWFlPic=

> <r_lp_tautomer_probability>
1

> <r_epik_Ionization_Penalty>
0.130484

> <r_epik_Ionization_Penalty_Charging>
0.130409

> <r_epik_Ionization_Penalty_Neutral>
7.57914e-05

> <r_epik_State_Penalty>
0.270147

> <r_epik_Charging_Adjusted_Penalty>
0.400555

> <i_epik_Tot_Q>
1

> <i_epik_Tot_abs_Q>
1

> <r_epik_Metal_State_Penalty>
0.136376

> <b_epik_Metal_Only>
0

> <s_lp_Force_Field>
OPLS_2005

> <r_lp_Energy>
9.37099

> <b_lp_Chiralities_Consistent>
1

> <s_lp_Variant>
AV-unprocessed.smi:2786-2

> <Gold.Version>
5.8.1

> <Gold.Id.Protein>
6NUR|6NUR_protein|mol2

> <Gold.PLP.Fitness>
36.8759

> <Gold.PLP.PLP>
-25.7532

> <Gold.PLP.part.hbond>
-2.9620

> <Gold.PLP.part.metal>
0.0000

> <Gold.PLP.part.buried>
-3.9897

> <Gold.PLP.part.nonpolar>
-19.6981

> <Gold.PLP.part.repulsive>
0.2291

> <Gold.PLP.ligand.clash>
0.0000

> <Gold.PLP.ligand.torsion>
0.2624

> <Gold.PLP.Chemscore.Hbond>
3.8800

> <Gold.PLP.Chemscore.CHOScore>
0.0000

> <Gold.PLP.Chemscore.Metal>
0.0000

> <Gold.Chemscore.Hbonds>
donor molecule, donor type, donor heavy atom, donor atom, acceptor molecule, acceptor atom, score
      L1  H     9    27       P1  8028  2.00
      L1  H    12    26       P1  7957  0.86
      P1  H  7989  7998       L1     5  1.00

> <Gold.PLP.Chemscore.Internal.Correction>
0.0076

> <Gold.Rescore>
     Score         DG    S(hbond)    S(metal)    S(lipo)     H(rot)  DE(clash)    DE(int)     intcor
     17.26     -17.65       2.87        0.00      43.97       1.00       0.13       0.27       ----

> <Gold.Chemscore.Fitness>
17.2561

> <Gold.Chemscore.DG>
-17.6510

> <Gold.Chemscore.ZeroCoef>
-5.4800

> <Gold.Chemscore.Hbond>
2.8703

> <Gold.Chemscore.Metal>
0.0000

> <Gold.Chemscore.Lipo>
43.9672

> <Gold.Chemscore.Internal_Hbond>
0.0000

> <Gold.Chemscore.DEClash>
0.1288

> <Gold.Chemscore.DEInternal>
0.2661

> <Gold.Chemscore.Rot>
1.0000

> <Gold.Chemscore.Internal.Correction>
   9.000000E+99

> <Gold.Chemscore.Hbonds>
donor molecule, donor type, donor heavy atom, donor atom, acceptor molecule, acceptor atom, score
      L1  H     9    27       P1  8028  0.97
      L1  H    12    26       P1  7957  0.87
      P1  H  7989  7998       L1     5  0.61

> <Gold.Chemscore.Hbond.Weighted>
-9.5868

> <Gold.Chemscore.Metal.Weighted>
-0.0000

> <Gold.Chemscore.Lipo.Weighted>
-5.1442

> <Gold.Chemscore.Internal_Hbond.Weighted>
0.0000

> <Gold.Chemscore.DEClash.Weighted>
0.1288

> <Gold.Chemscore.DEInternal.Weighted>
0.2661

> <Gold.Chemscore.Rot.Weighted>
2.5600

> <Gold.Chemscore.Internal.Correction.Weighted>
   9.000000E+99

> <Gold.Protein.RotatedTorsions>
[ 6907 6896 6895 6894 ] final  -84.39 input  -60.11 | X-H torsion
[ 7974 7965 7964 7962 ] final  -90.19 input  175.53 | X-H torsion
[ 8008 7997 7996 7995 ] final  164.53 input   59.86 | X-H torsion
[ 10167 10162 10161 10158 ] final   45.64 input  -65.29 | X-H torsion
[ 10718 10713 10712 10709 ] final  -54.67 input   66.30 | X-H torsion
[ 10763 10752 10751 10750 ] final  176.82 input  -60.55 | X-H torsion
[ 11005 11000 10999 10996 ] final   76.68 input  -57.11 | X-H torsion

> <Gold.Protein.ActiveResidues>
 VAL166  LYS551  ARG553  GLY616  TRP617  ASP618  TYR619  PRO620  LYS621  CYS622 
 ASP623  PHE694  ASN695  SER759  ASP760  ASP761  ALA762  ILE779  LEU786  VAL792 
 PHE793  MET794  SER795  GLU796  ALA797  LYS798  CYS799  TRP800  GLU811  SER814 

> <Gold.Protein.RotatedAtoms>
  150.6877  134.3366  159.4849 H   0  0  0  0  0  0  0  0  0  0  0  0  # atno 6907 bound_to 6896
  152.1225  134.9193  160.0571 H   0  0  0  0  0  0  0  0  0  0  0  0  # atno 6908 bound_to 6896
  152.0393  133.3936  159.4367 H   0  0  0  0  0  0  0  0  0  0  0  0  # atno 6909 bound_to 6896
  145.4297  140.9555  143.2135 H   0  0  0  0  0  0  0  0  0  0  0  0  # atno 7974 bound_to 7965
  156.1873  140.1694  156.8161 H   0  0  0  0  0  0  0  0  0  0  0  0  # atno 8008 bound_to 7997
  154.5429  140.0733  156.8572 H   0  0  0  0  0  0  0  0  0  0  0  0  # atno 8009 bound_to 7997
  155.3179  140.3371  155.4244 H   0  0  0  0  0  0  0  0  0  0  0  0  # atno 8010 bound_to 7997
  140.3221  144.2692  150.6181 H   0  0  0  0  0  0  0  0  0  0  0  0  # atno 10167 bound_to 10162
  156.1432  130.4154  150.0068 H   0  0  0  0  0  0  0  0  0  0  0  0  # atno 10718 bound_to 10713
  154.4862  135.2777  155.1532 H   0  0  0  0  0  0  0  0  0  0  0  0  # atno 10763 bound_to 10752
  154.3222  135.6207  153.5517 H   0  0  0  0  0  0  0  0  0  0  0  0  # atno 10764 bound_to 10752
  152.9881  135.5745  154.5273 H   0  0  0  0  0  0  0  0  0  0  0  0  # atno 10765 bound_to 10752
  139.9287  134.7621  156.1426 H   0  0  0  0  0  0  0  0  0  0  0  0  # atno 11005 bound_to 11000
  144.8191  139.5824  143.6995 LP  0  0  0  0  0  0  0  0  0  0  0  0  # atno 17320 bound_to 7965
  146.2613  139.6418  142.9360 LP  0  0  0  0  0  0  0  0  0  0  0  0  # atno 17321 bound_to 7965
  140.5474  143.2212  151.7984 LP  0  0  0  0  0  0  0  0  0  0  0  0  # atno 17342 bound_to 10162
  139.4872  144.4521  151.9641 LP  0  0  0  0  0  0  0  0  0  0  0  0  # atno 17343 bound_to 10162
  156.7948  130.9269  151.3646 LP  0  0  0  0  0  0  0  0  0  0  0  0  # atno 17370 bound_to 10713
  157.6594  130.8952  149.9797 LP  0  0  0  0  0  0  0  0  0  0  0  0  # atno 17371 bound_to 10713
  141.0863  133.6733  156.2442 LP  0  0  0  0  0  0  0  0  0  0  0  0  # atno 17394 bound_to 11000
  140.6262  134.5311  157.5554 LP  0  0  0  0  0  0  0  0  0  0  0  0  # atno 17395 bound_to 11000

$$$$
