AV-unprocessed.smi:234|AV-procd|sdf|1794|dock2
  -GOLD-   2262020353D 1   1.00000     0.00000
 Structure written by MMmdl.
 59 62  0  0  0  0  0  0  0  0  1 V2000
  153.3518  141.5933  160.0440 C   0  0  0  0  0  0  0  0  0  0  0  0
  153.0113  140.1727  159.5891 C   0  0  0  0  0  0  0  0  0  0  0  0
  151.6748  140.1528  159.1168 O   0  0  0  0  0  0  0  0  0  0  0  0
  151.4808  140.9472  157.9567 C   0  0  1  0  0  0  0  0  0  0  0  0
  152.1678  140.3466  156.7319 C   0  0  0  0  0  0  0  0  0  0  0  0
  150.9625  140.8668  155.9384 C   0  0  1  0  0  0  0  0  0  0  0  0
  150.5324  139.9890  154.8471 N   0  0  0  0  0  0  0  0  0  0  0  0
  151.0647  138.6329  154.8381 C   0  0  0  0  0  0  0  0  0  0  0  0
  149.2115  139.9960  154.5542 C   0  0  0  0  0  0  0  0  0  0  0  0
  148.6994  141.1427  154.0412 N   0  0  0  0  0  0  0  0  0  0  0  0
  147.3995  141.2206  153.7417 C   0  0  0  0  0  0  0  0  0  0  0  0
  146.4552  140.2865  153.8715 N   0  0  0  0  0  0  0  0  0  0  0  0
  146.9695  139.1274  154.3742 C   0  0  0  0  0  0  0  0  0  0  0  0
  148.3268  138.8936  154.7335 C   0  0  0  0  0  0  0  0  0  0  0  0
  148.4756  137.5891  155.1900 N   0  0  0  0  0  0  0  0  0  0  0  0
  147.2732  137.0871  155.1217 C   0  0  0  0  0  0  0  0  0  0  0  0
  146.3054  137.9457  154.6523 N   0  0  0  0  0  0  0  0  0  0  0  0
  144.8902  137.6539  154.4890 C   0  0  0  0  0  0  0  0  0  0  0  0
  144.5341  137.1423  153.0732 C   0  0  1  0  0  0  0  0  0  0  0  0
  143.4571  137.9187  152.5720 O   0  0  0  0  0  0  0  0  0  0  0  0
  145.6847  137.2116  152.0800 C   0  0  0  0  0  0  0  0  0  0  0  0
  145.2925  136.1637  151.0462 C   0  0  0  0  0  0  0  0  0  0  0  0
  144.6641  135.1306  151.7946 O   0  0  0  0  0  0  0  0  0  0  0  0
  144.1850  135.6385  153.0395 C   0  0  2  0  0  0  0  0  0  0  0  0
  142.7076  135.2702  153.2504 C   0  0  0  0  0  0  0  0  0  0  0  0
  150.1172  140.7592  157.2387 C   0  0  0  0  0  0  0  0  0  0  0  0
  149.4027  139.4223  157.5077 C   0  0  0  0  0  0  0  0  0  0  0  0
  149.0958  141.8756  157.4631 C   0  0  0  0  0  0  0  0  0  0  0  0
  154.3738  141.6475  160.4195 H   0  0  0  0  0  0  0  0  0  0  0  0
  152.6836  141.9197  160.8413 H   0  0  0  0  0  0  0  0  0  0  0  0
  153.2600  142.2995  159.2186 H   0  0  0  0  0  0  0  0  0  0  0  0
  153.6999  139.8626  158.8032 H   0  0  0  0  0  0  0  0  0  0  0  0
  153.1251  139.4766  160.4215 H   0  0  0  0  0  0  0  0  0  0  0  0
  151.7619  141.9943  158.0942 H   0  0  0  0  0  0  0  0  0  0  0  0
  153.1203  140.8090  156.4717 H   0  0  0  0  0  0  0  0  0  0  0  0
  152.2420  139.2582  156.7667 H   0  0  0  0  0  0  0  0  0  0  0  0
  151.0964  141.9073  155.6366 H   0  0  0  0  0  0  0  0  0  0  0  0
  150.8187  138.1201  153.9072 H   0  0  0  0  0  0  0  0  0  0  0  0
  150.6546  138.0554  155.6677 H   0  0  0  0  0  0  0  0  0  0  0  0
  152.1494  138.6380  154.9329 H   0  0  0  0  0  0  0  0  0  0  0  0
  147.0677  142.1685  153.3442 H   0  0  0  0  0  0  0  0  0  0  0  0
  147.0553  136.0722  155.4215 H   0  0  0  0  0  0  0  0  0  0  0  0
  144.6069  136.9164  155.2411 H   0  0  0  0  0  0  0  0  0  0  0  0
  144.3233  138.5572  154.7186 H   0  0  0  0  0  0  0  0  0  0  0  0
  143.7063  138.8298  152.6051 H   0  0  0  0  0  0  0  0  0  0  0  0
  145.8391  138.2029  151.6513 H   0  0  0  0  0  0  0  0  0  0  0  0
  146.6147  136.9059  152.5608 H   0  0  0  0  0  0  0  0  0  0  0  0
  144.5730  136.5753  150.3374 H   0  0  0  0  0  0  0  0  0  0  0  0
  146.1468  135.7880  150.4830 H   0  0  0  0  0  0  0  0  0  0  0  0
  144.7740  135.1293  153.8039 H   0  0  0  0  0  0  0  0  0  0  0  0
  142.3348  135.6685  154.1944 H   0  0  0  0  0  0  0  0  0  0  0  0
  142.5805  134.1878  153.2739 H   0  0  0  0  0  0  0  0  0  0  0  0
  142.0771  135.6551  152.4483 H   0  0  0  0  0  0  0  0  0  0  0  0
  148.5320  139.2919  156.8651 H   0  0  0  0  0  0  0  0  0  0  0  0
  149.0520  139.3574  158.5378 H   0  0  0  0  0  0  0  0  0  0  0  0
  150.0557  138.5659  157.3401 H   0  0  0  0  0  0  0  0  0  0  0  0
  148.2485  141.7901  156.7831 H   0  0  0  0  0  0  0  0  0  0  0  0
  149.5384  142.8591  157.3027 H   0  0  0  0  0  0  0  0  0  0  0  0
  148.7003  141.8624  158.4786 H   0  0  0  0  0  0  0  0  0  0  0  0
  1  2  1  0  0  0  0
  1 29  1  0  0  0  0
  1 30  1  0  0  0  0
  1 31  1  0  0  0  0
  2  3  1  0  0  0  0
  2 32  1  0  0  0  0
  2 33  1  0  0  0  0
  3  4  1  0  0  0  0
  4 26  1  0  0  0  0
  4  5  1  0  0  0  0
  4 34  1  0  0  0  0
  5  6  1  0  0  0  0
  5 35  1  0  0  0  0
  5 36  1  0  0  0  0
  6  7  1  0  0  0  0
  6 26  1  0  0  0  0
  6 37  1  0  0  0  0
  7  8  1  0  0  0  0
  7  9  1  0  0  0  0
  8 38  1  0  0  0  0
  8 39  1  0  0  0  0
  8 40  1  0  0  0  0
  9 14  1  0  0  0  0
  9 10  2  0  0  0  0
 10 11  1  0  0  0  0
 11 12  2  0  0  0  0
 11 41  1  0  0  0  0
 12 13  1  0  0  0  0
 13 17  1  0  0  0  0
 13 14  2  0  0  0  0
 14 15  1  0  0  0  0
 15 16  2  0  0  0  0
 16 17  1  0  0  0  0
 16 42  1  0  0  0  0
 17 18  1  0  0  0  0
 18 19  1  0  0  0  0
 18 43  1  0  0  0  0
 18 44  1  0  0  0  0
 19 24  1  0  0  0  0
 19 20  1  0  0  0  0
 19 21  1  0  0  0  0
 20 45  1  0  0  0  0
 21 22  1  0  0  0  0
 21 46  1  0  0  0  0
 21 47  1  0  0  0  0
 22 23  1  0  0  0  0
 22 48  1  0  0  0  0
 22 49  1  0  0  0  0
 23 24  1  0  0  0  0
 24 25  1  0  0  0  0
 24 50  1  0  0  0  0
 25 51  1  0  0  0  0
 25 52  1  0  0  0  0
 25 53  1  0  0  0  0
 26 27  1  0  0  0  0
 26 28  1  0  0  0  0
 27 54  1  0  0  0  0
 27 55  1  0  0  0  0
 27 56  1  0  0  0  0
 28 57  1  0  0  0  0
 28 58  1  0  0  0  0
 28 59  1  0  0  0  0
M  END
> <s_m_source_file>
AV-unprocessed.smi

> <i_m_source_file_index>
234

> <i_lp_mmshare_version>
43012

> <i_f3d_flags>
0

> <s_epik_input>
W0NIM11bQ0gyXU9bQ0BASF0oQzEoW0NIM10pW0NIM10pW0NIMl1bQ0BIXTFOKFtDSDNdKWMobltjSF1uMiljKGMyMyluW2NIXW4zW0NIMl1bQ0BAXTQoW09IXSlbQ0gyXVtDSDJdT1tDQEhdNFtDSDNd

> <s_epik_cmdline>
J2VwaWtfcHl0aG9uJywgJy1waCcsICc3LjAnLCAnLXRuJywgJzgnLCAnLW1hJywgJzIwMCcsICctbWV0YWxfYmluZGluZycsICctaW1hZScsICc8aW5maWxlLm1hZT4nLCAnLW9tYWUnLCAnPG91dGZpbGUubWFlPic=

> <r_lp_tautomer_probability>
1

> <r_epik_Ionization_Penalty>
0.00349132

> <r_epik_Ionization_Penalty_Charging>
0

> <r_epik_Ionization_Penalty_Neutral>
0.00349132

> <r_epik_State_Penalty>
0.00242418

> <r_epik_Charging_Adjusted_Penalty>
0.00242418

> <i_epik_Tot_Q>
0

> <i_epik_Tot_abs_Q>
0

> <r_epik_Metal_State_Penalty>
-0

> <b_epik_Metal_Only>
0

> <s_lp_Force_Field>
OPLS_2005

> <r_lp_Energy>
47.8711

> <b_lp_Chiralities_Consistent>
1

> <s_lp_Variant>
AV-unprocessed.smi:234-10

> <Gold.Version>
5.8.1

> <Gold.Id.Protein>
6NUR|6NUR_protein|mol2

> <Gold.PLP.Fitness>
41.4778

> <Gold.PLP.PLP>
-39.4220

> <Gold.PLP.part.hbond>
-3.6129

> <Gold.PLP.part.metal>
0.0000

> <Gold.PLP.part.buried>
-6.1203

> <Gold.PLP.part.nonpolar>
-30.9207

> <Gold.PLP.part.repulsive>
1.4361

> <Gold.PLP.ligand.clash>
0.0000

> <Gold.PLP.ligand.torsion>
2.5700

> <Gold.PLP.Chemscore.Hbond>
2.1286

> <Gold.PLP.Chemscore.CHOScore>
0.0000

> <Gold.PLP.Chemscore.Metal>
0.0000

> <Gold.Chemscore.Hbonds>
donor molecule, donor type, donor heavy atom, donor atom, acceptor molecule, acceptor atom, score
      L1  H    20    45       P1 10175  1.00
      P1  H  7989  7998       L1     7  0.75
      P1  H  8011  8017       L1    10  0.08

> <Gold.PLP.Chemscore.Internal.Correction>
0.8100

> <Gold.Rescore>
     Score         DG    S(hbond)    S(metal)    S(lipo)     H(rot)  DE(clash)    DE(int)     intcor
      8.19     -12.28       1.04        0.00      85.73       2.62       0.48       3.61       ----

> <Gold.Chemscore.Fitness>
8.1855

> <Gold.Chemscore.DG>
-12.2770

> <Gold.Chemscore.ZeroCoef>
-5.4800

> <Gold.Chemscore.Hbond>
1.0415

> <Gold.Chemscore.Metal>
0.0000

> <Gold.Chemscore.Lipo>
85.7308

> <Gold.Chemscore.Internal_Hbond>
0.0000

> <Gold.Chemscore.DEClash>
0.4816

> <Gold.Chemscore.DEInternal>
3.6099

> <Gold.Chemscore.Rot>
2.6219

> <Gold.Chemscore.Internal.Correction>
   9.000000E+99

> <Gold.Chemscore.Hbonds>
donor molecule, donor type, donor heavy atom, donor atom, acceptor molecule, acceptor atom, score
      L1  H    20    45       P1 10175  0.98
      P1  H  7989  7998       L1     7  0.03
      P1  H  8011  8017       L1    10  0.04

> <Gold.Chemscore.Hbond.Weighted>
-3.4786

> <Gold.Chemscore.Metal.Weighted>
-0.0000

> <Gold.Chemscore.Lipo.Weighted>
-10.0305

> <Gold.Chemscore.Internal_Hbond.Weighted>
0.0000

> <Gold.Chemscore.DEClash.Weighted>
0.4816

> <Gold.Chemscore.DEInternal.Weighted>
3.6099

> <Gold.Chemscore.Rot.Weighted>
6.7121

> <Gold.Chemscore.Internal.Correction.Weighted>
   9.000000E+99

> <Gold.Protein.RotatedTorsions>
[ 6907 6896 6895 6894 ] final -107.20 input  -60.11 | X-H torsion
[ 7974 7965 7964 7962 ] final   89.34 input  175.53 | X-H torsion
[ 8008 7997 7996 7995 ] final  139.84 input   59.86 | X-H torsion
[ 10167 10162 10161 10158 ] final -126.71 input  -65.29 | X-H torsion
[ 10718 10713 10712 10709 ] final  -49.75 input   66.30 | X-H torsion
[ 10763 10752 10751 10750 ] final   61.63 input  -60.55 | X-H torsion
[ 11005 11000 10999 10996 ] final  -86.78 input  -57.11 | X-H torsion

> <Gold.Protein.ActiveResidues>
 VAL166  LYS551  ARG553  GLY616  TRP617  ASP618  TYR619  PRO620  LYS621  CYS622 
 ASP623  PHE694  ASN695  SER759  ASP760  ASP761  ALA762  ILE779  LEU786  VAL792 
 PHE793  MET794  SER795  GLU796  ALA797  LYS798  CYS799  TRP800  GLU811  SER814 

> <Gold.Protein.RotatedAtoms>
  150.7431  133.9862  159.3591 H   0  0  0  0  0  0  0  0  0  0  0  0  # atno 6907 bound_to 6896
  151.7807  135.0760  160.0382 H   0  0  0  0  0  0  0  0  0  0  0  0  # atno 6908 bound_to 6896
  152.3276  133.5886  159.5823 H   0  0  0  0  0  0  0  0  0  0  0  0  # atno 6909 bound_to 6896
  145.5336  139.2284  143.2605 H   0  0  0  0  0  0  0  0  0  0  0  0  # atno 7974 bound_to 7965
  156.2986  140.2357  156.4303 H   0  0  0  0  0  0  0  0  0  0  0  0  # atno 8008 bound_to 7997
  154.8276  140.0434  157.1475 H   0  0  0  0  0  0  0  0  0  0  0  0  # atno 8009 bound_to 7997
  154.9244  140.3008  155.5203 H   0  0  0  0  0  0  0  0  0  0  0  0  # atno 8010 bound_to 7997
  139.9686  143.5870  152.2420 H   0  0  0  0  0  0  0  0  0  0  0  0  # atno 10167 bound_to 10162
  156.1864  130.4151  149.9433 H   0  0  0  0  0  0  0  0  0  0  0  0  # atno 10718 bound_to 10713
  152.9956  135.5494  154.6064 H   0  0  0  0  0  0  0  0  0  0  0  0  # atno 10763 bound_to 10752
  154.5394  135.2819  155.1111 H   0  0  0  0  0  0  0  0  0  0  0  0  # atno 10764 bound_to 10752
  154.2394  135.6419  153.5255 H   0  0  0  0  0  0  0  0  0  0  0  0  # atno 10765 bound_to 10752
  141.1625  133.7474  156.9211 H   0  0  0  0  0  0  0  0  0  0  0  0  # atno 11005 bound_to 11000
  146.2027  140.6154  142.9095 LP  0  0  0  0  0  0  0  0  0  0  0  0  # atno 17320 bound_to 7965
  144.7613  140.5428  143.6734 LP  0  0  0  0  0  0  0  0  0  0  0  0  # atno 17321 bound_to 7965
  139.6498  144.7660  151.2170 LP  0  0  0  0  0  0  0  0  0  0  0  0  # atno 17342 bound_to 10162
  140.7529  143.6179  150.8542 LP  0  0  0  0  0  0  0  0  0  0  0  0  # atno 17343 bound_to 10162
  156.7187  130.8998  151.3616 LP  0  0  0  0  0  0  0  0  0  0  0  0  # atno 17370 bound_to 10713
  157.6901  130.9225  150.0492 LP  0  0  0  0  0  0  0  0  0  0  0  0  # atno 17371 bound_to 10713
  140.1450  134.9268  157.2518 LP  0  0  0  0  0  0  0  0  0  0  0  0  # atno 17394 bound_to 11000
  140.2790  134.3371  155.7349 LP  0  0  0  0  0  0  0  0  0  0  0  0  # atno 17395 bound_to 11000

$$$$
