AV-unprocessed.smi:1605|AV-procd|sdf|6459|dock2
  -GOLD-   22720 7113D 1   1.00000     0.00000
 Structure written by MMmdl.
 50 52  0  0  0  0  0  0  0  0  1 V2000
  145.0263  135.7206  150.7095 C   0  0  0  0  0  0  0  0  0  0  0  0
  145.5569  135.8629  152.0181 O   0  0  0  0  0  0  0  0  0  0  0  0
  145.6783  137.2099  152.4573 C   0  0  0  0  0  0  0  0  0  0  0  0
  146.5127  138.0563  151.4760 C   0  0  0  0  0  0  0  0  0  0  0  0
  146.8040  139.4460  152.0692 C   0  0  0  0  0  0  0  0  0  0  0  0
  147.4943  139.3777  153.3588 N   0  0  0  0  0  0  0  0  0  0  0  0
  147.8292  140.7208  153.8462 C   0  0  0  0  0  0  0  0  0  0  0  0
  148.5959  140.7922  155.1862 C   0  0  2  0  0  0  0  0  0  0  0  0
  147.6878  141.1347  156.2144 O   0  0  0  0  0  0  0  0  0  0  0  0
  149.8279  141.7170  155.2242 C   0  0  0  0  0  0  0  0  0  0  0  0
  150.8260  141.2622  156.1754 N   0  0  0  0  0  0  0  0  0  0  0  0
  151.5854  140.1529  156.0897 C   0  0  0  0  0  0  0  0  0  0  0  0
  152.4430  139.9241  157.0802 N   0  0  0  0  0  0  0  0  0  0  0  0
  152.2142  141.0131  157.9038 C   0  0  0  0  0  0  0  0  0  0  0  0
  152.8070  141.3726  159.1339 C   0  0  0  0  0  0  0  0  0  0  0  0
  152.4134  142.5484  159.8119 C   0  0  0  0  0  0  0  0  0  0  0  0
  153.0775  142.8963  161.1324 C   0  0  0  0  0  0  0  0  0  0  0  0
  151.4115  143.3860  159.2589 C   0  0  0  0  0  0  0  0  0  0  0  0
  150.9745  144.6554  159.9684 C   0  0  0  0  0  0  0  0  0  0  0  0
  150.8080  143.0410  158.0314 C   0  0  0  0  0  0  0  0  0  0  0  0
  151.2084  141.8685  157.3666 C   0  0  0  0  0  0  0  0  0  0  0  0
  146.6543  138.6339  154.3045 C   0  0  0  0  0  0  0  0  0  0  0  0
  146.3679  137.1994  153.8311 C   0  0  0  0  0  0  0  0  0  0  0  0
  144.9209  134.6613  150.4757 H   0  0  0  0  0  0  0  0  0  0  0  0
  145.6797  136.1605  149.9562 H   0  0  0  0  0  0  0  0  0  0  0  0
  144.0397  136.1786  150.6301 H   0  0  0  0  0  0  0  0  0  0  0  0
  144.6872  137.6523  152.5750 H   0  0  0  0  0  0  0  0  0  0  0  0
  147.4537  137.5490  151.2589 H   0  0  0  0  0  0  0  0  0  0  0  0
  145.9933  138.1713  150.5250 H   0  0  0  0  0  0  0  0  0  0  0  0
  147.4141  140.0019  151.3562 H   0  0  0  0  0  0  0  0  0  0  0  0
  145.8710  140.0018  152.1760 H   0  0  0  0  0  0  0  0  0  0  0  0
  148.4554  141.2260  153.1090 H   0  0  0  0  0  0  0  0  0  0  0  0
  146.9241  141.3269  153.9061 H   0  0  0  0  0  0  0  0  0  0  0  0
  148.9360  139.7794  155.4064 H   0  0  0  0  0  0  0  0  0  0  0  0
  147.0703  141.7609  155.8681 H   0  0  0  0  0  0  0  0  0  0  0  0
  150.2957  141.7667  154.2403 H   0  0  0  0  0  0  0  0  0  0  0  0
  149.5396  142.7321  155.4983 H   0  0  0  0  0  0  0  0  0  0  0  0
  151.5052  139.4762  155.2516 H   0  0  0  0  0  0  0  0  0  0  0  0
  153.5709  140.7348  159.5539 H   0  0  0  0  0  0  0  0  0  0  0  0
  152.3355  142.9572  161.9290 H   0  0  0  0  0  0  0  0  0  0  0  0
  153.5902  143.8561  161.0609 H   0  0  0  0  0  0  0  0  0  0  0  0
  153.8136  142.1444  161.4185 H   0  0  0  0  0  0  0  0  0  0  0  0
  150.1969  145.1765  159.4093 H   0  0  0  0  0  0  0  0  0  0  0  0
  151.8170  145.3375  160.0847 H   0  0  0  0  0  0  0  0  0  0  0  0
  150.5766  144.4234  160.9566 H   0  0  0  0  0  0  0  0  0  0  0  0
  150.0439  143.6694  157.5985 H   0  0  0  0  0  0  0  0  0  0  0  0
  147.1207  138.5825  155.2844 H   0  0  0  0  0  0  0  0  0  0  0  0
  145.7094  139.1595  154.4512 H   0  0  0  0  0  0  0  0  0  0  0  0
  145.7422  136.6831  154.5597 H   0  0  0  0  0  0  0  0  0  0  0  0
  147.3041  136.6423  153.7739 H   0  0  0  0  0  0  0  0  0  0  0  0
  1  2  1  0  0  0  0
  1 24  1  0  0  0  0
  1 25  1  0  0  0  0
  1 26  1  0  0  0  0
  2  3  1  0  0  0  0
  3 23  1  0  0  0  0
  3  4  1  0  0  0  0
  3 27  1  0  0  0  0
  4  5  1  0  0  0  0
  4 28  1  0  0  0  0
  4 29  1  0  0  0  0
  5  6  1  0  0  0  0
  5 30  1  0  0  0  0
  5 31  1  0  0  0  0
  6  7  1  0  0  0  0
  6 22  1  0  0  0  0
  7  8  1  0  0  0  0
  7 32  1  0  0  0  0
  7 33  1  0  0  0  0
  8  9  1  0  0  0  0
  8 10  1  0  0  0  0
  8 34  1  0  0  0  0
  9 35  1  0  0  0  0
 10 11  1  0  0  0  0
 10 36  1  0  0  0  0
 10 37  1  0  0  0  0
 11 21  1  0  0  0  0
 11 12  1  0  0  0  0
 12 13  2  0  0  0  0
 12 38  1  0  0  0  0
 13 14  1  0  0  0  0
 14 21  2  0  0  0  0
 14 15  1  0  0  0  0
 15 16  2  0  0  0  0
 15 39  1  0  0  0  0
 16 17  1  0  0  0  0
 16 18  1  0  0  0  0
 17 40  1  0  0  0  0
 17 41  1  0  0  0  0
 17 42  1  0  0  0  0
 18 19  1  0  0  0  0
 18 20  2  0  0  0  0
 19 43  1  0  0  0  0
 19 44  1  0  0  0  0
 19 45  1  0  0  0  0
 20 21  1  0  0  0  0
 20 46  1  0  0  0  0
 22 23  1  0  0  0  0
 22 47  1  0  0  0  0
 22 48  1  0  0  0  0
 23 49  1  0  0  0  0
 23 50  1  0  0  0  0
M  END
> <s_m_source_file>
AV-unprocessed.smi

> <i_m_source_file_index>
1605

> <i_lp_mmshare_version>
43012

> <i_f3d_flags>
0

> <s_epik_input>
W0NIM11PW0NIXTFbQ0gyXVtDSDJdTihbQ0gyXVtDSDJdMSlbQ0gyXVtDQEhdKFtPSF0pW0NIMl1uKFtjSF1uMiljKGMyMylbY0hdYyhbQ0gzXSljKFtjSF0zKVtDSDNd

> <s_epik_cmdline>
J2VwaWtfcHl0aG9uJywgJy1waCcsICc3LjAnLCAnLXRuJywgJzgnLCAnLW1hJywgJzIwMCcsICctbWV0YWxfYmluZGluZycsICctaW1hZScsICc8aW5maWxlLm1hZT4nLCAnLW9tYWUnLCAnPG91dGZpbGUubWFlPic=

> <r_epik_Ionization_Penalty>
2.02119

> <r_epik_Ionization_Penalty_Charging>
0

> <r_epik_Ionization_Penalty_Neutral>
2.02119

> <r_epik_State_Penalty>
2.11303

> <r_epik_Charging_Adjusted_Penalty>
2.11303

> <i_epik_Tot_Q>
0

> <i_epik_Tot_abs_Q>
0

> <r_epik_Metal_State_Penalty>
2.04251

> <b_epik_Metal_Only>
0

> <s_lp_Force_Field>
OPLS_2005

> <r_lp_Energy>
37.9414

> <b_lp_Chiralities_Consistent>
1

> <s_lp_Variant>
AV-unprocessed.smi:1605-9

> <Gold.Version>
5.8.1

> <Gold.Id.Protein>
6NUR|6NUR_protein|mol2

> <Gold.PLP.Fitness>
45.2047

> <Gold.PLP.PLP>
-44.1729

> <Gold.PLP.part.hbond>
-1.0000

> <Gold.PLP.part.metal>
0.0000

> <Gold.PLP.part.buried>
-0.6676

> <Gold.PLP.part.nonpolar>
-42.4526

> <Gold.PLP.part.repulsive>
0.4218

> <Gold.PLP.ligand.clash>
0.0000

> <Gold.PLP.ligand.torsion>
1.0112

> <Gold.PLP.Chemscore.Hbond>
1.0000

> <Gold.PLP.Chemscore.CHOScore>
0.0000

> <Gold.PLP.Chemscore.Metal>
0.0000

> <Gold.Chemscore.Hbonds>
donor molecule, donor type, donor heavy atom, donor atom, acceptor molecule, acceptor atom, score
      P1  H  7997  8008       L1    13  1.00

> <Gold.PLP.Chemscore.Internal.Correction>
0.0543

> <Gold.Rescore>
     Score         DG    S(hbond)    S(metal)    S(lipo)     H(rot)  DE(clash)    DE(int)     intcor
     15.93     -17.76       0.73        0.00     130.96       2.14       0.68       1.15       ----

> <Gold.Chemscore.Fitness>
15.9290

> <Gold.Chemscore.DG>
-17.7580

> <Gold.Chemscore.ZeroCoef>
-5.4800

> <Gold.Chemscore.Hbond>
0.7316

> <Gold.Chemscore.Metal>
0.0000

> <Gold.Chemscore.Lipo>
130.9630

> <Gold.Chemscore.Internal_Hbond>
0.0000

> <Gold.Chemscore.DEClash>
0.6835

> <Gold.Chemscore.DEInternal>
1.1455

> <Gold.Chemscore.Rot>
2.1438

> <Gold.Chemscore.Internal.Correction>
   9.000000E+99

> <Gold.Chemscore.Hbonds>
donor molecule, donor type, donor heavy atom, donor atom, acceptor molecule, acceptor atom, score
      P1  H  7997  8008       L1    13  0.36

> <Gold.Chemscore.Hbond.Weighted>
-2.4435

> <Gold.Chemscore.Metal.Weighted>
-0.0000

> <Gold.Chemscore.Lipo.Weighted>
-15.3227

> <Gold.Chemscore.Internal_Hbond.Weighted>
0.0000

> <Gold.Chemscore.DEClash.Weighted>
0.6835

> <Gold.Chemscore.DEInternal.Weighted>
1.1455

> <Gold.Chemscore.Rot.Weighted>
5.4881

> <Gold.Chemscore.Internal.Correction.Weighted>
   9.000000E+99

> <Gold.Protein.RotatedTorsions>
[ 6907 6896 6895 6894 ] final  129.11 input  -60.11 | X-H torsion
[ 7974 7965 7964 7962 ] final   98.13 input  175.53 | X-H torsion
[ 8008 7997 7996 7995 ] final  -58.97 input   59.86 | X-H torsion
[ 10167 10162 10161 10158 ] final   80.45 input  -65.29 | X-H torsion
[ 10718 10713 10712 10709 ] final   77.73 input   66.30 | X-H torsion
[ 10763 10752 10751 10750 ] final  165.85 input  -60.55 | X-H torsion
[ 11005 11000 10999 10996 ] final  175.70 input  -57.11 | X-H torsion

> <Gold.Protein.ActiveResidues>
 VAL166  LYS551  ARG553  GLY616  TRP617  ASP618  TYR619  PRO620  LYS621  CYS622 
 ASP623  PHE694  ASN695  SER759  ASP760  ASP761  ALA762  ILE779  LEU786  VAL792 
 PHE793  MET794  SER795  GLU796  ALA797  LYS798  CYS799  TRP800  GLU811  SER814 

> <Gold.Protein.RotatedAtoms>
  152.3655  133.6351  159.6047 H   0  0  0  0  0  0  0  0  0  0  0  0  # atno 6907 bound_to 6896
  150.7631  133.9354  159.3448 H   0  0  0  0  0  0  0  0  0  0  0  0  # atno 6908 bound_to 6896
  151.7186  135.0900  160.0331 H   0  0  0  0  0  0  0  0  0  0  0  0  # atno 6909 bound_to 6896
  145.4162  139.2327  143.3221 H   0  0  0  0  0  0  0  0  0  0  0  0  # atno 7974 bound_to 7965
  154.4331  140.1072  156.6041 H   0  0  0  0  0  0  0  0  0  0  0  0  # atno 8008 bound_to 7997
  155.5880  140.3491  155.4540 H   0  0  0  0  0  0  0  0  0  0  0  0  # atno 8009 bound_to 7997
  156.0268  140.1252  157.0289 H   0  0  0  0  0  0  0  0  0  0  0  0  # atno 8010 bound_to 7997
  139.9497  144.6034  150.8173 H   0  0  0  0  0  0  0  0  0  0  0  0  # atno 10167 bound_to 10162
  157.6720  130.9835  150.1683 H   0  0  0  0  0  0  0  0  0  0  0  0  # atno 10718 bound_to 10713
  154.3302  135.2755  155.2475 H   0  0  0  0  0  0  0  0  0  0  0  0  # atno 10763 bound_to 10752
  154.4791  135.5863  153.6380 H   0  0  0  0  0  0  0  0  0  0  0  0  # atno 10764 bound_to 10752
  152.9867  135.6107  154.3494 H   0  0  0  0  0  0  0  0  0  0  0  0  # atno 10765 bound_to 10752
  140.3651  134.7079  157.4356 H   0  0  0  0  0  0  0  0  0  0  0  0  # atno 11005 bound_to 11000
  146.2680  140.4880  142.8826 LP  0  0  0  0  0  0  0  0  0  0  0  0  # atno 17320 bound_to 7965
  144.8276  140.6653  143.6312 LP  0  0  0  0  0  0  0  0  0  0  0  0  # atno 17321 bound_to 7965
  140.7586  143.3112  151.2841 LP  0  0  0  0  0  0  0  0  0  0  0  0  # atno 17342 bound_to 10162
  139.6638  144.0141  152.2710 LP  0  0  0  0  0  0  0  0  0  0  0  0  # atno 17343 bound_to 10162
  156.2443  130.3694  149.8302 LP  0  0  0  0  0  0  0  0  0  0  0  0  # atno 17370 bound_to 10713
  156.6093  130.8580  151.3450 LP  0  0  0  0  0  0  0  0  0  0  0  0  # atno 17371 bound_to 10713
  140.0596  134.6015  155.8765 LP  0  0  0  0  0  0  0  0  0  0  0  0  # atno 17394 bound_to 11000
  141.1972  133.6595  156.5730 LP  0  0  0  0  0  0  0  0  0  0  0  0  # atno 17395 bound_to 11000

$$$$
