AV-unprocessed.smi:1075|AV-procd|sdf|4695|dock8
  -GOLD-   22720 3213D 1   1.00000     0.00000
 Structure written by MMmdl.
 50 51  0  0  0  0  0  0  0  0  1 V2000
  152.8969  138.3912  155.2832 C   0  0  0  0  0  0  0  0  0  0  0  0
  151.8784  139.4651  155.5390 C   0  0  0  0  0  0  0  0  0  0  0  0
  152.2386  140.5517  156.1999 N   0  0  0  0  0  0  0  0  0  0  0  0
  151.1201  141.2993  156.2672 N   0  0  0  0  0  0  0  0  0  0  0  0
  151.1653  142.5818  156.9422 C   0  0  0  0  0  0  0  0  0  0  0  0
  150.0483  140.6828  155.6507 C   0  0  0  0  0  0  0  0  0  0  0  0
  148.6947  141.3195  155.6046 C   0  0  0  0  0  0  0  0  0  0  0  0
  150.5035  139.4848  155.1588 C   0  0  0  0  0  0  0  0  0  0  0  0
  149.7629  138.4010  154.4002 C   0  0  2  0  0  0  0  0  0  0  0  0
  148.4260  138.9137  153.8321 C   0  0  0  0  0  0  0  0  0  0  0  0
  149.6097  137.1551  155.2892 C   0  0  0  0  0  0  0  0  0  0  0  0
  149.6669  137.2478  156.5156 O   0  0  0  0  0  0  0  0  0  0  0  0
  149.4208  135.9926  154.6375 N   0  0  0  0  0  0  0  0  0  0  0  0
  149.3115  134.6361  155.1871 C   0  0  1  0  0  0  0  0  0  0  0  0
  148.1218  134.5668  156.1733 C   0  0  0  0  0  0  0  0  0  0  0  0
  149.0599  133.7098  153.9705 C   0  0  0  0  0  0  0  0  0  0  0  0
  149.1781  132.2098  154.2931 C   0  0  0  0  0  0  0  0  0  0  0  0
  150.5369  131.8727  154.9278 C   0  0  2  0  0  0  0  0  0  0  0  0
  150.6548  130.3754  155.2461 C   0  0  0  0  0  0  0  0  0  0  0  0
  150.7589  132.7350  156.1807 C   0  0  0  0  0  0  0  0  0  0  0  0
  150.6503  134.2375  155.8676 C   0  0  0  0  0  0  0  0  0  0  0  0
  152.5671  137.4367  155.6937 H   0  0  0  0  0  0  0  0  0  0  0  0
  153.8605  138.6292  155.7354 H   0  0  0  0  0  0  0  0  0  0  0  0
  153.0582  138.2555  154.2137 H   0  0  0  0  0  0  0  0  0  0  0  0
  150.5945  142.5266  157.8692 H   0  0  0  0  0  0  0  0  0  0  0  0
  150.7333  143.3505  156.3012 H   0  0  0  0  0  0  0  0  0  0  0  0
  152.1943  142.8578  157.1764 H   0  0  0  0  0  0  0  0  0  0  0  0
  147.9147  140.5872  155.4010 H   0  0  0  0  0  0  0  0  0  0  0  0
  148.6541  142.0794  154.8242 H   0  0  0  0  0  0  0  0  0  0  0  0
  148.4513  141.7961  156.5542 H   0  0  0  0  0  0  0  0  0  0  0  0
  150.3569  138.0785  153.5445 H   0  0  0  0  0  0  0  0  0  0  0  0
  147.7467  139.2455  154.6176 H   0  0  0  0  0  0  0  0  0  0  0  0
  147.9155  138.1391  153.2587 H   0  0  0  0  0  0  0  0  0  0  0  0
  148.5906  139.7576  153.1617 H   0  0  0  0  0  0  0  0  0  0  0  0
  149.3865  136.0508  153.6299 H   0  0  0  0  0  0  0  0  0  0  0  0
  147.9525  133.5545  156.5380 H   0  0  0  0  0  0  0  0  0  0  0  0
  147.1973  134.8985  155.6996 H   0  0  0  0  0  0  0  0  0  0  0  0
  148.2823  135.1927  157.0508 H   0  0  0  0  0  0  0  0  0  0  0  0
  148.0794  133.9138  153.5382 H   0  0  0  0  0  0  0  0  0  0  0  0
  149.7834  133.9403  153.1863 H   0  0  0  0  0  0  0  0  0  0  0  0
  148.3699  131.9058  154.9586 H   0  0  0  0  0  0  0  0  0  0  0  0
  149.0463  131.6337  153.3765 H   0  0  0  0  0  0  0  0  0  0  0  0
  151.3172  132.1181  154.2058 H   0  0  0  0  0  0  0  0  0  0  0  0
  149.9015  130.0627  155.9697 H   0  0  0  0  0  0  0  0  0  0  0  0
  151.6346  130.1385  155.6615 H   0  0  0  0  0  0  0  0  0  0  0  0
  150.5237  129.7719  154.3475 H   0  0  0  0  0  0  0  0  0  0  0  0
  150.0349  132.4656  156.9501 H   0  0  0  0  0  0  0  0  0  0  0  0
  151.7420  132.5259  156.6041 H   0  0  0  0  0  0  0  0  0  0  0  0
  151.4814  134.5106  155.2150 H   0  0  0  0  0  0  0  0  0  0  0  0
  150.7974  134.8008  156.7892 H   0  0  0  0  0  0  0  0  0  0  0  0
  1  2  1  0  0  0  0
  1 22  1  0  0  0  0
  1 23  1  0  0  0  0
  1 24  1  0  0  0  0
  2  8  1  0  0  0  0
  2  3  2  0  0  0  0
  3  4  1  0  0  0  0
  4  5  1  0  0  0  0
  4  6  1  0  0  0  0
  5 25  1  0  0  0  0
  5 26  1  0  0  0  0
  5 27  1  0  0  0  0
  6  7  1  0  0  0  0
  6  8  2  0  0  0  0
  7 28  1  0  0  0  0
  7 29  1  0  0  0  0
  7 30  1  0  0  0  0
  8  9  1  0  0  0  0
  9 10  1  0  0  0  0
  9 11  1  0  0  0  0
  9 31  1  0  0  0  0
 10 32  1  0  0  0  0
 10 33  1  0  0  0  0
 10 34  1  0  0  0  0
 11 12  2  0  0  0  0
 11 13  1  0  0  0  0
 13 14  1  0  0  0  0
 13 35  1  0  0  0  0
 14 21  1  0  0  0  0
 14 15  1  0  0  0  0
 14 16  1  0  0  0  0
 15 36  1  0  0  0  0
 15 37  1  0  0  0  0
 15 38  1  0  0  0  0
 16 17  1  0  0  0  0
 16 39  1  0  0  0  0
 16 40  1  0  0  0  0
 17 18  1  0  0  0  0
 17 41  1  0  0  0  0
 17 42  1  0  0  0  0
 18 19  1  0  0  0  0
 18 20  1  0  0  0  0
 18 43  1  0  0  0  0
 19 44  1  0  0  0  0
 19 45  1  0  0  0  0
 19 46  1  0  0  0  0
 20 21  1  0  0  0  0
 20 47  1  0  0  0  0
 20 48  1  0  0  0  0
 21 49  1  0  0  0  0
 21 50  1  0  0  0  0
M  END
> <s_m_source_file>
AV-unprocessed.smi

> <i_m_source_file_index>
1075

> <i_lp_mmshare_version>
43012

> <i_f3d_flags>
0

> <s_epik_input>
W0NIM11jMW5uKFtDSDNdKWMoW0NIM10pYzFbQ0BIXShbQ0gzXSlDKD1PKVtOSF1bQ0BAXTIoW0NIM10pW0NIMl1bQ0gyXVtDQEBIXShbQ0gzXSlbQ0gyXVtDSDJdMg==

> <s_epik_cmdline>
J2VwaWtfcHl0aG9uJywgJy1waCcsICc3LjAnLCAnLXRuJywgJzgnLCAnLW1hJywgJzIwMCcsICctbWV0YWxfYmluZGluZycsICctaW1hZScsICc8aW5maWxlLm1hZT4nLCAnLW9tYWUnLCAnPG91dGZpbGUubWFlPic=

> <r_lp_tautomer_probability>
1

> <r_epik_Ionization_Penalty>
0.00502928

> <r_epik_Ionization_Penalty_Charging>
0

> <r_epik_Ionization_Penalty_Neutral>
0.00502928

> <r_epik_State_Penalty>
0.0036576

> <r_epik_Charging_Adjusted_Penalty>
0.0036576

> <i_epik_Tot_Q>
0

> <i_epik_Tot_abs_Q>
0

> <r_epik_Metal_State_Penalty>
-0

> <b_epik_Metal_Only>
0

> <s_lp_Force_Field>
OPLS_2005

> <r_lp_Energy>
7.43589

> <b_lp_Chiralities_Consistent>
1

> <s_lp_Variant>
AV-unprocessed.smi:1075-3

> <Gold.Version>
5.8.1

> <Gold.Id.Protein>
6NUR|6NUR_protein|mol2

> <Gold.PLP.Fitness>
38.2339

> <Gold.PLP.PLP>
-34.1829

> <Gold.PLP.part.hbond>
-2.0000

> <Gold.PLP.part.metal>
0.0000

> <Gold.PLP.part.buried>
-0.0618

> <Gold.PLP.part.nonpolar>
-31.7024

> <Gold.PLP.part.repulsive>
0.0311

> <Gold.PLP.ligand.clash>
0.0000

> <Gold.PLP.ligand.torsion>
0.8509

> <Gold.PLP.Chemscore.Hbond>
1.8892

> <Gold.PLP.Chemscore.CHOScore>
0.0000

> <Gold.PLP.Chemscore.Metal>
0.0000

> <Gold.Chemscore.Hbonds>
donor molecule, donor type, donor heavy atom, donor atom, acceptor molecule, acceptor atom, score
      L1  H    13    35       P1  7948  1.00
      P1  H  7997  8008       L1     3  0.67

> <Gold.PLP.Chemscore.Internal.Correction>
0.0851

> <Gold.Rescore>
     Score         DG    S(hbond)    S(metal)    S(lipo)     H(rot)  DE(clash)    DE(int)     intcor
     16.77     -18.86       1.94        0.00      85.92       1.23       0.17       1.92       ----

> <Gold.Chemscore.Fitness>
16.7681

> <Gold.Chemscore.DG>
-18.8585

> <Gold.Chemscore.ZeroCoef>
-5.4800

> <Gold.Chemscore.Hbond>
1.9401

> <Gold.Chemscore.Metal>
0.0000

> <Gold.Chemscore.Lipo>
85.9203

> <Gold.Chemscore.Internal_Hbond>
0.0000

> <Gold.Chemscore.DEClash>
0.1740

> <Gold.Chemscore.DEInternal>
1.9163

> <Gold.Chemscore.Rot>
1.2321

> <Gold.Chemscore.Internal.Correction>
   9.000000E+99

> <Gold.Chemscore.Hbonds>
donor molecule, donor type, donor heavy atom, donor atom, acceptor molecule, acceptor atom, score
      L1  H    13    35       P1  7948  0.65
      P1  H  7997  8008       L1     3  0.14

> <Gold.Chemscore.Hbond.Weighted>
-6.4799

> <Gold.Chemscore.Metal.Weighted>
-0.0000

> <Gold.Chemscore.Lipo.Weighted>
-10.0527

> <Gold.Chemscore.Internal_Hbond.Weighted>
0.0000

> <Gold.Chemscore.DEClash.Weighted>
0.1740

> <Gold.Chemscore.DEInternal.Weighted>
1.9163

> <Gold.Chemscore.Rot.Weighted>
3.1541

> <Gold.Chemscore.Internal.Correction.Weighted>
   9.000000E+99

> <Gold.Protein.RotatedTorsions>
[ 6907 6896 6895 6894 ] final -167.28 input  -60.11 | X-H torsion
[ 7974 7965 7964 7962 ] final   45.69 input  175.53 | X-H torsion
[ 8008 7997 7996 7995 ] final  -43.36 input   59.86 | X-H torsion
[ 10167 10162 10161 10158 ] final   42.57 input  -65.29 | X-H torsion
[ 10718 10713 10712 10709 ] final  177.60 input   66.30 | X-H torsion
[ 10763 10752 10751 10750 ] final -179.28 input  -60.55 | X-H torsion
[ 11005 11000 10999 10996 ] final   86.01 input  -57.11 | X-H torsion

> <Gold.Protein.ActiveResidues>
 VAL166  LYS551  ARG553  GLY616  TRP617  ASP618  TYR619  PRO620  LYS621  CYS622 
 ASP623  PHE694  ASN695  SER759  ASP760  ASP761  ALA762  ILE779  LEU786  VAL792 
 PHE793  MET794  SER795  GLU796  ALA797  LYS798  CYS799  TRP800  GLU811  SER814 

> <Gold.Protein.RotatedAtoms>
  151.4571  133.3602  159.2803 H   0  0  0  0  0  0  0  0  0  0  0  0  # atno 6907 bound_to 6896
  150.9051  134.8467  159.7397 H   0  0  0  0  0  0  0  0  0  0  0  0  # atno 6908 bound_to 6896
  152.4901  134.4495  159.9622 H   0  0  0  0  0  0  0  0  0  0  0  0  # atno 6909 bound_to 6896
  146.0457  139.4936  142.9750 H   0  0  0  0  0  0  0  0  0  0  0  0  # atno 7974 bound_to 7965
  154.3997  140.1450  156.3506 H   0  0  0  0  0  0  0  0  0  0  0  0  # atno 8008 bound_to 7997
  155.8273  140.3467  155.5529 H   0  0  0  0  0  0  0  0  0  0  0  0  # atno 8009 bound_to 7997
  155.8225  140.0900  157.1831 H   0  0  0  0  0  0  0  0  0  0  0  0  # atno 8010 bound_to 7997
  140.3530  144.2326  150.6144 H   0  0  0  0  0  0  0  0  0  0  0  0  # atno 10167 bound_to 10162
  156.9029  130.9885  151.3033 H   0  0  0  0  0  0  0  0  0  0  0  0  # atno 10718 bound_to 10713
  154.5370  135.2803  155.1129 H   0  0  0  0  0  0  0  0  0  0  0  0  # atno 10763 bound_to 10752
  154.2627  135.6318  153.5284 H   0  0  0  0  0  0  0  0  0  0  0  0  # atno 10764 bound_to 10752
  152.9970  135.5609  154.5899 H   0  0  0  0  0  0  0  0  0  0  0  0  # atno 10765 bound_to 10752
  139.8956  134.8326  156.2661 H   0  0  0  0  0  0  0  0  0  0  0  0  # atno 11005 bound_to 11000
  145.6810  141.0191  143.1606 LP  0  0  0  0  0  0  0  0  0  0  0  0  # atno 17320 bound_to 7965
  144.7096  139.8421  143.7419 LP  0  0  0  0  0  0  0  0  0  0  0  0  # atno 17321 bound_to 7965
  140.5200  143.2268  151.8403 LP  0  0  0  0  0  0  0  0  0  0  0  0  # atno 17342 bound_to 10162
  139.4824  144.4848  151.9261 LP  0  0  0  0  0  0  0  0  0  0  0  0  # atno 17343 bound_to 10162
  157.6015  130.8516  149.8809 LP  0  0  0  0  0  0  0  0  0  0  0  0  # atno 17370 bound_to 10713
  156.0573  130.3706  150.1062 LP  0  0  0  0  0  0  0  0  0  0  0  0  # atno 17371 bound_to 10713
  141.0131  133.7084  156.1144 LP  0  0  0  0  0  0  0  0  0  0  0  0  # atno 17394 bound_to 11000
  140.7339  134.4224  157.5563 LP  0  0  0  0  0  0  0  0  0  0  0  0  # atno 17395 bound_to 11000

$$$$
