AV-unprocessed.smi:3028|AV-procd|sdf|11521|dock2
  -GOLD-   2272016463D 1   1.00000     0.00000
 Structure written by MMmdl.
 47 48  0  0  0  0  0  0  0  0  1 V2000
  152.0066  142.1425  157.3837 C   0  0  0  0  0  0  0  0  0  0  0  0
  151.2507  141.5291  156.2408 C   0  0  0  0  0  0  0  0  0  0  0  0
  151.7456  140.6534  155.2334 C   0  0  0  0  0  0  0  0  0  0  0  0
  150.8168  140.2925  154.3636 N   0  0  0  0  0  0  0  0  0  0  0  0
  149.6964  140.9212  154.7812 N   0  0  0  0  0  0  0  0  0  0  0  0
  148.4511  140.7526  154.0419 C   0  0  2  0  0  0  0  0  0  0  0  0
  147.4158  141.7787  154.5405 C   0  0  0  0  0  0  0  0  0  0  0  0
  147.9298  139.2914  154.1092 C   0  0  2  0  0  0  0  0  0  0  0  0
  148.8272  138.3688  154.9637 C   0  0  0  0  0  0  0  0  0  0  0  0
  147.8606  138.7722  152.7453 N   0  0  0  0  0  0  0  0  0  0  0  0
  146.4992  138.7508  152.1903 C   0  0  0  0  0  0  0  0  0  0  0  0
  145.8318  137.3703  152.2984 C   0  0  0  0  0  0  0  0  0  0  0  0
  144.8373  137.2141  153.0060 O   0  0  0  0  0  0  0  0  0  0  0  0
  146.3449  136.3403  151.6043 N   0  0  0  0  0  0  0  0  0  0  0  0
  145.8653  134.9602  151.5686 C   0  0  0  0  0  0  0  0  0  0  0  0
  146.9595  134.0471  150.9951 C   0  0  0  0  0  0  0  0  0  0  0  0
  146.4291  132.6170  150.8020 C   0  0  0  0  0  0  0  0  0  0  0  0
  145.2773  132.6331  149.9654 O   0  0  0  0  0  0  0  0  0  0  0  0
  144.1967  133.3733  150.5232 C   0  0  0  0  0  0  0  0  0  0  0  0
  144.6025  134.8457  150.6980 C   0  0  0  0  0  0  0  0  0  0  0  0
  149.9324  141.6749  155.9135 C   0  0  0  0  0  0  0  0  0  0  0  0
  152.9990  141.7051  157.4951 H   0  0  0  0  0  0  0  0  0  0  0  0
  151.4865  142.0036  158.3317 H   0  0  0  0  0  0  0  0  0  0  0  0
  152.1424  143.2152  157.2447 H   0  0  0  0  0  0  0  0  0  0  0  0
  152.7485  140.2722  155.1086 H   0  0  0  0  0  0  0  0  0  0  0  0
  148.6635  140.9855  152.9961 H   0  0  0  0  0  0  0  0  0  0  0  0
  146.5101  141.7624  153.9341 H   0  0  0  0  0  0  0  0  0  0  0  0
  147.8171  142.7914  154.4931 H   0  0  0  0  0  0  0  0  0  0  0  0
  147.1254  141.5841  155.5734 H   0  0  0  0  0  0  0  0  0  0  0  0
  146.9285  139.3086  154.5427 H   0  0  0  0  0  0  0  0  0  0  0  0
  148.8916  138.7126  155.9960 H   0  0  0  0  0  0  0  0  0  0  0  0
  149.8423  138.3278  154.5672 H   0  0  0  0  0  0  0  0  0  0  0  0
  148.4459  137.3494  155.0064 H   0  0  0  0  0  0  0  0  0  0  0  0
  148.3020  137.8647  152.6991 H   0  0  0  0  0  0  0  0  0  0  0  0
  145.8751  139.4724  152.7160 H   0  0  0  0  0  0  0  0  0  0  0  0
  146.5352  139.0437  151.1407 H   0  0  0  0  0  0  0  0  0  0  0  0
  147.1575  136.5377  151.0382 H   0  0  0  0  0  0  0  0  0  0  0  0
  145.6367  134.6089  152.5755 H   0  0  0  0  0  0  0  0  0  0  0  0
  147.3012  134.4338  150.0337 H   0  0  0  0  0  0  0  0  0  0  0  0
  147.8282  134.0376  151.6543 H   0  0  0  0  0  0  0  0  0  0  0  0
  147.1932  131.9942  150.3364 H   0  0  0  0  0  0  0  0  0  0  0  0
  146.1874  132.1583  151.7621 H   0  0  0  0  0  0  0  0  0  0  0  0
  143.3374  133.2983  149.8567 H   0  0  0  0  0  0  0  0  0  0  0  0
  143.8975  132.9372  151.4777 H   0  0  0  0  0  0  0  0  0  0  0  0
  143.7787  135.4079  151.1382 H   0  0  0  0  0  0  0  0  0  0  0  0
  144.7878  135.2841  149.7162 H   0  0  0  0  0  0  0  0  0  0  0  0
  149.1494  142.2482  156.3879 H   0  0  0  0  0  0  0  0  0  0  0  0
  1  2  1  0  0  0  0
  1 22  1  0  0  0  0
  1 23  1  0  0  0  0
  1 24  1  0  0  0  0
  2 21  2  0  0  0  0
  2  3  1  0  0  0  0
  3  4  2  0  0  0  0
  3 25  1  0  0  0  0
  4  5  1  0  0  0  0
  5  6  1  0  0  0  0
  5 21  1  0  0  0  0
  6  7  1  0  0  0  0
  6  8  1  0  0  0  0
  6 26  1  0  0  0  0
  7 27  1  0  0  0  0
  7 28  1  0  0  0  0
  7 29  1  0  0  0  0
  8  9  1  0  0  0  0
  8 10  1  0  0  0  0
  8 30  1  0  0  0  0
  9 31  1  0  0  0  0
  9 32  1  0  0  0  0
  9 33  1  0  0  0  0
 10 11  1  0  0  0  0
 10 34  1  0  0  0  0
 11 12  1  0  0  0  0
 11 35  1  0  0  0  0
 11 36  1  0  0  0  0
 12 13  2  0  0  0  0
 12 14  1  0  0  0  0
 14 15  1  0  0  0  0
 14 37  1  0  0  0  0
 15 20  1  0  0  0  0
 15 16  1  0  0  0  0
 15 38  1  0  0  0  0
 16 17  1  0  0  0  0
 16 39  1  0  0  0  0
 16 40  1  0  0  0  0
 17 18  1  0  0  0  0
 17 41  1  0  0  0  0
 17 42  1  0  0  0  0
 18 19  1  0  0  0  0
 19 20  1  0  0  0  0
 19 43  1  0  0  0  0
 19 44  1  0  0  0  0
 20 45  1  0  0  0  0
 20 46  1  0  0  0  0
 21 47  1  0  0  0  0
M  END
> <s_m_source_file>
AV-unprocessed.smi

> <i_m_source_file_index>
3028

> <i_lp_mmshare_version>
43012

> <i_f3d_flags>
0

> <s_epik_input>
W0NIM11jMVtjSF1ubihbY0hdMSlbQ0BIXShbQ0gzXSlbQ0BIXShbQ0gzXSlbTkhdW0NIMl1DKD1PKVtOSF1bQ0hdMltDSDJdW0NIMl1PW0NIMl1bQ0gyXTI=

> <s_epik_cmdline>
J2VwaWtfcHl0aG9uJywgJy1waCcsICc3LjAnLCAnLXRuJywgJzgnLCAnLW1hJywgJzIwMCcsICctbWV0YWxfYmluZGluZycsICctaW1hZScsICc8aW5maWxlLm1hZT4nLCAnLW9tYWUnLCAnPG91dGZpbGUubWFlPic=

> <r_lp_tautomer_probability>
1

> <r_epik_Ionization_Penalty>
0.88617

> <r_epik_Ionization_Penalty_Charging>
0

> <r_epik_Ionization_Penalty_Neutral>
0.88617

> <r_epik_State_Penalty>
0.921066

> <r_epik_Charging_Adjusted_Penalty>
0.921066

> <i_epik_Tot_Q>
0

> <i_epik_Tot_abs_Q>
0

> <r_epik_Metal_State_Penalty>
0.917309

> <b_epik_Metal_Only>
0

> <s_lp_Force_Field>
OPLS_2005

> <r_lp_Energy>
19.247

> <b_lp_Chiralities_Consistent>
1

> <s_lp_Variant>
AV-unprocessed.smi:3028-5

> <Gold.Version>
5.8.1

> <Gold.Id.Protein>
6NUR|6NUR_protein|mol2

> <Gold.PLP.Fitness>
48.0241

> <Gold.PLP.PLP>
-43.1334

> <Gold.PLP.part.hbond>
-3.9655

> <Gold.PLP.part.metal>
0.0000

> <Gold.PLP.part.buried>
-2.9595

> <Gold.PLP.part.nonpolar>
-35.5373

> <Gold.PLP.part.repulsive>
0.5245

> <Gold.PLP.ligand.clash>
0.0000

> <Gold.PLP.ligand.torsion>
2.7663

> <Gold.PLP.Chemscore.Hbond>
2.4380

> <Gold.PLP.Chemscore.CHOScore>
0.9865

> <Gold.PLP.Chemscore.Metal>
0.0000

> <Gold.Chemscore.Hbonds>
donor molecule, donor type, donor heavy atom, donor atom, acceptor molecule, acceptor atom, score
      L1  H    10    34       P1  7948  1.00
      L1  H    14    37       P1  7948  0.38
      P1  H  7989  7998       L1     4  0.07
      L1  C    21    47       P1  8028  0.64

> <Gold.PLP.Chemscore.Internal.Correction>
0.1498

> <Gold.Rescore>
     Score         DG    S(hbond)    S(metal)    S(lipo)     H(rot)  DE(clash)    DE(int)     intcor
     15.49     -19.04       2.67        0.00      81.84       1.92       0.23       3.32       ----

> <Gold.Chemscore.Fitness>
15.4886

> <Gold.Chemscore.DG>
-19.0387

> <Gold.Chemscore.ZeroCoef>
-5.4800

> <Gold.Chemscore.Hbond>
2.6667

> <Gold.Chemscore.Metal>
0.0000

> <Gold.Chemscore.Lipo>
81.8426

> <Gold.Chemscore.Internal_Hbond>
0.0000

> <Gold.Chemscore.DEClash>
0.2339

> <Gold.Chemscore.DEInternal>
3.3162

> <Gold.Chemscore.Rot>
1.9233

> <Gold.Chemscore.Internal.Correction>
   9.000000E+99

> <Gold.Chemscore.Hbonds>
donor molecule, donor type, donor heavy atom, donor atom, acceptor molecule, acceptor atom, score
      L1  H    10    34       P1  7948  0.98
      L1  H    14    37       P1  7948  0.37

> <Gold.Chemscore.Hbond.Weighted>
-8.9067

> <Gold.Chemscore.Metal.Weighted>
-0.0000

> <Gold.Chemscore.Lipo.Weighted>
-9.5756

> <Gold.Chemscore.Internal_Hbond.Weighted>
0.0000

> <Gold.Chemscore.DEClash.Weighted>
0.2339

> <Gold.Chemscore.DEInternal.Weighted>
3.3162

> <Gold.Chemscore.Rot.Weighted>
4.9235

> <Gold.Chemscore.Internal.Correction.Weighted>
   9.000000E+99

> <Gold.Protein.RotatedTorsions>
[ 6907 6896 6895 6894 ] final  177.86 input  -60.11 | X-H torsion
[ 7974 7965 7964 7962 ] final  -27.28 input  175.53 | X-H torsion
[ 8008 7997 7996 7995 ] final   76.07 input   59.86 | X-H torsion
[ 10167 10162 10161 10158 ] final   18.61 input  -65.29 | X-H torsion
[ 10718 10713 10712 10709 ] final   74.31 input   66.30 | X-H torsion
[ 10763 10752 10751 10750 ] final   72.75 input  -60.55 | X-H torsion
[ 11005 11000 10999 10996 ] final  -74.73 input  -57.11 | X-H torsion

> <Gold.Protein.ActiveResidues>
 VAL166  LYS551  ARG553  GLY616  TRP617  ASP618  TYR619  PRO620  LYS621  CYS622 
 ASP623  PHE694  ASN695  SER759  ASP760  ASP761  ALA762  ILE779  LEU786  VAL792 
 PHE793  MET794  SER795  GLU796  ALA797  LYS798  CYS799  TRP800  GLU811  SER814 

> <Gold.Protein.RotatedAtoms>
  151.6972  133.3311  159.3257 H   0  0  0  0  0  0  0  0  0  0  0  0  # atno 6907 bound_to 6896
  150.7752  134.6647  159.6368 H   0  0  0  0  0  0  0  0  0  0  0  0  # atno 6908 bound_to 6896
  152.3791  134.6620  160.0201 H   0  0  0  0  0  0  0  0  0  0  0  0  # atno 6909 bound_to 6896
  146.1369  140.5131  142.8669 H   0  0  0  0  0  0  0  0  0  0  0  0  # atno 7974 bound_to 7965
  155.8221  140.3469  155.5520 H   0  0  0  0  0  0  0  0  0  0  0  0  # atno 8008 bound_to 7997
  155.8331  140.0930  157.1800 H   0  0  0  0  0  0  0  0  0  0  0  0  # atno 8009 bound_to 7997
  154.4004  140.1408  156.3626 H   0  0  0  0  0  0  0  0  0  0  0  0  # atno 8010 bound_to 7997
  140.5640  143.9284  150.6663 H   0  0  0  0  0  0  0  0  0  0  0  0  # atno 10167 bound_to 10162
  157.6587  130.9672  150.1193 H   0  0  0  0  0  0  0  0  0  0  0  0  # atno 10718 bound_to 10713
  153.0478  135.5088  154.7791 H   0  0  0  0  0  0  0  0  0  0  0  0  # atno 10763 bound_to 10752
  154.6677  135.2948  154.9786 H   0  0  0  0  0  0  0  0  0  0  0  0  # atno 10764 bound_to 10752
  154.0615  135.6690  153.4865 H   0  0  0  0  0  0  0  0  0  0  0  0  # atno 10765 bound_to 10752
  141.1638  133.6922  156.7409 H   0  0  0  0  0  0  0  0  0  0  0  0  # atno 11005 bound_to 11000
  144.7749  140.5718  143.6645 LP  0  0  0  0  0  0  0  0  0  0  0  0  # atno 17320 bound_to 7965
  145.5136  139.1478  143.3591 LP  0  0  0  0  0  0  0  0  0  0  0  0  # atno 17321 bound_to 7965
  140.2743  143.3434  152.1210 LP  0  0  0  0  0  0  0  0  0  0  0  0  # atno 17342 bound_to 10162
  139.5084  144.6849  151.5913 LP  0  0  0  0  0  0  0  0  0  0  0  0  # atno 17343 bound_to 10162
  156.2069  130.3664  149.8718 LP  0  0  0  0  0  0  0  0  0  0  0  0  # atno 17370 bound_to 10713
  156.6607  130.8781  151.3547 LP  0  0  0  0  0  0  0  0  0  0  0  0  # atno 17371 bound_to 10713
  140.2675  134.8418  157.3816 LP  0  0  0  0  0  0  0  0  0  0  0  0  # atno 17394 bound_to 11000
  140.1553  134.4798  155.7932 LP  0  0  0  0  0  0  0  0  0  0  0  0  # atno 17395 bound_to 11000

$$$$
