AV-unprocessed.smi:427|AV-procd|sdf|2542|dock6
  -GOLD-   2262022503D 1   1.00000     0.00000
 Structure written by MMmdl.
 51 52  0  0  0  0  0  0  0  0  1 V2000
  148.2838  133.3107  157.6938 C   0  0  0  0  0  0  0  0  0  0  0  0
  148.1970  134.5899  158.5060 C   0  0  0  0  0  0  0  0  0  0  0  0
  147.5401  134.5784  159.7543 C   0  0  0  0  0  0  0  0  0  0  0  0
  147.4345  135.7545  160.5357 C   0  0  0  0  0  0  0  0  0  0  0  0
  146.7237  135.7785  161.9026 C   0  0  0  0  0  0  0  0  0  0  0  0
  147.6562  136.4104  162.9562 C   0  0  0  0  0  0  0  0  0  0  0  0
  146.3326  134.3702  162.4051 C   0  0  0  0  0  0  0  0  0  0  0  0
  145.4291  136.6124  161.8021 C   0  0  0  0  0  0  0  0  0  0  0  0
  148.0113  136.9417  160.0295 C   0  0  0  0  0  0  0  0  0  0  0  0
  148.6661  136.9599  158.7844 C   0  0  0  0  0  0  0  0  0  0  0  0
  148.7643  135.7821  158.0056 C   0  0  0  0  0  0  0  0  0  0  0  0
  149.3878  135.7252  156.7772 O   0  0  0  0  0  0  0  0  0  0  0  0
  150.4717  136.6088  156.5227 C   0  0  0  0  0  0  0  0  0  0  0  0
  150.5608  136.8391  155.0070 C   0  0  2  0  0  0  0  0  0  0  0  0
  151.0684  135.6527  154.4312 O   0  0  0  0  0  0  0  0  0  0  0  0
  151.5061  138.0096  154.6525 C   0  0  0  0  0  0  0  0  0  0  0  0
  150.9432  139.3108  154.9686 N   0  0  0  0  0  0  0  0  0  0  0  0
  151.6420  140.1322  155.8873 C   0  0  0  0  0  0  0  0  0  0  0  0
  152.6968  139.7780  156.4154 O   0  0  0  0  0  0  0  0  0  0  0  0
  151.0219  141.4283  156.1412 C   0  0  0  0  0  0  0  0  0  0  0  0
  149.8795  141.7864  155.5155 C   0  0  0  0  0  0  0  0  0  0  0  0
  149.2343  140.9684  154.6088 N   0  0  0  0  0  0  0  0  0  0  0  0
  148.0305  141.3626  153.9357 C   0  0  0  0  0  0  0  0  0  0  0  0
  149.7558  139.6936  154.2999 C   0  0  0  0  0  0  0  0  0  0  0  0
  149.2027  138.9579  153.4774 O   0  0  0  0  0  0  0  0  0  0  0  0
  147.8876  132.4574  158.2449 H   0  0  0  0  0  0  0  0  0  0  0  0
  149.3203  133.0925  157.4347 H   0  0  0  0  0  0  0  0  0  0  0  0
  147.7132  133.4128  156.7704 H   0  0  0  0  0  0  0  0  0  0  0  0
  147.1194  133.6449  160.0934 H   0  0  0  0  0  0  0  0  0  0  0  0
  147.1883  136.4281  163.9411 H   0  0  0  0  0  0  0  0  0  0  0  0
  147.9176  137.4393  162.7083 H   0  0  0  0  0  0  0  0  0  0  0  0
  148.5864  135.8481  163.0457 H   0  0  0  0  0  0  0  0  0  0  0  0
  147.2066  133.7316  162.5398 H   0  0  0  0  0  0  0  0  0  0  0  0
  145.6509  133.8713  161.7151 H   0  0  0  0  0  0  0  0  0  0  0  0
  145.8270  134.4216  163.3702 H   0  0  0  0  0  0  0  0  0  0  0  0
  144.8919  136.6271  162.7513 H   0  0  0  0  0  0  0  0  0  0  0  0
  144.7535  136.2017  161.0506 H   0  0  0  0  0  0  0  0  0  0  0  0
  145.6264  137.6502  161.5336 H   0  0  0  0  0  0  0  0  0  0  0  0
  147.9577  137.8591  160.5962 H   0  0  0  0  0  0  0  0  0  0  0  0
  149.0884  137.8949  158.4496 H   0  0  0  0  0  0  0  0  0  0  0  0
  150.3275  137.5599  157.0384 H   0  0  0  0  0  0  0  0  0  0  0  0
  151.3981  136.1602  156.8858 H   0  0  0  0  0  0  0  0  0  0  0  0
  149.5569  137.0116  154.6168 H   0  0  0  0  0  0  0  0  0  0  0  0
  151.0187  135.7311  153.4906 H   0  0  0  0  0  0  0  0  0  0  0  0
  152.4471  137.9455  155.2019 H   0  0  0  0  0  0  0  0  0  0  0  0
  151.8157  138.0013  153.6059 H   0  0  0  0  0  0  0  0  0  0  0  0
  151.4863  142.1116  156.8371 H   0  0  0  0  0  0  0  0  0  0  0  0
  149.4586  142.7571  155.7334 H   0  0  0  0  0  0  0  0  0  0  0  0
  147.2574  140.6346  154.1880 H   0  0  0  0  0  0  0  0  0  0  0  0
  148.2440  141.3828  152.8655 H   0  0  0  0  0  0  0  0  0  0  0  0
  147.7551  142.3558  154.2923 H   0  0  0  0  0  0  0  0  0  0  0  0
  1  2  1  0  0  0  0
  1 26  1  0  0  0  0
  1 27  1  0  0  0  0
  1 28  1  0  0  0  0
  2 11  1  0  0  0  0
  2  3  2  0  0  0  0
  3  4  1  0  0  0  0
  3 29  1  0  0  0  0
  4  5  1  0  0  0  0
  4  9  2  0  0  0  0
  5  6  1  0  0  0  0
  5  7  1  0  0  0  0
  5  8  1  0  0  0  0
  6 30  1  0  0  0  0
  6 31  1  0  0  0  0
  6 32  1  0  0  0  0
  7 33  1  0  0  0  0
  7 34  1  0  0  0  0
  7 35  1  0  0  0  0
  8 36  1  0  0  0  0
  8 37  1  0  0  0  0
  8 38  1  0  0  0  0
  9 10  1  0  0  0  0
  9 39  1  0  0  0  0
 10 11  2  0  0  0  0
 10 40  1  0  0  0  0
 11 12  1  0  0  0  0
 12 13  1  0  0  0  0
 13 14  1  0  0  0  0
 13 41  1  0  0  0  0
 13 42  1  0  0  0  0
 14 15  1  0  0  0  0
 14 16  1  0  0  0  0
 14 43  1  0  0  0  0
 15 44  1  0  0  0  0
 16 17  1  0  0  0  0
 16 45  1  0  0  0  0
 16 46  1  0  0  0  0
 17 24  1  0  0  0  0
 17 18  1  0  0  0  0
 18 19  2  0  0  0  0
 18 20  1  0  0  0  0
 20 21  2  0  0  0  0
 20 47  1  0  0  0  0
 21 22  1  0  0  0  0
 21 48  1  0  0  0  0
 22 23  1  0  0  0  0
 22 24  1  0  0  0  0
 23 49  1  0  0  0  0
 23 50  1  0  0  0  0
 23 51  1  0  0  0  0
 24 25  2  0  0  0  0
M  END
> <s_m_source_file>
AV-unprocessed.smi

> <i_m_source_file_index>
427

> <i_lp_mmshare_version>
43012

> <i_f3d_flags>
0

> <s_epik_input>
W0NIM11jMVtjSF1jKEMoW0NIM10pKFtDSDNdKVtDSDNdKVtjSF1bY0hdYzFPW0NIMl1bQ0BIXShbT0hdKVtDSDJdbjJjKD1PKVtjSF1bY0hdbihbQ0gzXSljMj1P

> <s_epik_cmdline>
J2VwaWtfcHl0aG9uJywgJy1waCcsICc3LjAnLCAnLXRuJywgJzgnLCAnLW1hJywgJzIwMCcsICctbWV0YWxfYmluZGluZycsICctaW1hZScsICc8aW5maWxlLm1hZT4nLCAnLW9tYWUnLCAnPG91dGZpbGUubWFlPic=

> <r_lp_tautomer_probability>
1

> <r_epik_Ionization_Penalty>
2.02112e-07

> <r_epik_Ionization_Penalty_Charging>
8.49383e-08

> <r_epik_Ionization_Penalty_Neutral>
1.17174e-07

> <r_epik_State_Penalty>
-0

> <r_epik_Charging_Adjusted_Penalty>
8.49383e-08

> <i_epik_Tot_Q>
0

> <i_epik_Tot_abs_Q>
0

> <r_epik_Metal_State_Penalty>
-0

> <b_epik_Metal_Only>
0

> <s_lp_Force_Field>
OPLS_2005

> <r_lp_Energy>
25.5029

> <b_lp_Chiralities_Consistent>
1

> <s_lp_Variant>
AV-unprocessed.smi:427-1

> <Gold.Version>
5.8.1

> <Gold.Id.Protein>
6NUR|6NUR_protein|mol2

> <Gold.PLP.Fitness>
56.1074

> <Gold.PLP.PLP>
-46.5497

> <Gold.PLP.part.hbond>
-3.2507

> <Gold.PLP.part.metal>
0.0000

> <Gold.PLP.part.buried>
-2.4661

> <Gold.PLP.part.nonpolar>
-41.8307

> <Gold.PLP.part.repulsive>
3.2024

> <Gold.PLP.ligand.clash>
0.0000

> <Gold.PLP.ligand.torsion>
0.8783

> <Gold.PLP.Chemscore.Hbond>
2.7500

> <Gold.PLP.Chemscore.CHOScore>
1.0000

> <Gold.PLP.Chemscore.Metal>
0.0000

> <Gold.Chemscore.Hbonds>
donor molecule, donor type, donor heavy atom, donor atom, acceptor molecule, acceptor atom, score
      L1  H    15    44       P1  7949  0.85
      P1  H  7997  8010       L1    19  1.00
      P1  H 10752 10763       L1    15  0.90
      L1  C    21    48       P1  8028  1.00

> <Gold.PLP.Chemscore.Internal.Correction>
0.0643

> <Gold.Rescore>
     Score         DG    S(hbond)    S(metal)    S(lipo)     H(rot)  DE(clash)    DE(int)     intcor
     12.06     -15.87       1.73        0.00      94.01       2.49       1.84       1.97       ----

> <Gold.Chemscore.Fitness>
12.0576

> <Gold.Chemscore.DG>
-15.8692

> <Gold.Chemscore.ZeroCoef>
-5.4800

> <Gold.Chemscore.Hbond>
1.7254

> <Gold.Chemscore.Metal>
0.0000

> <Gold.Chemscore.Lipo>
94.0102

> <Gold.Chemscore.Internal_Hbond>
0.0000

> <Gold.Chemscore.DEClash>
1.8381

> <Gold.Chemscore.DEInternal>
1.9735

> <Gold.Chemscore.Rot>
2.4894

> <Gold.Chemscore.Internal.Correction>
   9.000000E+99

> <Gold.Chemscore.Hbonds>
donor molecule, donor type, donor heavy atom, donor atom, acceptor molecule, acceptor atom, score
      L1  H    15    44       P1  7949  0.14
      P1  H  7997  8010       L1    19  1.00
      P1  H 10752 10763       L1    15  0.13

> <Gold.Chemscore.Hbond.Weighted>
-5.7628

> <Gold.Chemscore.Metal.Weighted>
-0.0000

> <Gold.Chemscore.Lipo.Weighted>
-10.9992

> <Gold.Chemscore.Internal_Hbond.Weighted>
0.0000

> <Gold.Chemscore.DEClash.Weighted>
1.8381

> <Gold.Chemscore.DEInternal.Weighted>
1.9735

> <Gold.Chemscore.Rot.Weighted>
6.3728

> <Gold.Chemscore.Internal.Correction.Weighted>
   9.000000E+99

> <Gold.Protein.RotatedTorsions>
[ 6907 6896 6895 6894 ] final -160.50 input  -60.11 | X-H torsion
[ 7974 7965 7964 7962 ] final  -24.47 input  175.53 | X-H torsion
[ 8008 7997 7996 7995 ] final   64.61 input   59.86 | X-H torsion
[ 10167 10162 10161 10158 ] final  -29.59 input  -65.29 | X-H torsion
[ 10718 10713 10712 10709 ] final   18.52 input   66.30 | X-H torsion
[ 10763 10752 10751 10750 ] final   61.15 input  -60.55 | X-H torsion
[ 11005 11000 10999 10996 ] final  165.25 input  -57.11 | X-H torsion

> <Gold.Protein.ActiveResidues>
 VAL166  LYS551  ARG553  GLY616  TRP617  ASP618  TYR619  PRO620  LYS621  CYS622 
 ASP623  PHE694  ASN695  SER759  ASP760  ASP761  ALA762  ILE779  LEU786  VAL792 
 PHE793  MET794  SER795  GLU796  ALA797  LYS798  CYS799  TRP800  GLU811  SER814 

> <Gold.Protein.RotatedAtoms>
  151.3500  133.3929  159.2679 H   0  0  0  0  0  0  0  0  0  0  0  0  # atno 6907 bound_to 6896
  150.9809  134.9165  159.7854 H   0  0  0  0  0  0  0  0  0  0  0  0  # atno 6908 bound_to 6896
  152.5216  134.3464  159.9288 H   0  0  0  0  0  0  0  0  0  0  0  0  # atno 6909 bound_to 6896
  146.1553  140.4755  142.8594 H   0  0  0  0  0  0  0  0  0  0  0  0  # atno 7974 bound_to 7965
  155.6487  140.3497  155.4740 H   0  0  0  0  0  0  0  0  0  0  0  0  # atno 8008 bound_to 7997
  155.9866  140.1185  157.0701 H   0  0  0  0  0  0  0  0  0  0  0  0  # atno 8009 bound_to 7997
  154.4207  140.1128  156.5494 H   0  0  0  0  0  0  0  0  0  0  0  0  # atno 8010 bound_to 7997
  140.7259  143.3916  151.1420 H   0  0  0  0  0  0  0  0  0  0  0  0  # atno 10167 bound_to 10162
  157.0974  130.6453  149.5864 H   0  0  0  0  0  0  0  0  0  0  0  0  # atno 10718 bound_to 10713
  152.9942  135.5511  154.5987 H   0  0  0  0  0  0  0  0  0  0  0  0  # atno 10763 bound_to 10752
  154.5333  135.2815  155.1163 H   0  0  0  0  0  0  0  0  0  0  0  0  # atno 10764 bound_to 10752
  154.2469  135.6406  153.5279 H   0  0  0  0  0  0  0  0  0  0  0  0  # atno 10765 bound_to 10752
  140.2542  134.7953  157.3530 H   0  0  0  0  0  0  0  0  0  0  0  0  # atno 11005 bound_to 11000
  144.7955  140.6114  143.6513 LP  0  0  0  0  0  0  0  0  0  0  0  0  # atno 17320 bound_to 7965
  145.4724  139.1502  143.3807 LP  0  0  0  0  0  0  0  0  0  0  0  0  # atno 17321 bound_to 7965
  139.7522  143.8761  152.3079 LP  0  0  0  0  0  0  0  0  0  0  0  0  # atno 17342 bound_to 10162
  139.8619  144.7113  150.9090 LP  0  0  0  0  0  0  0  0  0  0  0  0  # atno 17343 bound_to 10162
  155.9882  130.4925  150.7160 LP  0  0  0  0  0  0  0  0  0  0  0  0  # atno 17370 bound_to 10713
  157.4669  131.0889  151.0684 LP  0  0  0  0  0  0  0  0  0  0  0  0  # atno 17371 bound_to 10713
  140.1528  134.4828  155.7949 LP  0  0  0  0  0  0  0  0  0  0  0  0  # atno 17394 bound_to 11000
  141.2198  133.6869  156.7408 LP  0  0  0  0  0  0  0  0  0  0  0  0  # atno 17395 bound_to 11000

$$$$
