AV-unprocessed.smi:1762|AV-procd|sdf|7101|dock2
  -GOLD-   22720 8323D 1   1.00000     0.00000
 Structure written by MMmdl.
 52 53  0  0  0  0  0  0  0  0  1 V2000
  153.2680  142.5361  161.9380 C   0  0  0  0  0  0  0  0  0  0  0  0
  152.3067  142.8147  160.7770 C   0  0  2  0  0  0  0  0  0  0  0  0
  152.1834  141.6129  159.8227 C   0  0  0  0  0  0  0  0  0  0  0  0
  151.3309  141.9000  158.6571 N   0  0  0  0  0  0  0  0  0  0  0  0
  151.1347  140.7466  157.7344 C   0  0  1  0  0  0  0  0  0  0  0  0
  151.1749  139.3739  158.4473 C   0  0  0  0  0  0  0  0  0  0  0  0
  152.2267  138.9522  158.9299 O   0  0  0  0  0  0  0  0  0  0  0  0
  150.0227  138.6865  158.4940 N   0  0  0  0  0  0  0  0  0  0  0  0
  149.8483  137.3865  159.1301 C   0  0  0  0  0  0  0  0  0  0  0  0
  148.3605  137.0285  159.2840 C   0  0  0  0  0  0  0  0  0  0  0  0
  148.0736  136.3206  160.5945 C   0  0  0  0  0  0  0  0  0  0  0  0
  148.1002  134.9120  160.6722 C   0  0  0  0  0  0  0  0  0  0  0  0
  147.8181  134.3026  161.9101 C   0  0  0  0  0  0  0  0  0  0  0  0
  147.5207  135.1211  163.0167 C   0  0  0  0  0  0  0  0  0  0  0  0
  147.5176  136.5185  162.8349 C   0  0  0  0  0  0  0  0  0  0  0  0
  147.7855  137.1128  161.6520 N   0  0  0  0  0  0  0  0  0  0  0  0
  149.8730  140.8485  156.8118 C   0  0  0  0  0  0  0  0  0  0  0  0
  150.0851  141.7309  155.5658 C   0  0  0  0  0  0  0  0  0  0  0  0
  148.5925  141.2767  157.5583 C   0  0  0  0  0  0  0  0  0  0  0  0
  151.8591  143.0911  157.9798 C   0  0  0  0  0  0  0  0  0  0  0  0
  152.0293  144.3049  158.9154 C   0  0  1  0  0  0  0  0  0  0  0  0
  150.6957  144.9703  159.2994 C   0  0  0  0  0  0  0  0  0  0  0  0
  152.7952  143.9450  160.0629 O   0  0  0  0  0  0  0  0  0  0  0  0
  152.9314  141.6850  162.5303 H   0  0  0  0  0  0  0  0  0  0  0  0
  153.3351  143.3972  162.6032 H   0  0  0  0  0  0  0  0  0  0  0  0
  154.2725  142.3161  161.5756 H   0  0  0  0  0  0  0  0  0  0  0  0
  151.3273  143.0458  161.1968 H   0  0  0  0  0  0  0  0  0  0  0  0
  153.1751  141.3060  159.4857 H   0  0  0  0  0  0  0  0  0  0  0  0
  151.7883  140.7886  160.4149 H   0  0  0  0  0  0  0  0  0  0  0  0
  151.9921  140.7447  157.0577 H   0  0  0  0  0  0  0  0  0  0  0  0
  149.2057  139.1001  158.0684 H   0  0  0  0  0  0  0  0  0  0  0  0
  150.3497  136.6399  158.5137 H   0  0  0  0  0  0  0  0  0  0  0  0
  150.3479  137.3752  160.1003 H   0  0  0  0  0  0  0  0  0  0  0  0
  147.7465  137.9284  159.2259 H   0  0  0  0  0  0  0  0  0  0  0  0
  148.0429  136.3897  158.4585 H   0  0  0  0  0  0  0  0  0  0  0  0
  148.3288  134.3114  159.8038 H   0  0  0  0  0  0  0  0  0  0  0  0
  147.8279  133.2272  162.0085 H   0  0  0  0  0  0  0  0  0  0  0  0
  147.2998  134.6889  163.9815 H   0  0  0  0  0  0  0  0  0  0  0  0
  147.2926  137.1762  163.6613 H   0  0  0  0  0  0  0  0  0  0  0  0
  149.6421  139.8464  156.4544 H   0  0  0  0  0  0  0  0  0  0  0  0
  150.2435  142.7764  155.8294 H   0  0  0  0  0  0  0  0  0  0  0  0
  149.2156  141.6903  154.9094 H   0  0  0  0  0  0  0  0  0  0  0  0
  150.9447  141.4013  154.9820 H   0  0  0  0  0  0  0  0  0  0  0  0
  148.6299  142.3199  157.8737 H   0  0  0  0  0  0  0  0  0  0  0  0
  148.4292  140.6636  158.4448 H   0  0  0  0  0  0  0  0  0  0  0  0
  147.7158  141.1660  156.9197 H   0  0  0  0  0  0  0  0  0  0  0  0
  152.8246  142.8550  157.5290 H   0  0  0  0  0  0  0  0  0  0  0  0
  151.2085  143.4034  157.1658 H   0  0  0  0  0  0  0  0  0  0  0  0
  152.6148  145.0561  158.3846 H   0  0  0  0  0  0  0  0  0  0  0  0
  150.1855  145.3531  158.4152 H   0  0  0  0  0  0  0  0  0  0  0  0
  150.8598  145.8101  159.9746 H   0  0  0  0  0  0  0  0  0  0  0  0
  150.0151  144.2740  159.7890 H   0  0  0  0  0  0  0  0  0  0  0  0
  1  2  1  0  0  0  0
  1 24  1  0  0  0  0
  1 25  1  0  0  0  0
  1 26  1  0  0  0  0
  2 23  1  0  0  0  0
  2  3  1  0  0  0  0
  2 27  1  0  0  0  0
  3  4  1  0  0  0  0
  3 28  1  0  0  0  0
  3 29  1  0  0  0  0
  4  5  1  0  0  0  0
  4 20  1  0  0  0  0
  5  6  1  0  0  0  0
  5 17  1  0  0  0  0
  5 30  1  0  0  0  0
  6  7  2  0  0  0  0
  6  8  1  0  0  0  0
  8  9  1  0  0  0  0
  8 31  1  0  0  0  0
  9 10  1  0  0  0  0
  9 32  1  0  0  0  0
  9 33  1  0  0  0  0
 10 11  1  0  0  0  0
 10 34  1  0  0  0  0
 10 35  1  0  0  0  0
 11 16  1  0  0  0  0
 11 12  2  0  0  0  0
 12 13  1  0  0  0  0
 12 36  1  0  0  0  0
 13 14  2  0  0  0  0
 13 37  1  0  0  0  0
 14 15  1  0  0  0  0
 14 38  1  0  0  0  0
 15 16  2  0  0  0  0
 15 39  1  0  0  0  0
 17 18  1  0  0  0  0
 17 19  1  0  0  0  0
 17 40  1  0  0  0  0
 18 41  1  0  0  0  0
 18 42  1  0  0  0  0
 18 43  1  0  0  0  0
 19 44  1  0  0  0  0
 19 45  1  0  0  0  0
 19 46  1  0  0  0  0
 20 21  1  0  0  0  0
 20 47  1  0  0  0  0
 20 48  1  0  0  0  0
 21 22  1  0  0  0  0
 21 23  1  0  0  0  0
 21 49  1  0  0  0  0
 22 50  1  0  0  0  0
 22 51  1  0  0  0  0
 22 52  1  0  0  0  0
M  END
> <s_m_source_file>
AV-unprocessed.smi

> <i_m_source_file_index>
1762

> <i_lp_mmshare_version>
43012

> <i_f3d_flags>
0

> <s_epik_input>
W0NIM11bQ0BASF0xW0NIMl1OKFtDSDJdW0NASF0oTzEpW0NIM10pW0NAQEhdKFtDSF0oW0NIM10pW0NIM10pQyg9TylbTkhdW0NIMl1bQ0gyXWMyW2NIXVtjSF1bY0hdW2NIXW4y

> <s_epik_cmdline>
J2VwaWtfcHl0aG9uJywgJy1waCcsICc3LjAnLCAnLXRuJywgJzgnLCAnLW1hJywgJzIwMCcsICctbWV0YWxfYmluZGluZycsICctaW1hZScsICc8aW5maWxlLm1hZT4nLCAnLW9tYWUnLCAnPG91dGZpbGUubWFlPic=

> <r_epik_Ionization_Penalty>
0.0399736

> <r_epik_Ionization_Penalty_Charging>
0

> <r_epik_Ionization_Penalty_Neutral>
0.0399736

> <r_epik_State_Penalty>
0.0317634

> <r_epik_Charging_Adjusted_Penalty>
0.0317634

> <i_epik_Tot_Q>
0

> <i_epik_Tot_abs_Q>
0

> <r_epik_Metal_State_Penalty>
0.0307795

> <b_epik_Metal_Only>
0

> <s_lp_Force_Field>
OPLS_2005

> <r_lp_Energy>
29.8059

> <b_lp_Chiralities_Consistent>
1

> <s_lp_Variant>
AV-unprocessed.smi:1762-3

> <Gold.Version>
5.8.1

> <Gold.Id.Protein>
6NUR|6NUR_protein|mol2

> <Gold.PLP.Fitness>
51.6699

> <Gold.PLP.PLP>
-50.0027

> <Gold.PLP.part.hbond>
-2.0000

> <Gold.PLP.part.metal>
0.0000

> <Gold.PLP.part.buried>
-6.5174

> <Gold.PLP.part.nonpolar>
-41.0690

> <Gold.PLP.part.repulsive>
0.1958

> <Gold.PLP.ligand.clash>
0.2402

> <Gold.PLP.ligand.torsion>
1.9834

> <Gold.PLP.Chemscore.Hbond>
1.7520

> <Gold.PLP.Chemscore.CHOScore>
0.0000

> <Gold.PLP.Chemscore.Metal>
0.0000

> <Gold.Chemscore.Hbonds>
donor molecule, donor type, donor heavy atom, donor atom, acceptor molecule, acceptor atom, score
      P1  H  6931  6943       L1    16  1.00
      P1  H  6934  6947       L1    16  0.55

> <Gold.PLP.Chemscore.Internal.Correction>
0.6180

> <Gold.Rescore>
     Score         DG    S(hbond)    S(metal)    S(lipo)     H(rot)  DE(clash)    DE(int)     intcor
     16.90     -20.28       0.96        0.00     133.99       1.60       0.19       3.19       ----

> <Gold.Chemscore.Fitness>
16.8965

> <Gold.Chemscore.DG>
-20.2761

> <Gold.Chemscore.ZeroCoef>
-5.4800

> <Gold.Chemscore.Hbond>
0.9620

> <Gold.Chemscore.Metal>
0.0000

> <Gold.Chemscore.Lipo>
133.9920

> <Gold.Chemscore.Internal_Hbond>
0.0000

> <Gold.Chemscore.DEClash>
0.1886

> <Gold.Chemscore.DEInternal>
3.1909

> <Gold.Chemscore.Rot>
1.5993

> <Gold.Chemscore.Internal.Correction>
   9.000000E+99

> <Gold.Chemscore.Hbonds>
donor molecule, donor type, donor heavy atom, donor atom, acceptor molecule, acceptor atom, score
      P1  H  6931  6943       L1    16  0.50
      P1  H  6934  6947       L1    16  0.38

> <Gold.Chemscore.Hbond.Weighted>
-3.2131

> <Gold.Chemscore.Metal.Weighted>
-0.0000

> <Gold.Chemscore.Lipo.Weighted>
-15.6771

> <Gold.Chemscore.Internal_Hbond.Weighted>
0.0000

> <Gold.Chemscore.DEClash.Weighted>
0.1886

> <Gold.Chemscore.DEInternal.Weighted>
3.1909

> <Gold.Chemscore.Rot.Weighted>
4.0941

> <Gold.Chemscore.Internal.Correction.Weighted>
   9.000000E+99

> <Gold.Protein.RotatedTorsions>
[ 6907 6896 6895 6894 ] final -109.30 input  -60.11 | X-H torsion
[ 7974 7965 7964 7962 ] final -169.74 input  175.53 | X-H torsion
[ 8008 7997 7996 7995 ] final -124.15 input   59.86 | X-H torsion
[ 10167 10162 10161 10158 ] final  169.26 input  -65.29 | X-H torsion
[ 10718 10713 10712 10709 ] final -113.49 input   66.30 | X-H torsion
[ 10763 10752 10751 10750 ] final -136.37 input  -60.55 | X-H torsion
[ 11005 11000 10999 10996 ] final   67.93 input  -57.11 | X-H torsion

> <Gold.Protein.ActiveResidues>
 VAL166  LYS551  ARG553  GLY616  TRP617  ASP618  TYR619  PRO620  LYS621  CYS622 
 ASP623  PHE694  ASN695  SER759  ASP760  ASP761  ALA762  ILE779  LEU786  VAL792 
 PHE793  MET794  SER795  GLU796  ALA797  LYS798  CYS799  TRP800  GLU811  SER814 

> <Gold.Protein.RotatedAtoms>
  150.7554  133.9549  159.3497 H   0  0  0  0  0  0  0  0  0  0  0  0  # atno 6907 bound_to 6896
  151.7470  135.0839  160.0334 H   0  0  0  0  0  0  0  0  0  0  0  0  # atno 6908 bound_to 6896
  152.3491  133.6121  159.5968 H   0  0  0  0  0  0  0  0  0  0  0  0  # atno 6909 bound_to 6896
  144.7180  140.2176  143.6320 H   0  0  0  0  0  0  0  0  0  0  0  0  # atno 7974 bound_to 7965
  155.1921  140.0413  157.2902 H   0  0  0  0  0  0  0  0  0  0  0  0  # atno 8008 bound_to 7997
  154.6131  140.2482  155.7615 H   0  0  0  0  0  0  0  0  0  0  0  0  # atno 8009 bound_to 7997
  156.2391  140.2910  156.0403 H   0  0  0  0  0  0  0  0  0  0  0  0  # atno 8010 bound_to 7997
  139.4988  144.3725  151.9709 H   0  0  0  0  0  0  0  0  0  0  0  0  # atno 10167 bound_to 10162
  156.0770  130.5976  150.8649 H   0  0  0  0  0  0  0  0  0  0  0  0  # atno 10718 bound_to 10713
  154.8685  135.3674  154.5050 H   0  0  0  0  0  0  0  0  0  0  0  0  # atno 10763 bound_to 10752
  153.5689  135.7021  153.5518 H   0  0  0  0  0  0  0  0  0  0  0  0  # atno 10764 bound_to 10752
  153.3560  135.4059  155.1645 H   0  0  0  0  0  0  0  0  0  0  0  0  # atno 10765 bound_to 10752
  139.9741  134.6851  156.0388 H   0  0  0  0  0  0  0  0  0  0  0  0  # atno 11005 bound_to 11000
  145.8531  139.2185  143.1760 LP  0  0  0  0  0  0  0  0  0  0  0  0  # atno 17320 bound_to 7965
  146.0242  140.8319  142.9908 LP  0  0  0  0  0  0  0  0  0  0  0  0  # atno 17321 bound_to 7965
  140.3162  144.3481  150.6021 LP  0  0  0  0  0  0  0  0  0  0  0  0  # atno 17342 bound_to 10162
  140.5760  143.2176  151.7515 LP  0  0  0  0  0  0  0  0  0  0  0  0  # atno 17343 bound_to 10162
  157.5870  131.0945  150.9181 LP  0  0  0  0  0  0  0  0  0  0  0  0  # atno 17370 bound_to 10713
  156.9364  130.5368  149.5279 LP  0  0  0  0  0  0  0  0  0  0  0  0  # atno 17371 bound_to 10713
  141.1419  133.6563  156.3755 LP  0  0  0  0  0  0  0  0  0  0  0  0  # atno 17394 bound_to 11000
  140.5231  134.6285  157.5325 LP  0  0  0  0  0  0  0  0  0  0  0  0  # atno 17395 bound_to 11000

$$$$
