AV-unprocessed.smi:2358|AV-procd|sdf|9406|dock7
  -GOLD-   2272013 43D 1   1.00000     0.00000
 Structure written by MMmdl.
 46 48  0  0  0  0  0  0  0  0  2 V2000
  151.4765  144.8668  159.0451 C   0  0  0  0  0  0  0  0  0  0  0  0
  152.0550  143.7291  159.8612 C   0  0  0  0  0  0  0  0  0  0  0  0
  152.4797  143.9502  161.1864 C   0  0  0  0  0  0  0  0  0  0  0  0
  153.0218  142.8912  161.9401 C   0  0  0  0  0  0  0  0  0  0  0  0
  153.4765  143.1346  163.3644 C   0  0  0  0  0  0  0  0  0  0  0  0
  153.1357  141.6097  161.3641 C   0  0  0  0  0  0  0  0  0  0  0  0
  152.7163  141.3713  160.0394 C   0  0  0  0  0  0  0  0  0  0  0  0
  152.8688  140.0886  159.5578 O   0  0  0  0  0  0  0  0  0  0  0  0
  151.9686  139.6322  158.5566 C   0  0  0  0  0  0  0  0  0  0  0  0
  151.8782  138.0982  158.6313 C   0  0  1  0  0  0  0  0  0  0  0  0
  151.7522  137.7596  159.9985 O   0  0  0  0  0  0  0  0  0  0  0  0
  150.6384  137.5539  157.8861 C   0  0  0  0  0  0  0  0  0  0  0  0
  150.6096  137.9886  156.4841 N   0  0  0  0  0  0  0  0  0  0  0  0
  149.5047  138.7538  156.1529 N   0  0  0  0  0  0  0  0  0  0  0  0
  149.3483  139.2181  154.9561 C   0  0  0  0  0  0  0  0  0  0  0  0
  148.1857  140.0247  154.6180 N   0  0  0  0  0  0  0  0  0  0  0  0
  147.9812  141.3498  154.9144 C   0  0  0  0  0  0  0  0  0  0  0  0
  146.7540  141.6769  154.3978 C   0  0  0  0  0  0  0  0  0  0  0  0
  146.2635  140.5411  153.8097 N   0  3  0  0  0  0  0  0  0  0  0  0
  147.1334  139.5332  153.9417 C   0  0  0  0  0  0  0  0  0  0  0  0
  150.3493  138.9288  153.9348 C   0  0  0  0  0  0  0  0  0  0  0  0
  151.4258  138.1857  154.2705 C   0  0  0  0  0  0  0  0  0  0  0  0
  151.6167  137.6640  155.6221 C   0  0  0  0  0  0  0  0  0  0  0  0
  152.5965  136.9987  155.9548 O   0  0  0  0  0  0  0  0  0  0  0  0
  152.1738  142.4456  159.2901 C   0  0  0  0  0  0  0  0  0  0  0  0
  151.1993  145.7087  159.6802 H   0  0  0  0  0  0  0  0  0  0  0  0
  150.5847  144.5390  158.5104 H   0  0  0  0  0  0  0  0  0  0  0  0
  152.2071  145.2144  158.3146 H   0  0  0  0  0  0  0  0  0  0  0  0
  152.3914  144.9327  161.6271 H   0  0  0  0  0  0  0  0  0  0  0  0
  154.0504  142.2904  163.7478 H   0  0  0  0  0  0  0  0  0  0  0  0
  152.6144  143.2858  164.0144 H   0  0  0  0  0  0  0  0  0  0  0  0
  154.1061  144.0233  163.4161 H   0  0  0  0  0  0  0  0  0  0  0  0
  153.5499  140.7960  161.9416 H   0  0  0  0  0  0  0  0  0  0  0  0
  150.9818  140.0875  158.6613 H   0  0  0  0  0  0  0  0  0  0  0  0
  152.3699  139.9258  157.5854 H   0  0  0  0  0  0  0  0  0  0  0  0
  152.7885  137.6607  158.2186 H   0  0  0  0  0  0  0  0  0  0  0  0
  152.3347  137.0393  160.1863 H   0  0  0  0  0  0  0  0  0  0  0  0
  150.5631  136.4687  157.9812 H   0  0  0  0  0  0  0  0  0  0  0  0
  149.7319  137.9319  158.3624 H   0  0  0  0  0  0  0  0  0  0  0  0
  148.7004  141.9489  155.4549 H   0  0  0  0  0  0  0  0  0  0  0  0
  146.2074  142.6087  154.4042 H   0  0  0  0  0  0  0  0  0  0  0  0
  146.9801  138.5397  153.5637 H   0  0  0  0  0  0  0  0  0  0  0  0
  150.2633  139.2840  152.9213 H   0  0  0  0  0  0  0  0  0  0  0  0
  152.1701  137.9679  153.5186 H   0  0  0  0  0  0  0  0  0  0  0  0
  151.8418  142.3088  158.2721 H   0  0  0  0  0  0  0  0  0  0  0  0
  145.3690  140.4719  153.3404 H   0  0  0  0  0  0  0  0  0  0  0  0
  1  2  1  0  0  0  0
  1 26  1  0  0  0  0
  1 27  1  0  0  0  0
  1 28  1  0  0  0  0
  2 25  1  0  0  0  0
  2  3  2  0  0  0  0
  3  4  1  0  0  0  0
  3 29  1  0  0  0  0
  4  5  1  0  0  0  0
  4  6  2  0  0  0  0
  5 30  1  0  0  0  0
  5 31  1  0  0  0  0
  5 32  1  0  0  0  0
  6  7  1  0  0  0  0
  6 33  1  0  0  0  0
  7  8  1  0  0  0  0
  7 25  2  0  0  0  0
  8  9  1  0  0  0  0
  9 10  1  0  0  0  0
  9 34  1  0  0  0  0
  9 35  1  0  0  0  0
 10 11  1  0  0  0  0
 10 12  1  0  0  0  0
 10 36  1  0  0  0  0
 11 37  1  0  0  0  0
 12 13  1  0  0  0  0
 12 38  1  0  0  0  0
 12 39  1  0  0  0  0
 13 23  1  0  0  0  0
 13 14  1  0  0  0  0
 14 15  2  0  0  0  0
 15 16  1  0  0  0  0
 15 21  1  0  0  0  0
 16 20  1  0  0  0  0
 16 17  1  0  0  0  0
 17 18  2  0  0  0  0
 17 40  1  0  0  0  0
 18 19  1  0  0  0  0
 18 41  1  0  0  0  0
 19 20  2  0  0  0  0
 19 46  1  0  0  0  0
 20 42  1  0  0  0  0
 21 22  2  0  0  0  0
 21 43  1  0  0  0  0
 22 23  1  0  0  0  0
 22 44  1  0  0  0  0
 23 24  2  0  0  0  0
 25 45  1  0  0  0  0
M  CHG  1  19   1
M  END
> <s_m_source_file>
AV-unprocessed.smi

> <i_m_source_file_index>
2358

> <i_lp_mmshare_version>
43012

> <i_f3d_flags>
0

> <s_epik_input>
W0NIM11jMVtjSF1jKFtDSDNdKVtjSF1jKFtjSF0xKU9bQ0gyXVtDQEhdKFtPSF0pW0NIMl1uMm5jKFtjSF1bY0hdYzI9TyktbjNbY0hdW2NIXW5bY0hdMw==

> <s_epik_cmdline>
J2VwaWtfcHl0aG9uJywgJy1waCcsICc3LjAnLCAnLXRuJywgJzgnLCAnLW1hJywgJzIwMCcsICctbWV0YWxfYmluZGluZycsICctaW1hZScsICc8aW5maWxlLm1hZT4nLCAnLW9tYWUnLCAnPG91dGZpbGUubWFlPic=

> <r_lp_tautomer_probability>
1

> <r_epik_Ionization_Penalty>
1.66053

> <r_epik_Ionization_Penalty_Charging>
2.42216e-09

> <r_epik_Ionization_Penalty_Neutral>
1.66053

> <r_epik_State_Penalty>
1.76336

> <r_epik_Charging_Adjusted_Penalty>
1.76336

> <i_epik_Tot_Q>
1

> <i_epik_Tot_abs_Q>
1

> <r_epik_Metal_State_Penalty>
1.79856

> <b_epik_Metal_Only>
0

> <s_lp_Force_Field>
OPLS_2005

> <r_lp_Energy>
39.182

> <b_lp_Chiralities_Consistent>
1

> <s_lp_Variant>
AV-unprocessed.smi:2358-4

> <Gold.Version>
5.8.1

> <Gold.Id.Protein>
6NUR|6NUR_protein|mol2

> <Gold.PLP.Fitness>
57.8657

> <Gold.PLP.PLP>
-50.7282

> <Gold.PLP.part.hbond>
-2.9162

> <Gold.PLP.part.metal>
0.0000

> <Gold.PLP.part.buried>
-4.2461

> <Gold.PLP.part.nonpolar>
-42.0634

> <Gold.PLP.part.repulsive>
0.0332

> <Gold.PLP.ligand.clash>
0.0000

> <Gold.PLP.ligand.torsion>
2.0892

> <Gold.PLP.Chemscore.Hbond>
2.9280

> <Gold.PLP.Chemscore.CHOScore>
0.8051

> <Gold.PLP.Chemscore.Metal>
0.0000

> <Gold.Chemscore.Hbonds>
donor molecule, donor type, donor heavy atom, donor atom, acceptor molecule, acceptor atom, score
      L1  H    19    46       P1 10175  2.00
      P1  H 10752 10763       L1    24  0.80
      L1  C    17    40       P1  8028  0.37

> <Gold.PLP.Chemscore.Internal.Correction>
0.1167

> <Gold.Rescore>
     Score         DG    S(hbond)    S(metal)    S(lipo)     H(rot)  DE(clash)    DE(int)     intcor
     17.18     -20.60       1.86        0.00     134.07       2.65       0.04       3.38       ----

> <Gold.Chemscore.Fitness>
17.1844

> <Gold.Chemscore.DG>
-20.5987

> <Gold.Chemscore.ZeroCoef>
-5.4800

> <Gold.Chemscore.Hbond>
1.8641

> <Gold.Chemscore.Metal>
0.0000

> <Gold.Chemscore.Lipo>
134.0692

> <Gold.Chemscore.Internal_Hbond>
0.0000

> <Gold.Chemscore.DEClash>
0.0384

> <Gold.Chemscore.DEInternal>
3.3758

> <Gold.Chemscore.Rot>
2.6537

> <Gold.Chemscore.Internal.Correction>
   9.000000E+99

> <Gold.Chemscore.Hbonds>
donor molecule, donor type, donor heavy atom, donor atom, acceptor molecule, acceptor atom, score
      L1  H    19    46       P1 10175  0.97
      P1  H 10752 10763       L1    24  0.79

> <Gold.Chemscore.Hbond.Weighted>
-6.2261

> <Gold.Chemscore.Metal.Weighted>
-0.0000

> <Gold.Chemscore.Lipo.Weighted>
-15.6861

> <Gold.Chemscore.Internal_Hbond.Weighted>
0.0000

> <Gold.Chemscore.DEClash.Weighted>
0.0384

> <Gold.Chemscore.DEInternal.Weighted>
3.3758

> <Gold.Chemscore.Rot.Weighted>
6.7935

> <Gold.Chemscore.Internal.Correction.Weighted>
   9.000000E+99

> <Gold.Protein.RotatedTorsions>
[ 6907 6896 6895 6894 ] final  164.61 input  -60.11 | X-H torsion
[ 7974 7965 7964 7962 ] final  -82.92 input  175.53 | X-H torsion
[ 8008 7997 7996 7995 ] final   -4.82 input   59.86 | X-H torsion
[ 10167 10162 10161 10158 ] final   99.68 input  -65.29 | X-H torsion
[ 10718 10713 10712 10709 ] final   79.76 input   66.30 | X-H torsion
[ 10763 10752 10751 10750 ] final   92.97 input  -60.55 | X-H torsion
[ 11005 11000 10999 10996 ] final   32.06 input  -57.11 | X-H torsion

> <Gold.Protein.ActiveResidues>
 VAL166  LYS551  ARG553  GLY616  TRP617  ASP618  TYR619  PRO620  LYS621  CYS622 
 ASP623  PHE694  ASN695  SER759  ASP760  ASP761  ALA762  ILE779  LEU786  VAL792 
 PHE793  MET794  SER795  GLU796  ALA797  LYS798  CYS799  TRP800  GLU811  SER814 

> <Gold.Protein.RotatedAtoms>
  151.9071  133.3552  159.3850 H   0  0  0  0  0  0  0  0  0  0  0  0  # atno 6907 bound_to 6896
  150.7066  134.4769  159.5461 H   0  0  0  0  0  0  0  0  0  0  0  0  # atno 6908 bound_to 6896
  152.2369  134.8268  160.0517 H   0  0  0  0  0  0  0  0  0  0  0  0  # atno 6909 bound_to 6896
  145.5269  140.9525  143.1624 H   0  0  0  0  0  0  0  0  0  0  0  0  # atno 7974 bound_to 7965
  154.6103  140.2474  155.7678 H   0  0  0  0  0  0  0  0  0  0  0  0  # atno 8008 bound_to 7997
  156.2366  140.2948  156.0280 H   0  0  0  0  0  0  0  0  0  0  0  0  # atno 8009 bound_to 7997
  155.2064  140.0396  157.2916 H   0  0  0  0  0  0  0  0  0  0  0  0  # atno 8010 bound_to 7997
  139.7595  144.6959  151.0312 H   0  0  0  0  0  0  0  0  0  0  0  0  # atno 10167 bound_to 10162
  157.6786  130.9929  150.1979 H   0  0  0  0  0  0  0  0  0  0  0  0  # atno 10718 bound_to 10713
  153.2251  135.4342  155.0533 H   0  0  0  0  0  0  0  0  0  0  0  0  # atno 10763 bound_to 10752
  154.8269  135.3366  154.6870 H   0  0  0  0  0  0  0  0  0  0  0  0  # atno 10764 bound_to 10752
  153.7300  135.7011  153.5048 H   0  0  0  0  0  0  0  0  0  0  0  0  # atno 10765 bound_to 10752
  140.2774  134.3012  155.7810 H   0  0  0  0  0  0  0  0  0  0  0  0  # atno 11005 bound_to 11000
  144.7646  139.6875  143.7220 LP  0  0  0  0  0  0  0  0  0  0  0  0  # atno 17320 bound_to 7965
  146.2069  139.5400  142.9706 LP  0  0  0  0  0  0  0  0  0  0  0  0  # atno 17321 bound_to 7965
  140.7806  143.4713  151.0142 LP  0  0  0  0  0  0  0  0  0  0  0  0  # atno 17342 bound_to 10162
  139.8399  143.7577  152.3180 LP  0  0  0  0  0  0  0  0  0  0  0  0  # atno 17343 bound_to 10162
  156.2677  130.3718  149.8064 LP  0  0  0  0  0  0  0  0  0  0  0  0  # atno 17370 bound_to 10713
  156.5791  130.8458  151.3378 LP  0  0  0  0  0  0  0  0  0  0  0  0  # atno 17371 bound_to 10713
  141.2168  133.7504  156.9428 LP  0  0  0  0  0  0  0  0  0  0  0  0  # atno 17394 bound_to 11000
  140.1315  134.9352  157.2344 LP  0  0  0  0  0  0  0  0  0  0  0  0  # atno 17395 bound_to 11000

$$$$
