AV-unprocessed.smi:2854|AV-procd|sdf|10975|dock9
  -GOLD-   2272015433D 1   1.00000     0.00000
 Structure written by MMmdl.
 27 28  0  0  0  0  0  0  0  0  2 V2000
  149.3269  142.4278  154.8616 N   0  0  0  0  0  0  0  0  0  0  0  0
  148.5747  141.3520  154.3855 C   0  0  0  0  0  0  0  0  0  0  0  0
  147.2412  141.5667  153.9776 C   0  0  0  0  0  0  0  0  0  0  0  0
  146.5004  140.5368  153.5153 N   0  3  0  0  0  0  0  0  0  0  0  0
  146.9785  139.2781  153.4191 C   0  0  0  0  0  0  0  0  0  0  0  0
  148.3029  138.9991  153.8107 C   0  0  0  0  0  0  0  0  0  0  0  0
  149.1210  140.0453  154.3023 C   0  0  0  0  0  0  0  0  0  0  0  0
  150.4450  139.8013  154.7025 N   0  0  0  0  0  0  0  0  0  0  0  0
  150.6879  140.0694  156.1144 C   0  0  0  0  0  0  0  0  0  0  0  0
  152.1853  139.9096  156.4294 C   0  0  0  0  0  0  0  0  0  0  0  0
  152.6181  138.6098  156.0378 O   0  0  0  0  0  0  0  0  0  0  0  0
  152.4499  138.3879  154.6404 C   0  0  0  0  0  0  0  0  0  0  0  0
  150.9594  138.5056  154.2772 C   0  0  0  0  0  0  0  0  0  0  0  0
  150.2844  142.3183  155.1637 H   0  0  0  0  0  0  0  0  0  0  0  0
  148.9344  143.3576  154.9140 H   0  0  0  0  0  0  0  0  0  0  0  0
  146.7452  142.5261  154.0065 H   0  0  0  0  0  0  0  0  0  0  0  0
  146.2925  138.5371  153.0353 H   0  0  0  0  0  0  0  0  0  0  0  0
  148.6829  137.9908  153.7335 H   0  0  0  0  0  0  0  0  0  0  0  0
  150.3593  141.0796  156.3614 H   0  0  0  0  0  0  0  0  0  0  0  0
  150.1069  139.3802  156.7288 H   0  0  0  0  0  0  0  0  0  0  0  0
  152.7749  140.6708  155.9157 H   0  0  0  0  0  0  0  0  0  0  0  0
  152.3610  140.0371  157.4975 H   0  0  0  0  0  0  0  0  0  0  0  0
  153.0471  139.1038  154.0733 H   0  0  0  0  0  0  0  0  0  0  0  0
  152.8211  137.3940  154.3902 H   0  0  0  0  0  0  0  0  0  0  0  0
  150.3989  137.7050  154.7615 H   0  0  0  0  0  0  0  0  0  0  0  0
  150.8263  138.3896  153.2010 H   0  0  0  0  0  0  0  0  0  0  0  0
  145.5386  140.7182  153.2268 H   0  0  0  0  0  0  0  0  0  0  0  0
  1  2  1  0  0  0  0
  1 14  1  0  0  0  0
  1 15  1  0  0  0  0
  2  7  1  0  0  0  0
  2  3  2  0  0  0  0
  3  4  1  0  0  0  0
  3 16  1  0  0  0  0
  4  5  2  0  0  0  0
  4 27  1  0  0  0  0
  5  6  1  0  0  0  0
  5 17  1  0  0  0  0
  6  7  2  0  0  0  0
  6 18  1  0  0  0  0
  7  8  1  0  0  0  0
  8 13  1  0  0  0  0
  8  9  1  0  0  0  0
  9 10  1  0  0  0  0
  9 19  1  0  0  0  0
  9 20  1  0  0  0  0
 10 11  1  0  0  0  0
 10 21  1  0  0  0  0
 10 22  1  0  0  0  0
 11 12  1  0  0  0  0
 12 13  1  0  0  0  0
 12 23  1  0  0  0  0
 12 24  1  0  0  0  0
 13 25  1  0  0  0  0
 13 26  1  0  0  0  0
M  CHG  1   4   1
M  END
> <s_m_source_file>
AV-unprocessed.smi

> <i_m_source_file_index>
2854

> <i_lp_mmshare_version>
43012

> <i_f3d_flags>
0

> <s_epik_input>
W05IMl1jMVtjSF1uW2NIXVtjSF1jMU4yW0NIMl1bQ0gyXU9bQ0gyXVtDSDJdMg==

> <s_epik_cmdline>
J2VwaWtfcHl0aG9uJywgJy1waCcsICc3LjAnLCAnLXRuJywgJzgnLCAnLW1hJywgJzIwMCcsICctbWV0YWxfYmluZGluZycsICctaW1hZScsICc8aW5maWxlLm1hZT4nLCAnLW9tYWUnLCAnPG91dGZpbGUubWFlPic=

> <r_lp_tautomer_probability>
0.999846

> <r_epik_Ionization_Penalty>
0.0229726

> <r_epik_Ionization_Penalty_Charging>
0.0229724

> <r_epik_Ionization_Penalty_Neutral>
1.97994e-07

> <r_epik_State_Penalty>
0.0185659

> <r_epik_Charging_Adjusted_Penalty>
0.0415384

> <i_epik_Tot_Q>
1

> <i_epik_Tot_abs_Q>
1

> <r_epik_Metal_State_Penalty>
2.0686

> <b_epik_Metal_Only>
0

> <s_lp_Force_Field>
OPLS_2005

> <r_lp_Energy>
29.6275

> <b_lp_Chiralities_Consistent>
1

> <s_lp_Variant>
AV-unprocessed.smi:2854-1

> <Gold.Version>
5.8.1

> <Gold.Id.Protein>
6NUR|6NUR_protein|mol2

> <Gold.PLP.Fitness>
36.2815

> <Gold.PLP.PLP>
-25.6493

> <Gold.PLP.part.hbond>
-2.9131

> <Gold.PLP.part.metal>
0.0000

> <Gold.PLP.part.buried>
-2.3236

> <Gold.PLP.part.nonpolar>
-21.2075

> <Gold.PLP.part.repulsive>
1.0311

> <Gold.PLP.ligand.clash>
0.3822

> <Gold.PLP.ligand.torsion>
0.1652

> <Gold.PLP.Chemscore.Hbond>
3.7413

> <Gold.PLP.Chemscore.CHOScore>
0.0000

> <Gold.PLP.Chemscore.Metal>
0.0000

> <Gold.Chemscore.Hbonds>
donor molecule, donor type, donor heavy atom, donor atom, acceptor molecule, acceptor atom, score
      L1  H     1    15       P1  8028  0.99
      L1  H     4    27       P1 10175  2.00
      P1  H  7989  7998       L1     8  0.75

> <Gold.PLP.Chemscore.Internal.Correction>
0.1210

> <Gold.Rescore>
     Score         DG    S(hbond)    S(metal)    S(lipo)     H(rot)  DE(clash)    DE(int)     intcor
     14.88     -16.35       1.85        0.00      62.07       1.00       0.20       1.27       ----

> <Gold.Chemscore.Fitness>
14.8781

> <Gold.Chemscore.DG>
-16.3488

> <Gold.Chemscore.ZeroCoef>
-5.4800

> <Gold.Chemscore.Hbond>
1.8463

> <Gold.Chemscore.Metal>
0.0000

> <Gold.Chemscore.Lipo>
62.0693

> <Gold.Chemscore.Internal_Hbond>
0.0000

> <Gold.Chemscore.DEClash>
0.2041

> <Gold.Chemscore.DEInternal>
1.2665

> <Gold.Chemscore.Rot>
1.0000

> <Gold.Chemscore.Internal.Correction>
   9.000000E+99

> <Gold.Chemscore.Hbonds>
donor molecule, donor type, donor heavy atom, donor atom, acceptor molecule, acceptor atom, score
      L1  H     1    15       P1  8028  0.87
      L1  H     4    27       P1 10175  0.75
      P1  H  7989  7998       L1     8  0.05

> <Gold.Chemscore.Hbond.Weighted>
-6.1667

> <Gold.Chemscore.Metal.Weighted>
-0.0000

> <Gold.Chemscore.Lipo.Weighted>
-7.2621

> <Gold.Chemscore.Internal_Hbond.Weighted>
0.0000

> <Gold.Chemscore.DEClash.Weighted>
0.2041

> <Gold.Chemscore.DEInternal.Weighted>
1.2665

> <Gold.Chemscore.Rot.Weighted>
2.5600

> <Gold.Chemscore.Internal.Correction.Weighted>
   9.000000E+99

> <Gold.Protein.RotatedTorsions>
[ 6907 6896 6895 6894 ] final   32.59 input  -60.11 | X-H torsion
[ 7974 7965 7964 7962 ] final   52.68 input  175.53 | X-H torsion
[ 8008 7997 7996 7995 ] final   82.33 input   59.86 | X-H torsion
[ 10167 10162 10161 10158 ] final -154.87 input  -65.29 | X-H torsion
[ 10718 10713 10712 10709 ] final   -7.57 input   66.30 | X-H torsion
[ 10763 10752 10751 10750 ] final  -49.79 input  -60.55 | X-H torsion
[ 11005 11000 10999 10996 ] final  168.79 input  -57.11 | X-H torsion

> <Gold.Protein.ActiveResidues>
 VAL166  LYS551  ARG553  GLY616  TRP617  ASP618  TYR619  PRO620  LYS621  CYS622 
 ASP623  PHE694  ASN695  SER759  ASP760  ASP761  ALA762  ILE779  LEU786  VAL792 
 PHE793  MET794  SER795  GLU796  ALA797  LYS798  CYS799  TRP800  GLU811  SER814 

> <Gold.Protein.RotatedAtoms>
  152.0767  134.9498  160.0573 H   0  0  0  0  0  0  0  0  0  0  0  0  # atno 6907 bound_to 6896
  152.0803  133.4144  159.4506 H   0  0  0  0  0  0  0  0  0  0  0  0  # atno 6908 bound_to 6896
  150.6836  134.2910  159.4710 H   0  0  0  0  0  0  0  0  0  0  0  0  # atno 6909 bound_to 6896
  145.9789  139.4222  143.0144 H   0  0  0  0  0  0  0  0  0  0  0  0  # atno 7974 bound_to 7965
  155.9091  140.3428  155.6085 H   0  0  0  0  0  0  0  0  0  0  0  0  # atno 8008 bound_to 7997
  155.7409  140.0807  157.2265 H   0  0  0  0  0  0  0  0  0  0  0  0  # atno 8009 bound_to 7997
  154.4053  140.1571  156.2602 H   0  0  0  0  0  0  0  0  0  0  0  0  # atno 8010 bound_to 7997
  139.6978  143.9313  152.2415 H   0  0  0  0  0  0  0  0  0  0  0  0  # atno 10167 bound_to 10162
  156.7153  130.5134  149.5882 H   0  0  0  0  0  0  0  0  0  0  0  0  # atno 10718 bound_to 10713
  154.0998  135.6565  153.4866 H   0  0  0  0  0  0  0  0  0  0  0  0  # atno 10763 bound_to 10752
  153.0292  135.5222  154.7298 H   0  0  0  0  0  0  0  0  0  0  0  0  # atno 10764 bound_to 10752
  154.6446  135.2993  155.0031 H   0  0  0  0  0  0  0  0  0  0  0  0  # atno 10765 bound_to 10752
  140.2910  134.7673  157.3838 H   0  0  0  0  0  0  0  0  0  0  0  0  # atno 11005 bound_to 11000
  145.7798  140.9861  143.1105 LP  0  0  0  0  0  0  0  0  0  0  0  0  # atno 17320 bound_to 7965
  144.6856  139.9551  143.7479 LP  0  0  0  0  0  0  0  0  0  0  0  0  # atno 17321 bound_to 7965
  139.9147  144.6835  150.8525 LP  0  0  0  0  0  0  0  0  0  0  0  0  # atno 17342 bound_to 10162
  140.7701  143.3418  151.2193 LP  0  0  0  0  0  0  0  0  0  0  0  0  # atno 17343 bound_to 10162
  156.1632  130.6388  151.0746 LP  0  0  0  0  0  0  0  0  0  0  0  0  # atno 17370 bound_to 10713
  157.6920  131.0807  150.7080 LP  0  0  0  0  0  0  0  0  0  0  0  0  # atno 17371 bound_to 10713
  140.1196  134.5238  155.8195 LP  0  0  0  0  0  0  0  0  0  0  0  0  # atno 17394 bound_to 11000
  141.2146  133.6751  156.6840 LP  0  0  0  0  0  0  0  0  0  0  0  0  # atno 17395 bound_to 11000

$$$$
