AV-unprocessed.smi:186|AV-procd|sdf|1466|dock7
  -GOLD-   2262019283D 1   1.00000     0.00000
 Structure written by MMmdl.
 48 51  0  0  0  0  0  0  0  0  1 V2000
  152.4922  144.9993  160.5735 C   0  0  0  0  0  0  0  0  0  0  0  0
  151.0957  145.0572  160.3422 O   0  0  0  0  0  0  0  0  0  0  0  0
  150.7634  144.8727  158.9745 C   0  0  0  0  0  0  0  0  0  0  0  0
  150.9782  143.4094  158.5840 C   0  0  0  0  0  0  0  0  0  0  0  0
  151.5546  142.6306  159.3443 O   0  0  0  0  0  0  0  0  0  0  0  0
  150.5067  143.0469  157.3826 N   0  0  0  0  0  0  0  0  0  0  0  0
  150.6108  141.7027  156.8303 C   0  0  0  0  0  0  0  0  0  0  0  0
  150.0523  141.5700  155.4119 C   0  0  0  0  0  0  0  0  0  0  0  0
  149.3860  140.3499  155.8655 N   0  0  0  0  0  0  0  0  0  0  0  0
  150.0813  139.1659  155.4703 C   0  0  0  0  0  0  0  0  0  0  0  0
  151.2539  139.3751  154.8178 N   0  0  0  0  0  0  0  0  0  0  0  0
  152.0082  138.3597  154.3913 C   0  0  0  0  0  0  0  0  0  0  0  0
  151.7848  137.0522  154.5079 N   0  0  0  0  0  0  0  0  0  0  0  0
  150.6125  136.8147  155.1594 C   0  0  0  0  0  0  0  0  0  0  0  0
  149.7113  137.7972  155.6686 C   0  0  0  0  0  0  0  0  0  0  0  0
  148.6357  137.1559  156.2755 N   0  0  0  0  0  0  0  0  0  0  0  0
  148.8827  135.8837  156.1311 C   0  0  0  0  0  0  0  0  0  0  0  0
  150.0481  135.5884  155.4653 N   0  0  0  0  0  0  0  0  0  0  0  0
  150.5661  134.2620  155.1659 C   0  0  0  0  0  0  0  0  0  0  0  0
  149.4641  133.1824  155.0575 C   0  0  1  0  0  0  0  0  0  0  0  0
  148.4866  133.6149  154.1265 O   0  0  0  0  0  0  0  0  0  0  0  0
  149.9734  131.8107  154.6241 C   0  0  0  0  0  0  0  0  0  0  0  0
  149.0244  130.8566  155.3354 C   0  0  0  0  0  0  0  0  0  0  0  0
  148.8491  131.4795  156.5965 O   0  0  0  0  0  0  0  0  0  0  0  0
  148.7621  132.8873  156.3981 C   0  0  0  0  0  0  0  0  0  0  0  0
  149.4686  140.7824  157.2608 C   0  0  0  0  0  0  0  0  0  0  0  0
  152.6936  145.1417  161.6350 H   0  0  0  0  0  0  0  0  0  0  0  0
  153.0152  145.7827  160.0234 H   0  0  0  0  0  0  0  0  0  0  0  0
  152.9012  144.0316  160.2799 H   0  0  0  0  0  0  0  0  0  0  0  0
  149.7212  145.1445  158.7990 H   0  0  0  0  0  0  0  0  0  0  0  0
  151.3885  145.5066  158.3438 H   0  0  0  0  0  0  0  0  0  0  0  0
  150.0475  143.7447  156.8155 H   0  0  0  0  0  0  0  0  0  0  0  0
  151.5967  141.2482  156.9443 H   0  0  0  0  0  0  0  0  0  0  0  0
  149.3325  142.3458  155.1463 H   0  0  0  0  0  0  0  0  0  0  0  0
  150.8089  141.4296  154.6383 H   0  0  0  0  0  0  0  0  0  0  0  0
  152.9210  138.6356  153.8841 H   0  0  0  0  0  0  0  0  0  0  0  0
  148.2156  135.1204  156.5048 H   0  0  0  0  0  0  0  0  0  0  0  0
  151.1291  134.3183  154.2334 H   0  0  0  0  0  0  0  0  0  0  0  0
  151.2860  133.9918  155.9395 H   0  0  0  0  0  0  0  0  0  0  0  0
  148.7375  134.4669  153.8033 H   0  0  0  0  0  0  0  0  0  0  0  0
  149.9992  131.6697  153.5425 H   0  0  0  0  0  0  0  0  0  0  0  0
  150.9816  131.6449  155.0049 H   0  0  0  0  0  0  0  0  0  0  0  0
  148.0661  130.7941  154.8172 H   0  0  0  0  0  0  0  0  0  0  0  0
  149.4319  129.8503  155.4350 H   0  0  0  0  0  0  0  0  0  0  0  0
  149.2394  133.3941  157.2372 H   0  0  0  0  0  0  0  0  0  0  0  0
  147.7138  133.1909  156.3890 H   0  0  0  0  0  0  0  0  0  0  0  0
  149.7166  140.0171  157.9937 H   0  0  0  0  0  0  0  0  0  0  0  0
  148.5667  141.3232  157.5518 H   0  0  0  0  0  0  0  0  0  0  0  0
  1  2  1  0  0  0  0
  1 27  1  0  0  0  0
  1 28  1  0  0  0  0
  1 29  1  0  0  0  0
  2  3  1  0  0  0  0
  3  4  1  0  0  0  0
  3 30  1  0  0  0  0
  3 31  1  0  0  0  0
  4  5  2  0  0  0  0
  4  6  1  0  0  0  0
  6  7  1  0  0  0  0
  6 32  1  0  0  0  0
  7 26  1  0  0  0  0
  7  8  1  0  0  0  0
  7 33  1  0  0  0  0
  8  9  1  0  0  0  0
  8 34  1  0  0  0  0
  8 35  1  0  0  0  0
  9 10  1  0  0  0  0
  9 26  1  0  0  0  0
 10 15  1  0  0  0  0
 10 11  2  0  0  0  0
 11 12  1  0  0  0  0
 12 13  2  0  0  0  0
 12 36  1  0  0  0  0
 13 14  1  0  0  0  0
 14 18  1  0  0  0  0
 14 15  2  0  0  0  0
 15 16  1  0  0  0  0
 16 17  2  0  0  0  0
 17 18  1  0  0  0  0
 17 37  1  0  0  0  0
 18 19  1  0  0  0  0
 19 20  1  0  0  0  0
 19 38  1  0  0  0  0
 19 39  1  0  0  0  0
 20 25  1  0  0  0  0
 20 21  1  0  0  0  0
 20 22  1  0  0  0  0
 21 40  1  0  0  0  0
 22 23  1  0  0  0  0
 22 41  1  0  0  0  0
 22 42  1  0  0  0  0
 23 24  1  0  0  0  0
 23 43  1  0  0  0  0
 23 44  1  0  0  0  0
 24 25  1  0  0  0  0
 25 45  1  0  0  0  0
 25 46  1  0  0  0  0
 26 47  1  0  0  0  0
 26 48  1  0  0  0  0
M  END
> <s_m_source_file>
AV-unprocessed.smi

> <i_m_source_file_index>
186

> <i_lp_mmshare_version>
43012

> <i_f3d_flags>
0

> <s_epik_input>
W0NIM11PW0NIMl1DKD1PKVtOSF1bQ0hdMVtDSDJdTihbQ0gyXTEpYyhuW2NIXW4yKWMoYzIzKW5bY0hdbjNbQ0gyXVtDQEBdNChbT0hdKVtDSDJdW0NIMl1PW0NIMl00

> <s_epik_cmdline>
J2VwaWtfcHl0aG9uJywgJy1waCcsICc3LjAnLCAnLXRuJywgJzgnLCAnLW1hJywgJzIwMCcsICctbWV0YWxfYmluZGluZycsICctaW1hZScsICc8aW5maWxlLm1hZT4nLCAnLW9tYWUnLCAnPG91dGZpbGUubWFlPic=

> <r_lp_tautomer_probability>
1

> <r_epik_Ionization_Penalty>
0.00138671

> <r_epik_Ionization_Penalty_Charging>
0

> <r_epik_Ionization_Penalty_Neutral>
0.00138671

> <r_epik_State_Penalty>
0.000746021

> <r_epik_Charging_Adjusted_Penalty>
0.000746021

> <i_epik_Tot_Q>
0

> <i_epik_Tot_abs_Q>
0

> <r_epik_Metal_State_Penalty>
-0

> <b_epik_Metal_Only>
0

> <s_lp_Force_Field>
OPLS_2005

> <r_lp_Energy>
46.8047

> <b_lp_Chiralities_Consistent>
1

> <s_lp_Variant>
AV-unprocessed.smi:186-1

> <Gold.Version>
5.8.1

> <Gold.Id.Protein>
6NUR|6NUR_protein|mol2

> <Gold.PLP.Fitness>
47.8358

> <Gold.PLP.PLP>
-37.2018

> <Gold.PLP.part.hbond>
-4.7603

> <Gold.PLP.part.metal>
0.0000

> <Gold.PLP.part.buried>
-7.5041

> <Gold.PLP.part.nonpolar>
-25.4565

> <Gold.PLP.part.repulsive>
0.7043

> <Gold.PLP.ligand.clash>
0.0000

> <Gold.PLP.ligand.torsion>
0.9769

> <Gold.PLP.Chemscore.Hbond>
4.0000

> <Gold.PLP.Chemscore.CHOScore>
0.0000

> <Gold.PLP.Chemscore.Metal>
0.0000

> <Gold.Chemscore.Hbonds>
donor molecule, donor type, donor heavy atom, donor atom, acceptor molecule, acceptor atom, score
      L1  H     6    32       P1  8028  1.00
      P1  H  7989  7998       L1    11  1.00
      P1  H 10752 10763       L1    13  1.00

> <Gold.PLP.Chemscore.Internal.Correction>
0.5878

> <Gold.Rescore>
     Score         DG    S(hbond)    S(metal)    S(lipo)     H(rot)  DE(clash)    DE(int)     intcor
     11.80     -14.63       3.00        0.00      66.25       3.36       0.40       2.44       ----

> <Gold.Chemscore.Fitness>
11.7996

> <Gold.Chemscore.DG>
-14.6329

> <Gold.Chemscore.ZeroCoef>
-5.4800

> <Gold.Chemscore.Hbond>
2.9965

> <Gold.Chemscore.Metal>
0.0000

> <Gold.Chemscore.Lipo>
66.2498

> <Gold.Chemscore.Internal_Hbond>
0.0000

> <Gold.Chemscore.DEClash>
0.3977

> <Gold.Chemscore.DEInternal>
2.4356

> <Gold.Chemscore.Rot>
3.3620

> <Gold.Chemscore.Internal.Correction>
   9.000000E+99

> <Gold.Chemscore.Hbonds>
donor molecule, donor type, donor heavy atom, donor atom, acceptor molecule, acceptor atom, score
      L1  H     6    32       P1  8028  1.00
      P1  H  7989  7998       L1    11  0.42
      P1  H 10752 10763       L1    13  0.91

> <Gold.Chemscore.Hbond.Weighted>
-10.0084

> <Gold.Chemscore.Metal.Weighted>
-0.0000

> <Gold.Chemscore.Lipo.Weighted>
-7.7512

> <Gold.Chemscore.Internal_Hbond.Weighted>
0.0000

> <Gold.Chemscore.DEClash.Weighted>
0.3977

> <Gold.Chemscore.DEInternal.Weighted>
2.4356

> <Gold.Chemscore.Rot.Weighted>
8.6067

> <Gold.Chemscore.Internal.Correction.Weighted>
   9.000000E+99

> <Gold.Protein.RotatedTorsions>
[ 6907 6896 6895 6894 ] final -112.03 input  -60.11 | X-H torsion
[ 7974 7965 7964 7962 ] final -159.99 input  175.53 | X-H torsion
[ 8008 7997 7996 7995 ] final   67.61 input   59.86 | X-H torsion
[ 10167 10162 10161 10158 ] final   34.51 input  -65.29 | X-H torsion
[ 10718 10713 10712 10709 ] final  128.76 input   66.30 | X-H torsion
[ 10763 10752 10751 10750 ] final   47.41 input  -60.55 | X-H torsion
[ 11005 11000 10999 10996 ] final    8.86 input  -57.11 | X-H torsion

> <Gold.Protein.ActiveResidues>
 VAL166  LYS551  ARG553  GLY616  TRP617  ASP618  TYR619  PRO620  LYS621  CYS622 
 ASP623  PHE694  ASN695  SER759  ASP760  ASP761  ALA762  ILE779  LEU786  VAL792 
 PHE793  MET794  SER795  GLU796  ALA797  LYS798  CYS799  TRP800  GLU811  SER814 

> <Gold.Protein.RotatedAtoms>
  150.7730  133.9149  159.3380 H   0  0  0  0  0  0  0  0  0  0  0  0  # atno 6907 bound_to 6896
  151.7030  135.0924  160.0264 H   0  0  0  0  0  0  0  0  0  0  0  0  # atno 6908 bound_to 6896
  152.3756  133.6438  159.6156 H   0  0  0  0  0  0  0  0  0  0  0  0  # atno 6909 bound_to 6896
  144.7444  140.3606  143.6097 H   0  0  0  0  0  0  0  0  0  0  0  0  # atno 7974 bound_to 7965
  155.6956  140.3496  155.4911 H   0  0  0  0  0  0  0  0  0  0  0  0  # atno 8008 bound_to 7997
  155.9486  140.1115  157.1018 H   0  0  0  0  0  0  0  0  0  0  0  0  # atno 8009 bound_to 7997
  154.4117  140.1198  156.5008 H   0  0  0  0  0  0  0  0  0  0  0  0  # atno 8010 bound_to 7997
  140.4308  144.1327  150.6159 H   0  0  0  0  0  0  0  0  0  0  0  0  # atno 10167 bound_to 10162
  157.5215  131.1098  150.9146 H   0  0  0  0  0  0  0  0  0  0  0  0  # atno 10718 bound_to 10713
  152.9800  135.5977  154.3758 H   0  0  0  0  0  0  0  0  0  0  0  0  # atno 10763 bound_to 10752
  154.3428  135.2767  155.2415 H   0  0  0  0  0  0  0  0  0  0  0  0  # atno 10764 bound_to 10752
  154.4489  135.5994  153.6234 H   0  0  0  0  0  0  0  0  0  0  0  0  # atno 10765 bound_to 10752
  140.5322  134.0455  155.7877 H   0  0  0  0  0  0  0  0  0  0  0  0  # atno 11005 bound_to 11000
  145.7181  139.1702  143.2500 LP  0  0  0  0  0  0  0  0  0  0  0  0  # atno 17320 bound_to 7965
  146.1298  140.7201  142.9418 LP  0  0  0  0  0  0  0  0  0  0  0  0  # atno 17321 bound_to 7965
  140.4429  143.2519  151.9450 LP  0  0  0  0  0  0  0  0  0  0  0  0  # atno 17342 bound_to 10162
  139.4785  144.5637  151.8199 LP  0  0  0  0  0  0  0  0  0  0  0  0  # atno 17343 bound_to 10162
  156.9755  130.5507  149.5293 LP  0  0  0  0  0  0  0  0  0  0  0  0  # atno 17370 bound_to 10713
  156.0357  130.5444  150.8647 LP  0  0  0  0  0  0  0  0  0  0  0  0  # atno 17371 bound_to 10713
  141.1275  133.9358  157.2605 LP  0  0  0  0  0  0  0  0  0  0  0  0  # atno 17394 bound_to 11000
  139.9548  135.0168  156.9097 LP  0  0  0  0  0  0  0  0  0  0  0  0  # atno 17395 bound_to 11000

$$$$
