AV-unprocessed.smi:2355|AV-procd|sdf|9391|dock8
  -GOLD-   2272013 23D 1   1.00000     0.00000
 Structure written by MMmdl.
 49 50  0  0  0  0  0  0  0  0  2 V2000
  153.6876  140.8954  159.7116 C   0  0  0  0  0  0  0  0  0  0  0  0
  152.7391  141.9659  159.2141 C   0  0  0  0  0  0  0  0  0  0  0  0
  152.7354  143.2513  159.7884 C   0  0  0  0  0  0  0  0  0  0  0  0
  151.8290  144.2031  159.2819 C   0  0  0  0  0  0  0  0  0  0  0  0
  151.7686  145.6026  159.8562 C   0  0  0  0  0  0  0  0  0  0  0  0
  150.9670  143.9379  158.2769 N   0  0  0  0  0  0  0  0  0  0  0  0
  150.9614  142.7033  157.7161 C   0  0  0  0  0  0  0  0  0  0  0  0
  150.0948  142.3244  156.6562 N   0  0  0  0  0  0  0  0  0  0  0  0
  149.6970  141.0868  156.3122 C   0  0  0  0  0  0  0  0  0  0  0  0
  150.0344  140.0454  156.8763 O   0  0  0  0  0  0  0  0  0  0  0  0
  148.8658  141.1165  155.2597 N   0  0  0  0  0  0  0  0  0  0  0  0
  148.2538  139.9432  154.6368 C   0  0  2  0  0  0  0  0  0  0  0  0
  149.3695  138.9766  154.2022 C   0  0  0  0  0  0  0  0  0  0  0  0
  147.2908  140.3407  153.4740 C   0  0  1  0  0  0  0  0  0  0  0  0
  146.7825  139.0928  152.7077 C   0  0  0  0  0  0  0  0  0  0  0  0
  146.1898  141.2384  153.9595 N   0  3  0  0  0  0  0  0  0  0  0  0
  145.7611  140.9230  155.3502 C   0  0  0  0  0  0  0  0  0  0  0  0
  144.5846  141.8106  155.7872 C   0  0  0  0  0  0  0  0  0  0  0  0
  144.9533  143.1770  155.6778 O   0  0  0  0  0  0  0  0  0  0  0  0
  145.2584  143.5256  154.3362 C   0  0  0  0  0  0  0  0  0  0  0  0
  146.4575  142.6989  153.8413 C   0  0  0  0  0  0  0  0  0  0  0  0
  151.8401  141.6910  158.1637 C   0  0  0  0  0  0  0  0  0  0  0  0
  154.2724  141.2482  160.5617 H   0  0  0  0  0  0  0  0  0  0  0  0
  154.3781  140.6048  158.9197 H   0  0  0  0  0  0  0  0  0  0  0  0
  153.1308  140.0119  160.0248 H   0  0  0  0  0  0  0  0  0  0  0  0
  153.4084  143.5013  160.5956 H   0  0  0  0  0  0  0  0  0  0  0  0
  152.6186  145.7973  160.5110 H   0  0  0  0  0  0  0  0  0  0  0  0
  150.8538  145.7326  160.4353 H   0  0  0  0  0  0  0  0  0  0  0  0
  151.7793  146.3451  159.0577 H   0  0  0  0  0  0  0  0  0  0  0  0
  149.7370  143.0846  156.0972 H   0  0  0  0  0  0  0  0  0  0  0  0
  148.6425  142.0146  154.8561 H   0  0  0  0  0  0  0  0  0  0  0  0
  147.6937  139.4416  155.4249 H   0  0  0  0  0  0  0  0  0  0  0  0
  148.9612  138.0570  153.7825 H   0  0  0  0  0  0  0  0  0  0  0  0
  149.9908  138.6937  155.0525 H   0  0  0  0  0  0  0  0  0  0  0  0
  150.0255  139.4230  153.4546 H   0  0  0  0  0  0  0  0  0  0  0  0
  147.8620  140.9200  152.7468 H   0  0  0  0  0  0  0  0  0  0  0  0
  147.6012  138.4398  152.4065 H   0  0  0  0  0  0  0  0  0  0  0  0
  146.2710  139.3652  151.7845 H   0  0  0  0  0  0  0  0  0  0  0  0
  146.0951  138.4986  153.3100 H   0  0  0  0  0  0  0  0  0  0  0  0
  145.4521  139.8841  155.4422 H   0  0  0  0  0  0  0  0  0  0  0  0
  146.6012  141.0648  156.0320 H   0  0  0  0  0  0  0  0  0  0  0  0
  143.6964  141.6074  155.1868 H   0  0  0  0  0  0  0  0  0  0  0  0
  144.3219  141.6000  156.8240 H   0  0  0  0  0  0  0  0  0  0  0  0
  144.3867  143.3683  153.6987 H   0  0  0  0  0  0  0  0  0  0  0  0
  145.4941  144.5892  154.2938 H   0  0  0  0  0  0  0  0  0  0  0  0
  147.3508  142.9562  154.4128 H   0  0  0  0  0  0  0  0  0  0  0  0
  146.6389  142.9791  152.8042 H   0  0  0  0  0  0  0  0  0  0  0  0
  151.8262  140.7111  157.7083 H   0  0  0  0  0  0  0  0  0  0  0  0
  145.3968  141.0570  153.3610 H   0  0  0  0  0  0  0  0  0  0  0  0
  1  2  1  0  0  0  0
  1 23  1  0  0  0  0
  1 24  1  0  0  0  0
  1 25  1  0  0  0  0
  2 22  1  0  0  0  0
  2  3  2  0  0  0  0
  3  4  1  0  0  0  0
  3 26  1  0  0  0  0
  4  5  1  0  0  0  0
  4  6  2  0  0  0  0
  5 27  1  0  0  0  0
  5 28  1  0  0  0  0
  5 29  1  0  0  0  0
  6  7  1  0  0  0  0
  7  8  1  0  0  0  0
  7 22  2  0  0  0  0
  8  9  1  0  0  0  0
  8 30  1  0  0  0  0
  9 10  2  0  0  0  0
  9 11  1  0  0  0  0
 11 12  1  0  0  0  0
 11 31  1  0  0  0  0
 12 13  1  0  0  0  0
 12 14  1  0  0  0  0
 12 32  1  0  0  0  0
 13 33  1  0  0  0  0
 13 34  1  0  0  0  0
 13 35  1  0  0  0  0
 14 15  1  0  0  0  0
 14 16  1  0  0  0  0
 14 36  1  0  0  0  0
 15 37  1  0  0  0  0
 15 38  1  0  0  0  0
 15 39  1  0  0  0  0
 16 21  1  0  0  0  0
 16 17  1  0  0  0  0
 16 49  1  0  0  0  0
 17 18  1  0  0  0  0
 17 40  1  0  0  0  0
 17 41  1  0  0  0  0
 18 19  1  0  0  0  0
 18 42  1  0  0  0  0
 18 43  1  0  0  0  0
 19 20  1  0  0  0  0
 20 21  1  0  0  0  0
 20 44  1  0  0  0  0
 20 45  1  0  0  0  0
 21 46  1  0  0  0  0
 21 47  1  0  0  0  0
 22 48  1  0  0  0  0
M  CHG  1  16   1
M  END
> <s_m_source_file>
AV-unprocessed.smi

> <i_m_source_file_index>
2355

> <i_lp_mmshare_version>
43012

> <i_f3d_flags>
0

> <s_epik_input>
W0NIM11jMVtjSF1jKFtDSDNdKW5jKFtjSF0xKVtOSF1DKD1PKVtOSF1bQ0BIXShbQ0gzXSlbQ0BIXShbQ0gzXSlOMltDSDJdW0NIMl1PW0NIMl1bQ0gyXTI=

> <s_epik_cmdline>
J2VwaWtfcHl0aG9uJywgJy1waCcsICc3LjAnLCAnLXRuJywgJzgnLCAnLW1hJywgJzIwMCcsICctbWV0YWxfYmluZGluZycsICctaW1hZScsICc8aW5maWxlLm1hZT4nLCAnLW9tYWUnLCAnPG91dGZpbGUubWFlPic=

> <r_epik_Ionization_Penalty>
0.602711

> <r_epik_Ionization_Penalty_Charging>
0.602531

> <r_epik_Ionization_Penalty_Neutral>
0.000180055

> <r_epik_State_Penalty>
0.617039

> <r_epik_Charging_Adjusted_Penalty>
1.21957

> <i_epik_Tot_Q>
1

> <i_epik_Tot_abs_Q>
1

> <r_epik_Metal_State_Penalty>
0.617075

> <b_epik_Metal_Only>
0

> <s_lp_Force_Field>
OPLS_2005

> <r_lp_Energy>
24.3328

> <b_lp_Chiralities_Consistent>
1

> <s_lp_Variant>
AV-unprocessed.smi:2355-7

> <Gold.Version>
5.8.1

> <Gold.Id.Protein>
6NUR|6NUR_protein|mol2

> <Gold.PLP.Fitness>
51.6997

> <Gold.PLP.PLP>
-44.6296

> <Gold.PLP.part.hbond>
-2.0000

> <Gold.PLP.part.metal>
0.0000

> <Gold.PLP.part.buried>
-6.9636

> <Gold.PLP.part.nonpolar>
-37.0909

> <Gold.PLP.part.repulsive>
0.4737

> <Gold.PLP.ligand.clash>
0.0000

> <Gold.PLP.ligand.torsion>
1.0218

> <Gold.PLP.Chemscore.Hbond>
3.0000

> <Gold.PLP.Chemscore.CHOScore>
0.0000

> <Gold.PLP.Chemscore.Metal>
0.0000

> <Gold.Chemscore.Hbonds>
donor molecule, donor type, donor heavy atom, donor atom, acceptor molecule, acceptor atom, score
      L1  H     8    30       P1  8028  1.00
      L1  H    16    49       P1 10175  2.00

> <Gold.PLP.Chemscore.Internal.Correction>
0.1136

> <Gold.Rescore>
     Score         DG    S(hbond)    S(metal)    S(lipo)     H(rot)  DE(clash)    DE(int)     intcor
     16.60     -20.37       1.90        0.00     104.59       1.45       0.00       3.77       ----

> <Gold.Chemscore.Fitness>
16.6027

> <Gold.Chemscore.DG>
-20.3735

> <Gold.Chemscore.ZeroCoef>
-5.4800

> <Gold.Chemscore.Hbond>
1.9037

> <Gold.Chemscore.Metal>
0.0000

> <Gold.Chemscore.Lipo>
104.5926

> <Gold.Chemscore.Internal_Hbond>
0.0000

> <Gold.Chemscore.DEClash>
0.0000

> <Gold.Chemscore.DEInternal>
3.7709

> <Gold.Chemscore.Rot>
1.4462

> <Gold.Chemscore.Internal.Correction>
   9.000000E+99

> <Gold.Chemscore.Hbonds>
donor molecule, donor type, donor heavy atom, donor atom, acceptor molecule, acceptor atom, score
      L1  H     8    30       P1  8028  0.99
      L1  H    16    49       P1 10175  0.48

> <Gold.Chemscore.Hbond.Weighted>
-6.3585

> <Gold.Chemscore.Metal.Weighted>
-0.0000

> <Gold.Chemscore.Lipo.Weighted>
-12.2373

> <Gold.Chemscore.Internal_Hbond.Weighted>
0.0000

> <Gold.Chemscore.DEClash.Weighted>
0.0000

> <Gold.Chemscore.DEInternal.Weighted>
3.7709

> <Gold.Chemscore.Rot.Weighted>
3.7023

> <Gold.Chemscore.Internal.Correction.Weighted>
   9.000000E+99

> <Gold.Protein.RotatedTorsions>
[ 6907 6896 6895 6894 ] final  -57.24 input  -60.11 | X-H torsion
[ 7974 7965 7964 7962 ] final   89.69 input  175.53 | X-H torsion
[ 8008 7997 7996 7995 ] final  119.41 input   59.86 | X-H torsion
[ 10167 10162 10161 10158 ] final  131.70 input  -65.29 | X-H torsion
[ 10718 10713 10712 10709 ] final    8.78 input   66.30 | X-H torsion
[ 10763 10752 10751 10750 ] final -155.45 input  -60.55 | X-H torsion
[ 11005 11000 10999 10996 ] final   80.12 input  -57.11 | X-H torsion

> <Gold.Protein.ActiveResidues>
 VAL166  LYS551  ARG553  GLY616  TRP617  ASP618  TYR619  PRO620  LYS621  CYS622 
 ASP623  PHE694  ASN695  SER759  ASP760  ASP761  ALA762  ILE779  LEU786  VAL792 
 PHE793  MET794  SER795  GLU796  ALA797  LYS798  CYS799  TRP800  GLU811  SER814 

> <Gold.Protein.RotatedAtoms>
  150.8102  134.7252  159.6680 H   0  0  0  0  0  0  0  0  0  0  0  0  # atno 6907 bound_to 6896
  152.4222  134.5931  159.9989 H   0  0  0  0  0  0  0  0  0  0  0  0  # atno 6908 bound_to 6896
  151.6143  133.3307  159.3110 H   0  0  0  0  0  0  0  0  0  0  0  0  # atno 6909 bound_to 6896
  145.5290  139.2282  143.2629 H   0  0  0  0  0  0  0  0  0  0  0  0  # atno 7974 bound_to 7965
  156.2594  140.2853  156.0987 H   0  0  0  0  0  0  0  0  0  0  0  0  # atno 8008 bound_to 7997
  155.1384  140.0395  157.2810 H   0  0  0  0  0  0  0  0  0  0  0  0  # atno 8009 bound_to 7997
  154.6548  140.2553  155.7180 H   0  0  0  0  0  0  0  0  0  0  0  0  # atno 8010 bound_to 7997
  139.5372  144.6695  151.4745 H   0  0  0  0  0  0  0  0  0  0  0  0  # atno 10167 bound_to 10162
  156.9566  130.5917  149.5659 H   0  0  0  0  0  0  0  0  0  0  0  0  # atno 10718 bound_to 10713
  154.7786  135.3167  154.8039 H   0  0  0  0  0  0  0  0  0  0  0  0  # atno 10763 bound_to 10752
  153.8756  135.6840  153.4775 H   0  0  0  0  0  0  0  0  0  0  0  0  # atno 10764 bound_to 10752
  153.1416  135.4737  154.9441 H   0  0  0  0  0  0  0  0  0  0  0  0  # atno 10765 bound_to 10752
  139.9146  134.7896  156.1868 H   0  0  0  0  0  0  0  0  0  0  0  0  # atno 11005 bound_to 11000
  146.2056  140.6106  142.9082 LP  0  0  0  0  0  0  0  0  0  0  0  0  # atno 17320 bound_to 7965
  144.7636  140.5478  143.6719 LP  0  0  0  0  0  0  0  0  0  0  0  0  # atno 17321 bound_to 7965
  140.6585  143.8549  150.6861 LP  0  0  0  0  0  0  0  0  0  0  0  0  # atno 17342 bound_to 10162
  140.1936  143.4016  152.1845 LP  0  0  0  0  0  0  0  0  0  0  0  0  # atno 17343 bound_to 10162
  156.0340  130.5429  150.8606 LP  0  0  0  0  0  0  0  0  0  0  0  0  # atno 17370 bound_to 10713
  157.5686  131.0946  150.9452 LP  0  0  0  0  0  0  0  0  0  0  0  0  # atno 17371 bound_to 10713
  141.0608  133.6842  156.1949 LP  0  0  0  0  0  0  0  0  0  0  0  0  # atno 17394 bound_to 11000
  140.6664  134.4914  157.5585 LP  0  0  0  0  0  0  0  0  0  0  0  0  # atno 17395 bound_to 11000

$$$$
