AV-unprocessed.smi:703|AV-procd|sdf|3426|dock7
  -GOLD-   22720 0413D 1   1.00000     0.00000
 Structure written by MMmdl.
 38 39  0  0  0  0  0  0  0  0  2 V2000
  146.9963  139.1594  152.7920 C   0  0  0  0  0  0  0  0  0  0  0  0
  147.3075  138.4558  154.1198 C   0  0  0  0  0  0  0  0  0  0  0  0
  148.6337  137.7944  154.1073 N   0  3  1  0  0  0  0  0  0  0  0  0
  149.7895  138.7149  154.1914 C   0  0  0  0  0  0  0  0  0  0  0  0
  150.9063  137.9010  154.8430 C   0  0  1  0  0  0  0  0  0  0  0  0
  152.0785  138.7272  155.3986 C   0  0  0  0  0  0  0  0  0  0  0  0
  150.1497  137.0244  155.8480 C   0  0  1  0  0  0  0  0  0  0  0  0
  149.9386  137.7284  157.1187 N   0  0  0  0  0  0  0  0  0  0  0  0
  149.7679  136.7865  158.5531 S   0  0  0  0  0  0  0  0  0  0  0  0
  149.8210  135.3683  158.1660 O   0  0  0  0  0  0  0  0  0  0  0  0
  150.7234  137.3138  159.5390 O   0  0  0  0  0  0  0  0  0  0  0  0
  148.0536  137.1851  159.0961 C   0  0  0  0  0  0  0  0  0  0  0  0
  147.7648  136.4870  160.3938 C   0  0  0  0  0  0  0  0  0  0  0  0
  147.8248  135.0953  160.6815 C   0  0  0  0  0  0  0  0  0  0  0  0
  147.4711  135.0268  161.9983 C   0  0  0  0  0  0  0  0  0  0  0  0
  147.2088  136.2660  162.4848 O   0  0  0  0  0  0  0  0  0  0  0  0
  147.3980  137.1916  161.4524 N   0  0  0  0  0  0  0  0  0  0  0  0
  148.8034  136.7560  155.1533 C   0  0  0  0  0  0  0  0  0  0  0  0
  145.9935  139.5870  152.8092 H   0  0  0  0  0  0  0  0  0  0  0  0
  147.0441  138.4614  151.9557 H   0  0  0  0  0  0  0  0  0  0  0  0
  147.6942  139.9728  152.5927 H   0  0  0  0  0  0  0  0  0  0  0  0
  147.2520  139.1633  154.9485 H   0  0  0  0  0  0  0  0  0  0  0  0
  146.5425  137.6996  154.3008 H   0  0  0  0  0  0  0  0  0  0  0  0
  150.0710  139.0942  153.2086 H   0  0  0  0  0  0  0  0  0  0  0  0
  149.5382  139.5693  154.8221 H   0  0  0  0  0  0  0  0  0  0  0  0
  151.3112  137.2346  154.0793 H   0  0  0  0  0  0  0  0  0  0  0  0
  151.7463  139.4740  156.1200 H   0  0  0  0  0  0  0  0  0  0  0  0
  152.5933  139.2562  154.5962 H   0  0  0  0  0  0  0  0  0  0  0  0
  152.8084  138.0854  155.8928 H   0  0  0  0  0  0  0  0  0  0  0  0
  150.6946  136.0997  156.0439 H   0  0  0  0  0  0  0  0  0  0  0  0
  150.6386  138.4590  157.2488 H   0  0  0  0  0  0  0  0  0  0  0  0
  147.9656  138.2673  159.1968 H   0  0  0  0  0  0  0  0  0  0  0  0
  147.3611  136.8650  158.3180 H   0  0  0  0  0  0  0  0  0  0  0  0
  148.0904  134.2781  160.0275 H   0  0  0  0  0  0  0  0  0  0  0  0
  147.3641  134.2100  162.6967 H   0  0  0  0  0  0  0  0  0  0  0  0
  147.9718  136.7420  155.8595 H   0  0  0  0  0  0  0  0  0  0  0  0
  148.8189  135.7832  154.6609 H   0  0  0  0  0  0  0  0  0  0  0  0
  148.7156  137.3093  153.2250 H   0  0  0  0  0  0  0  0  0  0  0  0
  1  2  1  0  0  0  0
  1 19  1  0  0  0  0
  1 20  1  0  0  0  0
  1 21  1  0  0  0  0
  2  3  1  0  0  0  0
  2 22  1  0  0  0  0
  2 23  1  0  0  0  0
  3 18  1  0  0  0  0
  3  4  1  0  0  0  0
  3 38  1  0  0  0  0
  4  5  1  0  0  0  0
  4 24  1  0  0  0  0
  4 25  1  0  0  0  0
  5  6  1  0  0  0  0
  5  7  1  0  0  0  0
  5 26  1  0  0  0  0
  6 27  1  0  0  0  0
  6 28  1  0  0  0  0
  6 29  1  0  0  0  0
  7  8  1  0  0  0  0
  7 18  1  0  0  0  0
  7 30  1  0  0  0  0
  8  9  1  0  0  0  0
  8 31  1  0  0  0  0
  9 10  2  0  0  0  0
  9 11  2  0  0  0  0
  9 12  1  0  0  0  0
 12 13  1  0  0  0  0
 12 32  1  0  0  0  0
 12 33  1  0  0  0  0
 13 17  2  0  0  0  0
 13 14  1  0  0  0  0
 14 15  2  0  0  0  0
 14 34  1  0  0  0  0
 15 16  1  0  0  0  0
 15 35  1  0  0  0  0
 16 17  1  0  0  0  0
 18 36  1  0  0  0  0
 18 37  1  0  0  0  0
M  CHG  1   3   1
M  END
> <s_m_source_file>
AV-unprocessed.smi

> <i_m_source_file_index>
703

> <i_lp_mmshare_version>
43012

> <i_f3d_flags>
0

> <s_epik_input>
W0NIM11bQ0gyXU4xW0NIMl1bQ0BASF0oW0NIM10pW0NASF0oW0NIMl0xKVtOSF1TKD1PKSg9TylbQ0gyXWMyW2NIXVtjSF1vbjI=

> <s_epik_cmdline>
J2VwaWtfcHl0aG9uJywgJy1waCcsICc3LjAnLCAnLXRuJywgJzgnLCAnLW1hJywgJzIwMCcsICctbWV0YWxfYmluZGluZycsICctaW1hZScsICc8aW5maWxlLm1hZT4nLCAnLW9tYWUnLCAnPG91dGZpbGUubWFlPic=

> <r_epik_Ionization_Penalty>
0.00324529

> <r_epik_Ionization_Penalty_Charging>
0.0019384

> <r_epik_Ionization_Penalty_Neutral>
0.00130689

> <r_epik_State_Penalty>
0.00218682

> <r_epik_Charging_Adjusted_Penalty>
0.00412522

> <i_epik_Tot_Q>
1

> <i_epik_Tot_abs_Q>
1

> <r_epik_Metal_State_Penalty>
0.310831

> <b_epik_Metal_Only>
0

> <s_lp_Force_Field>
OPLS_2005

> <r_lp_Energy>
19.6136

> <b_lp_Chiralities_Consistent>
1

> <s_lp_Variant>
AV-unprocessed.smi:703-1

> <Gold.Version>
5.8.1

> <Gold.Id.Protein>
6NUR|6NUR_protein|mol2

> <Gold.PLP.Fitness>
42.2014

> <Gold.PLP.PLP>
-28.7832

> <Gold.PLP.part.hbond>
-4.5188

> <Gold.PLP.part.metal>
0.0000

> <Gold.PLP.part.buried>
-4.4116

> <Gold.PLP.part.nonpolar>
-19.8627

> <Gold.PLP.part.repulsive>
0.0000

> <Gold.PLP.ligand.clash>
0.0000

> <Gold.PLP.ligand.torsion>
0.5834

> <Gold.PLP.Chemscore.Hbond>
4.8080

> <Gold.PLP.Chemscore.CHOScore>
0.0000

> <Gold.PLP.Chemscore.Metal>
0.0000

> <Gold.Chemscore.Hbonds>
donor molecule, donor type, donor heavy atom, donor atom, acceptor molecule, acceptor atom, score
      L1  H     3    38       P1  7948  2.00
      P1  H  6896  6908       L1    10  0.99
      P1  H  6931  6943       L1    17  0.91
      P1  H  6934  6947       L1    17  0.91

> <Gold.PLP.Chemscore.Internal.Correction>
0.1610

> <Gold.Rescore>
     Score         DG    S(hbond)    S(metal)    S(lipo)     H(rot)  DE(clash)    DE(int)     intcor
     17.38     -18.28       3.23        0.00      59.73       1.94       0.00       0.89       ----

> <Gold.Chemscore.Fitness>
17.3824

> <Gold.Chemscore.DG>
-18.2797

> <Gold.Chemscore.ZeroCoef>
-5.4800

> <Gold.Chemscore.Hbond>
3.2269

> <Gold.Chemscore.Metal>
0.0000

> <Gold.Chemscore.Lipo>
59.7290

> <Gold.Chemscore.Internal_Hbond>
0.0000

> <Gold.Chemscore.DEClash>
0.0048

> <Gold.Chemscore.DEInternal>
0.8925

> <Gold.Chemscore.Rot>
1.9400

> <Gold.Chemscore.Internal.Correction>
   9.000000E+99

> <Gold.Chemscore.Hbonds>
donor molecule, donor type, donor heavy atom, donor atom, acceptor molecule, acceptor atom, score
      L1  H     3    38       P1  7948  1.00
      P1  H  6896  6908       L1    10  0.70
      P1  H  6931  6943       L1    17  0.23
      P1  H  6934  6947       L1    17  0.63

> <Gold.Chemscore.Hbond.Weighted>
-10.7779

> <Gold.Chemscore.Metal.Weighted>
-0.0000

> <Gold.Chemscore.Lipo.Weighted>
-6.9883

> <Gold.Chemscore.Internal_Hbond.Weighted>
0.0000

> <Gold.Chemscore.DEClash.Weighted>
0.0048

> <Gold.Chemscore.DEInternal.Weighted>
0.8925

> <Gold.Chemscore.Rot.Weighted>
4.9665

> <Gold.Chemscore.Internal.Correction.Weighted>
   9.000000E+99

> <Gold.Protein.RotatedTorsions>
[ 6907 6896 6895 6894 ] final  158.08 input  -60.11 | X-H torsion
[ 7974 7965 7964 7962 ] final  -91.62 input  175.53 | X-H torsion
[ 8008 7997 7996 7995 ] final   60.64 input   59.86 | X-H torsion
[ 10167 10162 10161 10158 ] final   60.94 input  -65.29 | X-H torsion
[ 10718 10713 10712 10709 ] final -106.92 input   66.30 | X-H torsion
[ 10763 10752 10751 10750 ] final  -93.50 input  -60.55 | X-H torsion
[ 11005 11000 10999 10996 ] final  -49.95 input  -57.11 | X-H torsion

> <Gold.Protein.ActiveResidues>
 VAL166  LYS551  ARG553  GLY616  TRP617  ASP618  TYR619  PRO620  LYS621  CYS622 
 ASP623  PHE694  ASN695  SER759  ASP760  ASP761  ALA762  ILE779  LEU786  VAL792 
 PHE793  MET794  SER795  GLU796  ALA797  LYS798  CYS799  TRP800  GLU811  SER814 

> <Gold.Protein.RotatedAtoms>
  152.0056  133.3842  159.4199 H   0  0  0  0  0  0  0  0  0  0  0  0  # atno 6907 bound_to 6896
  150.6905  134.3786  159.5033 H   0  0  0  0  0  0  0  0  0  0  0  0  # atno 6908 bound_to 6896
  152.1539  134.8966  160.0597 H   0  0  0  0  0  0  0  0  0  0  0  0  # atno 6909 bound_to 6896
  145.4107  140.9545  143.2235 H   0  0  0  0  0  0  0  0  0  0  0  0  # atno 7974 bound_to 7965
  155.5856  140.3492  155.4552 H   0  0  0  0  0  0  0  0  0  0  0  0  # atno 8008 bound_to 7997
  156.0340  140.1281  157.0252 H   0  0  0  0  0  0  0  0  0  0  0  0  # atno 8009 bound_to 7997
  154.4364  140.1037  156.6126 H   0  0  0  0  0  0  0  0  0  0  0  0  # atno 8010 bound_to 7997
  140.1602  144.4378  150.6713 H   0  0  0  0  0  0  0  0  0  0  0  0  # atno 10167 bound_to 10162
  156.0412  130.5637  150.7748 H   0  0  0  0  0  0  0  0  0  0  0  0  # atno 10718 bound_to 10713
  154.6965  135.5192  153.8466 H   0  0  0  0  0  0  0  0  0  0  0  0  # atno 10763 bound_to 10752
  153.0671  135.6588  154.0339 H   0  0  0  0  0  0  0  0  0  0  0  0  # atno 10764 bound_to 10752
  154.0205  135.2994  155.3361 H   0  0  0  0  0  0  0  0  0  0  0  0  # atno 10765 bound_to 10752
  141.0788  133.6658  156.3660 H   0  0  0  0  0  0  0  0  0  0  0  0  # atno 11005 bound_to 11000
  144.8311  139.5628  143.6943 LP  0  0  0  0  0  0  0  0  0  0  0  0  # atno 17320 bound_to 7965
  146.2706  139.6626  142.9299 LP  0  0  0  0  0  0  0  0  0  0  0  0  # atno 17321 bound_to 7965
  140.6648  143.2264  151.5770 LP  0  0  0  0  0  0  0  0  0  0  0  0  # atno 17342 bound_to 10162
  139.5385  144.2714  152.1301 LP  0  0  0  0  0  0  0  0  0  0  0  0  # atno 17343 bound_to 10162
  157.5232  131.0932  151.0051 LP  0  0  0  0  0  0  0  0  0  0  0  0  # atno 17370 bound_to 10713
  157.0376  130.5736  149.5351 LP  0  0  0  0  0  0  0  0  0  0  0  0  # atno 17371 bound_to 10713
  140.5513  134.6024  157.5408 LP  0  0  0  0  0  0  0  0  0  0  0  0  # atno 17394 bound_to 11000
  139.9601  134.7467  156.0255 LP  0  0  0  0  0  0  0  0  0  0  0  0  # atno 17395 bound_to 11000

$$$$
