AV-unprocessed.smi:3253|AV-procd|sdf|12449|dock1
  -GOLD-   2272018343D 1   1.00000     0.00000
 Structure written by MMmdl.
 36 37  0  0  0  0  0  0  0  0  1 V2000
  146.7053  137.5026  154.4102 C   0  0  0  0  0  0  0  0  0  0  0  0
  146.7529  138.7369  153.4900 C   0  0  2  0  0  0  0  0  0  0  0  0
  146.5006  138.3951  152.0082 C   0  0  0  0  0  0  0  0  0  0  0  0
  145.5461  137.3164  151.8338 N   0  0  0  0  0  0  0  0  0  0  0  0
  145.7516  136.1092  151.1782 C   0  0  0  0  0  0  0  0  0  0  0  0
  144.5691  135.4095  151.2640 C   0  0  0  0  0  0  0  0  0  0  0  0
  143.6268  136.1645  151.9584 N   0  0  0  0  0  0  0  0  0  0  0  0
  144.2767  137.2806  152.2615 C   0  0  0  0  0  0  0  0  0  0  0  0
  148.0439  139.4087  153.6109 N   0  0  0  0  0  0  0  0  0  0  0  0
  148.6838  139.6633  154.7631 C   0  0  0  0  0  0  0  0  0  0  0  0
  148.2420  139.3422  155.8668 O   0  0  0  0  0  0  0  0  0  0  0  0
  150.0311  140.3941  154.6517 C   0  0  2  0  0  0  0  0  0  0  0  0
  151.1983  139.4972  155.1125 C   0  0  0  0  0  0  0  0  0  0  0  0
  151.6956  140.1641  156.3844 C   0  0  0  0  0  0  0  0  0  0  0  0
  152.5707  139.6751  157.0970 O   0  0  0  0  0  0  0  0  0  0  0  0
  151.0531  141.3143  156.6037 N   0  0  0  0  0  0  0  0  0  0  0  0
  151.2664  142.2062  157.7354 C   0  0  0  0  0  0  0  0  0  0  0  0
  150.1010  141.6442  155.5568 C   0  0  0  0  0  0  0  0  0  0  0  0
  145.7263  137.0239  154.3863 H   0  0  0  0  0  0  0  0  0  0  0  0
  146.9027  137.7746  155.4476 H   0  0  0  0  0  0  0  0  0  0  0  0
  147.4464  136.7597  154.1146 H   0  0  0  0  0  0  0  0  0  0  0  0
  145.9717  139.4298  153.8090 H   0  0  0  0  0  0  0  0  0  0  0  0
  146.1223  139.2700  151.4775 H   0  0  0  0  0  0  0  0  0  0  0  0
  147.4344  138.1127  151.5195 H   0  0  0  0  0  0  0  0  0  0  0  0
  146.6959  135.8531  150.7208 H   0  0  0  0  0  0  0  0  0  0  0  0
  144.3252  134.4294  150.8813 H   0  0  0  0  0  0  0  0  0  0  0  0
  143.8192  138.0911  152.8098 H   0  0  0  0  0  0  0  0  0  0  0  0
  148.4830  139.7068  152.7519 H   0  0  0  0  0  0  0  0  0  0  0  0
  150.1876  140.6928  153.6135 H   0  0  0  0  0  0  0  0  0  0  0  0
  150.9071  138.4642  155.3123 H   0  0  0  0  0  0  0  0  0  0  0  0
  151.9989  139.4832  154.3724 H   0  0  0  0  0  0  0  0  0  0  0  0
  152.3098  142.5191  157.7865 H   0  0  0  0  0  0  0  0  0  0  0  0
  151.0111  141.7041  158.6692 H   0  0  0  0  0  0  0  0  0  0  0  0
  150.6494  143.1015  157.6528 H   0  0  0  0  0  0  0  0  0  0  0  0
  150.4645  142.5074  154.9977 H   0  0  0  0  0  0  0  0  0  0  0  0
  149.1359  141.9152  155.9891 H   0  0  0  0  0  0  0  0  0  0  0  0
  1  2  1  0  0  0  0
  1 19  1  0  0  0  0
  1 20  1  0  0  0  0
  1 21  1  0  0  0  0
  2  3  1  0  0  0  0
  2  9  1  0  0  0  0
  2 22  1  0  0  0  0
  3  4  1  0  0  0  0
  3 23  1  0  0  0  0
  3 24  1  0  0  0  0
  4  8  1  0  0  0  0
  4  5  1  0  0  0  0
  5  6  2  0  0  0  0
  5 25  1  0  0  0  0
  6  7  1  0  0  0  0
  6 26  1  0  0  0  0
  7  8  2  0  0  0  0
  8 27  1  0  0  0  0
  9 10  1  0  0  0  0
  9 28  1  0  0  0  0
 10 11  2  0  0  0  0
 10 12  1  0  0  0  0
 12 18  1  0  0  0  0
 12 13  1  0  0  0  0
 12 29  1  0  0  0  0
 13 14  1  0  0  0  0
 13 30  1  0  0  0  0
 13 31  1  0  0  0  0
 14 15  2  0  0  0  0
 14 16  1  0  0  0  0
 16 17  1  0  0  0  0
 16 18  1  0  0  0  0
 17 32  1  0  0  0  0
 17 33  1  0  0  0  0
 17 34  1  0  0  0  0
 18 35  1  0  0  0  0
 18 36  1  0  0  0  0
M  END
> <s_m_source_file>
AV-unprocessed.smi

> <i_m_source_file_index>
3253

> <i_lp_mmshare_version>
43012

> <i_f3d_flags>
0

> <s_epik_input>
W2NIXTFuW2NIXVtjSF1uMVtDSDJdW0NAQEhdKFtDSDNdKVtOSF1DKD1PKVtDQEBIXTJbQ0gyXUMoPU8pTihbQ0gzXSlbQ0gyXTI=

> <s_epik_cmdline>
J2VwaWtfcHl0aG9uJywgJy1waCcsICc3LjAnLCAnLXRuJywgJzgnLCAnLW1hJywgJzIwMCcsICctbWV0YWxfYmluZGluZycsICctaW1hZScsICc8aW5maWxlLm1hZT4nLCAnLW9tYWUnLCAnPG91dGZpbGUubWFlPic=

> <r_lp_tautomer_probability>
1

> <r_epik_Ionization_Penalty>
0.628884

> <r_epik_Ionization_Penalty_Charging>
0.628884

> <r_epik_Ionization_Penalty_Neutral>
2.35084e-08

> <r_epik_State_Penalty>
0.64556

> <r_epik_Charging_Adjusted_Penalty>
1.27444

> <i_epik_Tot_Q>
0

> <i_epik_Tot_abs_Q>
0

> <r_epik_Metal_State_Penalty>
0.308736

> <b_epik_Metal_Only>
0

> <s_lp_Force_Field>
OPLS_2005

> <r_lp_Energy>
13.4006

> <b_lp_Chiralities_Consistent>
1

> <s_lp_Variant>
AV-unprocessed.smi:3253-5

> <Gold.Version>
5.8.1

> <Gold.Id.Protein>
6NUR|6NUR_protein|mol2

> <Gold.PLP.Fitness>
40.0528

> <Gold.PLP.PLP>
-29.4995

> <Gold.PLP.part.hbond>
-2.0000

> <Gold.PLP.part.metal>
0.0000

> <Gold.PLP.part.buried>
3.7899

> <Gold.PLP.part.nonpolar>
-31.3929

> <Gold.PLP.part.repulsive>
0.2275

> <Gold.PLP.ligand.clash>
0.0000

> <Gold.PLP.ligand.torsion>
0.5032

> <Gold.PLP.Chemscore.Hbond>
2.0000

> <Gold.PLP.Chemscore.CHOScore>
1.8354

> <Gold.PLP.Chemscore.Metal>
0.0000

> <Gold.Chemscore.Hbonds>
donor molecule, donor type, donor heavy atom, donor atom, acceptor molecule, acceptor atom, score
      L1  H     9    28       P1  7957  1.00
      P1  H  7997  8010       L1    15  0.94
      L1  C     5    25       P1  7948  0.89
      L1  C     8    27       P1 10175  1.00

> <Gold.PLP.Chemscore.Internal.Correction>
0.0533

> <Gold.Rescore>
     Score         DG    S(hbond)    S(metal)    S(lipo)     H(rot)  DE(clash)    DE(int)     intcor
     11.09     -13.62       1.93        0.00      57.40       1.97       0.81       1.72       ----

> <Gold.Chemscore.Fitness>
11.0910

> <Gold.Chemscore.DG>
-13.6192

> <Gold.Chemscore.ZeroCoef>
-5.4800

> <Gold.Chemscore.Hbond>
1.9337

> <Gold.Chemscore.Metal>
0.0000

> <Gold.Chemscore.Lipo>
57.4004

> <Gold.Chemscore.Internal_Hbond>
0.0000

> <Gold.Chemscore.DEClash>
0.8061

> <Gold.Chemscore.DEInternal>
1.7222

> <Gold.Chemscore.Rot>
1.9669

> <Gold.Chemscore.Internal.Correction>
   9.000000E+99

> <Gold.Chemscore.Hbonds>
donor molecule, donor type, donor heavy atom, donor atom, acceptor molecule, acceptor atom, score
      L1  H     9    28       P1  7957  0.98
      P1  H  7997  8010       L1    15  0.57

> <Gold.Chemscore.Hbond.Weighted>
-6.4586

> <Gold.Chemscore.Metal.Weighted>
-0.0000

> <Gold.Chemscore.Lipo.Weighted>
-6.7158

> <Gold.Chemscore.Internal_Hbond.Weighted>
0.0000

> <Gold.Chemscore.DEClash.Weighted>
0.8061

> <Gold.Chemscore.DEInternal.Weighted>
1.7222

> <Gold.Chemscore.Rot.Weighted>
5.0352

> <Gold.Chemscore.Internal.Correction.Weighted>
   9.000000E+99

> <Gold.Protein.RotatedTorsions>
[ 6907 6896 6895 6894 ] final  129.13 input  -60.11 | X-H torsion
[ 7974 7965 7964 7962 ] final -130.47 input  175.53 | X-H torsion
[ 8008 7997 7996 7995 ] final   82.08 input   59.86 | X-H torsion
[ 10167 10162 10161 10158 ] final -129.08 input  -65.29 | X-H torsion
[ 10718 10713 10712 10709 ] final  -21.70 input   66.30 | X-H torsion
[ 10763 10752 10751 10750 ] final  -33.74 input  -60.55 | X-H torsion
[ 11005 11000 10999 10996 ] final -178.19 input  -57.11 | X-H torsion

> <Gold.Protein.ActiveResidues>
 VAL166  LYS551  ARG553  GLY616  TRP617  ASP618  TYR619  PRO620  LYS621  CYS622 
 ASP623  PHE694  ASN695  SER759  ASP760  ASP761  ALA762  ILE779  LEU786  VAL792 
 PHE793  MET794  SER795  GLU796  ALA797  LYS798  CYS799  TRP800  GLU811  SER814 

> <Gold.Protein.RotatedAtoms>
  152.3654  133.6349  159.6045 H   0  0  0  0  0  0  0  0  0  0  0  0  # atno 6907 bound_to 6896
  150.7630  133.9357  159.3449 H   0  0  0  0  0  0  0  0  0  0  0  0  # atno 6908 bound_to 6896
  151.7189  135.0899  160.0332 H   0  0  0  0  0  0  0  0  0  0  0  0  # atno 6909 bound_to 6896
  144.9471  140.7304  143.4810 H   0  0  0  0  0  0  0  0  0  0  0  0  # atno 7974 bound_to 7965
  155.9057  140.3430  155.6060 H   0  0  0  0  0  0  0  0  0  0  0  0  # atno 8008 bound_to 7997
  155.7447  140.0812  157.2248 H   0  0  0  0  0  0  0  0  0  0  0  0  # atno 8009 bound_to 7997
  154.4049  140.1564  156.2643 H   0  0  0  0  0  0  0  0  0  0  0  0  # atno 8010 bound_to 7997
  139.9435  143.6136  152.2496 H   0  0  0  0  0  0  0  0  0  0  0  0  # atno 10167 bound_to 10162
  156.5145  130.4618  149.6630 H   0  0  0  0  0  0  0  0  0  0  0  0  # atno 10718 bound_to 10713
  153.8352  135.6862  153.4809 H   0  0  0  0  0  0  0  0  0  0  0  0  # atno 10763 bound_to 10752
  153.1486  135.4627  154.9602 H   0  0  0  0  0  0  0  0  0  0  0  0  # atno 10764 bound_to 10752
  154.7869  135.3288  154.7811 H   0  0  0  0  0  0  0  0  0  0  0  0  # atno 10765 bound_to 10752
  140.4326  134.6505  157.4719 H   0  0  0  0  0  0  0  0  0  0  0  0  # atno 11005 bound_to 11000
  145.2901  139.1887  143.4745 LP  0  0  0  0  0  0  0  0  0  0  0  0  # atno 17320 bound_to 7965
  146.3307  140.2876  142.8613 LP  0  0  0  0  0  0  0  0  0  0  0  0  # atno 17321 bound_to 7965
  139.6685  144.7661  151.1827 LP  0  0  0  0  0  0  0  0  0  0  0  0  # atno 17342 bound_to 10162
  140.7604  143.5900  150.8805 LP  0  0  0  0  0  0  0  0  0  0  0  0  # atno 17343 bound_to 10162
  156.3208  130.7279  151.2191 LP  0  0  0  0  0  0  0  0  0  0  0  0  # atno 17370 bound_to 10713
  157.7446  131.0456  150.4852 LP  0  0  0  0  0  0  0  0  0  0  0  0  # atno 17371 bound_to 10713
  140.0124  134.6670  155.9360 LP  0  0  0  0  0  0  0  0  0  0  0  0  # atno 17394 bound_to 11000
  141.1739  133.6539  156.4755 LP  0  0  0  0  0  0  0  0  0  0  0  0  # atno 17395 bound_to 11000

$$$$
