AV-unprocessed.smi:2438|AV-procd|sdf|9597|dock9
  -GOLD-   2272013233D 1   1.00000     0.00000
 Structure written by MMmdl.
 43 44  0  0  0  0  0  0  0  0  1 V2000
  152.0855  145.0603  157.6537 C   0  0  0  0  0  0  0  0  0  0  0  0
  151.7103  144.5779  158.9768 N   0  0  0  0  0  0  0  0  0  0  0  0
  151.8208  145.5414  160.0637 C   0  0  0  0  0  0  0  0  0  0  0  0
  152.1650  143.2904  159.3265 C   0  0  0  0  0  0  0  0  0  0  0  0
  153.1174  143.1903  160.2856 N   0  0  0  0  0  0  0  0  0  0  0  0
  153.5230  141.9666  160.6284 C   0  0  0  0  0  0  0  0  0  0  0  0
  153.0916  140.8123  160.1201 N   0  0  0  0  0  0  0  0  0  0  0  0
  152.1450  140.8877  159.1615 C   0  0  0  0  0  0  0  0  0  0  0  0
  151.6250  142.1278  158.7167 C   0  0  0  0  0  0  0  0  0  0  0  0
  150.6718  142.2361  157.6676 N   0  0  0  0  0  0  0  0  0  0  0  0
  150.3997  141.3320  156.7132 C   0  0  0  0  0  0  0  0  0  0  0  0
  150.9360  140.2285  156.6120 O   0  0  0  0  0  0  0  0  0  0  0  0
  149.4382  141.7728  155.8902 N   0  0  0  0  0  0  0  0  0  0  0  0
  148.8647  141.0220  154.7775 C   0  0  2  0  0  0  0  0  0  0  0  0
  147.7571  141.8566  154.1107 C   0  0  0  0  0  0  0  0  0  0  0  0
  147.0690  141.0718  152.9845 C   0  0  0  0  0  0  0  0  0  0  0  0
  146.5137  139.7344  153.4978 C   0  0  0  0  0  0  0  0  0  0  0  0
  147.6150  138.8754  154.1541 C   0  0  2  0  0  0  0  0  0  0  0  0
  147.0685  137.5238  154.6589 C   0  0  0  0  0  0  0  0  0  0  0  0
  146.1684  137.7071  155.6255 F   0  0  0  0  0  0  0  0  0  0  0  0
  146.4943  136.8595  153.6559 F   0  0  0  0  0  0  0  0  0  0  0  0
  148.0650  136.7773  155.1349 F   0  0  0  0  0  0  0  0  0  0  0  0
  148.3123  139.6719  155.2779 C   0  0  0  0  0  0  0  0  0  0  0  0
  151.9180  144.2926  156.8970 H   0  0  0  0  0  0  0  0  0  0  0  0
  153.1364  145.3514  157.6279 H   0  0  0  0  0  0  0  0  0  0  0  0
  151.4852  145.9301  157.3859 H   0  0  0  0  0  0  0  0  0  0  0  0
  151.3787  145.1675  160.9872 H   0  0  0  0  0  0  0  0  0  0  0  0
  151.3097  146.4681  159.8016 H   0  0  0  0  0  0  0  0  0  0  0  0
  152.8682  145.7745  160.2589 H   0  0  0  0  0  0  0  0  0  0  0  0
  154.2817  141.9050  161.3945 H   0  0  0  0  0  0  0  0  0  0  0  0
  151.8317  139.9466  158.7356 H   0  0  0  0  0  0  0  0  0  0  0  0
  150.0765  143.0510  157.7019 H   0  0  0  0  0  0  0  0  0  0  0  0
  149.0599  142.6939  156.0561 H   0  0  0  0  0  0  0  0  0  0  0  0
  149.6373  140.8310  154.0299 H   0  0  0  0  0  0  0  0  0  0  0  0
  147.0129  142.1478  154.8536 H   0  0  0  0  0  0  0  0  0  0  0  0
  148.1745  142.7819  153.7116 H   0  0  0  0  0  0  0  0  0  0  0  0
  146.2636  141.6686  152.5555 H   0  0  0  0  0  0  0  0  0  0  0  0
  147.7803  140.8878  152.1781 H   0  0  0  0  0  0  0  0  0  0  0  0
  145.7155  139.9254  154.2161 H   0  0  0  0  0  0  0  0  0  0  0  0
  146.0579  139.1917  152.6694 H   0  0  0  0  0  0  0  0  0  0  0  0
  148.3638  138.6588  153.3904 H   0  0  0  0  0  0  0  0  0  0  0  0
  149.1254  139.0798  155.6992 H   0  0  0  0  0  0  0  0  0  0  0  0
  147.6068  139.8453  156.0917 H   0  0  0  0  0  0  0  0  0  0  0  0
  1  2  1  0  0  0  0
  1 24  1  0  0  0  0
  1 25  1  0  0  0  0
  1 26  1  0  0  0  0
  2  3  1  0  0  0  0
  2  4  1  0  0  0  0
  3 27  1  0  0  0  0
  3 28  1  0  0  0  0
  3 29  1  0  0  0  0
  4  9  1  0  0  0  0
  4  5  2  0  0  0  0
  5  6  1  0  0  0  0
  6  7  2  0  0  0  0
  6 30  1  0  0  0  0
  7  8  1  0  0  0  0
  8  9  2  0  0  0  0
  8 31  1  0  0  0  0
  9 10  1  0  0  0  0
 10 11  1  0  0  0  0
 10 32  1  0  0  0  0
 11 12  2  0  0  0  0
 11 13  1  0  0  0  0
 13 14  1  0  0  0  0
 13 33  1  0  0  0  0
 14 23  1  0  0  0  0
 14 15  1  0  0  0  0
 14 34  1  0  0  0  0
 15 16  1  0  0  0  0
 15 35  1  0  0  0  0
 15 36  1  0  0  0  0
 16 17  1  0  0  0  0
 16 37  1  0  0  0  0
 16 38  1  0  0  0  0
 17 18  1  0  0  0  0
 17 39  1  0  0  0  0
 17 40  1  0  0  0  0
 18 19  1  0  0  0  0
 18 23  1  0  0  0  0
 18 41  1  0  0  0  0
 19 20  1  0  0  0  0
 19 21  1  0  0  0  0
 19 22  1  0  0  0  0
 23 42  1  0  0  0  0
 23 43  1  0  0  0  0
M  END
> <s_m_source_file>
AV-unprocessed.smi

> <i_m_source_file_index>
2438

> <i_lp_mmshare_version>
43012

> <i_f3d_flags>
0

> <s_epik_input>
W0NIM11OKFtDSDNdKWMxbltjSF1uW2NIXWMxW05IXUMoPU8pW05IXVtDQEBIXTJbQ0gyXVtDSDJdW0NIMl1bQ0BASF0oQyhGKShGKUYpW0NIMl0y

> <s_epik_cmdline>
J2VwaWtfcHl0aG9uJywgJy1waCcsICc3LjAnLCAnLXRuJywgJzgnLCAnLW1hJywgJzIwMCcsICctbWV0YWxfYmluZGluZycsICctaW1hZScsICc8aW5maWxlLm1hZT4nLCAnLW9tYWUnLCAnPG91dGZpbGUubWFlPic=

> <r_lp_tautomer_probability>
1

> <r_epik_Ionization_Penalty>
0.01759

> <r_epik_Ionization_Penalty_Charging>
0

> <r_epik_Ionization_Penalty_Neutral>
0.01759

> <r_epik_State_Penalty>
0.0133536

> <r_epik_Charging_Adjusted_Penalty>
0.0133536

> <i_epik_Tot_Q>
0

> <i_epik_Tot_abs_Q>
0

> <r_epik_Metal_State_Penalty>
0.0129828

> <b_epik_Metal_Only>
0

> <s_lp_Force_Field>
OPLS_2005

> <r_lp_Energy>
11.5061

> <b_lp_Chiralities_Consistent>
1

> <s_lp_Variant>
AV-unprocessed.smi:2438-3

> <Gold.Version>
5.8.1

> <Gold.Id.Protein>
6NUR|6NUR_protein|mol2

> <Gold.PLP.Fitness>
37.1375

> <Gold.PLP.PLP>
-35.0154

> <Gold.PLP.part.hbond>
-1.0000

> <Gold.PLP.part.metal>
0.0000

> <Gold.PLP.part.buried>
-6.4575

> <Gold.PLP.part.nonpolar>
-27.5612

> <Gold.PLP.part.repulsive>
0.1920

> <Gold.PLP.ligand.clash>
0.0000

> <Gold.PLP.ligand.torsion>
0.5957

> <Gold.PLP.Chemscore.Hbond>
0.9913

> <Gold.PLP.Chemscore.CHOScore>
0.0000

> <Gold.PLP.Chemscore.Metal>
0.0000

> <Gold.Chemscore.Hbonds>
donor molecule, donor type, donor heavy atom, donor atom, acceptor molecule, acceptor atom, score
      L1  H    13    33       P1  8028  0.89

> <Gold.PLP.Chemscore.Internal.Correction>
0.3398

> <Gold.Rescore>
     Score         DG    S(hbond)    S(metal)    S(lipo)     H(rot)  DE(clash)    DE(int)     intcor
      9.42     -12.52       0.48        0.00      74.92       1.30       0.49       2.62       ----

> <Gold.Chemscore.Fitness>
9.4165

> <Gold.Chemscore.DG>
-12.5225

> <Gold.Chemscore.ZeroCoef>
-5.4800

> <Gold.Chemscore.Hbond>
0.4794

> <Gold.Chemscore.Metal>
0.0000

> <Gold.Chemscore.Lipo>
74.9211

> <Gold.Chemscore.Internal_Hbond>
0.0000

> <Gold.Chemscore.DEClash>
0.4895

> <Gold.Chemscore.DEInternal>
2.6165

> <Gold.Chemscore.Rot>
1.2987

> <Gold.Chemscore.Internal.Correction>
   9.000000E+99

> <Gold.Chemscore.Hbonds>
donor molecule, donor type, donor heavy atom, donor atom, acceptor molecule, acceptor atom, score
      L1  H    13    33       P1  8028  0.84

> <Gold.Chemscore.Hbond.Weighted>
-1.6013

> <Gold.Chemscore.Metal.Weighted>
-0.0000

> <Gold.Chemscore.Lipo.Weighted>
-8.7658

> <Gold.Chemscore.Internal_Hbond.Weighted>
0.0000

> <Gold.Chemscore.DEClash.Weighted>
0.4895

> <Gold.Chemscore.DEInternal.Weighted>
2.6165

> <Gold.Chemscore.Rot.Weighted>
3.3246

> <Gold.Chemscore.Internal.Correction.Weighted>
   9.000000E+99

> <Gold.Protein.RotatedTorsions>
[ 6907 6896 6895 6894 ] final   44.57 input  -60.11 | X-H torsion
[ 7974 7965 7964 7962 ] final  163.71 input  175.53 | X-H torsion
[ 8008 7997 7996 7995 ] final  -64.80 input   59.86 | X-H torsion
[ 10167 10162 10161 10158 ] final  -61.99 input  -65.29 | X-H torsion
[ 10718 10713 10712 10709 ] final   70.64 input   66.30 | X-H torsion
[ 10763 10752 10751 10750 ] final -169.26 input  -60.55 | X-H torsion
[ 11005 11000 10999 10996 ] final   51.46 input  -57.11 | X-H torsion

> <Gold.Protein.ActiveResidues>
 VAL166  LYS551  ARG553  GLY616  TRP617  ASP618  TYR619  PRO620  LYS621  CYS622 
 ASP623  PHE694  ASN695  SER759  ASP760  ASP761  ALA762  ILE779  LEU786  VAL792 
 PHE793  MET794  SER795  GLU796  ALA797  LYS798  CYS799  TRP800  GLU811  SER814 

> <Gold.Protein.RotatedAtoms>
  152.2340  134.8294  160.0469 H   0  0  0  0  0  0  0  0  0  0  0  0  # atno 6907 bound_to 6896
  151.9032  133.3538  159.3846 H   0  0  0  0  0  0  0  0  0  0  0  0  # atno 6908 bound_to 6896
  150.7034  134.4733  159.5480 H   0  0  0  0  0  0  0  0  0  0  0  0  # atno 6909 bound_to 6896
  144.7577  139.8221  143.6344 H   0  0  0  0  0  0  0  0  0  0  0  0  # atno 7974 bound_to 7965
  154.4633  140.0946  156.6953 H   0  0  0  0  0  0  0  0  0  0  0  0  # atno 8008 bound_to 7997
  155.4930  140.3471  155.4340 H   0  0  0  0  0  0  0  0  0  0  0  0  # atno 8009 bound_to 7997
  156.0911  140.1397  156.9579 H   0  0  0  0  0  0  0  0  0  0  0  0  # atno 8010 bound_to 7997
  140.5969  143.2353  151.6015 H   0  0  0  0  0  0  0  0  0  0  0  0  # atno 10167 bound_to 10162
  157.6411  130.9488  150.0679 H   0  0  0  0  0  0  0  0  0  0  0  0  # atno 10718 bound_to 10713
  154.6541  135.2915  154.9949 H   0  0  0  0  0  0  0  0  0  0  0  0  # atno 10763 bound_to 10752
  154.1032  135.6573  153.4876 H   0  0  0  0  0  0  0  0  0  0  0  0  # atno 10764 bound_to 10752
  153.0393  135.5247  154.7463 H   0  0  0  0  0  0  0  0  0  0  0  0  # atno 10765 bound_to 10752
  140.0931  134.5182  155.8833 H   0  0  0  0  0  0  0  0  0  0  0  0  # atno 11005 bound_to 11000
  146.1607  139.4720  142.9990 LP  0  0  0  0  0  0  0  0  0  0  0  0  # atno 17320 bound_to 7965
  145.6722  141.0213  143.1651 LP  0  0  0  0  0  0  0  0  0  0  0  0  # atno 17321 bound_to 7965
  139.5264  144.3046  152.1045 LP  0  0  0  0  0  0  0  0  0  0  0  0  # atno 17342 bound_to 10162
  140.2219  144.4457  150.6338 LP  0  0  0  0  0  0  0  0  0  0  0  0  # atno 17343 bound_to 10162
  156.1692  130.3646  149.9189 LP  0  0  0  0  0  0  0  0  0  0  0  0  # atno 17370 bound_to 10713
  156.7168  130.8991  151.3614 LP  0  0  0  0  0  0  0  0  0  0  0  0  # atno 17371 bound_to 10713
  141.2084  133.6673  156.6368 LP  0  0  0  0  0  0  0  0  0  0  0  0  # atno 17394 bound_to 11000
  140.3324  134.7917  157.4336 LP  0  0  0  0  0  0  0  0  0  0  0  0  # atno 17395 bound_to 11000

$$$$
