AV-unprocessed.smi:1501|AV-procd|sdf|6065|dock2
  -GOLD-   22720 6183D 1   1.00000     0.00000
 Structure written by MMmdl.
 49 50  0  0  0  0  0  0  0  0  1 V2000
  148.9544  141.5870  154.5430 C   0  0  0  0  0  0  0  0  0  0  0  0
  150.0920  141.2644  155.4955 C   0  0  0  0  0  0  0  0  0  0  0  0
  150.2714  142.1880  156.5084 N   0  0  0  0  0  0  0  0  0  0  0  0
  151.2996  142.0013  157.4241 C   0  0  0  0  0  0  0  0  0  0  0  0
  151.4034  143.0033  158.3887 N   0  0  0  0  0  0  0  0  0  0  0  0
  152.3043  142.8352  159.5289 C   0  0  0  0  0  0  0  0  0  0  0  0
  151.9208  143.7717  160.6869 C   0  0  0  0  0  0  0  0  0  0  0  0
  151.8999  145.1165  160.2273 O   0  0  0  0  0  0  0  0  0  0  0  0
  150.9365  145.2988  159.1982 C   0  0  0  0  0  0  0  0  0  0  0  0
  151.2885  144.4080  157.9946 C   0  0  0  0  0  0  0  0  0  0  0  0
  152.0952  140.9708  157.3956 N   0  0  0  0  0  0  0  0  0  0  0  0
  151.9497  139.9873  156.4058 C   0  0  0  0  0  0  0  0  0  0  0  0
  152.6905  139.0053  156.3881 O   0  0  0  0  0  0  0  0  0  0  0  0
  150.8827  140.1693  155.4001 C   0  0  0  0  0  0  0  0  0  0  0  0
  150.7372  139.1292  154.2932 C   0  0  0  0  0  0  0  0  0  0  0  0
  149.4660  138.2744  154.4601 C   0  0  0  0  0  0  0  0  0  0  0  0
  149.6787  137.0248  155.3206 C   0  0  0  0  0  0  0  0  0  0  0  0
  149.9566  137.1188  156.5168 O   0  0  0  0  0  0  0  0  0  0  0  0
  149.5453  135.8487  154.6893 N   0  0  0  0  0  0  0  0  0  0  0  0
  149.6924  134.5391  155.3169 C   0  0  0  0  0  0  0  0  0  0  0  0
  149.7760  133.3942  154.2847 C   0  0  0  0  0  0  0  0  0  0  0  0
  148.5167  133.3585  153.4067 C   0  0  0  0  0  0  0  0  0  0  0  0
  150.0156  132.0265  154.9471 C   0  0  0  0  0  0  0  0  0  0  0  0
  149.6479  142.9813  156.5404 H   0  0  0  0  0  0  0  0  0  0  0  0
  148.2511  140.7552  154.4940 H   0  0  0  0  0  0  0  0  0  0  0  0
  149.3400  141.7739  153.5405 H   0  0  0  0  0  0  0  0  0  0  0  0
  148.4030  142.4732  154.8599 H   0  0  0  0  0  0  0  0  0  0  0  0
  153.3262  143.0399  159.2061 H   0  0  0  0  0  0  0  0  0  0  0  0
  152.2818  141.8025  159.8807 H   0  0  0  0  0  0  0  0  0  0  0  0
  150.9484  143.5001  161.1010 H   0  0  0  0  0  0  0  0  0  0  0  0
  152.6465  143.6847  161.4954 H   0  0  0  0  0  0  0  0  0  0  0  0
  149.9375  145.0696  159.5724 H   0  0  0  0  0  0  0  0  0  0  0  0
  150.9317  146.3470  158.8998 H   0  0  0  0  0  0  0  0  0  0  0  0
  150.5313  144.5412  157.2213 H   0  0  0  0  0  0  0  0  0  0  0  0
  152.2372  144.7291  157.5617 H   0  0  0  0  0  0  0  0  0  0  0  0
  151.6225  138.4913  154.2738 H   0  0  0  0  0  0  0  0  0  0  0  0
  150.7233  139.6281  153.3241 H   0  0  0  0  0  0  0  0  0  0  0  0
  148.6758  138.8772  154.9102 H   0  0  0  0  0  0  0  0  0  0  0  0
  149.1003  137.9582  153.4825 H   0  0  0  0  0  0  0  0  0  0  0  0
  149.3154  135.8608  153.7060 H   0  0  0  0  0  0  0  0  0  0  0  0
  150.5958  134.5567  155.9273 H   0  0  0  0  0  0  0  0  0  0  0  0
  148.8633  134.3698  156.0063 H   0  0  0  0  0  0  0  0  0  0  0  0
  150.6212  133.5935  153.6245 H   0  0  0  0  0  0  0  0  0  0  0  0
  147.6239  133.1596  154.0006 H   0  0  0  0  0  0  0  0  0  0  0  0
  148.5902  132.5818  152.6447 H   0  0  0  0  0  0  0  0  0  0  0  0
  148.3701  134.3084  152.8919 H   0  0  0  0  0  0  0  0  0  0  0  0
  149.2124  131.7773  155.6412 H   0  0  0  0  0  0  0  0  0  0  0  0
  150.9538  132.0079  155.5020 H   0  0  0  0  0  0  0  0  0  0  0  0
  150.0668  131.2336  154.2004 H   0  0  0  0  0  0  0  0  0  0  0  0
  1 25  1  0  0  0  0
  1 26  1  0  0  0  0
  1 27  1  0  0  0  0
  1  2  1  0  0  0  0
  2 14  2  0  0  0  0
  2  3  1  0  0  0  0
  3 24  1  0  0  0  0
  3  4  1  0  0  0  0
  4  5  1  0  0  0  0
  4 11  2  0  0  0  0
  5 10  1  0  0  0  0
  5  6  1  0  0  0  0
  6  7  1  0  0  0  0
  6 28  1  0  0  0  0
  6 29  1  0  0  0  0
  7  8  1  0  0  0  0
  7 30  1  0  0  0  0
  7 31  1  0  0  0  0
  8  9  1  0  0  0  0
  9 10  1  0  0  0  0
  9 32  1  0  0  0  0
  9 33  1  0  0  0  0
 10 34  1  0  0  0  0
 10 35  1  0  0  0  0
 11 12  1  0  0  0  0
 12 13  2  0  0  0  0
 12 14  1  0  0  0  0
 14 15  1  0  0  0  0
 15 16  1  0  0  0  0
 15 36  1  0  0  0  0
 15 37  1  0  0  0  0
 16 17  1  0  0  0  0
 16 38  1  0  0  0  0
 16 39  1  0  0  0  0
 17 18  2  0  0  0  0
 17 19  1  0  0  0  0
 19 20  1  0  0  0  0
 19 40  1  0  0  0  0
 20 21  1  0  0  0  0
 20 41  1  0  0  0  0
 20 42  1  0  0  0  0
 21 22  1  0  0  0  0
 21 23  1  0  0  0  0
 21 43  1  0  0  0  0
 22 44  1  0  0  0  0
 22 45  1  0  0  0  0
 22 46  1  0  0  0  0
 23 47  1  0  0  0  0
 23 48  1  0  0  0  0
 23 49  1  0  0  0  0
M  END
> <s_m_source_file>
AV-unprocessed.smi

> <i_m_source_file_index>
1501

> <i_lp_mmshare_version>
43012

> <i_f3d_flags>
0

> <s_epik_input>
W0NIMl0xW0NIMl1PW0NIMl1bQ0gyXU4xYyhuYzJbQ0gzXSlbbkhdYyg9TyljMltDSDJdW0NIMl1DKD1PKVtOSF1bQ0gyXVtDSF0oW0NIM10pW0NIM10=

> <s_epik_cmdline>
J2VwaWtfcHl0aG9uJywgJy1waCcsICc3LjAnLCAnLXRuJywgJzgnLCAnLW1hJywgJzIwMCcsICctbWV0YWxfYmluZGluZycsICctaW1hZScsICc8aW5maWxlLm1hZT4nLCAnLW9tYWUnLCAnPG91dGZpbGUubWFlPic=

> <r_lp_tautomer_probability>
0.108306

> <r_epik_Ionization_Penalty>
0.0740208

> <r_epik_Ionization_Penalty_Charging>
0.0617106

> <r_epik_Ionization_Penalty_Neutral>
0.0123101

> <r_epik_State_Penalty>
1.70915

> <r_epik_Charging_Adjusted_Penalty>
1.77086

> <i_epik_Tot_Q>
0

> <i_epik_Tot_abs_Q>
0

> <r_epik_Metal_State_Penalty>
2.68075

> <b_epik_Metal_Only>
0

> <s_lp_Force_Field>
OPLS_2005

> <r_lp_Energy>
26.7913

> <b_lp_Chiralities_Consistent>
1

> <s_lp_Variant>
AV-unprocessed.smi:1501-2

> <Gold.Version>
5.8.1

> <Gold.Id.Protein>
6NUR|6NUR_protein|mol2

> <Gold.PLP.Fitness>
54.0056

> <Gold.PLP.PLP>
-47.3481

> <Gold.PLP.part.hbond>
-3.0000

> <Gold.PLP.part.metal>
0.0000

> <Gold.PLP.part.buried>
-2.2567

> <Gold.PLP.part.nonpolar>
-41.2887

> <Gold.PLP.part.repulsive>
0.2378

> <Gold.PLP.ligand.clash>
0.0000

> <Gold.PLP.ligand.torsion>
0.7568

> <Gold.PLP.Chemscore.Hbond>
2.5950

> <Gold.PLP.Chemscore.CHOScore>
0.0000

> <Gold.PLP.Chemscore.Metal>
0.0000

> <Gold.Chemscore.Hbonds>
donor molecule, donor type, donor heavy atom, donor atom, acceptor molecule, acceptor atom, score
      L1  H     3    24       P1  8028  0.84
      L1  H    19    40       P1  7948  1.00
      P1  H  7997  8008       L1    13  0.75

> <Gold.PLP.Chemscore.Internal.Correction>
0.3861

> <Gold.Rescore>
     Score         DG    S(hbond)    S(metal)    S(lipo)     H(rot)  DE(clash)    DE(int)     intcor
     17.98     -18.99       1.75        0.00     105.77       1.83       0.25       0.77       ----

> <Gold.Chemscore.Fitness>
17.9772

> <Gold.Chemscore.DG>
-18.9911

> <Gold.Chemscore.ZeroCoef>
-5.4800

> <Gold.Chemscore.Hbond>
1.7455

> <Gold.Chemscore.Metal>
0.0000

> <Gold.Chemscore.Lipo>
105.7689

> <Gold.Chemscore.Internal_Hbond>
0.0000

> <Gold.Chemscore.DEClash>
0.2468

> <Gold.Chemscore.DEInternal>
0.7671

> <Gold.Chemscore.Rot>
1.8335

> <Gold.Chemscore.Internal.Correction>
   9.000000E+99

> <Gold.Chemscore.Hbonds>
donor molecule, donor type, donor heavy atom, donor atom, acceptor molecule, acceptor atom, score
      L1  H     3    24       P1  8028  0.78
      L1  H    19    40       P1  7948  0.65
      P1  H  7997  8008       L1    13  0.09

> <Gold.Chemscore.Hbond.Weighted>
-5.8299

> <Gold.Chemscore.Metal.Weighted>
-0.0000

> <Gold.Chemscore.Lipo.Weighted>
-12.3750

> <Gold.Chemscore.Internal_Hbond.Weighted>
0.0000

> <Gold.Chemscore.DEClash.Weighted>
0.2468

> <Gold.Chemscore.DEInternal.Weighted>
0.7671

> <Gold.Chemscore.Rot.Weighted>
4.6938

> <Gold.Chemscore.Internal.Correction.Weighted>
   9.000000E+99

> <Gold.Protein.RotatedTorsions>
[ 6907 6896 6895 6894 ] final   23.97 input  -60.11 | X-H torsion
[ 7974 7965 7964 7962 ] final  -70.29 input  175.53 | X-H torsion
[ 8008 7997 7996 7995 ] final  -59.69 input   59.86 | X-H torsion
[ 10167 10162 10161 10158 ] final   71.08 input  -65.29 | X-H torsion
[ 10718 10713 10712 10709 ] final   85.75 input   66.30 | X-H torsion
[ 10763 10752 10751 10750 ] final    5.28 input  -60.55 | X-H torsion
[ 11005 11000 10999 10996 ] final  -67.01 input  -57.11 | X-H torsion

> <Gold.Protein.ActiveResidues>
 VAL166  LYS551  ARG553  GLY616  TRP617  ASP618  TYR619  PRO620  LYS621  CYS622 
 ASP623  PHE694  ASN695  SER759  ASP760  ASP761  ALA762  ILE779  LEU786  VAL792 
 PHE793  MET794  SER795  GLU796  ALA797  LYS798  CYS799  TRP800  GLU811  SER814 

> <Gold.Protein.RotatedAtoms>
  151.9505  135.0171  160.0541 H   0  0  0  0  0  0  0  0  0  0  0  0  # atno 6907 bound_to 6896
  152.1957  133.4800  159.5040 H   0  0  0  0  0  0  0  0  0  0  0  0  # atno 6908 bound_to 6896
  150.6944  134.1572  159.4205 H   0  0  0  0  0  0  0  0  0  0  0  0  # atno 6909 bound_to 6896
  145.6928  140.9146  143.0772 H   0  0  0  0  0  0  0  0  0  0  0  0  # atno 7974 bound_to 7965
  154.4364  140.1056  156.6156 H   0  0  0  0  0  0  0  0  0  0  0  0  # atno 8008 bound_to 7997
  155.5763  140.3490  155.4509 H   0  0  0  0  0  0  0  0  0  0  0  0  # atno 8009 bound_to 7997
  156.0352  140.1269  157.0204 H   0  0  0  0  0  0  0  0  0  0  0  0  # atno 8010 bound_to 7997
  140.0500  144.5320  150.7370 H   0  0  0  0  0  0  0  0  0  0  0  0  # atno 10167 bound_to 10162
  157.6919  131.0187  150.2869 H   0  0  0  0  0  0  0  0  0  0  0  0  # atno 10718 bound_to 10713
  153.2613  135.6923  153.7576 H   0  0  0  0  0  0  0  0  0  0  0  0  # atno 10763 bound_to 10752
  153.6634  135.3356  155.3134 H   0  0  0  0  0  0  0  0  0  0  0  0  # atno 10764 bound_to 10752
  154.8431  135.4482  154.1604 H   0  0  0  0  0  0  0  0  0  0  0  0  # atno 10765 bound_to 10752
  141.1497  133.6710  156.6227 H   0  0  0  0  0  0  0  0  0  0  0  0  # atno 11005 bound_to 11000
  144.6991  139.8845  143.7449 LP  0  0  0  0  0  0  0  0  0  0  0  0  # atno 17320 bound_to 7965
  146.0866  139.3855  143.0431 LP  0  0  0  0  0  0  0  0  0  0  0  0  # atno 17321 bound_to 7965
  140.7221  143.2599  151.4243 LP  0  0  0  0  0  0  0  0  0  0  0  0  # atno 17342 bound_to 10162
  139.5959  144.1398  152.2143 LP  0  0  0  0  0  0  0  0  0  0  0  0  # atno 17343 bound_to 10162
  156.3406  130.3815  149.7412 LP  0  0  0  0  0  0  0  0  0  0  0  0  # atno 17370 bound_to 10713
  156.4922  130.8090  151.3099 LP  0  0  0  0  0  0  0  0  0  0  0  0  # atno 17371 bound_to 10713
  140.3528  134.7754  157.4479 LP  0  0  0  0  0  0  0  0  0  0  0  0  # atno 17394 bound_to 11000
  140.0847  134.5683  155.8504 LP  0  0  0  0  0  0  0  0  0  0  0  0  # atno 17395 bound_to 11000

$$$$
