AV-unprocessed.smi:573|AV-procd|sdf|2972|dock4
  -GOLD-   2262023483D 1   1.00000     0.00000
 Structure written by MMmdl.
 44 46  0  0  0  0  0  0  0  0  1 V2000
  157.8425  139.9853  160.9670 C   0  0  0  0  0  0  0  0  0  0  0  0
  156.5120  140.0941  160.2069 C   0  0  1  0  0  0  0  0  0  0  0  0
  156.7075  139.5807  158.9065 O   0  0  0  0  0  0  0  0  0  0  0  0
  155.3626  139.3092  160.8627 C   0  0  0  0  0  0  0  0  0  0  0  0
  154.0909  139.5327  160.1994 N   0  0  0  0  0  0  0  0  0  0  0  0
  153.4266  140.6921  159.8165 C   0  0  0  0  0  0  0  0  0  0  0  0
  153.8964  141.9218  160.0186 N   0  0  0  0  0  0  0  0  0  0  0  0
  152.8951  142.7093  159.4821 C   0  0  0  0  0  0  0  0  0  0  0  0
  152.7865  144.1153  159.3857 C   0  0  0  0  0  0  0  0  0  0  0  0
  151.6522  144.7045  158.7898 C   0  0  0  0  0  0  0  0  0  0  0  0
  150.6114  143.8991  158.2840 C   0  0  0  0  0  0  0  0  0  0  0  0
  150.6983  142.4962  158.3697 C   0  0  0  0  0  0  0  0  0  0  0  0
  151.8336  141.9120  158.9629 C   0  0  0  0  0  0  0  0  0  0  0  0
  152.2250  140.5976  159.2005 N   0  0  0  0  0  0  0  0  0  0  0  0
  151.4804  139.3931  158.8613 C   0  0  0  0  0  0  0  0  0  0  0  0
  152.0278  138.7215  157.5912 C   0  0  2  0  0  0  0  0  0  0  0  0
  152.0597  139.6860  156.3908 C   0  0  0  0  0  0  0  0  0  0  0  0
  152.5503  138.9601  155.1329 C   0  0  0  0  0  0  0  0  0  0  0  0
  151.7123  137.6973  154.9045 C   0  0  0  0  0  0  0  0  0  0  0  0
  151.6860  136.8343  156.1763 C   0  0  0  0  0  0  0  0  0  0  0  0
  151.2030  137.6015  157.2740 O   0  0  0  0  0  0  0  0  0  0  0  0
  157.7681  140.4248  161.9616 H   0  0  0  0  0  0  0  0  0  0  0  0
  158.6394  140.5107  160.4397 H   0  0  0  0  0  0  0  0  0  0  0  0
  158.1490  138.9453  161.0846 H   0  0  0  0  0  0  0  0  0  0  0  0
  156.2322  141.1439  160.1090 H   0  0  0  0  0  0  0  0  0  0  0  0
  157.1924  138.7723  158.9726 H   0  0  0  0  0  0  0  0  0  0  0  0
  155.5709  138.2397  160.8197 H   0  0  0  0  0  0  0  0  0  0  0  0
  155.2734  139.5692  161.9183 H   0  0  0  0  0  0  0  0  0  0  0  0
  153.6142  138.6792  159.9475 H   0  0  0  0  0  0  0  0  0  0  0  0
  153.5769  144.7413  159.7723 H   0  0  0  0  0  0  0  0  0  0  0  0
  151.5798  145.7799  158.7218 H   0  0  0  0  0  0  0  0  0  0  0  0
  149.7455  144.3588  157.8306 H   0  0  0  0  0  0  0  0  0  0  0  0
  149.9010  141.8769  157.9866 H   0  0  0  0  0  0  0  0  0  0  0  0
  151.5305  138.7036  159.7045 H   0  0  0  0  0  0  0  0  0  0  0  0
  150.4273  139.6488  158.7385 H   0  0  0  0  0  0  0  0  0  0  0  0
  153.0402  138.3667  157.7935 H   0  0  0  0  0  0  0  0  0  0  0  0
  151.0609  140.0872  156.2141 H   0  0  0  0  0  0  0  0  0  0  0  0
  152.7058  140.5379  156.6058 H   0  0  0  0  0  0  0  0  0  0  0  0
  152.4925  139.6181  154.2653 H   0  0  0  0  0  0  0  0  0  0  0  0
  153.5999  138.6881  155.2515 H   0  0  0  0  0  0  0  0  0  0  0  0
  150.6933  137.9777  154.6351 H   0  0  0  0  0  0  0  0  0  0  0  0
  152.1120  137.1248  154.0671 H   0  0  0  0  0  0  0  0  0  0  0  0
  151.0295  135.9759  156.0331 H   0  0  0  0  0  0  0  0  0  0  0  0
  152.6785  136.4417  156.4021 H   0  0  0  0  0  0  0  0  0  0  0  0
  1  2  1  0  0  0  0
  1 22  1  0  0  0  0
  1 23  1  0  0  0  0
  1 24  1  0  0  0  0
  2  3  1  0  0  0  0
  2  4  1  0  0  0  0
  2 25  1  0  0  0  0
  3 26  1  0  0  0  0
  4  5  1  0  0  0  0
  4 27  1  0  0  0  0
  4 28  1  0  0  0  0
  5  6  1  0  0  0  0
  5 29  1  0  0  0  0
  6 14  1  0  0  0  0
  6  7  2  0  0  0  0
  7  8  1  0  0  0  0
  8 13  2  0  0  0  0
  8  9  1  0  0  0  0
  9 10  2  0  0  0  0
  9 30  1  0  0  0  0
 10 11  1  0  0  0  0
 10 31  1  0  0  0  0
 11 12  2  0  0  0  0
 11 32  1  0  0  0  0
 12 13  1  0  0  0  0
 12 33  1  0  0  0  0
 13 14  1  0  0  0  0
 14 15  1  0  0  0  0
 15 16  1  0  0  0  0
 15 34  1  0  0  0  0
 15 35  1  0  0  0  0
 16 21  1  0  0  0  0
 16 17  1  0  0  0  0
 16 36  1  0  0  0  0
 17 18  1  0  0  0  0
 17 37  1  0  0  0  0
 17 38  1  0  0  0  0
 18 19  1  0  0  0  0
 18 39  1  0  0  0  0
 18 40  1  0  0  0  0
 19 20  1  0  0  0  0
 19 41  1  0  0  0  0
 19 42  1  0  0  0  0
 20 21  1  0  0  0  0
 20 43  1  0  0  0  0
 20 44  1  0  0  0  0
M  END
> <s_m_source_file>
AV-unprocessed.smi

> <i_m_source_file_index>
573

> <i_lp_mmshare_version>
43012

> <i_f3d_flags>
0

> <s_epik_input>
W0NIM11bQ0BIXShbT0hdKVtDSDJdW05IXWMobjEpbihjKGMxMilbY0hdW2NIXVtjSF1bY0hdMilbQ0gyXVtDQEBIXTNbQ0gyXVtDSDJdW0NIMl1bQ0gyXU8z

> <s_epik_cmdline>
J2VwaWtfcHl0aG9uJywgJy1waCcsICc3LjAnLCAnLXRuJywgJzgnLCAnLW1hJywgJzIwMCcsICctbWV0YWxfYmluZGluZycsICctaW1hZScsICc8aW5maWxlLm1hZT4nLCAnLW9tYWUnLCAnPG91dGZpbGUubWFlPic=

> <r_epik_Ionization_Penalty>
1.30635

> <r_epik_Ionization_Penalty_Charging>
0

> <r_epik_Ionization_Penalty_Neutral>
1.30635

> <r_epik_State_Penalty>
1.38073

> <r_epik_Charging_Adjusted_Penalty>
1.38073

> <i_epik_Tot_Q>
0

> <i_epik_Tot_abs_Q>
0

> <r_epik_Metal_State_Penalty>
0.00547412

> <b_epik_Metal_Only>
0

> <s_lp_Force_Field>
OPLS_2005

> <r_lp_Energy>
6.58613

> <b_lp_Chiralities_Consistent>
1

> <s_lp_Variant>
AV-unprocessed.smi:573-6

> <Gold.Version>
5.8.1

> <Gold.Id.Protein>
6NUR|6NUR_protein|mol2

> <Gold.PLP.Fitness>
42.3007

> <Gold.PLP.PLP>
-39.9605

> <Gold.PLP.part.hbond>
-1.0000

> <Gold.PLP.part.metal>
0.0000

> <Gold.PLP.part.buried>
-5.7386

> <Gold.PLP.part.nonpolar>
-34.0554

> <Gold.PLP.part.repulsive>
0.0576

> <Gold.PLP.ligand.clash>
0.0000

> <Gold.PLP.ligand.torsion>
0.3337

> <Gold.PLP.Chemscore.Hbond>
1.0000

> <Gold.PLP.Chemscore.CHOScore>
0.0000

> <Gold.PLP.Chemscore.Metal>
0.0000

> <Gold.Chemscore.Hbonds>
donor molecule, donor type, donor heavy atom, donor atom, acceptor molecule, acceptor atom, score
      P1  H  7997  8009       L1     3  1.00

> <Gold.PLP.Chemscore.Internal.Correction>
0.0076

> <Gold.Rescore>
     Score         DG    S(hbond)    S(metal)    S(lipo)     H(rot)  DE(clash)    DE(int)     intcor
     17.28     -17.67       0.99        0.00     120.07       2.02       0.14       0.24       ----

> <Gold.Chemscore.Fitness>
17.2819

> <Gold.Chemscore.DG>
-17.6681

> <Gold.Chemscore.ZeroCoef>
-5.4800

> <Gold.Chemscore.Hbond>
0.9931

> <Gold.Chemscore.Metal>
0.0000

> <Gold.Chemscore.Lipo>
120.0739

> <Gold.Chemscore.Internal_Hbond>
0.0000

> <Gold.Chemscore.DEClash>
0.1420

> <Gold.Chemscore.DEInternal>
0.2443

> <Gold.Chemscore.Rot>
2.0224

> <Gold.Chemscore.Internal.Correction>
   9.000000E+99

> <Gold.Chemscore.Hbonds>
donor molecule, donor type, donor heavy atom, donor atom, acceptor molecule, acceptor atom, score
      P1  H  7997  8009       L1     3  0.92

> <Gold.Chemscore.Hbond.Weighted>
-3.3168

> <Gold.Chemscore.Metal.Weighted>
-0.0000

> <Gold.Chemscore.Lipo.Weighted>
-14.0486

> <Gold.Chemscore.Internal_Hbond.Weighted>
0.0000

> <Gold.Chemscore.DEClash.Weighted>
0.1420

> <Gold.Chemscore.DEInternal.Weighted>
0.2443

> <Gold.Chemscore.Rot.Weighted>
5.1773

> <Gold.Chemscore.Internal.Correction.Weighted>
   9.000000E+99

> <Gold.Protein.RotatedTorsions>
[ 6907 6896 6895 6894 ] final   12.59 input  -60.11 | X-H torsion
[ 7974 7965 7964 7962 ] final  -42.06 input  175.53 | X-H torsion
[ 8008 7997 7996 7995 ] final   64.72 input   59.86 | X-H torsion
[ 10167 10162 10161 10158 ] final    6.10 input  -65.29 | X-H torsion
[ 10718 10713 10712 10709 ] final -114.21 input   66.30 | X-H torsion
[ 10763 10752 10751 10750 ] final  164.19 input  -60.55 | X-H torsion
[ 11005 11000 10999 10996 ] final   93.36 input  -57.11 | X-H torsion

> <Gold.Protein.ActiveResidues>
 VAL166  LYS551  ARG553  GLY616  TRP617  ASP618  TYR619  PRO620  LYS621  CYS622 
 ASP623  PHE694  ASN695  SER759  ASP760  ASP761  ALA762  ILE779  LEU786  VAL792 
 PHE793  MET794  SER795  GLU796  ALA797  LYS798  CYS799  TRP800  GLU811  SER814 

> <Gold.Protein.RotatedAtoms>
  151.7728  135.0782  160.0362 H   0  0  0  0  0  0  0  0  0  0  0  0  # atno 6907 bound_to 6896
  152.3277  133.5919  159.5796 H   0  0  0  0  0  0  0  0  0  0  0  0  # atno 6908 bound_to 6896
  150.7405  133.9831  159.3624 H   0  0  0  0  0  0  0  0  0  0  0  0  # atno 6909 bound_to 6896
  146.0151  140.6917  142.9205 H   0  0  0  0  0  0  0  0  0  0  0  0  # atno 7974 bound_to 7965
  155.6505  140.3497  155.4746 H   0  0  0  0  0  0  0  0  0  0  0  0  # atno 8008 bound_to 7997
  155.9851  140.1182  157.0713 H   0  0  0  0  0  0  0  0  0  0  0  0  # atno 8009 bound_to 7997
  154.4203  140.1130  156.5475 H   0  0  0  0  0  0  0  0  0  0  0  0  # atno 8010 bound_to 7997
  140.6446  143.7692  150.7480 H   0  0  0  0  0  0  0  0  0  0  0  0  # atno 10167 bound_to 10162
  156.0815  130.6014  150.8745 H   0  0  0  0  0  0  0  0  0  0  0  0  # atno 10718 bound_to 10713
  154.3051  135.2758  155.2592 H   0  0  0  0  0  0  0  0  0  0  0  0  # atno 10763 bound_to 10752
  154.5012  135.5807  153.6536 H   0  0  0  0  0  0  0  0  0  0  0  0  # atno 10764 bound_to 10752
  152.9895  135.6158  154.3225 H   0  0  0  0  0  0  0  0  0  0  0  0  # atno 10765 bound_to 10752
  139.8811  134.8786  156.3707 H   0  0  0  0  0  0  0  0  0  0  0  0  # atno 11005 bound_to 11000
  144.6968  140.3468  143.7189 LP  0  0  0  0  0  0  0  0  0  0  0  0  # atno 17320 bound_to 7965
  145.7281  139.1728  143.2446 LP  0  0  0  0  0  0  0  0  0  0  0  0  # atno 17321 bound_to 7965
  140.1330  143.4508  152.2242 LP  0  0  0  0  0  0  0  0  0  0  0  0  # atno 17342 bound_to 10162
  139.5656  144.7433  151.4031 LP  0  0  0  0  0  0  0  0  0  0  0  0  # atno 17343 bound_to 10162
  157.5934  131.0944  150.9081 LP  0  0  0  0  0  0  0  0  0  0  0  0  # atno 17370 bound_to 10713
  156.9253  130.5330  149.5279 LP  0  0  0  0  0  0  0  0  0  0  0  0  # atno 17371 bound_to 10713
  140.9466  133.7479  156.0216 LP  0  0  0  0  0  0  0  0  0  0  0  0  # atno 17394 bound_to 11000
  140.8156  134.3349  157.5398 LP  0  0  0  0  0  0  0  0  0  0  0  0  # atno 17395 bound_to 11000

$$$$
