AV-unprocessed.smi:1921|AV-procd|sdf|7785|dock7
  -GOLD-   22720 9533D 1   1.00000     0.00000
 Structure written by MMmdl.
 27 28  0  0  0  0  0  0  0  0  1 V2000
  151.9853  144.4423  159.3761 C   0  0  0  0  0  0  0  0  0  0  0  0
  152.4644  142.9964  159.1884 C   0  0  2  0  0  0  0  0  0  0  0  0
  151.7827  142.4251  158.0312 N   0  0  0  0  0  0  0  0  0  0  0  0
  151.9074  141.1607  157.6017 C   0  0  0  0  0  0  0  0  0  0  0  0
  152.6309  140.3253  158.1448 O   0  0  0  0  0  0  0  0  0  0  0  0
  151.1459  140.9398  156.5156 N   0  0  0  0  0  0  0  0  0  0  0  0
  151.0014  139.7377  155.7743 C   0  0  0  0  0  0  0  0  0  0  0  0
  150.3993  139.6533  154.5822 N   0  0  0  0  0  0  0  0  0  0  0  0
  150.4017  138.3477  154.0847 C   0  0  0  0  0  0  0  0  0  0  0  0
  151.0150  137.4444  154.9166 C   0  0  0  0  0  0  0  0  0  0  0  0
  151.6184  138.2019  156.3663 S   0  0  0  0  0  0  0  0  0  0  0  0
  152.2695  142.1918  160.4629 C   0  0  0  0  0  0  0  0  0  0  0  0
  152.4667  142.8265  161.8195 C   0  0  0  0  0  0  0  0  0  0  0  0
  153.4413  141.7830  161.3242 C   0  0  0  0  0  0  0  0  0  0  0  0
  152.5117  144.9264  160.1991 H   0  0  0  0  0  0  0  0  0  0  0  0
  150.9179  144.4821  159.5961 H   0  0  0  0  0  0  0  0  0  0  0  0
  152.1641  145.0365  158.4792 H   0  0  0  0  0  0  0  0  0  0  0  0
  153.5346  143.0364  158.9748 H   0  0  0  0  0  0  0  0  0  0  0  0
  151.1657  143.0402  157.5212 H   0  0  0  0  0  0  0  0  0  0  0  0
  150.6064  141.7235  156.1790 H   0  0  0  0  0  0  0  0  0  0  0  0
  149.9432  138.1500  153.1271 H   0  0  0  0  0  0  0  0  0  0  0  0
  151.1481  136.3836  154.7647 H   0  0  0  0  0  0  0  0  0  0  0  0
  151.4545  141.4728  160.4002 H   0  0  0  0  0  0  0  0  0  0  0  0
  152.8123  143.8579  161.8529 H   0  0  0  0  0  0  0  0  0  0  0  0
  151.7802  142.5384  162.6130 H   0  0  0  0  0  0  0  0  0  0  0  0
  153.4047  140.7983  161.7851 H   0  0  0  0  0  0  0  0  0  0  0  0
  154.4325  142.1236  161.0313 H   0  0  0  0  0  0  0  0  0  0  0  0
  1  2  1  0  0  0  0
  1 15  1  0  0  0  0
  1 16  1  0  0  0  0
  1 17  1  0  0  0  0
  2  3  1  0  0  0  0
  2 12  1  0  0  0  0
  2 18  1  0  0  0  0
  3  4  1  0  0  0  0
  3 19  1  0  0  0  0
  4  5  2  0  0  0  0
  4  6  1  0  0  0  0
  6  7  1  0  0  0  0
  6 20  1  0  0  0  0
  7 11  1  0  0  0  0
  7  8  2  0  0  0  0
  8  9  1  0  0  0  0
  9 10  2  0  0  0  0
  9 21  1  0  0  0  0
 10 11  1  0  0  0  0
 10 22  1  0  0  0  0
 12 14  1  0  0  0  0
 12 13  1  0  0  0  0
 12 23  1  0  0  0  0
 13 14  1  0  0  0  0
 13 24  1  0  0  0  0
 13 25  1  0  0  0  0
 14 26  1  0  0  0  0
 14 27  1  0  0  0  0
M  END
> <s_m_source_file>
AV-unprocessed.smi

> <i_m_source_file_index>
1921

> <i_lp_mmshare_version>
43012

> <i_f3d_flags>
0

> <s_epik_input>
W0NIMl0xW0NIMl1bQ0hdMVtDQEhdKFtDSDNdKVtOSF1DKD1PKVtOSF1jMm5bY0hdW2NIXXMy

> <s_epik_cmdline>
J2VwaWtfcHl0aG9uJywgJy1waCcsICc3LjAnLCAnLXRuJywgJzgnLCAnLW1hJywgJzIwMCcsICctbWV0YWxfYmluZGluZycsICctaW1hZScsICc8aW5maWxlLm1hZT4nLCAnLW9tYWUnLCAnPG91dGZpbGUubWFlPic=

> <r_lp_tautomer_probability>
0.999

> <r_epik_Ionization_Penalty>
0.000426276

> <r_epik_Ionization_Penalty_Charging>
0

> <r_epik_Ionization_Penalty_Neutral>
0.000426276

> <r_epik_State_Penalty>
0.000177984

> <r_epik_Charging_Adjusted_Penalty>
0.000177984

> <i_epik_Tot_Q>
0

> <i_epik_Tot_abs_Q>
0

> <r_epik_Metal_State_Penalty>
-0

> <b_epik_Metal_Only>
0

> <s_lp_Force_Field>
OPLS_2005

> <r_lp_Energy>
11.4039

> <b_lp_Chiralities_Consistent>
1

> <s_lp_Variant>
AV-unprocessed.smi:1921-1

> <Gold.Version>
5.8.1

> <Gold.Id.Protein>
6NUR|6NUR_protein|mol2

> <Gold.PLP.Fitness>
42.5696

> <Gold.PLP.PLP>
-31.9005

> <Gold.PLP.part.hbond>
-2.0000

> <Gold.PLP.part.metal>
0.0000

> <Gold.PLP.part.buried>
-3.3796

> <Gold.PLP.part.nonpolar>
-26.1697

> <Gold.PLP.part.repulsive>
0.2898

> <Gold.PLP.ligand.clash>
0.0000

> <Gold.PLP.ligand.torsion>
0.9804

> <Gold.PLP.Chemscore.Hbond>
1.9120

> <Gold.PLP.Chemscore.CHOScore>
1.9441

> <Gold.PLP.Chemscore.Metal>
0.0000

> <Gold.Chemscore.Hbonds>
donor molecule, donor type, donor heavy atom, donor atom, acceptor molecule, acceptor atom, score
      P1  H  7989  7998       L1     8  0.98
      P1  H  7997  8009       L1     5  0.42
      L1  C     9    21       P1  7948  1.00
      L1  C     9    21       P1  7957  0.46

> <Gold.PLP.Chemscore.Internal.Correction>
1.0616

> <Gold.Rescore>
     Score         DG    S(hbond)    S(metal)    S(lipo)     H(rot)  DE(clash)    DE(int)     intcor
     12.33     -14.52       0.90        0.00      79.19       1.26       0.02       2.17       ----

> <Gold.Chemscore.Fitness>
12.3336

> <Gold.Chemscore.DG>
-14.5232

> <Gold.Chemscore.ZeroCoef>
-5.4800

> <Gold.Chemscore.Hbond>
0.8986

> <Gold.Chemscore.Metal>
0.0000

> <Gold.Chemscore.Lipo>
79.1912

> <Gold.Chemscore.Internal_Hbond>
0.0000

> <Gold.Chemscore.DEClash>
0.0178

> <Gold.Chemscore.DEInternal>
2.1718

> <Gold.Chemscore.Rot>
1.2591

> <Gold.Chemscore.Internal.Correction>
   9.000000E+99

> <Gold.Chemscore.Hbonds>
donor molecule, donor type, donor heavy atom, donor atom, acceptor molecule, acceptor atom, score
      P1  H  7989  7998       L1     8  0.18
      P1  H  7997  8009       L1     5  0.27

> <Gold.Chemscore.Hbond.Weighted>
-3.0012

> <Gold.Chemscore.Metal.Weighted>
-0.0000

> <Gold.Chemscore.Lipo.Weighted>
-9.2654

> <Gold.Chemscore.Internal_Hbond.Weighted>
0.0000

> <Gold.Chemscore.DEClash.Weighted>
0.0178

> <Gold.Chemscore.DEInternal.Weighted>
2.1718

> <Gold.Chemscore.Rot.Weighted>
3.2233

> <Gold.Chemscore.Internal.Correction.Weighted>
   9.000000E+99

> <Gold.Protein.RotatedTorsions>
[ 6907 6896 6895 6894 ] final   27.13 input  -60.11 | X-H torsion
[ 7974 7965 7964 7962 ] final -170.99 input  175.53 | X-H torsion
[ 8008 7997 7996 7995 ] final  165.99 input   59.86 | X-H torsion
[ 10167 10162 10161 10158 ] final  -68.25 input  -65.29 | X-H torsion
[ 10718 10713 10712 10709 ] final   72.42 input   66.30 | X-H torsion
[ 10763 10752 10751 10750 ] final -170.89 input  -60.55 | X-H torsion
[ 11005 11000 10999 10996 ] final  103.01 input  -57.11 | X-H torsion

> <Gold.Protein.ActiveResidues>
 VAL166  LYS551  ARG553  GLY616  TRP617  ASP618  TYR619  PRO620  LYS621  CYS622 
 ASP623  PHE694  ASN695  SER759  ASP760  ASP761  ALA762  ILE779  LEU786  VAL792 
 PHE793  MET794  SER795  GLU796  ALA797  LYS798  CYS799  TRP800  GLU811  SER814 

> <Gold.Protein.RotatedAtoms>
  151.9977  134.9945  160.0563 H   0  0  0  0  0  0  0  0  0  0  0  0  # atno 6907 bound_to 6896
  152.1548  133.4540  159.4840 H   0  0  0  0  0  0  0  0  0  0  0  0  # atno 6908 bound_to 6896
  150.6880  134.2062  159.4384 H   0  0  0  0  0  0  0  0  0  0  0  0  # atno 6909 bound_to 6896
  144.7162  140.1989  143.6340 H   0  0  0  0  0  0  0  0  0  0  0  0  # atno 7974 bound_to 7965
  156.1755  140.1655  156.8370 H   0  0  0  0  0  0  0  0  0  0  0  0  # atno 8008 bound_to 7997
  154.5303  140.0758  156.8366 H   0  0  0  0  0  0  0  0  0  0  0  0  # atno 8009 bound_to 7997
  155.3422  140.3385  155.4241 H   0  0  0  0  0  0  0  0  0  0  0  0  # atno 8010 bound_to 7997
  140.5522  143.2312  151.6890 H   0  0  0  0  0  0  0  0  0  0  0  0  # atno 10167 bound_to 10162
  157.6500  130.9578  150.0927 H   0  0  0  0  0  0  0  0  0  0  0  0  # atno 10718 bound_to 10713
  154.6366  135.2893  155.0154 H   0  0  0  0  0  0  0  0  0  0  0  0  # atno 10763 bound_to 10752
  154.1295  135.6535  153.4923 H   0  0  0  0  0  0  0  0  0  0  0  0  # atno 10764 bound_to 10752
  153.0305  135.5307  154.7215 H   0  0  0  0  0  0  0  0  0  0  0  0  # atno 10765 bound_to 10752
  139.8781  134.9247  156.5145 H   0  0  0  0  0  0  0  0  0  0  0  0  # atno 11005 bound_to 11000
  145.8699  139.2266  143.1667 LP  0  0  0  0  0  0  0  0  0  0  0  0  # atno 17320 bound_to 7965
  146.0095  140.8448  142.9978 LP  0  0  0  0  0  0  0  0  0  0  0  0  # atno 17321 bound_to 7965
  139.5032  144.3800  152.0386 LP  0  0  0  0  0  0  0  0  0  0  0  0  # atno 17342 bound_to 10162
  140.2918  144.3745  150.6086 LP  0  0  0  0  0  0  0  0  0  0  0  0  # atno 17343 bound_to 10162
  156.1871  130.3653  149.8958 LP  0  0  0  0  0  0  0  0  0  0  0  0  # atno 17370 bound_to 10713
  156.6895  130.8890  151.3586 LP  0  0  0  0  0  0  0  0  0  0  0  0  # atno 17371 bound_to 10713
  140.8496  133.8142  155.9155 LP  0  0  0  0  0  0  0  0  0  0  0  0  # atno 17394 bound_to 11000
  140.9158  134.2204  157.4958 LP  0  0  0  0  0  0  0  0  0  0  0  0  # atno 17395 bound_to 11000

$$$$
