AV-unprocessed.smi:1157|AV-procd|sdf|4908|dock4
  -GOLD-   22720 3483D 1   1.00000     0.00000
 Structure written by MMmdl.
 55 57  0  0  0  0  0  0  0  0  2 V2000
  144.0326  136.9084  152.5142 C   0  0  0  0  0  0  0  0  0  0  0  0
  145.3309  136.1781  152.0937 C   0  0  0  0  0  0  0  0  0  0  0  0
  145.9368  136.9661  150.9041 C   0  0  0  0  0  0  0  0  0  0  0  0
  146.3416  136.3213  153.2676 C   0  0  0  0  0  0  0  0  0  0  0  0
  146.8422  137.6876  153.3988 N   0  0  0  0  0  0  0  0  0  0  0  0
  147.7367  138.0956  154.3078 C   0  0  0  0  0  0  0  0  0  0  0  0
  148.2509  137.3482  155.1393 O   0  0  0  0  0  0  0  0  0  0  0  0
  148.0039  139.4061  154.1728 N   0  0  0  0  0  0  0  0  0  0  0  0
  148.8478  140.2208  154.9752 C   0  0  0  0  0  0  0  0  0  0  0  0
  149.7229  139.5796  155.8769 C   0  0  0  0  0  0  0  0  0  0  0  0
  150.5930  140.3487  156.6768 C   0  0  0  0  0  0  0  0  0  0  0  0
  150.5868  141.7589  156.5626 C   0  0  0  0  0  0  0  0  0  0  0  0
  151.4335  142.5899  157.3200 N   0  0  0  0  0  0  0  0  0  0  0  0
  151.9548  142.1738  158.6141 C   0  0  0  0  0  0  0  0  0  0  0  0
  152.2249  143.4714  159.3853 C   0  0  0  0  0  0  0  0  0  0  0  0
  152.3360  144.5388  158.2963 C   0  0  0  0  0  0  0  0  0  0  0  0
  151.3717  144.0394  157.2214 C   0  0  0  0  0  0  0  0  0  0  0  0
  149.7416  142.3313  155.6725 N   0  3  0  0  0  0  0  0  0  0  0  0
  148.8907  141.6331  154.8897 C   0  0  0  0  0  0  0  0  0  0  0  0
  145.1060  134.7501  151.7313 N   0  0  0  0  0  0  0  0  0  0  0  0
  144.3545  134.5406  150.4879 C   0  0  0  0  0  0  0  0  0  0  0  0
  144.0518  133.0534  150.2386 C   0  0  0  0  0  0  0  0  0  0  0  0
  145.2662  132.3136  150.2185 O   0  0  0  0  0  0  0  0  0  0  0  0
  145.9997  132.4417  151.4302 C   0  0  0  0  0  0  0  0  0  0  0  0
  146.3183  133.9241  151.6898 C   0  0  0  0  0  0  0  0  0  0  0  0
  144.2334  137.9513  152.7617 H   0  0  0  0  0  0  0  0  0  0  0  0
  143.5753  136.4605  153.3962 H   0  0  0  0  0  0  0  0  0  0  0  0
  143.2863  136.9139  151.7201 H   0  0  0  0  0  0  0  0  0  0  0  0
  146.2644  137.9611  151.2079 H   0  0  0  0  0  0  0  0  0  0  0  0
  145.2177  137.1182  150.0993 H   0  0  0  0  0  0  0  0  0  0  0  0
  146.8025  136.4556  150.4807 H   0  0  0  0  0  0  0  0  0  0  0  0
  145.8654  136.0132  154.2007 H   0  0  0  0  0  0  0  0  0  0  0  0
  147.1912  135.6486  153.1480 H   0  0  0  0  0  0  0  0  0  0  0  0
  146.4726  138.3657  152.7483 H   0  0  0  0  0  0  0  0  0  0  0  0
  147.5755  139.8672  153.3835 H   0  0  0  0  0  0  0  0  0  0  0  0
  149.7294  138.5023  155.9599 H   0  0  0  0  0  0  0  0  0  0  0  0
  151.2605  139.8466  157.3615 H   0  0  0  0  0  0  0  0  0  0  0  0
  151.2567  141.5357  159.1566 H   0  0  0  0  0  0  0  0  0  0  0  0
  152.8794  141.6170  158.4588 H   0  0  0  0  0  0  0  0  0  0  0  0
  151.3738  143.6977  160.0292 H   0  0  0  0  0  0  0  0  0  0  0  0
  153.1132  143.4120  160.0146 H   0  0  0  0  0  0  0  0  0  0  0  0
  152.0939  145.5407  158.6517 H   0  0  0  0  0  0  0  0  0  0  0  0
  153.3526  144.5570  157.9016 H   0  0  0  0  0  0  0  0  0  0  0  0
  151.6578  144.3900  156.2291 H   0  0  0  0  0  0  0  0  0  0  0  0
  150.3552  144.3759  157.4297 H   0  0  0  0  0  0  0  0  0  0  0  0
  148.2943  142.2344  154.2202 H   0  0  0  0  0  0  0  0  0  0  0  0
  143.4050  135.0720  150.5119 H   0  0  0  0  0  0  0  0  0  0  0  0
  144.9149  134.9310  149.6382 H   0  0  0  0  0  0  0  0  0  0  0  0
  143.3891  132.6600  151.0110 H   0  0  0  0  0  0  0  0  0  0  0  0
  143.5417  132.9259  149.2839 H   0  0  0  0  0  0  0  0  0  0  0  0
  145.4273  132.0195  152.2574 H   0  0  0  0  0  0  0  0  0  0  0  0
  146.9210  131.8644  151.3514 H   0  0  0  0  0  0  0  0  0  0  0  0
  146.9913  134.2803  150.9097 H   0  0  0  0  0  0  0  0  0  0  0  0
  146.8631  133.9841  152.6303 H   0  0  0  0  0  0  0  0  0  0  0  0
  149.7490  143.3476  155.5846 H   0  0  0  0  0  0  0  0  0  0  0  0
  1  2  1  0  0  0  0
  1 26  1  0  0  0  0
  1 27  1  0  0  0  0
  1 28  1  0  0  0  0
  2  3  1  0  0  0  0
  2  4  1  0  0  0  0
  2 20  1  0  0  0  0
  3 29  1  0  0  0  0
  3 30  1  0  0  0  0
  3 31  1  0  0  0  0
  4  5  1  0  0  0  0
  4 32  1  0  0  0  0
  4 33  1  0  0  0  0
  5  6  1  0  0  0  0
  5 34  1  0  0  0  0
  6  7  2  0  0  0  0
  6  8  1  0  0  0  0
  8  9  1  0  0  0  0
  8 35  1  0  0  0  0
  9 19  1  0  0  0  0
  9 10  2  0  0  0  0
 10 11  1  0  0  0  0
 10 36  1  0  0  0  0
 11 12  2  0  0  0  0
 11 37  1  0  0  0  0
 12 13  1  0  0  0  0
 12 18  1  0  0  0  0
 13 17  1  0  0  0  0
 13 14  1  0  0  0  0
 14 15  1  0  0  0  0
 14 38  1  0  0  0  0
 14 39  1  0  0  0  0
 15 16  1  0  0  0  0
 15 40  1  0  0  0  0
 15 41  1  0  0  0  0
 16 17  1  0  0  0  0
 16 42  1  0  0  0  0
 16 43  1  0  0  0  0
 17 44  1  0  0  0  0
 17 45  1  0  0  0  0
 18 19  2  0  0  0  0
 18 55  1  0  0  0  0
 19 46  1  0  0  0  0
 20 25  1  0  0  0  0
 20 21  1  0  0  0  0
 21 22  1  0  0  0  0
 21 47  1  0  0  0  0
 21 48  1  0  0  0  0
 22 23  1  0  0  0  0
 22 49  1  0  0  0  0
 22 50  1  0  0  0  0
 23 24  1  0  0  0  0
 24 25  1  0  0  0  0
 24 51  1  0  0  0  0
 24 52  1  0  0  0  0
 25 53  1  0  0  0  0
 25 54  1  0  0  0  0
M  CHG  1  18   1
M  END
> <s_m_source_file>
AV-unprocessed.smi

> <i_m_source_file_index>
1157

> <i_lp_mmshare_version>
43012

> <i_f3d_flags>
0

> <s_epik_input>
W0NIMl0xW0NIMl1PW0NIMl1bQ0gyXU4xQyhbQ0gzXSkoW0NIM10pW0NIMl1bTkhdQyg9TylbTkhdYzJbY0hdW2NIXWMobltjSF0yKU4zW0NIMl1bQ0gyXVtDSDJdW0NIMl0z

> <s_epik_cmdline>
J2VwaWtfcHl0aG9uJywgJy1waCcsICc3LjAnLCAnLXRuJywgJzgnLCAnLW1hJywgJzIwMCcsICctbWV0YWxfYmluZGluZycsICctaW1hZScsICc8aW5maWxlLm1hZT4nLCAnLW9tYWUnLCAnPG91dGZpbGUubWFlPic=

> <r_epik_Ionization_Penalty>
1.36967

> <r_epik_Ionization_Penalty_Charging>
1.10366

> <r_epik_Ionization_Penalty_Neutral>
0.266011

> <r_epik_State_Penalty>
1.45237

> <r_epik_Charging_Adjusted_Penalty>
2.55603

> <i_epik_Tot_Q>
1

> <i_epik_Tot_abs_Q>
1

> <r_epik_Metal_State_Penalty>
1.53545

> <b_epik_Metal_Only>
0

> <s_lp_Force_Field>
OPLS_2005

> <r_lp_Energy>
74.6442

> <b_lp_Chiralities_Consistent>
1

> <s_lp_Variant>
AV-unprocessed.smi:1157-3

> <Gold.Version>
5.8.1

> <Gold.Id.Protein>
6NUR|6NUR_protein|mol2

> <Gold.PLP.Fitness>
46.0057

> <Gold.PLP.PLP>
-40.8598

> <Gold.PLP.part.hbond>
-1.9355

> <Gold.PLP.part.metal>
0.0000

> <Gold.PLP.part.buried>
1.3606

> <Gold.PLP.part.nonpolar>
-42.1749

> <Gold.PLP.part.repulsive>
0.5506

> <Gold.PLP.ligand.clash>
0.0000

> <Gold.PLP.ligand.torsion>
0.5850

> <Gold.PLP.Chemscore.Hbond>
2.0000

> <Gold.PLP.Chemscore.CHOScore>
0.0000

> <Gold.PLP.Chemscore.Metal>
0.0000

> <Gold.Chemscore.Hbonds>
donor molecule, donor type, donor heavy atom, donor atom, acceptor molecule, acceptor atom, score
      L1  H    18    55       P1  8028  1.89

> <Gold.PLP.Chemscore.Internal.Correction>
0.3159

> <Gold.Rescore>
     Score         DG    S(hbond)    S(metal)    S(lipo)     H(rot)  DE(clash)    DE(int)     intcor
     14.43     -19.00       0.94        0.00     119.39       1.40       2.59       1.98       ----

> <Gold.Chemscore.Fitness>
14.4298

> <Gold.Chemscore.DG>
-19.0014

> <Gold.Chemscore.ZeroCoef>
-5.4800

> <Gold.Chemscore.Hbond>
0.9413

> <Gold.Chemscore.Metal>
0.0000

> <Gold.Chemscore.Lipo>
119.3862

> <Gold.Chemscore.Internal_Hbond>
0.0000

> <Gold.Chemscore.DEClash>
2.5949

> <Gold.Chemscore.DEInternal>
1.9767

> <Gold.Chemscore.Rot>
1.4027

> <Gold.Chemscore.Internal.Correction>
   9.000000E+99

> <Gold.Chemscore.Hbonds>
donor molecule, donor type, donor heavy atom, donor atom, acceptor molecule, acceptor atom, score
      L1  H    18    55       P1  8028  0.90

> <Gold.Chemscore.Hbond.Weighted>
-3.1440

> <Gold.Chemscore.Metal.Weighted>
-0.0000

> <Gold.Chemscore.Lipo.Weighted>
-13.9682

> <Gold.Chemscore.Internal_Hbond.Weighted>
0.0000

> <Gold.Chemscore.DEClash.Weighted>
2.5949

> <Gold.Chemscore.DEInternal.Weighted>
1.9767

> <Gold.Chemscore.Rot.Weighted>
3.5908

> <Gold.Chemscore.Internal.Correction.Weighted>
   9.000000E+99

> <Gold.Protein.RotatedTorsions>
[ 6907 6896 6895 6894 ] final  117.15 input  -60.11 | X-H torsion
[ 7974 7965 7964 7962 ] final  106.83 input  175.53 | X-H torsion
[ 8008 7997 7996 7995 ] final   -9.74 input   59.86 | X-H torsion
[ 10167 10162 10161 10158 ] final   11.26 input  -65.29 | X-H torsion
[ 10718 10713 10712 10709 ] final -161.53 input   66.30 | X-H torsion
[ 10763 10752 10751 10750 ] final -175.08 input  -60.55 | X-H torsion
[ 11005 11000 10999 10996 ] final  -53.22 input  -57.11 | X-H torsion

> <Gold.Protein.ActiveResidues>
 VAL166  LYS551  ARG553  GLY616  TRP617  ASP618  TYR619  PRO620  LYS621  CYS622 
 ASP623  PHE694  ASN695  SER759  ASP760  ASP761  ALA762  ILE779  LEU786  VAL792 
 PHE793  MET794  SER795  GLU796  ALA797  LYS798  CYS799  TRP800  GLU811  SER814 

> <Gold.Protein.RotatedAtoms>
  152.4631  133.7865  159.6878 H   0  0  0  0  0  0  0  0  0  0  0  0  # atno 6907 bound_to 6896
  150.8584  133.7671  159.3007 H   0  0  0  0  0  0  0  0  0  0  0  0  # atno 6908 bound_to 6896
  151.5245  135.1070  159.9939 H   0  0  0  0  0  0  0  0  0  0  0  0  # atno 6909 bound_to 6896
  145.3015  139.2568  143.3811 H   0  0  0  0  0  0  0  0  0  0  0  0  # atno 7974 bound_to 7965
  154.5619  140.2347  155.8323 H   0  0  0  0  0  0  0  0  0  0  0  0  # atno 8008 bound_to 7997
  156.2036  140.3046  155.9538 H   0  0  0  0  0  0  0  0  0  0  0  0  # atno 8009 bound_to 7997
  155.2873  140.0425  157.3011 H   0  0  0  0  0  0  0  0  0  0  0  0  # atno 8010 bound_to 7997
  140.6143  143.8342  150.7100 H   0  0  0  0  0  0  0  0  0  0  0  0  # atno 10167 bound_to 10162
  156.5976  130.8796  151.2905 H   0  0  0  0  0  0  0  0  0  0  0  0  # atno 10718 bound_to 10713
  154.5886  135.2843  155.0659 H   0  0  0  0  0  0  0  0  0  0  0  0  # atno 10763 bound_to 10752
  154.1968  135.6431  153.5079 H   0  0  0  0  0  0  0  0  0  0  0  0  # atno 10764 bound_to 10752
  153.0113  135.5459  154.6564 H   0  0  0  0  0  0  0  0  0  0  0  0  # atno 10765 bound_to 10752
  141.0965  133.6624  156.4140 H   0  0  0  0  0  0  0  0  0  0  0  0  # atno 11005 bound_to 11000
  146.3150  140.3530  142.8658 LP  0  0  0  0  0  0  0  0  0  0  0  0  # atno 17320 bound_to 7965
  144.9090  140.7734  143.5819 LP  0  0  0  0  0  0  0  0  0  0  0  0  # atno 17321 bound_to 7965
  140.1917  143.4031  152.1858 LP  0  0  0  0  0  0  0  0  0  0  0  0  # atno 17342 bound_to 10162
  139.5386  144.7234  151.4810 LP  0  0  0  0  0  0  0  0  0  0  0  0  # atno 17343 bound_to 10162
  157.7288  130.9662  150.1758 LP  0  0  0  0  0  0  0  0  0  0  0  0  # atno 17370 bound_to 10713
  156.2497  130.3699  149.8246 LP  0  0  0  0  0  0  0  0  0  0  0  0  # atno 17371 bound_to 10713
  140.5128  134.6379  157.5290 LP  0  0  0  0  0  0  0  0  0  0  0  0  # atno 17394 bound_to 11000
  139.9803  134.7148  155.9872 LP  0  0  0  0  0  0  0  0  0  0  0  0  # atno 17395 bound_to 11000

$$$$
