AV-unprocessed.smi:652|AV-procd|sdf|3192|dock7
  -GOLD-   22720 0113D 1   1.00000     0.00000
 Structure written by MMmdl.
 48 49  0  0  0  0  0  0  0  0  2 V2000
  152.7216  144.9371  158.2735 C   0  0  0  0  0  0  0  0  0  0  0  0
  151.1973  144.9178  158.4480 C   0  0  0  0  0  0  0  0  0  0  0  0
  150.7925  145.0070  159.9277 C   0  0  0  0  0  0  0  0  0  0  0  0
  150.6545  143.7046  157.8427 N   0  0  0  0  0  0  0  0  0  0  0  0
  150.9967  142.4491  158.1727 C   0  0  0  0  0  0  0  0  0  0  0  0
  151.8374  142.1797  159.0307 O   0  0  0  0  0  0  0  0  0  0  0  0
  150.2856  141.3262  157.4129 C   0  0  0  0  0  0  0  0  0  0  0  0
  151.0140  139.9729  157.5471 C   0  0  0  0  0  0  0  0  0  0  0  0
  150.8698  139.1229  156.3385 N   0  3  1  0  0  0  0  0  0  0  0  0
  152.1368  139.0102  155.5771 C   0  0  0  0  0  0  0  0  0  0  0  0
  151.9347  138.1557  154.3152 C   0  0  0  0  0  0  0  0  0  0  0  0
  151.4298  136.8785  154.6827 O   0  0  0  0  0  0  0  0  0  0  0  0
  150.1592  136.9656  155.3195 C   0  0  1  0  0  0  0  0  0  0  0  0
  149.6573  135.5432  155.6027 C   0  0  0  0  0  0  0  0  0  0  0  0
  149.3988  134.8045  154.3742 N   0  0  0  0  0  0  0  0  0  0  0  0
  149.5029  133.4070  154.3521 C   0  0  0  0  0  0  0  0  0  0  0  0
  148.6646  132.6725  153.4900 C   0  0  0  0  0  0  0  0  0  0  0  0
  148.7899  131.2723  153.4952 C   0  0  0  0  0  0  0  0  0  0  0  0
  149.7446  130.7127  154.3638 C   0  0  0  0  0  0  0  0  0  0  0  0
  150.5243  131.4665  155.1711 N   0  0  0  0  0  0  0  0  0  0  0  0
  150.4039  132.7988  155.1646 N   0  0  0  0  0  0  0  0  0  0  0  0
  150.3176  137.7749  156.6214 C   0  0  0  0  0  0  0  0  0  0  0  0
  153.1515  145.8487  158.6896 H   0  0  0  0  0  0  0  0  0  0  0  0
  152.9975  144.8965  157.2190 H   0  0  0  0  0  0  0  0  0  0  0  0
  153.1914  144.0899  158.7745 H   0  0  0  0  0  0  0  0  0  0  0  0
  150.7950  145.7882  157.9262 H   0  0  0  0  0  0  0  0  0  0  0  0
  151.1821  145.9169  160.3850 H   0  0  0  0  0  0  0  0  0  0  0  0
  151.1753  144.1592  160.4969 H   0  0  0  0  0  0  0  0  0  0  0  0
  149.7081  145.0229  160.0417 H   0  0  0  0  0  0  0  0  0  0  0  0
  149.9600  143.8318  157.1205 H   0  0  0  0  0  0  0  0  0  0  0  0
  149.2579  141.2473  157.7682 H   0  0  0  0  0  0  0  0  0  0  0  0
  150.2328  141.6166  156.3630 H   0  0  0  0  0  0  0  0  0  0  0  0
  152.0780  140.1570  157.7061 H   0  0  0  0  0  0  0  0  0  0  0  0
  150.6599  139.4308  158.4256 H   0  0  0  0  0  0  0  0  0  0  0  0
  152.4906  140.0024  155.2944 H   0  0  0  0  0  0  0  0  0  0  0  0
  152.9050  138.5637  156.2107 H   0  0  0  0  0  0  0  0  0  0  0  0
  151.2535  138.6441  153.6167 H   0  0  0  0  0  0  0  0  0  0  0  0
  152.8837  138.0244  153.7948 H   0  0  0  0  0  0  0  0  0  0  0  0
  149.4497  137.4719  154.6619 H   0  0  0  0  0  0  0  0  0  0  0  0
  150.3808  135.0009  156.2132 H   0  0  0  0  0  0  0  0  0  0  0  0
  148.7300  135.5971  156.1744 H   0  0  0  0  0  0  0  0  0  0  0  0
  149.2923  135.3124  153.5079 H   0  0  0  0  0  0  0  0  0  0  0  0
  147.9491  133.1622  152.8458 H   0  0  0  0  0  0  0  0  0  0  0  0
  148.1783  130.6502  152.8588 H   0  0  0  0  0  0  0  0  0  0  0  0
  149.8863  129.6433  154.4133 H   0  0  0  0  0  0  0  0  0  0  0  0
  150.9764  137.2488  157.3143 H   0  0  0  0  0  0  0  0  0  0  0  0
  149.3458  137.8591  157.1061 H   0  0  0  0  0  0  0  0  0  0  0  0
  150.2132  139.5912  155.7303 H   0  0  0  0  0  0  0  0  0  0  0  0
  1  2  1  0  0  0  0
  1 23  1  0  0  0  0
  1 24  1  0  0  0  0
  1 25  1  0  0  0  0
  2  3  1  0  0  0  0
  2  4  1  0  0  0  0
  2 26  1  0  0  0  0
  3 27  1  0  0  0  0
  3 28  1  0  0  0  0
  3 29  1  0  0  0  0
  4  5  1  0  0  0  0
  4 30  1  0  0  0  0
  5  6  2  0  0  0  0
  5  7  1  0  0  0  0
  7  8  1  0  0  0  0
  7 31  1  0  0  0  0
  7 32  1  0  0  0  0
  8  9  1  0  0  0  0
  8 33  1  0  0  0  0
  8 34  1  0  0  0  0
  9 22  1  0  0  0  0
  9 10  1  0  0  0  0
  9 48  1  0  0  0  0
 10 11  1  0  0  0  0
 10 35  1  0  0  0  0
 10 36  1  0  0  0  0
 11 12  1  0  0  0  0
 11 37  1  0  0  0  0
 11 38  1  0  0  0  0
 12 13  1  0  0  0  0
 13 14  1  0  0  0  0
 13 22  1  0  0  0  0
 13 39  1  0  0  0  0
 14 15  1  0  0  0  0
 14 40  1  0  0  0  0
 14 41  1  0  0  0  0
 15 16  1  0  0  0  0
 15 42  1  0  0  0  0
 16 21  1  0  0  0  0
 16 17  2  0  0  0  0
 17 18  1  0  0  0  0
 17 43  1  0  0  0  0
 18 19  2  0  0  0  0
 18 44  1  0  0  0  0
 19 20  1  0  0  0  0
 19 45  1  0  0  0  0
 20 21  2  0  0  0  0
 22 46  1  0  0  0  0
 22 47  1  0  0  0  0
M  CHG  1   9   1
M  END
> <s_m_source_file>
AV-unprocessed.smi

> <i_m_source_file_index>
652

> <i_lp_mmshare_version>
43012

> <i_f3d_flags>
0

> <s_epik_input>
W0NIM11bQ0hdKFtDSDNdKVtOSF1DKD1PKVtDSDJdW0NIMl1OMVtDSDJdW0NIMl1PW0NASF0oW0NIMl0xKVtDSDJdW05IXWMyW2NIXVtjSF1bY0hdbm4y

> <s_epik_cmdline>
J2VwaWtfcHl0aG9uJywgJy1waCcsICc3LjAnLCAnLXRuJywgJzgnLCAnLW1hJywgJzIwMCcsICctbWV0YWxfYmluZGluZycsICctaW1hZScsICc8aW5maWxlLm1hZT4nLCAnLW9tYWUnLCAnPG91dGZpbGUubWFlPic=

> <r_lp_tautomer_probability>
0.999978

> <r_epik_Ionization_Penalty>
0.433079

> <r_epik_Ionization_Penalty_Charging>
0.413784

> <r_epik_Ionization_Penalty_Neutral>
0.0192945

> <r_epik_State_Penalty>
0.425138

> <r_epik_Charging_Adjusted_Penalty>
0.838922

> <i_epik_Tot_Q>
1

> <i_epik_Tot_abs_Q>
1

> <r_epik_Metal_State_Penalty>
0.422073

> <b_epik_Metal_Only>
0

> <s_lp_Force_Field>
OPLS_2005

> <r_lp_Energy>
21.6039

> <b_lp_Chiralities_Consistent>
1

> <s_lp_Variant>
AV-unprocessed.smi:652-1

> <Gold.Version>
5.8.1

> <Gold.Id.Protein>
6NUR|6NUR_protein|mol2

> <Gold.PLP.Fitness>
47.1138

> <Gold.PLP.PLP>
-41.1401

> <Gold.PLP.part.hbond>
-3.0000

> <Gold.PLP.part.metal>
0.0000

> <Gold.PLP.part.buried>
-8.2070

> <Gold.PLP.part.nonpolar>
-30.3526

> <Gold.PLP.part.repulsive>
0.2474

> <Gold.PLP.ligand.clash>
0.0000

> <Gold.PLP.ligand.torsion>
1.5644

> <Gold.PLP.Chemscore.Hbond>
3.0000

> <Gold.PLP.Chemscore.CHOScore>
0.0000

> <Gold.PLP.Chemscore.Metal>
0.0000

> <Gold.Chemscore.Hbonds>
donor molecule, donor type, donor heavy atom, donor atom, acceptor molecule, acceptor atom, score
      L1  H     4    30       P1  8028  1.00
      L1  H    15    42       P1  7948  1.00
      P1  H 10752 10763       L1    12  1.00

> <Gold.PLP.Chemscore.Internal.Correction>
0.1024

> <Gold.Rescore>
     Score         DG    S(hbond)    S(metal)    S(lipo)     H(rot)  DE(clash)    DE(int)     intcor
     13.97     -16.53       1.81        0.00      92.24       2.26       0.03       2.54       ----

> <Gold.Chemscore.Fitness>
13.9691

> <Gold.Chemscore.DG>
-16.5295

> <Gold.Chemscore.ZeroCoef>
-5.4800

> <Gold.Chemscore.Hbond>
1.8087

> <Gold.Chemscore.Metal>
0.0000

> <Gold.Chemscore.Lipo>
92.2446

> <Gold.Chemscore.Internal_Hbond>
0.0000

> <Gold.Chemscore.DEClash>
0.0252

> <Gold.Chemscore.DEInternal>
2.5352

> <Gold.Chemscore.Rot>
2.2594

> <Gold.Chemscore.Internal.Correction>
   9.000000E+99

> <Gold.Chemscore.Hbonds>
donor molecule, donor type, donor heavy atom, donor atom, acceptor molecule, acceptor atom, score
      L1  H     4    30       P1  8028  0.88
      L1  H    15    42       P1  7948  0.26
      P1  H 10752 10763       L1    12  0.44

> <Gold.Chemscore.Hbond.Weighted>
-6.0410

> <Gold.Chemscore.Metal.Weighted>
-0.0000

> <Gold.Chemscore.Lipo.Weighted>
-10.7926

> <Gold.Chemscore.Internal_Hbond.Weighted>
0.0000

> <Gold.Chemscore.DEClash.Weighted>
0.0252

> <Gold.Chemscore.DEInternal.Weighted>
2.5352

> <Gold.Chemscore.Rot.Weighted>
5.7841

> <Gold.Chemscore.Internal.Correction.Weighted>
   9.000000E+99

> <Gold.Protein.RotatedTorsions>
[ 6907 6896 6895 6894 ] final -115.10 input  -60.11 | X-H torsion
[ 7974 7965 7964 7962 ] final    3.12 input  175.53 | X-H torsion
[ 8008 7997 7996 7995 ] final   11.11 input   59.86 | X-H torsion
[ 10167 10162 10161 10158 ] final  -42.75 input  -65.29 | X-H torsion
[ 10718 10713 10712 10709 ] final   56.03 input   66.30 | X-H torsion
[ 10763 10752 10751 10750 ] final   42.00 input  -60.55 | X-H torsion
[ 11005 11000 10999 10996 ] final -120.65 input  -57.11 | X-H torsion

> <Gold.Protein.ActiveResidues>
 VAL166  LYS551  ARG553  GLY616  TRP617  ASP618  TYR619  PRO620  LYS621  CYS622 
 ASP623  PHE694  ASN695  SER759  ASP760  ASP761  ALA762  ILE779  LEU786  VAL792 
 PHE793  MET794  SER795  GLU796  ALA797  LYS798  CYS799  TRP800  GLU811  SER814 

> <Gold.Protein.RotatedAtoms>
  150.7952  133.8706  159.3257 H   0  0  0  0  0  0  0  0  0  0  0  0  # atno 6907 bound_to 6896
  151.6533  135.0997  160.0174 H   0  0  0  0  0  0  0  0  0  0  0  0  # atno 6908 bound_to 6896
  152.4033  133.6811  159.6370 H   0  0  0  0  0  0  0  0  0  0  0  0  # atno 6909 bound_to 6896
  146.2445  140.0733  142.8361 H   0  0  0  0  0  0  0  0  0  0  0  0  # atno 7974 bound_to 7965
  154.8025  140.2854  155.5911 H   0  0  0  0  0  0  0  0  0  0  0  0  # atno 8008 bound_to 7997
  156.2979  140.2584  156.2825 H   0  0  0  0  0  0  0  0  0  0  0  0  # atno 8009 bound_to 7997
  154.9542  140.0379  157.2148 H   0  0  0  0  0  0  0  0  0  0  0  0  # atno 8010 bound_to 7997
  140.6958  143.3020  151.3253 H   0  0  0  0  0  0  0  0  0  0  0  0  # atno 10167 bound_to 10162
  157.5396  130.8688  149.8803 H   0  0  0  0  0  0  0  0  0  0  0  0  # atno 10718 bound_to 10713
  152.9894  135.6145  154.2878 H   0  0  0  0  0  0  0  0  0  0  0  0  # atno 10763 bound_to 10752
  154.2605  135.2782  155.2782 H   0  0  0  0  0  0  0  0  0  0  0  0  # atno 10764 bound_to 10752
  154.5210  135.5815  153.6738 H   0  0  0  0  0  0  0  0  0  0  0  0  # atno 10765 bound_to 10752
  141.0128  134.0239  157.3390 H   0  0  0  0  0  0  0  0  0  0  0  0  # atno 11005 bound_to 11000
  145.0797  140.9212  143.4833 LP  0  0  0  0  0  0  0  0  0  0  0  0  # atno 17320 bound_to 7965
  145.0884  139.2908  143.5748 LP  0  0  0  0  0  0  0  0  0  0  0  0  # atno 17321 bound_to 7965
  139.6412  144.0535  152.2556 LP  0  0  0  0  0  0  0  0  0  0  0  0  # atno 17342 bound_to 10162
  140.0042  144.6271  150.7704 LP  0  0  0  0  0  0  0  0  0  0  0  0  # atno 17343 bound_to 10162
  156.0486  130.3722  150.1256 LP  0  0  0  0  0  0  0  0  0  0  0  0  # atno 17370 bound_to 10713
  156.9437  130.9752  151.3511 LP  0  0  0  0  0  0  0  0  0  0  0  0  # atno 17371 bound_to 10713
  139.9100  135.0188  156.7649 LP  0  0  0  0  0  0  0  0  0  0  0  0  # atno 17394 bound_to 11000
  140.6705  133.9564  155.7854 LP  0  0  0  0  0  0  0  0  0  0  0  0  # atno 17395 bound_to 11000

$$$$
