AV-unprocessed.smi:1942|AV-procd|sdf|7850|dock2
  -GOLD-   22720 9593D 1   1.00000     0.00000
 Structure written by MMmdl.
 36 38  0  0  0  0  0  0  0  0  2 V2000
  147.5131  139.5824  155.5703 O   0  0  0  0  0  0  0  0  0  0  0  0
  147.2004  140.6741  155.0950 C   0  0  0  0  0  0  0  0  0  0  0  0
  145.8308  141.1951  155.1715 C   0  0  0  0  0  0  0  0  0  0  0  0
  145.5067  142.4053  154.6743 C   0  0  0  0  0  0  0  0  0  0  0  0
  146.5126  143.2293  154.0470 C   0  0  0  0  0  0  0  0  0  0  0  0
  147.7641  142.7508  153.9653 C   0  0  0  0  0  0  0  0  0  0  0  0
  148.1106  141.4831  154.4716 N   0  0  0  0  0  0  0  0  0  0  0  0
  149.5114  141.0663  154.3181 C   0  0  0  0  0  0  0  0  0  0  0  0
  150.3165  141.1698  155.5800 C   0  0  0  0  0  0  0  0  0  0  0  0
  150.5065  142.2891  156.3374 N   0  3  0  0  0  0  0  0  0  0  0  0
  151.3066  141.9877  157.4392 C   0  0  0  0  0  0  0  0  0  0  0  0
  151.7678  142.7919  158.4765 C   0  0  0  0  0  0  0  0  0  0  0  0
  152.5717  142.1682  159.4534 C   0  0  0  0  0  0  0  0  0  0  0  0
  153.1791  143.1021  160.7704 Cl  0  0  0  0  0  0  0  0  0  0  0  0
  152.8881  140.7963  159.3730 C   0  0  0  0  0  0  0  0  0  0  0  0
  152.4151  139.9912  158.3159 C   0  0  0  0  0  0  0  0  0  0  0  0
  151.6192  140.6159  157.3558 C   0  0  0  0  0  0  0  0  0  0  0  0
  150.9862  140.1529  156.1955 N   0  0  0  0  0  0  0  0  0  0  0  0
  151.1103  138.7363  155.8152 C   0  0  0  0  0  0  0  0  0  0  0  0
  151.7729  138.5436  154.4406 C   0  0  0  0  0  0  0  0  0  0  0  0
  151.8149  137.1794  154.0784 O   0  0  0  0  0  0  0  0  0  0  0  0
  145.0647  140.5924  155.6373 H   0  0  0  0  0  0  0  0  0  0  0  0
  144.4891  142.7608  154.7446 H   0  0  0  0  0  0  0  0  0  0  0  0
  146.2643  144.2050  153.6552 H   0  0  0  0  0  0  0  0  0  0  0  0
  148.5762  143.3038  153.5151 H   0  0  0  0  0  0  0  0  0  0  0  0
  149.5776  140.0422  153.9477 H   0  0  0  0  0  0  0  0  0  0  0  0
  149.9864  141.6726  153.5460 H   0  0  0  0  0  0  0  0  0  0  0  0
  151.5262  143.8431  158.5371 H   0  0  0  0  0  0  0  0  0  0  0  0
  153.5077  140.3500  160.1373 H   0  0  0  0  0  0  0  0  0  0  0  0
  152.6703  138.9435  158.2628 H   0  0  0  0  0  0  0  0  0  0  0  0
  151.6517  138.1975  156.5927 H   0  0  0  0  0  0  0  0  0  0  0  0
  150.1052  138.3136  155.8013 H   0  0  0  0  0  0  0  0  0  0  0  0
  151.2201  139.0923  153.6779 H   0  0  0  0  0  0  0  0  0  0  0  0
  152.7892  138.9386  154.4458 H   0  0  0  0  0  0  0  0  0  0  0  0
  151.4680  137.0900  153.2037 H   0  0  0  0  0  0  0  0  0  0  0  0
  150.1128  143.1940  156.1134 H   0  0  0  0  0  0  0  0  0  0  0  0
  1  2  2  0  0  0  0
  2  7  1  0  0  0  0
  2  3  1  0  0  0  0
  3  4  2  0  0  0  0
  3 22  1  0  0  0  0
  4  5  1  0  0  0  0
  4 23  1  0  0  0  0
  5  6  2  0  0  0  0
  5 24  1  0  0  0  0
  6  7  1  0  0  0  0
  6 25  1  0  0  0  0
  7  8  1  0  0  0  0
  8  9  1  0  0  0  0
  8 26  1  0  0  0  0
  8 27  1  0  0  0  0
  9 18  1  0  0  0  0
  9 10  2  0  0  0  0
 10 11  1  0  0  0  0
 10 36  1  0  0  0  0
 11 17  2  0  0  0  0
 11 12  1  0  0  0  0
 12 13  2  0  0  0  0
 12 28  1  0  0  0  0
 13 14  1  0  0  0  0
 13 15  1  0  0  0  0
 15 16  2  0  0  0  0
 15 29  1  0  0  0  0
 16 17  1  0  0  0  0
 16 30  1  0  0  0  0
 17 18  1  0  0  0  0
 18 19  1  0  0  0  0
 19 20  1  0  0  0  0
 19 31  1  0  0  0  0
 19 32  1  0  0  0  0
 20 21  1  0  0  0  0
 20 33  1  0  0  0  0
 20 34  1  0  0  0  0
 21 35  1  0  0  0  0
M  CHG  1  10   1
M  END
> <s_m_source_file>
AV-unprocessed.smi

> <i_m_source_file_index>
1942

> <i_lp_mmshare_version>
43012

> <i_f3d_flags>
0

> <s_epik_input>
Tz1jMVtjSF1bY0hdW2NIXVtjSF1uMVtDSDJdYyhuMiluKFtDSDJdW0NIMl1bT0hdKWMoYzIzKVtjSF1bY0hdYyhDbClbY0hdMw==

> <s_epik_cmdline>
J2VwaWtfcHl0aG9uJywgJy1waCcsICc3LjAnLCAnLXRuJywgJzgnLCAnLW1hJywgJzIwMCcsICctbWV0YWxfYmluZGluZycsICctaW1hZScsICc8aW5maWxlLm1hZT4nLCAnLW9tYWUnLCAnPG91dGZpbGUubWFlPic=

> <r_lp_tautomer_probability>
1

> <r_epik_Ionization_Penalty>
1.62531

> <r_epik_Ionization_Penalty_Charging>
1.62531

> <r_epik_Ionization_Penalty_Neutral>
5.76694e-08

> <r_epik_State_Penalty>
1.72539

> <r_epik_Charging_Adjusted_Penalty>
3.3507

> <i_epik_Tot_Q>
1

> <i_epik_Tot_abs_Q>
1

> <r_epik_Metal_State_Penalty>
5.78505

> <b_epik_Metal_Only>
0

> <s_lp_Force_Field>
OPLS_2005

> <r_lp_Energy>
19.9382

> <b_lp_Chiralities_Consistent>
1

> <s_lp_Variant>
AV-unprocessed.smi:1942-2

> <Gold.Version>
5.8.1

> <Gold.Id.Protein>
6NUR|6NUR_protein|mol2

> <Gold.PLP.Fitness>
54.8274

> <Gold.PLP.PLP>
-42.0456

> <Gold.PLP.part.hbond>
-3.0000

> <Gold.PLP.part.metal>
0.0000

> <Gold.PLP.part.buried>
-4.1133

> <Gold.PLP.part.nonpolar>
-35.2754

> <Gold.PLP.part.repulsive>
0.0770

> <Gold.PLP.ligand.clash>
0.0000

> <Gold.PLP.ligand.torsion>
0.2197

> <Gold.PLP.Chemscore.Hbond>
3.9833

> <Gold.PLP.Chemscore.CHOScore>
0.4072

> <Gold.PLP.Chemscore.Metal>
0.0000

> <Gold.Chemscore.Hbonds>
donor molecule, donor type, donor heavy atom, donor atom, acceptor molecule, acceptor atom, score
      L1  H    10    36       P1  8028  2.00
      L1  H    21    35       P1  7949  0.93
      P1  H 10752 10763       L1    21  0.90
      L1  C     6    25       P1  8028  0.23

> <Gold.PLP.Chemscore.Internal.Correction>
0.0496

> <Gold.Rescore>
     Score         DG    S(hbond)    S(metal)    S(lipo)     H(rot)  DE(clash)    DE(int)     intcor
     18.22     -18.74       2.35        0.00      97.38       2.33       0.08       0.44       ----

> <Gold.Chemscore.Fitness>
18.2200

> <Gold.Chemscore.DG>
-18.7426

> <Gold.Chemscore.ZeroCoef>
-5.4800

> <Gold.Chemscore.Hbond>
2.3473

> <Gold.Chemscore.Metal>
0.0000

> <Gold.Chemscore.Lipo>
97.3843

> <Gold.Chemscore.Internal_Hbond>
0.0000

> <Gold.Chemscore.DEClash>
0.0843

> <Gold.Chemscore.DEInternal>
0.4384

> <Gold.Chemscore.Rot>
2.3326

> <Gold.Chemscore.Internal.Correction>
   9.000000E+99

> <Gold.Chemscore.Hbonds>
donor molecule, donor type, donor heavy atom, donor atom, acceptor molecule, acceptor atom, score
      L1  H    10    36       P1  8028  0.95
      L1  H    21    35       P1  7949  0.72
      P1  H 10752 10763       L1    21  0.17

> <Gold.Chemscore.Hbond.Weighted>
-7.8400

> <Gold.Chemscore.Metal.Weighted>
-0.0000

> <Gold.Chemscore.Lipo.Weighted>
-11.3940

> <Gold.Chemscore.Internal_Hbond.Weighted>
0.0000

> <Gold.Chemscore.DEClash.Weighted>
0.0843

> <Gold.Chemscore.DEInternal.Weighted>
0.4384

> <Gold.Chemscore.Rot.Weighted>
5.9714

> <Gold.Chemscore.Internal.Correction.Weighted>
   9.000000E+99

> <Gold.Protein.RotatedTorsions>
[ 6907 6896 6895 6894 ] final -134.47 input  -60.11 | X-H torsion
[ 7974 7965 7964 7962 ] final -166.08 input  175.53 | X-H torsion
[ 8008 7997 7996 7995 ] final   19.85 input   59.86 | X-H torsion
[ 10167 10162 10161 10158 ] final   59.50 input  -65.29 | X-H torsion
[ 10718 10713 10712 10709 ] final  -73.91 input   66.30 | X-H torsion
[ 10763 10752 10751 10750 ] final   24.37 input  -60.55 | X-H torsion
[ 11005 11000 10999 10996 ] final   31.22 input  -57.11 | X-H torsion

> <Gold.Protein.ActiveResidues>
 VAL166  LYS551  ARG553  GLY616  TRP617  ASP618  TYR619  PRO620  LYS621  CYS622 
 ASP623  PHE694  ASN695  SER759  ASP760  ASP761  ALA762  ILE779  LEU786  VAL792 
 PHE793  MET794  SER795  GLU796  ALA797  LYS798  CYS799  TRP800  GLU811  SER814 

> <Gold.Protein.RotatedAtoms>
  150.9862  133.6195  159.2714 H   0  0  0  0  0  0  0  0  0  0  0  0  # atno 6907 bound_to 6896
  151.3432  135.0867  159.9388 H   0  0  0  0  0  0  0  0  0  0  0  0  # atno 6908 bound_to 6896
  152.5231  133.9469  159.7708 H   0  0  0  0  0  0  0  0  0  0  0  0  # atno 6909 bound_to 6896
  144.7254  140.2719  143.6249 H   0  0  0  0  0  0  0  0  0  0  0  0  # atno 7974 bound_to 7965
  154.9269  140.3035  155.5187 H   0  0  0  0  0  0  0  0  0  0  0  0  # atno 8008 bound_to 7997
  156.3006  140.2361  156.4261 H   0  0  0  0  0  0  0  0  0  0  0  0  # atno 8009 bound_to 7997
  154.8276  140.0420  157.1443 H   0  0  0  0  0  0  0  0  0  0  0  0  # atno 8010 bound_to 7997
  140.1757  144.4232  150.6639 H   0  0  0  0  0  0  0  0  0  0  0  0  # atno 10167 bound_to 10162
  156.0262  130.4405  150.2813 H   0  0  0  0  0  0  0  0  0  0  0  0  # atno 10718 bound_to 10713
  153.0769  135.6607  154.0127 H   0  0  0  0  0  0  0  0  0  0  0  0  # atno 10763 bound_to 10752
  153.9758  135.2960  155.3425 H   0  0  0  0  0  0  0  0  0  0  0  0  # atno 10764 bound_to 10752
  154.7159  135.5185  153.8808 H   0  0  0  0  0  0  0  0  0  0  0  0  # atno 10765 bound_to 10752
  140.2862  134.2917  155.7787 H   0  0  0  0  0  0  0  0  0  0  0  0  # atno 11005 bound_to 11000
  145.8034  139.1973  143.2035 LP  0  0  0  0  0  0  0  0  0  0  0  0  # atno 17320 bound_to 7965
  146.0657  140.7923  142.9713 LP  0  0  0  0  0  0  0  0  0  0  0  0  # atno 17321 bound_to 7965
  140.6553  143.2236  151.5984 LP  0  0  0  0  0  0  0  0  0  0  0  0  # atno 17342 bound_to 10162
  139.5318  144.2894  152.1164 LP  0  0  0  0  0  0  0  0  0  0  0  0  # atno 17343 bound_to 10162
  157.0916  131.0171  151.3119 LP  0  0  0  0  0  0  0  0  0  0  0  0  # atno 17370 bound_to 10713
  157.4849  130.7787  149.7451 LP  0  0  0  0  0  0  0  0  0  0  0  0  # atno 17371 bound_to 10713
  141.2154  133.7556  156.9555 LP  0  0  0  0  0  0  0  0  0  0  0  0  # atno 17394 bound_to 11000
  140.1238  134.9400  157.2241 LP  0  0  0  0  0  0  0  0  0  0  0  0  # atno 17395 bound_to 11000

$$$$
