AV-unprocessed.smi:72|AV-procd|sdf|712|dock10
  -GOLD-   2262017 33D 1   1.00000     0.00000
 Structure written by MMmdl.
 28 29  0  0  0  0  0  0  0  0  2 V2000
  152.9654  139.8745  159.1249 N   0  0  0  0  0  0  0  0  0  0  0  0
  152.0619  139.8972  158.2464 C   0  0  0  0  0  0  0  0  0  0  0  0
  150.6768  140.0557  158.6327 N   0  0  0  0  0  0  0  0  0  0  0  0
  149.7834  140.0652  157.6916 C   0  0  0  0  0  0  0  0  0  0  0  0
  150.1447  139.9177  156.2873 N   0  0  0  0  0  0  0  0  0  0  0  0
  149.1040  139.9311  155.1808 C   0  0  1  0  0  0  0  0  0  0  0  0
  147.8252  139.7578  155.7268 O   0  0  0  0  0  0  0  0  0  0  0  0
  147.0640  140.9466  155.5517 C   0  0  2  0  0  0  0  0  0  0  0  0
  145.5554  140.6477  155.6190 C   0  0  0  0  0  0  0  0  0  0  0  0
  145.1443  139.7400  154.6171 O   0  0  0  0  0  0  0  0  0  0  0  0
  147.6023  141.5388  154.2491 C   0  0  1  0  0  0  0  0  0  0  0  0
  147.2970  142.9129  154.0977 O   0  0  0  0  0  0  0  0  0  0  0  0
  149.0964  141.2518  154.3683 C   0  0  1  0  0  0  0  0  0  0  0  0
  149.7961  142.3129  155.0022 O   0  0  0  0  0  0  0  0  0  0  0  0
  151.5137  139.7779  155.9372 C   0  0  0  0  0  0  0  0  0  0  0  0
  151.7992  139.6816  154.7434 O   0  0  0  0  0  0  0  0  0  0  0  0
  152.4465  139.7682  156.9301 N   0  5  0  0  0  0  0  0  0  0  0  0
  149.3112  139.0517  154.5689 H   0  0  0  0  0  0  0  0  0  0  0  0
  147.3212  141.6119  156.3778 H   0  0  0  0  0  0  0  0  0  0  0  0
  147.2124  140.9916  153.3904 H   0  0  0  0  0  0  0  0  0  0  0  0
  149.5508  141.0798  153.3921 H   0  0  0  0  0  0  0  0  0  0  0  0
  153.8858  139.7600  158.7260 H   0  0  0  0  0  0  0  0  0  0  0  0
  148.7196  140.1860  157.8947 H   0  0  0  0  0  0  0  0  0  0  0  0
  145.2866  140.2560  156.6003 H   0  0  0  0  0  0  0  0  0  0  0  0
  144.9936  141.5716  155.4802 H   0  0  0  0  0  0  0  0  0  0  0  0
  144.8501  140.2339  153.8672 H   0  0  0  0  0  0  0  0  0  0  0  0
  147.8946  143.4111  154.6337 H   0  0  0  0  0  0  0  0  0  0  0  0
  149.1794  143.0039  155.1924 H   0  0  0  0  0  0  0  0  0  0  0  0
  1  2  2  0  0  0  0
  1 22  1  0  0  0  0
  2 17  1  0  0  0  0
  2  3  1  0  0  0  0
  3  4  2  0  0  0  0
  4  5  1  0  0  0  0
  4 23  1  0  0  0  0
  5  6  1  0  0  0  0
  5 15  1  0  0  0  0
  6 18  1  0  0  0  0
  6 13  1  0  0  0  0
  6  7  1  0  0  0  0
  7  8  1  0  0  0  0
  8 19  1  0  0  0  0
  8  9  1  0  0  0  0
  8 11  1  0  0  0  0
  9 10  1  0  0  0  0
  9 24  1  0  0  0  0
  9 25  1  0  0  0  0
 10 26  1  0  0  0  0
 11 20  1  0  0  0  0
 11 12  1  0  0  0  0
 11 13  1  0  0  0  0
 12 27  1  0  0  0  0
 13 21  1  0  0  0  0
 13 14  1  0  0  0  0
 14 28  1  0  0  0  0
 15 16  2  0  0  0  0
 15 17  1  0  0  0  0
M  CHG  1  17  -1
M  END
> <s_m_source_file>
AV-unprocessed.smi

> <i_m_source_file_index>
72

> <i_lp_mmshare_version>
43012

> <i_f3d_flags>
0

> <s_epik_input>
W05IMl1jMW5bY0hdbihjKD1PKW4xKVtDQEBIXTJPW0NASF0oW0NIMl1bT0hdKVtDQEBIXShbT0hdKVtDQEhdMltPSF0=

> <s_epik_cmdline>
J2VwaWtfcHl0aG9uJywgJy1waCcsICc3LjAnLCAnLXRuJywgJzgnLCAnLW1hJywgJzIwMCcsICctbWV0YWxfYmluZGluZycsICctaW1hZScsICc8aW5maWxlLm1hZT4nLCAnLW9tYWUnLCAnPG91dGZpbGUubWFlPic=

> <r_lp_tautomer_probability>
7.17554e-07

> <r_epik_Ionization_Penalty>
12.8705

> <r_epik_Ionization_Penalty_Charging>
5.64144

> <r_epik_Ionization_Penalty_Neutral>
7.22905

> <r_epik_State_Penalty>
3.30104

> <r_epik_Charging_Adjusted_Penalty>
8.94249

> <i_epik_Tot_Q>
-1

> <i_epik_Tot_abs_Q>
1

> <r_epik_Metal_State_Penalty>
0.529074

> <b_epik_Metal_Only>
1

> <s_epik_Chemistry_Notes>
This compound contains an acetal/aminal-like group ( X-CH(R)-Y where X, Y are N, S, or O) that may be acid/base labile, releasing an aldehyde.

> <s_lp_Force_Field>
OPLS_2005

> <r_lp_Energy>
42.9938

> <b_lp_Chiralities_Consistent>
1

> <s_lp_Variant>
AV-unprocessed.smi:72-50

> <Gold.Version>
5.8.1

> <Gold.Id.Protein>
6NUR|6NUR_protein|mol2

> <Gold.PLP.Fitness>
39.0414

> <Gold.PLP.PLP>
-21.9285

> <Gold.PLP.part.hbond>
-7.2205

> <Gold.PLP.part.metal>
0.0000

> <Gold.PLP.part.buried>
-0.5376

> <Gold.PLP.part.nonpolar>
-13.8527

> <Gold.PLP.part.repulsive>
0.0690

> <Gold.PLP.ligand.clash>
0.0000

> <Gold.PLP.ligand.torsion>
0.3420

> <Gold.PLP.Chemscore.Hbond>
5.9200

> <Gold.PLP.Chemscore.CHOScore>
0.0000

> <Gold.PLP.Chemscore.Metal>
0.0000

> <Gold.Chemscore.Hbonds>
donor molecule, donor type, donor heavy atom, donor atom, acceptor molecule, acceptor atom, score
      L1  H    10    26       P1 10175  1.00
      L1  H    12    27       P1  8028  1.00
      L1  H    14    28       P1  8028  0.98
      P1  H  7989  7998       L1    16  1.00
      P1  H  7997  8009       L1    17  2.00

> <Gold.PLP.Chemscore.Internal.Correction>
0.0369

> <Gold.Rescore>
     Score         DG    S(hbond)    S(metal)    S(lipo)     H(rot)  DE(clash)    DE(int)     intcor
     11.35     -11.96       4.37        0.00      18.99       4.04       0.03       0.59       ----

> <Gold.Chemscore.Fitness>
11.3487

> <Gold.Chemscore.DG>
-11.9637

> <Gold.Chemscore.ZeroCoef>
-5.4800

> <Gold.Chemscore.Hbond>
4.3729

> <Gold.Chemscore.Metal>
0.0000

> <Gold.Chemscore.Lipo>
18.9860

> <Gold.Chemscore.Internal_Hbond>
0.0000

> <Gold.Chemscore.DEClash>
0.0276

> <Gold.Chemscore.DEInternal>
0.5873

> <Gold.Chemscore.Rot>
4.0403

> <Gold.Chemscore.Internal.Correction>
   9.000000E+99

> <Gold.Chemscore.Hbonds>
donor molecule, donor type, donor heavy atom, donor atom, acceptor molecule, acceptor atom, score
      L1  H    10    26       P1 10175  0.94
      L1  H    12    27       P1  8028  0.70
      L1  H    14    28       P1  8028  0.93
      P1  H  7989  7998       L1    16  0.95
      P1  H  7997  8009       L1    17  0.86

> <Gold.Chemscore.Hbond.Weighted>
-14.6054

> <Gold.Chemscore.Metal.Weighted>
-0.0000

> <Gold.Chemscore.Lipo.Weighted>
-2.2214

> <Gold.Chemscore.Internal_Hbond.Weighted>
0.0000

> <Gold.Chemscore.DEClash.Weighted>
0.0276

> <Gold.Chemscore.DEInternal.Weighted>
0.5873

> <Gold.Chemscore.Rot.Weighted>
10.3431

> <Gold.Chemscore.Internal.Correction.Weighted>
   9.000000E+99

> <Gold.Protein.RotatedTorsions>
[ 6907 6896 6895 6894 ] final   39.41 input  -60.11 | X-H torsion
[ 7974 7965 7964 7962 ] final  -40.42 input  175.53 | X-H torsion
[ 8008 7997 7996 7995 ] final -178.68 input   59.86 | X-H torsion
[ 10167 10162 10161 10158 ] final -121.51 input  -65.29 | X-H torsion
[ 10718 10713 10712 10709 ] final  151.51 input   66.30 | X-H torsion
[ 10763 10752 10751 10750 ] final   67.43 input  -60.55 | X-H torsion
[ 11005 11000 10999 10996 ] final -103.48 input  -57.11 | X-H torsion

> <Gold.Protein.ActiveResidues>
 VAL166  LYS551  ARG553  GLY616  TRP617  ASP618  TYR619  PRO620  LYS621  CYS622 
 ASP623  PHE694  ASN695  SER759  ASP760  ASP761  ALA762  ILE779  LEU786  VAL792 
 PHE793  MET794  SER795  GLU796  ALA797  LYS798  CYS799  TRP800  GLU811  SER814 

> <Gold.Protein.RotatedAtoms>
  152.1691  134.8849  160.0535 H   0  0  0  0  0  0  0  0  0  0  0  0  # atno 6907 bound_to 6896
  151.9815  133.3754  159.4117 H   0  0  0  0  0  0  0  0  0  0  0  0  # atno 6908 bound_to 6896
  150.6899  134.3956  159.5140 H   0  0  0  0  0  0  0  0  0  0  0  0  # atno 6909 bound_to 6896
  146.0306  140.6736  142.9134 H   0  0  0  0  0  0  0  0  0  0  0  0  # atno 7974 bound_to 7965
  156.0216  140.1262  157.0351 H   0  0  0  0  0  0  0  0  0  0  0  0  # atno 8008 bound_to 7997
  154.4314  140.1067  156.6042 H   0  0  0  0  0  0  0  0  0  0  0  0  # atno 8009 bound_to 7997
  155.5936  140.3469  155.4576 H   0  0  0  0  0  0  0  0  0  0  0  0  # atno 8010 bound_to 7997
  140.0242  143.5313  152.2206 H   0  0  0  0  0  0  0  0  0  0  0  0  # atno 10167 bound_to 10162
  157.2697  131.0814  151.1608 H   0  0  0  0  0  0  0  0  0  0  0  0  # atno 10718 bound_to 10713
  153.0186  135.5284  154.6978 H   0  0  0  0  0  0  0  0  0  0  0  0  # atno 10763 bound_to 10752
  154.6095  135.2877  155.0450 H   0  0  0  0  0  0  0  0  0  0  0  0  # atno 10764 bound_to 10752
  154.1477  135.6568  153.5009 H   0  0  0  0  0  0  0  0  0  0  0  0  # atno 10765 bound_to 10752
  141.1143  133.8644  157.1492 H   0  0  0  0  0  0  0  0  0  0  0  0  # atno 11005 bound_to 11000
  144.7029  140.3729  143.7142 LP  0  0  0  0  0  0  0  0  0  0  0  0  # atno 17320 bound_to 7965
  145.7047  139.1670  143.2573 LP  0  0  0  0  0  0  0  0  0  0  0  0  # atno 17321 bound_to 7965
  139.6119  144.7610  151.2933 LP  0  0  0  0  0  0  0  0  0  0  0  0  # atno 17342 bound_to 10162
  140.7329  143.6809  150.8002 LP  0  0  0  0  0  0  0  0  0  0  0  0  # atno 17343 bound_to 10162
  157.3084  130.6878  149.6202 LP  0  0  0  0  0  0  0  0  0  0  0  0  # atno 17370 bound_to 10713
  155.9663  130.4371  150.5160 LP  0  0  0  0  0  0  0  0  0  0  0  0  # atno 17371 bound_to 10713
  140.0056  135.0010  157.0285 LP  0  0  0  0  0  0  0  0  0  0  0  0  # atno 17394 bound_to 11000
  140.4688  134.1408  155.7200 LP  0  0  0  0  0  0  0  0  0  0  0  0  # atno 17395 bound_to 11000

$$$$
