AV-unprocessed.smi:730|AV-procd|sdf|3525|dock8
  -GOLD-   22720 0523D 1   1.00000     0.00000
 Structure written by MMmdl.
 40 41  0  0  0  0  0  0  0  0  1 V2000
  145.4841  136.4659  162.1853 C   0  0  0  0  0  0  0  0  0  0  0  0
  146.8814  135.8187  162.1099 C   0  0  0  0  0  0  0  0  0  0  0  0
  147.6650  136.2057  163.3783 C   0  0  0  0  0  0  0  0  0  0  0  0
  146.7059  134.2891  162.0697 C   0  0  0  0  0  0  0  0  0  0  0  0
  147.6218  136.2844  160.8870 C   0  0  0  0  0  0  0  0  0  0  0  0
  147.3748  136.1923  159.5438 C   0  0  0  0  0  0  0  0  0  0  0  0
  148.4898  136.8507  158.9612 C   0  0  0  0  0  0  0  0  0  0  0  0
  148.6110  136.9692  157.5531 N   0  0  0  0  0  0  0  0  0  0  0  0
  149.5532  137.6369  156.8659 C   0  0  0  0  0  0  0  0  0  0  0  0
  150.4728  138.2841  157.3676 O   0  0  0  0  0  0  0  0  0  0  0  0
  149.3720  137.5119  155.5432 N   0  0  0  0  0  0  0  0  0  0  0  0
  150.2225  138.1132  154.5180 C   0  0  1  0  0  0  0  0  0  0  0  0
  150.1586  139.6506  154.5962 C   0  0  0  0  0  0  0  0  0  0  0  0
  151.4164  140.0738  155.3527 C   0  0  0  0  0  0  0  0  0  0  0  0
  152.4667  139.0672  154.8958 C   0  0  0  0  0  0  0  0  0  0  0  0
  151.7035  137.7422  154.7610 C   0  0  2  0  0  0  0  0  0  0  0  0
  152.2325  136.9841  153.6927 O   0  0  0  0  0  0  0  0  0  0  0  0
  149.3453  137.3050  159.8626 N   0  0  0  0  0  0  0  0  0  0  0  0
  148.7951  136.9452  161.0977 O   0  0  0  0  0  0  0  0  0  0  0  0
  144.9394  136.1359  163.0706 H   0  0  0  0  0  0  0  0  0  0  0  0
  144.8782  136.2088  161.3155 H   0  0  0  0  0  0  0  0  0  0  0  0
  145.5507  137.5538  162.2309 H   0  0  0  0  0  0  0  0  0  0  0  0
  147.8032  137.2857  163.4436 H   0  0  0  0  0  0  0  0  0  0  0  0
  148.6547  135.7476  163.3921 H   0  0  0  0  0  0  0  0  0  0  0  0
  147.1456  135.8849  164.2818 H   0  0  0  0  0  0  0  0  0  0  0  0
  146.1595  133.9275  162.9417 H   0  0  0  0  0  0  0  0  0  0  0  0
  147.6683  133.7761  162.0529 H   0  0  0  0  0  0  0  0  0  0  0  0
  146.1529  133.9775  161.1829 H   0  0  0  0  0  0  0  0  0  0  0  0
  146.5302  135.7281  159.0568 H   0  0  0  0  0  0  0  0  0  0  0  0
  147.9094  136.4872  157.0113 H   0  0  0  0  0  0  0  0  0  0  0  0
  148.5913  136.9604  155.2187 H   0  0  0  0  0  0  0  0  0  0  0  0
  149.8924  137.7806  153.5312 H   0  0  0  0  0  0  0  0  0  0  0  0
  150.1956  140.0614  153.5863 H   0  0  0  0  0  0  0  0  0  0  0  0
  149.2474  140.0296  155.0609 H   0  0  0  0  0  0  0  0  0  0  0  0
  151.7041  141.1051  155.1473 H   0  0  0  0  0  0  0  0  0  0  0  0
  151.2530  139.9773  156.4268 H   0  0  0  0  0  0  0  0  0  0  0  0
  152.8570  139.3827  153.9265 H   0  0  0  0  0  0  0  0  0  0  0  0
  153.3105  138.9974  155.5828 H   0  0  0  0  0  0  0  0  0  0  0  0
  151.8143  137.1674  155.6821 H   0  0  0  0  0  0  0  0  0  0  0  0
  151.5155  136.6810  153.1568 H   0  0  0  0  0  0  0  0  0  0  0  0
  1  2  1  0  0  0  0
  1 20  1  0  0  0  0
  1 21  1  0  0  0  0
  1 22  1  0  0  0  0
  2  3  1  0  0  0  0
  2  4  1  0  0  0  0
  2  5  1  0  0  0  0
  3 23  1  0  0  0  0
  3 24  1  0  0  0  0
  3 25  1  0  0  0  0
  4 26  1  0  0  0  0
  4 27  1  0  0  0  0
  4 28  1  0  0  0  0
  5 19  1  0  0  0  0
  5  6  2  0  0  0  0
  6  7  1  0  0  0  0
  6 29  1  0  0  0  0
  7  8  1  0  0  0  0
  7 18  2  0  0  0  0
  8  9  1  0  0  0  0
  8 30  1  0  0  0  0
  9 10  2  0  0  0  0
  9 11  1  0  0  0  0
 11 12  1  0  0  0  0
 11 31  1  0  0  0  0
 12 16  1  0  0  0  0
 12 13  1  0  0  0  0
 12 32  1  0  0  0  0
 13 14  1  0  0  0  0
 13 33  1  0  0  0  0
 13 34  1  0  0  0  0
 14 15  1  0  0  0  0
 14 35  1  0  0  0  0
 14 36  1  0  0  0  0
 15 16  1  0  0  0  0
 15 37  1  0  0  0  0
 15 38  1  0  0  0  0
 16 17  1  0  0  0  0
 16 39  1  0  0  0  0
 17 40  1  0  0  0  0
 18 19  1  0  0  0  0
M  END
> <s_m_source_file>
AV-unprocessed.smi

> <i_m_source_file_index>
730

> <i_lp_mmshare_version>
43012

> <i_f3d_flags>
0

> <s_epik_input>
W0NIM11DKFtDSDNdKShbQ0gzXSljMVtjSF1jKG5vMSlbTkhdQyg9TylbTkhdW0NAQEhdMltDSDJdW0NIMl1bQ0gyXVtDQEhdMltPSF0=

> <s_epik_cmdline>
J2VwaWtfcHl0aG9uJywgJy1waCcsICc3LjAnLCAnLXRuJywgJzgnLCAnLW1hJywgJzIwMCcsICctbWV0YWxfYmluZGluZycsICctaW1hZScsICc8aW5maWxlLm1hZT4nLCAnLW9tYWUnLCAnPG91dGZpbGUubWFlPic=

> <r_lp_tautomer_probability>
1

> <r_epik_Ionization_Penalty>
2.23071e-05

> <r_epik_Ionization_Penalty_Charging>
0

> <r_epik_Ionization_Penalty_Neutral>
2.23071e-05

> <r_epik_State_Penalty>
-0

> <r_epik_Charging_Adjusted_Penalty>
0

> <i_epik_Tot_Q>
0

> <i_epik_Tot_abs_Q>
0

> <r_epik_Metal_State_Penalty>
-0

> <b_epik_Metal_Only>
0

> <s_lp_Force_Field>
OPLS_2005

> <r_lp_Energy>
16.5613

> <b_lp_Chiralities_Consistent>
1

> <s_lp_Variant>
AV-unprocessed.smi:730-4

> <Gold.Version>
5.8.1

> <Gold.Id.Protein>
6NUR|6NUR_protein|mol2

> <Gold.PLP.Fitness>
43.2710

> <Gold.PLP.PLP>
-34.8944

> <Gold.PLP.part.hbond>
-3.9361

> <Gold.PLP.part.metal>
0.0000

> <Gold.PLP.part.buried>
-2.3428

> <Gold.PLP.part.nonpolar>
-29.2424

> <Gold.PLP.part.repulsive>
0.0242

> <Gold.PLP.ligand.clash>
0.0000

> <Gold.PLP.ligand.torsion>
0.0389

> <Gold.PLP.Chemscore.Hbond>
2.8160

> <Gold.PLP.Chemscore.CHOScore>
0.0000

> <Gold.PLP.Chemscore.Metal>
0.0000

> <Gold.Chemscore.Hbonds>
donor molecule, donor type, donor heavy atom, donor atom, acceptor molecule, acceptor atom, score
      L1  H    17    40       P1  7949  0.82
      P1  H  6931  6943       L1    19  1.00
      P1  H 10752 10765       L1    17  1.00

> <Gold.PLP.Chemscore.Internal.Correction>
0.0064

> <Gold.Rescore>
     Score         DG    S(hbond)    S(metal)    S(lipo)     H(rot)  DE(clash)    DE(int)     intcor
     12.37     -16.66       1.70        0.00      84.48       1.71       0.45       3.84       ----

> <Gold.Chemscore.Fitness>
12.3698

> <Gold.Chemscore.DG>
-16.6597

> <Gold.Chemscore.ZeroCoef>
-5.4800

> <Gold.Chemscore.Hbond>
1.7005

> <Gold.Chemscore.Metal>
0.0000

> <Gold.Chemscore.Lipo>
84.4804

> <Gold.Chemscore.Internal_Hbond>
0.0000

> <Gold.Chemscore.DEClash>
0.4480

> <Gold.Chemscore.DEInternal>
3.8420

> <Gold.Chemscore.Rot>
1.7125

> <Gold.Chemscore.Internal.Correction>
   9.000000E+99

> <Gold.Chemscore.Hbonds>
donor molecule, donor type, donor heavy atom, donor atom, acceptor molecule, acceptor atom, score
      L1  H    17    40       P1  7949  0.74
      P1  H  6931  6943       L1    19  0.23
      P1  H 10752 10765       L1    17  0.41

> <Gold.Chemscore.Hbond.Weighted>
-5.6796

> <Gold.Chemscore.Metal.Weighted>
-0.0000

> <Gold.Chemscore.Lipo.Weighted>
-9.8842

> <Gold.Chemscore.Internal_Hbond.Weighted>
0.0000

> <Gold.Chemscore.DEClash.Weighted>
0.4480

> <Gold.Chemscore.DEInternal.Weighted>
3.8420

> <Gold.Chemscore.Rot.Weighted>
4.3841

> <Gold.Chemscore.Internal.Correction.Weighted>
   9.000000E+99

> <Gold.Protein.RotatedTorsions>
[ 6907 6896 6895 6894 ] final -163.39 input  -60.11 | X-H torsion
[ 7974 7965 7964 7962 ] final -169.27 input  175.53 | X-H torsion
[ 8008 7997 7996 7995 ] final -105.14 input   59.86 | X-H torsion
[ 10167 10162 10161 10158 ] final   47.18 input  -65.29 | X-H torsion
[ 10718 10713 10712 10709 ] final  -78.57 input   66.30 | X-H torsion
[ 10763 10752 10751 10750 ] final  134.35 input  -60.55 | X-H torsion
[ 11005 11000 10999 10996 ] final  -44.42 input  -57.11 | X-H torsion

> <Gold.Protein.ActiveResidues>
 VAL166  LYS551  ARG553  GLY616  TRP617  ASP618  TYR619  PRO620  LYS621  CYS622 
 ASP623  PHE694  ASN695  SER759  ASP760  ASP761  ALA762  ILE779  LEU786  VAL792 
 PHE793  MET794  SER795  GLU796  ALA797  LYS798  CYS799  TRP800  GLU811  SER814 

> <Gold.Protein.RotatedAtoms>
  151.3953  133.3775  159.2725 H   0  0  0  0  0  0  0  0  0  0  0  0  # atno 6907 bound_to 6896
  150.9474  134.8878  159.7661 H   0  0  0  0  0  0  0  0  0  0  0  0  # atno 6908 bound_to 6896
  152.5097  134.3907  159.9435 H   0  0  0  0  0  0  0  0  0  0  0  0  # atno 6909 bound_to 6896
  144.7188  140.2247  143.6311 H   0  0  0  0  0  0  0  0  0  0  0  0  # atno 7974 bound_to 7965
  154.8956  140.0414  157.1863 H   0  0  0  0  0  0  0  0  0  0  0  0  # atno 8008 bound_to 7997
  154.8496  140.2927  155.5586 H   0  0  0  0  0  0  0  0  0  0  0  0  # atno 8009 bound_to 7997
  156.2995  140.2467  156.3453 H   0  0  0  0  0  0  0  0  0  0  0  0  # atno 8010 bound_to 7997
  140.3063  144.2874  150.6208 H   0  0  0  0  0  0  0  0  0  0  0  0  # atno 10167 bound_to 10162
  156.0114  130.4521  150.3516 H   0  0  0  0  0  0  0  0  0  0  0  0  # atno 10718 bound_to 10713
  153.8221  135.3115  155.3411 H   0  0  0  0  0  0  0  0  0  0  0  0  # atno 10763 bound_to 10752
  154.8008  135.4728  154.0274 H   0  0  0  0  0  0  0  0  0  0  0  0  # atno 10764 bound_to 10752
  153.1687  135.6874  153.8729 H   0  0  0  0  0  0  0  0  0  0  0  0  # atno 10765 bound_to 10752
  141.0449  133.6765  156.2870 H   0  0  0  0  0  0  0  0  0  0  0  0  # atno 11005 bound_to 11000
  145.8468  139.2156  143.1795 LP  0  0  0  0  0  0  0  0  0  0  0  0  # atno 17320 bound_to 7965
  146.0297  140.8270  142.9882 LP  0  0  0  0  0  0  0  0  0  0  0  0  # atno 17321 bound_to 7965
  140.5607  143.2192  151.7769 LP  0  0  0  0  0  0  0  0  0  0  0  0  # atno 17342 bound_to 10162
  139.4903  144.4352  151.9827 LP  0  0  0  0  0  0  0  0  0  0  0  0  # atno 17343 bound_to 10162
  157.1608  131.0344  151.2842 LP  0  0  0  0  0  0  0  0  0  0  0  0  # atno 17370 bound_to 10713
  157.4313  130.7492  149.6992 LP  0  0  0  0  0  0  0  0  0  0  0  0  # atno 17371 bound_to 10713
  140.6165  134.5405  157.5541 LP  0  0  0  0  0  0  0  0  0  0  0  0  # atno 17394 bound_to 11000
  139.9304  134.7975  156.0947 LP  0  0  0  0  0  0  0  0  0  0  0  0  # atno 17395 bound_to 11000

$$$$
