AV-unprocessed.smi:1599|AV-procd|sdf|6426|dock7
  -GOLD-   22720 7 63D 1   1.00000     0.00000
 Structure written by MMmdl.
 39 40  0  0  0  0  0  0  0  0  1 V2000
  147.0274  141.7468  153.6916 C   0  0  0  0  0  0  0  0  0  0  0  0
  147.6315  140.3870  154.0830 C   0  0  1  0  0  0  0  0  0  0  0  0
  147.3864  139.4172  153.0184 N   0  0  0  0  0  0  0  0  0  0  0  0
  146.5513  138.3716  153.0999 C   0  0  0  0  0  0  0  0  0  0  0  0
  145.8680  138.1204  154.0928 O   0  0  0  0  0  0  0  0  0  0  0  0
  146.5622  137.6490  151.9678 N   0  0  0  0  0  0  0  0  0  0  0  0
  145.8211  136.4721  151.6922 C   0  0  0  0  0  0  0  0  0  0  0  0
  144.4091  136.4157  151.5624 C   0  0  0  0  0  0  0  0  0  0  0  0
  144.0004  135.1831  151.3019 N   0  0  0  0  0  0  0  0  0  0  0  0
  145.1331  134.4371  151.2635 N   0  0  0  0  0  0  0  0  0  0  0  0
  145.0479  133.0104  150.9944 C   0  0  0  0  0  0  0  0  0  0  0  0
  144.0997  132.6753  149.8357 C   0  0  0  0  0  0  0  0  0  0  0  0
  144.2834  133.3583  148.7030 N   0  0  0  0  0  0  0  0  0  0  0  0
  143.2177  131.8246  149.9467 O   0  0  0  0  0  0  0  0  0  0  0  0
  146.2645  135.1948  151.4964 C   0  0  0  0  0  0  0  0  0  0  0  0
  149.1467  140.4737  154.3462 C   0  0  1  0  0  0  0  0  0  0  0  0
  149.5511  141.4470  155.4549 C   0  0  0  0  0  0  0  0  0  0  0  0
  150.8718  140.8888  155.9637 C   0  0  0  0  0  0  0  0  0  0  0  0
  150.9344  139.4775  155.3737 C   0  0  0  0  0  0  0  0  0  0  0  0
  149.6371  139.2395  154.8480 O   0  0  0  0  0  0  0  0  0  0  0  0
  147.1564  142.4818  154.4860 H   0  0  0  0  0  0  0  0  0  0  0  0
  145.9569  141.6633  153.5010 H   0  0  0  0  0  0  0  0  0  0  0  0
  147.4953  142.1445  152.7905 H   0  0  0  0  0  0  0  0  0  0  0  0
  147.1478  140.0421  154.9986 H   0  0  0  0  0  0  0  0  0  0  0  0
  147.9099  139.5421  152.1644 H   0  0  0  0  0  0  0  0  0  0  0  0
  147.1683  137.9713  151.2276 H   0  0  0  0  0  0  0  0  0  0  0  0
  143.6823  137.2103  151.6450 H   0  0  0  0  0  0  0  0  0  0  0  0
  146.0440  132.6250  150.7713 H   0  0  0  0  0  0  0  0  0  0  0  0
  144.7056  132.5105  151.9014 H   0  0  0  0  0  0  0  0  0  0  0  0
  143.6917  133.1814  147.9043 H   0  0  0  0  0  0  0  0  0  0  0  0
  145.0170  134.0503  148.6493 H   0  0  0  0  0  0  0  0  0  0  0  0
  147.2531  134.7604  151.5011 H   0  0  0  0  0  0  0  0  0  0  0  0
  149.6819  140.7167  153.4259 H   0  0  0  0  0  0  0  0  0  0  0  0
  149.6359  142.4749  155.1014 H   0  0  0  0  0  0  0  0  0  0  0  0
  148.8156  141.4291  156.2603 H   0  0  0  0  0  0  0  0  0  0  0  0
  151.7187  141.4858  155.6238 H   0  0  0  0  0  0  0  0  0  0  0  0
  150.8897  140.8701  157.0539 H   0  0  0  0  0  0  0  0  0  0  0  0
  151.6633  139.4322  154.5633 H   0  0  0  0  0  0  0  0  0  0  0  0
  151.2022  138.7245  156.1150 H   0  0  0  0  0  0  0  0  0  0  0  0
  1  2  1  0  0  0  0
  1 21  1  0  0  0  0
  1 22  1  0  0  0  0
  1 23  1  0  0  0  0
  2  3  1  0  0  0  0
  2 16  1  0  0  0  0
  2 24  1  0  0  0  0
  3  4  1  0  0  0  0
  3 25  1  0  0  0  0
  4  5  2  0  0  0  0
  4  6  1  0  0  0  0
  6  7  1  0  0  0  0
  6 26  1  0  0  0  0
  7 15  2  0  0  0  0
  7  8  1  0  0  0  0
  8  9  2  0  0  0  0
  8 27  1  0  0  0  0
  9 10  1  0  0  0  0
 10 11  1  0  0  0  0
 10 15  1  0  0  0  0
 11 12  1  0  0  0  0
 11 28  1  0  0  0  0
 11 29  1  0  0  0  0
 12 13  1  0  0  0  0
 12 14  2  0  0  0  0
 13 30  1  0  0  0  0
 13 31  1  0  0  0  0
 15 32  1  0  0  0  0
 16 20  1  0  0  0  0
 16 17  1  0  0  0  0
 16 33  1  0  0  0  0
 17 18  1  0  0  0  0
 17 34  1  0  0  0  0
 17 35  1  0  0  0  0
 18 19  1  0  0  0  0
 18 36  1  0  0  0  0
 18 37  1  0  0  0  0
 19 20  1  0  0  0  0
 19 38  1  0  0  0  0
 19 39  1  0  0  0  0
M  END
> <s_m_source_file>
AV-unprocessed.smi

> <i_m_source_file_index>
1599

> <i_lp_mmshare_version>
43012

> <i_f3d_flags>
0

> <s_epik_input>
TzFbQ0gyXVtDSDJdW0NIMl1bQ0BIXTFbQ0BIXShbQ0gzXSlbTkhdQyg9TylbTkhdYzJbY0hdbm4oW2NIXTIpW0NIMl1DKD1PKVtOSDJd

> <s_epik_cmdline>
J2VwaWtfcHl0aG9uJywgJy1waCcsICc3LjAnLCAnLXRuJywgJzgnLCAnLW1hJywgJzIwMCcsICctbWV0YWxfYmluZGluZycsICctaW1hZScsICc8aW5maWxlLm1hZT4nLCAnLW9tYWUnLCAnPG91dGZpbGUubWFlPic=

> <r_lp_tautomer_probability>
1

> <r_epik_Ionization_Penalty>
4.15391e-05

> <r_epik_Ionization_Penalty_Charging>
0

> <r_epik_Ionization_Penalty_Neutral>
4.15391e-05

> <r_epik_State_Penalty>
-0

> <r_epik_Charging_Adjusted_Penalty>
0

> <i_epik_Tot_Q>
0

> <i_epik_Tot_abs_Q>
0

> <r_epik_Metal_State_Penalty>
-0

> <b_epik_Metal_Only>
0

> <s_lp_Force_Field>
OPLS_2005

> <r_lp_Energy>
23.4533

> <b_lp_Chiralities_Consistent>
1

> <s_lp_Variant>
AV-unprocessed.smi:1599-4

> <Gold.Version>
5.8.1

> <Gold.Id.Protein>
6NUR|6NUR_protein|mol2

> <Gold.PLP.Fitness>
42.3917

> <Gold.PLP.PLP>
-31.7315

> <Gold.PLP.part.hbond>
-4.0000

> <Gold.PLP.part.metal>
0.0000

> <Gold.PLP.part.buried>
-2.4117

> <Gold.PLP.part.nonpolar>
-28.6133

> <Gold.PLP.part.repulsive>
2.7525

> <Gold.PLP.ligand.clash>
0.0000

> <Gold.PLP.ligand.torsion>
0.9933

> <Gold.PLP.Chemscore.Hbond>
2.9280

> <Gold.PLP.Chemscore.CHOScore>
1.2737

> <Gold.PLP.Chemscore.Metal>
0.0000

> <Gold.Chemscore.Hbonds>
donor molecule, donor type, donor heavy atom, donor atom, acceptor molecule, acceptor atom, score
      L1  H     3    25       P1  7957  1.00
      L1  H    13    31       P1  7921  0.88
      P1  H 10785 10796       L1    14  0.91
      L1  C     8    27       P1 10171  0.59
      L1  C    15    32       P1  7948  0.72

> <Gold.PLP.Chemscore.Internal.Correction>
0.0417

> <Gold.Rescore>
     Score         DG    S(hbond)    S(metal)    S(lipo)     H(rot)  DE(clash)    DE(int)     intcor
     12.08     -16.37       2.61        0.00      68.52       2.28       3.22       1.08       ----

> <Gold.Chemscore.Fitness>
12.0771

> <Gold.Chemscore.DG>
-16.3718

> <Gold.Chemscore.ZeroCoef>
-5.4800

> <Gold.Chemscore.Hbond>
2.6102

> <Gold.Chemscore.Metal>
0.0000

> <Gold.Chemscore.Lipo>
68.5170

> <Gold.Chemscore.Internal_Hbond>
0.0000

> <Gold.Chemscore.DEClash>
3.2164

> <Gold.Chemscore.DEInternal>
1.0783

> <Gold.Chemscore.Rot>
2.2823

> <Gold.Chemscore.Internal.Correction>
   9.000000E+99

> <Gold.Chemscore.Hbonds>
donor molecule, donor type, donor heavy atom, donor atom, acceptor molecule, acceptor atom, score
      L1  H     3    25       P1  7957  0.92
      L1  H    13    31       P1  7921  0.86
      P1  H 10785 10796       L1    14  0.85

> <Gold.Chemscore.Hbond.Weighted>
-8.7180

> <Gold.Chemscore.Metal.Weighted>
-0.0000

> <Gold.Chemscore.Lipo.Weighted>
-8.0165

> <Gold.Chemscore.Internal_Hbond.Weighted>
0.0000

> <Gold.Chemscore.DEClash.Weighted>
3.2164

> <Gold.Chemscore.DEInternal.Weighted>
1.0783

> <Gold.Chemscore.Rot.Weighted>
5.8427

> <Gold.Chemscore.Internal.Correction.Weighted>
   9.000000E+99

> <Gold.Protein.RotatedTorsions>
[ 6907 6896 6895 6894 ] final   14.12 input  -60.11 | X-H torsion
[ 7974 7965 7964 7962 ] final -143.92 input  175.53 | X-H torsion
[ 8008 7997 7996 7995 ] final   61.09 input   59.86 | X-H torsion
[ 10167 10162 10161 10158 ] final  168.17 input  -65.29 | X-H torsion
[ 10718 10713 10712 10709 ] final  -41.41 input   66.30 | X-H torsion
[ 10763 10752 10751 10750 ] final  -73.87 input  -60.55 | X-H torsion
[ 11005 11000 10999 10996 ] final -153.01 input  -57.11 | X-H torsion

> <Gold.Protein.ActiveResidues>
 VAL166  LYS551  ARG553  GLY616  TRP617  ASP618  TYR619  PRO620  LYS621  CYS622 
 ASP623  PHE694  ASN695  SER759  ASP760  ASP761  ALA762  ILE779  LEU786  VAL792 
 PHE793  MET794  SER795  GLU796  ALA797  LYS798  CYS799  TRP800  GLU811  SER814 

> <Gold.Protein.RotatedAtoms>
  151.7972  135.0719  160.0395 H   0  0  0  0  0  0  0  0  0  0  0  0  # atno 6907 bound_to 6896
  152.3115  133.5753  159.5692 H   0  0  0  0  0  0  0  0  0  0  0  0  # atno 6908 bound_to 6896
  150.7322  134.0061  159.3696 H   0  0  0  0  0  0  0  0  0  0  0  0  # atno 6909 bound_to 6896
  144.8334  140.5774  143.5500 H   0  0  0  0  0  0  0  0  0  0  0  0  # atno 7974 bound_to 7965
  155.5928  140.3493  155.4571 H   0  0  0  0  0  0  0  0  0  0  0  0  # atno 8008 bound_to 7997
  156.0288  140.1270  157.0305 H   0  0  0  0  0  0  0  0  0  0  0  0  # atno 8009 bound_to 7997
  154.4344  140.1047  156.6055 H   0  0  0  0  0  0  0  0  0  0  0  0  # atno 8010 bound_to 7997
  139.4962  144.3843  151.9587 H   0  0  0  0  0  0  0  0  0  0  0  0  # atno 10167 bound_to 10162
  156.2706  130.4206  149.8442 H   0  0  0  0  0  0  0  0  0  0  0  0  # atno 10718 bound_to 10713
  154.4653  135.5883  153.6284 H   0  0  0  0  0  0  0  0  0  0  0  0  # atno 10763 bound_to 10752
  152.9828  135.6054  154.3435 H   0  0  0  0  0  0  0  0  0  0  0  0  # atno 10764 bound_to 10752
  154.3311  135.2842  155.2450 H   0  0  0  0  0  0  0  0  0  0  0  0  # atno 10765 bound_to 10752
  140.7128  134.3814  157.5195 H   0  0  0  0  0  0  0  0  0  0  0  0  # atno 11005 bound_to 11000
  145.4846  139.1493  143.3743 LP  0  0  0  0  0  0  0  0  0  0  0  0  # atno 17320 bound_to 7965
  146.2635  140.4983  142.8843 LP  0  0  0  0  0  0  0  0  0  0  0  0  # atno 17321 bound_to 7965
  140.3280  144.3350  150.5994 LP  0  0  0  0  0  0  0  0  0  0  0  0  # atno 17342 bound_to 10162
  140.5668  143.2185  151.7669 LP  0  0  0  0  0  0  0  0  0  0  0  0  # atno 17343 bound_to 10162
  156.5924  130.8512  151.3411 LP  0  0  0  0  0  0  0  0  0  0  0  0  # atno 17370 bound_to 10713
  157.7282  130.9654  150.1734 LP  0  0  0  0  0  0  0  0  0  0  0  0  # atno 17371 bound_to 10713
  139.8867  134.8901  156.2568 LP  0  0  0  0  0  0  0  0  0  0  0  0  # atno 17394 bound_to 11000
  141.0070  133.7118  156.1051 LP  0  0  0  0  0  0  0  0  0  0  0  0  # atno 17395 bound_to 11000

$$$$
