AV-unprocessed.smi:2068|AV-procd|sdf|8430|dock6
  -GOLD-   2272011123D 1   1.00000     0.00000
 Structure written by MMmdl.
 32 33  0  0  0  0  0  0  0  0  2 V2000
  148.6669  139.0075  151.9478 N   0  0  0  0  0  0  0  0  0  0  0  0
  148.2890  139.7899  152.9634 C   0  0  0  0  0  0  0  0  0  0  0  0
  147.9255  140.9524  152.7951 O   0  0  0  0  0  0  0  0  0  0  0  0
  148.3413  139.1910  154.3719 C   0  0  0  0  0  0  0  0  0  0  0  0
  149.7623  138.9941  154.8166 C   0  0  0  0  0  0  0  0  0  0  0  0
  150.6909  138.1479  154.2672 C   0  0  0  0  0  0  0  0  0  0  0  0
  152.2208  138.2489  155.0909 S   0  0  0  0  0  0  0  0  0  0  0  0
  151.5424  139.4610  156.1787 C   0  0  0  0  0  0  0  0  0  0  0  0
  152.2093  140.0586  157.1780 N   0  5  0  0  0  0  0  0  0  0  0  0
  151.5175  140.6822  158.1620 C   0  0  0  0  0  0  0  0  0  0  0  0
  151.0283  140.2019  159.1856 O   0  0  0  0  0  0  0  0  0  0  0  0
  151.3761  142.1892  157.9056 C   0  0  0  0  0  0  0  0  0  0  0  0
  152.2792  143.0453  158.8205 C   0  0  1  0  0  0  0  0  0  0  0  0
  152.2446  144.5220  158.5076 C   0  0  0  0  0  0  0  0  0  0  0  0
  151.9809  145.2680  159.5779 C   0  0  0  0  0  0  0  0  0  0  0  0
  151.7852  144.4437  160.8199 C   0  0  0  0  0  0  0  0  0  0  0  0
  151.8700  142.9860  160.3146 C   0  0  0  0  0  0  0  0  0  0  0  0
  150.2587  139.7172  155.9051 N   0  0  0  0  0  0  0  0  0  0  0  0
  148.6267  139.3555  151.0010 H   0  0  0  0  0  0  0  0  0  0  0  0
  148.9710  138.0613  152.1305 H   0  0  0  0  0  0  0  0  0  0  0  0
  147.8058  139.8505  155.0562 H   0  0  0  0  0  0  0  0  0  0  0  0
  147.8063  138.2405  154.3799 H   0  0  0  0  0  0  0  0  0  0  0  0
  150.5708  137.4790  153.4283 H   0  0  0  0  0  0  0  0  0  0  0  0
  151.5771  142.4260  156.8586 H   0  0  0  0  0  0  0  0  0  0  0  0
  150.3330  142.4581  158.0759 H   0  0  0  0  0  0  0  0  0  0  0  0
  153.3152  142.7186  158.7178 H   0  0  0  0  0  0  0  0  0  0  0  0
  152.4314  144.9068  157.5154 H   0  0  0  0  0  0  0  0  0  0  0  0
  151.9201  146.3462  159.5856 H   0  0  0  0  0  0  0  0  0  0  0  0
  152.5725  144.6679  161.5404 H   0  0  0  0  0  0  0  0  0  0  0  0
  150.8195  144.6593  161.2777 H   0  0  0  0  0  0  0  0  0  0  0  0
  150.8979  142.5044  160.4300 H   0  0  0  0  0  0  0  0  0  0  0  0
  152.5842  142.4038  160.8977 H   0  0  0  0  0  0  0  0  0  0  0  0
  1  2  1  0  0  0  0
  1 19  1  0  0  0  0
  1 20  1  0  0  0  0
  2  3  2  0  0  0  0
  2  4  1  0  0  0  0
  4  5  1  0  0  0  0
  4 21  1  0  0  0  0
  4 22  1  0  0  0  0
  5 18  1  0  0  0  0
  5  6  2  0  0  0  0
  6  7  1  0  0  0  0
  6 23  1  0  0  0  0
  7  8  1  0  0  0  0
  8  9  1  0  0  0  0
  8 18  2  0  0  0  0
  9 10  1  0  0  0  0
 10 11  2  0  0  0  0
 10 12  1  0  0  0  0
 12 13  1  0  0  0  0
 12 24  1  0  0  0  0
 12 25  1  0  0  0  0
 13 17  1  0  0  0  0
 13 14  1  0  0  0  0
 13 26  1  0  0  0  0
 14 15  2  0  0  0  0
 14 27  1  0  0  0  0
 15 16  1  0  0  0  0
 15 28  1  0  0  0  0
 16 17  1  0  0  0  0
 16 29  1  0  0  0  0
 16 30  1  0  0  0  0
 17 31  1  0  0  0  0
 17 32  1  0  0  0  0
M  CHG  1   9  -1
M  END
> <s_m_source_file>
AV-unprocessed.smi

> <i_m_source_file_index>
2068

> <i_lp_mmshare_version>
43012

> <i_f3d_flags>
0

> <s_epik_input>
W05IMl1DKD1PKVtDSDJdYzFbY0hdc2MobjEpW05IXUMoPU8pW0NIMl1bQ0BASF0yW0NIXT1bQ0hdW0NIMl1bQ0gyXTI=

> <s_epik_cmdline>
J2VwaWtfcHl0aG9uJywgJy1waCcsICc3LjAnLCAnLXRuJywgJzgnLCAnLW1hJywgJzIwMCcsICctbWV0YWxfYmluZGluZycsICctaW1hZScsICc8aW5maWxlLm1hZT4nLCAnLW9tYWUnLCAnPG91dGZpbGUubWFlPic=

> <r_lp_tautomer_probability>
1

> <r_epik_Ionization_Penalty>
4.99584

> <r_epik_Ionization_Penalty_Charging>
4.63763

> <r_epik_Ionization_Penalty_Neutral>
0.358213

> <r_epik_State_Penalty>
4.63739

> <r_epik_Charging_Adjusted_Penalty>
9.27502

> <i_epik_Tot_Q>
-1

> <i_epik_Tot_abs_Q>
1

> <r_epik_Metal_State_Penalty>
0.891949

> <b_epik_Metal_Only>
1

> <s_lp_Force_Field>
OPLS_2005

> <r_lp_Energy>
14.2455

> <b_lp_Chiralities_Consistent>
1

> <s_lp_Variant>
AV-unprocessed.smi:2068-4

> <Gold.Version>
5.8.1

> <Gold.Id.Protein>
6NUR|6NUR_protein|mol2

> <Gold.PLP.Fitness>
51.2244

> <Gold.PLP.PLP>
-40.8706

> <Gold.PLP.part.hbond>
-2.7805

> <Gold.PLP.part.metal>
0.0000

> <Gold.PLP.part.buried>
-3.9393

> <Gold.PLP.part.nonpolar>
-33.7921

> <Gold.PLP.part.repulsive>
0.2285

> <Gold.PLP.ligand.clash>
0.0000

> <Gold.PLP.ligand.torsion>
1.1117

> <Gold.PLP.Chemscore.Hbond>
3.0000

> <Gold.PLP.Chemscore.CHOScore>
1.1501

> <Gold.PLP.Chemscore.Metal>
0.0000

> <Gold.Chemscore.Hbonds>
donor molecule, donor type, donor heavy atom, donor atom, acceptor molecule, acceptor atom, score
      L1  H     1    20       P1  7948  1.00
      P1  H  7997  8008       L1     9  1.01
      P1  H  8011  8017       L1     3  0.06
      L1  C     6    23       P1  7948  0.59
      L1  C     6    23       P1  7949  0.60

> <Gold.PLP.Chemscore.Internal.Correction>
0.1268

> <Gold.Rescore>
     Score         DG    S(hbond)    S(metal)    S(lipo)     H(rot)  DE(clash)    DE(int)     intcor
     16.43     -17.55       1.92        0.00      95.61       2.17       0.00       1.12       ----

> <Gold.Chemscore.Fitness>
16.4289

> <Gold.Chemscore.DG>
-17.5529

> <Gold.Chemscore.ZeroCoef>
-5.4800

> <Gold.Chemscore.Hbond>
1.9247

> <Gold.Chemscore.Metal>
0.0000

> <Gold.Chemscore.Lipo>
95.6138

> <Gold.Chemscore.Internal_Hbond>
0.0000

> <Gold.Chemscore.DEClash>
0.0021

> <Gold.Chemscore.DEInternal>
1.1218

> <Gold.Chemscore.Rot>
2.1650

> <Gold.Chemscore.Internal.Correction>
   9.000000E+99

> <Gold.Chemscore.Hbonds>
donor molecule, donor type, donor heavy atom, donor atom, acceptor molecule, acceptor atom, score
      L1  H     1    20       P1  7948  0.92
      P1  H  7997  8008       L1     9  0.32
      P1  H  8011  8017       L1     3  0.08

> <Gold.Chemscore.Hbond.Weighted>
-6.4286

> <Gold.Chemscore.Metal.Weighted>
-0.0000

> <Gold.Chemscore.Lipo.Weighted>
-11.1868

> <Gold.Chemscore.Internal_Hbond.Weighted>
0.0000

> <Gold.Chemscore.DEClash.Weighted>
0.0021

> <Gold.Chemscore.DEInternal.Weighted>
1.1218

> <Gold.Chemscore.Rot.Weighted>
5.5425

> <Gold.Chemscore.Internal.Correction.Weighted>
   9.000000E+99

> <Gold.Protein.RotatedTorsions>
[ 6907 6896 6895 6894 ] final   93.63 input  -60.11 | X-H torsion
[ 7974 7965 7964 7962 ] final  173.16 input  175.53 | X-H torsion
[ 8008 7997 7996 7995 ] final  -59.47 input   59.86 | X-H torsion
[ 10167 10162 10161 10158 ] final  145.20 input  -65.29 | X-H torsion
[ 10718 10713 10712 10709 ] final  152.33 input   66.30 | X-H torsion
[ 10763 10752 10751 10750 ] final   90.53 input  -60.55 | X-H torsion
[ 11005 11000 10999 10996 ] final   43.53 input  -57.11 | X-H torsion

> <Gold.Protein.ActiveResidues>
 VAL166  LYS551  ARG553  GLY616  TRP617  ASP618  TYR619  PRO620  LYS621  CYS622 
 ASP623  PHE694  ASN695  SER759  ASP760  ASP761  ALA762  ILE779  LEU786  VAL792 
 PHE793  MET794  SER795  GLU796  ALA797  LYS798  CYS799  TRP800  GLU811  SER814 

> <Gold.Protein.RotatedAtoms>
  152.5452  134.1318  159.8442 H   0  0  0  0  0  0  0  0  0  0  0  0  # atno 6907 bound_to 6896
  151.1363  133.4995  159.2605 H   0  0  0  0  0  0  0  0  0  0  0  0  # atno 6908 bound_to 6896
  151.1621  135.0288  159.8769 H   0  0  0  0  0  0  0  0  0  0  0  0  # atno 6909 bound_to 6896
  144.7250  139.9606  143.6434 H   0  0  0  0  0  0  0  0  0  0  0  0  # atno 7974 bound_to 7965
  154.4354  140.1061  156.6120 H   0  0  0  0  0  0  0  0  0  0  0  0  # atno 8008 bound_to 7997
  155.5799  140.3490  155.4519 H   0  0  0  0  0  0  0  0  0  0  0  0  # atno 8009 bound_to 7997
  156.0326  140.1264  157.0231 H   0  0  0  0  0  0  0  0  0  0  0  0  # atno 8010 bound_to 7997
  139.4931  144.5918  151.6664 H   0  0  0  0  0  0  0  0  0  0  0  0  # atno 10167 bound_to 10162
  157.2591  131.0794  151.1678 H   0  0  0  0  0  0  0  0  0  0  0  0  # atno 10718 bound_to 10713
  153.1986  135.4430  155.0238 H   0  0  0  0  0  0  0  0  0  0  0  0  # atno 10763 bound_to 10752
  154.8133  135.3304  154.7247 H   0  0  0  0  0  0  0  0  0  0  0  0  # atno 10764 bound_to 10752
  153.7695  135.6985  153.4965 H   0  0  0  0  0  0  0  0  0  0  0  0  # atno 10765 bound_to 10752
  140.1636  134.4310  155.8302 H   0  0  0  0  0  0  0  0  0  0  0  0  # atno 11005 bound_to 11000
  146.0641  139.3632  143.0563 LP  0  0  0  0  0  0  0  0  0  0  0  0  # atno 17320 bound_to 7965
  145.8055  140.9751  143.0976 LP  0  0  0  0  0  0  0  0  0  0  0  0  # atno 17321 bound_to 7965
  140.5547  144.0368  150.6142 LP  0  0  0  0  0  0  0  0  0  0  0  0  # atno 17342 bound_to 10162
  140.3433  143.3006  152.0565 LP  0  0  0  0  0  0  0  0  0  0  0  0  # atno 17343 bound_to 10162
  157.3194  130.6930  149.6261 LP  0  0  0  0  0  0  0  0  0  0  0  0  # atno 17370 bound_to 10713
  155.9664  130.4340  150.5029 LP  0  0  0  0  0  0  0  0  0  0  0  0  # atno 17371 bound_to 10713
  141.2211  133.6924  156.7638 LP  0  0  0  0  0  0  0  0  0  0  0  0  # atno 17394 bound_to 11000
  140.2460  134.8577  157.3621 LP  0  0  0  0  0  0  0  0  0  0  0  0  # atno 17395 bound_to 11000

$$$$
