AV-unprocessed.smi:173|AV-procd|sdf|1424|dock4
  -GOLD-   2262019193D 1   1.00000     0.00000
 Structure written by MMmdl.
 60 64  0  0  0  0  0  0  0  0  1 V2000
  151.3856  143.7731  157.0590 O   0  0  0  0  0  0  0  0  0  0  0  0
  150.9534  142.7424  157.9291 C   0  0  0  0  0  0  0  0  0  0  0  0
  150.8311  141.4793  157.0389 C   0  0  0  0  0  0  0  0  0  0  0  0
  149.8959  140.4820  157.5349 N   0  0  0  0  0  0  0  0  0  0  0  0
  148.5220  140.5686  157.5340 C   0  0  0  0  0  0  0  0  0  0  0  0
  147.8988  139.5371  158.0335 N   0  0  0  0  0  0  0  0  0  0  0  0
  148.9202  138.6776  158.4206 C   0  0  0  0  0  0  0  0  0  0  0  0
  148.9637  137.3864  159.0195 C   0  0  0  0  0  0  0  0  0  0  0  0
  147.8758  136.6606  159.3704 N   0  0  0  0  0  0  0  0  0  0  0  0
  147.3196  135.8641  158.2757 C   0  0  0  0  0  0  0  0  0  0  0  0
  148.3670  134.9792  157.5804 C   0  0  1  0  0  0  0  0  0  0  0  0
  147.7722  134.0691  156.5104 C   0  0  0  0  0  0  0  0  0  0  0  0
  148.9835  133.7177  155.6689 C   0  0  0  0  0  0  0  0  0  0  0  0
  149.9071  134.9251  155.8518 C   0  0  0  0  0  0  0  0  0  0  0  0
  149.2749  135.7601  156.8164 O   0  0  0  0  0  0  0  0  0  0  0  0
  147.8456  136.1038  160.7316 C   0  0  0  0  0  0  0  0  0  0  0  0
  147.0240  134.8241  160.9394 C   0  0  0  0  0  0  0  0  0  0  0  0
  146.9339  134.6998  162.4626 C   0  0  0  0  0  0  0  0  0  0  0  0
  147.0074  136.1355  163.0108 C   0  0  0  0  0  0  0  0  0  0  0  0
  147.2998  137.0460  161.8104 C   0  0  0  0  0  0  0  0  0  0  0  0
  150.1822  136.8470  159.2754 N   0  0  0  0  0  0  0  0  0  0  0  0
  151.2924  137.5166  158.9522 C   0  0  0  0  0  0  0  0  0  0  0  0
  151.4068  138.7167  158.3795 N   0  0  0  0  0  0  0  0  0  0  0  0
  150.1831  139.2645  158.1273 C   0  0  0  0  0  0  0  0  0  0  0  0
  152.0006  142.5865  159.0536 C   0  0  0  0  0  0  0  0  0  0  0  0
  152.0358  143.8156  159.9801 C   0  0  0  0  0  0  0  0  0  0  0  0
  150.7403  144.0595  160.5152 O   0  0  0  0  0  0  0  0  0  0  0  0
  149.7790  144.3674  159.5123 C   0  0  0  0  0  0  0  0  0  0  0  0
  149.6105  143.1696  158.5606 C   0  0  0  0  0  0  0  0  0  0  0  0
  150.6356  144.1012  156.5866 H   0  0  0  0  0  0  0  0  0  0  0  0
  150.5230  141.7577  156.0298 H   0  0  0  0  0  0  0  0  0  0  0  0
  151.8059  140.9997  156.9350 H   0  0  0  0  0  0  0  0  0  0  0  0
  147.9927  141.4239  157.1394 H   0  0  0  0  0  0  0  0  0  0  0  0
  146.5426  135.2134  158.6812 H   0  0  0  0  0  0  0  0  0  0  0  0
  146.8300  136.5106  157.5469 H   0  0  0  0  0  0  0  0  0  0  0  0
  148.9164  134.3786  158.3084 H   0  0  0  0  0  0  0  0  0  0  0  0
  147.2725  133.1931  156.9247 H   0  0  0  0  0  0  0  0  0  0  0  0
  147.0494  134.6193  155.9061 H   0  0  0  0  0  0  0  0  0  0  0  0
  149.4641  132.8187  156.0566 H   0  0  0  0  0  0  0  0  0  0  0  0
  148.7252  133.5384  154.6250 H   0  0  0  0  0  0  0  0  0  0  0  0
  150.8873  134.6130  156.2137 H   0  0  0  0  0  0  0  0  0  0  0  0
  150.0475  135.4770  154.9222 H   0  0  0  0  0  0  0  0  0  0  0  0
  148.8719  135.8513  160.9974 H   0  0  0  0  0  0  0  0  0  0  0  0
  146.0125  134.9298  160.5457 H   0  0  0  0  0  0  0  0  0  0  0  0
  147.4780  133.9499  160.4721 H   0  0  0  0  0  0  0  0  0  0  0  0
  146.0255  134.1838  162.7748 H   0  0  0  0  0  0  0  0  0  0  0  0
  147.7814  134.1228  162.8350 H   0  0  0  0  0  0  0  0  0  0  0  0
  146.0777  136.4266  163.5010 H   0  0  0  0  0  0  0  0  0  0  0  0
  147.8035  136.2107  163.7525 H   0  0  0  0  0  0  0  0  0  0  0  0
  147.9954  137.8486  162.0572 H   0  0  0  0  0  0  0  0  0  0  0  0
  146.3677  137.5045  161.4817 H   0  0  0  0  0  0  0  0  0  0  0  0
  152.2221  137.0183  159.1841 H   0  0  0  0  0  0  0  0  0  0  0  0
  151.7611  141.7178  159.6663 H   0  0  0  0  0  0  0  0  0  0  0  0
  152.9906  142.4037  158.6338 H   0  0  0  0  0  0  0  0  0  0  0  0
  152.7266  143.6391  160.8048 H   0  0  0  0  0  0  0  0  0  0  0  0
  152.3960  144.6996  159.4518 H   0  0  0  0  0  0  0  0  0  0  0  0
  148.8290  144.5937  159.9965 H   0  0  0  0  0  0  0  0  0  0  0  0
  150.0771  145.2653  158.9691 H   0  0  0  0  0  0  0  0  0  0  0  0
  148.8785  143.4032  157.7866 H   0  0  0  0  0  0  0  0  0  0  0  0
  149.1939  142.3452  159.1390 H   0  0  0  0  0  0  0  0  0  0  0  0
  1  2  1  0  0  0  0
  1 30  1  0  0  0  0
  2 29  1  0  0  0  0
  2  3  1  0  0  0  0
  2 25  1  0  0  0  0
  3  4  1  0  0  0  0
  3 31  1  0  0  0  0
  3 32  1  0  0  0  0
  4 24  1  0  0  0  0
  4  5  1  0  0  0  0
  5  6  2  0  0  0  0
  5 33  1  0  0  0  0
  6  7  1  0  0  0  0
  7 24  2  0  0  0  0
  7  8  1  0  0  0  0
  8  9  1  0  0  0  0
  8 21  2  0  0  0  0
  9 10  1  0  0  0  0
  9 16  1  0  0  0  0
 10 11  1  0  0  0  0
 10 34  1  0  0  0  0
 10 35  1  0  0  0  0
 11 15  1  0  0  0  0
 11 12  1  0  0  0  0
 11 36  1  0  0  0  0
 12 13  1  0  0  0  0
 12 37  1  0  0  0  0
 12 38  1  0  0  0  0
 13 14  1  0  0  0  0
 13 39  1  0  0  0  0
 13 40  1  0  0  0  0
 14 15  1  0  0  0  0
 14 41  1  0  0  0  0
 14 42  1  0  0  0  0
 16 20  1  0  0  0  0
 16 17  1  0  0  0  0
 16 43  1  0  0  0  0
 17 18  1  0  0  0  0
 17 44  1  0  0  0  0
 17 45  1  0  0  0  0
 18 19  1  0  0  0  0
 18 46  1  0  0  0  0
 18 47  1  0  0  0  0
 19 20  1  0  0  0  0
 19 48  1  0  0  0  0
 19 49  1  0  0  0  0
 20 50  1  0  0  0  0
 20 51  1  0  0  0  0
 21 22  1  0  0  0  0
 22 23  2  0  0  0  0
 22 52  1  0  0  0  0
 23 24  1  0  0  0  0
 25 26  1  0  0  0  0
 25 53  1  0  0  0  0
 25 54  1  0  0  0  0
 26 27  1  0  0  0  0
 26 55  1  0  0  0  0
 26 56  1  0  0  0  0
 27 28  1  0  0  0  0
 28 29  1  0  0  0  0
 28 57  1  0  0  0  0
 28 58  1  0  0  0  0
 29 59  1  0  0  0  0
 29 60  1  0  0  0  0
M  END
> <s_m_source_file>
AV-unprocessed.smi

> <i_m_source_file_index>
173

> <i_lp_mmshare_version>
43012

> <i_f3d_flags>
0

> <s_epik_input>
W0NIMl0xW0NIMl1PW0NIMl1bQ0gyXUMxKFtPSF0pW0NIMl1uKFtjSF1uMiljKGMyMyluW2NIXW5jM04oW0NIMl1bQ0BASF00W0NIMl1bQ0gyXVtDSDJdTzQpW0NIXTVbQ0gyXVtDSDJdW0NIMl1bQ0gyXTU=

> <s_epik_cmdline>
J2VwaWtfcHl0aG9uJywgJy1waCcsICc3LjAnLCAnLXRuJywgJzgnLCAnLW1hJywgJzIwMCcsICctbWV0YWxfYmluZGluZycsICctaW1hZScsICc8aW5maWxlLm1hZT4nLCAnLW9tYWUnLCAnPG91dGZpbGUubWFlPic=

> <r_lp_tautomer_probability>
1

> <r_epik_Ionization_Penalty>
0.0053129

> <r_epik_Ionization_Penalty_Charging>
0

> <r_epik_Ionization_Penalty_Neutral>
0.0053129

> <r_epik_State_Penalty>
0.00367355

> <r_epik_Charging_Adjusted_Penalty>
0.00367355

> <i_epik_Tot_Q>
0

> <i_epik_Tot_abs_Q>
0

> <r_epik_Metal_State_Penalty>
-0

> <b_epik_Metal_Only>
0

> <s_lp_Force_Field>
OPLS_2005

> <r_lp_Energy>
59.0129

> <b_lp_Chiralities_Consistent>
1

> <s_lp_Variant>
AV-unprocessed.smi:173-2

> <Gold.Version>
5.8.1

> <Gold.Id.Protein>
6NUR|6NUR_protein|mol2

> <Gold.PLP.Fitness>
47.7099

> <Gold.PLP.PLP>
-45.1189

> <Gold.PLP.part.hbond>
-3.3814

> <Gold.PLP.part.metal>
0.0000

> <Gold.PLP.part.buried>
-7.5499

> <Gold.PLP.part.nonpolar>
-35.4269

> <Gold.PLP.part.repulsive>
0.1423

> <Gold.PLP.ligand.clash>
0.0000

> <Gold.PLP.ligand.torsion>
2.2855

> <Gold.PLP.Chemscore.Hbond>
2.0000

> <Gold.PLP.Chemscore.CHOScore>
0.0000

> <Gold.PLP.Chemscore.Metal>
0.0000

> <Gold.Chemscore.Hbonds>
donor molecule, donor type, donor heavy atom, donor atom, acceptor molecule, acceptor atom, score
      L1  H     1    30       P1  8028  0.94
      P1  H  6896  6908       L1    21  0.56

> <Gold.PLP.Chemscore.Internal.Correction>
1.1620

> <Gold.Rescore>
     Score         DG    S(hbond)    S(metal)    S(lipo)     H(rot)  DE(clash)    DE(int)     intcor
     12.22     -17.74       1.92        0.00     106.56       2.59       1.72       3.79       ----

> <Gold.Chemscore.Fitness>
12.2231

> <Gold.Chemscore.DG>
-17.7397

> <Gold.Chemscore.ZeroCoef>
-5.4800

> <Gold.Chemscore.Hbond>
1.9241

> <Gold.Chemscore.Metal>
0.0000

> <Gold.Chemscore.Lipo>
106.5608

> <Gold.Chemscore.Internal_Hbond>
0.0000

> <Gold.Chemscore.DEClash>
1.7236

> <Gold.Chemscore.DEInternal>
3.7930

> <Gold.Chemscore.Rot>
2.5916

> <Gold.Chemscore.Internal.Correction>
   9.000000E+99

> <Gold.Chemscore.Hbonds>
donor molecule, donor type, donor heavy atom, donor atom, acceptor molecule, acceptor atom, score
      L1  H     1    30       P1  8028  0.90
      P1  H  6896  6908       L1    21  0.06

> <Gold.Chemscore.Hbond.Weighted>
-6.4266

> <Gold.Chemscore.Metal.Weighted>
-0.0000

> <Gold.Chemscore.Lipo.Weighted>
-12.4676

> <Gold.Chemscore.Internal_Hbond.Weighted>
0.0000

> <Gold.Chemscore.DEClash.Weighted>
1.7236

> <Gold.Chemscore.DEInternal.Weighted>
3.7930

> <Gold.Chemscore.Rot.Weighted>
6.6346

> <Gold.Chemscore.Internal.Correction.Weighted>
   9.000000E+99

> <Gold.Protein.RotatedTorsions>
[ 6907 6896 6895 6894 ] final -139.44 input  -60.11 | X-H torsion
[ 7974 7965 7964 7962 ] final  156.62 input  175.53 | X-H torsion
[ 8008 7997 7996 7995 ] final  173.94 input   59.86 | X-H torsion
[ 10167 10162 10161 10158 ] final  136.69 input  -65.29 | X-H torsion
[ 10718 10713 10712 10709 ] final   96.66 input   66.30 | X-H torsion
[ 10763 10752 10751 10750 ] final   35.17 input  -60.55 | X-H torsion
[ 11005 11000 10999 10996 ] final  -70.28 input  -57.11 | X-H torsion

> <Gold.Protein.ActiveResidues>
 VAL166  LYS551  ARG553  GLY616  TRP617  ASP618  TYR619  PRO620  LYS621  CYS622 
 ASP623  PHE694  ASN695  SER759  ASP760  ASP761  ALA762  ILE779  LEU786  VAL792 
 PHE793  MET794  SER795  GLU796  ALA797  LYS798  CYS799  TRP800  GLU811  SER814 

> <Gold.Protein.RotatedAtoms>
  151.0478  133.5650  159.2644 H   0  0  0  0  0  0  0  0  0  0  0  0  # atno 6907 bound_to 6896
  151.2672  135.0672  159.9130 H   0  0  0  0  0  0  0  0  0  0  0  0  # atno 6908 bound_to 6896
  152.5376  134.0214  159.8037 H   0  0  0  0  0  0  0  0  0  0  0  0  # atno 6909 bound_to 6896
  144.7952  139.7228  143.6205 H   0  0  0  0  0  0  0  0  0  0  0  0  # atno 7974 bound_to 7965
  156.1025  140.1447  156.9448 H   0  0  0  0  0  0  0  0  0  0  0  0  # atno 8008 bound_to 7997
  154.4712  140.0909  156.7193 H   0  0  0  0  0  0  0  0  0  0  0  0  # atno 8009 bound_to 7997
  155.4735  140.3442  155.4331 H   0  0  0  0  0  0  0  0  0  0  0  0  # atno 8010 bound_to 7997
  139.5171  144.6451  151.5462 H   0  0  0  0  0  0  0  0  0  0  0  0  # atno 10167 bound_to 10162
  157.6924  131.0585  150.4525 H   0  0  0  0  0  0  0  0  0  0  0  0  # atno 10718 bound_to 10713
  153.0131  135.6340  154.1785 H   0  0  0  0  0  0  0  0  0  0  0  0  # atno 10763 bound_to 10752
  154.1526  135.2828  155.3133 H   0  0  0  0  0  0  0  0  0  0  0  0  # atno 10764 bound_to 10752
  154.6042  135.5577  153.7467 H   0  0  0  0  0  0  0  0  0  0  0  0  # atno 10765 bound_to 10752
  141.1571  133.6786  156.6729 H   0  0  0  0  0  0  0  0  0  0  0  0  # atno 11005 bound_to 11000
  146.2218  139.5650  142.9613 LP  0  0  0  0  0  0  0  0  0  0  0  0  # atno 17320 bound_to 7965
  145.5691  141.0396  143.2184 LP  0  0  0  0  0  0  0  0  0  0  0  0  # atno 17321 bound_to 7965
  140.6232  143.9218  150.6543 LP  0  0  0  0  0  0  0  0  0  0  0  0  # atno 17342 bound_to 10162
  140.2498  143.3601  152.1415 LP  0  0  0  0  0  0  0  0  0  0  0  0  # atno 17343 bound_to 10162
  156.4875  130.4087  149.6426 LP  0  0  0  0  0  0  0  0  0  0  0  0  # atno 17370 bound_to 10713
  156.3448  130.7401  151.2352 LP  0  0  0  0  0  0  0  0  0  0  0  0  # atno 17371 bound_to 10713
  140.3161  134.8046  157.4215 LP  0  0  0  0  0  0  0  0  0  0  0  0  # atno 17394 bound_to 11000
  140.1137  134.5312  155.8244 LP  0  0  0  0  0  0  0  0  0  0  0  0  # atno 17395 bound_to 11000

$$$$
