AV-unprocessed.smi:3278|AV-procd|sdf|12547|dock1
  -GOLD-   2272018463D 1   1.00000     0.00000
 Structure written by MMmdl.
 38 39  0  0  0  0  0  0  0  0  1 V2000
  150.8327  135.2795  155.1779 C   0  0  0  0  0  0  0  0  0  0  0  0
  150.8708  136.7082  154.9510 N   0  0  0  0  0  0  0  0  0  0  0  0
  149.8647  137.6338  155.1221 C   0  0  0  0  0  0  0  0  0  0  0  0
  150.3670  138.8611  154.7837 C   0  0  0  0  0  0  0  0  0  0  0  0
  149.6925  140.2176  154.8031 C   0  0  2  0  0  0  0  0  0  0  0  0
  148.2150  140.1271  155.2340 C   0  0  0  0  0  0  0  0  0  0  0  0
  149.6764  140.7814  153.5073 O   0  0  0  0  0  0  0  0  0  0  0  0
  150.4772  141.2138  155.6838 C   0  0  0  0  0  0  0  0  0  0  0  0
  150.0375  141.1792  157.0813 N   0  0  0  0  0  0  0  0  0  0  0  0
  150.6151  142.2049  157.9541 C   0  0  1  0  0  0  0  0  0  0  0  0
  151.9783  141.7675  158.5395 C   0  0  0  0  0  0  0  0  0  0  0  0
  152.5810  142.8116  159.4940 C   0  0  0  0  0  0  0  0  0  0  0  0
  152.8362  144.1607  158.8102 C   0  0  0  0  0  0  0  0  0  0  0  0
  151.2884  144.8899  158.2157 S   0  0  0  0  0  0  0  0  0  0  0  0
  150.7413  143.5193  157.1624 C   0  0  0  0  0  0  0  0  0  0  0  0
  151.7142  138.5672  154.4200 C   0  0  0  0  0  0  0  0  0  0  0  0
  152.0112  137.2821  154.5192 N   0  0  0  0  0  0  0  0  0  0  0  0
  149.8126  134.9623  155.3963 H   0  0  0  0  0  0  0  0  0  0  0  0
  151.4724  135.0243  156.0230 H   0  0  0  0  0  0  0  0  0  0  0  0
  151.1837  134.7532  154.2897 H   0  0  0  0  0  0  0  0  0  0  0  0
  148.8839  137.3451  155.4700 H   0  0  0  0  0  0  0  0  0  0  0  0
  148.1133  139.7307  156.2446 H   0  0  0  0  0  0  0  0  0  0  0  0
  147.6455  139.4777  154.5681 H   0  0  0  0  0  0  0  0  0  0  0  0
  147.7382  141.1082  155.2235 H   0  0  0  0  0  0  0  0  0  0  0  0
  149.2932  140.1548  152.9129 H   0  0  0  0  0  0  0  0  0  0  0  0
  151.5399  140.9713  155.6348 H   0  0  0  0  0  0  0  0  0  0  0  0
  150.3694  142.2176  155.2734 H   0  0  0  0  0  0  0  0  0  0  0  0
  150.2321  140.2610  157.4680 H   0  0  0  0  0  0  0  0  0  0  0  0
  149.9264  142.3829  158.7812 H   0  0  0  0  0  0  0  0  0  0  0  0
  151.8740  140.8369  159.0961 H   0  0  0  0  0  0  0  0  0  0  0  0
  152.6807  141.5626  157.7301 H   0  0  0  0  0  0  0  0  0  0  0  0
  151.9195  142.9526  160.3496 H   0  0  0  0  0  0  0  0  0  0  0  0
  153.5206  142.4302  159.8948 H   0  0  0  0  0  0  0  0  0  0  0  0
  153.3047  144.8550  159.5077 H   0  0  0  0  0  0  0  0  0  0  0  0
  153.5201  144.0393  157.9695 H   0  0  0  0  0  0  0  0  0  0  0  0
  151.4455  143.4051  156.3373 H   0  0  0  0  0  0  0  0  0  0  0  0
  149.7805  143.7937  156.7254 H   0  0  0  0  0  0  0  0  0  0  0  0
  152.4824  139.2511  154.0903 H   0  0  0  0  0  0  0  0  0  0  0  0
  1  2  1  0  0  0  0
  1 18  1  0  0  0  0
  1 19  1  0  0  0  0
  1 20  1  0  0  0  0
  2 17  1  0  0  0  0
  2  3  1  0  0  0  0
  3  4  2  0  0  0  0
  3 21  1  0  0  0  0
  4  5  1  0  0  0  0
  4 16  1  0  0  0  0
  5  6  1  0  0  0  0
  5  7  1  0  0  0  0
  5  8  1  0  0  0  0
  6 22  1  0  0  0  0
  6 23  1  0  0  0  0
  6 24  1  0  0  0  0
  7 25  1  0  0  0  0
  8  9  1  0  0  0  0
  8 26  1  0  0  0  0
  8 27  1  0  0  0  0
  9 10  1  0  0  0  0
  9 28  1  0  0  0  0
 10 15  1  0  0  0  0
 10 11  1  0  0  0  0
 10 29  1  0  0  0  0
 11 12  1  0  0  0  0
 11 30  1  0  0  0  0
 11 31  1  0  0  0  0
 12 13  1  0  0  0  0
 12 32  1  0  0  0  0
 12 33  1  0  0  0  0
 13 14  1  0  0  0  0
 13 34  1  0  0  0  0
 13 35  1  0  0  0  0
 14 15  1  0  0  0  0
 15 36  1  0  0  0  0
 15 37  1  0  0  0  0
 16 17  2  0  0  0  0
 16 38  1  0  0  0  0
M  END
> <s_m_source_file>
AV-unprocessed.smi

> <i_m_source_file_index>
3278

> <i_lp_mmshare_version>
43012

> <i_f3d_flags>
0

> <s_epik_input>
W0NIM11uMVtjSF1jKFtjSF1uMSlbQ0BAXShbQ0gzXSkoW09IXSlbQ0gyXVtOSF1bQ0BASF0yW0NIMl1bQ0gyXVtDSDJdU1tDSDJdMg==

> <s_epik_cmdline>
J2VwaWtfcHl0aG9uJywgJy1waCcsICc3LjAnLCAnLXRuJywgJzgnLCAnLW1hJywgJzIwMCcsICctbWV0YWxfYmluZGluZycsICctaW1hZScsICc8aW5maWxlLm1hZT4nLCAnLW9tYWUnLCAnPG91dGZpbGUubWFlPic=

> <r_lp_tautomer_probability>
1

> <r_epik_Ionization_Penalty>
2.06123

> <r_epik_Ionization_Penalty_Charging>
0

> <r_epik_Ionization_Penalty_Neutral>
2.06123

> <r_epik_State_Penalty>
2.1944

> <r_epik_Charging_Adjusted_Penalty>
2.1944

> <i_epik_Tot_Q>
0

> <i_epik_Tot_abs_Q>
0

> <r_epik_Metal_State_Penalty>
2.19434

> <b_epik_Metal_Only>
0

> <s_lp_Force_Field>
OPLS_2005

> <r_lp_Energy>
8.30166

> <b_lp_Chiralities_Consistent>
1

> <s_lp_Variant>
AV-unprocessed.smi:3278-8

> <Gold.Version>
5.8.1

> <Gold.Id.Protein>
6NUR|6NUR_protein|mol2

> <Gold.PLP.Fitness>
45.2030

> <Gold.PLP.PLP>
-38.9089

> <Gold.PLP.part.hbond>
-3.7183

> <Gold.PLP.part.metal>
0.0000

> <Gold.PLP.part.buried>
-4.2471

> <Gold.PLP.part.nonpolar>
-31.2841

> <Gold.PLP.part.repulsive>
0.1622

> <Gold.PLP.ligand.clash>
0.0000

> <Gold.PLP.ligand.torsion>
0.7827

> <Gold.PLP.Chemscore.Hbond>
2.5966

> <Gold.PLP.Chemscore.CHOScore>
0.0000

> <Gold.PLP.Chemscore.Metal>
0.0000

> <Gold.Chemscore.Hbonds>
donor molecule, donor type, donor heavy atom, donor atom, acceptor molecule, acceptor atom, score
      L1  H     7    25       P1  7957  0.51
      P1  H  7989  7998       L1     7  0.21
      P1  H  8011  8017       L1     7  1.00
      P1  H 10752 10763       L1    17  0.56

> <Gold.PLP.Chemscore.Internal.Correction>
0.0696

> <Gold.Rescore>
     Score         DG    S(hbond)    S(metal)    S(lipo)     H(rot)  DE(clash)    DE(int)     intcor
     18.67     -19.33       2.27        0.00      96.02       1.93       0.03       0.63       ----

> <Gold.Chemscore.Fitness>
18.6746

> <Gold.Chemscore.DG>
-19.3329

> <Gold.Chemscore.ZeroCoef>
-5.4800

> <Gold.Chemscore.Hbond>
2.2655

> <Gold.Chemscore.Metal>
0.0000

> <Gold.Chemscore.Lipo>
96.0204

> <Gold.Chemscore.Internal_Hbond>
0.0000

> <Gold.Chemscore.DEClash>
0.0284

> <Gold.Chemscore.DEInternal>
0.6300

> <Gold.Chemscore.Rot>
1.9329

> <Gold.Chemscore.Internal.Correction>
   9.000000E+99

> <Gold.Chemscore.Hbonds>
donor molecule, donor type, donor heavy atom, donor atom, acceptor molecule, acceptor atom, score
      L1  H     7    25       P1  7957  0.52
      P1  H  7989  7998       L1     7  0.01
      P1  H  8011  8017       L1     7  0.28
      P1  H 10752 10763       L1    17  0.05

> <Gold.Chemscore.Hbond.Weighted>
-7.5668

> <Gold.Chemscore.Metal.Weighted>
-0.0000

> <Gold.Chemscore.Lipo.Weighted>
-11.2344

> <Gold.Chemscore.Internal_Hbond.Weighted>
0.0000

> <Gold.Chemscore.DEClash.Weighted>
0.0284

> <Gold.Chemscore.DEInternal.Weighted>
0.6300

> <Gold.Chemscore.Rot.Weighted>
4.9483

> <Gold.Chemscore.Internal.Correction.Weighted>
   9.000000E+99

> <Gold.Protein.RotatedTorsions>
[ 6907 6896 6895 6894 ] final  144.12 input  -60.11 | X-H torsion
[ 7974 7965 7964 7962 ] final -166.17 input  175.53 | X-H torsion
[ 8008 7997 7996 7995 ] final  -66.43 input   59.86 | X-H torsion
[ 10167 10162 10161 10158 ] final  152.30 input  -65.29 | X-H torsion
[ 10718 10713 10712 10709 ] final  109.64 input   66.30 | X-H torsion
[ 10763 10752 10751 10750 ] final   54.17 input  -60.55 | X-H torsion
[ 11005 11000 10999 10996 ] final -100.28 input  -57.11 | X-H torsion

> <Gold.Protein.ActiveResidues>
 VAL166  LYS551  ARG553  GLY616  TRP617  ASP618  TYR619  PRO620  LYS621  CYS622 
 ASP623  PHE694  ASN695  SER759  ASP760  ASP761  ALA762  ILE779  LEU786  VAL792 
 PHE793  MET794  SER795  GLU796  ALA797  LYS798  CYS799  TRP800  GLU811  SER814 

> <Gold.Protein.RotatedAtoms>
  152.1977  133.4818  159.5041 H   0  0  0  0  0  0  0  0  0  0  0  0  # atno 6907 bound_to 6896
  150.6963  134.1631  159.4193 H   0  0  0  0  0  0  0  0  0  0  0  0  # atno 6908 bound_to 6896
  151.9547  135.0152  160.0595 H   0  0  0  0  0  0  0  0  0  0  0  0  # atno 6909 bound_to 6896
  144.7252  140.2707  143.6251 H   0  0  0  0  0  0  0  0  0  0  0  0  # atno 7974 bound_to 7965
  154.4734  140.0913  156.7202 H   0  0  0  0  0  0  0  0  0  0  0  0  # atno 8008 bound_to 7997
  155.4662  140.3463  155.4301 H   0  0  0  0  0  0  0  0  0  0  0  0  # atno 8009 bound_to 7997
  156.1077  140.1439  156.9370 H   0  0  0  0  0  0  0  0  0  0  0  0  # atno 8010 bound_to 7997
  139.4834  144.5369  151.7630 H   0  0  0  0  0  0  0  0  0  0  0  0  # atno 10167 bound_to 10162
  157.6532  131.0917  150.6483 H   0  0  0  0  0  0  0  0  0  0  0  0  # atno 10718 bound_to 10713
  152.9802  135.5754  154.4861 H   0  0  0  0  0  0  0  0  0  0  0  0  # atno 10763 bound_to 10752
  154.4403  135.2775  155.1854 H   0  0  0  0  0  0  0  0  0  0  0  0  # atno 10764 bound_to 10752
  154.3525  135.6206  153.5703 H   0  0  0  0  0  0  0  0  0  0  0  0  # atno 10765 bound_to 10752
  141.1277  133.8387  157.1082 H   0  0  0  0  0  0  0  0  0  0  0  0  # atno 11005 bound_to 11000
  145.8046  139.1978  143.2028 LP  0  0  0  0  0  0  0  0  0  0  0  0  # atno 17320 bound_to 7965
  146.0648  140.7933  142.9717 LP  0  0  0  0  0  0  0  0  0  0  0  0  # atno 17321 bound_to 7965
  140.4903  144.1320  150.5949 LP  0  0  0  0  0  0  0  0  0  0  0  0  # atno 17342 bound_to 10162
  140.4178  143.2626  151.9753 LP  0  0  0  0  0  0  0  0  0  0  0  0  # atno 17343 bound_to 10162
  156.6792  130.4562  149.5633 LP  0  0  0  0  0  0  0  0  0  0  0  0  # atno 17370 bound_to 10713
  156.1941  130.6578  151.1095 LP  0  0  0  0  0  0  0  0  0  0  0  0  # atno 17371 bound_to 10713
  140.0291  134.9909  157.0746 LP  0  0  0  0  0  0  0  0  0  0  0  0  # atno 17394 bound_to 11000
  140.4314  134.1777  155.7168 LP  0  0  0  0  0  0  0  0  0  0  0  0  # atno 17395 bound_to 11000

$$$$
