AV-unprocessed.smi:102|AV-procd|sdf|963|dock8
  -GOLD-   2262017503D 1   1.00000     0.00000
 Structure written by MMmdl.
 43 44  0  0  0  0  0  0  0  0  2 V2000
  152.0932  144.3213  161.4686 C   0  0  0  0  0  0  0  0  0  0  0  0
  151.8686  144.4002  159.9646 C   0  0  0  0  0  0  0  0  0  0  0  0
  151.3157  145.3699  159.4454 O   0  0  0  0  0  0  0  0  0  0  0  0
  152.3296  143.3173  159.3236 O   0  0  0  0  0  0  0  0  0  0  0  0
  151.9172  143.0526  157.9917 C   0  0  0  0  0  0  0  0  0  0  0  0
  150.6721  142.1502  157.9694 C   0  0  2  0  0  0  0  0  0  0  0  0
  150.7279  141.2180  159.0483 O   0  0  0  0  0  0  0  0  0  0  0  0
  150.7439  139.9059  158.5654 C   0  0  2  0  0  0  0  0  0  0  0  0
  151.7902  139.1096  159.3103 N   0  0  0  0  0  0  0  0  0  0  0  0
  152.9917  139.6886  159.6821 C   0  0  0  0  0  0  0  0  0  0  0  0
  153.9469  138.9760  160.3126 C   0  0  0  0  0  0  0  0  0  0  0  0
  155.1036  139.5671  160.6581 F   0  0  0  0  0  0  0  0  0  0  0  0
  153.7159  137.5644  160.6127 C   0  0  0  0  0  0  0  0  0  0  0  0
  154.5907  136.9188  161.1879 O   0  0  0  0  0  0  0  0  0  0  0  0
  152.5231  137.0196  160.2350 N   0  5  0  0  0  0  0  0  0  0  0  0
  151.5551  137.7362  159.5915 C   0  0  0  0  0  0  0  0  0  0  0  0
  150.4828  137.2472  159.2360 O   0  0  0  0  0  0  0  0  0  0  0  0
  151.0806  139.9726  157.0752 C   0  0  1  0  0  0  0  0  0  0  0  0
  150.5027  138.8856  156.3635 O   0  0  0  0  0  0  0  0  0  0  0  0
  150.7481  138.7317  155.0535 C   0  0  0  0  0  0  0  0  0  0  0  0
  150.7067  137.2713  154.6252 C   0  0  0  0  0  0  0  0  0  0  0  0
  150.9808  139.6333  154.2481 O   0  0  0  0  0  0  0  0  0  0  0  0
  150.5124  141.3287  156.6816 C   0  0  1  0  0  0  0  0  0  0  0  0
  149.1299  141.2184  156.3522 O   0  0  0  0  0  0  0  0  0  0  0  0
  148.7214  141.3527  155.0788 C   0  0  0  0  0  0  0  0  0  0  0  0
  147.2167  141.1712  154.9315 C   0  0  0  0  0  0  0  0  0  0  0  0
  149.4380  141.6007  154.1090 O   0  0  0  0  0  0  0  0  0  0  0  0
  151.8368  143.3287  161.8405 H   0  0  0  0  0  0  0  0  0  0  0  0
  151.4721  145.0533  161.9854 H   0  0  0  0  0  0  0  0  0  0  0  0
  153.1380  144.5224  161.7063 H   0  0  0  0  0  0  0  0  0  0  0  0
  151.7010  143.9852  157.4684 H   0  0  0  0  0  0  0  0  0  0  0  0
  152.7364  142.5659  157.4611 H   0  0  0  0  0  0  0  0  0  0  0  0
  149.8025  142.7896  158.1258 H   0  0  0  0  0  0  0  0  0  0  0  0
  149.7746  139.4531  158.7811 H   0  0  0  0  0  0  0  0  0  0  0  0
  153.1820  140.7287  159.4703 H   0  0  0  0  0  0  0  0  0  0  0  0
  152.1674  139.9815  156.9768 H   0  0  0  0  0  0  0  0  0  0  0  0
  151.4167  136.6862  155.2103 H   0  0  0  0  0  0  0  0  0  0  0  0
  150.9645  137.1730  153.5705 H   0  0  0  0  0  0  0  0  0  0  0  0
  149.7088  136.8602  154.7782 H   0  0  0  0  0  0  0  0  0  0  0  0
  151.0706  141.7511  155.8444 H   0  0  0  0  0  0  0  0  0  0  0  0
  146.9063  140.2205  155.3652 H   0  0  0  0  0  0  0  0  0  0  0  0
  146.9299  141.1820  153.8798 H   0  0  0  0  0  0  0  0  0  0  0  0
  146.6873  141.9753  155.4428 H   0  0  0  0  0  0  0  0  0  0  0  0
  1  2  1  0  0  0  0
  1 28  1  0  0  0  0
  1 29  1  0  0  0  0
  1 30  1  0  0  0  0
  2  3  2  0  0  0  0
  2  4  1  0  0  0  0
  4  5  1  0  0  0  0
  5  6  1  0  0  0  0
  5 31  1  0  0  0  0
  5 32  1  0  0  0  0
  6 23  1  0  0  0  0
  6  7  1  0  0  0  0
  6 33  1  0  0  0  0
  7  8  1  0  0  0  0
  8  9  1  0  0  0  0
  8 18  1  0  0  0  0
  8 34  1  0  0  0  0
  9 16  1  0  0  0  0
  9 10  1  0  0  0  0
 10 11  2  0  0  0  0
 10 35  1  0  0  0  0
 11 12  1  0  0  0  0
 11 13  1  0  0  0  0
 13 14  2  0  0  0  0
 13 15  1  0  0  0  0
 15 16  1  0  0  0  0
 16 17  2  0  0  0  0
 18 19  1  0  0  0  0
 18 23  1  0  0  0  0
 18 36  1  0  0  0  0
 19 20  1  0  0  0  0
 20 21  1  0  0  0  0
 20 22  2  0  0  0  0
 21 37  1  0  0  0  0
 21 38  1  0  0  0  0
 21 39  1  0  0  0  0
 23 24  1  0  0  0  0
 23 40  1  0  0  0  0
 24 25  1  0  0  0  0
 25 26  1  0  0  0  0
 25 27  2  0  0  0  0
 26 41  1  0  0  0  0
 26 42  1  0  0  0  0
 26 43  1  0  0  0  0
M  CHG  1  15  -1
M  END
> <s_m_source_file>
AV-unprocessed.smi

> <i_m_source_file_index>
102

> <i_lp_mmshare_version>
43012

> <i_f3d_flags>
0

> <s_epik_input>
W0NIM11DKD1PKU9bQ0gyXVtDQEBIXTFPW0NASF0oW0NAQEhdKE9DKD1PKVtDSDNdKVtDQEhdMU9DKD1PKVtDSDNdKW4yW2NIXWMoRiljKD1PKVtuSF1jMj1P

> <s_epik_cmdline>
J2VwaWtfcHl0aG9uJywgJy1waCcsICc3LjAnLCAnLXRuJywgJzgnLCAnLW1hJywgJzIwMCcsICctbWV0YWxfYmluZGluZycsICctaW1hZScsICc8aW5maWxlLm1hZT4nLCAnLW9tYWUnLCAnPG91dGZpbGUubWFlPic=

> <r_epik_Ionization_Penalty>
1.40304

> <r_epik_Ionization_Penalty_Charging>
1.43915e-08

> <r_epik_Ionization_Penalty_Neutral>
1.40304

> <r_epik_State_Penalty>
1.48536

> <r_epik_Charging_Adjusted_Penalty>
1.48536

> <i_epik_Tot_Q>
-1

> <i_epik_Tot_abs_Q>
1

> <r_epik_Metal_State_Penalty>
0.00663881

> <b_epik_Metal_Only>
0

> <s_epik_Chemistry_Notes>
This compound has an ester and may undergo hydrolysis at high or low pH. This compound contains an acetal/aminal-like group ( X-CH(R)-Y where X, Y are N, S, or O) that may be acid/base labile, releasing an aldehyde.

> <s_lp_Force_Field>
OPLS_2005

> <r_lp_Energy>
27.0192

> <b_lp_Chiralities_Consistent>
1

> <s_lp_Variant>
AV-unprocessed.smi:102-19

> <Gold.Version>
5.8.1

> <Gold.Id.Protein>
6NUR|6NUR_protein|mol2

> <Gold.PLP.Fitness>
45.6222

> <Gold.PLP.PLP>
-39.5580

> <Gold.PLP.part.hbond>
-4.6526

> <Gold.PLP.part.metal>
0.0000

> <Gold.PLP.part.buried>
-6.9912

> <Gold.PLP.part.nonpolar>
-29.7332

> <Gold.PLP.part.repulsive>
0.5727

> <Gold.PLP.ligand.clash>
0.0000

> <Gold.PLP.ligand.torsion>
2.3848

> <Gold.PLP.Chemscore.Hbond>
3.5760

> <Gold.PLP.Chemscore.CHOScore>
0.0000

> <Gold.PLP.Chemscore.Metal>
0.0000

> <Gold.Chemscore.Hbonds>
donor molecule, donor type, donor heavy atom, donor atom, acceptor molecule, acceptor atom, score
      P1  H  6896  6909       L1    15  2.00
      P1  H  7989  7998       L1    22  1.00
      P1  H  8011  8017       L1    27  0.59

> <Gold.PLP.Chemscore.Internal.Correction>
0.1059

> <Gold.Rescore>
     Score         DG    S(hbond)    S(metal)    S(lipo)     H(rot)  DE(clash)    DE(int)     intcor
      7.88     -10.10       2.31        0.00      60.91       4.00       0.07       2.15       ----

> <Gold.Chemscore.Fitness>
7.8785

> <Gold.Chemscore.DG>
-10.1038

> <Gold.Chemscore.ZeroCoef>
-5.4800

> <Gold.Chemscore.Hbond>
2.3128

> <Gold.Chemscore.Metal>
0.0000

> <Gold.Chemscore.Lipo>
60.9105

> <Gold.Chemscore.Internal_Hbond>
0.0000

> <Gold.Chemscore.DEClash>
0.0728

> <Gold.Chemscore.DEInternal>
2.1525

> <Gold.Chemscore.Rot>
3.9951

> <Gold.Chemscore.Internal.Correction>
   9.000000E+99

> <Gold.Chemscore.Hbonds>
donor molecule, donor type, donor heavy atom, donor atom, acceptor molecule, acceptor atom, score
      P1  H  6896  6909       L1    15  0.33
      P1  H  7989  7998       L1    22  0.97
      P1  H  8011  8017       L1    27  0.58

> <Gold.Chemscore.Hbond.Weighted>
-7.7247

> <Gold.Chemscore.Metal.Weighted>
-0.0000

> <Gold.Chemscore.Lipo.Weighted>
-7.1265

> <Gold.Chemscore.Internal_Hbond.Weighted>
0.0000

> <Gold.Chemscore.DEClash.Weighted>
0.0728

> <Gold.Chemscore.DEInternal.Weighted>
2.1525

> <Gold.Chemscore.Rot.Weighted>
10.2274

> <Gold.Chemscore.Internal.Correction.Weighted>
   9.000000E+99

> <Gold.Protein.RotatedTorsions>
[ 6907 6896 6895 6894 ] final  135.31 input  -60.11 | X-H torsion
[ 7974 7965 7964 7962 ] final   14.69 input  175.53 | X-H torsion
[ 8008 7997 7996 7995 ] final -144.13 input   59.86 | X-H torsion
[ 10167 10162 10161 10158 ] final  -48.69 input  -65.29 | X-H torsion
[ 10718 10713 10712 10709 ] final  165.06 input   66.30 | X-H torsion
[ 10763 10752 10751 10750 ] final  -42.68 input  -60.55 | X-H torsion
[ 11005 11000 10999 10996 ] final   74.27 input  -57.11 | X-H torsion

> <Gold.Protein.ActiveResidues>
 VAL166  LYS551  ARG553  GLY616  TRP617  ASP618  TYR619  PRO620  LYS621  CYS622 
 ASP623  PHE694  ASN695  SER759  ASP760  ASP761  ALA762  ILE779  LEU786  VAL792 
 PHE793  MET794  SER795  GLU796  ALA797  LYS798  CYS799  TRP800  GLU811  SER814 

> <Gold.Protein.RotatedAtoms>
  152.3018  133.5663  159.5623 H   0  0  0  0  0  0  0  0  0  0  0  0  # atno 6907 bound_to 6896
  150.7281  134.0280  159.3732 H   0  0  0  0  0  0  0  0  0  0  0  0  # atno 6908 bound_to 6896
  151.8179  135.0661  160.0472 H   0  0  0  0  0  0  0  0  0  0  0  0  # atno 6909 bound_to 6896
  146.2298  139.9005  142.8540 H   0  0  0  0  0  0  0  0  0  0  0  0  # atno 7974 bound_to 7965
  155.5220  140.0592  157.2905 H   0  0  0  0  0  0  0  0  0  0  0  0  # atno 8008 bound_to 7997
  154.4514  140.1951  156.0453 H   0  0  0  0  0  0  0  0  0  0  0  0  # atno 8009 bound_to 7997
  156.0712  140.3259  155.7582 H   0  0  0  0  0  0  0  0  0  0  0  0  # atno 8010 bound_to 7997
  140.6720  143.2729  151.4107 H   0  0  0  0  0  0  0  0  0  0  0  0  # atno 10167 bound_to 10162
  157.0856  131.0404  151.2558 H   0  0  0  0  0  0  0  0  0  0  0  0  # atno 10718 bound_to 10713
  153.9830  135.6714  153.4751 H   0  0  0  0  0  0  0  0  0  0  0  0  # atno 10763 bound_to 10752
  153.0739  135.4959  154.8361 H   0  0  0  0  0  0  0  0  0  0  0  0  # atno 10764 bound_to 10752
  154.7153  135.3106  154.9095 H   0  0  0  0  0  0  0  0  0  0  0  0  # atno 10765 bound_to 10752
  139.9399  134.7418  156.1127 H   0  0  0  0  0  0  0  0  0  0  0  0  # atno 11005 bound_to 11000
  145.2328  140.9979  143.3980 LP  0  0  0  0  0  0  0  0  0  0  0  0  # atno 17320 bound_to 7965
  144.9516  139.4077  143.6400 LP  0  0  0  0  0  0  0  0  0  0  0  0  # atno 17321 bound_to 7965
  139.5992  144.1331  152.2179 LP  0  0  0  0  0  0  0  0  0  0  0  0  # atno 17342 bound_to 10162
  140.0710  144.5779  150.7192 LP  0  0  0  0  0  0  0  0  0  0  0  0  # atno 17343 bound_to 10162
  157.4764  130.7739  149.7372 LP  0  0  0  0  0  0  0  0  0  0  0  0  # atno 17370 bound_to 10713
  155.9912  130.3939  150.2996 LP  0  0  0  0  0  0  0  0  0  0  0  0  # atno 17371 bound_to 10713
  141.1029  133.6670  156.2797 LP  0  0  0  0  0  0  0  0  0  0  0  0  # atno 17394 bound_to 11000
  140.5978  134.5585  157.5512 LP  0  0  0  0  0  0  0  0  0  0  0  0  # atno 17395 bound_to 11000

$$$$
