AV-unprocessed.smi:104|AV-procd|sdf|1007|dock6
  -GOLD-   2262018 03D 1   1.00000     0.00000
 Structure written by MMmdl.
 47 49  0  0  0  0  0  0  0  0  1 V2000
  141.6088  136.9909  158.9134 C   0  0  0  0  0  0  0  0  0  0  0  0
  142.7701  136.0105  158.8204 C   0  0  0  0  0  0  0  0  0  0  0  0
  142.6121  134.8650  158.3976 O   0  0  0  0  0  0  0  0  0  0  0  0
  143.9270  136.5476  159.2378 O   0  0  0  0  0  0  0  0  0  0  0  0
  145.1137  135.7711  159.2134 C   0  0  0  0  0  0  0  0  0  0  0  0
  146.2853  136.6485  158.7379 C   0  0  2  0  0  0  0  0  0  0  0  0
  146.2629  136.6720  157.3082 O   0  0  0  0  0  0  0  0  0  0  0  0
  147.4078  136.0713  156.7828 C   0  0  2  0  0  0  0  0  0  0  0  0
  147.0453  135.2554  155.5791 N   0  0  0  0  0  0  0  0  0  0  0  0
  145.8376  135.1993  154.9234 C   0  0  0  0  0  0  0  0  0  0  0  0
  144.3347  136.2225  155.4887 Br  0  0  0  0  0  0  0  0  0  0  0  0
  145.7621  134.4322  153.8726 N   0  0  0  0  0  0  0  0  0  0  0  0
  147.0477  133.9134  153.7819 C   0  0  0  0  0  0  0  0  0  0  0  0
  147.6890  133.0262  152.8809 C   0  0  0  0  0  0  0  0  0  0  0  0
  147.0638  132.4683  151.8351 N   0  0  0  0  0  0  0  0  0  0  0  0
  148.9946  132.7309  153.0814 N   0  0  0  0  0  0  0  0  0  0  0  0
  149.6422  133.2770  154.1153 C   0  0  0  0  0  0  0  0  0  0  0  0
  149.1762  134.1184  155.0408 N   0  0  0  0  0  0  0  0  0  0  0  0
  147.8592  134.4165  154.8412 C   0  0  0  0  0  0  0  0  0  0  0  0
  148.0379  135.2368  157.9040 C   0  0  2  0  0  0  0  0  0  0  0  0
  147.4434  133.9415  157.9920 O   0  0  0  0  0  0  0  0  0  0  0  0
  148.1830  132.8607  158.2951 C   0  0  0  0  0  0  0  0  0  0  0  0
  147.3315  131.6121  158.4779 C   0  0  0  0  0  0  0  0  0  0  0  0
  149.4087  132.8247  158.4001 O   0  0  0  0  0  0  0  0  0  0  0  0
  147.6778  136.0994  159.0983 C   0  0  2  0  0  0  0  0  0  0  0  0
  147.7562  135.3717  160.3194 O   0  0  0  0  0  0  0  0  0  0  0  0
  147.5145  135.9864  161.4895 C   0  0  0  0  0  0  0  0  0  0  0  0
  147.3964  135.0040  162.6469 C   0  0  0  0  0  0  0  0  0  0  0  0
  147.3874  137.1989  161.6582 O   0  0  0  0  0  0  0  0  0  0  0  0
  141.7435  137.8040  158.2000 H   0  0  0  0  0  0  0  0  0  0  0  0
  141.5489  137.4146  159.9160 H   0  0  0  0  0  0  0  0  0  0  0  0
  140.6657  136.4905  158.6930 H   0  0  0  0  0  0  0  0  0  0  0  0
  145.2978  135.4007  160.2220 H   0  0  0  0  0  0  0  0  0  0  0  0
  145.0010  134.9015  158.5659 H   0  0  0  0  0  0  0  0  0  0  0  0
  146.1713  137.6582  159.1335 H   0  0  0  0  0  0  0  0  0  0  0  0
  148.0744  136.8511  156.4134 H   0  0  0  0  0  0  0  0  0  0  0  0
  146.0906  132.6754  151.6617 H   0  0  0  0  0  0  0  0  0  0  0  0
  147.5661  131.8414  151.2233 H   0  0  0  0  0  0  0  0  0  0  0  0
  150.6815  133.0011  154.2168 H   0  0  0  0  0  0  0  0  0  0  0  0
  149.1187  135.1818  157.7671 H   0  0  0  0  0  0  0  0  0  0  0  0
  146.3970  131.8563  158.9834 H   0  0  0  0  0  0  0  0  0  0  0  0
  147.8627  130.8705  159.0751 H   0  0  0  0  0  0  0  0  0  0  0  0
  147.0969  131.1734  157.5080 H   0  0  0  0  0  0  0  0  0  0  0  0
  148.3838  136.9318  159.1188 H   0  0  0  0  0  0  0  0  0  0  0  0
  148.3488  134.5011  162.8144 H   0  0  0  0  0  0  0  0  0  0  0  0
  146.6391  134.2507  162.4295 H   0  0  0  0  0  0  0  0  0  0  0  0
  147.1133  135.5232  163.5626 H   0  0  0  0  0  0  0  0  0  0  0  0
  1  2  1  0  0  0  0
  1 30  1  0  0  0  0
  1 31  1  0  0  0  0
  1 32  1  0  0  0  0
  2  3  2  0  0  0  0
  2  4  1  0  0  0  0
  4  5  1  0  0  0  0
  5  6  1  0  0  0  0
  5 33  1  0  0  0  0
  5 34  1  0  0  0  0
  6 25  1  0  0  0  0
  6  7  1  0  0  0  0
  6 35  1  0  0  0  0
  7  8  1  0  0  0  0
  8  9  1  0  0  0  0
  8 20  1  0  0  0  0
  8 36  1  0  0  0  0
  9 19  1  0  0  0  0
  9 10  1  0  0  0  0
 10 11  1  0  0  0  0
 10 12  2  0  0  0  0
 12 13  1  0  0  0  0
 13 19  2  0  0  0  0
 13 14  1  0  0  0  0
 14 15  1  0  0  0  0
 14 16  2  0  0  0  0
 15 37  1  0  0  0  0
 15 38  1  0  0  0  0
 16 17  1  0  0  0  0
 17 18  2  0  0  0  0
 17 39  1  0  0  0  0
 18 19  1  0  0  0  0
 20 21  1  0  0  0  0
 20 25  1  0  0  0  0
 20 40  1  0  0  0  0
 21 22  1  0  0  0  0
 22 23  1  0  0  0  0
 22 24  2  0  0  0  0
 23 41  1  0  0  0  0
 23 42  1  0  0  0  0
 23 43  1  0  0  0  0
 25 26  1  0  0  0  0
 25 44  1  0  0  0  0
 26 27  1  0  0  0  0
 27 28  1  0  0  0  0
 27 29  2  0  0  0  0
 28 45  1  0  0  0  0
 28 46  1  0  0  0  0
 28 47  1  0  0  0  0
M  END
> <s_m_source_file>
AV-unprocessed.smi

> <i_m_source_file_index>
104

> <i_lp_mmshare_version>
43012

> <i_f3d_flags>
0

> <s_epik_input>
W0NIM11DKD1PKU9bQ0gyXVtDQEBIXTFPW0NASF0oW0NAQEhdKE9DKD1PKVtDSDNdKVtDQEhdMU9DKD1PKVtDSDNdKW4oYyhCciluMiljKGMyMyluW2NIXW5jM1tOSDJd

> <s_epik_cmdline>
J2VwaWtfcHl0aG9uJywgJy1waCcsICc3LjAnLCAnLXRuJywgJzgnLCAnLW1hJywgJzIwMCcsICctbWV0YWxfYmluZGluZycsICctaW1hZScsICc8aW5maWxlLm1hZT4nLCAnLW9tYWUnLCAnPG91dGZpbGUubWFlPic=

> <r_lp_tautomer_probability>
1

> <r_epik_Ionization_Penalty>
7.36622e-05

> <r_epik_Ionization_Penalty_Charging>
0

> <r_epik_Ionization_Penalty_Neutral>
7.36622e-05

> <r_epik_State_Penalty>
-0

> <r_epik_Charging_Adjusted_Penalty>
0

> <i_epik_Tot_Q>
0

> <i_epik_Tot_abs_Q>
0

> <r_epik_Metal_State_Penalty>
-0

> <b_epik_Metal_Only>
0

> <s_epik_Chemistry_Notes>
This compound has an ester and may undergo hydrolysis at high or low pH. This compound contains an acetal/aminal-like group ( X-CH(R)-Y where X, Y are N, S, or O) that may be acid/base labile, releasing an aldehyde.

> <s_lp_Force_Field>
OPLS_2005

> <r_lp_Energy>
19.209

> <b_lp_Chiralities_Consistent>
1

> <s_lp_Variant>
AV-unprocessed.smi:104-15

> <Gold.Version>
5.8.1

> <Gold.Id.Protein>
6NUR|6NUR_protein|mol2

> <Gold.PLP.Fitness>
36.7055

> <Gold.PLP.PLP>
-24.7558

> <Gold.PLP.part.hbond>
-5.0000

> <Gold.PLP.part.metal>
0.0000

> <Gold.PLP.part.buried>
-4.9240

> <Gold.PLP.part.nonpolar>
-15.3169

> <Gold.PLP.part.repulsive>
0.3992

> <Gold.PLP.ligand.clash>
0.0000

> <Gold.PLP.ligand.torsion>
1.3193

> <Gold.PLP.Chemscore.Hbond>
4.7600

> <Gold.PLP.Chemscore.CHOScore>
0.0000

> <Gold.PLP.Chemscore.Metal>
0.0000

> <Gold.Chemscore.Hbonds>
donor molecule, donor type, donor heavy atom, donor atom, acceptor molecule, acceptor atom, score
      L1  H    15    38       P1 10747  1.00
      P1  H  6896  6909       L1    24  1.00
      P1  H  6931  6943       L1    29  0.91
      P1  H  6934  6947       L1    29  0.85
      P1  H 11000 11005       L1     3  0.99

> <Gold.PLP.Chemscore.Internal.Correction>
0.3081

> <Gold.Rescore>
     Score         DG    S(hbond)    S(metal)    S(lipo)     H(rot)  DE(clash)    DE(int)     intcor
      9.45     -12.34       4.58        0.00      22.07       4.31       0.00       2.89       ----

> <Gold.Chemscore.Fitness>
9.4457

> <Gold.Chemscore.DG>
-12.3383

> <Gold.Chemscore.ZeroCoef>
-5.4800

> <Gold.Chemscore.Hbond>
4.5814

> <Gold.Chemscore.Metal>
0.0000

> <Gold.Chemscore.Lipo>
22.0700

> <Gold.Chemscore.Internal_Hbond>
0.0000

> <Gold.Chemscore.DEClash>
0.0000

> <Gold.Chemscore.DEInternal>
2.8926

> <Gold.Chemscore.Rot>
4.3070

> <Gold.Chemscore.Internal.Correction>
   9.000000E+99

> <Gold.Chemscore.Hbonds>
donor molecule, donor type, donor heavy atom, donor atom, acceptor molecule, acceptor atom, score
      L1  H    15    38       P1 10747  0.98
      P1  H  6896  6909       L1    24  1.00
      P1  H  6931  6943       L1    29  0.83
      P1  H  6934  6947       L1    29  0.82
      P1  H 11000 11005       L1     3  0.87

> <Gold.Chemscore.Hbond.Weighted>
-15.3020

> <Gold.Chemscore.Metal.Weighted>
-0.0000

> <Gold.Chemscore.Lipo.Weighted>
-2.5822

> <Gold.Chemscore.Internal_Hbond.Weighted>
0.0000

> <Gold.Chemscore.DEClash.Weighted>
0.0000

> <Gold.Chemscore.DEInternal.Weighted>
2.8926

> <Gold.Chemscore.Rot.Weighted>
11.0259

> <Gold.Chemscore.Internal.Correction.Weighted>
   9.000000E+99

> <Gold.Protein.RotatedTorsions>
[ 6907 6896 6895 6894 ] final   -8.25 input  -60.11 | X-H torsion
[ 7974 7965 7964 7962 ] final -138.19 input  175.53 | X-H torsion
[ 8008 7997 7996 7995 ] final -126.57 input   59.86 | X-H torsion
[ 10167 10162 10161 10158 ] final  120.85 input  -65.29 | X-H torsion
[ 10718 10713 10712 10709 ] final -117.45 input   66.30 | X-H torsion
[ 10763 10752 10751 10750 ] final  112.12 input  -60.55 | X-H torsion
[ 11005 11000 10999 10996 ] final -142.63 input  -57.11 | X-H torsion

> <Gold.Protein.ActiveResidues>
 VAL166  LYS551  ARG553  GLY616  TRP617  ASP618  TYR619  PRO620  LYS621  CYS622 
 ASP623  PHE694  ASN695  SER759  ASP760  ASP761  ALA762  ILE779  LEU786  VAL792 
 PHE793  MET794  SER795  GLU796  ALA797  LYS798  CYS799  TRP800  GLU811  SER814 

> <Gold.Protein.RotatedAtoms>
  151.4366  135.1015  159.9657 H   0  0  0  0  0  0  0  0  0  0  0  0  # atno 6907 bound_to 6896
  152.4937  133.8567  159.7240 H   0  0  0  0  0  0  0  0  0  0  0  0  # atno 6908 bound_to 6896
  150.9117  133.6931  159.2881 H   0  0  0  0  0  0  0  0  0  0  0  0  # atno 6909 bound_to 6896
  144.8779  140.6464  143.5225 H   0  0  0  0  0  0  0  0  0  0  0  0  # atno 7974 bound_to 7965
  155.2319  140.0425  157.2963 H   0  0  0  0  0  0  0  0  0  0  0  0  # atno 8008 bound_to 7997
  154.5883  140.2420  155.7926 H   0  0  0  0  0  0  0  0  0  0  0  0  # atno 8009 bound_to 7997
  156.2241  140.2960  156.0033 H   0  0  0  0  0  0  0  0  0  0  0  0  # atno 8010 bound_to 7997
  139.5956  144.7040  151.3185 H   0  0  0  0  0  0  0  0  0  0  0  0  # atno 10167 bound_to 10162
  156.1034  130.6191  150.9165 H   0  0  0  0  0  0  0  0  0  0  0  0  # atno 10718 bound_to 10713
  153.4733  135.3696  155.2402 H   0  0  0  0  0  0  0  0  0  0  0  0  # atno 10763 bound_to 10752
  154.8756  135.3936  154.3787 H   0  0  0  0  0  0  0  0  0  0  0  0  # atno 10764 bound_to 10752
  153.4378  135.7083  153.6253 H   0  0  0  0  0  0  0  0  0  0  0  0  # atno 10765 bound_to 10752
  140.8206  134.2635  157.4902 H   0  0  0  0  0  0  0  0  0  0  0  0  # atno 11005 bound_to 11000
  145.4009  139.1598  143.4178 LP  0  0  0  0  0  0  0  0  0  0  0  0  # atno 17320 bound_to 7965
  146.2975  140.4105  142.8716 LP  0  0  0  0  0  0  0  0  0  0  0  0  # atno 17321 bound_to 7965
  140.7209  143.7139  150.7748 LP  0  0  0  0  0  0  0  0  0  0  0  0  # atno 17342 bound_to 10162
  140.0704  143.5067  152.2582 LP  0  0  0  0  0  0  0  0  0  0  0  0  # atno 17343 bound_to 10162
  157.6208  131.0930  150.8626 LP  0  0  0  0  0  0  0  0  0  0  0  0  # atno 17370 bound_to 10713
  156.8749  130.5159  149.5294 LP  0  0  0  0  0  0  0  0  0  0  0  0  # atno 17371 bound_to 10713
  139.8709  134.9533  156.4142 LP  0  0  0  0  0  0  0  0  0  0  0  0  # atno 17394 bound_to 11000
  140.9103  133.7717  155.9783 LP  0  0  0  0  0  0  0  0  0  0  0  0  # atno 17395 bound_to 11000

$$$$
