AV-unprocessed.smi:1853|AV-procd|sdf|7527|dock9
  -GOLD-   22720 9233D 1   1.00000     0.00000
 Structure written by MMmdl.
 42 44  0  0  0  0  0  0  0  0  1 V2000
  155.2483  143.0175  168.8762 C   0  0  0  0  0  0  0  0  0  0  0  0
  155.1629  142.3316  167.5283 C   0  0  0  0  0  0  0  0  0  0  0  0
  155.1623  140.9254  167.4418 C   0  0  0  0  0  0  0  0  0  0  0  0
  155.0796  140.2955  166.1852 C   0  0  0  0  0  0  0  0  0  0  0  0
  154.9942  141.0547  165.0000 C   0  0  0  0  0  0  0  0  0  0  0  0
  154.9147  140.3563  163.8143 O   0  0  0  0  0  0  0  0  0  0  0  0
  154.3145  140.9978  162.6984 C   0  0  0  0  0  0  0  0  0  0  0  0
  153.7962  139.9231  161.7354 C   0  0  0  0  0  0  0  0  0  0  0  0
  153.3910  140.4926  160.4595 N   0  0  0  0  0  0  0  0  0  0  0  0
  153.4772  139.9439  159.2200 C   0  0  0  0  0  0  0  0  0  0  0  0
  154.0523  138.5710  158.9838 C   0  0  0  0  0  0  0  0  0  0  0  0
  153.6418  138.0713  157.6741 N   0  0  0  0  0  0  0  0  0  0  0  0
  152.7580  137.0843  157.4678 C   0  0  0  0  0  0  0  0  0  0  0  0
  152.1757  136.4726  158.3619 O   0  0  0  0  0  0  0  0  0  0  0  0
  152.9993  140.6960  158.2246 N   0  0  0  0  0  0  0  0  0  0  0  0
  152.5910  141.8438  158.8738 C   0  0  0  0  0  0  0  0  0  0  0  0
  152.0072  143.0275  158.3677 C   0  0  0  0  0  0  0  0  0  0  0  0
  151.6683  144.0845  159.2378 C   0  0  0  0  0  0  0  0  0  0  0  0
  151.9081  143.9735  160.6227 C   0  0  0  0  0  0  0  0  0  0  0  0
  152.4882  142.8026  161.1470 C   0  0  0  0  0  0  0  0  0  0  0  0
  152.8242  141.7499  160.2743 C   0  0  0  0  0  0  0  0  0  0  0  0
  154.9948  142.4695  165.0943 C   0  0  0  0  0  0  0  0  0  0  0  0
  155.0783  143.1002  166.3510 C   0  0  0  0  0  0  0  0  0  0  0  0
  155.5888  142.3283  169.6496 H   0  0  0  0  0  0  0  0  0  0  0  0
  154.2696  143.4011  169.1653 H   0  0  0  0  0  0  0  0  0  0  0  0
  155.9473  143.8533  168.8363 H   0  0  0  0  0  0  0  0  0  0  0  0
  155.2240  140.3242  168.3370 H   0  0  0  0  0  0  0  0  0  0  0  0
  155.0794  139.2167  166.1305 H   0  0  0  0  0  0  0  0  0  0  0  0
  153.4866  141.6280  163.0282 H   0  0  0  0  0  0  0  0  0  0  0  0
  155.0444  141.6296  162.1923 H   0  0  0  0  0  0  0  0  0  0  0  0
  154.5470  139.1508  161.5689 H   0  0  0  0  0  0  0  0  0  0  0  0
  152.9366  139.4167  162.1758 H   0  0  0  0  0  0  0  0  0  0  0  0
  155.1397  138.5705  159.0508 H   0  0  0  0  0  0  0  0  0  0  0  0
  153.6818  137.8965  159.7557 H   0  0  0  0  0  0  0  0  0  0  0  0
  154.0701  138.5022  156.8678 H   0  0  0  0  0  0  0  0  0  0  0  0
  152.6263  136.8948  156.3914 H   0  0  0  0  0  0  0  0  0  0  0  0
  151.8204  143.1230  157.3083 H   0  0  0  0  0  0  0  0  0  0  0  0
  151.2227  144.9849  158.8407 H   0  0  0  0  0  0  0  0  0  0  0  0
  151.6463  144.7879  161.2824 H   0  0  0  0  0  0  0  0  0  0  0  0
  152.6732  142.7159  162.2073 H   0  0  0  0  0  0  0  0  0  0  0  0
  154.9319  143.0955  164.2170 H   0  0  0  0  0  0  0  0  0  0  0  0
  155.0768  144.1790  166.4079 H   0  0  0  0  0  0  0  0  0  0  0  0
  1  2  1  0  0  0  0
  1 24  1  0  0  0  0
  1 25  1  0  0  0  0
  1 26  1  0  0  0  0
  2 23  1  0  0  0  0
  2  3  2  0  0  0  0
  3  4  1  0  0  0  0
  3 27  1  0  0  0  0
  4  5  2  0  0  0  0
  4 28  1  0  0  0  0
  5  6  1  0  0  0  0
  5 22  1  0  0  0  0
  6  7  1  0  0  0  0
  7  8  1  0  0  0  0
  7 29  1  0  0  0  0
  7 30  1  0  0  0  0
  8  9  1  0  0  0  0
  8 31  1  0  0  0  0
  8 32  1  0  0  0  0
  9 21  1  0  0  0  0
  9 10  1  0  0  0  0
 10 11  1  0  0  0  0
 10 15  2  0  0  0  0
 11 12  1  0  0  0  0
 11 33  1  0  0  0  0
 11 34  1  0  0  0  0
 12 13  1  0  0  0  0
 12 35  1  0  0  0  0
 13 14  2  0  0  0  0
 13 36  1  0  0  0  0
 15 16  1  0  0  0  0
 16 21  2  0  0  0  0
 16 17  1  0  0  0  0
 17 18  2  0  0  0  0
 17 37  1  0  0  0  0
 18 19  1  0  0  0  0
 18 38  1  0  0  0  0
 19 20  2  0  0  0  0
 19 39  1  0  0  0  0
 20 21  1  0  0  0  0
 20 40  1  0  0  0  0
 22 23  2  0  0  0  0
 22 41  1  0  0  0  0
 23 42  1  0  0  0  0
M  END
> <s_m_source_file>
AV-unprocessed.smi

> <i_m_source_file_index>
1853

> <i_lp_mmshare_version>
43012

> <i_f3d_flags>
0

> <s_epik_input>
W0NIM11jMVtjSF1bY0hdYyhbY0hdW2NIXTEpT1tDSDJdW0NIMl1uKGMobjIpW0NIMl1bTkhdW0NIXT1PKWMoYzIzKVtjSF1bY0hdW2NIXVtjSF0z

> <s_epik_cmdline>
J2VwaWtfcHl0aG9uJywgJy1waCcsICc3LjAnLCAnLXRuJywgJzgnLCAnLW1hJywgJzIwMCcsICctbWV0YWxfYmluZGluZycsICctaW1hZScsICc8aW5maWxlLm1hZT4nLCAnLW9tYWUnLCAnPG91dGZpbGUubWFlPic=

> <r_lp_tautomer_probability>
1

> <r_epik_Ionization_Penalty>
0.0586177

> <r_epik_Ionization_Penalty_Charging>
0

> <r_epik_Ionization_Penalty_Neutral>
0.0586177

> <r_epik_State_Penalty>
0.0507031

> <r_epik_Charging_Adjusted_Penalty>
0.0507031

> <i_epik_Tot_Q>
0

> <i_epik_Tot_abs_Q>
0

> <r_epik_Metal_State_Penalty>
0.0461069

> <b_epik_Metal_Only>
0

> <s_lp_Force_Field>
OPLS_2005

> <r_lp_Energy>
12.744

> <b_lp_Chiralities_Consistent>
1

> <s_lp_Variant>
AV-unprocessed.smi:1853-1

> <Gold.Version>
5.8.1

> <Gold.Id.Protein>
6NUR|6NUR_protein|mol2

> <Gold.PLP.Fitness>
52.1796

> <Gold.PLP.PLP>
-49.7121

> <Gold.PLP.part.hbond>
-3.0000

> <Gold.PLP.part.metal>
0.0000

> <Gold.PLP.part.buried>
-0.2195

> <Gold.PLP.part.nonpolar>
-46.4502

> <Gold.PLP.part.repulsive>
0.3344

> <Gold.PLP.ligand.clash>
0.0030

> <Gold.PLP.ligand.torsion>
1.1580

> <Gold.PLP.Chemscore.Hbond>
1.5848

> <Gold.PLP.Chemscore.CHOScore>
0.0000

> <Gold.PLP.Chemscore.Metal>
0.0000

> <Gold.Chemscore.Hbonds>
donor molecule, donor type, donor heavy atom, donor atom, acceptor molecule, acceptor atom, score
      P1  H  6896  6908       L1    14  0.22
      P1  H  7997  8008       L1    15  0.22

> <Gold.PLP.Chemscore.Internal.Correction>
0.0322

> <Gold.Rescore>
     Score         DG    S(hbond)    S(metal)    S(lipo)     H(rot)  DE(clash)    DE(int)     intcor
     17.99     -21.53       1.73        0.00     140.27       2.40       1.35       2.19       ----

> <Gold.Chemscore.Fitness>
17.9934

> <Gold.Chemscore.DG>
-21.5316

> <Gold.Chemscore.ZeroCoef>
-5.4800

> <Gold.Chemscore.Hbond>
1.7293

> <Gold.Chemscore.Metal>
0.0000

> <Gold.Chemscore.Lipo>
140.2732

> <Gold.Chemscore.Internal_Hbond>
0.0000

> <Gold.Chemscore.DEClash>
1.3485

> <Gold.Chemscore.DEInternal>
2.1897

> <Gold.Chemscore.Rot>
2.3969

> <Gold.Chemscore.Internal.Correction>
   9.000000E+99

> <Gold.Chemscore.Hbonds>
donor molecule, donor type, donor heavy atom, donor atom, acceptor molecule, acceptor atom, score
      P1  H  6896  6908       L1    14  0.23
      P1  H  7997  8008       L1    15  0.01

> <Gold.Chemscore.Hbond.Weighted>
-5.7758

> <Gold.Chemscore.Metal.Weighted>
-0.0000

> <Gold.Chemscore.Lipo.Weighted>
-16.4120

> <Gold.Chemscore.Internal_Hbond.Weighted>
0.0000

> <Gold.Chemscore.DEClash.Weighted>
1.3485

> <Gold.Chemscore.DEInternal.Weighted>
2.1897

> <Gold.Chemscore.Rot.Weighted>
6.1361

> <Gold.Chemscore.Internal.Correction.Weighted>
   9.000000E+99

> <Gold.Protein.RotatedTorsions>
[ 6907 6896 6895 6894 ] final  -86.92 input  -60.11 | X-H torsion
[ 7974 7965 7964 7962 ] final   35.77 input  175.53 | X-H torsion
[ 8008 7997 7996 7995 ] final  -90.08 input   59.86 | X-H torsion
[ 10167 10162 10161 10158 ] final    8.59 input  -65.29 | X-H torsion
[ 10718 10713 10712 10709 ] final   41.26 input   66.30 | X-H torsion
[ 10763 10752 10751 10750 ] final -106.47 input  -60.55 | X-H torsion
[ 11005 11000 10999 10996 ] final  136.40 input  -57.11 | X-H torsion

> <Gold.Protein.ActiveResidues>
 VAL166  LYS551  ARG553  GLY616  TRP617  ASP618  TYR619  PRO620  LYS621  CYS622 
 ASP623  PHE694  ASN695  SER759  ASP760  ASP761  ALA762  ILE779  LEU786  VAL792 
 PHE793  MET794  SER795  GLU796  ALA797  LYS798  CYS799  TRP800  GLU811  SER814 

> <Gold.Protein.RotatedAtoms>
  150.6866  134.2975  159.4692 H   0  0  0  0  0  0  0  0  0  0  0  0  # atno 6907 bound_to 6896
  152.0874  134.9427  160.0581 H   0  0  0  0  0  0  0  0  0  0  0  0  # atno 6908 bound_to 6896
  152.0756  133.4093  159.4515 H   0  0  0  0  0  0  0  0  0  0  0  0  # atno 6909 bound_to 6896
  146.1259  139.6101  142.9258 H   0  0  0  0  0  0  0  0  0  0  0  0  # atno 7974 bound_to 7965
  154.6942  140.0534  157.0394 H   0  0  0  0  0  0  0  0  0  0  0  0  # atno 8008 bound_to 7997
  155.0774  140.3206  155.4593 H   0  0  0  0  0  0  0  0  0  0  0  0  # atno 8009 bound_to 7997
  156.2738  140.2071  156.5902 H   0  0  0  0  0  0  0  0  0  0  0  0  # atno 8010 bound_to 7997
  140.6305  143.8004  150.7289 H   0  0  0  0  0  0  0  0  0  0  0  0  # atno 10167 bound_to 10162
  157.3915  130.7809  149.7273 H   0  0  0  0  0  0  0  0  0  0  0  0  # atno 10718 bound_to 10713
  154.8014  135.4710  154.0286 H   0  0  0  0  0  0  0  0  0  0  0  0  # atno 10763 bound_to 10752
  153.1788  135.6837  153.8513 H   0  0  0  0  0  0  0  0  0  0  0  0  # atno 10764 bound_to 10752
  153.8070  135.3222  155.3374 H   0  0  0  0  0  0  0  0  0  0  0  0  # atno 10765 bound_to 10752
  140.0044  134.9465  157.0142 H   0  0  0  0  0  0  0  0  0  0  0  0  # atno 11005 bound_to 11000
  145.5365  141.0424  143.2354 LP  0  0  0  0  0  0  0  0  0  0  0  0  # atno 17320 bound_to 7965
  144.7642  139.6884  143.7221 LP  0  0  0  0  0  0  0  0  0  0  0  0  # atno 17321 bound_to 7965
  140.1614  143.4272  152.2064 LP  0  0  0  0  0  0  0  0  0  0  0  0  # atno 17342 bound_to 10162
  139.5520  144.7344  151.4407 LP  0  0  0  0  0  0  0  0  0  0  0  0  # atno 17343 bound_to 10162
  155.9799  130.4034  150.3557 LP  0  0  0  0  0  0  0  0  0  0  0  0  # atno 17370 bound_to 10713
  157.1674  131.0360  151.2812 LP  0  0  0  0  0  0  0  0  0  0  0  0  # atno 17371 bound_to 10713
  140.4669  134.1426  155.7198 LP  0  0  0  0  0  0  0  0  0  0  0  0  # atno 17394 bound_to 11000
  141.1666  133.8692  157.1697 LP  0  0  0  0  0  0  0  0  0  0  0  0  # atno 17395 bound_to 11000

$$$$
