AV-unprocessed.smi:31|AV-procd|sdf|196|dock3
  -GOLD-   2262015463D 1   1.00000     0.00000
 Structure written by MMmdl.
 49 52  0  0  0  0  0  0  0  0  1 V2000
  151.4757  137.1697  159.8050 O   0  0  0  0  0  0  0  0  0  0  0  0
  151.0631  137.7125  158.7794 C   0  0  0  0  0  0  0  0  0  0  0  0
  152.0395  138.4256  157.8306 C   0  0  0  0  0  0  0  0  0  0  0  0
  151.6819  139.8362  157.5633 N   0  0  0  0  0  0  0  0  0  0  0  0
  150.8424  140.1323  156.4607 C   0  0  0  0  0  0  0  0  0  0  0  0
  150.4168  139.2413  155.7242 O   0  0  0  0  0  0  0  0  0  0  0  0
  150.5227  141.5432  156.2735 C   0  0  0  0  0  0  0  0  0  0  0  0
  149.7331  141.9165  155.2522 F   0  0  0  0  0  0  0  0  0  0  0  0
  151.0069  142.4832  157.1112 C   0  0  0  0  0  0  0  0  0  0  0  0
  151.8250  142.1794  158.1847 N   0  0  0  0  0  0  0  0  0  0  0  0
  152.3543  143.2457  159.1204 C   0  0  1  0  0  0  0  0  0  0  0  0
  152.6039  144.5600  158.3571 C   0  0  0  0  0  0  0  0  0  0  0  0
  151.8838  145.5836  159.2119 C   0  0  0  0  0  0  0  0  0  0  0  0
  150.7607  144.7526  159.8133 C   0  0  0  0  0  0  0  0  0  0  0  0
  151.4064  143.5219  160.1125 O   0  0  0  0  0  0  0  0  0  0  0  0
  152.1722  140.8347  158.4381 C   0  0  0  0  0  0  0  0  0  0  0  0
  152.8853  140.5410  159.4004 O   0  0  0  0  0  0  0  0  0  0  0  0
  149.7699  137.7705  158.4118 N   0  0  0  0  0  0  0  0  0  0  0  0
  148.6279  137.2163  159.0524 C   0  0  0  0  0  0  0  0  0  0  0  0
  147.4167  137.2432  158.3356 C   0  0  0  0  0  0  0  0  0  0  0  0
  146.2442  136.7094  158.8988 C   0  0  0  0  0  0  0  0  0  0  0  0
  146.2570  136.1326  160.1838 C   0  0  0  0  0  0  0  0  0  0  0  0
  147.4918  136.0404  160.8908 C   0  0  0  0  0  0  0  0  0  0  0  0
  148.6562  136.6025  160.3271 C   0  0  0  0  0  0  0  0  0  0  0  0
  147.6437  135.4061  162.1045 O   0  0  0  0  0  0  0  0  0  0  0  0
  146.8343  134.2586  162.3155 C   0  0  0  0  0  0  0  0  0  0  0  0
  145.4481  134.6469  162.8333 C   0  0  0  0  0  0  0  0  0  0  0  0
  144.8543  135.8371  162.0774 C   0  0  0  0  0  0  0  0  0  0  0  0
  145.0441  135.7029  160.6764 O   0  0  0  0  0  0  0  0  0  0  0  0
  153.0473  138.3602  158.2444 H   0  0  0  0  0  0  0  0  0  0  0  0
  152.0976  137.8485  156.9067 H   0  0  0  0  0  0  0  0  0  0  0  0
  150.7298  143.5083  156.9185 H   0  0  0  0  0  0  0  0  0  0  0  0
  153.2466  142.8194  159.5823 H   0  0  0  0  0  0  0  0  0  0  0  0
  153.6712  144.7570  158.2532 H   0  0  0  0  0  0  0  0  0  0  0  0
  152.1537  144.5113  157.3641 H   0  0  0  0  0  0  0  0  0  0  0  0
  152.5439  145.9470  160.0007 H   0  0  0  0  0  0  0  0  0  0  0  0
  151.5244  146.4408  158.6423 H   0  0  0  0  0  0  0  0  0  0  0  0
  150.3283  145.2064  160.7052 H   0  0  0  0  0  0  0  0  0  0  0  0
  149.9640  144.5934  159.0851 H   0  0  0  0  0  0  0  0  0  0  0  0
  149.5745  138.3245  157.5908 H   0  0  0  0  0  0  0  0  0  0  0  0
  147.3771  137.6892  157.3522 H   0  0  0  0  0  0  0  0  0  0  0  0
  145.3175  136.7646  158.3466 H   0  0  0  0  0  0  0  0  0  0  0  0
  149.5768  136.5140  160.8824 H   0  0  0  0  0  0  0  0  0  0  0  0
  146.7550  133.6736  161.3969 H   0  0  0  0  0  0  0  0  0  0  0  0
  147.3282  133.6121  163.0410 H   0  0  0  0  0  0  0  0  0  0  0  0
  144.7859  133.7849  162.7500 H   0  0  0  0  0  0  0  0  0  0  0  0
  145.5015  134.8932  163.8940 H   0  0  0  0  0  0  0  0  0  0  0  0
  143.7851  135.9019  162.2793 H   0  0  0  0  0  0  0  0  0  0  0  0
  145.2843  136.7758  162.4320 H   0  0  0  0  0  0  0  0  0  0  0  0
  1  2  2  0  0  0  0
  2  3  1  0  0  0  0
  2 18  1  0  0  0  0
  3  4  1  0  0  0  0
  3 30  1  0  0  0  0
  3 31  1  0  0  0  0
  4 16  1  0  0  0  0
  4  5  1  0  0  0  0
  5  6  2  0  0  0  0
  5  7  1  0  0  0  0
  7  8  1  0  0  0  0
  7  9  2  0  0  0  0
  9 10  1  0  0  0  0
  9 32  1  0  0  0  0
 10 11  1  0  0  0  0
 10 16  1  0  0  0  0
 11 15  1  0  0  0  0
 11 12  1  0  0  0  0
 11 33  1  0  0  0  0
 12 13  1  0  0  0  0
 12 34  1  0  0  0  0
 12 35  1  0  0  0  0
 13 14  1  0  0  0  0
 13 36  1  0  0  0  0
 13 37  1  0  0  0  0
 14 15  1  0  0  0  0
 14 38  1  0  0  0  0
 14 39  1  0  0  0  0
 16 17  2  0  0  0  0
 18 19  1  0  0  0  0
 18 40  1  0  0  0  0
 19 24  1  0  0  0  0
 19 20  2  0  0  0  0
 20 21  1  0  0  0  0
 20 41  1  0  0  0  0
 21 22  2  0  0  0  0
 21 42  1  0  0  0  0
 22 29  1  0  0  0  0
 22 23  1  0  0  0  0
 23 24  2  0  0  0  0
 23 25  1  0  0  0  0
 24 43  1  0  0  0  0
 25 26  1  0  0  0  0
 26 27  1  0  0  0  0
 26 44  1  0  0  0  0
 26 45  1  0  0  0  0
 27 28  1  0  0  0  0
 27 46  1  0  0  0  0
 27 47  1  0  0  0  0
 28 29  1  0  0  0  0
 28 48  1  0  0  0  0
 28 49  1  0  0  0  0
M  END
> <s_m_source_file>
AV-unprocessed.smi

> <i_m_source_file_index>
31

> <i_lp_mmshare_version>
43012

> <i_f3d_flags>
0

> <s_epik_input>
TzFbQ0gyXVtDSDJdW0NIMl1PYyhjMTIpW2NIXWMoW2NIXVtjSF0yKVtOSF1DKD1PKVtDSDJdbjNjKD1PKWMoRilbY0hdbihjMz1PKVtDQEBIXTRbQ0gyXVtDSDJdW0NIMl1PNA==

> <s_epik_cmdline>
J2VwaWtfcHl0aG9uJywgJy1waCcsICc3LjAnLCAnLXRuJywgJzgnLCAnLW1hJywgJzIwMCcsICctbWV0YWxfYmluZGluZycsICctaW1hZScsICc8aW5maWxlLm1hZT4nLCAnLW9tYWUnLCAnPG91dGZpbGUubWFlPic=

> <r_lp_tautomer_probability>
1

> <r_epik_Ionization_Penalty>
1.0483e-05

> <r_epik_Ionization_Penalty_Charging>
3.88729e-08

> <r_epik_Ionization_Penalty_Neutral>
1.04441e-05

> <r_epik_State_Penalty>
-0

> <r_epik_Charging_Adjusted_Penalty>
3.88729e-08

> <i_epik_Tot_Q>
0

> <i_epik_Tot_abs_Q>
0

> <r_epik_Metal_State_Penalty>
-0

> <b_epik_Metal_Only>
0

> <s_epik_Chemistry_Notes>
This compound contains an acetal/aminal-like group ( X-CH(R)-Y where X, Y are N, S, or O) that may be acid/base labile, releasing an aldehyde.

> <s_lp_Force_Field>
OPLS_2005

> <r_lp_Energy>
46.1803

> <b_lp_Chiralities_Consistent>
1

> <s_lp_Variant>
AV-unprocessed.smi:31-2

> <Gold.Version>
5.8.1

> <Gold.Id.Protein>
6NUR|6NUR_protein|mol2

> <Gold.PLP.Fitness>
54.6261

> <Gold.PLP.PLP>
-50.8847

> <Gold.PLP.part.hbond>
-1.0000

> <Gold.PLP.part.metal>
0.0000

> <Gold.PLP.part.buried>
-4.8905

> <Gold.PLP.part.nonpolar>
-44.5699

> <Gold.PLP.part.repulsive>
0.2050

> <Gold.PLP.ligand.clash>
0.0000

> <Gold.PLP.ligand.torsion>
1.1353

> <Gold.PLP.Chemscore.Hbond>
1.0000

> <Gold.PLP.Chemscore.CHOScore>
1.0000

> <Gold.PLP.Chemscore.Metal>
0.0000

> <Gold.Chemscore.Hbonds>
donor molecule, donor type, donor heavy atom, donor atom, acceptor molecule, acceptor atom, score
      P1  H  6896  6909       L1     1  1.00
      L1  C     9    32       P1  8028  1.00

> <Gold.PLP.Chemscore.Internal.Correction>
0.0120

> <Gold.Rescore>
     Score         DG    S(hbond)    S(metal)    S(lipo)     H(rot)  DE(clash)    DE(int)     intcor
     14.33     -16.80       0.98        0.00     104.56       1.64       0.08       2.38       ----

> <Gold.Chemscore.Fitness>
14.3333

> <Gold.Chemscore.DG>
-16.7955

> <Gold.Chemscore.ZeroCoef>
-5.4800

> <Gold.Chemscore.Hbond>
0.9841

> <Gold.Chemscore.Metal>
0.0000

> <Gold.Chemscore.Lipo>
104.5638

> <Gold.Chemscore.Internal_Hbond>
0.0000

> <Gold.Chemscore.DEClash>
0.0802

> <Gold.Chemscore.DEInternal>
2.3820

> <Gold.Chemscore.Rot>
1.6427

> <Gold.Chemscore.Internal.Correction>
   9.000000E+99

> <Gold.Chemscore.Hbonds>
donor molecule, donor type, donor heavy atom, donor atom, acceptor molecule, acceptor atom, score
      P1  H  6896  6909       L1     1  0.95

> <Gold.Chemscore.Hbond.Weighted>
-3.2868

> <Gold.Chemscore.Metal.Weighted>
-0.0000

> <Gold.Chemscore.Lipo.Weighted>
-12.2340

> <Gold.Chemscore.Internal_Hbond.Weighted>
0.0000

> <Gold.Chemscore.DEClash.Weighted>
0.0802

> <Gold.Chemscore.DEInternal.Weighted>
2.3820

> <Gold.Chemscore.Rot.Weighted>
4.2053

> <Gold.Chemscore.Internal.Correction.Weighted>
   9.000000E+99

> <Gold.Protein.RotatedTorsions>
[ 6907 6896 6895 6894 ] final  119.59 input  -60.11 | X-H torsion
[ 7974 7965 7964 7962 ] final  148.13 input  175.53 | X-H torsion
[ 8008 7997 7996 7995 ] final  113.31 input   59.86 | X-H torsion
[ 10167 10162 10161 10158 ] final  -51.16 input  -65.29 | X-H torsion
[ 10718 10713 10712 10709 ] final  136.14 input   66.30 | X-H torsion
[ 10763 10752 10751 10750 ] final  -66.09 input  -60.55 | X-H torsion
[ 11005 11000 10999 10996 ] final  161.00 input  -57.11 | X-H torsion

> <Gold.Protein.ActiveResidues>
 VAL166  LYS551  ARG553  GLY616  TRP617  ASP618  TYR619  PRO620  LYS621  CYS622 
 ASP623  PHE694  ASN695  SER759  ASP760  ASP761  ALA762  ILE779  LEU786  VAL792 
 PHE793  MET794  SER795  GLU796  ALA797  LYS798  CYS799  TRP800  GLU811  SER814 

> <Gold.Protein.RotatedAtoms>
  152.4460  133.7538  159.6708 H   0  0  0  0  0  0  0  0  0  0  0  0  # atno 6907 bound_to 6896
  150.8360  133.8002  159.3085 H   0  0  0  0  0  0  0  0  0  0  0  0  # atno 6908 bound_to 6896
  151.5641  135.1067  160.0031 H   0  0  0  0  0  0  0  0  0  0  0  0  # atno 6909 bound_to 6896
  144.8537  139.6116  143.5962 H   0  0  0  0  0  0  0  0  0  0  0  0  # atno 7974 bound_to 7965
  156.2249  140.2982  156.0043 H   0  0  0  0  0  0  0  0  0  0  0  0  # atno 8008 bound_to 7997
  155.2382  140.0421  157.2988 H   0  0  0  0  0  0  0  0  0  0  0  0  # atno 8009 bound_to 7997
  154.5900  140.2399  155.7942 H   0  0  0  0  0  0  0  0  0  0  0  0  # atno 8010 bound_to 7997
  140.6602  143.2630  151.4464 H   0  0  0  0  0  0  0  0  0  0  0  0  # atno 10167 bound_to 10162
  157.4498  131.1065  151.0047 H   0  0  0  0  0  0  0  0  0  0  0  0  # atno 10718 bound_to 10713
  154.3547  135.6129  153.5660 H   0  0  0  0  0  0  0  0  0  0  0  0  # atno 10763 bound_to 10752
  152.9796  135.5801  154.4702 H   0  0  0  0  0  0  0  0  0  0  0  0  # atno 10764 bound_to 10752
  154.4430  135.2850  155.1812 H   0  0  0  0  0  0  0  0  0  0  0  0  # atno 10765 bound_to 10752
  140.2115  134.8264  157.3126 H   0  0  0  0  0  0  0  0  0  0  0  0  # atno 11005 bound_to 11000
  146.2806  139.6867  142.9232 LP  0  0  0  0  0  0  0  0  0  0  0  0  # atno 17320 bound_to 7965
  145.4448  141.0425  143.2837 LP  0  0  0  0  0  0  0  0  0  0  0  0  # atno 17321 bound_to 7965
  139.5834  144.1659  152.1997 LP  0  0  0  0  0  0  0  0  0  0  0  0  # atno 17342 bound_to 10162
  140.0991  144.5555  150.7001 LP  0  0  0  0  0  0  0  0  0  0  0  0  # atno 17343 bound_to 10162
  157.0881  130.5931  149.5434 LP  0  0  0  0  0  0  0  0  0  0  0  0  # atno 17370 bound_to 10713
  155.9982  130.5055  150.7563 LP  0  0  0  0  0  0  0  0  0  0  0  0  # atno 17371 bound_to 10713
  140.1946  134.4330  155.7696 LP  0  0  0  0  0  0  0  0  0  0  0  0  # atno 17394 bound_to 11000
  141.2226  133.7043  156.8083 LP  0  0  0  0  0  0  0  0  0  0  0  0  # atno 17395 bound_to 11000

$$$$
