AV-unprocessed.smi:657|AV-procd|sdf|3222|dock6
  -GOLD-   22720 0163D 1   1.00000     0.00000
 Structure written by MMmdl.
 47 48  0  0  0  0  0  0  0  0  2 V2000
  144.6137  142.8525  155.6212 C   0  0  0  0  0  0  0  0  0  0  0  0
  145.8648  142.4987  154.7908 C   0  0  0  0  0  0  0  0  0  0  0  0
  145.9480  143.4806  153.6026 C   0  0  0  0  0  0  0  0  0  0  0  0
  145.8830  141.0634  154.3428 N   0  3  2  0  0  0  0  0  0  0  0  0
  145.5412  140.0761  155.4138 C   0  0  0  0  0  0  0  0  0  0  0  0
  145.3990  138.6473  154.8631 C   0  0  0  0  0  0  0  0  0  0  0  0
  146.6548  138.2051  154.1110 C   0  0  0  0  0  0  0  0  0  0  0  0
  146.9645  139.2208  153.0056 C   0  0  0  0  0  0  0  0  0  0  0  0
  147.0918  140.6660  153.5393 C   0  0  2  0  0  0  0  0  0  0  0  0
  148.4452  140.8934  154.2492 C   0  0  0  0  0  0  0  0  0  0  0  0
  149.3077  141.6169  153.7526 O   0  0  0  0  0  0  0  0  0  0  0  0
  148.6086  140.2684  155.4257 N   0  0  0  0  0  0  0  0  0  0  0  0
  149.7946  140.3431  156.2764 C   0  0  0  0  0  0  0  0  0  0  0  0
  149.5534  141.0391  157.6336 C   0  0  0  0  0  0  0  0  0  0  0  0
  150.6753  141.9542  158.0522 C   0  0  0  0  0  0  0  0  0  0  0  0
  151.6095  141.7800  159.1135 C   0  0  0  0  0  0  0  0  0  0  0  0
  152.4817  142.7710  159.1986 N   0  0  0  0  0  0  0  0  0  0  0  0
  152.1295  143.6152  158.2076 N   0  0  0  0  0  0  0  0  0  0  0  0
  152.8806  144.8355  158.0055 C   0  0  0  0  0  0  0  0  0  0  0  0
  151.0402  143.1510  157.5034 C   0  0  0  0  0  0  0  0  0  0  0  0
  144.5704  143.9230  155.8255 H   0  0  0  0  0  0  0  0  0  0  0  0
  144.6119  142.3646  156.5955 H   0  0  0  0  0  0  0  0  0  0  0  0
  143.6962  142.5814  155.0977 H   0  0  0  0  0  0  0  0  0  0  0  0
  146.7286  142.6709  155.4332 H   0  0  0  0  0  0  0  0  0  0  0  0
  145.8070  144.5102  153.9306 H   0  0  0  0  0  0  0  0  0  0  0  0
  145.1813  143.2689  152.8566 H   0  0  0  0  0  0  0  0  0  0  0  0
  146.9193  143.4539  153.1100 H   0  0  0  0  0  0  0  0  0  0  0  0
  146.2799  140.1074  156.2140 H   0  0  0  0  0  0  0  0  0  0  0  0
  144.5850  140.3209  155.8718 H   0  0  0  0  0  0  0  0  0  0  0  0
  145.1923  137.9540  155.6792 H   0  0  0  0  0  0  0  0  0  0  0  0
  144.5387  138.5995  154.1942 H   0  0  0  0  0  0  0  0  0  0  0  0
  147.4949  138.1153  154.8000 H   0  0  0  0  0  0  0  0  0  0  0  0
  146.5034  137.2157  153.6789 H   0  0  0  0  0  0  0  0  0  0  0  0
  147.8745  138.9273  152.4797 H   0  0  0  0  0  0  0  0  0  0  0  0
  146.1685  139.1862  152.2604 H   0  0  0  0  0  0  0  0  0  0  0  0
  147.0967  141.2844  152.6420 H   0  0  0  0  0  0  0  0  0  0  0  0
  147.8486  139.6964  155.7650 H   0  0  0  0  0  0  0  0  0  0  0  0
  150.2085  139.3453  156.4284 H   0  0  0  0  0  0  0  0  0  0  0  0
  150.5454  140.9035  155.7185 H   0  0  0  0  0  0  0  0  0  0  0  0
  148.6174  141.5960  157.5808 H   0  0  0  0  0  0  0  0  0  0  0  0
  149.3838  140.2748  158.3925 H   0  0  0  0  0  0  0  0  0  0  0  0
  151.6842  140.9614  159.8140 H   0  0  0  0  0  0  0  0  0  0  0  0
  152.6667  145.2450  157.0179 H   0  0  0  0  0  0  0  0  0  0  0  0
  153.9498  144.6338  158.0793 H   0  0  0  0  0  0  0  0  0  0  0  0
  152.6011  145.5677  158.7635 H   0  0  0  0  0  0  0  0  0  0  0  0
  150.6228  143.7013  156.6729 H   0  0  0  0  0  0  0  0  0  0  0  0
  145.1160  140.9926  153.6897 H   0  0  0  0  0  0  0  0  0  0  0  0
  1  2  1  0  0  0  0
  1 21  1  0  0  0  0
  1 22  1  0  0  0  0
  1 23  1  0  0  0  0
  2  3  1  0  0  0  0
  2  4  1  0  0  0  0
  2 24  1  0  0  0  0
  3 25  1  0  0  0  0
  3 26  1  0  0  0  0
  3 27  1  0  0  0  0
  4  9  1  0  0  0  0
  4  5  1  0  0  0  0
  4 47  1  0  0  0  0
  5  6  1  0  0  0  0
  5 28  1  0  0  0  0
  5 29  1  0  0  0  0
  6  7  1  0  0  0  0
  6 30  1  0  0  0  0
  6 31  1  0  0  0  0
  7  8  1  0  0  0  0
  7 32  1  0  0  0  0
  7 33  1  0  0  0  0
  8  9  1  0  0  0  0
  8 34  1  0  0  0  0
  8 35  1  0  0  0  0
  9 10  1  0  0  0  0
  9 36  1  0  0  0  0
 10 11  2  0  0  0  0
 10 12  1  0  0  0  0
 12 13  1  0  0  0  0
 12 37  1  0  0  0  0
 13 14  1  0  0  0  0
 13 38  1  0  0  0  0
 13 39  1  0  0  0  0
 14 15  1  0  0  0  0
 14 40  1  0  0  0  0
 14 41  1  0  0  0  0
 15 20  2  0  0  0  0
 15 16  1  0  0  0  0
 16 17  2  0  0  0  0
 16 42  1  0  0  0  0
 17 18  1  0  0  0  0
 18 19  1  0  0  0  0
 18 20  1  0  0  0  0
 19 43  1  0  0  0  0
 19 44  1  0  0  0  0
 19 45  1  0  0  0  0
 20 46  1  0  0  0  0
M  CHG  1   4   1
M  END
> <s_m_source_file>
AV-unprocessed.smi

> <i_m_source_file_index>
657

> <i_lp_mmshare_version>
43012

> <i_f3d_flags>
0

> <s_epik_input>
W0NIM11bQ0hdKFtDSDNdKU4xW0NIMl1bQ0gyXVtDSDJdW0NIMl1bQ0BIXTFDKD1PKVtOSF1bQ0gyXVtDSDJdYzJbY0hdbm4oW0NIM10pW2NIXTI=

> <s_epik_cmdline>
J2VwaWtfcHl0aG9uJywgJy1waCcsICc3LjAnLCAnLXRuJywgJzgnLCAnLW1hJywgJzIwMCcsICctbWV0YWxfYmluZGluZycsICctaW1hZScsICc8aW5maWxlLm1hZT4nLCAnLW9tYWUnLCAnPG91dGZpbGUubWFlPic=

> <r_lp_tautomer_probability>
1

> <r_epik_Ionization_Penalty>
0.0244317

> <r_epik_Ionization_Penalty_Charging>
0.0240236

> <r_epik_Ionization_Penalty_Neutral>
0.00040815

> <r_epik_State_Penalty>
0.0194773

> <r_epik_Charging_Adjusted_Penalty>
0.0435009

> <i_epik_Tot_Q>
1

> <i_epik_Tot_abs_Q>
1

> <r_epik_Metal_State_Penalty>
0.0361957

> <b_epik_Metal_Only>
0

> <s_lp_Force_Field>
OPLS_2005

> <r_lp_Energy>
17.7945

> <b_lp_Chiralities_Consistent>
1

> <s_lp_Variant>
AV-unprocessed.smi:657-3

> <Gold.Version>
5.8.1

> <Gold.Id.Protein>
6NUR|6NUR_protein|mol2

> <Gold.PLP.Fitness>
46.8658

> <Gold.PLP.PLP>
-36.8889

> <Gold.PLP.part.hbond>
-2.9010

> <Gold.PLP.part.metal>
0.0000

> <Gold.PLP.part.buried>
-4.4946

> <Gold.PLP.part.nonpolar>
-29.5400

> <Gold.PLP.part.repulsive>
0.3539

> <Gold.PLP.ligand.clash>
0.0000

> <Gold.PLP.ligand.torsion>
0.5696

> <Gold.PLP.Chemscore.Hbond>
2.6400

> <Gold.PLP.Chemscore.CHOScore>
1.0000

> <Gold.PLP.Chemscore.Metal>
0.0000

> <Gold.Chemscore.Hbonds>
donor molecule, donor type, donor heavy atom, donor atom, acceptor molecule, acceptor atom, score
      L1  H     4    47       P1 10175  2.00
      P1  H  7989  7998       L1    11  0.01
      P1  H  8011  8017       L1    11  0.70
      L1  C    20    46       P1  8028  1.00

> <Gold.PLP.Chemscore.Internal.Correction>
0.1962

> <Gold.Rescore>
     Score         DG    S(hbond)    S(metal)    S(lipo)     H(rot)  DE(clash)    DE(int)     intcor
     14.74     -16.41       1.73        0.00      79.62       1.63       0.23       1.44       ----

> <Gold.Chemscore.Fitness>
14.7433

> <Gold.Chemscore.DG>
-16.4086

> <Gold.Chemscore.ZeroCoef>
-5.4800

> <Gold.Chemscore.Hbond>
1.7308

> <Gold.Chemscore.Metal>
0.0000

> <Gold.Chemscore.Lipo>
79.6161

> <Gold.Chemscore.Internal_Hbond>
0.0000

> <Gold.Chemscore.DEClash>
0.2302

> <Gold.Chemscore.DEInternal>
1.4351

> <Gold.Chemscore.Rot>
1.6279

> <Gold.Chemscore.Internal.Correction>
   9.000000E+99

> <Gold.Chemscore.Hbonds>
donor molecule, donor type, donor heavy atom, donor atom, acceptor molecule, acceptor atom, score
      L1  H     4    47       P1 10175  0.74
      P1  H  7989  7998       L1    11  0.01
      P1  H  8011  8017       L1    11  0.70

> <Gold.Chemscore.Hbond.Weighted>
-5.7809

> <Gold.Chemscore.Metal.Weighted>
-0.0000

> <Gold.Chemscore.Lipo.Weighted>
-9.3151

> <Gold.Chemscore.Internal_Hbond.Weighted>
0.0000

> <Gold.Chemscore.DEClash.Weighted>
0.2302

> <Gold.Chemscore.DEInternal.Weighted>
1.4351

> <Gold.Chemscore.Rot.Weighted>
4.1673

> <Gold.Chemscore.Internal.Correction.Weighted>
   9.000000E+99

> <Gold.Protein.RotatedTorsions>
[ 6907 6896 6895 6894 ] final   69.92 input  -60.11 | X-H torsion
[ 7974 7965 7964 7962 ] final  123.62 input  175.53 | X-H torsion
[ 8008 7997 7996 7995 ] final  -32.10 input   59.86 | X-H torsion
[ 10167 10162 10161 10158 ] final  -71.75 input  -65.29 | X-H torsion
[ 10718 10713 10712 10709 ] final  -48.93 input   66.30 | X-H torsion
[ 10763 10752 10751 10750 ] final   76.54 input  -60.55 | X-H torsion
[ 11005 11000 10999 10996 ] final  -43.30 input  -57.11 | X-H torsion

> <Gold.Protein.ActiveResidues>
 VAL166  LYS551  ARG553  GLY616  TRP617  ASP618  TYR619  PRO620  LYS621  CYS622 
 ASP623  PHE694  ASN695  SER759  ASP760  ASP761  ALA762  ILE779  LEU786  VAL792 
 PHE793  MET794  SER795  GLU796  ALA797  LYS798  CYS799  TRP800  GLU811  SER814 

> <Gold.Protein.RotatedAtoms>
  152.4717  134.4944  159.9705 H   0  0  0  0  0  0  0  0  0  0  0  0  # atno 6907 bound_to 6896
  151.4969  133.3507  159.2870 H   0  0  0  0  0  0  0  0  0  0  0  0  # atno 6908 bound_to 6896
  150.8731  134.8136  159.7231 H   0  0  0  0  0  0  0  0  0  0  0  0  # atno 6909 bound_to 6896
  145.0938  139.3567  143.4847 H   0  0  0  0  0  0  0  0  0  0  0  0  # atno 7974 bound_to 7965
  154.4191  140.1746  156.1673 H   0  0  0  0  0  0  0  0  0  0  0  0  # atno 8008 bound_to 7997
  155.9789  140.3379  155.6620 H   0  0  0  0  0  0  0  0  0  0  0  0  # atno 8009 bound_to 7997
  155.6526  140.0692  157.2572 H   0  0  0  0  0  0  0  0  0  0  0  0  # atno 8010 bound_to 7997
  140.5248  143.2327  151.7367 H   0  0  0  0  0  0  0  0  0  0  0  0  # atno 10167 bound_to 10162
  156.1941  130.4154  149.9331 H   0  0  0  0  0  0  0  0  0  0  0  0  # atno 10718 bound_to 10713
  153.0733  135.4947  154.8351 H   0  0  0  0  0  0  0  0  0  0  0  0  # atno 10763 bound_to 10752
  154.7053  135.3009  154.9282 H   0  0  0  0  0  0  0  0  0  0  0  0  # atno 10764 bound_to 10752
  153.9993  135.6768  153.4811 H   0  0  0  0  0  0  0  0  0  0  0  0  # atno 10765 bound_to 10752
  141.0374  133.6794  156.2714 H   0  0  0  0  0  0  0  0  0  0  0  0  # atno 11005 bound_to 11000
  146.3531  140.0785  142.8619 LP  0  0  0  0  0  0  0  0  0  0  0  0  # atno 17320 bound_to 7965
  145.1035  140.9360  143.4699 LP  0  0  0  0  0  0  0  0  0  0  0  0  # atno 17321 bound_to 7965
  139.4934  144.4202  151.9986 LP  0  0  0  0  0  0  0  0  0  0  0  0  # atno 17342 bound_to 10162
  140.3301  144.3327  150.5989 LP  0  0  0  0  0  0  0  0  0  0  0  0  # atno 17343 bound_to 10162
  156.7062  130.8952  151.3604 LP  0  0  0  0  0  0  0  0  0  0  0  0  # atno 17370 bound_to 10713
  157.6947  130.9269  150.0610 LP  0  0  0  0  0  0  0  0  0  0  0  0  # atno 17371 bound_to 10713
  140.6296  134.5277  157.5558 LP  0  0  0  0  0  0  0  0  0  0  0  0  # atno 17394 bound_to 11000
  139.9251  134.8072  156.1094 LP  0  0  0  0  0  0  0  0  0  0  0  0  # atno 17395 bound_to 11000

$$$$
