AV-unprocessed.smi:1959|AV-procd|sdf|7912|dock10
  -GOLD-   2272010 73D 1   1.00000     0.00000
 Structure written by MMmdl.
 44 45  0  0  0  0  0  0  0  0  1 V2000
  151.8173  144.5037  157.7422 C   0  0  0  0  0  0  0  0  0  0  0  0
  152.1816  143.2178  158.4230 C   0  0  0  0  0  0  0  0  0  0  0  0
  152.9655  143.0320  159.5955 C   0  0  0  0  0  0  0  0  0  0  0  0
  152.9959  141.6771  159.7701 C   0  0  0  0  0  0  0  0  0  0  0  0
  153.6715  140.8617  160.8233 C   0  0  0  0  0  0  0  0  0  0  0  0
  152.2580  141.1215  158.7386 N   0  0  0  0  0  0  0  0  0  0  0  0
  151.9961  139.7196  158.4400 C   0  0  0  0  0  0  0  0  0  0  0  0
  151.6792  139.5201  156.9561 C   0  0  0  0  0  0  0  0  0  0  0  0
  152.4886  139.8714  156.0985 O   0  0  0  0  0  0  0  0  0  0  0  0
  150.5061  138.9337  156.6724 N   0  0  0  0  0  0  0  0  0  0  0  0
  150.0796  138.4774  155.3536 C   0  0  2  0  0  0  0  0  0  0  0  0
  151.2029  137.6412  154.7206 C   0  0  0  0  0  0  0  0  0  0  0  0
  149.7189  139.6967  154.4763 C   0  0  0  0  0  0  0  0  0  0  0  0
  148.6235  140.5368  154.9689 N   0  0  0  0  0  0  0  0  0  0  0  0
  148.1185  141.4675  153.9601 C   0  0  0  0  0  0  0  0  0  0  0  0
  146.9336  142.3020  154.4750 C   0  0  0  0  0  0  0  0  0  0  0  0
  145.9014  141.4382  154.9368 O   0  0  0  0  0  0  0  0  0  0  0  0
  146.3448  140.5623  155.9674 C   0  0  0  0  0  0  0  0  0  0  0  0
  147.5175  139.7135  155.4475 C   0  0  0  0  0  0  0  0  0  0  0  0
  151.7582  142.0715  157.9176 N   0  0  0  0  0  0  0  0  0  0  0  0
  150.7365  144.6029  157.6394 H   0  0  0  0  0  0  0  0  0  0  0  0
  152.2546  144.5555  156.7449 H   0  0  0  0  0  0  0  0  0  0  0  0
  152.1771  145.3640  158.3068 H   0  0  0  0  0  0  0  0  0  0  0  0
  153.4396  143.7813  160.2119 H   0  0  0  0  0  0  0  0  0  0  0  0
  154.1906  141.5025  161.5364 H   0  0  0  0  0  0  0  0  0  0  0  0
  154.4070  140.1881  160.3841 H   0  0  0  0  0  0  0  0  0  0  0  0
  152.9478  140.2638  161.3770 H   0  0  0  0  0  0  0  0  0  0  0  0
  152.8609  139.1171  158.7175 H   0  0  0  0  0  0  0  0  0  0  0  0
  151.1601  139.3760  159.0512 H   0  0  0  0  0  0  0  0  0  0  0  0
  149.9039  138.6949  157.4466 H   0  0  0  0  0  0  0  0  0  0  0  0
  149.1973  137.8408  155.4447 H   0  0  0  0  0  0  0  0  0  0  0  0
  150.9080  137.2661  153.7402 H   0  0  0  0  0  0  0  0  0  0  0  0
  151.4479  136.7767  155.3388 H   0  0  0  0  0  0  0  0  0  0  0  0
  152.1128  138.2286  154.5929 H   0  0  0  0  0  0  0  0  0  0  0  0
  150.6070  140.3035  154.2912 H   0  0  0  0  0  0  0  0  0  0  0  0
  149.4236  139.3144  153.4983 H   0  0  0  0  0  0  0  0  0  0  0  0
  148.9048  142.1558  153.6549 H   0  0  0  0  0  0  0  0  0  0  0  0
  147.8135  140.9178  153.0684 H   0  0  0  0  0  0  0  0  0  0  0  0
  147.2510  142.9655  155.2809 H   0  0  0  0  0  0  0  0  0  0  0  0
  146.5410  142.9324  153.6770 H   0  0  0  0  0  0  0  0  0  0  0  0
  146.6419  141.1394  156.8445 H   0  0  0  0  0  0  0  0  0  0  0  0
  145.5174  139.9207  156.2703 H   0  0  0  0  0  0  0  0  0  0  0  0
  147.1626  139.0672  154.6430 H   0  0  0  0  0  0  0  0  0  0  0  0
  147.8642  139.0555  156.2452 H   0  0  0  0  0  0  0  0  0  0  0  0
  1  2  1  0  0  0  0
  1 21  1  0  0  0  0
  1 22  1  0  0  0  0
  1 23  1  0  0  0  0
  2 20  2  0  0  0  0
  2  3  1  0  0  0  0
  3  4  2  0  0  0  0
  3 24  1  0  0  0  0
  4  5  1  0  0  0  0
  4  6  1  0  0  0  0
  5 25  1  0  0  0  0
  5 26  1  0  0  0  0
  5 27  1  0  0  0  0
  6  7  1  0  0  0  0
  6 20  1  0  0  0  0
  7  8  1  0  0  0  0
  7 28  1  0  0  0  0
  7 29  1  0  0  0  0
  8  9  2  0  0  0  0
  8 10  1  0  0  0  0
 10 11  1  0  0  0  0
 10 30  1  0  0  0  0
 11 12  1  0  0  0  0
 11 13  1  0  0  0  0
 11 31  1  0  0  0  0
 12 32  1  0  0  0  0
 12 33  1  0  0  0  0
 12 34  1  0  0  0  0
 13 14  1  0  0  0  0
 13 35  1  0  0  0  0
 13 36  1  0  0  0  0
 14 19  1  0  0  0  0
 14 15  1  0  0  0  0
 15 16  1  0  0  0  0
 15 37  1  0  0  0  0
 15 38  1  0  0  0  0
 16 17  1  0  0  0  0
 16 39  1  0  0  0  0
 16 40  1  0  0  0  0
 17 18  1  0  0  0  0
 18 19  1  0  0  0  0
 18 41  1  0  0  0  0
 18 42  1  0  0  0  0
 19 43  1  0  0  0  0
 19 44  1  0  0  0  0
M  END
> <s_m_source_file>
AV-unprocessed.smi

> <i_m_source_file_index>
1959

> <i_lp_mmshare_version>
43012

> <i_f3d_flags>
0

> <s_epik_input>
W0NIM11jMVtjSF1jKFtDSDNdKW4objEpW0NIMl1DKD1PKVtOSF1bQ0BIXShbQ0gzXSlbQ0gyXU4yW0NIMl1bQ0gyXU9bQ0gyXVtDSDJdMg==

> <s_epik_cmdline>
J2VwaWtfcHl0aG9uJywgJy1waCcsICc3LjAnLCAnLXRuJywgJzgnLCAnLW1hJywgJzIwMCcsICctbWV0YWxfYmluZGluZycsICctaW1hZScsICc8aW5maWxlLm1hZT4nLCAnLW9tYWUnLCAnPG91dGZpbGUubWFlPic=

> <r_lp_tautomer_probability>
1

> <r_epik_Ionization_Penalty>
0.197284

> <r_epik_Ionization_Penalty_Charging>
0

> <r_epik_Ionization_Penalty_Neutral>
0.197284

> <r_epik_State_Penalty>
0.186684

> <r_epik_Charging_Adjusted_Penalty>
0.186684

> <i_epik_Tot_Q>
0

> <i_epik_Tot_abs_Q>
0

> <r_epik_Metal_State_Penalty>
0.186639

> <b_epik_Metal_Only>
0

> <s_lp_Force_Field>
OPLS_2005

> <r_lp_Energy>
23.1408

> <b_lp_Chiralities_Consistent>
1

> <s_lp_Variant>
AV-unprocessed.smi:1959-1

> <Gold.Version>
5.8.1

> <Gold.Id.Protein>
6NUR|6NUR_protein|mol2

> <Gold.PLP.Fitness>
40.2203

> <Gold.PLP.PLP>
-38.3805

> <Gold.PLP.part.hbond>
-1.0000

> <Gold.PLP.part.metal>
0.0000

> <Gold.PLP.part.buried>
-3.6230

> <Gold.PLP.part.nonpolar>
-33.4362

> <Gold.PLP.part.repulsive>
0.2666

> <Gold.PLP.ligand.clash>
0.0000

> <Gold.PLP.ligand.torsion>
0.5948

> <Gold.PLP.Chemscore.Hbond>
1.0000

> <Gold.PLP.Chemscore.CHOScore>
0.0000

> <Gold.PLP.Chemscore.Metal>
0.0000

> <Gold.Chemscore.Hbonds>
donor molecule, donor type, donor heavy atom, donor atom, acceptor molecule, acceptor atom, score
      P1  H  7997  8010       L1     9  1.00

> <Gold.PLP.Chemscore.Internal.Correction>
0.0294

> <Gold.Rescore>
     Score         DG    S(hbond)    S(metal)    S(lipo)     H(rot)  DE(clash)    DE(int)     intcor
     13.38     -16.34       1.00        0.00     101.41       1.70       0.02       2.94       ----

> <Gold.Chemscore.Fitness>
13.3794

> <Gold.Chemscore.DG>
-16.3424

> <Gold.Chemscore.ZeroCoef>
-5.4800

> <Gold.Chemscore.Hbond>
0.9991

> <Gold.Chemscore.Metal>
0.0000

> <Gold.Chemscore.Lipo>
101.4126

> <Gold.Chemscore.Internal_Hbond>
0.0000

> <Gold.Chemscore.DEClash>
0.0201

> <Gold.Chemscore.DEInternal>
2.9428

> <Gold.Chemscore.Rot>
1.6952

> <Gold.Chemscore.Internal.Correction>
   9.000000E+99

> <Gold.Chemscore.Hbonds>
donor molecule, donor type, donor heavy atom, donor atom, acceptor molecule, acceptor atom, score
      P1  H  7997  8010       L1     9  1.00

> <Gold.Chemscore.Hbond.Weighted>
-3.3369

> <Gold.Chemscore.Metal.Weighted>
-0.0000

> <Gold.Chemscore.Lipo.Weighted>
-11.8653

> <Gold.Chemscore.Internal_Hbond.Weighted>
0.0000

> <Gold.Chemscore.DEClash.Weighted>
0.0201

> <Gold.Chemscore.DEInternal.Weighted>
2.9428

> <Gold.Chemscore.Rot.Weighted>
4.3398

> <Gold.Chemscore.Internal.Correction.Weighted>
   9.000000E+99

> <Gold.Protein.RotatedTorsions>
[ 6907 6896 6895 6894 ] final  -45.36 input  -60.11 | X-H torsion
[ 7974 7965 7964 7962 ] final -123.60 input  175.53 | X-H torsion
[ 8008 7997 7996 7995 ] final   82.18 input   59.86 | X-H torsion
[ 10167 10162 10161 10158 ] final  -37.34 input  -65.29 | X-H torsion
[ 10718 10713 10712 10709 ] final -110.79 input   66.30 | X-H torsion
[ 10763 10752 10751 10750 ] final    2.57 input  -60.55 | X-H torsion
[ 11005 11000 10999 10996 ] final  143.23 input  -57.11 | X-H torsion

> <Gold.Protein.ActiveResidues>
 VAL166  LYS551  ARG553  GLY616  TRP617  ASP618  TYR619  PRO620  LYS621  CYS622 
 ASP623  PHE694  ASN695  SER759  ASP760  ASP761  ALA762  ILE779  LEU786  VAL792 
 PHE793  MET794  SER795  GLU796  ALA797  LYS798  CYS799  TRP800  GLU811  SER814 

> <Gold.Protein.RotatedAtoms>
  150.9228  134.8645  159.7499 H   0  0  0  0  0  0  0  0  0  0  0  0  # atno 6907 bound_to 6896
  152.5001  134.4193  159.9485 H   0  0  0  0  0  0  0  0  0  0  0  0  # atno 6908 bound_to 6896
  151.4226  133.3654  159.2793 H   0  0  0  0  0  0  0  0  0  0  0  0  # atno 6909 bound_to 6896
  145.0169  140.7955  143.4404 H   0  0  0  0  0  0  0  0  0  0  0  0  # atno 7974 bound_to 7965
  155.9071  140.3430  155.6070 H   0  0  0  0  0  0  0  0  0  0  0  0  # atno 8008 bound_to 7997
  155.7431  140.0810  157.2255 H   0  0  0  0  0  0  0  0  0  0  0  0  # atno 8009 bound_to 7997
  154.4051  140.1567  156.2626 H   0  0  0  0  0  0  0  0  0  0  0  0  # atno 8010 bound_to 7997
  140.7120  143.3348  151.2487 H   0  0  0  0  0  0  0  0  0  0  0  0  # atno 10167 bound_to 10162
  156.0610  130.5834  150.8285 H   0  0  0  0  0  0  0  0  0  0  0  0  # atno 10718 bound_to 10713
  153.2940  135.6951  153.7266 H   0  0  0  0  0  0  0  0  0  0  0  0  # atno 10763 bound_to 10752
  153.6206  135.3428  155.3010 H   0  0  0  0  0  0  0  0  0  0  0  0  # atno 10764 bound_to 10752
  154.8532  135.4385  154.2031 H   0  0  0  0  0  0  0  0  0  0  0  0  # atno 10765 bound_to 10752
  140.0538  134.9242  157.1063 H   0  0  0  0  0  0  0  0  0  0  0  0  # atno 11005 bound_to 11000
  145.1947  139.2282  143.5224 LP  0  0  0  0  0  0  0  0  0  0  0  0  # atno 17320 bound_to 7965
  146.3479  140.1751  142.8589 LP  0  0  0  0  0  0  0  0  0  0  0  0  # atno 17321 bound_to 7965
  139.6840  143.9805  152.2824 LP  0  0  0  0  0  0  0  0  0  0  0  0  # atno 17342 bound_to 10162
  139.9445  144.6660  150.8233 LP  0  0  0  0  0  0  0  0  0  0  0  0  # atno 17343 bound_to 10162
  157.5619  131.0946  150.9546 LP  0  0  0  0  0  0  0  0  0  0  0  0  # atno 17370 bound_to 10713
  156.9782  130.5517  149.5294 LP  0  0  0  0  0  0  0  0  0  0  0  0  # atno 17371 bound_to 10713
  140.3876  134.2219  155.7167 LP  0  0  0  0  0  0  0  0  0  0  0  0  # atno 17394 bound_to 11000
  141.1942  133.8133  157.0765 LP  0  0  0  0  0  0  0  0  0  0  0  0  # atno 17395 bound_to 11000

$$$$
