AV-unprocessed.smi:212|AV-procd|sdf|1624|dock5
  -GOLD-   2262019563D 1   1.00000     0.00000
 Structure written by MMmdl.
 65 68  0  0  0  0  0  0  0  0  2 V2000
  142.9937  137.2631  154.0800 C   0  0  0  0  0  0  0  0  0  0  0  0
  143.8806  136.1182  153.5538 C   0  0  1  0  0  0  0  0  0  0  0  0
  143.7398  135.8802  152.0340 C   0  0  0  0  0  0  0  0  0  0  0  0
  144.5726  134.7308  151.5936 N   0  3  1  0  0  0  0  0  0  0  0  0
  144.4187  134.4143  150.1492 C   0  0  0  0  0  0  0  0  0  0  0  0
  144.0114  132.9424  149.9115 C   0  0  0  0  0  0  0  0  0  0  0  0
  143.8289  132.6784  148.4074 C   0  0  0  0  0  0  0  0  0  0  0  0
  145.0216  131.9445  150.5070 C   0  0  0  0  0  0  0  0  0  0  0  0
  142.7540  132.7207  150.5198 O   0  0  0  0  0  0  0  0  0  0  0  0
  145.9903  134.8526  152.0217 C   0  0  0  0  0  0  0  0  0  0  0  0
  146.0938  135.0720  153.5428 C   0  0  0  0  0  0  0  0  0  0  0  0
  145.2895  136.2172  153.9579 N   0  0  0  0  0  0  0  0  0  0  0  0
  145.9645  137.3919  153.8668 C   0  0  0  0  0  0  0  0  0  0  0  0
  146.2972  137.9103  152.6554 N   0  0  0  0  0  0  0  0  0  0  0  0
  146.9855  139.0535  152.5781 C   0  0  0  0  0  0  0  0  0  0  0  0
  147.4398  139.8227  153.5693 N   0  0  0  0  0  0  0  0  0  0  0  0
  147.1165  139.3008  154.7867 C   0  0  0  0  0  0  0  0  0  0  0  0
  146.3909  138.1001  155.0228 C   0  0  0  0  0  0  0  0  0  0  0  0
  146.2564  137.8856  156.3889 N   0  0  0  0  0  0  0  0  0  0  0  0
  146.8671  138.9043  156.9310 C   0  0  0  0  0  0  0  0  0  0  0  0
  147.4072  139.8056  156.0412 N   0  0  0  0  0  0  0  0  0  0  0  0
  148.1338  141.0208  156.3653 C   0  0  0  0  0  0  0  0  0  0  0  0
  149.5564  140.7568  156.9194 C   0  0  1  0  0  0  0  0  0  0  0  0
  150.4127  139.8743  155.9787 C   0  0  0  0  0  0  0  0  0  0  0  0
  150.5889  140.4841  154.7163 O   0  0  0  0  0  0  0  0  0  0  0  0
  150.2706  142.0779  157.3007 C   0  0  2  0  0  0  0  0  0  0  0  0
  151.6318  141.9070  157.9524 C   0  0  0  0  0  0  0  0  0  0  0  0
  151.8464  143.2650  158.6115 C   0  0  0  0  0  0  0  0  0  0  0  0
  150.5499  143.7252  158.9766 O   0  0  0  0  0  0  0  0  0  0  0  0
  149.5546  142.9044  158.3740 C   0  0  0  0  0  0  0  0  0  0  0  0
  141.9409  137.0498  153.8939 H   0  0  0  0  0  0  0  0  0  0  0  0
  143.2150  138.2174  153.6035 H   0  0  0  0  0  0  0  0  0  0  0  0
  143.1149  137.3894  155.1563 H   0  0  0  0  0  0  0  0  0  0  0  0
  143.5127  135.2159  154.0446 H   0  0  0  0  0  0  0  0  0  0  0  0
  142.6959  135.6758  151.7927 H   0  0  0  0  0  0  0  0  0  0  0  0
  144.0208  136.7704  151.4707 H   0  0  0  0  0  0  0  0  0  0  0  0
  143.6768  135.0757  149.6972 H   0  0  0  0  0  0  0  0  0  0  0  0
  145.3490  134.6243  149.6188 H   0  0  0  0  0  0  0  0  0  0  0  0
  144.7631  132.8304  147.8655 H   0  0  0  0  0  0  0  0  0  0  0  0
  143.0845  133.3460  147.9713 H   0  0  0  0  0  0  0  0  0  0  0  0
  143.5031  131.6549  148.2176 H   0  0  0  0  0  0  0  0  0  0  0  0
  146.0145  132.0883  150.0798 H   0  0  0  0  0  0  0  0  0  0  0  0
  144.7253  130.9141  150.3066 H   0  0  0  0  0  0  0  0  0  0  0  0
  145.1086  132.0498  151.5888 H   0  0  0  0  0  0  0  0  0  0  0  0
  142.1398  133.3556  150.1824 H   0  0  0  0  0  0  0  0  0  0  0  0
  146.5369  133.9503  151.7460 H   0  0  0  0  0  0  0  0  0  0  0  0
  146.4592  135.6824  151.4905 H   0  0  0  0  0  0  0  0  0  0  0  0
  145.7341  134.1877  154.0703 H   0  0  0  0  0  0  0  0  0  0  0  0
  147.1378  135.1961  153.8336 H   0  0  0  0  0  0  0  0  0  0  0  0
  147.2049  139.4008  151.5792 H   0  0  0  0  0  0  0  0  0  0  0  0
  146.9351  139.0311  158.0018 H   0  0  0  0  0  0  0  0  0  0  0  0
  148.1881  141.6388  155.4683 H   0  0  0  0  0  0  0  0  0  0  0  0
  147.5377  141.5788  157.0876 H   0  0  0  0  0  0  0  0  0  0  0  0
  149.4333  140.1849  157.8400 H   0  0  0  0  0  0  0  0  0  0  0  0
  151.3929  139.6806  156.4135 H   0  0  0  0  0  0  0  0  0  0  0  0
  149.9542  138.8961  155.8346 H   0  0  0  0  0  0  0  0  0  0  0  0
  149.8121  140.9826  154.5127 H   0  0  0  0  0  0  0  0  0  0  0  0
  150.3899  142.6989  156.4112 H   0  0  0  0  0  0  0  0  0  0  0  0
  151.5957  141.1248  158.7123 H   0  0  0  0  0  0  0  0  0  0  0  0
  152.4227  141.6605  157.2435 H   0  0  0  0  0  0  0  0  0  0  0  0
  152.5095  143.2094  159.4751 H   0  0  0  0  0  0  0  0  0  0  0  0
  152.2762  143.9697  157.8985 H   0  0  0  0  0  0  0  0  0  0  0  0
  148.7450  143.5091  157.9649 H   0  0  0  0  0  0  0  0  0  0  0  0
  149.1347  142.2568  159.1449 H   0  0  0  0  0  0  0  0  0  0  0  0
  144.2046  133.9286  152.0852 H   0  0  0  0  0  0  0  0  0  0  0  0
  1  2  1  0  0  0  0
  1 31  1  0  0  0  0
  1 32  1  0  0  0  0
  1 33  1  0  0  0  0
  2 12  1  0  0  0  0
  2  3  1  0  0  0  0
  2 34  1  0  0  0  0
  3  4  1  0  0  0  0
  3 35  1  0  0  0  0
  3 36  1  0  0  0  0
  4  5  1  0  0  0  0
  4 10  1  0  0  0  0
  4 65  1  0  0  0  0
  5  6  1  0  0  0  0
  5 37  1  0  0  0  0
  5 38  1  0  0  0  0
  6  7  1  0  0  0  0
  6  8  1  0  0  0  0
  6  9  1  0  0  0  0
  7 39  1  0  0  0  0
  7 40  1  0  0  0  0
  7 41  1  0  0  0  0
  8 42  1  0  0  0  0
  8 43  1  0  0  0  0
  8 44  1  0  0  0  0
  9 45  1  0  0  0  0
 10 11  1  0  0  0  0
 10 46  1  0  0  0  0
 10 47  1  0  0  0  0
 11 12  1  0  0  0  0
 11 48  1  0  0  0  0
 11 49  1  0  0  0  0
 12 13  1  0  0  0  0
 13 18  1  0  0  0  0
 13 14  2  0  0  0  0
 14 15  1  0  0  0  0
 15 16  2  0  0  0  0
 15 50  1  0  0  0  0
 16 17  1  0  0  0  0
 17 21  1  0  0  0  0
 17 18  2  0  0  0  0
 18 19  1  0  0  0  0
 19 20  2  0  0  0  0
 20 21  1  0  0  0  0
 20 51  1  0  0  0  0
 21 22  1  0  0  0  0
 22 23  1  0  0  0  0
 22 52  1  0  0  0  0
 22 53  1  0  0  0  0
 23 24  1  0  0  0  0
 23 26  1  0  0  0  0
 23 54  1  0  0  0  0
 24 25  1  0  0  0  0
 24 55  1  0  0  0  0
 24 56  1  0  0  0  0
 25 57  1  0  0  0  0
 26 30  1  0  0  0  0
 26 27  1  0  0  0  0
 26 58  1  0  0  0  0
 27 28  1  0  0  0  0
 27 59  1  0  0  0  0
 27 60  1  0  0  0  0
 28 29  1  0  0  0  0
 28 61  1  0  0  0  0
 28 62  1  0  0  0  0
 29 30  1  0  0  0  0
 30 63  1  0  0  0  0
 30 64  1  0  0  0  0
M  CHG  1   4   1
M  END
> <s_m_source_file>
AV-unprocessed.smi

> <i_m_source_file_index>
212

> <i_lp_mmshare_version>
43012

> <i_f3d_flags>
0

> <s_epik_input>
W0NIM11bQ0BASF0xW0NIMl1OKFtDSDJdQyhbQ0gzXSkoW0NIM10pW09IXSlbQ0gyXVtDSDJdTjFjKG5bY0hdbjIpYyhjMjMpbltjSF1uM1tDSDJdW0NASF0oW0NIMl1bT0hdKVtDQEBIXTRbQ0gyXVtDSDJdT1tDSDJdNA==

> <s_epik_cmdline>
J2VwaWtfcHl0aG9uJywgJy1waCcsICc3LjAnLCAnLXRuJywgJzgnLCAnLW1hJywgJzIwMCcsICctbWV0YWxfYmluZGluZycsICctaW1hZScsICc8aW5maWxlLm1hZT4nLCAnLW9tYWUnLCAnPG91dGZpbGUubWFlPic=

> <r_lp_tautomer_probability>
1

> <r_epik_Ionization_Penalty>
0.00182193

> <r_epik_Ionization_Penalty_Charging>
0.00173996

> <r_epik_Ionization_Penalty_Neutral>
8.19718e-05

> <r_epik_State_Penalty>
-0

> <r_epik_Charging_Adjusted_Penalty>
0.00173996

> <i_epik_Tot_Q>
1

> <i_epik_Tot_abs_Q>
1

> <r_epik_Metal_State_Penalty>
-0

> <b_epik_Metal_Only>
0

> <s_lp_Force_Field>
OPLS_2005

> <r_lp_Energy>
58.8905

> <b_lp_Chiralities_Consistent>
1

> <s_lp_Variant>
AV-unprocessed.smi:212-8

> <Gold.Version>
5.8.1

> <Gold.Id.Protein>
6NUR|6NUR_protein|mol2

> <Gold.PLP.Fitness>
45.7359

> <Gold.PLP.PLP>
-38.6294

> <Gold.PLP.part.hbond>
-2.4675

> <Gold.PLP.part.metal>
0.0000

> <Gold.PLP.part.buried>
-5.4960

> <Gold.PLP.part.nonpolar>
-30.5201

> <Gold.PLP.part.repulsive>
0.6383

> <Gold.PLP.ligand.clash>
0.0000

> <Gold.PLP.ligand.torsion>
1.0518

> <Gold.PLP.Chemscore.Hbond>
2.0000

> <Gold.PLP.Chemscore.CHOScore>
0.7012

> <Gold.PLP.Chemscore.Metal>
0.0000

> <Gold.Chemscore.Hbonds>
donor molecule, donor type, donor heavy atom, donor atom, acceptor molecule, acceptor atom, score
      L1  H     9    45       P1 10186  1.00
      P1  H  7989  7998       L1    25  1.00
      L1  C    15    50       P1  7957  0.74

> <Gold.PLP.Chemscore.Internal.Correction>
1.1065

> <Gold.Rescore>
     Score         DG    S(hbond)    S(metal)    S(lipo)     H(rot)  DE(clash)    DE(int)     intcor
     12.67     -13.79       1.85        0.00      98.82       3.68       0.04       1.08       ----

> <Gold.Chemscore.Fitness>
12.6712

> <Gold.Chemscore.DG>
-13.7925

> <Gold.Chemscore.ZeroCoef>
-5.4800

> <Gold.Chemscore.Hbond>
1.8486

> <Gold.Chemscore.Metal>
0.0000

> <Gold.Chemscore.Lipo>
98.8204

> <Gold.Chemscore.Internal_Hbond>
0.0000

> <Gold.Chemscore.DEClash>
0.0402

> <Gold.Chemscore.DEInternal>
1.0811

> <Gold.Chemscore.Rot>
3.6812

> <Gold.Chemscore.Internal.Correction>
   9.000000E+99

> <Gold.Chemscore.Hbonds>
donor molecule, donor type, donor heavy atom, donor atom, acceptor molecule, acceptor atom, score
      L1  H     9    45       P1 10186  1.00
      P1  H  7989  7998       L1    25  0.38

> <Gold.Chemscore.Hbond.Weighted>
-6.1745

> <Gold.Chemscore.Metal.Weighted>
-0.0000

> <Gold.Chemscore.Lipo.Weighted>
-11.5620

> <Gold.Chemscore.Internal_Hbond.Weighted>
0.0000

> <Gold.Chemscore.DEClash.Weighted>
0.0402

> <Gold.Chemscore.DEInternal.Weighted>
1.0811

> <Gold.Chemscore.Rot.Weighted>
9.4239

> <Gold.Chemscore.Internal.Correction.Weighted>
   9.000000E+99

> <Gold.Protein.RotatedTorsions>
[ 6907 6896 6895 6894 ] final    9.81 input  -60.11 | X-H torsion
[ 7974 7965 7964 7962 ] final   60.54 input  175.53 | X-H torsion
[ 8008 7997 7996 7995 ] final -163.50 input   59.86 | X-H torsion
[ 10167 10162 10161 10158 ] final  -39.54 input  -65.29 | X-H torsion
[ 10718 10713 10712 10709 ] final   72.92 input   66.30 | X-H torsion
[ 10763 10752 10751 10750 ] final  -53.71 input  -60.55 | X-H torsion
[ 11005 11000 10999 10996 ] final   10.01 input  -57.11 | X-H torsion

> <Gold.Protein.ActiveResidues>
 VAL166  LYS551  ARG553  GLY616  TRP617  ASP618  TYR619  PRO620  LYS621  CYS622 
 ASP623  PHE694  ASN695  SER759  ASP760  ASP761  ALA762  ILE779  LEU786  VAL792 
 PHE793  MET794  SER795  GLU796  ALA797  LYS798  CYS799  TRP800  GLU811  SER814 

> <Gold.Protein.RotatedAtoms>
  151.7281  135.0880  160.0295 H   0  0  0  0  0  0  0  0  0  0  0  0  # atno 6907 bound_to 6896
  152.3558  133.6232  159.5987 H   0  0  0  0  0  0  0  0  0  0  0  0  # atno 6908 bound_to 6896
  150.7570  133.9418  159.3500 H   0  0  0  0  0  0  0  0  0  0  0  0  # atno 6909 bound_to 6896
  145.8948  139.3537  143.0628 H   0  0  0  0  0  0  0  0  0  0  0  0  # atno 7974 bound_to 7965
  155.8222  140.0921  157.1842 H   0  0  0  0  0  0  0  0  0  0  0  0  # atno 8008 bound_to 7997
  154.3979  140.1435  156.3573 H   0  0  0  0  0  0  0  0  0  0  0  0  # atno 8009 bound_to 7997
  155.8254  140.3444  155.5542 H   0  0  0  0  0  0  0  0  0  0  0  0  # atno 8010 bound_to 7997
  140.7061  143.3208  151.2797 H   0  0  0  0  0  0  0  0  0  0  0  0  # atno 10167 bound_to 10162
  157.6523  130.9602  150.0996 H   0  0  0  0  0  0  0  0  0  0  0  0  # atno 10718 bound_to 10713
  154.1632  135.6471  153.4991 H   0  0  0  0  0  0  0  0  0  0  0  0  # atno 10763 bound_to 10752
  153.0105  135.5365  154.6689 H   0  0  0  0  0  0  0  0  0  0  0  0  # atno 10764 bound_to 10752
  154.6008  135.2943  155.0509 H   0  0  0  0  0  0  0  0  0  0  0  0  # atno 10765 bound_to 10752
  140.5192  134.0575  155.7840 H   0  0  0  0  0  0  0  0  0  0  0  0  # atno 11005 bound_to 11000
  145.8864  140.9331  143.0575 LP  0  0  0  0  0  0  0  0  0  0  0  0  # atno 17320 bound_to 7965
  144.6732  140.0847  143.7468 LP  0  0  0  0  0  0  0  0  0  0  0  0  # atno 17321 bound_to 7965
  139.6661  144.0102  152.2724 LP  0  0  0  0  0  0  0  0  0  0  0  0  # atno 17342 bound_to 10162
  139.9686  144.6509  150.8011 LP  0  0  0  0  0  0  0  0  0  0  0  0  # atno 17343 bound_to 10162
  156.1922  130.3655  149.8895 LP  0  0  0  0  0  0  0  0  0  0  0  0  # atno 17370 bound_to 10713
  156.6820  130.8862  151.3577 LP  0  0  0  0  0  0  0  0  0  0  0  0  # atno 17371 bound_to 10713
  141.1343  133.9248  157.2468 LP  0  0  0  0  0  0  0  0  0  0  0  0  # atno 17394 bound_to 11000
  139.9615  135.0153  156.9273 LP  0  0  0  0  0  0  0  0  0  0  0  0  # atno 17395 bound_to 11000

$$$$
