AV-unprocessed.smi:1586|AV-procd|sdf|6377|dock2
  -GOLD-   22720 7 03D 1   1.00000     0.00000
 Structure written by MMmdl.
 46 47  0  0  0  0  0  0  0  0  1 V2000
  150.9010  144.8622  160.2457 C   0  0  0  0  0  0  0  0  0  0  0  0
  152.2397  144.6792  159.5158 C   0  0  0  0  0  0  0  0  0  0  0  0
  152.2910  143.5406  158.6009 N   0  0  0  0  0  0  0  0  0  0  0  0
  152.3481  142.2591  159.3020 C   0  0  0  0  0  0  0  0  0  0  0  0
  152.4025  141.0750  158.3188 C   0  0  0  0  0  0  0  0  0  0  0  0
  151.2424  141.0352  157.4143 N   0  0  0  0  0  0  0  0  0  0  0  0
  151.3044  139.9066  156.4568 C   0  0  2  0  0  0  0  0  0  0  0  0
  150.1584  139.9424  155.4138 C   0  0  0  0  0  0  0  0  0  0  0  0
  151.3083  138.5113  157.1472 C   0  0  0  0  0  0  0  0  0  0  0  0
  150.0240  138.1555  157.7454 N   0  0  0  0  0  0  0  0  0  0  0  0
  149.8710  137.4448  158.8722 C   0  0  0  0  0  0  0  0  0  0  0  0
  150.8153  137.0169  159.5359 O   0  0  0  0  0  0  0  0  0  0  0  0
  148.5711  137.2696  159.1638 N   0  0  0  0  0  0  0  0  0  0  0  0
  147.9991  136.5760  160.2615 C   0  0  0  0  0  0  0  0  0  0  0  0
  147.9202  135.1615  160.4186 C   0  0  0  0  0  0  0  0  0  0  0  0
  147.2918  135.0219  161.6236 C   0  0  0  0  0  0  0  0  0  0  0  0
  146.8801  133.8321  162.4209 C   0  0  0  0  0  0  0  0  0  0  0  0
  147.0099  136.2415  162.1553 O   0  0  0  0  0  0  0  0  0  0  0  0
  147.4663  137.2309  161.2768 N   0  0  0  0  0  0  0  0  0  0  0  0
  151.1730  142.3403  156.7382 C   0  0  0  0  0  0  0  0  0  0  0  0
  151.1204  143.5170  157.7296 C   0  0  0  0  0  0  0  0  0  0  0  0
  150.9747  145.6597  160.9852 H   0  0  0  0  0  0  0  0  0  0  0  0
  150.6114  143.9509  160.7695 H   0  0  0  0  0  0  0  0  0  0  0  0
  150.0963  145.1301  159.5615 H   0  0  0  0  0  0  0  0  0  0  0  0
  152.4937  145.5970  158.9832 H   0  0  0  0  0  0  0  0  0  0  0  0
  153.0107  144.5517  160.2768 H   0  0  0  0  0  0  0  0  0  0  0  0
  153.2311  142.2179  159.9387 H   0  0  0  0  0  0  0  0  0  0  0  0
  151.4834  142.1514  159.9589 H   0  0  0  0  0  0  0  0  0  0  0  0
  153.3272  141.1179  157.7409 H   0  0  0  0  0  0  0  0  0  0  0  0
  152.4496  140.1728  158.9244 H   0  0  0  0  0  0  0  0  0  0  0  0
  152.2399  139.9944  155.9022 H   0  0  0  0  0  0  0  0  0  0  0  0
  150.1748  139.0815  154.7467 H   0  0  0  0  0  0  0  0  0  0  0  0
  150.2245  140.8089  154.7572 H   0  0  0  0  0  0  0  0  0  0  0  0
  149.1829  139.9606  155.9006 H   0  0  0  0  0  0  0  0  0  0  0  0
  151.5606  137.7099  156.4544 H   0  0  0  0  0  0  0  0  0  0  0  0
  152.0656  138.4886  157.9312 H   0  0  0  0  0  0  0  0  0  0  0  0
  149.1953  138.4693  157.2617 H   0  0  0  0  0  0  0  0  0  0  0  0
  147.9088  137.6817  158.5233 H   0  0  0  0  0  0  0  0  0  0  0  0
  148.2613  134.3691  159.7699 H   0  0  0  0  0  0  0  0  0  0  0  0
  147.3404  132.9241  162.0311 H   0  0  0  0  0  0  0  0  0  0  0  0
  145.7983  133.7029  162.3913 H   0  0  0  0  0  0  0  0  0  0  0  0
  147.1803  133.9414  163.4631 H   0  0  0  0  0  0  0  0  0  0  0  0
  152.0259  142.4612  156.0684 H   0  0  0  0  0  0  0  0  0  0  0  0
  150.2768  142.4057  156.1241 H   0  0  0  0  0  0  0  0  0  0  0  0
  150.2090  143.4534  158.3265 H   0  0  0  0  0  0  0  0  0  0  0  0
  151.0601  144.4508  157.1697 H   0  0  0  0  0  0  0  0  0  0  0  0
  1  2  1  0  0  0  0
  1 22  1  0  0  0  0
  1 23  1  0  0  0  0
  1 24  1  0  0  0  0
  2  3  1  0  0  0  0
  2 25  1  0  0  0  0
  2 26  1  0  0  0  0
  3 21  1  0  0  0  0
  3  4  1  0  0  0  0
  4  5  1  0  0  0  0
  4 27  1  0  0  0  0
  4 28  1  0  0  0  0
  5  6  1  0  0  0  0
  5 29  1  0  0  0  0
  5 30  1  0  0  0  0
  6  7  1  0  0  0  0
  6 20  1  0  0  0  0
  7  8  1  0  0  0  0
  7  9  1  0  0  0  0
  7 31  1  0  0  0  0
  8 32  1  0  0  0  0
  8 33  1  0  0  0  0
  8 34  1  0  0  0  0
  9 10  1  0  0  0  0
  9 35  1  0  0  0  0
  9 36  1  0  0  0  0
 10 11  1  0  0  0  0
 10 37  1  0  0  0  0
 11 12  2  0  0  0  0
 11 13  1  0  0  0  0
 13 14  1  0  0  0  0
 13 38  1  0  0  0  0
 14 19  2  0  0  0  0
 14 15  1  0  0  0  0
 15 16  2  0  0  0  0
 15 39  1  0  0  0  0
 16 17  1  0  0  0  0
 16 18  1  0  0  0  0
 17 40  1  0  0  0  0
 17 41  1  0  0  0  0
 17 42  1  0  0  0  0
 18 19  1  0  0  0  0
 20 21  1  0  0  0  0
 20 43  1  0  0  0  0
 20 44  1  0  0  0  0
 21 45  1  0  0  0  0
 21 46  1  0  0  0  0
M  END
> <s_m_source_file>
AV-unprocessed.smi

> <i_m_source_file_index>
1586

> <i_lp_mmshare_version>
43012

> <i_f3d_flags>
0

> <s_epik_input>
W0NIM11bQ0gyXU4xW0NIMl1bQ0gyXU4oW0NIMl1bQ0gyXTEpW0NASF0oW0NIM10pW0NIMl1bTkhdQyg9TylbTkhdYzJbY0hdYyhbQ0gzXSlvbjI=

> <s_epik_cmdline>
J2VwaWtfcHl0aG9uJywgJy1waCcsICc3LjAnLCAnLXRuJywgJzgnLCAnLW1hJywgJzIwMCcsICctbWV0YWxfYmluZGluZycsICctaW1hZScsICc8aW5maWxlLm1hZT4nLCAnLW9tYWUnLCAnPG91dGZpbGUubWFlPic=

> <r_epik_Ionization_Penalty>
2.42597

> <r_epik_Ionization_Penalty_Charging>
0

> <r_epik_Ionization_Penalty_Neutral>
2.42597

> <r_epik_State_Penalty>
1.76326

> <r_epik_Charging_Adjusted_Penalty>
1.76326

> <i_epik_Tot_Q>
0

> <i_epik_Tot_abs_Q>
0

> <r_epik_Metal_State_Penalty>
1.7742

> <b_epik_Metal_Only>
0

> <s_lp_Force_Field>
OPLS_2005

> <r_lp_Energy>
40.1671

> <b_lp_Chiralities_Consistent>
1

> <s_lp_Variant>
AV-unprocessed.smi:1586-5

> <Gold.Version>
5.8.1

> <Gold.Id.Protein>
6NUR|6NUR_protein|mol2

> <Gold.PLP.Fitness>
45.1974

> <Gold.PLP.PLP>
-38.6550

> <Gold.PLP.part.hbond>
-3.0000

> <Gold.PLP.part.metal>
0.0000

> <Gold.PLP.part.buried>
-6.9542

> <Gold.PLP.part.nonpolar>
-29.6150

> <Gold.PLP.part.repulsive>
0.2879

> <Gold.PLP.ligand.clash>
0.0000

> <Gold.PLP.ligand.torsion>
1.0106

> <Gold.PLP.Chemscore.Hbond>
2.8240

> <Gold.PLP.Chemscore.CHOScore>
0.0000

> <Gold.PLP.Chemscore.Metal>
0.0000

> <Gold.Chemscore.Hbonds>
donor molecule, donor type, donor heavy atom, donor atom, acceptor molecule, acceptor atom, score
      P1  H  6896  6907       L1    12  1.00
      P1  H  6931  6943       L1    19  0.88
      P1  H  6934  6947       L1    19  0.94

> <Gold.PLP.Chemscore.Internal.Correction>
0.0915

> <Gold.Rescore>
     Score         DG    S(hbond)    S(metal)    S(lipo)     H(rot)  DE(clash)    DE(int)     intcor
     19.85     -20.99       2.50        0.00      98.66       1.72       0.13       1.01       ----

> <Gold.Chemscore.Fitness>
19.8528

> <Gold.Chemscore.DG>
-20.9869

> <Gold.Chemscore.ZeroCoef>
-5.4800

> <Gold.Chemscore.Hbond>
2.5035

> <Gold.Chemscore.Metal>
0.0000

> <Gold.Chemscore.Lipo>
98.6565

> <Gold.Chemscore.Internal_Hbond>
0.0000

> <Gold.Chemscore.DEClash>
0.1252

> <Gold.Chemscore.DEInternal>
1.0090

> <Gold.Chemscore.Rot>
1.7178

> <Gold.Chemscore.Internal.Correction>
   9.000000E+99

> <Gold.Chemscore.Hbonds>
donor molecule, donor type, donor heavy atom, donor atom, acceptor molecule, acceptor atom, score
      P1  H  6896  6907       L1    12  0.93
      P1  H  6931  6943       L1    19  0.23
      P1  H  6934  6947       L1    19  0.80

> <Gold.Chemscore.Hbond.Weighted>
-8.3618

> <Gold.Chemscore.Metal.Weighted>
-0.0000

> <Gold.Chemscore.Lipo.Weighted>
-11.5428

> <Gold.Chemscore.Internal_Hbond.Weighted>
0.0000

> <Gold.Chemscore.DEClash.Weighted>
0.1252

> <Gold.Chemscore.DEInternal.Weighted>
1.0090

> <Gold.Chemscore.Rot.Weighted>
4.3976

> <Gold.Chemscore.Internal.Correction.Weighted>
   9.000000E+99

> <Gold.Protein.RotatedTorsions>
[ 6907 6896 6895 6894 ] final   -2.67 input  -60.11 | X-H torsion
[ 7974 7965 7964 7962 ] final  176.46 input  175.53 | X-H torsion
[ 8008 7997 7996 7995 ] final   73.64 input   59.86 | X-H torsion
[ 10167 10162 10161 10158 ] final  -84.80 input  -65.29 | X-H torsion
[ 10718 10713 10712 10709 ] final   59.35 input   66.30 | X-H torsion
[ 10763 10752 10751 10750 ] final -148.00 input  -60.55 | X-H torsion
[ 11005 11000 10999 10996 ] final   50.41 input  -57.11 | X-H torsion

> <Gold.Protein.ActiveResidues>
 VAL166  LYS551  ARG553  GLY616  TRP617  ASP618  TYR619  PRO620  LYS621  CYS622 
 ASP623  PHE694  ASN695  SER759  ASP760  ASP761  ALA762  ILE779  LEU786  VAL792 
 PHE793  MET794  SER795  GLU796  ALA797  LYS798  CYS799  TRP800  GLU811  SER814 

> <Gold.Protein.RotatedAtoms>
  151.5262  135.1068  159.9890 H   0  0  0  0  0  0  0  0  0  0  0  0  # atno 6907 bound_to 6896
  152.4599  133.7796  159.6854 H   0  0  0  0  0  0  0  0  0  0  0  0  # atno 6908 bound_to 6896
  150.8557  133.7655  159.3035 H   0  0  0  0  0  0  0  0  0  0  0  0  # atno 6909 bound_to 6896
  144.7184  140.0100  143.6440 H   0  0  0  0  0  0  0  0  0  0  0  0  # atno 7974 bound_to 7965
  155.7867  140.3480  155.5327 H   0  0  0  0  0  0  0  0  0  0  0  0  # atno 8008 bound_to 7997
  155.8675  140.0981  157.1593 H   0  0  0  0  0  0  0  0  0  0  0  0  # atno 8009 bound_to 7997
  154.4015  140.1347  156.4024 H   0  0  0  0  0  0  0  0  0  0  0  0  # atno 8010 bound_to 7997
  140.4098  143.2627  151.9033 H   0  0  0  0  0  0  0  0  0  0  0  0  # atno 10167 bound_to 10162
  157.5669  130.8877  149.9201 H   0  0  0  0  0  0  0  0  0  0  0  0  # atno 10718 bound_to 10713
  154.8256  135.3346  154.6906 H   0  0  0  0  0  0  0  0  0  0  0  0  # atno 10763 bound_to 10752
  153.7532  135.6938  153.4945 H   0  0  0  0  0  0  0  0  0  0  0  0  # atno 10764 bound_to 10752
  153.2162  135.4465  155.0387 H   0  0  0  0  0  0  0  0  0  0  0  0  # atno 10765 bound_to 10752
  140.1020  134.5068  155.8754 H   0  0  0  0  0  0  0  0  0  0  0  0  # atno 11005 bound_to 11000
  146.0266  139.3298  143.0780 LP  0  0  0  0  0  0  0  0  0  0  0  0  # atno 17320 bound_to 7965
  145.8503  140.9532  143.0753 LP  0  0  0  0  0  0  0  0  0  0  0  0  # atno 17321 bound_to 7965
  139.4783  144.5549  151.8329 LP  0  0  0  0  0  0  0  0  0  0  0  0  # atno 17342 bound_to 10162
  140.4650  144.1668  150.5910 LP  0  0  0  0  0  0  0  0  0  0  0  0  # atno 17343 bound_to 10162
  156.0716  130.3684  150.0763 LP  0  0  0  0  0  0  0  0  0  0  0  0  # atno 17370 bound_to 10713
  156.8921  130.9592  151.3587 LP  0  0  0  0  0  0  0  0  0  0  0  0  # atno 17371 bound_to 10713
  141.2108  133.6699  156.6537 LP  0  0  0  0  0  0  0  0  0  0  0  0  # atno 17394 bound_to 11000
  140.3207  134.8010  157.4250 LP  0  0  0  0  0  0  0  0  0  0  0  0  # atno 17395 bound_to 11000

$$$$
