AV-unprocessed.smi:155|AV-procd|sdf|1279|dock2
  -GOLD-   2262018543D 1   1.00000     0.00000
 Structure written by MMmdl.
 64 67  0  0  0  0  0  0  0  0  3 V2000
  143.7010  132.1614  150.2680 C   0  0  0  0  0  0  0  0  0  0  0  0
  145.0940  132.6233  150.0765 N   0  3  0  0  0  0  0  0  0  0  0  0
  145.7594  131.8975  148.9700 C   0  0  0  0  0  0  0  0  0  0  0  0
  145.8687  132.5990  151.3432 C   0  0  0  0  0  0  0  0  0  0  0  0
  146.7951  133.8235  151.4990 C   0  0  0  0  0  0  0  0  0  0  0  0
  147.3701  133.9399  152.8660 N   0  3  2  0  0  0  0  0  0  0  0  0
  148.4574  132.9570  153.1222 C   0  0  0  0  0  0  0  0  0  0  0  0
  149.6298  133.6241  153.8627 C   0  0  0  0  0  0  0  0  0  0  0  0
  149.3360  133.9353  155.3397 C   0  0  0  0  0  0  0  0  0  0  0  0
  148.1379  134.7537  155.5155 N   0  0  0  0  0  0  0  0  0  0  0  0
  148.1635  136.1141  155.3709 C   0  0  0  0  0  0  0  0  0  0  0  0
  146.9731  136.7738  155.3898 N   0  0  0  0  0  0  0  0  0  0  0  0
  146.9133  138.1000  155.2531 C   0  0  0  0  0  0  0  0  0  0  0  0
  147.9128  138.9627  155.0820 N   0  0  0  0  0  0  0  0  0  0  0  0
  149.1156  138.3232  155.0610 C   0  0  0  0  0  0  0  0  0  0  0  0
  149.3348  136.9189  155.1944 C   0  0  0  0  0  0  0  0  0  0  0  0
  150.7014  136.6659  155.1093 N   0  0  0  0  0  0  0  0  0  0  0  0
  151.2507  137.8378  154.9510 C   0  0  0  0  0  0  0  0  0  0  0  0
  150.3689  138.8902  154.9123 N   0  0  0  0  0  0  0  0  0  0  0  0
  150.7021  140.2954  154.7572 C   0  0  0  0  0  0  0  0  0  0  0  0
  150.0417  141.1756  155.8367 C   0  0  2  0  0  0  0  0  0  0  0  0
  149.1533  142.1096  155.2517 O   0  0  0  0  0  0  0  0  0  0  0  0
  151.0660  141.9012  156.7326 C   0  0  2  0  0  0  0  0  0  0  0  0
  151.9866  140.9950  157.5691 C   0  0  0  0  0  0  0  0  0  0  0  0
  151.7178  141.4296  158.9987 C   0  0  0  0  0  0  0  0  0  0  0  0
  151.2067  142.8535  158.8243 C   0  0  0  0  0  0  0  0  0  0  0  0
  150.4082  142.7645  157.6561 O   0  0  0  0  0  0  0  0  0  0  0  0
  146.8665  134.0369  155.3788 C   0  0  0  0  0  0  0  0  0  0  0  0
  146.3270  133.9727  153.9312 C   0  0  0  0  0  0  0  0  0  0  0  0
  143.6748  131.1189  150.5887 H   0  0  0  0  0  0  0  0  0  0  0  0
  143.1340  132.2478  149.3403 H   0  0  0  0  0  0  0  0  0  0  0  0
  143.1914  132.7641  151.0207 H   0  0  0  0  0  0  0  0  0  0  0  0
  145.8944  130.8436  149.2179 H   0  0  0  0  0  0  0  0  0  0  0  0
  146.7361  132.3250  148.7442 H   0  0  0  0  0  0  0  0  0  0  0  0
  145.1630  131.9572  148.0587 H   0  0  0  0  0  0  0  0  0  0  0  0
  145.1627  132.5986  152.1755 H   0  0  0  0  0  0  0  0  0  0  0  0
  146.4286  131.6653  151.4082 H   0  0  0  0  0  0  0  0  0  0  0  0
  147.6001  133.8096  150.7634 H   0  0  0  0  0  0  0  0  0  0  0  0
  146.1981  134.7137  151.2954 H   0  0  0  0  0  0  0  0  0  0  0  0
  148.0825  132.0864  153.6625 H   0  0  0  0  0  0  0  0  0  0  0  0
  148.8492  132.5716  152.1804 H   0  0  0  0  0  0  0  0  0  0  0  0
  150.4951  132.9620  153.8216 H   0  0  0  0  0  0  0  0  0  0  0  0
  149.9256  134.5315  153.3352 H   0  0  0  0  0  0  0  0  0  0  0  0
  149.1875  132.9944  155.8706 H   0  0  0  0  0  0  0  0  0  0  0  0
  150.1967  134.3848  155.8310 H   0  0  0  0  0  0  0  0  0  0  0  0
  145.9238  138.5315  155.2873 H   0  0  0  0  0  0  0  0  0  0  0  0
  152.3197  137.9684  154.8617 H   0  0  0  0  0  0  0  0  0  0  0  0
  151.7871  140.3968  154.8008 H   0  0  0  0  0  0  0  0  0  0  0  0
  150.4007  140.6166  153.7594 H   0  0  0  0  0  0  0  0  0  0  0  0
  149.4350  140.5344  156.4777 H   0  0  0  0  0  0  0  0  0  0  0  0
  149.4239  142.9785  155.5076 H   0  0  0  0  0  0  0  0  0  0  0  0
  151.6928  142.5331  156.1014 H   0  0  0  0  0  0  0  0  0  0  0  0
  151.8016  139.9296  157.4278 H   0  0  0  0  0  0  0  0  0  0  0  0
  153.0284  141.1825  157.3068 H   0  0  0  0  0  0  0  0  0  0  0  0
  150.9345  140.8082  159.4347 H   0  0  0  0  0  0  0  0  0  0  0  0
  152.5985  141.3672  159.6385 H   0  0  0  0  0  0  0  0  0  0  0  0
  150.6306  143.2046  159.6805 H   0  0  0  0  0  0  0  0  0  0  0  0
  152.0319  143.5466  158.6533 H   0  0  0  0  0  0  0  0  0  0  0  0
  147.0162  133.0169  155.7339 H   0  0  0  0  0  0  0  0  0  0  0  0
  146.1128  134.4518  156.0492 H   0  0  0  0  0  0  0  0  0  0  0  0
  145.7081  134.8551  153.7726 H   0  0  0  0  0  0  0  0  0  0  0  0
  145.6636  133.1125  153.8321 H   0  0  0  0  0  0  0  0  0  0  0  0
  145.0287  133.5906  149.7925 H   0  0  0  0  0  0  0  0  0  0  0  0
  147.8268  134.8406  152.8913 H   0  0  0  0  0  0  0  0  0  0  0  0
  1  2  1  0  0  0  0
  1 30  1  0  0  0  0
  1 31  1  0  0  0  0
  1 32  1  0  0  0  0
  2  3  1  0  0  0  0
  2  4  1  0  0  0  0
  2 63  1  0  0  0  0
  3 33  1  0  0  0  0
  3 34  1  0  0  0  0
  3 35  1  0  0  0  0
  4  5  1  0  0  0  0
  4 36  1  0  0  0  0
  4 37  1  0  0  0  0
  5  6  1  0  0  0  0
  5 38  1  0  0  0  0
  5 39  1  0  0  0  0
  6 29  1  0  0  0  0
  6  7  1  0  0  0  0
  6 64  1  0  0  0  0
  7  8  1  0  0  0  0
  7 40  1  0  0  0  0
  7 41  1  0  0  0  0
  8  9  1  0  0  0  0
  8 42  1  0  0  0  0
  8 43  1  0  0  0  0
  9 10  1  0  0  0  0
  9 44  1  0  0  0  0
  9 45  1  0  0  0  0
 10 11  1  0  0  0  0
 10 28  1  0  0  0  0
 11 16  1  0  0  0  0
 11 12  2  0  0  0  0
 12 13  1  0  0  0  0
 13 14  2  0  0  0  0
 13 46  1  0  0  0  0
 14 15  1  0  0  0  0
 15 19  1  0  0  0  0
 15 16  2  0  0  0  0
 16 17  1  0  0  0  0
 17 18  2  0  0  0  0
 18 19  1  0  0  0  0
 18 47  1  0  0  0  0
 19 20  1  0  0  0  0
 20 21  1  0  0  0  0
 20 48  1  0  0  0  0
 20 49  1  0  0  0  0
 21 22  1  0  0  0  0
 21 23  1  0  0  0  0
 21 50  1  0  0  0  0
 22 51  1  0  0  0  0
 23 27  1  0  0  0  0
 23 24  1  0  0  0  0
 23 52  1  0  0  0  0
 24 25  1  0  0  0  0
 24 53  1  0  0  0  0
 24 54  1  0  0  0  0
 25 26  1  0  0  0  0
 25 55  1  0  0  0  0
 25 56  1  0  0  0  0
 26 27  1  0  0  0  0
 26 57  1  0  0  0  0
 26 58  1  0  0  0  0
 28 29  1  0  0  0  0
 28 59  1  0  0  0  0
 28 60  1  0  0  0  0
 29 61  1  0  0  0  0
 29 62  1  0  0  0  0
M  CHG  1   2   1
M  CHG  1   6   1
M  END
> <s_m_source_file>
AV-unprocessed.smi

> <i_m_source_file_index>
155

> <i_lp_mmshare_version>
43012

> <i_f3d_flags>
0

> <s_epik_input>
W0NIM11OKFtDSDNdKVtDSDJdW0NIMl1OMVtDSDJdW0NIMl1bQ0gyXU4oW0NIMl1bQ0gyXTEpYyhuW2NIXW4yKWMoYzIzKW5bY0hdbjNbQ0gyXVtDQEhdKFtPSF0pW0NAQEhdNFtDSDJdW0NIMl1bQ0gyXU80

> <s_epik_cmdline>
J2VwaWtfcHl0aG9uJywgJy1waCcsICc3LjAnLCAnLXRuJywgJzgnLCAnLW1hJywgJzIwMCcsICctbWV0YWxfYmluZGluZycsICctaW1hZScsICc8aW5maWxlLm1hZT4nLCAnLW9tYWUnLCAnPG91dGZpbGUubWFlPic=

> <r_lp_tautomer_probability>
1

> <r_epik_Ionization_Penalty>
3.0333

> <r_epik_Ionization_Penalty_Charging>
3.03317

> <r_epik_Ionization_Penalty_Neutral>
0.000131872

> <r_epik_State_Penalty>
1.99939

> <r_epik_Charging_Adjusted_Penalty>
5.03256

> <i_epik_Tot_Q>
2

> <i_epik_Tot_abs_Q>
2

> <r_epik_Metal_State_Penalty>
2.00021

> <b_epik_Metal_Only>
0

> <s_lp_Force_Field>
OPLS_2005

> <r_lp_Energy>
62.7096

> <b_lp_Chiralities_Consistent>
1

> <s_lp_Variant>
AV-unprocessed.smi:155-13

> <Gold.Version>
5.8.1

> <Gold.Id.Protein>
6NUR|6NUR_protein|mol2

> <Gold.PLP.Fitness>
46.7279

> <Gold.PLP.PLP>
-40.9599

> <Gold.PLP.part.hbond>
-2.0000

> <Gold.PLP.part.metal>
0.0000

> <Gold.PLP.part.buried>
-3.9932

> <Gold.PLP.part.nonpolar>
-34.8156

> <Gold.PLP.part.repulsive>
0.9923

> <Gold.PLP.ligand.clash>
0.0000

> <Gold.PLP.ligand.torsion>
1.5118

> <Gold.PLP.Chemscore.Hbond>
2.8000

> <Gold.PLP.Chemscore.CHOScore>
0.0000

> <Gold.PLP.Chemscore.Metal>
0.0000

> <Gold.Chemscore.Hbonds>
donor molecule, donor type, donor heavy atom, donor atom, acceptor molecule, acceptor atom, score
      L1  H     6    64       P1  7948  1.78
      L1  H    22    51       P1  8028  0.88

> <Gold.PLP.Chemscore.Internal.Correction>
0.3916

> <Gold.Rescore>
     Score         DG    S(hbond)    S(metal)    S(lipo)     H(rot)  DE(clash)    DE(int)     intcor
     13.02     -16.76       1.73        0.00     107.06       2.75       1.57       2.17       ----

> <Gold.Chemscore.Fitness>
13.0180

> <Gold.Chemscore.DG>
-16.7557

> <Gold.Chemscore.ZeroCoef>
-5.4800

> <Gold.Chemscore.Hbond>
1.7330

> <Gold.Chemscore.Metal>
0.0000

> <Gold.Chemscore.Lipo>
107.0571

> <Gold.Chemscore.Internal_Hbond>
0.0000

> <Gold.Chemscore.DEClash>
1.5710

> <Gold.Chemscore.DEInternal>
2.1667

> <Gold.Chemscore.Rot>
2.7493

> <Gold.Chemscore.Internal.Correction>
   9.000000E+99

> <Gold.Chemscore.Hbonds>
donor molecule, donor type, donor heavy atom, donor atom, acceptor molecule, acceptor atom, score
      L1  H     6    64       P1  7948  0.77
      L1  H    22    51       P1  8028  0.87

> <Gold.Chemscore.Hbond.Weighted>
-5.7883

> <Gold.Chemscore.Metal.Weighted>
-0.0000

> <Gold.Chemscore.Lipo.Weighted>
-12.5257

> <Gold.Chemscore.Internal_Hbond.Weighted>
0.0000

> <Gold.Chemscore.DEClash.Weighted>
1.5710

> <Gold.Chemscore.DEInternal.Weighted>
2.1667

> <Gold.Chemscore.Rot.Weighted>
7.0383

> <Gold.Chemscore.Internal.Correction.Weighted>
   9.000000E+99

> <Gold.Protein.RotatedTorsions>
[ 6907 6896 6895 6894 ] final  -18.79 input  -60.11 | X-H torsion
[ 7974 7965 7964 7962 ] final -115.45 input  175.53 | X-H torsion
[ 8008 7997 7996 7995 ] final -114.80 input   59.86 | X-H torsion
[ 10167 10162 10161 10158 ] final  129.49 input  -65.29 | X-H torsion
[ 10718 10713 10712 10709 ] final -106.03 input   66.30 | X-H torsion
[ 10763 10752 10751 10750 ] final   59.58 input  -60.55 | X-H torsion
[ 11005 11000 10999 10996 ] final   12.11 input  -57.11 | X-H torsion

> <Gold.Protein.ActiveResidues>
 VAL166  LYS551  ARG553  GLY616  TRP617  ASP618  TYR619  PRO620  LYS621  CYS622 
 ASP623  PHE694  ASN695  SER759  ASP760  ASP761  ALA762  ILE779  LEU786  VAL792 
 PHE793  MET794  SER795  GLU796  ALA797  LYS798  CYS799  TRP800  GLU811  SER814 

> <Gold.Protein.RotatedAtoms>
  151.2729  135.0690  159.9140 H   0  0  0  0  0  0  0  0  0  0  0  0  # atno 6907 bound_to 6896
  152.5347  134.0112  159.7949 H   0  0  0  0  0  0  0  0  0  0  0  0  # atno 6908 bound_to 6896
  151.0353  133.5704  159.2687 H   0  0  0  0  0  0  0  0  0  0  0  0  # atno 6909 bound_to 6896
  145.1082  140.8595  143.3885 H   0  0  0  0  0  0  0  0  0  0  0  0  # atno 7974 bound_to 7965
  155.0420  140.0392  157.2513 H   0  0  0  0  0  0  0  0  0  0  0  0  # atno 8008 bound_to 7997
  154.7208  140.2711  155.6519 H   0  0  0  0  0  0  0  0  0  0  0  0  # atno 8009 bound_to 7997
  156.2816  140.2703  156.1879 H   0  0  0  0  0  0  0  0  0  0  0  0  # atno 8010 bound_to 7997
  139.5475  144.6786  151.4426 H   0  0  0  0  0  0  0  0  0  0  0  0  # atno 10167 bound_to 10162
  156.0372  130.5592  150.7622 H   0  0  0  0  0  0  0  0  0  0  0  0  # atno 10718 bound_to 10713
  152.9898  135.5566  154.5735 H   0  0  0  0  0  0  0  0  0  0  0  0  # atno 10763 bound_to 10752
  154.5131  135.2803  155.1328 H   0  0  0  0  0  0  0  0  0  0  0  0  # atno 10764 bound_to 10752
  154.2712  135.6363  153.5363 H   0  0  0  0  0  0  0  0  0  0  0  0  # atno 10765 bound_to 10752
  140.4957  134.0796  155.7781 H   0  0  0  0  0  0  0  0  0  0  0  0  # atno 11005 bound_to 11000
  145.0877  139.2913  143.5751 LP  0  0  0  0  0  0  0  0  0  0  0  0  # atno 17320 bound_to 7965
  146.3527  140.0404  142.8643 LP  0  0  0  0  0  0  0  0  0  0  0  0  # atno 17321 bound_to 7965
  140.6728  143.8256  150.7021 LP  0  0  0  0  0  0  0  0  0  0  0  0  # atno 17342 bound_to 10162
  140.1685  143.4214  152.2017 LP  0  0  0  0  0  0  0  0  0  0  0  0  # atno 17343 bound_to 10162
  157.5139  131.0927  151.0164 LP  0  0  0  0  0  0  0  0  0  0  0  0  # atno 17370 bound_to 10713
  157.0512  130.5788  149.5371 LP  0  0  0  0  0  0  0  0  0  0  0  0  # atno 17371 bound_to 10713
  141.1461  133.9052  157.2211 LP  0  0  0  0  0  0  0  0  0  0  0  0  # atno 17394 bound_to 11000
  139.9743  135.0119  156.9591 LP  0  0  0  0  0  0  0  0  0  0  0  0  # atno 17395 bound_to 11000

$$$$
