AV-unprocessed.smi:108|AV-procd|sdf|1029|dock10
  -GOLD-   2262018 33D 1   1.00000     0.00000
 Structure written by MMmdl.
 59 62  0  0  0  0  0  0  0  0  1 V2000
  151.9245  136.5165  160.2650 O   0  0  0  0  0  0  0  0  0  0  0  0
  151.5342  137.6768  160.1175 C   0  0  0  0  0  0  0  0  0  0  0  0
  150.0185  137.9532  160.0104 C   0  0  0  0  0  0  0  0  0  0  0  0
  149.1795  136.7982  160.3993 N   0  0  0  0  0  0  0  0  0  0  0  0
  149.0600  135.7133  159.4966 C   0  0  0  0  0  0  0  0  0  0  0  0
  149.6619  135.7059  158.4216 O   0  0  0  0  0  0  0  0  0  0  0  0
  148.1702  134.6398  159.9212 C   0  0  0  0  0  0  0  0  0  0  0  0
  147.9585  133.5905  159.1084 F   0  0  0  0  0  0  0  0  0  0  0  0
  147.5379  134.6907  161.1115 C   0  0  0  0  0  0  0  0  0  0  0  0
  147.7010  135.7319  162.0089 N   0  0  0  0  0  0  0  0  0  0  0  0
  146.8972  135.8171  163.2910 C   0  0  2  0  0  0  0  0  0  0  0  0
  147.7452  136.0335  164.5566 C   0  0  0  0  0  0  0  0  0  0  0  0
  147.7490  134.6530  165.1835 C   0  0  0  0  0  0  0  0  0  0  0  0
  146.3849  134.1223  164.7607 C   0  0  0  0  0  0  0  0  0  0  0  0
  146.2111  134.6088  163.4358 O   0  0  0  0  0  0  0  0  0  0  0  0
  148.4905  136.8437  161.6357 C   0  0  0  0  0  0  0  0  0  0  0  0
  148.5748  137.8334  162.3670 O   0  0  0  0  0  0  0  0  0  0  0  0
  152.3996  138.7186  160.0388 N   0  0  0  0  0  0  0  0  0  0  0  0
  151.9082  140.1007  159.9040 C   0  0  0  0  0  0  0  0  0  0  0  0
  152.9719  141.0654  159.3359 C   0  0  0  0  0  0  0  0  0  0  0  0
  152.5369  142.5213  159.3403 C   0  0  0  0  0  0  0  0  0  0  0  0
  152.4644  143.2363  160.5553 C   0  0  0  0  0  0  0  0  0  0  0  0
  152.0843  144.5921  160.5567 C   0  0  0  0  0  0  0  0  0  0  0  0
  151.7721  145.2370  159.3444 C   0  0  0  0  0  0  0  0  0  0  0  0
  151.8401  144.5256  158.1307 C   0  0  0  0  0  0  0  0  0  0  0  0
  152.2220  143.1698  158.1282 C   0  0  0  0  0  0  0  0  0  0  0  0
  153.8649  138.5697  160.0825 C   0  0  0  0  0  0  0  0  0  0  0  0
  154.4628  138.4484  161.4800 C   0  0  0  0  0  0  0  0  0  0  0  0
  155.3459  139.4227  162.0008 C   0  0  0  0  0  0  0  0  0  0  0  0
  155.8825  139.2765  163.2946 C   0  0  0  0  0  0  0  0  0  0  0  0
  155.5359  138.1611  164.0804 C   0  0  0  0  0  0  0  0  0  0  0  0
  154.6491  137.1930  163.5722 C   0  0  0  0  0  0  0  0  0  0  0  0
  154.1140  137.3380  162.2776 C   0  0  0  0  0  0  0  0  0  0  0  0
  149.7697  138.8252  160.6158 H   0  0  0  0  0  0  0  0  0  0  0  0
  149.7833  138.2570  158.9898 H   0  0  0  0  0  0  0  0  0  0  0  0
  146.8743  133.8750  161.3486 H   0  0  0  0  0  0  0  0  0  0  0  0
  146.2027  136.6479  163.1558 H   0  0  0  0  0  0  0  0  0  0  0  0
  148.7298  136.4550  164.3548 H   0  0  0  0  0  0  0  0  0  0  0  0
  147.2113  136.7289  165.2057 H   0  0  0  0  0  0  0  0  0  0  0  0
  148.5395  134.0345  164.7584 H   0  0  0  0  0  0  0  0  0  0  0  0
  147.8800  134.6754  166.2657 H   0  0  0  0  0  0  0  0  0  0  0  0
  146.3232  133.0345  164.8003 H   0  0  0  0  0  0  0  0  0  0  0  0
  145.6000  134.5333  165.3973 H   0  0  0  0  0  0  0  0  0  0  0  0
  151.0294  140.1226  159.2584 H   0  0  0  0  0  0  0  0  0  0  0  0
  151.5530  140.4682  160.8683 H   0  0  0  0  0  0  0  0  0  0  0  0
  153.8952  140.9689  159.9080 H   0  0  0  0  0  0  0  0  0  0  0  0
  153.2258  140.7778  158.3149 H   0  0  0  0  0  0  0  0  0  0  0  0
  152.7106  142.7503  161.4886 H   0  0  0  0  0  0  0  0  0  0  0  0
  152.0345  145.1370  161.4879 H   0  0  0  0  0  0  0  0  0  0  0  0
  151.4814  146.2771  159.3453 H   0  0  0  0  0  0  0  0  0  0  0  0
  151.6018  145.0207  157.2010 H   0  0  0  0  0  0  0  0  0  0  0  0
  152.2788  142.6307  157.1939 H   0  0  0  0  0  0  0  0  0  0  0  0
  154.1753  137.6888  159.5198 H   0  0  0  0  0  0  0  0  0  0  0  0
  154.3384  139.3981  159.5554 H   0  0  0  0  0  0  0  0  0  0  0  0
  155.6222  140.2877  161.4165 H   0  0  0  0  0  0  0  0  0  0  0  0
  156.5607  140.0213  163.6842 H   0  0  0  0  0  0  0  0  0  0  0  0
  155.9483  138.0496  165.0724 H   0  0  0  0  0  0  0  0  0  0  0  0
  154.3794  136.3386  164.1751 H   0  0  0  0  0  0  0  0  0  0  0  0
  153.4347  136.5898  161.8959 H   0  0  0  0  0  0  0  0  0  0  0  0
  1  2  2  0  0  0  0
  2  3  1  0  0  0  0
  2 18  1  0  0  0  0
  3  4  1  0  0  0  0
  3 34  1  0  0  0  0
  3 35  1  0  0  0  0
  4 16  1  0  0  0  0
  4  5  1  0  0  0  0
  5  6  2  0  0  0  0
  5  7  1  0  0  0  0
  7  8  1  0  0  0  0
  7  9  2  0  0  0  0
  9 10  1  0  0  0  0
  9 36  1  0  0  0  0
 10 11  1  0  0  0  0
 10 16  1  0  0  0  0
 11 15  1  0  0  0  0
 11 12  1  0  0  0  0
 11 37  1  0  0  0  0
 12 13  1  0  0  0  0
 12 38  1  0  0  0  0
 12 39  1  0  0  0  0
 13 14  1  0  0  0  0
 13 40  1  0  0  0  0
 13 41  1  0  0  0  0
 14 15  1  0  0  0  0
 14 42  1  0  0  0  0
 14 43  1  0  0  0  0
 16 17  2  0  0  0  0
 18 19  1  0  0  0  0
 18 27  1  0  0  0  0
 19 20  1  0  0  0  0
 19 44  1  0  0  0  0
 19 45  1  0  0  0  0
 20 21  1  0  0  0  0
 20 46  1  0  0  0  0
 20 47  1  0  0  0  0
 21 26  1  0  0  0  0
 21 22  2  0  0  0  0
 22 23  1  0  0  0  0
 22 48  1  0  0  0  0
 23 24  2  0  0  0  0
 23 49  1  0  0  0  0
 24 25  1  0  0  0  0
 24 50  1  0  0  0  0
 25 26  2  0  0  0  0
 25 51  1  0  0  0  0
 26 52  1  0  0  0  0
 27 28  1  0  0  0  0
 27 53  1  0  0  0  0
 27 54  1  0  0  0  0
 28 33  1  0  0  0  0
 28 29  2  0  0  0  0
 29 30  1  0  0  0  0
 29 55  1  0  0  0  0
 30 31  2  0  0  0  0
 30 56  1  0  0  0  0
 31 32  1  0  0  0  0
 31 57  1  0  0  0  0
 32 33  2  0  0  0  0
 32 58  1  0  0  0  0
 33 59  1  0  0  0  0
M  END
> <s_m_source_file>
AV-unprocessed.smi

> <i_m_source_file_index>
108

> <i_lp_mmshare_version>
43012

> <i_f3d_flags>
0

> <s_epik_input>
W2NIXTFbY0hdW2NIXVtjSF1bY0hdYzFbQ0gyXVtDSDJdTihbQ0gyXWMyW2NIXVtjSF1bY0hdW2NIXVtjSF0yKUMoPU8pW0NIMl1uM2MoPU8pYyhGKVtjSF1uKGMzPU8pW0NAQEhdNFtDSDJdW0NIMl1bQ0gyXU80

> <s_epik_cmdline>
J2VwaWtfcHl0aG9uJywgJy1waCcsICc3LjAnLCAnLXRuJywgJzgnLCAnLW1hJywgJzIwMCcsICctbWV0YWxfYmluZGluZycsICctaW1hZScsICc8aW5maWxlLm1hZT4nLCAnLW9tYWUnLCAnPG91dGZpbGUubWFlPic=

> <r_lp_tautomer_probability>
1

> <r_epik_Ionization_Penalty>
5.46209e-09

> <r_epik_Ionization_Penalty_Charging>
4.22697e-09

> <r_epik_Ionization_Penalty_Neutral>
1.23512e-09

> <r_epik_State_Penalty>
-0

> <r_epik_Charging_Adjusted_Penalty>
4.22697e-09

> <i_epik_Tot_Q>
0

> <i_epik_Tot_abs_Q>
0

> <r_epik_Metal_State_Penalty>
-0

> <b_epik_Metal_Only>
0

> <s_epik_Chemistry_Notes>
This compound contains an acetal/aminal-like group ( X-CH(R)-Y where X, Y are N, S, or O) that may be acid/base labile, releasing an aldehyde.

> <s_lp_Force_Field>
OPLS_2005

> <r_lp_Energy>
39.1501

> <b_lp_Chiralities_Consistent>
1

> <s_lp_Variant>
AV-unprocessed.smi:108-1

> <Gold.Version>
5.8.1

> <Gold.Id.Protein>
6NUR|6NUR_protein|mol2

> <Gold.PLP.Fitness>
70.9320

> <Gold.PLP.PLP>
-66.9542

> <Gold.PLP.part.hbond>
-2.3953

> <Gold.PLP.part.metal>
0.0000

> <Gold.PLP.part.buried>
-5.4630

> <Gold.PLP.part.nonpolar>
-59.5891

> <Gold.PLP.part.repulsive>
0.0000

> <Gold.PLP.ligand.clash>
0.0000

> <Gold.PLP.ligand.torsion>
1.1632

> <Gold.PLP.Chemscore.Hbond>
2.0251

> <Gold.PLP.Chemscore.CHOScore>
0.0000

> <Gold.PLP.Chemscore.Metal>
0.0000

> <Gold.Chemscore.Hbonds>
donor molecule, donor type, donor heavy atom, donor atom, acceptor molecule, acceptor atom, score
      P1  H  6896  6907       L1     6  0.04
      P1  H  6896  6908       L1     1  0.70
      P1  H  6934  6947       L1    17  0.01

> <Gold.PLP.Chemscore.Internal.Correction>
0.2288

> <Gold.Rescore>
     Score         DG    S(hbond)    S(metal)    S(lipo)     H(rot)  DE(clash)    DE(int)     intcor
     20.96     -22.67       1.01        0.00     167.81       2.28       0.00       1.71       ----

> <Gold.Chemscore.Fitness>
20.9573

> <Gold.Chemscore.DG>
-22.6731

> <Gold.Chemscore.ZeroCoef>
-5.4800

> <Gold.Chemscore.Hbond>
1.0135

> <Gold.Chemscore.Metal>
0.0000

> <Gold.Chemscore.Lipo>
167.8076

> <Gold.Chemscore.Internal_Hbond>
0.0000

> <Gold.Chemscore.DEClash>
0.0018

> <Gold.Chemscore.DEInternal>
1.7140

> <Gold.Chemscore.Rot>
2.2756

> <Gold.Chemscore.Internal.Correction>
   9.000000E+99

> <Gold.Chemscore.Hbonds>
donor molecule, donor type, donor heavy atom, donor atom, acceptor molecule, acceptor atom, score
      P1  H  6896  6908       L1     1  0.69

> <Gold.Chemscore.Hbond.Weighted>
-3.3851

> <Gold.Chemscore.Metal.Weighted>
-0.0000

> <Gold.Chemscore.Lipo.Weighted>
-19.6335

> <Gold.Chemscore.Internal_Hbond.Weighted>
0.0000

> <Gold.Chemscore.DEClash.Weighted>
0.0018

> <Gold.Chemscore.DEInternal.Weighted>
1.7140

> <Gold.Chemscore.Rot.Weighted>
5.8255

> <Gold.Chemscore.Internal.Correction.Weighted>
   9.000000E+99

> <Gold.Protein.RotatedTorsions>
[ 6907 6896 6895 6894 ] final -103.12 input  -60.11 | X-H torsion
[ 7974 7965 7964 7962 ] final  100.76 input  175.53 | X-H torsion
[ 8008 7997 7996 7995 ] final -135.88 input   59.86 | X-H torsion
[ 10167 10162 10161 10158 ] final  -64.59 input  -65.29 | X-H torsion
[ 10718 10713 10712 10709 ] final   94.69 input   66.30 | X-H torsion
[ 10763 10752 10751 10750 ] final   78.50 input  -60.55 | X-H torsion
[ 11005 11000 10999 10996 ] final  -15.33 input  -57.11 | X-H torsion

> <Gold.Protein.ActiveResidues>
 VAL166  LYS551  ARG553  GLY616  TRP617  ASP618  TYR619  PRO620  LYS621  CYS622 
 ASP623  PHE694  ASN695  SER759  ASP760  ASP761  ALA762  ILE779  LEU786  VAL792 
 PHE793  MET794  SER795  GLU796  ALA797  LYS798  CYS799  TRP800  GLU811  SER814 

> <Gold.Protein.RotatedAtoms>
  150.7226  134.0478  159.3787 H   0  0  0  0  0  0  0  0  0  0  0  0  # atno 6907 bound_to 6896
  151.8454  135.0574  160.0462 H   0  0  0  0  0  0  0  0  0  0  0  0  # atno 6908 bound_to 6896
  152.2831  133.5453  159.5546 H   0  0  0  0  0  0  0  0  0  0  0  0  # atno 6909 bound_to 6896
  145.3813  139.2379  143.3402 H   0  0  0  0  0  0  0  0  0  0  0  0  # atno 7974 bound_to 7965
  155.3860  140.0497  157.3042 H   0  0  0  0  0  0  0  0  0  0  0  0  # atno 8008 bound_to 7997
  154.5059  140.2174  155.9213 H   0  0  0  0  0  0  0  0  0  0  0  0  # atno 8009 bound_to 7997
  156.1525  140.3133  155.8677 H   0  0  0  0  0  0  0  0  0  0  0  0  # atno 8010 bound_to 7997
  140.5790  143.2325  151.6382 H   0  0  0  0  0  0  0  0  0  0  0  0  # atno 10167 bound_to 10162
  157.6946  131.0521  150.4225 H   0  0  0  0  0  0  0  0  0  0  0  0  # atno 10718 bound_to 10713
  153.0879  135.4875  154.8632 H   0  0  0  0  0  0  0  0  0  0  0  0  # atno 10763 bound_to 10752
  154.7233  135.3044  154.9014 H   0  0  0  0  0  0  0  0  0  0  0  0  # atno 10764 bound_to 10752
  153.9672  135.6805  153.4799 H   0  0  0  0  0  0  0  0  0  0  0  0  # atno 10765 bound_to 10752
  140.7955  133.8254  155.9420 H   0  0  0  0  0  0  0  0  0  0  0  0  # atno 11005 bound_to 11000
  146.2840  140.4481  142.8765 LP  0  0  0  0  0  0  0  0  0  0  0  0  # atno 17320 bound_to 7965
  144.8505  140.6994  143.6171 LP  0  0  0  0  0  0  0  0  0  0  0  0  # atno 17321 bound_to 7965
  139.5159  144.3364  152.0780 LP  0  0  0  0  0  0  0  0  0  0  0  0  # atno 17342 bound_to 10162
  140.2511  144.4167  150.6221 LP  0  0  0  0  0  0  0  0  0  0  0  0  # atno 17343 bound_to 10162
  156.4599  130.4029  149.6583 LP  0  0  0  0  0  0  0  0  0  0  0  0  # atno 17370 bound_to 10713
  156.3702  130.7526  151.2508 LP  0  0  0  0  0  0  0  0  0  0  0  0  # atno 17371 bound_to 10713
  140.9347  134.1977  157.4840 LP  0  0  0  0  0  0  0  0  0  0  0  0  # atno 17394 bound_to 11000
  139.8727  134.9847  156.5251 LP  0  0  0  0  0  0  0  0  0  0  0  0  # atno 17395 bound_to 11000

$$$$
