AV-unprocessed.smi:1734|AV-procd|sdf|6980|dock8
  -GOLD-   22720 8193D 1   1.00000     0.00000
 Structure written by MMmdl.
 50 52  0  0  0  0  0  0  0  0  1 V2000
  147.1317  132.2941  153.0381 C   0  0  0  0  0  0  0  0  0  0  0  0
  146.0434  132.6275  152.0305 C   0  0  0  0  0  0  0  0  0  0  0  0
  145.2999  131.5801  151.4460 C   0  0  0  0  0  0  0  0  0  0  0  0
  144.2958  131.8893  150.5128 C   0  0  0  0  0  0  0  0  0  0  0  0
  144.0763  133.2421  150.2014 C   0  0  0  0  0  0  0  0  0  0  0  0
  144.7815  134.2493  150.7552 N   0  0  0  0  0  0  0  0  0  0  0  0
  145.7542  133.9681  151.6584 C   0  0  0  0  0  0  0  0  0  0  0  0
  146.5351  134.9799  152.2856 N   0  0  0  0  0  0  0  0  0  0  0  0
  146.2750  135.6549  153.4192 C   0  0  0  0  0  0  0  0  0  0  0  0
  145.2703  135.5182  154.1180 O   0  0  0  0  0  0  0  0  0  0  0  0
  147.2590  136.5194  153.7052 N   0  0  0  0  0  0  0  0  0  0  0  0
  147.2794  137.4070  154.8639 C   0  0  0  0  0  0  0  0  0  0  0  0
  148.3735  137.0216  155.9005 C   0  0  2  0  0  0  0  0  0  0  0  0
  147.7867  136.7358  157.3187 C   0  0  2  0  0  0  0  0  0  0  0  0
  147.7225  137.9157  158.2929 C   0  0  0  0  0  0  0  0  0  0  0  0
  148.1312  137.3018  159.6278 C   0  0  0  0  0  0  0  0  0  0  0  0
  149.0418  136.2834  159.2512 O   0  0  0  0  0  0  0  0  0  0  0  0
  148.4844  135.6236  158.1239 C   0  0  0  0  0  0  0  0  0  0  0  0
  149.5778  137.8767  155.8794 N   0  0  0  0  0  0  0  0  0  0  0  0
  150.3877  137.7048  154.6753 C   0  0  0  0  0  0  0  0  0  0  0  0
  151.7042  138.4938  154.7569 C   0  0  0  0  0  0  0  0  0  0  0  0
  151.4139  139.8702  154.9757 O   0  0  0  0  0  0  0  0  0  0  0  0
  150.6718  140.0892  156.1708 C   0  0  0  0  0  0  0  0  0  0  0  0
  149.3516  139.2994  156.1255 C   0  0  0  0  0  0  0  0  0  0  0  0
  147.1839  131.2211  153.2254 H   0  0  0  0  0  0  0  0  0  0  0  0
  146.9394  132.7901  153.9897 H   0  0  0  0  0  0  0  0  0  0  0  0
  148.1048  132.6175  152.6673 H   0  0  0  0  0  0  0  0  0  0  0  0
  145.4941  130.5502  151.7078 H   0  0  0  0  0  0  0  0  0  0  0  0
  143.7094  131.1106  150.0481 H   0  0  0  0  0  0  0  0  0  0  0  0
  143.3143  133.5240  149.4900 H   0  0  0  0  0  0  0  0  0  0  0  0
  147.3993  135.2086  151.8176 H   0  0  0  0  0  0  0  0  0  0  0  0
  148.0496  136.5692  153.0796 H   0  0  0  0  0  0  0  0  0  0  0  0
  147.4137  138.4278  154.5065 H   0  0  0  0  0  0  0  0  0  0  0  0
  146.2892  137.3793  155.3170 H   0  0  0  0  0  0  0  0  0  0  0  0
  148.7294  136.0407  155.5823 H   0  0  0  0  0  0  0  0  0  0  0  0
  146.7597  136.3993  157.1686 H   0  0  0  0  0  0  0  0  0  0  0  0
  148.4176  138.7082  158.0236 H   0  0  0  0  0  0  0  0  0  0  0  0
  146.7299  138.3645  158.3384 H   0  0  0  0  0  0  0  0  0  0  0  0
  148.5901  138.0252  160.3020 H   0  0  0  0  0  0  0  0  0  0  0  0
  147.2721  136.8562  160.1321 H   0  0  0  0  0  0  0  0  0  0  0  0
  147.7523  134.8934  158.4725 H   0  0  0  0  0  0  0  0  0  0  0  0
  149.2470  135.0766  157.5703 H   0  0  0  0  0  0  0  0  0  0  0  0
  150.6090  136.6481  154.5218 H   0  0  0  0  0  0  0  0  0  0  0  0
  149.8389  138.0438  153.7969 H   0  0  0  0  0  0  0  0  0  0  0  0
  152.3359  138.1127  155.5608 H   0  0  0  0  0  0  0  0  0  0  0  0
  152.2667  138.3906  153.8290 H   0  0  0  0  0  0  0  0  0  0  0  0
  151.2681  139.7898  157.0344 H   0  0  0  0  0  0  0  0  0  0  0  0
  150.4710  141.1554  156.2760 H   0  0  0  0  0  0  0  0  0  0  0  0
  148.7072  139.7174  155.3517 H   0  0  0  0  0  0  0  0  0  0  0  0
  148.8497  139.4448  157.0790 H   0  0  0  0  0  0  0  0  0  0  0  0
  1  2  1  0  0  0  0
  1 25  1  0  0  0  0
  1 26  1  0  0  0  0
  1 27  1  0  0  0  0
  2  7  1  0  0  0  0
  2  3  2  0  0  0  0
  3  4  1  0  0  0  0
  3 28  1  0  0  0  0
  4  5  2  0  0  0  0
  4 29  1  0  0  0  0
  5  6  1  0  0  0  0
  5 30  1  0  0  0  0
  6  7  2  0  0  0  0
  7  8  1  0  0  0  0
  8  9  1  0  0  0  0
  8 31  1  0  0  0  0
  9 10  2  0  0  0  0
  9 11  1  0  0  0  0
 11 12  1  0  0  0  0
 11 32  1  0  0  0  0
 12 13  1  0  0  0  0
 12 33  1  0  0  0  0
 12 34  1  0  0  0  0
 13 14  1  0  0  0  0
 13 19  1  0  0  0  0
 13 35  1  0  0  0  0
 14 18  1  0  0  0  0
 14 15  1  0  0  0  0
 14 36  1  0  0  0  0
 15 16  1  0  0  0  0
 15 37  1  0  0  0  0
 15 38  1  0  0  0  0
 16 17  1  0  0  0  0
 16 39  1  0  0  0  0
 16 40  1  0  0  0  0
 17 18  1  0  0  0  0
 18 41  1  0  0  0  0
 18 42  1  0  0  0  0
 19 24  1  0  0  0  0
 19 20  1  0  0  0  0
 20 21  1  0  0  0  0
 20 43  1  0  0  0  0
 20 44  1  0  0  0  0
 21 22  1  0  0  0  0
 21 45  1  0  0  0  0
 21 46  1  0  0  0  0
 22 23  1  0  0  0  0
 23 24  1  0  0  0  0
 23 47  1  0  0  0  0
 23 48  1  0  0  0  0
 24 49  1  0  0  0  0
 24 50  1  0  0  0  0
M  END
> <s_m_source_file>
AV-unprocessed.smi

> <i_m_source_file_index>
1734

> <i_lp_mmshare_version>
43012

> <i_f3d_flags>
0

> <s_epik_input>
W0NIM11jMVtjSF1bY0hdW2NIXW5jMVtOSF1DKD1PKVtOSF1bQ0gyXVtDQEhdKFtDQEBIXTJbQ0gyXVtDSDJdT1tDSDJdMilOM1tDSDJdW0NIMl1PW0NIMl1bQ0gyXTM=

> <s_epik_cmdline>
J2VwaWtfcHl0aG9uJywgJy1waCcsICc3LjAnLCAnLXRuJywgJzgnLCAnLW1hJywgJzIwMCcsICctbWV0YWxfYmluZGluZycsICctaW1hZScsICc8aW5maWxlLm1hZT4nLCAnLW9tYWUnLCAnPG91dGZpbGUubWFlPic=

> <r_epik_Ionization_Penalty>
0.125073

> <r_epik_Ionization_Penalty_Charging>
0

> <r_epik_Ionization_Penalty_Neutral>
0.125073

> <r_epik_State_Penalty>
0.114484

> <r_epik_Charging_Adjusted_Penalty>
0.114484

> <i_epik_Tot_Q>
0

> <i_epik_Tot_abs_Q>
0

> <r_epik_Metal_State_Penalty>
0.114483

> <b_epik_Metal_Only>
0

> <s_lp_Force_Field>
OPLS_2005

> <r_lp_Energy>
56.0061

> <b_lp_Chiralities_Consistent>
1

> <s_lp_Variant>
AV-unprocessed.smi:1734-1

> <Gold.Version>
5.8.1

> <Gold.Id.Protein>
6NUR|6NUR_protein|mol2

> <Gold.PLP.Fitness>
42.6279

> <Gold.PLP.PLP>
-31.9200

> <Gold.PLP.part.hbond>
-3.9543

> <Gold.PLP.part.metal>
0.0000

> <Gold.PLP.part.buried>
-6.1344

> <Gold.PLP.part.nonpolar>
-23.1708

> <Gold.PLP.part.repulsive>
0.3007

> <Gold.PLP.ligand.clash>
0.0000

> <Gold.PLP.ligand.torsion>
2.2752

> <Gold.PLP.Chemscore.Hbond>
3.9760

> <Gold.PLP.Chemscore.CHOScore>
1.0000

> <Gold.PLP.Chemscore.Metal>
0.0000

> <Gold.Chemscore.Hbonds>
donor molecule, donor type, donor heavy atom, donor atom, acceptor molecule, acceptor atom, score
      L1  H     8    31       P1  7948  0.96
      L1  H    11    32       P1  7948  1.00
      P1  H  6896  6908       L1    17  0.22
      P1  H  7989  7998       L1    22  1.00
      L1  C     5    30       P1 10186  1.00

> <Gold.PLP.Chemscore.Internal.Correction>
0.3303

> <Gold.Rescore>
     Score         DG    S(hbond)    S(metal)    S(lipo)     H(rot)  DE(clash)    DE(int)     intcor
     19.79     -22.97       3.87        0.00      75.18       1.65       0.18       3.00       ----

> <Gold.Chemscore.Fitness>
19.7870

> <Gold.Chemscore.DG>
-22.9674

> <Gold.Chemscore.ZeroCoef>
-5.4800

> <Gold.Chemscore.Hbond>
3.8653

> <Gold.Chemscore.Metal>
0.0000

> <Gold.Chemscore.Lipo>
75.1797

> <Gold.Chemscore.Internal_Hbond>
0.0000

> <Gold.Chemscore.DEClash>
0.1849

> <Gold.Chemscore.DEInternal>
2.9955

> <Gold.Chemscore.Rot>
1.6480

> <Gold.Chemscore.Internal.Correction>
   9.000000E+99

> <Gold.Chemscore.Hbonds>
donor molecule, donor type, donor heavy atom, donor atom, acceptor molecule, acceptor atom, score
      L1  H     8    31       P1  7948  0.88
      L1  H    11    32       P1  7948  0.95
      P1  H  6896  6908       L1    17  0.04
      P1  H  7989  7998       L1    22  0.85

> <Gold.Chemscore.Hbond.Weighted>
-12.9102

> <Gold.Chemscore.Metal.Weighted>
-0.0000

> <Gold.Chemscore.Lipo.Weighted>
-8.7960

> <Gold.Chemscore.Internal_Hbond.Weighted>
0.0000

> <Gold.Chemscore.DEClash.Weighted>
0.1849

> <Gold.Chemscore.DEInternal.Weighted>
2.9955

> <Gold.Chemscore.Rot.Weighted>
4.2188

> <Gold.Chemscore.Internal.Correction.Weighted>
   9.000000E+99

> <Gold.Protein.RotatedTorsions>
[ 6907 6896 6895 6894 ] final -177.51 input  -60.11 | X-H torsion
[ 7974 7965 7964 7962 ] final  -43.07 input  175.53 | X-H torsion
[ 8008 7997 7996 7995 ] final  101.76 input   59.86 | X-H torsion
[ 10167 10162 10161 10158 ] final  -33.19 input  -65.29 | X-H torsion
[ 10718 10713 10712 10709 ] final -155.94 input   66.30 | X-H torsion
[ 10763 10752 10751 10750 ] final  144.59 input  -60.55 | X-H torsion
[ 11005 11000 10999 10996 ] final  162.43 input  -57.11 | X-H torsion

> <Gold.Protein.ActiveResidues>
 VAL166  LYS551  ARG553  GLY616  TRP617  ASP618  TYR619  PRO620  LYS621  CYS622 
 ASP623  PHE694  ASN695  SER759  ASP760  ASP761  ALA762  ILE779  LEU786  VAL792 
 PHE793  MET794  SER795  GLU796  ALA797  LYS798  CYS799  TRP800  GLU811  SER814 

> <Gold.Protein.RotatedAtoms>
  151.6221  133.3338  159.3090 H   0  0  0  0  0  0  0  0  0  0  0  0  # atno 6907 bound_to 6896
  150.8100  134.7253  159.6691 H   0  0  0  0  0  0  0  0  0  0  0  0  # atno 6908 bound_to 6896
  152.4197  134.5983  160.0044 H   0  0  0  0  0  0  0  0  0  0  0  0  # atno 6909 bound_to 6896
  146.0055  140.7025  142.9250 H   0  0  0  0  0  0  0  0  0  0  0  0  # atno 7974 bound_to 7965
  156.1329  140.3192  155.8377 H   0  0  0  0  0  0  0  0  0  0  0  0  # atno 8008 bound_to 7997
  155.4298  140.0518  157.3036 H   0  0  0  0  0  0  0  0  0  0  0  0  # atno 8009 bound_to 7997
  154.4914  140.2093  155.9553 H   0  0  0  0  0  0  0  0  0  0  0  0  # atno 8010 bound_to 7997
  140.7209  143.3639  151.1909 H   0  0  0  0  0  0  0  0  0  0  0  0  # atno 10167 bound_to 10162
  156.5197  130.8472  151.2677 H   0  0  0  0  0  0  0  0  0  0  0  0  # atno 10718 bound_to 10713
  153.9914  135.2932  155.3411 H   0  0  0  0  0  0  0  0  0  0  0  0  # atno 10763 bound_to 10752
  154.7212  135.5108  153.8819 H   0  0  0  0  0  0  0  0  0  0  0  0  # atno 10764 bound_to 10752
  153.0808  135.6678  154.0166 H   0  0  0  0  0  0  0  0  0  0  0  0  # atno 10765 bound_to 10752
  140.2256  134.8163  157.3265 H   0  0  0  0  0  0  0  0  0  0  0  0  # atno 11005 bound_to 11000
  144.6934  140.3307  143.7216 LP  0  0  0  0  0  0  0  0  0  0  0  0  # atno 17320 bound_to 7965
  145.7422  139.1768  143.2369 LP  0  0  0  0  0  0  0  0  0  0  0  0  # atno 17321 bound_to 7965
  139.7196  143.9244  152.2980 LP  0  0  0  0  0  0  0  0  0  0  0  0  # atno 17342 bound_to 10162
  139.8996  144.6919  150.8679 LP  0  0  0  0  0  0  0  0  0  0  0  0  # atno 17343 bound_to 10162
  157.7438  130.9921  150.2626 LP  0  0  0  0  0  0  0  0  0  0  0  0  # atno 17370 bound_to 10713
  156.3161  130.3779  149.7617 LP  0  0  0  0  0  0  0  0  0  0  0  0  # atno 17371 bound_to 10713
  140.1803  134.4497  155.7776 LP  0  0  0  0  0  0  0  0  0  0  0  0  # atno 17394 bound_to 11000
  141.2221  133.6981  156.7858 LP  0  0  0  0  0  0  0  0  0  0  0  0  # atno 17395 bound_to 11000

$$$$
