AV-unprocessed.smi:676|AV-procd|sdf|3309|dock3
  -GOLD-   22720 0273D 1   1.00000     0.00000
 Structure written by MMmdl.
 42 43  0  0  0  0  0  0  0  0  1 V2000
  145.7500  137.7583  155.8911 C   0  0  0  0  0  0  0  0  0  0  0  0
  146.2336  138.6817  154.9235 O   0  0  0  0  0  0  0  0  0  0  0  0
  146.2582  140.0680  155.2907 C   0  0  1  0  0  0  0  0  0  0  0  0
  144.8416  140.5681  155.6004 C   0  0  0  0  0  0  0  0  0  0  0  0
  147.3906  140.3303  156.3023 C   0  0  0  0  0  0  0  0  0  0  0  0
  148.3367  140.4220  155.1068 C   0  0  2  0  0  0  0  0  0  0  0  0
  149.3599  141.4482  155.2754 N   0  0  0  0  0  0  0  0  0  0  0  0
  150.0041  141.6933  156.4252 C   0  0  0  0  0  0  0  0  0  0  0  0
  149.7966  141.0593  157.4608 O   0  0  0  0  0  0  0  0  0  0  0  0
  151.0561  142.8105  156.3802 C   0  0  0  0  0  0  0  0  0  0  0  0
  151.5024  143.2472  157.7136 N   0  0  0  0  0  0  0  0  0  0  0  0
  151.3308  144.6089  158.0332 C   0  0  0  0  0  0  0  0  0  0  0  0
  151.7058  145.1122  159.2197 C   0  0  0  0  0  0  0  0  0  0  0  0
  152.3002  144.2170  160.1839 C   0  0  0  0  0  0  0  0  0  0  0  0
  152.4723  142.9136  159.8870 C   0  0  0  0  0  0  0  0  0  0  0  0
  152.0658  142.3594  158.5903 C   0  0  0  0  0  0  0  0  0  0  0  0
  152.2215  141.1707  158.3099 O   0  0  0  0  0  0  0  0  0  0  0  0
  147.1212  140.8421  154.2404 C   0  0  0  0  0  0  0  0  0  0  0  0
  147.1021  140.3026  152.8060 C   0  0  0  0  0  0  0  0  0  0  0  0
  146.8444  142.3529  154.1220 C   0  0  0  0  0  0  0  0  0  0  0  0
  145.9409  136.7443  155.5406 H   0  0  0  0  0  0  0  0  0  0  0  0
  144.6735  137.8516  156.0321 H   0  0  0  0  0  0  0  0  0  0  0  0
  146.2411  137.8712  156.8570 H   0  0  0  0  0  0  0  0  0  0  0  0
  144.8223  141.6413  155.7866 H   0  0  0  0  0  0  0  0  0  0  0  0
  144.4294  140.1003  156.4940 H   0  0  0  0  0  0  0  0  0  0  0  0
  144.1617  140.3676  154.7722 H   0  0  0  0  0  0  0  0  0  0  0  0
  147.2698  141.2736  156.8378 H   0  0  0  0  0  0  0  0  0  0  0  0
  147.6189  139.5177  156.9908 H   0  0  0  0  0  0  0  0  0  0  0  0
  148.7351  139.4417  154.8340 H   0  0  0  0  0  0  0  0  0  0  0  0
  149.5896  142.0079  154.4671 H   0  0  0  0  0  0  0  0  0  0  0  0
  151.9028  142.4541  155.7921 H   0  0  0  0  0  0  0  0  0  0  0  0
  150.6583  143.6598  155.8215 H   0  0  0  0  0  0  0  0  0  0  0  0
  150.8860  145.2123  157.2552 H   0  0  0  0  0  0  0  0  0  0  0  0
  151.5706  146.1598  159.4456 H   0  0  0  0  0  0  0  0  0  0  0  0
  152.6094  144.5944  161.1475 H   0  0  0  0  0  0  0  0  0  0  0  0
  152.9198  142.2590  160.6203 H   0  0  0  0  0  0  0  0  0  0  0  0
  147.7870  140.8537  152.1605 H   0  0  0  0  0  0  0  0  0  0  0  0
  146.1063  140.3726  152.3675 H   0  0  0  0  0  0  0  0  0  0  0  0
  147.4050  139.2565  152.7587 H   0  0  0  0  0  0  0  0  0  0  0  0
  147.5936  142.8529  153.5072 H   0  0  0  0  0  0  0  0  0  0  0  0
  146.8468  142.8502  155.0920 H   0  0  0  0  0  0  0  0  0  0  0  0
  145.8736  142.5462  153.6644 H   0  0  0  0  0  0  0  0  0  0  0  0
  1  2  1  0  0  0  0
  1 21  1  0  0  0  0
  1 22  1  0  0  0  0
  1 23  1  0  0  0  0
  2  3  1  0  0  0  0
  3 18  1  0  0  0  0
  3  4  1  0  0  0  0
  3  5  1  0  0  0  0
  4 24  1  0  0  0  0
  4 25  1  0  0  0  0
  4 26  1  0  0  0  0
  5  6  1  0  0  0  0
  5 27  1  0  0  0  0
  5 28  1  0  0  0  0
  6  7  1  0  0  0  0
  6 18  1  0  0  0  0
  6 29  1  0  0  0  0
  7  8  1  0  0  0  0
  7 30  1  0  0  0  0
  8  9  2  0  0  0  0
  8 10  1  0  0  0  0
 10 11  1  0  0  0  0
 10 31  1  0  0  0  0
 10 32  1  0  0  0  0
 11 16  1  0  0  0  0
 11 12  1  0  0  0  0
 12 13  2  0  0  0  0
 12 33  1  0  0  0  0
 13 14  1  0  0  0  0
 13 34  1  0  0  0  0
 14 15  2  0  0  0  0
 14 35  1  0  0  0  0
 15 16  1  0  0  0  0
 15 36  1  0  0  0  0
 16 17  2  0  0  0  0
 18 19  1  0  0  0  0
 18 20  1  0  0  0  0
 19 37  1  0  0  0  0
 19 38  1  0  0  0  0
 19 39  1  0  0  0  0
 20 40  1  0  0  0  0
 20 41  1  0  0  0  0
 20 42  1  0  0  0  0
M  END
> <s_m_source_file>
AV-unprocessed.smi

> <i_m_source_file_index>
676

> <i_lp_mmshare_version>
43012

> <i_f3d_flags>
0

> <s_epik_input>
W0NIM11PW0NAQF0xKFtDSDNdKVtDSDJdW0NASF0oQzEoW0NIM10pW0NIM10pW05IXUMoPU8pW0NIMl1uMltjSF1bY0hdW2NIXVtjSF1jMj1P

> <s_epik_cmdline>
J2VwaWtfcHl0aG9uJywgJy1waCcsICc3LjAnLCAnLXRuJywgJzgnLCAnLW1hJywgJzIwMCcsICctbWV0YWxfYmluZGluZycsICctaW1hZScsICc8aW5maWxlLm1hZT4nLCAnLW9tYWUnLCAnPG91dGZpbGUubWFlPic=

> <r_lp_tautomer_probability>
1

> <r_epik_Ionization_Penalty>
4.09771e-07

> <r_epik_Ionization_Penalty_Charging>
3.90712e-07

> <r_epik_Ionization_Penalty_Neutral>
1.90591e-08

> <r_epik_State_Penalty>
-0

> <r_epik_Charging_Adjusted_Penalty>
3.90712e-07

> <i_epik_Tot_Q>
0

> <i_epik_Tot_abs_Q>
0

> <r_epik_Metal_State_Penalty>
-0

> <b_epik_Metal_Only>
0

> <s_lp_Force_Field>
OPLS_2005

> <r_lp_Energy>
31.664

> <b_lp_Chiralities_Consistent>
1

> <s_lp_Variant>
AV-unprocessed.smi:676-3

> <Gold.Version>
5.8.1

> <Gold.Id.Protein>
6NUR|6NUR_protein|mol2

> <Gold.PLP.Fitness>
35.5548

> <Gold.PLP.PLP>
-33.2403

> <Gold.PLP.part.hbond>
-0.0426

> <Gold.PLP.part.metal>
0.0000

> <Gold.PLP.part.buried>
-2.3639

> <Gold.PLP.part.nonpolar>
-30.6014

> <Gold.PLP.part.repulsive>
0.2524

> <Gold.PLP.ligand.clash>
0.0000

> <Gold.PLP.ligand.torsion>
0.5294

> <Gold.PLP.Chemscore.Hbond>
0.0000

> <Gold.PLP.Chemscore.CHOScore>
0.9994

> <Gold.PLP.Chemscore.Metal>
0.0000

> <Gold.Chemscore.Hbonds>
donor molecule, donor type, donor heavy atom, donor atom, acceptor molecule, acceptor atom, score
      L1  C    12    33       P1  8028  0.94

> <Gold.PLP.Chemscore.Internal.Correction>
0.3751

> <Gold.Rescore>
     Score         DG    S(hbond)    S(metal)    S(lipo)     H(rot)  DE(clash)    DE(int)     intcor
      9.10     -11.44       0.00        0.00      86.33       1.62       0.26       2.08       ----

> <Gold.Chemscore.Fitness>
9.1039

> <Gold.Chemscore.DG>
-11.4403

> <Gold.Chemscore.ZeroCoef>
-5.4800

> <Gold.Chemscore.Hbond>
0.0000

> <Gold.Chemscore.Metal>
0.0000

> <Gold.Chemscore.Lipo>
86.3339

> <Gold.Chemscore.Internal_Hbond>
0.0000

> <Gold.Chemscore.DEClash>
0.2592

> <Gold.Chemscore.DEInternal>
2.0772

> <Gold.Chemscore.Rot>
1.6175

> <Gold.Chemscore.Internal.Correction>
   9.000000E+99

> <Gold.Chemscore.Hbond.Weighted>
-0.0000

> <Gold.Chemscore.Metal.Weighted>
-0.0000

> <Gold.Chemscore.Lipo.Weighted>
-10.1011

> <Gold.Chemscore.Internal_Hbond.Weighted>
0.0000

> <Gold.Chemscore.DEClash.Weighted>
0.2592

> <Gold.Chemscore.DEInternal.Weighted>
2.0772

> <Gold.Chemscore.Rot.Weighted>
4.1408

> <Gold.Chemscore.Internal.Correction.Weighted>
   9.000000E+99

> <Gold.Protein.RotatedTorsions>
[ 6907 6896 6895 6894 ] final  121.12 input  -60.11 | X-H torsion
[ 7974 7965 7964 7962 ] final   66.57 input  175.53 | X-H torsion
[ 8008 7997 7996 7995 ] final -142.44 input   59.86 | X-H torsion
[ 10167 10162 10161 10158 ] final   52.93 input  -65.29 | X-H torsion
[ 10718 10713 10712 10709 ] final  152.18 input   66.30 | X-H torsion
[ 10763 10752 10751 10750 ] final -142.89 input  -60.55 | X-H torsion
[ 11005 11000 10999 10996 ] final  145.90 input  -57.11 | X-H torsion

> <Gold.Protein.ActiveResidues>
 VAL166  LYS551  ARG553  GLY616  TRP617  ASP618  TYR619  PRO620  LYS621  CYS622 
 ASP623  PHE694  ASN695  SER759  ASP760  ASP761  ALA762  ILE779  LEU786  VAL792 
 PHE793  MET794  SER795  GLU796  ALA797  LYS798  CYS799  TRP800  GLU811  SER814 

> <Gold.Protein.RotatedAtoms>
  152.4346  133.7338  159.6601 H   0  0  0  0  0  0  0  0  0  0  0  0  # atno 6907 bound_to 6896
  150.8228  133.8212  159.3137 H   0  0  0  0  0  0  0  0  0  0  0  0  # atno 6908 bound_to 6896
  151.5889  135.1057  160.0086 H   0  0  0  0  0  0  0  0  0  0  0  0  # atno 6909 bound_to 6896
  145.8250  139.3106  143.1021 H   0  0  0  0  0  0  0  0  0  0  0  0  # atno 7974 bound_to 7965
  155.4942  140.0570  157.2949 H   0  0  0  0  0  0  0  0  0  0  0  0  # atno 8008 bound_to 7997
  154.4611  140.1997  156.0192 H   0  0  0  0  0  0  0  0  0  0  0  0  # atno 8009 bound_to 7997
  156.0892  140.3236  155.7798 H   0  0  0  0  0  0  0  0  0  0  0  0  # atno 8010 bound_to 7997
  140.2462  144.3529  150.6363 H   0  0  0  0  0  0  0  0  0  0  0  0  # atno 10167 bound_to 10162
  157.2611  131.0798  151.1665 H   0  0  0  0  0  0  0  0  0  0  0  0  # atno 10718 bound_to 10713
  154.8491  135.3483  154.6100 H   0  0  0  0  0  0  0  0  0  0  0  0  # atno 10763 bound_to 10752
  153.6708  135.6985  153.5152 H   0  0  0  0  0  0  0  0  0  0  0  0  # atno 10764 bound_to 10752
  153.2744  135.4283  155.0975 H   0  0  0  0  0  0  0  0  0  0  0  0  # atno 10765 bound_to 10752
  140.0749  134.9130  157.1406 H   0  0  0  0  0  0  0  0  0  0  0  0  # atno 11005 bound_to 11000
  145.9633  140.8818  143.0199 LP  0  0  0  0  0  0  0  0  0  0  0  0  # atno 17320 bound_to 7965
  144.6744  140.1843  143.7403 LP  0  0  0  0  0  0  0  0  0  0  0  0  # atno 17321 bound_to 7965
  140.6076  143.2168  151.6950 LP  0  0  0  0  0  0  0  0  0  0  0  0  # atno 17342 bound_to 10162
  139.5061  144.3694  152.0485 LP  0  0  0  0  0  0  0  0  0  0  0  0  # atno 17343 bound_to 10162
  157.3174  130.6920  149.6250 LP  0  0  0  0  0  0  0  0  0  0  0  0  # atno 17370 bound_to 10713
  155.9664  130.4345  150.5053 LP  0  0  0  0  0  0  0  0  0  0  0  0  # atno 17371 bound_to 10713
  140.3572  134.2534  155.7191 LP  0  0  0  0  0  0  0  0  0  0  0  0  # atno 17394 bound_to 11000
  141.2026  133.7934  157.0384 LP  0  0  0  0  0  0  0  0  0  0  0  0  # atno 17395 bound_to 11000

$$$$
