AV-unprocessed.smi:3046|AV-procd|sdf|11616|dock6
  -GOLD-   2272017 03D 1   1.00000     0.00000
 Structure written by MMmdl.
 38 38  0  0  0  0  0  0  0  0  2 V2000
  144.8234  144.0633  153.8930 C   0  0  0  0  0  0  0  0  0  0  0  0
  145.7578  143.2754  153.3406 C   0  0  0  0  0  0  0  0  0  0  0  0
  146.7885  142.4913  154.1236 C   0  0  0  0  0  0  0  0  0  0  0  0
  147.0838  141.2305  153.4596 N   0  0  0  0  0  0  0  0  0  0  0  0
  146.8604  140.0232  153.9977 C   0  0  0  0  0  0  0  0  0  0  0  0
  146.3844  139.8630  155.1221 O   0  0  0  0  0  0  0  0  0  0  0  0
  147.2469  138.8083  153.1437 C   0  0  1  0  0  0  0  0  0  0  0  0
  146.7058  138.9792  151.7163 C   0  0  0  0  0  0  0  0  0  0  0  0
  148.7153  138.6112  153.1017 N   0  3  0  0  0  0  0  0  0  0  0  0
  149.4443  138.9102  154.3570 C   0  0  1  0  0  0  0  0  0  0  0  0
  150.6799  138.0023  154.4646 C   0  0  0  0  0  0  0  0  0  0  0  0
  149.8057  140.4095  154.4212 C   0  0  0  0  0  0  0  0  0  0  0  0
  150.3795  140.7952  155.6972 N   0  0  0  0  0  0  0  0  0  0  0  0
  150.0052  141.8253  156.5344 C   0  0  0  0  0  0  0  0  0  0  0  0
  150.8332  141.7866  157.6196 C   0  0  0  0  0  0  0  0  0  0  0  0
  151.6877  140.6800  157.3544 C   0  0  0  0  0  0  0  0  0  0  0  0
  151.4126  140.0878  156.2036 N   0  0  0  0  0  0  0  0  0  0  0  0
  144.7556  144.1889  154.9638 H   0  0  0  0  0  0  0  0  0  0  0  0
  144.1119  144.5947  153.2781 H   0  0  0  0  0  0  0  0  0  0  0  0
  145.7907  143.1724  152.2656 H   0  0  0  0  0  0  0  0  0  0  0  0
  147.7032  143.0756  154.2357 H   0  0  0  0  0  0  0  0  0  0  0  0
  146.3961  142.2988  155.1232 H   0  0  0  0  0  0  0  0  0  0  0  0
  147.4858  141.2817  152.5345 H   0  0  0  0  0  0  0  0  0  0  0  0
  146.7924  137.9093  153.5643 H   0  0  0  0  0  0  0  0  0  0  0  0
  145.6208  139.0923  151.7150 H   0  0  0  0  0  0  0  0  0  0  0  0
  146.9426  138.1102  151.1013 H   0  0  0  0  0  0  0  0  0  0  0  0
  147.1315  139.8562  151.2266 H   0  0  0  0  0  0  0  0  0  0  0  0
  148.8799  137.6382  152.8867 H   0  0  0  0  0  0  0  0  0  0  0  0
  148.7994  138.6774  155.2061 H   0  0  0  0  0  0  0  0  0  0  0  0
  151.1973  138.1415  155.4141 H   0  0  0  0  0  0  0  0  0  0  0  0
  151.3926  138.2049  153.6644 H   0  0  0  0  0  0  0  0  0  0  0  0
  150.3989  136.9506  154.4019 H   0  0  0  0  0  0  0  0  0  0  0  0
  150.5145  140.6628  153.6318 H   0  0  0  0  0  0  0  0  0  0  0  0
  148.9226  141.0266  154.2537 H   0  0  0  0  0  0  0  0  0  0  0  0
  149.1924  142.4939  156.2915 H   0  0  0  0  0  0  0  0  0  0  0  0
  150.8279  142.4466  158.4744 H   0  0  0  0  0  0  0  0  0  0  0  0
  152.4936  140.2920  157.9598 H   0  0  0  0  0  0  0  0  0  0  0  0
  149.0979  139.1715  152.3531 H   0  0  0  0  0  0  0  0  0  0  0  0
  1  2  2  0  0  0  0
  1 18  1  0  0  0  0
  1 19  1  0  0  0  0
  2  3  1  0  0  0  0
  2 20  1  0  0  0  0
  3  4  1  0  0  0  0
  3 21  1  0  0  0  0
  3 22  1  0  0  0  0
  4  5  1  0  0  0  0
  4 23  1  0  0  0  0
  5  6  2  0  0  0  0
  5  7  1  0  0  0  0
  7  8  1  0  0  0  0
  7  9  1  0  0  0  0
  7 24  1  0  0  0  0
  8 25  1  0  0  0  0
  8 26  1  0  0  0  0
  8 27  1  0  0  0  0
  9 10  1  0  0  0  0
  9 28  1  0  0  0  0
  9 38  1  0  0  0  0
 10 11  1  0  0  0  0
 10 12  1  0  0  0  0
 10 29  1  0  0  0  0
 11 30  1  0  0  0  0
 11 31  1  0  0  0  0
 11 32  1  0  0  0  0
 12 13  1  0  0  0  0
 12 33  1  0  0  0  0
 12 34  1  0  0  0  0
 13 17  1  0  0  0  0
 13 14  1  0  0  0  0
 14 15  2  0  0  0  0
 14 35  1  0  0  0  0
 15 16  1  0  0  0  0
 15 36  1  0  0  0  0
 16 17  2  0  0  0  0
 16 37  1  0  0  0  0
M  CHG  1   9   1
M  END
> <s_m_source_file>
AV-unprocessed.smi

> <i_m_source_file_index>
3046

> <i_lp_mmshare_version>
43012

> <i_f3d_flags>
0

> <s_epik_input>
W0NIMl09W0NIXVtDSDJdW05IXUMoPU8pW0NASF0oW0NIM10pW05IXVtDQEhdKFtDSDNdKVtDSDJdbjFbY0hdW2NIXVtjSF1uMQ==

> <s_epik_cmdline>
J2VwaWtfcHl0aG9uJywgJy1waCcsICc3LjAnLCAnLXRuJywgJzgnLCAnLW1hJywgJzIwMCcsICctbWV0YWxfYmluZGluZycsICctaW1hZScsICc8aW5maWxlLm1hZT4nLCAnLW9tYWUnLCAnPG91dGZpbGUubWFlPic=

> <r_lp_tautomer_probability>
1

> <r_epik_Ionization_Penalty>
0.132961

> <r_epik_Ionization_Penalty_Charging>
0.132956

> <r_epik_Ionization_Penalty_Neutral>
5.00268e-06

> <r_epik_State_Penalty>
0.122332

> <r_epik_Charging_Adjusted_Penalty>
0.255288

> <i_epik_Tot_Q>
1

> <i_epik_Tot_abs_Q>
1

> <r_epik_Metal_State_Penalty>
0.122338

> <b_epik_Metal_Only>
0

> <s_lp_Force_Field>
OPLS_2005

> <r_lp_Energy>
6.90886

> <b_lp_Chiralities_Consistent>
1

> <s_lp_Variant>
AV-unprocessed.smi:3046-4

> <Gold.Version>
5.8.1

> <Gold.Id.Protein>
6NUR|6NUR_protein|mol2

> <Gold.PLP.Fitness>
45.4943

> <Gold.PLP.PLP>
-35.7655

> <Gold.PLP.part.hbond>
-2.0000

> <Gold.PLP.part.metal>
0.0000

> <Gold.PLP.part.buried>
-1.5568

> <Gold.PLP.part.nonpolar>
-31.9098

> <Gold.PLP.part.repulsive>
0.2174

> <Gold.PLP.ligand.clash>
0.0000

> <Gold.PLP.ligand.torsion>
1.1743

> <Gold.PLP.Chemscore.Hbond>
3.0000

> <Gold.PLP.Chemscore.CHOScore>
1.0000

> <Gold.PLP.Chemscore.Metal>
0.0000

> <Gold.Chemscore.Hbonds>
donor molecule, donor type, donor heavy atom, donor atom, acceptor molecule, acceptor atom, score
      L1  H     9    28       P1  7948  2.00
      L1  H     9    38       P1  7957  1.00
      L1  C    14    35       P1  8028  1.00

> <Gold.PLP.Chemscore.Internal.Correction>
0.0775

> <Gold.Rescore>
     Score         DG    S(hbond)    S(metal)    S(lipo)     H(rot)  DE(clash)    DE(int)     intcor
     11.93     -15.39       1.98        0.00      77.67       2.26       1.12       2.34       ----

> <Gold.Chemscore.Fitness>
11.9260

> <Gold.Chemscore.DG>
-15.3852

> <Gold.Chemscore.ZeroCoef>
-5.4800

> <Gold.Chemscore.Hbond>
1.9791

> <Gold.Chemscore.Metal>
0.0000

> <Gold.Chemscore.Lipo>
77.6672

> <Gold.Chemscore.Internal_Hbond>
0.0000

> <Gold.Chemscore.DEClash>
1.1174

> <Gold.Chemscore.DEInternal>
2.3418

> <Gold.Chemscore.Rot>
2.2626

> <Gold.Chemscore.Internal.Correction>
   9.000000E+99

> <Gold.Chemscore.Hbonds>
donor molecule, donor type, donor heavy atom, donor atom, acceptor molecule, acceptor atom, score
      L1  H     9    28       P1  7948  0.98
      L1  H     9    38       P1  7957  0.95

> <Gold.Chemscore.Hbond.Weighted>
-6.6103

> <Gold.Chemscore.Metal.Weighted>
-0.0000

> <Gold.Chemscore.Lipo.Weighted>
-9.0871

> <Gold.Chemscore.Internal_Hbond.Weighted>
0.0000

> <Gold.Chemscore.DEClash.Weighted>
1.1174

> <Gold.Chemscore.DEInternal.Weighted>
2.3418

> <Gold.Chemscore.Rot.Weighted>
5.7922

> <Gold.Chemscore.Internal.Correction.Weighted>
   9.000000E+99

> <Gold.Protein.RotatedTorsions>
[ 6907 6896 6895 6894 ] final  -97.52 input  -60.11 | X-H torsion
[ 7974 7965 7964 7962 ] final -155.76 input  175.53 | X-H torsion
[ 8008 7997 7996 7995 ] final  -93.68 input   59.86 | X-H torsion
[ 10167 10162 10161 10158 ] final  -58.89 input  -65.29 | X-H torsion
[ 10718 10713 10712 10709 ] final  -18.25 input   66.30 | X-H torsion
[ 10763 10752 10751 10750 ] final   12.71 input  -60.55 | X-H torsion
[ 11005 11000 10999 10996 ] final   -6.95 input  -57.11 | X-H torsion

> <Gold.Protein.ActiveResidues>
 VAL166  LYS551  ARG553  GLY616  TRP617  ASP618  TYR619  PRO620  LYS621  CYS622 
 ASP623  PHE694  ASN695  SER759  ASP760  ASP761  ALA762  ILE779  LEU786  VAL792 
 PHE793  MET794  SER795  GLU796  ALA797  LYS798  CYS799  TRP800  GLU811  SER814 

> <Gold.Protein.RotatedAtoms>
  150.7019  134.1336  159.4078 H   0  0  0  0  0  0  0  0  0  0  0  0  # atno 6907 bound_to 6896
  151.9321  135.0249  160.0539 H   0  0  0  0  0  0  0  0  0  0  0  0  # atno 6908 bound_to 6896
  152.2166  133.4916  159.5176 H   0  0  0  0  0  0  0  0  0  0  0  0  # atno 6909 bound_to 6896
  144.7625  140.4204  143.5966 H   0  0  0  0  0  0  0  0  0  0  0  0  # atno 7974 bound_to 7965
  154.7388  140.0496  157.0792 H   0  0  0  0  0  0  0  0  0  0  0  0  # atno 8008 bound_to 7997
  155.0206  140.3146  155.4776 H   0  0  0  0  0  0  0  0  0  0  0  0  # atno 8009 bound_to 7997
  156.2859  140.2168  156.5324 H   0  0  0  0  0  0  0  0  0  0  0  0  # atno 8010 bound_to 7997
  140.6169  143.2405  151.5575 H   0  0  0  0  0  0  0  0  0  0  0  0  # atno 10167 bound_to 10162
  156.5621  130.4728  149.6402 H   0  0  0  0  0  0  0  0  0  0  0  0  # atno 10718 bound_to 10713
  153.1795  135.6825  153.8498 H   0  0  0  0  0  0  0  0  0  0  0  0  # atno 10763 bound_to 10752
  153.7834  135.3179  155.3370 H   0  0  0  0  0  0  0  0  0  0  0  0  # atno 10764 bound_to 10752
  154.8050  135.4754  154.0465 H   0  0  0  0  0  0  0  0  0  0  0  0  # atno 10765 bound_to 10752
  140.7075  133.8937  155.8727 H   0  0  0  0  0  0  0  0  0  0  0  0  # atno 11005 bound_to 11000
  145.6575  139.1575  143.2827 LP  0  0  0  0  0  0  0  0  0  0  0  0  # atno 17320 bound_to 7965
  146.1701  140.6658  142.9237 LP  0  0  0  0  0  0  0  0  0  0  0  0  # atno 17321 bound_to 7965
  139.5406  144.2658  152.1343 LP  0  0  0  0  0  0  0  0  0  0  0  0  # atno 17342 bound_to 10162
  140.1869  144.4789  150.6499 LP  0  0  0  0  0  0  0  0  0  0  0  0  # atno 17343 bound_to 10162
  156.2789  130.7060  151.1878 LP  0  0  0  0  0  0  0  0  0  0  0  0  # atno 17370 bound_to 10713
  157.7366  131.0560  150.5403 LP  0  0  0  0  0  0  0  0  0  0  0  0  # atno 17371 bound_to 10713
  141.0112  134.1017  157.4219 LP  0  0  0  0  0  0  0  0  0  0  0  0  # atno 17394 bound_to 11000
  139.8880  135.0094  156.6596 LP  0  0  0  0  0  0  0  0  0  0  0  0  # atno 17395 bound_to 11000

$$$$
