AV-unprocessed.smi:1602|AV-procd|sdf|6440|dock10
  -GOLD-   22720 7 83D 1   1.00000     0.00000
 Structure written by MMmdl.
 36 37  0  0  0  0  0  0  0  0  1 V2000
  153.4799  139.6056  160.0519 C   0  0  0  0  0  0  0  0  0  0  0  0
  152.7982  140.8347  159.4377 C   0  0  1  0  0  0  0  0  0  0  0  0
  153.6204  142.1213  159.6470 C   0  0  0  0  0  0  0  0  0  0  0  0
  152.8040  143.3204  159.5881 N   0  0  0  0  0  0  0  0  0  0  0  0
  152.7170  144.2496  158.5727 C   0  0  0  0  0  0  0  0  0  0  0  0
  151.8121  145.1945  158.9639 C   0  0  0  0  0  0  0  0  0  0  0  0
  151.3961  144.7514  160.2507 C   0  0  0  0  0  0  0  0  0  0  0  0
  151.9942  143.6312  160.6231 N   0  0  0  0  0  0  0  0  0  0  0  0
  152.5835  140.5977  158.0081 N   0  0  0  0  0  0  0  0  0  0  0  0
  150.9820  140.6199  157.3692 S   0  0  0  0  0  0  0  0  0  0  0  0
  150.0317  140.5015  158.4855 O   0  0  0  0  0  0  0  0  0  0  0  0
  150.8855  141.7315  156.4110 O   0  0  0  0  0  0  0  0  0  0  0  0
  151.0040  139.1266  156.4948 N   0  0  0  0  0  0  0  0  0  0  0  0
  151.8148  139.0695  155.2650 C   0  0  0  0  0  0  0  0  0  0  0  0
  151.5431  137.7742  154.4830 C   0  0  0  0  0  0  0  0  0  0  0  0
  151.7379  136.6470  155.3229 O   0  0  0  0  0  0  0  0  0  0  0  0
  150.8309  136.6517  156.4145 C   0  0  0  0  0  0  0  0  0  0  0  0
  151.0652  137.8915  157.2928 C   0  0  0  0  0  0  0  0  0  0  0  0
  153.6239  139.7334  161.1251 H   0  0  0  0  0  0  0  0  0  0  0  0
  154.4578  139.4273  159.6033 H   0  0  0  0  0  0  0  0  0  0  0  0
  152.8767  138.7088  159.9057 H   0  0  0  0  0  0  0  0  0  0  0  0
  151.8276  140.9529  159.9224 H   0  0  0  0  0  0  0  0  0  0  0  0
  154.1155  142.0962  160.6188 H   0  0  0  0  0  0  0  0  0  0  0  0
  154.4105  142.1984  158.8986 H   0  0  0  0  0  0  0  0  0  0  0  0
  153.2950  144.1590  157.6649 H   0  0  0  0  0  0  0  0  0  0  0  0
  151.4937  146.0676  158.4142 H   0  0  0  0  0  0  0  0  0  0  0  0
  150.6827  145.2076  160.9208 H   0  0  0  0  0  0  0  0  0  0  0  0
  153.2608  141.0632  157.4049 H   0  0  0  0  0  0  0  0  0  0  0  0
  151.6020  139.9315  154.6334 H   0  0  0  0  0  0  0  0  0  0  0  0
  152.8696  139.1261  155.5363 H   0  0  0  0  0  0  0  0  0  0  0  0
  150.5297  137.7711  154.0783 H   0  0  0  0  0  0  0  0  0  0  0  0
  152.2224  137.7023  153.6334 H   0  0  0  0  0  0  0  0  0  0  0  0
  149.8032  136.6249  156.0487 H   0  0  0  0  0  0  0  0  0  0  0  0
  150.9805  135.7453  157.0013 H   0  0  0  0  0  0  0  0  0  0  0  0
  152.0419  137.8319  157.7746 H   0  0  0  0  0  0  0  0  0  0  0  0
  150.3181  137.9270  158.0857 H   0  0  0  0  0  0  0  0  0  0  0  0
  1  2  1  0  0  0  0
  1 19  1  0  0  0  0
  1 20  1  0  0  0  0
  1 21  1  0  0  0  0
  2  3  1  0  0  0  0
  2  9  1  0  0  0  0
  2 22  1  0  0  0  0
  3  4  1  0  0  0  0
  3 23  1  0  0  0  0
  3 24  1  0  0  0  0
  4  8  1  0  0  0  0
  4  5  1  0  0  0  0
  5  6  2  0  0  0  0
  5 25  1  0  0  0  0
  6  7  1  0  0  0  0
  6 26  1  0  0  0  0
  7  8  2  0  0  0  0
  7 27  1  0  0  0  0
  9 10  1  0  0  0  0
  9 28  1  0  0  0  0
 10 11  2  0  0  0  0
 10 12  2  0  0  0  0
 10 13  1  0  0  0  0
 13 18  1  0  0  0  0
 13 14  1  0  0  0  0
 14 15  1  0  0  0  0
 14 29  1  0  0  0  0
 14 30  1  0  0  0  0
 15 16  1  0  0  0  0
 15 31  1  0  0  0  0
 15 32  1  0  0  0  0
 16 17  1  0  0  0  0
 17 18  1  0  0  0  0
 17 33  1  0  0  0  0
 17 34  1  0  0  0  0
 18 35  1  0  0  0  0
 18 36  1  0  0  0  0
M  END
> <s_m_source_file>
AV-unprocessed.smi

> <i_m_source_file_index>
1602

> <i_lp_mmshare_version>
43012

> <i_f3d_flags>
0

> <s_epik_input>
bjFbY0hdW2NIXVtjSF1uMVtDSDJdW0NAQEhdKFtDSDNdKVtOSF1TKD1PKSg9TylOMltDSDJdW0NIMl1PW0NIMl1bQ0gyXTI=

> <s_epik_cmdline>
J2VwaWtfcHl0aG9uJywgJy1waCcsICc3LjAnLCAnLXRuJywgJzgnLCAnLW1hJywgJzIwMCcsICctbWV0YWxfYmluZGluZycsICctaW1hZScsICc8aW5maWxlLm1hZT4nLCAnLW9tYWUnLCAnPG91dGZpbGUubWFlPic=

> <r_lp_tautomer_probability>
1

> <r_epik_Ionization_Penalty>
0.114248

> <r_epik_Ionization_Penalty_Charging>
0

> <r_epik_Ionization_Penalty_Neutral>
0.114248

> <r_epik_State_Penalty>
0.103909

> <r_epik_Charging_Adjusted_Penalty>
0.103909

> <i_epik_Tot_Q>
0

> <i_epik_Tot_abs_Q>
0

> <r_epik_Metal_State_Penalty>
0.436178

> <b_epik_Metal_Only>
0

> <s_lp_Force_Field>
OPLS_2005

> <r_lp_Energy>
8.02202

> <b_lp_Chiralities_Consistent>
1

> <s_lp_Variant>
AV-unprocessed.smi:1602-2

> <Gold.Version>
5.8.1

> <Gold.Id.Protein>
6NUR|6NUR_protein|mol2

> <Gold.PLP.Fitness>
37.5232

> <Gold.PLP.PLP>
-37.0788

> <Gold.PLP.part.hbond>
-1.9279

> <Gold.PLP.part.metal>
0.0000

> <Gold.PLP.part.buried>
-5.1000

> <Gold.PLP.part.nonpolar>
-30.7163

> <Gold.PLP.part.repulsive>
0.2439

> <Gold.PLP.ligand.clash>
0.0000

> <Gold.PLP.ligand.torsion>
1.6469

> <Gold.PLP.Chemscore.Hbond>
1.0000

> <Gold.PLP.Chemscore.CHOScore>
0.0000

> <Gold.PLP.Chemscore.Metal>
0.0000

> <Gold.Chemscore.Hbonds>
donor molecule, donor type, donor heavy atom, donor atom, acceptor molecule, acceptor atom, score
      P1  H 10752 10763       L1    16  0.96

> <Gold.PLP.Chemscore.Internal.Correction>
0.7382

> <Gold.Rescore>
     Score         DG    S(hbond)    S(metal)    S(lipo)     H(rot)  DE(clash)    DE(int)     intcor
     12.63     -14.27       0.96        0.00      90.71       1.97       0.03       1.60       ----

> <Gold.Chemscore.Fitness>
12.6338

> <Gold.Chemscore.DG>
-14.2672

> <Gold.Chemscore.ZeroCoef>
-5.4800

> <Gold.Chemscore.Hbond>
0.9597

> <Gold.Chemscore.Metal>
0.0000

> <Gold.Chemscore.Lipo>
90.7132

> <Gold.Chemscore.Internal_Hbond>
0.0000

> <Gold.Chemscore.DEClash>
0.0344

> <Gold.Chemscore.DEInternal>
1.5990

> <Gold.Chemscore.Rot>
1.9654

> <Gold.Chemscore.Internal.Correction>
   9.000000E+99

> <Gold.Chemscore.Hbonds>
donor molecule, donor type, donor heavy atom, donor atom, acceptor molecule, acceptor atom, score
      P1  H 10752 10763       L1    16  0.41

> <Gold.Chemscore.Hbond.Weighted>
-3.2053

> <Gold.Chemscore.Metal.Weighted>
-0.0000

> <Gold.Chemscore.Lipo.Weighted>
-10.6134

> <Gold.Chemscore.Internal_Hbond.Weighted>
0.0000

> <Gold.Chemscore.DEClash.Weighted>
0.0344

> <Gold.Chemscore.DEInternal.Weighted>
1.5990

> <Gold.Chemscore.Rot.Weighted>
5.0315

> <Gold.Chemscore.Internal.Correction.Weighted>
   9.000000E+99

> <Gold.Protein.RotatedTorsions>
[ 6907 6896 6895 6894 ] final   43.01 input  -60.11 | X-H torsion
[ 7974 7965 7964 7962 ] final  102.58 input  175.53 | X-H torsion
[ 8008 7997 7996 7995 ] final  171.41 input   59.86 | X-H torsion
[ 10167 10162 10161 10158 ] final  126.82 input  -65.29 | X-H torsion
[ 10718 10713 10712 10709 ] final  122.38 input   66.30 | X-H torsion
[ 10763 10752 10751 10750 ] final   47.38 input  -60.55 | X-H torsion
[ 11005 11000 10999 10996 ] final -156.97 input  -57.11 | X-H torsion

> <Gold.Protein.ActiveResidues>
 VAL166  LYS551  ARG553  GLY616  TRP617  ASP618  TYR619  PRO620  LYS621  CYS622 
 ASP623  PHE694  ASN695  SER759  ASP760  ASP761  ALA762  ILE779  LEU786  VAL792 
 PHE793  MET794  SER795  GLU796  ALA797  LYS798  CYS799  TRP800  GLU811  SER814 

> <Gold.Protein.RotatedAtoms>
  152.2150  134.8466  160.0492 H   0  0  0  0  0  0  0  0  0  0  0  0  # atno 6907 bound_to 6896
  151.9270  133.3596  159.3925 H   0  0  0  0  0  0  0  0  0  0  0  0  # atno 6908 bound_to 6896
  150.6985  134.4501  159.5376 H   0  0  0  0  0  0  0  0  0  0  0  0  # atno 6909 bound_to 6896
  145.3573  139.2426  143.3526 H   0  0  0  0  0  0  0  0  0  0  0  0  # atno 7974 bound_to 7965
  156.1274  140.1512  156.9116 H   0  0  0  0  0  0  0  0  0  0  0  0  # atno 8008 bound_to 7997
  154.4882  140.0859  156.7575 H   0  0  0  0  0  0  0  0  0  0  0  0  # atno 8009 bound_to 7997
  155.4319  140.3427  155.4283 H   0  0  0  0  0  0  0  0  0  0  0  0  # atno 8010 bound_to 7997
  139.5611  144.6882  151.4042 H   0  0  0  0  0  0  0  0  0  0  0  0  # atno 10167 bound_to 10162
  157.5746  131.1080  150.8302 H   0  0  0  0  0  0  0  0  0  0  0  0  # atno 10718 bound_to 10713
  152.9800  135.5978  154.3752 H   0  0  0  0  0  0  0  0  0  0  0  0  # atno 10763 bound_to 10752
  154.3422  135.2767  155.2418 H   0  0  0  0  0  0  0  0  0  0  0  0  # atno 10764 bound_to 10752
  154.4495  135.5993  153.6237 H   0  0  0  0  0  0  0  0  0  0  0  0  # atno 10765 bound_to 10752
  140.6698  134.4260  157.5232 H   0  0  0  0  0  0  0  0  0  0  0  0  # atno 11005 bound_to 11000
  146.2942  140.4200  142.8728 LP  0  0  0  0  0  0  0  0  0  0  0  0  # atno 17320 bound_to 7965
  144.8673  140.7223  143.6069 LP  0  0  0  0  0  0  0  0  0  0  0  0  # atno 17321 bound_to 7965
  140.6890  143.7906  150.7228 LP  0  0  0  0  0  0  0  0  0  0  0  0  # atno 17342 bound_to 10162
  140.1382  143.4465  152.2211 LP  0  0  0  0  0  0  0  0  0  0  0  0  # atno 17343 bound_to 10162
  156.8765  130.5164  149.5293 LP  0  0  0  0  0  0  0  0  0  0  0  0  # atno 17370 bound_to 10713
  156.0791  130.5806  150.9530 LP  0  0  0  0  0  0  0  0  0  0  0  0  # atno 17371 bound_to 10713
  139.8985  134.8611  156.1998 LP  0  0  0  0  0  0  0  0  0  0  0  0  # atno 17394 bound_to 11000
  141.0401  133.6942  156.1583 LP  0  0  0  0  0  0  0  0  0  0  0  0  # atno 17395 bound_to 11000

$$$$
