AV-unprocessed.smi:1929|AV-procd|sdf|7803|dock2
  -GOLD-   22720 9543D 1   1.00000     0.00000
 Structure written by MMmdl.
 44 45  0  0  0  0  0  0  0  0  3 V2000
  153.8700  133.2710  165.4238 C   0  0  0  0  0  0  0  0  0  0  0  0
  154.7463  134.4319  165.3827 N   0  0  0  0  0  0  0  0  0  0  0  0
  155.2732  134.9374  164.2587 C   0  0  0  0  0  0  0  0  0  0  0  0
  155.0575  134.4669  163.1412 O   0  0  0  0  0  0  0  0  0  0  0  0
  156.1657  136.1722  164.4235 C   0  0  0  0  0  0  0  0  0  0  0  0
  155.5529  137.4103  163.8765 N   0  3  2  0  0  0  0  0  0  0  0  0
  155.0813  137.2577  162.4738 C   0  0  0  0  0  0  0  0  0  0  0  0
  154.3293  138.5135  162.0031 C   0  0  0  0  0  0  0  0  0  0  0  0
  155.2092  139.7664  162.1358 C   0  0  1  0  0  0  0  0  0  0  0  0
  154.4464  140.9529  161.7573 N   0  0  0  0  0  0  0  0  0  0  0  0
  153.8484  141.1373  160.5711 C   0  0  0  0  0  0  0  0  0  0  0  0
  153.8855  140.3120  159.6587 O   0  0  0  0  0  0  0  0  0  0  0  0
  153.2368  142.3329  160.5109 N   0  0  0  0  0  0  0  0  0  0  0  0
  152.4918  142.8879  159.4351 C   0  0  0  0  0  0  0  0  0  0  0  0
  151.7801  141.9964  158.6018 C   0  0  0  0  0  0  0  0  0  0  0  0
  151.0418  142.5023  157.5123 C   0  0  0  0  0  0  0  0  0  0  0  0
  151.0294  143.8300  157.2667 N   0  3  0  0  0  0  0  0  0  0  0  0
  151.7060  144.7190  158.0254 C   0  0  0  0  0  0  0  0  0  0  0  0
  152.4611  144.2724  159.1292 C   0  0  0  0  0  0  0  0  0  0  0  0
  155.7241  139.8829  163.5824 C   0  0  0  0  0  0  0  0  0  0  0  0
  156.4364  138.5944  164.0282 C   0  0  0  0  0  0  0  0  0  0  0  0
  153.5881  133.0543  166.4540 H   0  0  0  0  0  0  0  0  0  0  0  0
  154.3692  132.3918  165.0148 H   0  0  0  0  0  0  0  0  0  0  0  0
  152.9587  133.4514  164.8525 H   0  0  0  0  0  0  0  0  0  0  0  0
  154.9626  134.8774  166.2631 H   0  0  0  0  0  0  0  0  0  0  0  0
  156.3372  136.2895  165.4944 H   0  0  0  0  0  0  0  0  0  0  0  0
  157.1424  136.0046  163.9660 H   0  0  0  0  0  0  0  0  0  0  0  0
  155.9342  137.0656  161.8208 H   0  0  0  0  0  0  0  0  0  0  0  0
  154.4210  136.3943  162.3899 H   0  0  0  0  0  0  0  0  0  0  0  0
  154.0132  138.3861  160.9668 H   0  0  0  0  0  0  0  0  0  0  0  0
  153.4186  138.6322  162.5927 H   0  0  0  0  0  0  0  0  0  0  0  0
  156.0610  139.6575  161.4611 H   0  0  0  0  0  0  0  0  0  0  0  0
  154.3684  141.6840  162.4496 H   0  0  0  0  0  0  0  0  0  0  0  0
  153.3705  142.9417  161.3051 H   0  0  0  0  0  0  0  0  0  0  0  0
  151.7914  140.9336  158.7956 H   0  0  0  0  0  0  0  0  0  0  0  0
  150.4670  141.8886  156.8340 H   0  0  0  0  0  0  0  0  0  0  0  0
  151.6298  145.7540  157.7252 H   0  0  0  0  0  0  0  0  0  0  0  0
  153.0107  144.9976  159.7098 H   0  0  0  0  0  0  0  0  0  0  0  0
  156.4086  140.7273  163.6731 H   0  0  0  0  0  0  0  0  0  0  0  0
  154.8911  140.0873  164.2570 H   0  0  0  0  0  0  0  0  0  0  0  0
  156.7380  138.6976  165.0714 H   0  0  0  0  0  0  0  0  0  0  0  0
  157.3482  138.4468  163.4474 H   0  0  0  0  0  0  0  0  0  0  0  0
  154.7361  137.5905  164.4434 H   0  0  0  0  0  0  0  0  0  0  0  0
  150.4905  144.1756  156.4719 H   0  0  0  0  0  0  0  0  0  0  0  0
  1  2  1  0  0  0  0
  1 22  1  0  0  0  0
  1 23  1  0  0  0  0
  1 24  1  0  0  0  0
  2  3  1  0  0  0  0
  2 25  1  0  0  0  0
  3  4  2  0  0  0  0
  3  5  1  0  0  0  0
  5  6  1  0  0  0  0
  5 26  1  0  0  0  0
  5 27  1  0  0  0  0
  6 21  1  0  0  0  0
  6  7  1  0  0  0  0
  6 43  1  0  0  0  0
  7  8  1  0  0  0  0
  7 28  1  0  0  0  0
  7 29  1  0  0  0  0
  8  9  1  0  0  0  0
  8 30  1  0  0  0  0
  8 31  1  0  0  0  0
  9 10  1  0  0  0  0
  9 20  1  0  0  0  0
  9 32  1  0  0  0  0
 10 11  1  0  0  0  0
 10 33  1  0  0  0  0
 11 12  2  0  0  0  0
 11 13  1  0  0  0  0
 13 14  1  0  0  0  0
 13 34  1  0  0  0  0
 14 19  1  0  0  0  0
 14 15  2  0  0  0  0
 15 16  1  0  0  0  0
 15 35  1  0  0  0  0
 16 17  2  0  0  0  0
 16 36  1  0  0  0  0
 17 18  1  0  0  0  0
 17 44  1  0  0  0  0
 18 19  2  0  0  0  0
 18 37  1  0  0  0  0
 19 38  1  0  0  0  0
 20 21  1  0  0  0  0
 20 39  1  0  0  0  0
 20 40  1  0  0  0  0
 21 41  1  0  0  0  0
 21 42  1  0  0  0  0
M  CHG  1   6   1
M  CHG  1  17   1
M  END
> <s_m_source_file>
AV-unprocessed.smi

> <i_m_source_file_index>
1929

> <i_lp_mmshare_version>
43012

> <i_f3d_flags>
0

> <s_epik_input>
W0NIM11bTkhdQyg9TylbQ0gyXU4xW0NIMl1bQ0gyXVtDSF0oW0NIMl1bQ0gyXTEpW05IXUMoPU8pW05IXWMyW2NIXVtjSF1uW2NIXVtjSF0y

> <s_epik_cmdline>
J2VwaWtfcHl0aG9uJywgJy1waCcsICc3LjAnLCAnLXRuJywgJzgnLCAnLW1hJywgJzIwMCcsICctbWV0YWxfYmluZGluZycsICctaW1hZScsICc8aW5maWxlLm1hZT4nLCAnLW9tYWUnLCAnPG91dGZpbGUubWFlPic=

> <r_epik_Ionization_Penalty>
1.97435

> <r_epik_Ionization_Penalty_Charging>
1.97431

> <r_epik_Ionization_Penalty_Neutral>
3.89585e-05

> <r_epik_State_Penalty>
2.00691

> <r_epik_Charging_Adjusted_Penalty>
3.98122

> <i_epik_Tot_Q>
2

> <i_epik_Tot_abs_Q>
2

> <r_epik_Metal_State_Penalty>
2.11022

> <b_epik_Metal_Only>
0

> <s_lp_Force_Field>
OPLS_2005

> <r_lp_Energy>
26.2035

> <b_lp_Chiralities_Consistent>
1

> <s_lp_Variant>
AV-unprocessed.smi:1929-5

> <Gold.Version>
5.8.1

> <Gold.Id.Protein>
6NUR|6NUR_protein|mol2

> <Gold.PLP.Fitness>
46.3031

> <Gold.PLP.PLP>
-40.9134

> <Gold.PLP.part.hbond>
-2.4786

> <Gold.PLP.part.metal>
0.0000

> <Gold.PLP.part.buried>
-7.5540

> <Gold.PLP.part.nonpolar>
-31.0806

> <Gold.PLP.part.repulsive>
0.1258

> <Gold.PLP.ligand.clash>
0.0000

> <Gold.PLP.ligand.torsion>
0.3195

> <Gold.PLP.Chemscore.Hbond>
2.0000

> <Gold.PLP.Chemscore.CHOScore>
0.0000

> <Gold.PLP.Chemscore.Metal>
0.0000

> <Gold.Chemscore.Hbonds>
donor molecule, donor type, donor heavy atom, donor atom, acceptor molecule, acceptor atom, score
      L1  H    17    44       P1  8028  2.00

> <Gold.PLP.Chemscore.Internal.Correction>
0.0287

> <Gold.Rescore>
     Score         DG    S(hbond)    S(metal)    S(lipo)     H(rot)  DE(clash)    DE(int)     intcor
     12.00     -16.00       0.95        0.00     100.33       1.71       0.01       3.98       ----

> <Gold.Chemscore.Fitness>
12.0029

> <Gold.Chemscore.DG>
-15.9972

> <Gold.Chemscore.ZeroCoef>
-5.4800

> <Gold.Chemscore.Hbond>
0.9468

> <Gold.Chemscore.Metal>
0.0000

> <Gold.Chemscore.Lipo>
100.3320

> <Gold.Chemscore.Internal_Hbond>
0.0000

> <Gold.Chemscore.DEClash>
0.0104

> <Gold.Chemscore.DEInternal>
3.9840

> <Gold.Chemscore.Rot>
1.7124

> <Gold.Chemscore.Internal.Correction>
   9.000000E+99

> <Gold.Chemscore.Hbonds>
donor molecule, donor type, donor heavy atom, donor atom, acceptor molecule, acceptor atom, score
      L1  H    17    44       P1  8028  0.97

> <Gold.Chemscore.Hbond.Weighted>
-3.1622

> <Gold.Chemscore.Metal.Weighted>
-0.0000

> <Gold.Chemscore.Lipo.Weighted>
-11.7388

> <Gold.Chemscore.Internal_Hbond.Weighted>
0.0000

> <Gold.Chemscore.DEClash.Weighted>
0.0104

> <Gold.Chemscore.DEInternal.Weighted>
3.9840

> <Gold.Chemscore.Rot.Weighted>
4.3838

> <Gold.Chemscore.Internal.Correction.Weighted>
   9.000000E+99

> <Gold.Protein.RotatedTorsions>
[ 6907 6896 6895 6894 ] final  123.92 input  -60.11 | X-H torsion
[ 7974 7965 7964 7962 ] final   90.15 input  175.53 | X-H torsion
[ 8008 7997 7996 7995 ] final -144.07 input   59.86 | X-H torsion
[ 10167 10162 10161 10158 ] final   66.83 input  -65.29 | X-H torsion
[ 10718 10713 10712 10709 ] final   91.35 input   66.30 | X-H torsion
[ 10763 10752 10751 10750 ] final  170.93 input  -60.55 | X-H torsion
[ 11005 11000 10999 10996 ] final  -86.13 input  -57.11 | X-H torsion

> <Gold.Protein.ActiveResidues>
 VAL166  LYS551  ARG553  GLY616  TRP617  ASP618  TYR619  PRO620  LYS621  CYS622 
 ASP623  PHE694  ASN695  SER759  ASP760  ASP761  ALA762  ILE779  LEU786  VAL792 
 PHE793  MET794  SER795  GLU796  ALA797  LYS798  CYS799  TRP800  GLU811  SER814 

> <Gold.Protein.RotatedAtoms>
  152.4122  133.6981  159.6407 H   0  0  0  0  0  0  0  0  0  0  0  0  # atno 6907 bound_to 6896
  150.8001  133.8604  159.3239 H   0  0  0  0  0  0  0  0  0  0  0  0  # atno 6908 bound_to 6896
  151.6343  135.1021  160.0180 H   0  0  0  0  0  0  0  0  0  0  0  0  # atno 6909 bound_to 6896
  145.5229  139.2280  143.2661 H   0  0  0  0  0  0  0  0  0  0  0  0  # atno 7974 bound_to 7965
  155.5210  140.0591  157.2907 H   0  0  0  0  0  0  0  0  0  0  0  0  # atno 8008 bound_to 7997
  154.4518  140.1952  156.0444 H   0  0  0  0  0  0  0  0  0  0  0  0  # atno 8009 bound_to 7997
  156.0719  140.3259  155.7590 H   0  0  0  0  0  0  0  0  0  0  0  0  # atno 8010 bound_to 7997
  140.0961  144.4945  150.7067 H   0  0  0  0  0  0  0  0  0  0  0  0  # atno 10167 bound_to 10162
  157.6960  131.0404  150.3717 H   0  0  0  0  0  0  0  0  0  0  0  0  # atno 10718 bound_to 10713
  154.4046  135.2755  155.2075 H   0  0  0  0  0  0  0  0  0  0  0  0  # atno 10763 bound_to 10752
  154.4086  135.6027  153.5943 H   0  0  0  0  0  0  0  0  0  0  0  0  # atno 10764 bound_to 10752
  152.9831  135.5944  154.4319 H   0  0  0  0  0  0  0  0  0  0  0  0  # atno 10765 bound_to 10752
  141.1633  133.7437  156.9116 H   0  0  0  0  0  0  0  0  0  0  0  0  # atno 11005 bound_to 11000
  146.2094  140.6042  142.9066 LP  0  0  0  0  0  0  0  0  0  0  0  0  # atno 17320 bound_to 7965
  144.7666  140.5545  143.6698 LP  0  0  0  0  0  0  0  0  0  0  0  0  # atno 17321 bound_to 7965
  140.7002  143.2430  151.4885 LP  0  0  0  0  0  0  0  0  0  0  0  0  # atno 17342 bound_to 10162
  139.5697  144.1958  152.1818 LP  0  0  0  0  0  0  0  0  0  0  0  0  # atno 17343 bound_to 10162
  156.4141  130.3940  149.6871 LP  0  0  0  0  0  0  0  0  0  0  0  0  # atno 17370 bound_to 10713
  156.4145  130.7738  151.2753 LP  0  0  0  0  0  0  0  0  0  0  0  0  # atno 17371 bound_to 10713
  140.1513  134.9228  157.2596 LP  0  0  0  0  0  0  0  0  0  0  0  0  # atno 17394 bound_to 11000
  140.2720  134.3449  155.7370 LP  0  0  0  0  0  0  0  0  0  0  0  0  # atno 17395 bound_to 11000

$$$$
