AV-unprocessed.smi:199|AV-procd|sdf|1565|dock8
  -GOLD-   2262019443D 1   1.00000     0.00000
 Structure written by MMmdl.
 51 55  0  0  0  0  0  0  0  0  1 V2000
  151.1928  145.1429  158.3929 C   0  0  0  0  0  0  0  0  0  0  0  0
  151.8768  143.7800  158.1982 C   0  0  1  0  0  0  0  0  0  0  0  0
  152.4472  143.3270  159.4177 O   0  0  0  0  0  0  0  0  0  0  0  0
  152.6969  141.9413  159.2681 C   0  0  0  0  0  0  0  0  0  0  0  0
  151.4201  141.4412  158.6038 C   0  0  0  0  0  0  0  0  0  0  0  0
  150.9874  142.6063  157.7082 C   0  0  1  0  0  0  0  0  0  0  0  0
  149.6109  142.8542  157.9441 O   0  0  0  0  0  0  0  0  0  0  0  0
  151.1718  142.2863  156.2039 C   0  0  0  0  0  0  0  0  0  0  0  0
  150.7346  140.9475  155.8360 N   0  0  0  0  0  0  0  0  0  0  0  0
  149.4754  140.5750  155.4243 C   0  0  0  0  0  0  0  0  0  0  0  0
  149.3347  139.3097  155.1412 N   0  0  0  0  0  0  0  0  0  0  0  0
  150.5861  138.7591  155.3914 C   0  0  0  0  0  0  0  0  0  0  0  0
  151.1363  137.4476  155.2961 C   0  0  0  0  0  0  0  0  0  0  0  0
  150.4261  136.3579  154.8946 N   0  0  0  0  0  0  0  0  0  0  0  0
  151.0379  135.0357  154.8580 C   0  0  2  0  0  0  0  0  0  0  0  0
  149.9549  134.1966  154.1604 C   0  0  0  0  0  0  0  0  0  0  0  0
  148.6761  134.8478  154.7084 C   0  0  0  0  0  0  0  0  0  0  0  0
  149.2574  135.9241  155.6464 C   0  0  1  0  0  0  0  0  0  0  0  0
  149.8730  135.3004  156.9256 C   0  0  1  0  0  0  0  0  0  0  0  0
  148.9676  134.3903  157.7764 C   0  0  0  0  0  0  0  0  0  0  0  0
  149.7255  133.7401  158.7738 O   0  0  0  0  0  0  0  0  0  0  0  0
  151.1160  134.6064  156.3398 C   0  0  0  0  0  0  0  0  0  0  0  0
  152.4526  137.3024  155.6045 N   0  0  0  0  0  0  0  0  0  0  0  0
  153.1756  138.3510  156.0063 C   0  0  0  0  0  0  0  0  0  0  0  0
  152.7916  139.6188  156.1578 N   0  0  0  0  0  0  0  0  0  0  0  0
  151.4786  139.7800  155.8283 C   0  0  0  0  0  0  0  0  0  0  0  0
  150.7388  145.4912  157.4647 H   0  0  0  0  0  0  0  0  0  0  0  0
  151.9156  145.8950  158.7093 H   0  0  0  0  0  0  0  0  0  0  0  0
  150.4141  145.0960  159.1545 H   0  0  0  0  0  0  0  0  0  0  0  0
  152.7135  143.9098  157.5109 H   0  0  0  0  0  0  0  0  0  0  0  0
  153.5624  141.7886  158.6210 H   0  0  0  0  0  0  0  0  0  0  0  0
  152.8913  141.4595  160.2264 H   0  0  0  0  0  0  0  0  0  0  0  0
  151.5750  140.5080  158.0611 H   0  0  0  0  0  0  0  0  0  0  0  0
  150.6775  141.2460  159.3795 H   0  0  0  0  0  0  0  0  0  0  0  0
  149.3365  143.5721  157.3945 H   0  0  0  0  0  0  0  0  0  0  0  0
  150.6175  143.0051  155.5990 H   0  0  0  0  0  0  0  0  0  0  0  0
  152.2186  142.3940  155.9168 H   0  0  0  0  0  0  0  0  0  0  0  0
  148.6602  141.2775  155.3308 H   0  0  0  0  0  0  0  0  0  0  0  0
  151.9970  134.9870  154.3409 H   0  0  0  0  0  0  0  0  0  0  0  0
  150.0088  134.3107  153.0770 H   0  0  0  0  0  0  0  0  0  0  0  0
  150.0265  133.1339  154.3947 H   0  0  0  0  0  0  0  0  0  0  0  0
  148.1172  135.3158  153.8970 H   0  0  0  0  0  0  0  0  0  0  0  0
  148.0067  134.1432  155.1992 H   0  0  0  0  0  0  0  0  0  0  0  0
  148.5298  136.7039  155.8643 H   0  0  0  0  0  0  0  0  0  0  0  0
  150.2124  136.1151  157.5683 H   0  0  0  0  0  0  0  0  0  0  0  0
  148.1484  134.9398  158.2381 H   0  0  0  0  0  0  0  0  0  0  0  0
  148.5117  133.6294  157.1429 H   0  0  0  0  0  0  0  0  0  0  0  0
  149.3147  132.9124  158.9716 H   0  0  0  0  0  0  0  0  0  0  0  0
  151.1018  133.5220  156.4572 H   0  0  0  0  0  0  0  0  0  0  0  0
  152.0232  134.9801  156.8159 H   0  0  0  0  0  0  0  0  0  0  0  0
  154.2096  138.1445  156.2394 H   0  0  0  0  0  0  0  0  0  0  0  0
  1  2  1  0  0  0  0
  1 27  1  0  0  0  0
  1 28  1  0  0  0  0
  1 29  1  0  0  0  0
  2  6  1  0  0  0  0
  2  3  1  0  0  0  0
  2 30  1  0  0  0  0
  3  4  1  0  0  0  0
  4  5  1  0  0  0  0
  4 31  1  0  0  0  0
  4 32  1  0  0  0  0
  5  6  1  0  0  0  0
  5 33  1  0  0  0  0
  5 34  1  0  0  0  0
  6  7  1  0  0  0  0
  6  8  1  0  0  0  0
  7 35  1  0  0  0  0
  8  9  1  0  0  0  0
  8 36  1  0  0  0  0
  8 37  1  0  0  0  0
  9 26  1  0  0  0  0
  9 10  1  0  0  0  0
 10 11  2  0  0  0  0
 10 38  1  0  0  0  0
 11 12  1  0  0  0  0
 12 26  2  0  0  0  0
 12 13  1  0  0  0  0
 13 14  1  0  0  0  0
 13 23  2  0  0  0  0
 14 18  1  0  0  0  0
 14 15  1  0  0  0  0
 15 22  1  0  0  0  0
 15 16  1  0  0  0  0
 15 39  1  0  0  0  0
 16 17  1  0  0  0  0
 16 40  1  0  0  0  0
 16 41  1  0  0  0  0
 17 18  1  0  0  0  0
 17 42  1  0  0  0  0
 17 43  1  0  0  0  0
 18 19  1  0  0  0  0
 18 44  1  0  0  0  0
 19 20  1  0  0  0  0
 19 22  1  0  0  0  0
 19 45  1  0  0  0  0
 20 21  1  0  0  0  0
 20 46  1  0  0  0  0
 20 47  1  0  0  0  0
 21 48  1  0  0  0  0
 22 49  1  0  0  0  0
 22 50  1  0  0  0  0
 23 24  1  0  0  0  0
 24 25  2  0  0  0  0
 24 51  1  0  0  0  0
 25 26  1  0  0  0  0
M  END
> <s_m_source_file>
AV-unprocessed.smi

> <i_m_source_file_index>
199

> <i_lp_mmshare_version>
43012

> <i_f3d_flags>
0

> <s_epik_input>
W0NIMl0xW0NIMl1PW0NAQEhdKFtDSDNdKVtDQEBdMShbT0hdKVtDSDJdbihbY0hdbjIpYyhjMjMpbltjSF1uYzNOKFtDQEBIXTQ1KVtDQEhdKFtDSDJdW0NIMl00KVtDQEhdKFtDSDJdNSlbQ0gyXVtPSF0=

> <s_epik_cmdline>
J2VwaWtfcHl0aG9uJywgJy1waCcsICc3LjAnLCAnLXRuJywgJzgnLCAnLW1hJywgJzIwMCcsICctbWV0YWxfYmluZGluZycsICctaW1hZScsICc8aW5maWxlLm1hZT4nLCAnLW9tYWUnLCAnPG91dGZpbGUubWFlPic=

> <r_lp_tautomer_probability>
1

> <r_epik_Ionization_Penalty>
0.00583903

> <r_epik_Ionization_Penalty_Charging>
0

> <r_epik_Ionization_Penalty_Neutral>
0.00583903

> <r_epik_State_Penalty>
-0

> <r_epik_Charging_Adjusted_Penalty>
0

> <i_epik_Tot_Q>
0

> <i_epik_Tot_abs_Q>
0

> <r_epik_Metal_State_Penalty>
-0

> <b_epik_Metal_Only>
0

> <s_lp_Force_Field>
OPLS_2005

> <r_lp_Energy>
84.4473

> <b_lp_Chiralities_Consistent>
1

> <s_lp_Variant>
AV-unprocessed.smi:199-6

> <Gold.Version>
5.8.1

> <Gold.Id.Protein>
6NUR|6NUR_protein|mol2

> <Gold.PLP.Fitness>
48.3033

> <Gold.PLP.PLP>
-37.5808

> <Gold.PLP.part.hbond>
-4.0000

> <Gold.PLP.part.metal>
0.0000

> <Gold.PLP.part.buried>
-6.6273

> <Gold.PLP.part.nonpolar>
-27.6619

> <Gold.PLP.part.repulsive>
0.2580

> <Gold.PLP.ligand.clash>
0.0000

> <Gold.PLP.ligand.torsion>
0.6406

> <Gold.PLP.Chemscore.Hbond>
3.9920

> <Gold.PLP.Chemscore.CHOScore>
0.0000

> <Gold.PLP.Chemscore.Metal>
0.0000

> <Gold.Chemscore.Hbonds>
donor molecule, donor type, donor heavy atom, donor atom, acceptor molecule, acceptor atom, score
      L1  H     7    35       P1  8028  0.80
      P1  H  6896  6909       L1    21  0.06
      P1  H  7997  8010       L1    25  0.60
      P1  H 10752 10765       L1    23  0.72

> <Gold.PLP.Chemscore.Internal.Correction>
0.0277

> <Gold.Rescore>
     Score         DG    S(hbond)    S(metal)    S(lipo)     H(rot)  DE(clash)    DE(int)     intcor
     16.49     -19.38       3.34        0.00      90.55       3.07       1.69       1.20       ----

> <Gold.Chemscore.Fitness>
16.4857

> <Gold.Chemscore.DG>
-19.3757

> <Gold.Chemscore.ZeroCoef>
-5.4800

> <Gold.Chemscore.Hbond>
3.3437

> <Gold.Chemscore.Metal>
0.0000

> <Gold.Chemscore.Lipo>
90.5502

> <Gold.Chemscore.Internal_Hbond>
0.0000

> <Gold.Chemscore.DEClash>
1.6915

> <Gold.Chemscore.DEInternal>
1.1984

> <Gold.Chemscore.Rot>
3.0729

> <Gold.Chemscore.Internal.Correction>
   9.000000E+99

> <Gold.Chemscore.Hbonds>
donor molecule, donor type, donor heavy atom, donor atom, acceptor molecule, acceptor atom, score
      L1  H     7    35       P1  8028  0.43
      P1  H  6896  6909       L1    21  0.10
      P1  H  7997  8010       L1    25  0.04
      P1  H 10752 10765       L1    23  0.49

> <Gold.Chemscore.Hbond.Weighted>
-11.1681

> <Gold.Chemscore.Metal.Weighted>
-0.0000

> <Gold.Chemscore.Lipo.Weighted>
-10.5944

> <Gold.Chemscore.Internal_Hbond.Weighted>
0.0000

> <Gold.Chemscore.DEClash.Weighted>
1.6915

> <Gold.Chemscore.DEInternal.Weighted>
1.1984

> <Gold.Chemscore.Rot.Weighted>
7.8667

> <Gold.Chemscore.Internal.Correction.Weighted>
   9.000000E+99

> <Gold.Protein.RotatedTorsions>
[ 6907 6896 6895 6894 ] final   21.58 input  -60.11 | X-H torsion
[ 7974 7965 7964 7962 ] final  146.81 input  175.53 | X-H torsion
[ 8008 7997 7996 7995 ] final   66.96 input   59.86 | X-H torsion
[ 10167 10162 10161 10158 ] final   21.30 input  -65.29 | X-H torsion
[ 10718 10713 10712 10709 ] final   90.59 input   66.30 | X-H torsion
[ 10763 10752 10751 10750 ] final -160.26 input  -60.55 | X-H torsion
[ 11005 11000 10999 10996 ] final    8.86 input  -57.11 | X-H torsion

> <Gold.Protein.ActiveResidues>
 VAL166  LYS551  ARG553  GLY616  TRP617  ASP618  TYR619  PRO620  LYS621  CYS622 
 ASP623  PHE694  ASN695  SER759  ASP760  ASP761  ALA762  ILE779  LEU786  VAL792 
 PHE793  MET794  SER795  GLU796  ALA797  LYS798  CYS799  TRP800  GLU811  SER814 

> <Gold.Protein.RotatedAtoms>
  151.9139  135.0327  160.0516 H   0  0  0  0  0  0  0  0  0  0  0  0  # atno 6907 bound_to 6896
  152.2256  133.5013  159.5195 H   0  0  0  0  0  0  0  0  0  0  0  0  # atno 6908 bound_to 6896
  150.7011  134.1201  159.4074 H   0  0  0  0  0  0  0  0  0  0  0  0  # atno 6909 bound_to 6896
  144.8641  139.5951  143.5917 H   0  0  0  0  0  0  0  0  0  0  0  0  # atno 7974 bound_to 7965
  155.6854  140.3496  155.4872 H   0  0  0  0  0  0  0  0  0  0  0  0  # atno 8008 bound_to 7997
  155.9570  140.1130  157.0951 H   0  0  0  0  0  0  0  0  0  0  0  0  # atno 8009 bound_to 7997
  154.4134  140.1183  156.5114 H   0  0  0  0  0  0  0  0  0  0  0  0  # atno 8010 bound_to 7997
  140.5437  143.9631  150.6535 H   0  0  0  0  0  0  0  0  0  0  0  0  # atno 10167 bound_to 10162
  157.6959  131.0376  150.3600 H   0  0  0  0  0  0  0  0  0  0  0  0  # atno 10718 bound_to 10713
  154.7406  135.3067  154.8735 H   0  0  0  0  0  0  0  0  0  0  0  0  # atno 10763 bound_to 10752
  153.9551  135.6759  153.4748 H   0  0  0  0  0  0  0  0  0  0  0  0  # atno 10764 bound_to 10752
  153.1005  135.4914  154.8782 H   0  0  0  0  0  0  0  0  0  0  0  0  # atno 10765 bound_to 10752
  140.5322  134.0455  155.7877 H   0  0  0  0  0  0  0  0  0  0  0  0  # atno 11005 bound_to 11000
  146.2883  139.7065  142.9180 LP  0  0  0  0  0  0  0  0  0  0  0  0  # atno 17320 bound_to 7965
  145.4255  141.0410  143.2940 LP  0  0  0  0  0  0  0  0  0  0  0  0  # atno 17321 bound_to 7965
  140.3039  143.3242  152.0945 LP  0  0  0  0  0  0  0  0  0  0  0  0  # atno 17342 bound_to 10162
  139.4999  144.6679  151.6312 LP  0  0  0  0  0  0  0  0  0  0  0  0  # atno 17343 bound_to 10162
  156.4038  130.3921  149.6941 LP  0  0  0  0  0  0  0  0  0  0  0  0  # atno 17370 bound_to 10713
  156.4249  130.7787  151.2805 LP  0  0  0  0  0  0  0  0  0  0  0  0  # atno 17371 bound_to 10713
  141.1275  133.9359  157.2605 LP  0  0  0  0  0  0  0  0  0  0  0  0  # atno 17394 bound_to 11000
  139.9548  135.0168  156.9097 LP  0  0  0  0  0  0  0  0  0  0  0  0  # atno 17395 bound_to 11000

$$$$
