AV-unprocessed.smi:375|AV-procd|sdf|2453|dock4
  -GOLD-   2262022393D 1   1.00000     0.00000
 Structure written by MMmdl.
 36 38  0  0  0  0  0  0  0  0  1 V2000
  153.8586  140.6473  160.2182 C   0  0  0  0  0  0  0  0  0  0  0  0
  152.9080  141.3495  159.3649 N   0  0  0  0  0  0  0  0  0  0  0  0
  152.3857  140.9147  158.1944 C   0  0  0  0  0  0  0  0  0  0  0  0
  152.6335  139.8412  157.6456 O   0  0  0  0  0  0  0  0  0  0  0  0
  151.5574  141.8771  157.7213 N   0  0  0  0  0  0  0  0  0  0  0  0
  150.8168  141.8563  156.4592 C   0  0  0  0  0  0  0  0  0  0  0  0
  150.5337  140.4211  155.9652 C   0  0  2  0  0  0  0  0  0  0  0  0
  151.6866  139.9481  155.2988 O   0  0  0  0  0  0  0  0  0  0  0  0
  149.2815  140.3283  155.0992 C   0  0  0  0  0  0  0  0  0  0  0  0
  148.5447  141.4935  154.7908 C   0  0  0  0  0  0  0  0  0  0  0  0
  147.3757  141.4117  154.0100 C   0  0  0  0  0  0  0  0  0  0  0  0
  146.9319  140.1632  153.5358 C   0  0  0  0  0  0  0  0  0  0  0  0
  147.6578  138.9969  153.8431 C   0  0  0  0  0  0  0  0  0  0  0  0
  148.8288  139.0764  154.6218 C   0  0  0  0  0  0  0  0  0  0  0  0
  149.5073  137.9415  154.9167 F   0  0  0  0  0  0  0  0  0  0  0  0
  151.5564  142.9589  158.6133 C   0  0  0  0  0  0  0  0  0  0  0  0
  150.8791  144.1899  158.5739 C   0  0  0  0  0  0  0  0  0  0  0  0
  151.1047  145.0860  159.6451 C   0  0  0  0  0  0  0  0  0  0  0  0
  151.9797  144.7426  160.7085 C   0  0  0  0  0  0  0  0  0  0  0  0
  152.6483  143.4959  160.7233 C   0  0  0  0  0  0  0  0  0  0  0  0
  152.4068  142.6264  159.6460 C   0  0  0  0  0  0  0  0  0  0  0  0
  154.1704  139.6947  159.7882 H   0  0  0  0  0  0  0  0  0  0  0  0
  153.4125  140.4478  161.1928 H   0  0  0  0  0  0  0  0  0  0  0  0
  154.7508  141.2557  160.3687 H   0  0  0  0  0  0  0  0  0  0  0  0
  149.8780  142.4003  156.5766 H   0  0  0  0  0  0  0  0  0  0  0  0
  151.3877  142.4051  155.7092 H   0  0  0  0  0  0  0  0  0  0  0  0
  150.4055  139.7723  156.8317 H   0  0  0  0  0  0  0  0  0  0  0  0
  151.6504  139.0041  155.2721 H   0  0  0  0  0  0  0  0  0  0  0  0
  148.8706  142.4555  155.1585 H   0  0  0  0  0  0  0  0  0  0  0  0
  146.8180  142.3070  153.7782 H   0  0  0  0  0  0  0  0  0  0  0  0
  146.0340  140.0999  152.9390 H   0  0  0  0  0  0  0  0  0  0  0  0
  147.3146  138.0382  153.4835 H   0  0  0  0  0  0  0  0  0  0  0  0
  150.2155  144.4454  157.7612 H   0  0  0  0  0  0  0  0  0  0  0  0
  150.6053  146.0435  159.6531 H   0  0  0  0  0  0  0  0  0  0  0  0
  152.1377  145.4417  161.5164 H   0  0  0  0  0  0  0  0  0  0  0  0
  153.3167  143.2271  161.5280 H   0  0  0  0  0  0  0  0  0  0  0  0
  1  2  1  0  0  0  0
  1 22  1  0  0  0  0
  1 23  1  0  0  0  0
  1 24  1  0  0  0  0
  2 21  1  0  0  0  0
  2  3  1  0  0  0  0
  3  4  2  0  0  0  0
  3  5  1  0  0  0  0
  5  6  1  0  0  0  0
  5 16  1  0  0  0  0
  6  7  1  0  0  0  0
  6 25  1  0  0  0  0
  6 26  1  0  0  0  0
  7  8  1  0  0  0  0
  7  9  1  0  0  0  0
  7 27  1  0  0  0  0
  8 28  1  0  0  0  0
  9 14  1  0  0  0  0
  9 10  2  0  0  0  0
 10 11  1  0  0  0  0
 10 29  1  0  0  0  0
 11 12  2  0  0  0  0
 11 30  1  0  0  0  0
 12 13  1  0  0  0  0
 12 31  1  0  0  0  0
 13 14  2  0  0  0  0
 13 32  1  0  0  0  0
 14 15  1  0  0  0  0
 16 21  2  0  0  0  0
 16 17  1  0  0  0  0
 17 18  2  0  0  0  0
 17 33  1  0  0  0  0
 18 19  1  0  0  0  0
 18 34  1  0  0  0  0
 19 20  2  0  0  0  0
 19 35  1  0  0  0  0
 20 21  1  0  0  0  0
 20 36  1  0  0  0  0
M  END
> <s_m_source_file>
AV-unprocessed.smi

> <i_m_source_file_index>
375

> <i_lp_mmshare_version>
43012

> <i_f3d_flags>
0

> <s_epik_input>
W2NIXTFbY0hdW2NIXVtjSF1jKGMxMiluKFtDSDNdKWMoPU8pbjJbQ0gyXVtDQEhdKFtPSF0pYzNbY0hdW2NIXVtjSF1bY0hdYzNG

> <s_epik_cmdline>
J2VwaWtfcHl0aG9uJywgJy1waCcsICc3LjAnLCAnLXRuJywgJzgnLCAnLW1hJywgJzIwMCcsICctbWV0YWxfYmluZGluZycsICctaW1hZScsICc8aW5maWxlLm1hZT4nLCAnLW9tYWUnLCAnPG91dGZpbGUubWFlPic=

> <r_lp_tautomer_probability>
1

> <r_epik_Ionization_Penalty>
1.34619e-06

> <r_epik_Ionization_Penalty_Charging>
2.57375e-09

> <r_epik_Ionization_Penalty_Neutral>
1.34362e-06

> <r_epik_State_Penalty>
-0

> <r_epik_Charging_Adjusted_Penalty>
2.57375e-09

> <i_epik_Tot_Q>
0

> <i_epik_Tot_abs_Q>
0

> <r_epik_Metal_State_Penalty>
-0

> <b_epik_Metal_Only>
0

> <s_lp_Force_Field>
OPLS_2005

> <r_lp_Energy>
41.1048

> <b_lp_Chiralities_Consistent>
1

> <s_lp_Variant>
AV-unprocessed.smi:375-1

> <Gold.Version>
5.8.1

> <Gold.Id.Protein>
6NUR|6NUR_protein|mol2

> <Gold.PLP.Fitness>
56.4360

> <Gold.PLP.PLP>
-51.9188

> <Gold.PLP.part.hbond>
-2.0000

> <Gold.PLP.part.metal>
0.0000

> <Gold.PLP.part.buried>
-5.6377

> <Gold.PLP.part.nonpolar>
-44.3905

> <Gold.PLP.part.repulsive>
0.0000

> <Gold.PLP.ligand.clash>
0.0000

> <Gold.PLP.ligand.torsion>
0.6204

> <Gold.PLP.Chemscore.Hbond>
1.9120

> <Gold.PLP.Chemscore.CHOScore>
0.0000

> <Gold.PLP.Chemscore.Metal>
0.0000

> <Gold.Chemscore.Hbonds>
donor molecule, donor type, donor heavy atom, donor atom, acceptor molecule, acceptor atom, score
      P1  H  7989  7998       L1     8  0.99
      P1  H  7997  8010       L1     4  0.92

> <Gold.PLP.Chemscore.Internal.Correction>
0.0220

> <Gold.Rescore>
     Score         DG    S(hbond)    S(metal)    S(lipo)     H(rot)  DE(clash)    DE(int)     intcor
     17.94     -20.41       1.67        0.00     120.32       1.85       0.03       2.43       ----

> <Gold.Chemscore.Fitness>
17.9417

> <Gold.Chemscore.DG>
-20.4069

> <Gold.Chemscore.ZeroCoef>
-5.4800

> <Gold.Chemscore.Hbond>
1.6695

> <Gold.Chemscore.Metal>
0.0000

> <Gold.Chemscore.Lipo>
120.3245

> <Gold.Chemscore.Internal_Hbond>
0.0000

> <Gold.Chemscore.DEClash>
0.0327

> <Gold.Chemscore.DEInternal>
2.4326

> <Gold.Chemscore.Rot>
1.8465

> <Gold.Chemscore.Internal.Correction>
   9.000000E+99

> <Gold.Chemscore.Hbonds>
donor molecule, donor type, donor heavy atom, donor atom, acceptor molecule, acceptor atom, score
      P1  H  7989  7998       L1     8  0.41
      P1  H  7997  8010       L1     4  0.50

> <Gold.Chemscore.Hbond.Weighted>
-5.5760

> <Gold.Chemscore.Metal.Weighted>
-0.0000

> <Gold.Chemscore.Lipo.Weighted>
-14.0780

> <Gold.Chemscore.Internal_Hbond.Weighted>
0.0000

> <Gold.Chemscore.DEClash.Weighted>
0.0327

> <Gold.Chemscore.DEInternal.Weighted>
2.4326

> <Gold.Chemscore.Rot.Weighted>
4.7270

> <Gold.Chemscore.Internal.Correction.Weighted>
   9.000000E+99

> <Gold.Protein.RotatedTorsions>
[ 6907 6896 6895 6894 ] final   89.54 input  -60.11 | X-H torsion
[ 7974 7965 7964 7962 ] final -137.39 input  175.53 | X-H torsion
[ 8008 7997 7996 7995 ] final   67.47 input   59.86 | X-H torsion
[ 10167 10162 10161 10158 ] final -167.08 input  -65.29 | X-H torsion
[ 10718 10713 10712 10709 ] final   31.55 input   66.30 | X-H torsion
[ 10763 10752 10751 10750 ] final -129.29 input  -60.55 | X-H torsion
[ 11005 11000 10999 10996 ] final   41.31 input  -57.11 | X-H torsion

> <Gold.Protein.ActiveResidues>
 VAL166  LYS551  ARG553  GLY616  TRP617  ASP618  TYR619  PRO620  LYS621  CYS622 
 ASP623  PHE694  ASN695  SER759  ASP760  ASP761  ALA762  ILE779  LEU786  VAL792 
 PHE793  MET794  SER795  GLU796  ALA797  LYS798  CYS799  TRP800  GLU811  SER814 

> <Gold.Protein.RotatedAtoms>
  152.5437  134.1950  159.8689 H   0  0  0  0  0  0  0  0  0  0  0  0  # atno 6907 bound_to 6896
  151.1943  133.4641  159.2603 H   0  0  0  0  0  0  0  0  0  0  0  0  # atno 6908 bound_to 6896
  151.1052  135.0007  159.8523 H   0  0  0  0  0  0  0  0  0  0  0  0  # atno 6909 bound_to 6896
  144.8846  140.6556  143.5184 H   0  0  0  0  0  0  0  0  0  0  0  0  # atno 7974 bound_to 7965
  155.6933  140.3496  155.4902 H   0  0  0  0  0  0  0  0  0  0  0  0  # atno 8008 bound_to 7997
  155.9505  140.1118  157.1003 H   0  0  0  0  0  0  0  0  0  0  0  0  # atno 8009 bound_to 7997
  154.4121  140.1195  156.5032 H   0  0  0  0  0  0  0  0  0  0  0  0  # atno 8010 bound_to 7997
  139.6073  144.0887  152.1806 H   0  0  0  0  0  0  0  0  0  0  0  0  # atno 10167 bound_to 10162
  157.2739  130.7221  149.6519 H   0  0  0  0  0  0  0  0  0  0  0  0  # atno 10718 bound_to 10713
  154.8757  135.3900  154.3896 H   0  0  0  0  0  0  0  0  0  0  0  0  # atno 10763 bound_to 10752
  153.4633  135.7029  153.6042 H   0  0  0  0  0  0  0  0  0  0  0  0  # atno 10764 bound_to 10752
  153.4531  135.3829  155.2264 H   0  0  0  0  0  0  0  0  0  0  0  0  # atno 10765 bound_to 10752
  140.1846  134.4061  155.8180 H   0  0  0  0  0  0  0  0  0  0  0  0  # atno 11005 bound_to 11000
  145.3893  139.1620  143.4238 LP  0  0  0  0  0  0  0  0  0  0  0  0  # atno 17320 bound_to 7965
  146.3016  140.3980  142.8702 LP  0  0  0  0  0  0  0  0  0  0  0  0  # atno 17321 bound_to 7965
  140.0497  144.5942  150.7346 LP  0  0  0  0  0  0  0  0  0  0  0  0  # atno 17342 bound_to 10162
  140.7294  143.2672  151.4006 LP  0  0  0  0  0  0  0  0  0  0  0  0  # atno 17343 bound_to 10162
  155.9663  130.4359  150.5111 LP  0  0  0  0  0  0  0  0  0  0  0  0  # atno 17370 bound_to 10713
  157.3041  131.0651  151.2048 LP  0  0  0  0  0  0  0  0  0  0  0  0  # atno 17371 bound_to 10713
  141.2224  133.7017  156.7990 LP  0  0  0  0  0  0  0  0  0  0  0  0  # atno 17394 bound_to 11000
  140.2228  134.8744  157.3395 LP  0  0  0  0  0  0  0  0  0  0  0  0  # atno 17395 bound_to 11000

$$$$
