AV-unprocessed.smi:1204|AV-procd|sdf|5037|dock7
  -GOLD-   22720 4 63D 1   1.00000     0.00000
 Structure written by MMmdl.
 27 28  0  0  0  0  0  0  0  0  1 V2000
  150.5443  141.5004  158.0942 O   0  0  0  0  0  0  0  0  0  0  0  0
  151.6482  141.1056  157.7164 C   0  0  0  0  0  0  0  0  0  0  0  0
  152.7720  141.1760  158.4557 N   0  0  0  0  0  0  0  0  0  0  0  0
  152.9316  141.6705  159.7773 C   0  0  0  0  0  0  0  0  0  0  0  0
  152.1713  142.8225  160.0804 C   0  0  0  0  0  0  0  0  0  0  0  0
  152.2576  143.3915  161.3658 C   0  0  0  0  0  0  0  0  0  0  0  0
  153.1031  142.7928  162.3166 C   0  0  0  0  0  0  0  0  0  0  0  0
  153.8256  141.6478  161.9334 C   0  0  0  0  0  0  0  0  0  0  0  0
  153.7445  141.1008  160.7019 N   0  0  0  0  0  0  0  0  0  0  0  0
  151.8088  140.5129  156.3078 C   0  0  2  0  0  0  0  0  0  0  0  0
  150.4548  140.1977  155.6301 C   0  0  0  0  0  0  0  0  0  0  0  0
  150.6908  139.6223  154.3513 O   0  0  0  0  0  0  0  0  0  0  0  0
  151.4410  138.4204  154.4538 C   0  0  0  0  0  0  0  0  0  0  0  0
  152.7932  138.7320  155.1152 C   0  0  0  0  0  0  0  0  0  0  0  0
  152.5611  139.3042  156.3953 O   0  0  0  0  0  0  0  0  0  0  0  0
  153.6106  140.8221  158.0189 H   0  0  0  0  0  0  0  0  0  0  0  0
  151.5264  143.2698  159.3377 H   0  0  0  0  0  0  0  0  0  0  0  0
  151.6844  144.2717  161.6170 H   0  0  0  0  0  0  0  0  0  0  0  0
  153.1959  143.1998  163.3127 H   0  0  0  0  0  0  0  0  0  0  0  0
  154.4856  141.1575  162.6335 H   0  0  0  0  0  0  0  0  0  0  0  0
  152.3614  141.2377  155.7075 H   0  0  0  0  0  0  0  0  0  0  0  0
  149.8550  139.5191  156.2396 H   0  0  0  0  0  0  0  0  0  0  0  0
  149.8701  141.1077  155.4915 H   0  0  0  0  0  0  0  0  0  0  0  0
  150.8873  137.6769  155.0294 H   0  0  0  0  0  0  0  0  0  0  0  0
  151.5924  138.0084  153.4561 H   0  0  0  0  0  0  0  0  0  0  0  0
  153.3770  137.8192  155.2342 H   0  0  0  0  0  0  0  0  0  0  0  0
  153.3815  139.4129  154.4979 H   0  0  0  0  0  0  0  0  0  0  0  0
  1  2  2  0  0  0  0
  2  3  1  0  0  0  0
  2 10  1  0  0  0  0
  3  4  1  0  0  0  0
  3 16  1  0  0  0  0
  4  9  1  0  0  0  0
  4  5  2  0  0  0  0
  5  6  1  0  0  0  0
  5 17  1  0  0  0  0
  6  7  2  0  0  0  0
  6 18  1  0  0  0  0
  7  8  1  0  0  0  0
  7 19  1  0  0  0  0
  8  9  2  0  0  0  0
  8 20  1  0  0  0  0
 10 15  1  0  0  0  0
 10 11  1  0  0  0  0
 10 21  1  0  0  0  0
 11 12  1  0  0  0  0
 11 22  1  0  0  0  0
 11 23  1  0  0  0  0
 12 13  1  0  0  0  0
 13 14  1  0  0  0  0
 13 24  1  0  0  0  0
 13 25  1  0  0  0  0
 14 15  1  0  0  0  0
 14 26  1  0  0  0  0
 14 27  1  0  0  0  0
M  END
> <s_m_source_file>
AV-unprocessed.smi

> <i_m_source_file_index>
1204

> <i_lp_mmshare_version>
43012

> <i_f3d_flags>
0

> <s_epik_input>
TzFbQ0gyXVtDSDJdT1tDSDJdW0NASF0xQyg9TylbTkhdYzJbY0hdW2NIXVtjSF1bY0hdbjI=

> <s_epik_cmdline>
J2VwaWtfcHl0aG9uJywgJy1waCcsICc3LjAnLCAnLXRuJywgJzgnLCAnLW1hJywgJzIwMCcsICctbWV0YWxfYmluZGluZycsICctaW1hZScsICc8aW5maWxlLm1hZT4nLCAnLW9tYWUnLCAnPG91dGZpbGUubWFlPic=

> <r_epik_Ionization_Penalty>
0.0014012

> <r_epik_Ionization_Penalty_Charging>
0

> <r_epik_Ionization_Penalty_Neutral>
0.0014012

> <r_epik_State_Penalty>
0.00242437

> <r_epik_Charging_Adjusted_Penalty>
0.00242437

> <i_epik_Tot_Q>
0

> <i_epik_Tot_abs_Q>
0

> <r_epik_Metal_State_Penalty>
-0

> <b_epik_Metal_Only>
0

> <s_lp_Force_Field>
OPLS_2005

> <r_lp_Energy>
11.5524

> <b_lp_Chiralities_Consistent>
1

> <s_lp_Variant>
AV-unprocessed.smi:1204-1

> <Gold.Version>
5.8.1

> <Gold.Id.Protein>
6NUR|6NUR_protein|mol2

> <Gold.PLP.Fitness>
39.8641

> <Gold.PLP.PLP>
-35.1693

> <Gold.PLP.part.hbond>
-2.0000

> <Gold.PLP.part.metal>
0.0000

> <Gold.PLP.part.buried>
-4.1068

> <Gold.PLP.part.nonpolar>
-28.1808

> <Gold.PLP.part.repulsive>
0.2624

> <Gold.PLP.ligand.clash>
0.0000

> <Gold.PLP.ligand.torsion>
0.5785

> <Gold.PLP.Chemscore.Hbond>
1.9500

> <Gold.PLP.Chemscore.CHOScore>
0.0000

> <Gold.PLP.Chemscore.Metal>
0.0000

> <Gold.Chemscore.Hbonds>
donor molecule, donor type, donor heavy atom, donor atom, acceptor molecule, acceptor atom, score
      P1  H  7989  7998       L1    12  1.00
      P1  H  7997  8008       L1    15  0.90

> <Gold.PLP.Chemscore.Internal.Correction>
0.0018

> <Gold.Rescore>
     Score         DG    S(hbond)    S(metal)    S(lipo)     H(rot)  DE(clash)    DE(int)     intcor
     12.82     -14.43       0.82        0.00      74.94       1.00       0.04       1.58       ----

> <Gold.Chemscore.Fitness>
12.8180

> <Gold.Chemscore.DG>
-14.4337

> <Gold.Chemscore.ZeroCoef>
-5.4800

> <Gold.Chemscore.Hbond>
0.8219

> <Gold.Chemscore.Metal>
0.0000

> <Gold.Chemscore.Lipo>
74.9438

> <Gold.Chemscore.Internal_Hbond>
0.0000

> <Gold.Chemscore.DEClash>
0.0398

> <Gold.Chemscore.DEInternal>
1.5758

> <Gold.Chemscore.Rot>
1.0000

> <Gold.Chemscore.Internal.Correction>
   9.000000E+99

> <Gold.Chemscore.Hbonds>
donor molecule, donor type, donor heavy atom, donor atom, acceptor molecule, acceptor atom, score
      P1  H  7989  7998       L1    12  0.33
      P1  H  7997  8008       L1    15  0.04

> <Gold.Chemscore.Hbond.Weighted>
-2.7452

> <Gold.Chemscore.Metal.Weighted>
-0.0000

> <Gold.Chemscore.Lipo.Weighted>
-8.7684

> <Gold.Chemscore.Internal_Hbond.Weighted>
0.0000

> <Gold.Chemscore.DEClash.Weighted>
0.0398

> <Gold.Chemscore.DEInternal.Weighted>
1.5758

> <Gold.Chemscore.Rot.Weighted>
2.5600

> <Gold.Chemscore.Internal.Correction.Weighted>
   9.000000E+99

> <Gold.Protein.RotatedTorsions>
[ 6907 6896 6895 6894 ] final   56.38 input  -60.11 | X-H torsion
[ 7974 7965 7964 7962 ] final -125.26 input  175.53 | X-H torsion
[ 8008 7997 7996 7995 ] final  -67.24 input   59.86 | X-H torsion
[ 10167 10162 10161 10158 ] final -179.95 input  -65.29 | X-H torsion
[ 10718 10713 10712 10709 ] final -114.00 input   66.30 | X-H torsion
[ 10763 10752 10751 10750 ] final  132.50 input  -60.55 | X-H torsion
[ 11005 11000 10999 10996 ] final  127.43 input  -57.11 | X-H torsion

> <Gold.Protein.ActiveResidues>
 VAL166  LYS551  ARG553  GLY616  TRP617  ASP618  TYR619  PRO620  LYS621  CYS622 
 ASP623  PHE694  ASN695  SER759  ASP760  ASP761  ALA762  ILE779  LEU786  VAL792 
 PHE793  MET794  SER795  GLU796  ALA797  LYS798  CYS799  TRP800  GLU811  SER814 

> <Gold.Protein.RotatedAtoms>
  152.3630  134.6844  160.0200 H   0  0  0  0  0  0  0  0  0  0  0  0  # atno 6907 bound_to 6896
  151.7161  133.3308  159.3311 H   0  0  0  0  0  0  0  0  0  0  0  0  # atno 6908 bound_to 6896
  150.7618  134.6423  159.6288 H   0  0  0  0  0  0  0  0  0  0  0  0  # atno 6909 bound_to 6896
  144.9994  140.7807  143.4505 H   0  0  0  0  0  0  0  0  0  0  0  0  # atno 7974 bound_to 7965
  154.4787  140.0896  156.7324 H   0  0  0  0  0  0  0  0  0  0  0  0  # atno 8008 bound_to 7997
  155.4528  140.3458  155.4284 H   0  0  0  0  0  0  0  0  0  0  0  0  # atno 8009 bound_to 7997
  156.1157  140.1460  156.9264 H   0  0  0  0  0  0  0  0  0  0  0  0  # atno 8010 bound_to 7997
  139.5363  144.2488  152.0801 H   0  0  0  0  0  0  0  0  0  0  0  0  # atno 10167 bound_to 10162
  156.0802  130.6003  150.8717 H   0  0  0  0  0  0  0  0  0  0  0  0  # atno 10718 bound_to 10713
  153.7917  135.3154  155.3379 H   0  0  0  0  0  0  0  0  0  0  0  0  # atno 10763 bound_to 10752
  154.8123  135.4659  154.0553 H   0  0  0  0  0  0  0  0  0  0  0  0  # atno 10764 bound_to 10752
  153.1873  135.6903  153.8486 H   0  0  0  0  0  0  0  0  0  0  0  0  # atno 10765 bound_to 10752
  139.9507  134.9622  156.8854 H   0  0  0  0  0  0  0  0  0  0  0  0  # atno 11005 bound_to 11000
  145.2174  139.2175  143.5111 LP  0  0  0  0  0  0  0  0  0  0  0  0  # atno 17320 bound_to 7965
  146.3449  140.2024  142.8589 LP  0  0  0  0  0  0  0  0  0  0  0  0  # atno 17321 bound_to 7965
  140.1959  144.4706  150.6455 LP  0  0  0  0  0  0  0  0  0  0  0  0  # atno 17342 bound_to 10162
  140.6571  143.2241  151.5943 LP  0  0  0  0  0  0  0  0  0  0  0  0  # atno 17343 bound_to 10162
  157.5915  131.0944  150.9110 LP  0  0  0  0  0  0  0  0  0  0  0  0  # atno 17370 bound_to 10713
  156.9285  130.5341  149.5279 LP  0  0  0  0  0  0  0  0  0  0  0  0  # atno 17371 bound_to 10713
  140.5726  134.0429  155.7435 LP  0  0  0  0  0  0  0  0  0  0  0  0  # atno 17394 bound_to 11000
  141.1169  133.9525  157.2805 LP  0  0  0  0  0  0  0  0  0  0  0  0  # atno 17395 bound_to 11000

$$$$
