AV-unprocessed.smi:1701|AV-procd|sdf|6844|dock6
  -GOLD-   22720 8 23D 1   1.00000     0.00000
 Structure written by MMmdl.
 54 56  0  0  0  0  0  0  0  0  4 V2000
  152.1256  143.5101  160.9183 C   0  0  0  0  0  0  0  0  0  0  0  0
  152.7030  144.0533  159.6027 C   0  0  0  0  0  0  0  0  0  0  0  0
  151.7388  144.0140  158.5029 N   0  0  0  0  0  0  0  0  0  0  0  0
  150.7299  145.0758  158.4641 C   0  0  0  0  0  0  0  0  0  0  0  0
  149.8914  145.1492  159.7500 C   0  0  0  0  0  0  0  0  0  0  0  0
  151.4066  142.7344  157.9956 C   0  0  0  0  0  0  0  0  0  0  0  0
  151.8390  141.5322  158.6073 C   0  0  0  0  0  0  0  0  0  0  0  0
  151.4653  140.2887  158.0584 C   0  0  0  0  0  0  0  0  0  0  0  0
  150.6521  140.2461  156.9080 C   0  0  0  0  0  0  0  0  0  0  0  0
  150.3173  138.9711  156.3780 N   0  0  0  0  0  0  0  0  0  0  0  0
  150.2379  138.5734  155.0839 C   0  0  0  0  0  0  0  0  0  0  0  0
  150.4299  139.3987  154.1929 O   0  0  0  0  0  0  0  0  0  0  0  0
  149.9199  137.2757  154.7900 N   0  5  0  0  0  0  0  0  0  0  0  0
  149.6164  136.1622  155.7068 C   0  0  1  0  0  0  0  0  0  0  0  0
  148.1312  136.2081  156.1146 C   0  0  0  0  0  0  0  0  0  0  0  0
  147.3905  135.2995  155.1177 C   0  0  0  0  0  0  0  0  0  0  0  0
  148.4314  134.7394  154.2308 N   0  3  2  0  0  0  0  0  0  0  0  0
  148.1270  133.4406  153.5775 C   0  0  0  0  0  0  0  0  0  0  0  0
  148.3435  132.2414  154.5153 C   0  0  0  0  0  0  0  0  0  0  0  0
  149.7495  132.2780  155.1241 C   0  0  0  0  0  0  0  0  0  0  0  0
  149.9441  133.5976  155.8800 C   0  0  0  0  0  0  0  0  0  0  0  0
  149.7246  134.8237  154.9491 C   0  0  2  0  0  0  0  0  0  0  0  0
  150.2600  141.4711  156.3206 C   0  0  0  0  0  0  0  0  0  0  0  0
  150.6422  142.6396  156.8794 N   0  3  0  0  0  0  0  0  0  0  0  0
  152.8604  143.5847  161.7204 H   0  0  0  0  0  0  0  0  0  0  0  0
  151.8435  142.4609  160.8268 H   0  0  0  0  0  0  0  0  0  0  0  0
  151.2424  144.0701  161.2270 H   0  0  0  0  0  0  0  0  0  0  0  0
  153.0114  145.0884  159.7515 H   0  0  0  0  0  0  0  0  0  0  0  0
  153.6175  143.5216  159.3460 H   0  0  0  0  0  0  0  0  0  0  0  0
  151.2070  146.0367  158.2679 H   0  0  0  0  0  0  0  0  0  0  0  0
  150.0591  144.9029  157.6219 H   0  0  0  0  0  0  0  0  0  0  0  0
  149.1315  145.9266  159.6681 H   0  0  0  0  0  0  0  0  0  0  0  0
  150.4976  145.3768  160.6264 H   0  0  0  0  0  0  0  0  0  0  0  0
  149.3778  144.2054  159.9357 H   0  0  0  0  0  0  0  0  0  0  0  0
  152.4670  141.5400  159.4847 H   0  0  0  0  0  0  0  0  0  0  0  0
  151.8005  139.3732  158.5238 H   0  0  0  0  0  0  0  0  0  0  0  0
  150.0507  138.2760  157.0596 H   0  0  0  0  0  0  0  0  0  0  0  0
  150.2642  136.1654  156.5844 H   0  0  0  0  0  0  0  0  0  0  0  0
  148.0163  135.8066  157.1220 H   0  0  0  0  0  0  0  0  0  0  0  0
  147.7231  137.2198  156.1310 H   0  0  0  0  0  0  0  0  0  0  0  0
  146.8602  134.5089  155.6507 H   0  0  0  0  0  0  0  0  0  0  0  0
  146.6588  135.8519  154.5270 H   0  0  0  0  0  0  0  0  0  0  0  0
  147.1079  133.4517  153.1898 H   0  0  0  0  0  0  0  0  0  0  0  0
  148.7859  133.3419  152.7142 H   0  0  0  0  0  0  0  0  0  0  0  0
  147.5968  132.2469  155.3102 H   0  0  0  0  0  0  0  0  0  0  0  0
  148.1998  131.3109  153.9654 H   0  0  0  0  0  0  0  0  0  0  0  0
  149.8889  131.4337  155.7999 H   0  0  0  0  0  0  0  0  0  0  0  0
  150.5008  132.1810  154.3394 H   0  0  0  0  0  0  0  0  0  0  0  0
  149.2536  133.6021  156.7268 H   0  0  0  0  0  0  0  0  0  0  0  0
  150.9481  133.6229  156.3076 H   0  0  0  0  0  0  0  0  0  0  0  0
  150.5363  134.8471  154.2195 H   0  0  0  0  0  0  0  0  0  0  0  0
  149.6683  141.5668  155.4226 H   0  0  0  0  0  0  0  0  0  0  0  0
  148.5141  135.4196  153.4881 H   0  0  0  0  0  0  0  0  0  0  0  0
  150.3376  143.5034  156.4309 H   0  0  0  0  0  0  0  0  0  0  0  0
  1  2  1  0  0  0  0
  1 25  1  0  0  0  0
  1 26  1  0  0  0  0
  1 27  1  0  0  0  0
  2  3  1  0  0  0  0
  2 28  1  0  0  0  0
  2 29  1  0  0  0  0
  3  4  1  0  0  0  0
  3  6  1  0  0  0  0
  4  5  1  0  0  0  0
  4 30  1  0  0  0  0
  4 31  1  0  0  0  0
  5 32  1  0  0  0  0
  5 33  1  0  0  0  0
  5 34  1  0  0  0  0
  6 24  1  0  0  0  0
  6  7  2  0  0  0  0
  7  8  1  0  0  0  0
  7 35  1  0  0  0  0
  8  9  2  0  0  0  0
  8 36  1  0  0  0  0
  9 10  1  0  0  0  0
  9 23  1  0  0  0  0
 10 11  1  0  0  0  0
 10 37  1  0  0  0  0
 11 12  2  0  0  0  0
 11 13  1  0  0  0  0
 13 14  1  0  0  0  0
 14 22  1  0  0  0  0
 14 15  1  0  0  0  0
 14 38  1  0  0  0  0
 15 16  1  0  0  0  0
 15 39  1  0  0  0  0
 15 40  1  0  0  0  0
 16 17  1  0  0  0  0
 16 41  1  0  0  0  0
 16 42  1  0  0  0  0
 17 22  1  0  0  0  0
 17 18  1  0  0  0  0
 17 53  1  0  0  0  0
 18 19  1  0  0  0  0
 18 43  1  0  0  0  0
 18 44  1  0  0  0  0
 19 20  1  0  0  0  0
 19 45  1  0  0  0  0
 19 46  1  0  0  0  0
 20 21  1  0  0  0  0
 20 47  1  0  0  0  0
 20 48  1  0  0  0  0
 21 22  1  0  0  0  0
 21 49  1  0  0  0  0
 21 50  1  0  0  0  0
 22 51  1  0  0  0  0
 23 24  2  0  0  0  0
 23 52  1  0  0  0  0
 24 54  1  0  0  0  0
M  CHG  1  13  -1
M  CHG  1  17   1
M  CHG  1  24   1
M  END
> <s_m_source_file>
AV-unprocessed.smi

> <i_m_source_file_index>
1701

> <i_lp_mmshare_version>
43012

> <i_f3d_flags>
0

> <s_epik_input>
W0NIM11bQ0gyXU4oW0NIMl1bQ0gzXSljMVtjSF1bY0hdYyhbY0hdbjEpW05IXUMoPU8pW05IXVtDQEhdKFtDSDJdW0NIMl0yKVtDQEBIXShOMjMpW0NIMl1bQ0gyXVtDSDJdW0NIMl0z

> <s_epik_cmdline>
J2VwaWtfcHl0aG9uJywgJy1waCcsICc3LjAnLCAnLXRuJywgJzgnLCAnLW1hJywgJzIwMCcsICctbWV0YWxfYmluZGluZycsICctaW1hZScsICc8aW5maWxlLm1hZT4nLCAnLW9tYWUnLCAnPG91dGZpbGUubWFlPic=

> <r_lp_tautomer_probability>
0.999994

> <r_epik_Ionization_Penalty>
7.37095

> <r_epik_Ionization_Penalty_Charging>
7.37095

> <r_epik_Ionization_Penalty_Neutral>
3.78969e-06

> <r_epik_State_Penalty>
6.83842

> <r_epik_Charging_Adjusted_Penalty>
14.2094

> <i_epik_Tot_Q>
1

> <i_epik_Tot_abs_Q>
3

> <r_epik_Metal_State_Penalty>
2.78552

> <b_epik_Metal_Only>
1

> <s_lp_Force_Field>
OPLS_2005

> <r_lp_Energy>
52.2686

> <b_lp_Chiralities_Consistent>
1

> <s_lp_Variant>
AV-unprocessed.smi:1701-24

> <Gold.Version>
5.8.1

> <Gold.Id.Protein>
6NUR|6NUR_protein|mol2

> <Gold.PLP.Fitness>
57.7704

> <Gold.PLP.PLP>
-44.2711

> <Gold.PLP.part.hbond>
-3.0000

> <Gold.PLP.part.metal>
0.0000

> <Gold.PLP.part.buried>
-6.2540

> <Gold.PLP.part.nonpolar>
-36.1746

> <Gold.PLP.part.repulsive>
0.4623

> <Gold.PLP.ligand.clash>
0.0000

> <Gold.PLP.ligand.torsion>
1.2503

> <Gold.PLP.Chemscore.Hbond>
5.0000

> <Gold.PLP.Chemscore.CHOScore>
0.0000

> <Gold.PLP.Chemscore.Metal>
0.0000

> <Gold.Chemscore.Hbonds>
donor molecule, donor type, donor heavy atom, donor atom, acceptor molecule, acceptor atom, score
      L1  H    17    53       P1  7948  2.00
      L1  H    24    54       P1  8028  1.98
      P1  H  7989  7998       L1    12  1.00

> <Gold.PLP.Chemscore.Internal.Correction>
1.0000

> <Gold.Rescore>
     Score         DG    S(hbond)    S(metal)    S(lipo)     H(rot)  DE(clash)    DE(int)     intcor
     20.73     -23.83       2.89        0.00     102.32       1.28       0.04       3.07       ----

> <Gold.Chemscore.Fitness>
20.7253

> <Gold.Chemscore.DG>
-23.8304

> <Gold.Chemscore.ZeroCoef>
-5.4800

> <Gold.Chemscore.Hbond>
2.8938

> <Gold.Chemscore.Metal>
0.0000

> <Gold.Chemscore.Lipo>
102.3207

> <Gold.Chemscore.Internal_Hbond>
0.0000

> <Gold.Chemscore.DEClash>
0.0385

> <Gold.Chemscore.DEInternal>
3.0667

> <Gold.Chemscore.Rot>
1.2838

> <Gold.Chemscore.Internal.Correction>
   9.000000E+99

> <Gold.Chemscore.Hbonds>
donor molecule, donor type, donor heavy atom, donor atom, acceptor molecule, acceptor atom, score
      L1  H    17    53       P1  7948  0.97
      L1  H    24    54       P1  8028  0.90
      P1  H  7989  7998       L1    12  0.94

> <Gold.Chemscore.Hbond.Weighted>
-9.6654

> <Gold.Chemscore.Metal.Weighted>
-0.0000

> <Gold.Chemscore.Lipo.Weighted>
-11.9715

> <Gold.Chemscore.Internal_Hbond.Weighted>
0.0000

> <Gold.Chemscore.DEClash.Weighted>
0.0385

> <Gold.Chemscore.DEInternal.Weighted>
3.0667

> <Gold.Chemscore.Rot.Weighted>
3.2865

> <Gold.Chemscore.Internal.Correction.Weighted>
   9.000000E+99

> <Gold.Protein.RotatedTorsions>
[ 6907 6896 6895 6894 ] final    3.99 input  -60.11 | X-H torsion
[ 7974 7965 7964 7962 ] final -111.20 input  175.53 | X-H torsion
[ 8008 7997 7996 7995 ] final   87.79 input   59.86 | X-H torsion
[ 10167 10162 10161 10158 ] final  -28.27 input  -65.29 | X-H torsion
[ 10718 10713 10712 10709 ] final -138.76 input   66.30 | X-H torsion
[ 10763 10752 10751 10750 ] final   60.26 input  -60.55 | X-H torsion
[ 11005 11000 10999 10996 ] final   37.06 input  -57.11 | X-H torsion

> <Gold.Protein.ActiveResidues>
 VAL166  LYS551  ARG553  GLY616  TRP617  ASP618  TYR619  PRO620  LYS621  CYS622 
 ASP623  PHE694  ASN695  SER759  ASP760  ASP761  ALA762  ILE779  LEU786  VAL792 
 PHE793  MET794  SER795  GLU796  ALA797  LYS798  CYS799  TRP800  GLU811  SER814 

> <Gold.Protein.RotatedAtoms>
  151.6341  135.1020  160.0127 H   0  0  0  0  0  0  0  0  0  0  0  0  # atno 6907 bound_to 6896
  152.4090  133.6930  159.6390 H   0  0  0  0  0  0  0  0  0  0  0  0  # atno 6908 bound_to 6896
  150.7982  133.8574  159.3263 H   0  0  0  0  0  0  0  0  0  0  0  0  # atno 6909 bound_to 6896
  145.1590  140.8868  143.3602 H   0  0  0  0  0  0  0  0  0  0  0  0  # atno 7974 bound_to 7965
  155.9798  140.3378  155.6652 H   0  0  0  0  0  0  0  0  0  0  0  0  # atno 8008 bound_to 7997
  155.6564  140.0711  157.2587 H   0  0  0  0  0  0  0  0  0  0  0  0  # atno 8009 bound_to 7997
  154.4188  140.1716  156.1717 H   0  0  0  0  0  0  0  0  0  0  0  0  # atno 8010 bound_to 7997
  140.7271  143.4024  151.1242 H   0  0  0  0  0  0  0  0  0  0  0  0  # atno 10167 bound_to 10162
  156.3030  130.7439  151.1496 H   0  0  0  0  0  0  0  0  0  0  0  0  # atno 10718 bound_to 10713
  152.9916  135.5542  154.5845 H   0  0  0  0  0  0  0  0  0  0  0  0  # atno 10763 bound_to 10752
  154.5219  135.2808  155.1257 H   0  0  0  0  0  0  0  0  0  0  0  0  # atno 10764 bound_to 10752
  154.2607  135.6381  153.5326 H   0  0  0  0  0  0  0  0  0  0  0  0  # atno 10765 bound_to 10752
  140.2264  134.3580  155.7982 H   0  0  0  0  0  0  0  0  0  0  0  0  # atno 11005 bound_to 11000
  145.0351  139.3307  143.6005 LP  0  0  0  0  0  0  0  0  0  0  0  0  # atno 17320 bound_to 7965
  146.3485  139.9703  142.8707 LP  0  0  0  0  0  0  0  0  0  0  0  0  # atno 17321 bound_to 7965
  139.7646  143.8585  152.3108 LP  0  0  0  0  0  0  0  0  0  0  0  0  # atno 17342 bound_to 10162
  139.8482  144.7177  150.9246 LP  0  0  0  0  0  0  0  0  0  0  0  0  # atno 17343 bound_to 10162
  157.7373  131.0553  150.5365 LP  0  0  0  0  0  0  0  0  0  0  0  0  # atno 17370 bound_to 10713
  156.5495  130.4228  149.6114 LP  0  0  0  0  0  0  0  0  0  0  0  0  # atno 17371 bound_to 10713
  141.2220  133.7221  156.8659 LP  0  0  0  0  0  0  0  0  0  0  0  0  # atno 17394 bound_to 11000
  140.1796  134.9042  157.2933 LP  0  0  0  0  0  0  0  0  0  0  0  0  # atno 17395 bound_to 11000

$$$$
