AV-unprocessed.smi:2119|AV-procd|sdf|8632|dock2
  -GOLD-   2272011373D 1   1.00000     0.00000
 Structure written by MMmdl.
 47 49  0  0  0  0  0  0  0  0  1 V2000
  144.4606  136.5927  152.5442 O   0  0  0  0  0  0  0  0  0  0  0  0
  145.6487  136.3504  152.3344 C   0  0  0  0  0  0  0  0  0  0  0  0
  146.6380  137.2085  152.6194 N   0  0  0  0  0  0  0  0  0  0  0  0
  146.4534  138.5494  153.1686 C   0  0  0  0  0  0  0  0  0  0  0  0
  146.7412  138.6405  154.7007 C   0  0  2  0  0  0  0  0  0  0  0  0
  145.5514  139.3839  155.4002 C   0  0  1  0  0  0  0  0  0  0  0  0
  144.1688  138.7551  155.4238 C   0  0  0  0  0  0  0  0  0  0  0  0
  143.4525  139.6443  156.4326 C   0  0  0  0  0  0  0  0  0  0  0  0
  144.4396  139.9588  157.4091 O   0  0  0  0  0  0  0  0  0  0  0  0
  145.7399  139.6830  156.8926 C   0  0  0  0  0  0  0  0  0  0  0  0
  148.0774  139.1809  155.0600 N   0  0  0  0  0  0  0  0  0  0  0  0
  149.1612  138.4019  154.4465 C   0  0  0  0  0  0  0  0  0  0  0  0
  150.5510  138.8850  154.8922 C   0  0  0  0  0  0  0  0  0  0  0  0
  150.7052  140.2552  154.5430 O   0  0  0  0  0  0  0  0  0  0  0  0
  149.6986  141.0793  155.1178 C   0  0  0  0  0  0  0  0  0  0  0  0
  148.3054  140.5820  154.6900 C   0  0  0  0  0  0  0  0  0  0  0  0
  146.1324  135.2122  151.8085 N   0  0  0  0  0  0  0  0  0  0  0  0
  145.4206  134.0804  151.3260 C   0  0  0  0  0  0  0  0  0  0  0  0
  146.0060  133.0137  150.6010 C   0  0  0  0  0  0  0  0  0  0  0  0
  145.1903  131.9399  150.1950 C   0  0  0  0  0  0  0  0  0  0  0  0
  143.8237  131.9665  150.5342 C   0  0  0  0  0  0  0  0  0  0  0  0
  143.2554  132.9698  151.2355 N   0  0  0  0  0  0  0  0  0  0  0  0
  144.0433  133.9960  151.6209 C   0  0  0  0  0  0  0  0  0  0  0  0
  147.5868  136.9244  152.4233 H   0  0  0  0  0  0  0  0  0  0  0  0
  147.1059  139.2173  152.6047 H   0  0  0  0  0  0  0  0  0  0  0  0
  145.4323  138.8630  152.9507 H   0  0  0  0  0  0  0  0  0  0  0  0
  146.7110  137.6095  155.0565 H   0  0  0  0  0  0  0  0  0  0  0  0
  145.4233  140.3422  154.8945 H   0  0  0  0  0  0  0  0  0  0  0  0
  143.6804  138.7376  154.4491 H   0  0  0  0  0  0  0  0  0  0  0  0
  144.1969  137.7444  155.8308 H   0  0  0  0  0  0  0  0  0  0  0  0
  143.1185  140.5684  155.9593 H   0  0  0  0  0  0  0  0  0  0  0  0
  142.5854  139.1588  156.8809 H   0  0  0  0  0  0  0  0  0  0  0  0
  146.1426  138.8136  157.4142 H   0  0  0  0  0  0  0  0  0  0  0  0
  146.4103  140.5240  157.0703 H   0  0  0  0  0  0  0  0  0  0  0  0
  149.0765  137.3414  154.6581 H   0  0  0  0  0  0  0  0  0  0  0  0
  149.0959  138.4838  153.3603 H   0  0  0  0  0  0  0  0  0  0  0  0
  150.6814  138.7539  155.9674 H   0  0  0  0  0  0  0  0  0  0  0  0
  151.3306  138.3037  154.3998 H   0  0  0  0  0  0  0  0  0  0  0  0
  149.7928  141.0722  156.2047 H   0  0  0  0  0  0  0  0  0  0  0  0
  149.8508  142.1075  154.7904 H   0  0  0  0  0  0  0  0  0  0  0  0
  148.1896  140.7085  153.6123 H   0  0  0  0  0  0  0  0  0  0  0  0
  147.5698  141.2266  155.1704 H   0  0  0  0  0  0  0  0  0  0  0  0
  147.1385  135.1334  151.7751 H   0  0  0  0  0  0  0  0  0  0  0  0
  147.0572  132.9869  150.3606 H   0  0  0  0  0  0  0  0  0  0  0  0
  145.6045  131.1115  149.6396 H   0  0  0  0  0  0  0  0  0  0  0  0
  143.1716  131.1578  150.2394 H   0  0  0  0  0  0  0  0  0  0  0  0
  143.5552  134.7790  152.1827 H   0  0  0  0  0  0  0  0  0  0  0  0
  1  2  2  0  0  0  0
  2  3  1  0  0  0  0
  2 17  1  0  0  0  0
  3  4  1  0  0  0  0
  3 24  1  0  0  0  0
  4  5  1  0  0  0  0
  4 25  1  0  0  0  0
  4 26  1  0  0  0  0
  5  6  1  0  0  0  0
  5 11  1  0  0  0  0
  5 27  1  0  0  0  0
  6 10  1  0  0  0  0
  6  7  1  0  0  0  0
  6 28  1  0  0  0  0
  7  8  1  0  0  0  0
  7 29  1  0  0  0  0
  7 30  1  0  0  0  0
  8  9  1  0  0  0  0
  8 31  1  0  0  0  0
  8 32  1  0  0  0  0
  9 10  1  0  0  0  0
 10 33  1  0  0  0  0
 10 34  1  0  0  0  0
 11 16  1  0  0  0  0
 11 12  1  0  0  0  0
 12 13  1  0  0  0  0
 12 35  1  0  0  0  0
 12 36  1  0  0  0  0
 13 14  1  0  0  0  0
 13 37  1  0  0  0  0
 13 38  1  0  0  0  0
 14 15  1  0  0  0  0
 15 16  1  0  0  0  0
 15 39  1  0  0  0  0
 15 40  1  0  0  0  0
 16 41  1  0  0  0  0
 16 42  1  0  0  0  0
 17 18  1  0  0  0  0
 17 43  1  0  0  0  0
 18 23  1  0  0  0  0
 18 19  2  0  0  0  0
 19 20  1  0  0  0  0
 19 44  1  0  0  0  0
 20 21  2  0  0  0  0
 20 45  1  0  0  0  0
 21 22  1  0  0  0  0
 21 46  1  0  0  0  0
 22 23  2  0  0  0  0
 23 47  1  0  0  0  0
M  END
> <s_m_source_file>
AV-unprocessed.smi

> <i_m_source_file_index>
2119

> <i_lp_mmshare_version>
43012

> <i_f3d_flags>
0

> <s_epik_input>
W2NIXTFuW2NIXVtjSF1bY0hdYzFbTkhdQyg9TylbTkhdW0NIMl1bQ0BIXShbQ0BASF0yW0NIMl1bQ0gyXU9bQ0gyXTIpTjNbQ0gyXVtDSDJdT1tDSDJdW0NIMl0z

> <s_epik_cmdline>
J2VwaWtfcHl0aG9uJywgJy1waCcsICc3LjAnLCAnLXRuJywgJzgnLCAnLW1hJywgJzIwMCcsICctbWV0YWxfYmluZGluZycsICctaW1hZScsICc8aW5maWxlLm1hZT4nLCAnLW9tYWUnLCAnPG91dGZpbGUubWFlPic=

> <r_epik_Ionization_Penalty>
0.129787

> <r_epik_Ionization_Penalty_Charging>
0

> <r_epik_Ionization_Penalty_Neutral>
0.129787

> <r_epik_State_Penalty>
0.121311

> <r_epik_Charging_Adjusted_Penalty>
0.121311

> <i_epik_Tot_Q>
0

> <i_epik_Tot_abs_Q>
0

> <r_epik_Metal_State_Penalty>
0.117931

> <b_epik_Metal_Only>
0

> <s_lp_Force_Field>
OPLS_2005

> <r_lp_Energy>
58.2648

> <b_lp_Chiralities_Consistent>
1

> <s_lp_Variant>
AV-unprocessed.smi:2119-3

> <Gold.Version>
5.8.1

> <Gold.Id.Protein>
6NUR|6NUR_protein|mol2

> <Gold.PLP.Fitness>
40.4605

> <Gold.PLP.PLP>
-30.9400

> <Gold.PLP.part.hbond>
-2.9278

> <Gold.PLP.part.metal>
0.0000

> <Gold.PLP.part.buried>
-7.2525

> <Gold.PLP.part.nonpolar>
-23.4704

> <Gold.PLP.part.repulsive>
0.8510

> <Gold.PLP.ligand.clash>
0.0000

> <Gold.PLP.ligand.torsion>
0.9236

> <Gold.PLP.Chemscore.Hbond>
2.7492

> <Gold.PLP.Chemscore.CHOScore>
0.9493

> <Gold.PLP.Chemscore.Metal>
0.0000

> <Gold.Chemscore.Hbonds>
donor molecule, donor type, donor heavy atom, donor atom, acceptor molecule, acceptor atom, score
      L1  H     3    24       P1  7948  1.00
      L1  H    17    43       P1  7948  0.79
      P1  H  7989  7998       L1    14  0.99
      L1  C    21    46       P1 10952  0.89

> <Gold.PLP.Chemscore.Internal.Correction>
0.2725

> <Gold.Rescore>
     Score         DG    S(hbond)    S(metal)    S(lipo)     H(rot)  DE(clash)    DE(int)     intcor
     17.24     -19.54       2.84        0.00      75.27       1.65       0.04       2.25       ----

> <Gold.Chemscore.Fitness>
17.2422

> <Gold.Chemscore.DG>
-19.5392

> <Gold.Chemscore.ZeroCoef>
-5.4800

> <Gold.Chemscore.Hbond>
2.8378

> <Gold.Chemscore.Metal>
0.0000

> <Gold.Chemscore.Lipo>
75.2749

> <Gold.Chemscore.Internal_Hbond>
0.0000

> <Gold.Chemscore.DEClash>
0.0442

> <Gold.Chemscore.DEInternal>
2.2527

> <Gold.Chemscore.Rot>
1.6508

> <Gold.Chemscore.Internal.Correction>
   9.000000E+99

> <Gold.Chemscore.Hbonds>
donor molecule, donor type, donor heavy atom, donor atom, acceptor molecule, acceptor atom, score
      L1  H     3    24       P1  7948  0.99
      L1  H    17    43       P1  7948  0.72
      P1  H  7989  7998       L1    14  0.88

> <Gold.Chemscore.Hbond.Weighted>
-9.4782

> <Gold.Chemscore.Metal.Weighted>
-0.0000

> <Gold.Chemscore.Lipo.Weighted>
-8.8072

> <Gold.Chemscore.Internal_Hbond.Weighted>
0.0000

> <Gold.Chemscore.DEClash.Weighted>
0.0442

> <Gold.Chemscore.DEInternal.Weighted>
2.2527

> <Gold.Chemscore.Rot.Weighted>
4.2262

> <Gold.Chemscore.Internal.Correction.Weighted>
   9.000000E+99

> <Gold.Protein.RotatedTorsions>
[ 6907 6896 6895 6894 ] final -141.20 input  -60.11 | X-H torsion
[ 7974 7965 7964 7962 ] final   84.72 input  175.53 | X-H torsion
[ 8008 7997 7996 7995 ] final  115.85 input   59.86 | X-H torsion
[ 10167 10162 10161 10158 ] final   17.79 input  -65.29 | X-H torsion
[ 10718 10713 10712 10709 ] final  103.89 input   66.30 | X-H torsion
[ 10763 10752 10751 10750 ] final  113.02 input  -60.55 | X-H torsion
[ 11005 11000 10999 10996 ] final -133.04 input  -57.11 | X-H torsion

> <Gold.Protein.ActiveResidues>
 VAL166  LYS551  ARG553  GLY616  TRP617  ASP618  TYR619  PRO620  LYS621  CYS622 
 ASP623  PHE694  ASN695  SER759  ASP760  ASP761  ALA762  ILE779  LEU786  VAL792 
 PHE793  MET794  SER795  GLU796  ALA797  LYS798  CYS799  TRP800  GLU811  SER814 

> <Gold.Protein.RotatedAtoms>
  151.0707  133.5468  159.2627 H   0  0  0  0  0  0  0  0  0  0  0  0  # atno 6907 bound_to 6896
  151.2408  135.0587  159.9034 H   0  0  0  0  0  0  0  0  0  0  0  0  # atno 6908 bound_to 6896
  152.5411  134.0482  159.8152 H   0  0  0  0  0  0  0  0  0  0  0  0  # atno 6909 bound_to 6896
  145.5950  139.2343  143.2278 H   0  0  0  0  0  0  0  0  0  0  0  0  # atno 7974 bound_to 7965
  156.2405  140.2930  156.0432 H   0  0  0  0  0  0  0  0  0  0  0  0  # atno 8008 bound_to 7997
  155.1963  140.0408  157.2927 H   0  0  0  0  0  0  0  0  0  0  0  0  # atno 8009 bound_to 7997
  154.6160  140.2464  155.7616 H   0  0  0  0  0  0  0  0  0  0  0  0  # atno 8010 bound_to 7997
  140.5700  143.9179  150.6706 H   0  0  0  0  0  0  0  0  0  0  0  0  # atno 10167 bound_to 10162
  157.6758  131.0790  150.5623 H   0  0  0  0  0  0  0  0  0  0  0  0  # atno 10718 bound_to 10713
  153.4863  135.3668  155.2469 H   0  0  0  0  0  0  0  0  0  0  0  0  # atno 10763 bound_to 10752
  154.8753  135.3966  154.3640 H   0  0  0  0  0  0  0  0  0  0  0  0  # atno 10764 bound_to 10752
  153.4253  135.7081  153.6332 H   0  0  0  0  0  0  0  0  0  0  0  0  # atno 10765 bound_to 10752
  140.9117  134.1560  157.4384 H   0  0  0  0  0  0  0  0  0  0  0  0  # atno 11005 bound_to 11000
  146.1619  140.6776  142.9274 LP  0  0  0  0  0  0  0  0  0  0  0  0  # atno 17320 bound_to 7965
  144.7334  140.4739  143.6921 LP  0  0  0  0  0  0  0  0  0  0  0  0  # atno 17321 bound_to 7965
  140.2652  143.3495  152.1288 LP  0  0  0  0  0  0  0  0  0  0  0  0  # atno 17342 bound_to 10162
  139.5112  144.6898  151.5791 LP  0  0  0  0  0  0  0  0  0  0  0  0  # atno 17343 bound_to 10162
  156.5926  130.4333  149.5930 LP  0  0  0  0  0  0  0  0  0  0  0  0  # atno 17370 bound_to 10713
  156.2571  130.6941  151.1698 LP  0  0  0  0  0  0  0  0  0  0  0  0  # atno 17371 bound_to 10713
  139.8758  134.9938  156.5662 LP  0  0  0  0  0  0  0  0  0  0  0  0  # atno 17394 bound_to 11000
  140.8102  133.8435  155.8803 LP  0  0  0  0  0  0  0  0  0  0  0  0  # atno 17395 bound_to 11000

$$$$
