AV-unprocessed.smi:2114|AV-procd|sdf|8621|dock7
  -GOLD-   2272011363D 1   1.00000     0.00000
 Structure written by MMmdl.
 47 48  0  0  0  0  0  0  0  0  1 V2000
  154.2193  129.5987  154.4873 C   0  0  0  0  0  0  0  0  0  0  0  0
  153.2322  130.0809  155.3816 O   0  0  0  0  0  0  0  0  0  0  0  0
  153.7434  131.0452  156.2880 C   0  0  0  0  0  0  0  0  0  0  0  0
  152.5858  131.6578  157.0928 C   0  0  2  0  0  0  0  0  0  0  0  0
  152.0439  130.6783  158.1428 C   0  0  0  0  0  0  0  0  0  0  0  0
  151.5031  132.0409  156.1895 N   0  0  0  0  0  0  0  0  0  0  0  0
  150.4105  132.7462  156.5264 C   0  0  0  0  0  0  0  0  0  0  0  0
  150.1605  133.1180  157.6731 O   0  0  0  0  0  0  0  0  0  0  0  0
  149.4493  133.0175  155.4062 C   0  0  0  0  0  0  0  0  0  0  0  0
  149.6367  132.4652  154.1192 C   0  0  0  0  0  0  0  0  0  0  0  0
  148.7184  132.7802  153.0995 C   0  0  0  0  0  0  0  0  0  0  0  0
  147.6427  133.6419  153.3970 C   0  0  0  0  0  0  0  0  0  0  0  0
  146.7319  133.9670  152.3821 N   0  0  0  0  0  0  0  0  0  0  0  0
  146.1624  132.8101  151.7052 C   0  0  0  0  0  0  0  0  0  0  0  0
  145.3175  133.2684  150.5026 C   0  0  1  0  0  0  0  0  0  0  0  0
  144.6068  132.0947  149.8202 C   0  0  0  0  0  0  0  0  0  0  0  0
  144.3223  134.1924  150.9453 O   0  0  0  0  0  0  0  0  0  0  0  0
  144.8303  135.3449  151.6237 C   0  0  2  0  0  0  0  0  0  0  0  0
  145.5324  136.3219  150.6637 C   0  0  0  0  0  0  0  0  0  0  0  0
  145.7121  134.9146  152.8125 C   0  0  0  0  0  0  0  0  0  0  0  0
  147.4603  134.1830  154.6248 N   0  0  0  0  0  0  0  0  0  0  0  0
  148.3472  133.8800  155.5971 C   0  0  0  0  0  0  0  0  0  0  0  0
  153.7773  128.8624  153.8161 H   0  0  0  0  0  0  0  0  0  0  0  0
  155.0357  129.1153  155.0256 H   0  0  0  0  0  0  0  0  0  0  0  0
  154.6294  130.4058  153.8791 H   0  0  0  0  0  0  0  0  0  0  0  0
  154.4731  130.5878  156.9586 H   0  0  0  0  0  0  0  0  0  0  0  0
  154.2603  131.8260  155.7278 H   0  0  0  0  0  0  0  0  0  0  0  0
  152.9645  132.5313  157.6264 H   0  0  0  0  0  0  0  0  0  0  0  0
  152.8261  130.3805  158.8417 H   0  0  0  0  0  0  0  0  0  0  0  0
  151.6506  129.7734  157.6783 H   0  0  0  0  0  0  0  0  0  0  0  0
  151.2401  131.1319  158.7236 H   0  0  0  0  0  0  0  0  0  0  0  0
  151.6021  131.7619  155.2243 H   0  0  0  0  0  0  0  0  0  0  0  0
  150.4720  131.8146  153.9042 H   0  0  0  0  0  0  0  0  0  0  0  0
  148.8420  132.3704  152.1075 H   0  0  0  0  0  0  0  0  0  0  0  0
  146.9632  132.1486  151.3717 H   0  0  0  0  0  0  0  0  0  0  0  0
  145.5437  132.2429  152.4023 H   0  0  0  0  0  0  0  0  0  0  0  0
  145.9607  133.7482  149.7646 H   0  0  0  0  0  0  0  0  0  0  0  0
  145.3247  131.3637  149.4473 H   0  0  0  0  0  0  0  0  0  0  0  0
  144.0136  132.4390  148.9727 H   0  0  0  0  0  0  0  0  0  0  0  0
  143.9355  131.5836  150.5110 H   0  0  0  0  0  0  0  0  0  0  0  0
  143.9626  135.8678  152.0268 H   0  0  0  0  0  0  0  0  0  0  0  0
  145.8021  137.2431  151.1807 H   0  0  0  0  0  0  0  0  0  0  0  0
  144.8779  136.5896  149.8342 H   0  0  0  0  0  0  0  0  0  0  0  0
  146.4494  135.9062  150.2471 H   0  0  0  0  0  0  0  0  0  0  0  0
  145.0887  134.4462  153.5758 H   0  0  0  0  0  0  0  0  0  0  0  0
  146.1788  135.7859  153.2743 H   0  0  0  0  0  0  0  0  0  0  0  0
  148.1625  134.3394  156.5573 H   0  0  0  0  0  0  0  0  0  0  0  0
  1  2  1  0  0  0  0
  1 23  1  0  0  0  0
  1 24  1  0  0  0  0
  1 25  1  0  0  0  0
  2  3  1  0  0  0  0
  3  4  1  0  0  0  0
  3 26  1  0  0  0  0
  3 27  1  0  0  0  0
  4  5  1  0  0  0  0
  4  6  1  0  0  0  0
  4 28  1  0  0  0  0
  5 29  1  0  0  0  0
  5 30  1  0  0  0  0
  5 31  1  0  0  0  0
  6  7  1  0  0  0  0
  6 32  1  0  0  0  0
  7  8  2  0  0  0  0
  7  9  1  0  0  0  0
  9 22  1  0  0  0  0
  9 10  2  0  0  0  0
 10 11  1  0  0  0  0
 10 33  1  0  0  0  0
 11 12  2  0  0  0  0
 11 34  1  0  0  0  0
 12 13  1  0  0  0  0
 12 21  1  0  0  0  0
 13 20  1  0  0  0  0
 13 14  1  0  0  0  0
 14 15  1  0  0  0  0
 14 35  1  0  0  0  0
 14 36  1  0  0  0  0
 15 16  1  0  0  0  0
 15 17  1  0  0  0  0
 15 37  1  0  0  0  0
 16 38  1  0  0  0  0
 16 39  1  0  0  0  0
 16 40  1  0  0  0  0
 17 18  1  0  0  0  0
 18 19  1  0  0  0  0
 18 20  1  0  0  0  0
 18 41  1  0  0  0  0
 19 42  1  0  0  0  0
 19 43  1  0  0  0  0
 19 44  1  0  0  0  0
 20 45  1  0  0  0  0
 20 46  1  0  0  0  0
 21 22  2  0  0  0  0
 22 47  1  0  0  0  0
M  END
> <s_m_source_file>
AV-unprocessed.smi

> <i_m_source_file_index>
2114

> <i_lp_mmshare_version>
43012

> <i_f3d_flags>
0

> <s_epik_input>
W0NIM11PW0NIMl1bQ0BIXShbQ0gzXSlbTkhdQyg9TyljMVtjSF1bY0hdYyhuW2NIXTEpTjJbQ0gyXVtDQEBIXShbQ0gzXSlPW0NAQEhdKFtDSDNdKVtDSDJdMg==

> <s_epik_cmdline>
J2VwaWtfcHl0aG9uJywgJy1waCcsICc3LjAnLCAnLXRuJywgJzgnLCAnLW1hJywgJzIwMCcsICctbWV0YWxfYmluZGluZycsICctaW1hZScsICc8aW5maWxlLm1hZT4nLCAnLW9tYWUnLCAnPG91dGZpbGUubWFlPic=

> <r_lp_tautomer_probability>
1

> <r_epik_Ionization_Penalty>
1.92915e-05

> <r_epik_Ionization_Penalty_Charging>
0

> <r_epik_Ionization_Penalty_Neutral>
1.92915e-05

> <r_epik_State_Penalty>
-0

> <r_epik_Charging_Adjusted_Penalty>
0

> <i_epik_Tot_Q>
0

> <i_epik_Tot_abs_Q>
0

> <r_epik_Metal_State_Penalty>
-0

> <b_epik_Metal_Only>
0

> <s_lp_Force_Field>
OPLS_2005

> <r_lp_Energy>
24.3529

> <b_lp_Chiralities_Consistent>
1

> <s_lp_Variant>
AV-unprocessed.smi:2114-5

> <Gold.Version>
5.8.1

> <Gold.Id.Protein>
6NUR|6NUR_protein|mol2

> <Gold.PLP.Fitness>
35.4562

> <Gold.PLP.PLP>
-32.8166

> <Gold.PLP.part.hbond>
-1.0000

> <Gold.PLP.part.metal>
0.0000

> <Gold.PLP.part.buried>
-4.1000

> <Gold.PLP.part.nonpolar>
-28.6663

> <Gold.PLP.part.repulsive>
0.4716

> <Gold.PLP.ligand.clash>
0.0000

> <Gold.PLP.ligand.torsion>
0.2384

> <Gold.PLP.Chemscore.Hbond>
1.0000

> <Gold.PLP.Chemscore.CHOScore>
0.0000

> <Gold.PLP.Chemscore.Metal>
0.0000

> <Gold.Chemscore.Hbonds>
donor molecule, donor type, donor heavy atom, donor atom, acceptor molecule, acceptor atom, score
      P1  H  6896  6908       L1     8  1.00

> <Gold.PLP.Chemscore.Internal.Correction>
0.1165

> <Gold.Rescore>
     Score         DG    S(hbond)    S(metal)    S(lipo)     H(rot)  DE(clash)    DE(int)     intcor
     14.06     -14.32       0.98        0.00      80.78       1.52       0.05       0.21       ----

> <Gold.Chemscore.Fitness>
14.0621

> <Gold.Chemscore.DG>
-14.3233

> <Gold.Chemscore.ZeroCoef>
-5.4800

> <Gold.Chemscore.Hbond>
0.9849

> <Gold.Chemscore.Metal>
0.0000

> <Gold.Chemscore.Lipo>
80.7835

> <Gold.Chemscore.Internal_Hbond>
0.0000

> <Gold.Chemscore.DEClash>
0.0473

> <Gold.Chemscore.DEInternal>
0.2139

> <Gold.Chemscore.Rot>
1.5226

> <Gold.Chemscore.Internal.Correction>
   9.000000E+99

> <Gold.Chemscore.Hbonds>
donor molecule, donor type, donor heavy atom, donor atom, acceptor molecule, acceptor atom, score
      P1  H  6896  6908       L1     8  0.94

> <Gold.Chemscore.Hbond.Weighted>
-3.2896

> <Gold.Chemscore.Metal.Weighted>
-0.0000

> <Gold.Chemscore.Lipo.Weighted>
-9.4517

> <Gold.Chemscore.Internal_Hbond.Weighted>
0.0000

> <Gold.Chemscore.DEClash.Weighted>
0.0473

> <Gold.Chemscore.DEInternal.Weighted>
0.2139

> <Gold.Chemscore.Rot.Weighted>
3.8980

> <Gold.Chemscore.Internal.Correction.Weighted>
   9.000000E+99

> <Gold.Protein.RotatedTorsions>
[ 6907 6896 6895 6894 ] final   88.91 input  -60.11 | X-H torsion
[ 7974 7965 7964 7962 ] final   73.42 input  175.53 | X-H torsion
[ 8008 7997 7996 7995 ] final  142.05 input   59.86 | X-H torsion
[ 10167 10162 10161 10158 ] final  -25.84 input  -65.29 | X-H torsion
[ 10718 10713 10712 10709 ] final   61.36 input   66.30 | X-H torsion
[ 10763 10752 10751 10750 ] final  116.21 input  -60.55 | X-H torsion
[ 11005 11000 10999 10996 ] final  103.44 input  -57.11 | X-H torsion

> <Gold.Protein.ActiveResidues>
 VAL166  LYS551  ARG553  GLY616  TRP617  ASP618  TYR619  PRO620  LYS621  CYS622 
 ASP623  PHE694  ASN695  SER759  ASP760  ASP761  ALA762  ILE779  LEU786  VAL792 
 PHE793  MET794  SER795  GLU796  ALA797  LYS798  CYS799  TRP800  GLU811  SER814 

> <Gold.Protein.RotatedAtoms>
  152.5430  134.2048  159.8726 H   0  0  0  0  0  0  0  0  0  0  0  0  # atno 6907 bound_to 6896
  151.2034  133.4591  159.2604 H   0  0  0  0  0  0  0  0  0  0  0  0  # atno 6908 bound_to 6896
  151.0967  134.9961  159.8484 H   0  0  0  0  0  0  0  0  0  0  0  0  # atno 6909 bound_to 6896
  145.7410  139.2721  143.1486 H   0  0  0  0  0  0  0  0  0  0  0  0  # atno 7974 bound_to 7965
  156.2956  140.2299  156.4665 H   0  0  0  0  0  0  0  0  0  0  0  0  # atno 8008 bound_to 7997
  154.7973  140.0450  157.1267 H   0  0  0  0  0  0  0  0  0  0  0  0  # atno 8009 bound_to 7997
  154.9575  140.3050  155.5049 H   0  0  0  0  0  0  0  0  0  0  0  0  # atno 8010 bound_to 7997
  140.7285  143.4230  151.0921 H   0  0  0  0  0  0  0  0  0  0  0  0  # atno 10167 bound_to 10162
  157.5822  130.8990  149.9452 H   0  0  0  0  0  0  0  0  0  0  0  0  # atno 10718 bound_to 10713
  153.5338  135.3573  155.2688 H   0  0  0  0  0  0  0  0  0  0  0  0  # atno 10763 bound_to 10752
  154.8724  135.4074  154.3121 H   0  0  0  0  0  0  0  0  0  0  0  0  # atno 10764 bound_to 10752
  153.3815  135.7068  153.6629 H   0  0  0  0  0  0  0  0  0  0  0  0  # atno 10765 bound_to 10752
  139.8784  134.9263  156.5210 H   0  0  0  0  0  0  0  0  0  0  0  0  # atno 11005 bound_to 11000
  146.0447  140.8129  142.9811 LP  0  0  0  0  0  0  0  0  0  0  0  0  # atno 17320 bound_to 7965
  144.6870  140.2963  143.7270 LP  0  0  0  0  0  0  0  0  0  0  0  0  # atno 17321 bound_to 7965
  139.7878  143.8263  152.3147 LP  0  0  0  0  0  0  0  0  0  0  0  0  # atno 17342 bound_to 10162
  139.8236  144.7285  150.9541 LP  0  0  0  0  0  0  0  0  0  0  0  0  # atno 17343 bound_to 10162
  156.0869  130.3667  150.0470 LP  0  0  0  0  0  0  0  0  0  0  0  0  # atno 17370 bound_to 10713
  156.8608  130.9491  151.3618 LP  0  0  0  0  0  0  0  0  0  0  0  0  # atno 17371 bound_to 10713
  140.8451  133.8175  155.9113 LP  0  0  0  0  0  0  0  0  0  0  0  0  # atno 17394 bound_to 11000
  140.9199  134.2154  157.4933 LP  0  0  0  0  0  0  0  0  0  0  0  0  # atno 17395 bound_to 11000

$$$$
