AV-unprocessed.smi:194|AV-procd|sdf|1522|dock2
  -GOLD-   2262019363D 1   1.00000     0.00000
 Structure written by MMmdl.
 53 55  0  0  0  0  0  0  0  0  1 V2000
  145.0665  137.3131  159.5099 C   0  0  0  0  0  0  0  0  0  0  0  0
  145.6696  136.0265  158.9229 C   0  0  2  0  0  0  0  0  0  0  0  0
  146.0591  135.0303  160.0364 C   0  0  0  0  0  0  0  0  0  0  0  0
  147.5038  135.6842  161.0076 S   0  0  2  0  0  0  0  0  0  0  0  0
  147.1959  134.7838  162.5999 C   0  0  0  0  0  0  0  0  0  0  0  0
  147.2258  137.1654  161.2707 O   0  0  0  0  0  0  0  0  0  0  0  0
  146.7912  136.3380  158.0260 N   0  0  0  0  0  0  0  0  0  0  0  0
  147.8685  137.2240  158.4576 C   0  0  0  0  0  0  0  0  0  0  0  0
  146.6338  136.1166  156.6947 C   0  0  0  0  0  0  0  0  0  0  0  0
  147.6868  136.3773  155.8761 N   0  0  0  0  0  0  0  0  0  0  0  0
  147.5847  136.1913  154.5578 C   0  0  0  0  0  0  0  0  0  0  0  0
  146.5361  135.7594  153.8565 N   0  0  0  0  0  0  0  0  0  0  0  0
  145.4720  135.4960  154.6674 C   0  0  0  0  0  0  0  0  0  0  0  0
  145.4357  135.6389  156.0849 C   0  0  0  0  0  0  0  0  0  0  0  0
  144.1901  135.2440  156.5610 N   0  0  0  0  0  0  0  0  0  0  0  0
  143.5297  134.8987  155.4908 C   0  0  0  0  0  0  0  0  0  0  0  0
  144.2160  135.0380  154.3062 N   0  0  0  0  0  0  0  0  0  0  0  0
  143.7202  134.7226  152.9744 C   0  0  0  0  0  0  0  0  0  0  0  0
  144.7322  134.0154  152.0217 C   0  0  0  0  0  0  0  0  0  0  0  0
  145.5687  135.0580  151.2197 C   0  0  0  0  0  0  0  0  0  0  0  0
  144.8115  135.8007  150.2853 O   0  0  0  0  0  0  0  0  0  0  0  0
  145.6379  133.0294  152.8037 C   0  0  0  0  0  0  0  0  0  0  0  0
  146.4182  132.0810  151.8778 C   0  0  0  0  0  0  0  0  0  0  0  0
  145.5091  131.3433  151.0712 O   0  0  0  0  0  0  0  0  0  0  0  0
  144.7403  132.1714  150.2087 C   0  0  0  0  0  0  0  0  0  0  0  0
  143.8956  133.1627  151.0334 C   0  0  0  0  0  0  0  0  0  0  0  0
  144.1834  137.0919  160.1099 H   0  0  0  0  0  0  0  0  0  0  0  0
  144.7625  137.9999  158.7193 H   0  0  0  0  0  0  0  0  0  0  0  0
  145.7778  137.8350  160.1505 H   0  0  0  0  0  0  0  0  0  0  0  0
  144.8650  135.5674  158.3509 H   0  0  0  0  0  0  0  0  0  0  0  0
  145.2251  134.8640  160.7176 H   0  0  0  0  0  0  0  0  0  0  0  0
  146.3211  134.0574  159.6197 H   0  0  0  0  0  0  0  0  0  0  0  0
  147.2549  133.7054  162.4621 H   0  0  0  0  0  0  0  0  0  0  0  0
  146.2113  135.0336  162.9950 H   0  0  0  0  0  0  0  0  0  0  0  0
  147.9454  135.0720  163.3368 H   0  0  0  0  0  0  0  0  0  0  0  0
  148.7481  137.1072  157.8235 H   0  0  0  0  0  0  0  0  0  0  0  0
  148.1756  137.0035  159.4787 H   0  0  0  0  0  0  0  0  0  0  0  0
  147.5499  138.2659  158.4192 H   0  0  0  0  0  0  0  0  0  0  0  0
  148.4689  136.4236  153.9827 H   0  0  0  0  0  0  0  0  0  0  0  0
  142.5112  134.5411  155.5343 H   0  0  0  0  0  0  0  0  0  0  0  0
  142.8290  134.1056  153.0981 H   0  0  0  0  0  0  0  0  0  0  0  0
  143.3725  135.6515  152.5203 H   0  0  0  0  0  0  0  0  0  0  0  0
  146.0367  135.7865  151.8789 H   0  0  0  0  0  0  0  0  0  0  0  0
  146.3841  134.5632  150.6908 H   0  0  0  0  0  0  0  0  0  0  0  0
  145.0317  135.5043  149.4154 H   0  0  0  0  0  0  0  0  0  0  0  0
  146.3329  133.5604  153.4542 H   0  0  0  0  0  0  0  0  0  0  0  0
  145.0192  132.4200  153.4637 H   0  0  0  0  0  0  0  0  0  0  0  0
  147.1270  132.6253  151.2526 H   0  0  0  0  0  0  0  0  0  0  0  0
  147.0014  131.3790  152.4742 H   0  0  0  0  0  0  0  0  0  0  0  0
  145.3917  132.6821  149.4995 H   0  0  0  0  0  0  0  0  0  0  0  0
  144.0837  131.5346  149.6157 H   0  0  0  0  0  0  0  0  0  0  0  0
  143.1568  132.5827  151.5883 H   0  0  0  0  0  0  0  0  0  0  0  0
  143.3263  133.8080  150.3631 H   0  0  0  0  0  0  0  0  0  0  0  0
  1  2  1  0  0  0  0
  1 27  1  0  0  0  0
  1 28  1  0  0  0  0
  1 29  1  0  0  0  0
  2  3  1  0  0  0  0
  2  7  1  0  0  0  0
  2 30  1  0  0  0  0
  3  4  1  0  0  0  0
  3 31  1  0  0  0  0
  3 32  1  0  0  0  0
  4  5  1  0  0  0  0
  4  6  2  0  0  0  0
  5 33  1  0  0  0  0
  5 34  1  0  0  0  0
  5 35  1  0  0  0  0
  7  8  1  0  0  0  0
  7  9  1  0  0  0  0
  8 36  1  0  0  0  0
  8 37  1  0  0  0  0
  8 38  1  0  0  0  0
  9 14  1  0  0  0  0
  9 10  2  0  0  0  0
 10 11  1  0  0  0  0
 11 12  2  0  0  0  0
 11 39  1  0  0  0  0
 12 13  1  0  0  0  0
 13 17  1  0  0  0  0
 13 14  2  0  0  0  0
 14 15  1  0  0  0  0
 15 16  2  0  0  0  0
 16 17  1  0  0  0  0
 16 40  1  0  0  0  0
 17 18  1  0  0  0  0
 18 19  1  0  0  0  0
 18 41  1  0  0  0  0
 18 42  1  0  0  0  0
 19 26  1  0  0  0  0
 19 20  1  0  0  0  0
 19 22  1  0  0  0  0
 20 21  1  0  0  0  0
 20 43  1  0  0  0  0
 20 44  1  0  0  0  0
 21 45  1  0  0  0  0
 22 23  1  0  0  0  0
 22 46  1  0  0  0  0
 22 47  1  0  0  0  0
 23 24  1  0  0  0  0
 23 48  1  0  0  0  0
 23 49  1  0  0  0  0
 24 25  1  0  0  0  0
 25 26  1  0  0  0  0
 25 50  1  0  0  0  0
 25 51  1  0  0  0  0
 26 52  1  0  0  0  0
 26 53  1  0  0  0  0
M  END
> <s_m_source_file>
AV-unprocessed.smi

> <i_m_source_file_index>
194

> <i_lp_mmshare_version>
43012

> <i_f3d_flags>
0

> <s_epik_input>
W0NIM11bU0BAXSg9TylbQ0gyXVtDQEBIXShbQ0gzXSlOKFtDSDNdKWMobltjSF1uMSljKGMxMiluW2NIXW4yW0NIMl1DMyhbQ0gyXVtPSF0pW0NIMl1bQ0gyXU9bQ0gyXVtDSDJdMw==

> <s_epik_cmdline>
J2VwaWtfcHl0aG9uJywgJy1waCcsICc3LjAnLCAnLXRuJywgJzgnLCAnLW1hJywgJzIwMCcsICctbWV0YWxfYmluZGluZycsICctaW1hZScsICc8aW5maWxlLm1hZT4nLCAnLW9tYWUnLCAnPG91dGZpbGUubWFlPic=

> <r_lp_tautomer_probability>
1

> <r_epik_Ionization_Penalty>
0.00101625

> <r_epik_Ionization_Penalty_Charging>
0

> <r_epik_Ionization_Penalty_Neutral>
0.00101625

> <r_epik_State_Penalty>
0.000568005

> <r_epik_Charging_Adjusted_Penalty>
0.000568005

> <i_epik_Tot_Q>
0

> <i_epik_Tot_abs_Q>
0

> <r_epik_Metal_State_Penalty>
-0

> <b_epik_Metal_Only>
0

> <s_lp_Force_Field>
OPLS_2005

> <r_lp_Energy>
28.7742

> <b_lp_Chiralities_Consistent>
1

> <s_lp_Variant>
AV-unprocessed.smi:194-3

> <Gold.Version>
5.8.1

> <Gold.Id.Protein>
6NUR|6NUR_protein|mol2

> <Gold.PLP.Fitness>
40.2638

> <Gold.PLP.PLP>
-28.1067

> <Gold.PLP.part.hbond>
-3.4924

> <Gold.PLP.part.metal>
0.0000

> <Gold.PLP.part.buried>
-4.3891

> <Gold.PLP.part.nonpolar>
-20.2783

> <Gold.PLP.part.repulsive>
0.5907

> <Gold.PLP.ligand.clash>
0.0000

> <Gold.PLP.ligand.torsion>
1.4075

> <Gold.PLP.Chemscore.Hbond>
2.8413

> <Gold.PLP.Chemscore.CHOScore>
1.9345

> <Gold.PLP.Chemscore.Metal>
0.0000

> <Gold.Chemscore.Hbonds>
donor molecule, donor type, donor heavy atom, donor atom, acceptor molecule, acceptor atom, score
      L1  H    21    45       P1  7921  0.59
      P1  H  6931  6943       L1     6  0.50
      P1  H  6934  6947       L1     6  1.00
      L1  C    11    39       P1  7948  1.00
      L1  C    16    40       P1 10957  0.09
      L1  C    16    40       P1 11000  1.00

> <Gold.PLP.Chemscore.Internal.Correction>
0.6448

> <Gold.Rescore>
     Score         DG    S(hbond)    S(metal)    S(lipo)     H(rot)  DE(clash)    DE(int)     intcor
      7.55     -13.00       2.67        0.00      54.34       3.03       0.18       5.27       ----

> <Gold.Chemscore.Fitness>
7.5544

> <Gold.Chemscore.DG>
-13.0035

> <Gold.Chemscore.ZeroCoef>
-5.4800

> <Gold.Chemscore.Hbond>
2.6712

> <Gold.Chemscore.Metal>
0.0000

> <Gold.Chemscore.Lipo>
54.3357

> <Gold.Chemscore.Internal_Hbond>
0.0000

> <Gold.Chemscore.DEClash>
0.1794

> <Gold.Chemscore.DEInternal>
5.2696

> <Gold.Chemscore.Rot>
3.0295

> <Gold.Chemscore.Internal.Correction>
   9.000000E+99

> <Gold.Chemscore.Hbonds>
donor molecule, donor type, donor heavy atom, donor atom, acceptor molecule, acceptor atom, score
      L1  H    21    45       P1  7921  0.58
      P1  H  6931  6943       L1     6  0.42
      P1  H  6934  6947       L1     6  0.97

> <Gold.Chemscore.Hbond.Weighted>
-8.9217

> <Gold.Chemscore.Metal.Weighted>
-0.0000

> <Gold.Chemscore.Lipo.Weighted>
-6.3573

> <Gold.Chemscore.Internal_Hbond.Weighted>
0.0000

> <Gold.Chemscore.DEClash.Weighted>
0.1794

> <Gold.Chemscore.DEInternal.Weighted>
5.2696

> <Gold.Chemscore.Rot.Weighted>
7.7555

> <Gold.Chemscore.Internal.Correction.Weighted>
   9.000000E+99

> <Gold.Protein.RotatedTorsions>
[ 6907 6896 6895 6894 ] final  -92.70 input  -60.11 | X-H torsion
[ 7974 7965 7964 7962 ] final  156.01 input  175.53 | X-H torsion
[ 8008 7997 7996 7995 ] final   86.25 input   59.86 | X-H torsion
[ 10167 10162 10161 10158 ] final  134.03 input  -65.29 | X-H torsion
[ 10718 10713 10712 10709 ] final  104.40 input   66.30 | X-H torsion
[ 10763 10752 10751 10750 ] final  156.02 input  -60.55 | X-H torsion
[ 11005 11000 10999 10996 ] final  135.22 input  -57.11 | X-H torsion

> <Gold.Protein.ActiveResidues>
 VAL166  LYS551  ARG553  GLY616  TRP617  ASP618  TYR619  PRO620  LYS621  CYS622 
 ASP623  PHE694  ASN695  SER759  ASP760  ASP761  ALA762  ILE779  LEU786  VAL792 
 PHE793  MET794  SER795  GLU796  ALA797  LYS798  CYS799  TRP800  GLU811  SER814 

> <Gold.Protein.RotatedAtoms>
  150.6910  134.2081  159.4348 H   0  0  0  0  0  0  0  0  0  0  0  0  # atno 6907 bound_to 6896
  152.0044  134.9908  160.0575 H   0  0  0  0  0  0  0  0  0  0  0  0  # atno 6908 bound_to 6896
  152.1548  133.4509  159.4868 H   0  0  0  0  0  0  0  0  0  0  0  0  # atno 6909 bound_to 6896
  144.7989  139.7145  143.6190 H   0  0  0  0  0  0  0  0  0  0  0  0  # atno 7974 bound_to 7965
  155.9604  140.3394  155.6485 H   0  0  0  0  0  0  0  0  0  0  0  0  # atno 8008 bound_to 7997
  155.6806  140.0737  157.2504 H   0  0  0  0  0  0  0  0  0  0  0  0  # atno 8009 bound_to 7997
  154.4142  140.1675  156.1966 H   0  0  0  0  0  0  0  0  0  0  0  0  # atno 8010 bound_to 7997
  139.5273  144.6587  151.5080 H   0  0  0  0  0  0  0  0  0  0  0  0  # atno 10167 bound_to 10162
  157.6741  131.0803  150.5700 H   0  0  0  0  0  0  0  0  0  0  0  0  # atno 10718 bound_to 10713
  154.1777  135.2801  155.3061 H   0  0  0  0  0  0  0  0  0  0  0  0  # atno 10763 bound_to 10752
  154.6026  135.5524  153.7393 H   0  0  0  0  0  0  0  0  0  0  0  0  # atno 10764 bound_to 10752
  153.0146  135.6395  154.1917 H   0  0  0  0  0  0  0  0  0  0  0  0  # atno 10765 bound_to 10752
  139.9965  134.9495  156.9976 H   0  0  0  0  0  0  0  0  0  0  0  0  # atno 11005 bound_to 11000
  146.2265  139.5733  142.9583 LP  0  0  0  0  0  0  0  0  0  0  0  0  # atno 17320 bound_to 7965
  145.5602  141.0405  143.2230 LP  0  0  0  0  0  0  0  0  0  0  0  0  # atno 17321 bound_to 7965
  140.6425  143.8860  150.6706 LP  0  0  0  0  0  0  0  0  0  0  0  0  # atno 17342 bound_to 10162
  140.2199  143.3817  152.1651 LP  0  0  0  0  0  0  0  0  0  0  0  0  # atno 17343 bound_to 10162
  156.6002  130.4352  149.5900 LP  0  0  0  0  0  0  0  0  0  0  0  0  # atno 17370 bound_to 10713
  156.2513  130.6908  151.1647 LP  0  0  0  0  0  0  0  0  0  0  0  0  # atno 17371 bound_to 10713
  140.4808  134.1291  155.7216 LP  0  0  0  0  0  0  0  0  0  0  0  0  # atno 17394 bound_to 11000
  141.1608  133.8795  157.1851 LP  0  0  0  0  0  0  0  0  0  0  0  0  # atno 17395 bound_to 11000

$$$$
