AV-unprocessed.smi:1870|AV-procd|sdf|7596|dock9
  -GOLD-   22720 9313D 1   1.00000     0.00000
 Structure written by MMmdl.
 48 50  0  0  0  0  0  0  0  0  2 V2000
  146.7113  136.6951  162.7822 C   0  0  0  0  0  0  0  0  0  0  0  0
  147.0219  136.2504  161.3785 C   0  0  0  0  0  0  0  0  0  0  0  0
  147.2347  137.1817  160.5077 N   0  0  0  0  0  0  0  0  0  0  0  0
  147.5457  136.8829  159.1950 N   0  0  0  0  0  0  0  0  0  0  0  0
  147.8409  138.0600  158.3652 C   0  0  0  0  0  0  0  0  0  0  0  0
  149.3293  138.1337  157.9537 C   0  0  1  0  0  0  0  0  0  0  0  0
  149.4338  137.7545  156.5966 O   0  0  0  0  0  0  0  0  0  0  0  0
  149.9355  139.5455  158.1217 C   0  0  0  0  0  0  0  0  0  0  0  0
  151.2689  139.7129  157.4786 N   0  3  2  0  0  0  0  0  0  0  0  0
  152.4231  139.1738  158.2463 C   0  0  0  0  0  0  0  0  0  0  0  0
  152.5988  139.9001  159.5918 C   0  0  0  0  0  0  0  0  0  0  0  0
  152.4843  141.4109  159.4579 C   0  0  0  0  0  0  0  0  0  0  0  0
  152.8693  142.2356  160.5345 C   0  0  0  0  0  0  0  0  0  0  0  0
  152.7231  143.6328  160.4437 C   0  0  0  0  0  0  0  0  0  0  0  0
  152.1876  144.2105  159.2770 C   0  0  0  0  0  0  0  0  0  0  0  0
  151.7999  143.3917  158.1991 C   0  0  0  0  0  0  0  0  0  0  0  0
  151.9447  141.9913  158.2821 C   0  0  0  0  0  0  0  0  0  0  0  0
  151.5349  141.1229  157.0957 C   0  0  0  0  0  0  0  0  0  0  0  0
  147.6172  135.6207  158.6834 C   0  0  0  0  0  0  0  0  0  0  0  0
  147.8770  135.4000  157.5000 O   0  0  0  0  0  0  0  0  0  0  0  0
  147.3775  134.5705  159.6754 C   0  0  0  0  0  0  0  0  0  0  0  0
  147.4745  133.2323  159.1883 C   0  0  0  0  0  0  0  0  0  0  0  0
  147.5670  132.1423  158.8100 N   0  0  0  0  0  0  0  0  0  0  0  0
  147.0942  134.8511  160.9718 C   0  0  0  0  0  0  0  0  0  0  0  0
  146.8440  133.7967  162.0411 C   0  0  0  0  0  0  0  0  0  0  0  0
  145.6979  136.4080  163.0629 H   0  0  0  0  0  0  0  0  0  0  0  0
  146.7905  137.7775  162.8934 H   0  0  0  0  0  0  0  0  0  0  0  0
  147.4017  136.2424  163.4941 H   0  0  0  0  0  0  0  0  0  0  0  0
  147.2078  138.0427  157.4761 H   0  0  0  0  0  0  0  0  0  0  0  0
  147.5642  138.9716  158.8989 H   0  0  0  0  0  0  0  0  0  0  0  0
  149.8791  137.4014  158.5410 H   0  0  0  0  0  0  0  0  0  0  0  0
  148.8290  137.0470  156.4312 H   0  0  0  0  0  0  0  0  0  0  0  0
  149.2388  140.2742  157.7043 H   0  0  0  0  0  0  0  0  0  0  0  0
  150.0254  139.8047  159.1751 H   0  0  0  0  0  0  0  0  0  0  0  0
  152.3470  138.0979  158.3946 H   0  0  0  0  0  0  0  0  0  0  0  0
  153.3211  139.3172  157.6432 H   0  0  0  0  0  0  0  0  0  0  0  0
  151.8482  139.5598  160.3066 H   0  0  0  0  0  0  0  0  0  0  0  0
  153.5680  139.6473  160.0227 H   0  0  0  0  0  0  0  0  0  0  0  0
  153.2707  141.7976  161.4370 H   0  0  0  0  0  0  0  0  0  0  0  0
  153.0178  144.2615  161.2712 H   0  0  0  0  0  0  0  0  0  0  0  0
  152.0749  145.2826  159.2085 H   0  0  0  0  0  0  0  0  0  0  0  0
  151.3948  143.8435  157.3053 H   0  0  0  0  0  0  0  0  0  0  0  0
  152.3462  141.1421  156.3668 H   0  0  0  0  0  0  0  0  0  0  0  0
  150.6648  141.5520  156.5965 H   0  0  0  0  0  0  0  0  0  0  0  0
  146.8123  132.7892  161.6273 H   0  0  0  0  0  0  0  0  0  0  0  0
  145.8909  133.9709  162.5411 H   0  0  0  0  0  0  0  0  0  0  0  0
  147.6359  133.8214  162.7905 H   0  0  0  0  0  0  0  0  0  0  0  0
  151.2236  139.1892  156.6160 H   0  0  0  0  0  0  0  0  0  0  0  0
  1  2  1  0  0  0  0
  1 26  1  0  0  0  0
  1 27  1  0  0  0  0
  1 28  1  0  0  0  0
  2 24  1  0  0  0  0
  2  3  2  0  0  0  0
  3  4  1  0  0  0  0
  4  5  1  0  0  0  0
  4 19  1  0  0  0  0
  5  6  1  0  0  0  0
  5 29  1  0  0  0  0
  5 30  1  0  0  0  0
  6  7  1  0  0  0  0
  6  8  1  0  0  0  0
  6 31  1  0  0  0  0
  7 32  1  0  0  0  0
  8  9  1  0  0  0  0
  8 33  1  0  0  0  0
  8 34  1  0  0  0  0
  9 18  1  0  0  0  0
  9 10  1  0  0  0  0
  9 48  1  0  0  0  0
 10 11  1  0  0  0  0
 10 35  1  0  0  0  0
 10 36  1  0  0  0  0
 11 12  1  0  0  0  0
 11 37  1  0  0  0  0
 11 38  1  0  0  0  0
 12 17  2  0  0  0  0
 12 13  1  0  0  0  0
 13 14  2  0  0  0  0
 13 39  1  0  0  0  0
 14 15  1  0  0  0  0
 14 40  1  0  0  0  0
 15 16  2  0  0  0  0
 15 41  1  0  0  0  0
 16 17  1  0  0  0  0
 16 42  1  0  0  0  0
 17 18  1  0  0  0  0
 18 43  1  0  0  0  0
 18 44  1  0  0  0  0
 19 20  2  0  0  0  0
 19 21  1  0  0  0  0
 21 22  1  0  0  0  0
 21 24  2  0  0  0  0
 22 23  3  0  0  0  0
 24 25  1  0  0  0  0
 25 45  1  0  0  0  0
 25 46  1  0  0  0  0
 25 47  1  0  0  0  0
M  CHG  1   9   1
M  END
> <s_m_source_file>
AV-unprocessed.smi

> <i_m_source_file_index>
1870

> <i_lp_mmshare_version>
43012

> <i_f3d_flags>
0

> <s_epik_input>
TiNDYyhjMVtDSDNdKWMoPU8pbihuYzFbQ0gzXSlbQ0gyXVtDQEhdKFtPSF0pW0NIMl1OKFtDSDJdW0NIMl0yKVtDSDJdYyhjMjMpW2NIXVtjSF1bY0hdW2NIXTM=

> <s_epik_cmdline>
J2VwaWtfcHl0aG9uJywgJy1waCcsICc3LjAnLCAnLXRuJywgJzgnLCAnLW1hJywgJzIwMCcsICctbWV0YWxfYmluZGluZycsICctaW1hZScsICc8aW5maWxlLm1hZT4nLCAnLW9tYWUnLCAnPG91dGZpbGUubWFlPic=

> <r_epik_Ionization_Penalty>
0.0122865

> <r_epik_Ionization_Penalty_Charging>
0.0122864

> <r_epik_Ionization_Penalty_Neutral>
1.48087e-07

> <r_epik_State_Penalty>
0.00950248

> <r_epik_Charging_Adjusted_Penalty>
0.0217889

> <i_epik_Tot_Q>
1

> <i_epik_Tot_abs_Q>
1

> <r_epik_Metal_State_Penalty>
0.00950248

> <b_epik_Metal_Only>
0

> <s_lp_Force_Field>
OPLS_2005

> <r_lp_Energy>
37.2352

> <b_lp_Chiralities_Consistent>
1

> <s_lp_Variant>
AV-unprocessed.smi:1870-4

> <Gold.Version>
5.8.1

> <Gold.Id.Protein>
6NUR|6NUR_protein|mol2

> <Gold.PLP.Fitness>
48.3023

> <Gold.PLP.PLP>
-45.5707

> <Gold.PLP.part.hbond>
-2.0000

> <Gold.PLP.part.metal>
0.0000

> <Gold.PLP.part.buried>
-5.3205

> <Gold.PLP.part.nonpolar>
-38.2268

> <Gold.PLP.part.repulsive>
0.0406

> <Gold.PLP.ligand.clash>
0.0000

> <Gold.PLP.ligand.torsion>
1.0222

> <Gold.PLP.Chemscore.Hbond>
1.5832

> <Gold.PLP.Chemscore.CHOScore>
0.0000

> <Gold.PLP.Chemscore.Metal>
0.0000

> <Gold.Chemscore.Hbonds>
donor molecule, donor type, donor heavy atom, donor atom, acceptor molecule, acceptor atom, score
      P1  H  6934  6947       L1     3  1.00

> <Gold.PLP.Chemscore.Internal.Correction>
0.0265

> <Gold.Rescore>
     Score         DG    S(hbond)    S(metal)    S(lipo)     H(rot)  DE(clash)    DE(int)     intcor
     16.84     -17.85       0.92        0.00     126.83       2.16       0.00       1.00       ----

> <Gold.Chemscore.Fitness>
16.8431

> <Gold.Chemscore.DG>
-17.8482

> <Gold.Chemscore.ZeroCoef>
-5.4800

> <Gold.Chemscore.Hbond>
0.9177

> <Gold.Chemscore.Metal>
0.0000

> <Gold.Chemscore.Lipo>
126.8348

> <Gold.Chemscore.Internal_Hbond>
0.0000

> <Gold.Chemscore.DEClash>
0.0009

> <Gold.Chemscore.DEInternal>
1.0042

> <Gold.Chemscore.Rot>
2.1628

> <Gold.Chemscore.Internal.Correction>
   9.000000E+99

> <Gold.Chemscore.Hbonds>
donor molecule, donor type, donor heavy atom, donor atom, acceptor molecule, acceptor atom, score
      P1  H  6934  6947       L1     3  0.90

> <Gold.Chemscore.Hbond.Weighted>
-3.0652

> <Gold.Chemscore.Metal.Weighted>
-0.0000

> <Gold.Chemscore.Lipo.Weighted>
-14.8397

> <Gold.Chemscore.Internal_Hbond.Weighted>
0.0000

> <Gold.Chemscore.DEClash.Weighted>
0.0009

> <Gold.Chemscore.DEInternal.Weighted>
1.0042

> <Gold.Chemscore.Rot.Weighted>
5.5367

> <Gold.Chemscore.Internal.Correction.Weighted>
   9.000000E+99

> <Gold.Protein.RotatedTorsions>
[ 6907 6896 6895 6894 ] final  129.94 input  -60.11 | X-H torsion
[ 7974 7965 7964 7962 ] final  -24.64 input  175.53 | X-H torsion
[ 8008 7997 7996 7995 ] final  -68.79 input   59.86 | X-H torsion
[ 10167 10162 10161 10158 ] final   30.32 input  -65.29 | X-H torsion
[ 10718 10713 10712 10709 ] final  -77.08 input   66.30 | X-H torsion
[ 10763 10752 10751 10750 ] final   55.81 input  -60.55 | X-H torsion
[ 11005 11000 10999 10996 ] final  -14.25 input  -57.11 | X-H torsion

> <Gold.Protein.ActiveResidues>
 VAL166  LYS551  ARG553  GLY616  TRP617  ASP618  TYR619  PRO620  LYS621  CYS622 
 ASP623  PHE694  ASN695  SER759  ASP760  ASP761  ALA762  ILE779  LEU786  VAL792 
 PHE793  MET794  SER795  GLU796  ALA797  LYS798  CYS799  TRP800  GLU811  SER814 

> <Gold.Protein.RotatedAtoms>
  152.3575  133.6255  159.5989 H   0  0  0  0  0  0  0  0  0  0  0  0  # atno 6907 bound_to 6896
  150.7578  133.9477  159.3485 H   0  0  0  0  0  0  0  0  0  0  0  0  # atno 6908 bound_to 6896
  151.7320  135.0874  160.0353 H   0  0  0  0  0  0  0  0  0  0  0  0  # atno 6909 bound_to 6896
  146.1542  140.4779  142.8598 H   0  0  0  0  0  0  0  0  0  0  0  0  # atno 7974 bound_to 7965
  154.4893  140.0866  156.7558 H   0  0  0  0  0  0  0  0  0  0  0  0  # atno 8008 bound_to 7997
  155.4271  140.3448  155.4258 H   0  0  0  0  0  0  0  0  0  0  0  0  # atno 8009 bound_to 7997
  156.1307  140.1500  156.9058 H   0  0  0  0  0  0  0  0  0  0  0  0  # atno 8010 bound_to 7997
  140.4688  144.0794  150.6231 H   0  0  0  0  0  0  0  0  0  0  0  0  # atno 10167 bound_to 10162
  156.0155  130.4482  150.3291 H   0  0  0  0  0  0  0  0  0  0  0  0  # atno 10718 bound_to 10713
  152.9822  135.5698  154.5128 H   0  0  0  0  0  0  0  0  0  0  0  0  # atno 10763 bound_to 10752
  154.4629  135.2782  155.1702 H   0  0  0  0  0  0  0  0  0  0  0  0  # atno 10764 bound_to 10752
  154.3282  135.6255  153.5592 H   0  0  0  0  0  0  0  0  0  0  0  0  # atno 10765 bound_to 10752
  140.7845  133.8337  155.9322 H   0  0  0  0  0  0  0  0  0  0  0  0  # atno 11005 bound_to 11000
  144.7942  140.6090  143.6521 LP  0  0  0  0  0  0  0  0  0  0  0  0  # atno 17320 bound_to 7965
  145.4750  139.1500  143.3793 LP  0  0  0  0  0  0  0  0  0  0  0  0  # atno 17321 bound_to 7965
  140.4003  143.2707  151.9956 LP  0  0  0  0  0  0  0  0  0  0  0  0  # atno 17342 bound_to 10162
  139.4815  144.6003  151.7617 LP  0  0  0  0  0  0  0  0  0  0  0  0  # atno 17343 bound_to 10162
  157.1390  131.0291  151.2936 LP  0  0  0  0  0  0  0  0  0  0  0  0  # atno 17370 bound_to 10713
  157.4488  130.7586  149.7133 LP  0  0  0  0  0  0  0  0  0  0  0  0  # atno 17371 bound_to 10713
  140.9450  134.1852  157.4770 LP  0  0  0  0  0  0  0  0  0  0  0  0  # atno 17394 bound_to 11000
  139.8738  134.9887  156.5423 LP  0  0  0  0  0  0  0  0  0  0  0  0  # atno 17395 bound_to 11000

$$$$
