AV-unprocessed.smi:1817|AV-procd|sdf|7378|dock4
  -GOLD-   22720 9 43D 1   1.00000     0.00000
 Structure written by MMmdl.
 41 42  0  0  0  0  0  0  0  0  2 V2000
  151.6594  144.5150  160.4900 C   0  0  0  0  0  0  0  0  0  0  0  0
  152.4746  144.3440  159.2004 C   0  0  0  0  0  0  0  0  0  0  0  0
  152.5349  142.9769  158.6879 N   0  0  0  0  0  0  0  0  0  0  0  0
  151.2355  142.5566  158.1699 C   0  0  0  0  0  0  0  0  0  0  0  0
  151.2853  141.1273  157.6010 C   0  0  0  0  0  0  0  0  0  0  0  0
  151.6971  140.1437  158.6113 N   0  0  0  0  0  0  0  0  0  0  0  0
  151.7393  138.7644  158.0780 C   0  0  2  0  0  0  0  0  0  0  0  0
  152.7281  138.5871  156.9035 C   0  0  0  0  0  0  0  0  0  0  0  0
  150.3554  138.2119  157.6451 C   0  0  0  0  0  0  0  0  0  0  0  0
  149.4132  138.1271  158.7606 N   0  0  0  0  0  0  0  0  0  0  0  0
  148.9187  137.0060  159.3052 C   0  0  0  0  0  0  0  0  0  0  0  0
  149.2690  135.9039  158.8770 O   0  0  0  0  0  0  0  0  0  0  0  0
  148.0416  137.2311  160.3103 N   0  5  0  0  0  0  0  0  0  0  0  0
  147.4119  136.1989  160.8954 C   0  0  0  0  0  0  0  0  0  0  0  0
  146.7991  135.2374  160.1864 N   0  0  0  0  0  0  0  0  0  0  0  0
  146.2126  134.2619  160.9815 N   0  0  0  0  0  0  0  0  0  0  0  0
  146.4052  134.5105  162.2766 C   0  0  0  0  0  0  0  0  0  0  0  0
  147.3253  135.9546  162.6425 S   0  0  0  0  0  0  0  0  0  0  0  0
  152.9937  140.5789  159.1486 C   0  0  0  0  0  0  0  0  0  0  0  0
  152.9433  142.0122  159.7092 C   0  0  0  0  0  0  0  0  0  0  0  0
  151.7469  145.5347  160.8655 H   0  0  0  0  0  0  0  0  0  0  0  0
  152.0159  143.8433  161.2716 H   0  0  0  0  0  0  0  0  0  0  0  0
  150.5993  144.3188  160.3322 H   0  0  0  0  0  0  0  0  0  0  0  0
  152.0863  145.0130  158.4310 H   0  0  0  0  0  0  0  0  0  0  0  0
  153.4894  144.6849  159.4092 H   0  0  0  0  0  0  0  0  0  0  0  0
  150.4821  142.6102  158.9578 H   0  0  0  0  0  0  0  0  0  0  0  0
  150.9131  143.2411  157.3845 H   0  0  0  0  0  0  0  0  0  0  0  0
  150.2904  140.8939  157.2254 H   0  0  0  0  0  0  0  0  0  0  0  0
  151.9626  141.0935  156.7462 H   0  0  0  0  0  0  0  0  0  0  0  0
  152.0916  138.1089  158.8757 H   0  0  0  0  0  0  0  0  0  0  0  0
  152.6438  137.5933  156.4633 H   0  0  0  0  0  0  0  0  0  0  0  0
  153.7652  138.6910  157.2206 H   0  0  0  0  0  0  0  0  0  0  0  0
  152.5438  139.3135  156.1112 H   0  0  0  0  0  0  0  0  0  0  0  0
  149.9467  138.8183  156.8352 H   0  0  0  0  0  0  0  0  0  0  0  0
  150.4533  137.2183  157.2100 H   0  0  0  0  0  0  0  0  0  0  0  0
  149.0890  139.0031  159.1433 H   0  0  0  0  0  0  0  0  0  0  0  0
  146.0068  133.8373  163.0208 H   0  0  0  0  0  0  0  0  0  0  0  0
  153.3082  139.9255  159.9606 H   0  0  0  0  0  0  0  0  0  0  0  0
  153.7606  140.5128  158.3751 H   0  0  0  0  0  0  0  0  0  0  0  0
  153.9303  142.2663  160.0941 H   0  0  0  0  0  0  0  0  0  0  0  0
  152.2574  142.0494  160.5573 H   0  0  0  0  0  0  0  0  0  0  0  0
  1  2  1  0  0  0  0
  1 21  1  0  0  0  0
  1 22  1  0  0  0  0
  1 23  1  0  0  0  0
  2  3  1  0  0  0  0
  2 24  1  0  0  0  0
  2 25  1  0  0  0  0
  3 20  1  0  0  0  0
  3  4  1  0  0  0  0
  4  5  1  0  0  0  0
  4 26  1  0  0  0  0
  4 27  1  0  0  0  0
  5  6  1  0  0  0  0
  5 28  1  0  0  0  0
  5 29  1  0  0  0  0
  6  7  1  0  0  0  0
  6 19  1  0  0  0  0
  7  8  1  0  0  0  0
  7  9  1  0  0  0  0
  7 30  1  0  0  0  0
  8 31  1  0  0  0  0
  8 32  1  0  0  0  0
  8 33  1  0  0  0  0
  9 10  1  0  0  0  0
  9 34  1  0  0  0  0
  9 35  1  0  0  0  0
 10 11  1  0  0  0  0
 10 36  1  0  0  0  0
 11 12  2  0  0  0  0
 11 13  1  0  0  0  0
 13 14  1  0  0  0  0
 14 18  1  0  0  0  0
 14 15  2  0  0  0  0
 15 16  1  0  0  0  0
 16 17  2  0  0  0  0
 17 18  1  0  0  0  0
 17 37  1  0  0  0  0
 19 20  1  0  0  0  0
 19 38  1  0  0  0  0
 19 39  1  0  0  0  0
 20 40  1  0  0  0  0
 20 41  1  0  0  0  0
M  CHG  1  13  -1
M  END
> <s_m_source_file>
AV-unprocessed.smi

> <i_m_source_file_index>
1817

> <i_lp_mmshare_version>
43012

> <i_f3d_flags>
0

> <s_epik_input>
W0NIM11bQ0gyXU4xW0NIMl1bQ0gyXU4oW0NIMl1bQ0gyXTEpW0NASF0oW0NIM10pW0NIMl1bTkhdQyg9TylbTkhdYzJubltjSF1zMg==

> <s_epik_cmdline>
J2VwaWtfcHl0aG9uJywgJy1waCcsICc3LjAnLCAnLXRuJywgJzgnLCAnLW1hJywgJzIwMCcsICctbWV0YWxfYmluZGluZycsICctaW1hZScsICc8aW5maWxlLm1hZT4nLCAnLW9tYWUnLCAnPG91dGZpbGUubWFlPic=

> <r_lp_tautomer_probability>
1

> <r_epik_Ionization_Penalty>
6.0391

> <r_epik_Ionization_Penalty_Charging>
3.54798

> <r_epik_Ionization_Penalty_Neutral>
2.49112

> <r_epik_State_Penalty>
5.3147

> <r_epik_Charging_Adjusted_Penalty>
8.86267

> <i_epik_Tot_Q>
-1

> <i_epik_Tot_abs_Q>
1

> <r_epik_Metal_State_Penalty>
2.29997

> <b_epik_Metal_Only>
1

> <s_lp_Force_Field>
OPLS_2005

> <r_lp_Energy>
41.9027

> <b_lp_Chiralities_Consistent>
1

> <s_lp_Variant>
AV-unprocessed.smi:1817-11

> <Gold.Version>
5.8.1

> <Gold.Id.Protein>
6NUR|6NUR_protein|mol2

> <Gold.PLP.Fitness>
49.0552

> <Gold.PLP.PLP>
-38.9088

> <Gold.PLP.part.hbond>
-3.0000

> <Gold.PLP.part.metal>
0.0000

> <Gold.PLP.part.buried>
-5.8318

> <Gold.PLP.part.nonpolar>
-31.0867

> <Gold.PLP.part.repulsive>
0.2216

> <Gold.PLP.ligand.clash>
0.0000

> <Gold.PLP.ligand.torsion>
0.5464

> <Gold.PLP.Chemscore.Hbond>
3.7166

> <Gold.PLP.Chemscore.CHOScore>
0.0000

> <Gold.PLP.Chemscore.Metal>
0.0000

> <Gold.Chemscore.Hbonds>
donor molecule, donor type, donor heavy atom, donor atom, acceptor molecule, acceptor atom, score
      P1  H  6896  6907       L1    12  0.86
      P1  H  6931  6943       L1    13  1.05
      P1  H  6934  6947       L1    13  1.29

> <Gold.PLP.Chemscore.Internal.Correction>
0.0892

> <Gold.Rescore>
     Score         DG    S(hbond)    S(metal)    S(lipo)     H(rot)  DE(clash)    DE(int)     intcor
     16.21     -18.09       1.99        0.00      91.25       1.84       0.05       1.84       ----

> <Gold.Chemscore.Fitness>
16.2058

> <Gold.Chemscore.DG>
-18.0933

> <Gold.Chemscore.ZeroCoef>
-5.4800

> <Gold.Chemscore.Hbond>
1.9869

> <Gold.Chemscore.Metal>
0.0000

> <Gold.Chemscore.Lipo>
91.2525

> <Gold.Chemscore.Internal_Hbond>
0.0000

> <Gold.Chemscore.DEClash>
0.0497

> <Gold.Chemscore.DEInternal>
1.8378

> <Gold.Chemscore.Rot>
1.8358

> <Gold.Chemscore.Internal.Correction>
   9.000000E+99

> <Gold.Chemscore.Hbonds>
donor molecule, donor type, donor heavy atom, donor atom, acceptor molecule, acceptor atom, score
      P1  H  6896  6907       L1    12  0.82
      P1  H  6931  6943       L1    13  0.20
      P1  H  6934  6947       L1    13  0.49

> <Gold.Chemscore.Hbond.Weighted>
-6.6364

> <Gold.Chemscore.Metal.Weighted>
-0.0000

> <Gold.Chemscore.Lipo.Weighted>
-10.6765

> <Gold.Chemscore.Internal_Hbond.Weighted>
0.0000

> <Gold.Chemscore.DEClash.Weighted>
0.0497

> <Gold.Chemscore.DEInternal.Weighted>
1.8378

> <Gold.Chemscore.Rot.Weighted>
4.6996

> <Gold.Chemscore.Internal.Correction.Weighted>
   9.000000E+99

> <Gold.Protein.RotatedTorsions>
[ 6907 6896 6895 6894 ] final  -78.85 input  -60.11 | X-H torsion
[ 7974 7965 7964 7962 ] final  107.46 input  175.53 | X-H torsion
[ 8008 7997 7996 7995 ] final  157.34 input   59.86 | X-H torsion
[ 10167 10162 10161 10158 ] final -133.01 input  -65.29 | X-H torsion
[ 10718 10713 10712 10709 ] final  -70.07 input   66.30 | X-H torsion
[ 10763 10752 10751 10750 ] final   90.13 input  -60.55 | X-H torsion
[ 11005 11000 10999 10996 ] final  137.41 input  -57.11 | X-H torsion

> <Gold.Protein.ActiveResidues>
 VAL166  LYS551  ARG553  GLY616  TRP617  ASP618  TYR619  PRO620  LYS621  CYS622 
 ASP623  PHE694  ASN695  SER759  ASP760  ASP761  ALA762  ILE779  LEU786  VAL792 
 PHE793  MET794  SER795  GLU796  ALA797  LYS798  CYS799  TRP800  GLU811  SER814 

> <Gold.Protein.RotatedAtoms>
  150.6963  134.4209  159.5204 H   0  0  0  0  0  0  0  0  0  0  0  0  # atno 6907 bound_to 6896
  152.1952  134.8634  160.0522 H   0  0  0  0  0  0  0  0  0  0  0  0  # atno 6908 bound_to 6896
  151.9574  133.3650  159.4059 H   0  0  0  0  0  0  0  0  0  0  0  0  # atno 6909 bound_to 6896
  145.2934  139.2593  143.3853 H   0  0  0  0  0  0  0  0  0  0  0  0  # atno 7974 bound_to 7965
  156.2370  140.1888  156.7093 H   0  0  0  0  0  0  0  0  0  0  0  0  # atno 8008 bound_to 7997
  154.6124  140.0620  156.9538 H   0  0  0  0  0  0  0  0  0  0  0  0  # atno 8009 bound_to 7997
  155.1994  140.3291  155.4348 H   0  0  0  0  0  0  0  0  0  0  0  0  # atno 8010 bound_to 7997
  139.9027  143.6588  152.2591 H   0  0  0  0  0  0  0  0  0  0  0  0  # atno 10167 bound_to 10162
  156.0425  130.4324  150.2241 H   0  0  0  0  0  0  0  0  0  0  0  0  # atno 10718 bound_to 10713
  153.1944  135.4445  155.0189 H   0  0  0  0  0  0  0  0  0  0  0  0  # atno 10763 bound_to 10752
  154.8109  135.3294  154.7309 H   0  0  0  0  0  0  0  0  0  0  0  0  # atno 10764 bound_to 10752
  153.7760  135.6981  153.4953 H   0  0  0  0  0  0  0  0  0  0  0  0  # atno 10765 bound_to 10752
  140.0112  134.9438  157.0282 H   0  0  0  0  0  0  0  0  0  0  0  0  # atno 11005 bound_to 11000
  146.3177  140.3430  142.8649 LP  0  0  0  0  0  0  0  0  0  0  0  0  # atno 17320 bound_to 7965
  144.9154  140.7806  143.5781 LP  0  0  0  0  0  0  0  0  0  0  0  0  # atno 17321 bound_to 7965
  139.7011  144.7635  151.1271 LP  0  0  0  0  0  0  0  0  0  0  0  0  # atno 17342 bound_to 10162
  140.7703  143.5456  150.9262 LP  0  0  0  0  0  0  0  0  0  0  0  0  # atno 17343 bound_to 10162
  157.0334  131.0014  151.3305 LP  0  0  0  0  0  0  0  0  0  0  0  0  # atno 17370 bound_to 10713
  157.5261  130.8029  149.7863 LP  0  0  0  0  0  0  0  0  0  0  0  0  # atno 17371 bound_to 10713
  140.4551  134.1542  155.7185 LP  0  0  0  0  0  0  0  0  0  0  0  0  # atno 17394 bound_to 11000
  141.1712  133.8604  157.1564 LP  0  0  0  0  0  0  0  0  0  0  0  0  # atno 17395 bound_to 11000

$$$$
