AV-unprocessed.smi:102|AV-procd|sdf|950|dock3
  -GOLD-   2262017473D 1   1.00000     0.00000
 Structure written by MMmdl.
 44 45  0  0  0  0  0  0  0  0  1 V2000
  149.5685  131.6194  154.0386 C   0  0  0  0  0  0  0  0  0  0  0  0
  149.0507  132.9220  154.6336 C   0  0  0  0  0  0  0  0  0  0  0  0
  149.5880  134.0019  154.3875 O   0  0  0  0  0  0  0  0  0  0  0  0
  147.9842  132.7329  155.4223 O   0  0  0  0  0  0  0  0  0  0  0  0
  147.2999  133.8521  155.9652 C   0  0  0  0  0  0  0  0  0  0  0  0
  148.0531  134.4071  157.1852 C   0  0  1  0  0  0  0  0  0  0  0  0
  149.3757  134.7900  156.8497 O   0  0  0  0  0  0  0  0  0  0  0  0
  149.8503  135.6498  157.8346 C   0  0  1  0  0  0  0  0  0  0  0  0
  150.7317  136.6708  157.1519 N   0  0  0  0  0  0  0  0  0  0  0  0
  150.3434  137.2355  155.9436 C   0  0  0  0  0  0  0  0  0  0  0  0
  151.1227  138.0898  155.2402 C   0  0  0  0  0  0  0  0  0  0  0  0
  150.6739  138.5944  154.0784 F   0  0  0  0  0  0  0  0  0  0  0  0
  152.4538  138.4470  155.7198 C   0  0  0  0  0  0  0  0  0  0  0  0
  153.2282  139.2219  155.1623 O   0  0  0  0  0  0  0  0  0  0  0  0
  152.8268  137.8132  156.9084 N   0  0  0  0  0  0  0  0  0  0  0  0
  152.0367  136.9209  157.6364 C   0  0  0  0  0  0  0  0  0  0  0  0
  152.4894  136.4011  158.6553 O   0  0  0  0  0  0  0  0  0  0  0  0
  148.6496  136.2943  158.5559 C   0  0  2  0  0  0  0  0  0  0  0  0
  148.7132  136.0263  159.9511 O   0  0  0  0  0  0  0  0  0  0  0  0
  147.7174  136.4263  160.7607 C   0  0  0  0  0  0  0  0  0  0  0  0
  147.9501  136.0231  162.2105 C   0  0  0  0  0  0  0  0  0  0  0  0
  146.7100  137.0460  160.4186 O   0  0  0  0  0  0  0  0  0  0  0  0
  147.4420  135.6117  157.9194 C   0  0  1  0  0  0  0  0  0  0  0  0
  146.7963  136.5525  157.0674 O   0  0  0  0  0  0  0  0  0  0  0  0
  145.5982  136.2806  156.5195 C   0  0  0  0  0  0  0  0  0  0  0  0
  145.0906  137.4193  155.6454 C   0  0  0  0  0  0  0  0  0  0  0  0
  144.9514  135.2432  156.6616 O   0  0  0  0  0  0  0  0  0  0  0  0
  153.7508  138.0094  157.2650 H   0  0  0  0  0  0  0  0  0  0  0  0
  149.8028  130.9073  154.8302 H   0  0  0  0  0  0  0  0  0  0  0  0
  150.4719  131.7970  153.4550 H   0  0  0  0  0  0  0  0  0  0  0  0
  148.8165  131.1772  153.3850 H   0  0  0  0  0  0  0  0  0  0  0  0
  147.1933  134.6331  155.2107 H   0  0  0  0  0  0  0  0  0  0  0  0
  146.2955  133.5445  156.2586 H   0  0  0  0  0  0  0  0  0  0  0  0
  148.1445  133.6012  157.9152 H   0  0  0  0  0  0  0  0  0  0  0  0
  150.4673  135.0790  158.5298 H   0  0  0  0  0  0  0  0  0  0  0  0
  149.3817  136.9784  155.5253 H   0  0  0  0  0  0  0  0  0  0  0  0
  148.6426  137.3722  158.3875 H   0  0  0  0  0  0  0  0  0  0  0  0
  148.7765  136.5944  162.6333 H   0  0  0  0  0  0  0  0  0  0  0  0
  148.1914  134.9620  162.2765 H   0  0  0  0  0  0  0  0  0  0  0  0
  147.0580  136.2120  162.8082 H   0  0  0  0  0  0  0  0  0  0  0  0
  146.7527  135.2655  158.6911 H   0  0  0  0  0  0  0  0  0  0  0  0
  145.5313  137.3552  154.6504 H   0  0  0  0  0  0  0  0  0  0  0  0
  145.3544  138.3835  156.0806 H   0  0  0  0  0  0  0  0  0  0  0  0
  144.0061  137.3706  155.5480 H   0  0  0  0  0  0  0  0  0  0  0  0
  1  2  1  0  0  0  0
  1 29  1  0  0  0  0
  1 30  1  0  0  0  0
  1 31  1  0  0  0  0
  2  3  2  0  0  0  0
  2  4  1  0  0  0  0
  4  5  1  0  0  0  0
  5  6  1  0  0  0  0
  5 32  1  0  0  0  0
  5 33  1  0  0  0  0
  6 23  1  0  0  0  0
  6  7  1  0  0  0  0
  6 34  1  0  0  0  0
  7  8  1  0  0  0  0
  8  9  1  0  0  0  0
  8 18  1  0  0  0  0
  8 35  1  0  0  0  0
  9 16  1  0  0  0  0
  9 10  1  0  0  0  0
 10 11  2  0  0  0  0
 10 36  1  0  0  0  0
 11 12  1  0  0  0  0
 11 13  1  0  0  0  0
 13 14  2  0  0  0  0
 13 15  1  0  0  0  0
 15 28  1  0  0  0  0
 15 16  1  0  0  0  0
 16 17  2  0  0  0  0
 18 19  1  0  0  0  0
 18 23  1  0  0  0  0
 18 37  1  0  0  0  0
 19 20  1  0  0  0  0
 20 21  1  0  0  0  0
 20 22  2  0  0  0  0
 21 38  1  0  0  0  0
 21 39  1  0  0  0  0
 21 40  1  0  0  0  0
 23 24  1  0  0  0  0
 23 41  1  0  0  0  0
 24 25  1  0  0  0  0
 25 26  1  0  0  0  0
 25 27  2  0  0  0  0
 26 42  1  0  0  0  0
 26 43  1  0  0  0  0
 26 44  1  0  0  0  0
M  END
> <s_m_source_file>
AV-unprocessed.smi

> <i_m_source_file_index>
102

> <i_lp_mmshare_version>
43012

> <i_f3d_flags>
0

> <s_epik_input>
W0NIM11DKD1PKU9bQ0gyXVtDQEBIXTFPW0NASF0oW0NAQEhdKE9DKD1PKVtDSDNdKVtDQEhdMU9DKD1PKVtDSDNdKW4yW2NIXWMoRiljKD1PKVtuSF1jMj1P

> <s_epik_cmdline>
J2VwaWtfcHl0aG9uJywgJy1waCcsICc3LjAnLCAnLXRuJywgJzgnLCAnLW1hJywgJzIwMCcsICctbWV0YWxfYmluZGluZycsICctaW1hZScsICc8aW5maWxlLm1hZT4nLCAnLW9tYWUnLCAnPG91dGZpbGUubWFlPic=

> <r_lp_tautomer_probability>
0.999537

> <r_epik_Ionization_Penalty>
0.058267

> <r_epik_Ionization_Penalty_Charging>
0.058267

> <r_epik_Ionization_Penalty_Neutral>
6.57791e-16

> <r_epik_State_Penalty>
0.0503774

> <r_epik_Charging_Adjusted_Penalty>
0.108644

> <i_epik_Tot_Q>
0

> <i_epik_Tot_abs_Q>
0

> <r_epik_Metal_State_Penalty>
2.6644

> <b_epik_Metal_Only>
0

> <s_epik_Chemistry_Notes>
This compound has an ester and may undergo hydrolysis at high or low pH. This compound contains an acetal/aminal-like group ( X-CH(R)-Y where X, Y are N, S, or O) that may be acid/base labile, releasing an aldehyde.

> <s_lp_Force_Field>
OPLS_2005

> <r_lp_Energy>
13.4822

> <b_lp_Chiralities_Consistent>
1

> <s_lp_Variant>
AV-unprocessed.smi:102-6

> <Gold.Version>
5.8.1

> <Gold.Id.Protein>
6NUR|6NUR_protein|mol2

> <Gold.PLP.Fitness>
32.5965

> <Gold.PLP.PLP>
-25.3171

> <Gold.PLP.part.hbond>
-3.0000

> <Gold.PLP.part.metal>
0.0000

> <Gold.PLP.part.buried>
-4.6501

> <Gold.PLP.part.nonpolar>
-17.7587

> <Gold.PLP.part.repulsive>
0.2988

> <Gold.PLP.ligand.clash>
0.0000

> <Gold.PLP.ligand.torsion>
0.5105

> <Gold.PLP.Chemscore.Hbond>
2.6880

> <Gold.PLP.Chemscore.CHOScore>
0.0000

> <Gold.PLP.Chemscore.Metal>
0.0000

> <Gold.Chemscore.Hbonds>
donor molecule, donor type, donor heavy atom, donor atom, acceptor molecule, acceptor atom, score
      P1  H  6896  6909       L1    17  0.62
      P1  H  6934  6947       L1    22  0.84
      P1  H  7997  8009       L1    14  1.00

> <Gold.PLP.Chemscore.Internal.Correction>
0.2364

> <Gold.Rescore>
     Score         DG    S(hbond)    S(metal)    S(lipo)     H(rot)  DE(clash)    DE(int)     intcor
      3.40      -6.74       2.39        0.00      31.14       4.05       0.41       2.94       ----

> <Gold.Chemscore.Fitness>
3.3953

> <Gold.Chemscore.DG>
-6.7420

> <Gold.Chemscore.ZeroCoef>
-5.4800

> <Gold.Chemscore.Hbond>
2.3927

> <Gold.Chemscore.Metal>
0.0000

> <Gold.Chemscore.Lipo>
31.1409

> <Gold.Chemscore.Internal_Hbond>
0.0000

> <Gold.Chemscore.DEClash>
0.4052

> <Gold.Chemscore.DEInternal>
2.9416

> <Gold.Chemscore.Rot>
4.0520

> <Gold.Chemscore.Internal.Correction>
   9.000000E+99

> <Gold.Chemscore.Hbonds>
donor molecule, donor type, donor heavy atom, donor atom, acceptor molecule, acceptor atom, score
      P1  H  6896  6909       L1    17  0.61
      P1  H  6934  6947       L1    22  0.33
      P1  H  7997  8009       L1    14  0.98

> <Gold.Chemscore.Hbond.Weighted>
-7.9917

> <Gold.Chemscore.Metal.Weighted>
-0.0000

> <Gold.Chemscore.Lipo.Weighted>
-3.6435

> <Gold.Chemscore.Internal_Hbond.Weighted>
0.0000

> <Gold.Chemscore.DEClash.Weighted>
0.4052

> <Gold.Chemscore.DEInternal.Weighted>
2.9416

> <Gold.Chemscore.Rot.Weighted>
10.3732

> <Gold.Chemscore.Internal.Correction.Weighted>
   9.000000E+99

> <Gold.Protein.RotatedTorsions>
[ 6907 6896 6895 6894 ] final  134.58 input  -60.11 | X-H torsion
[ 7974 7965 7964 7962 ] final  137.77 input  175.53 | X-H torsion
[ 8008 7997 7996 7995 ] final -149.10 input   59.86 | X-H torsion
[ 10167 10162 10161 10158 ] final  -19.59 input  -65.29 | X-H torsion
[ 10718 10713 10712 10709 ] final   17.96 input   66.30 | X-H torsion
[ 10763 10752 10751 10750 ] final  128.24 input  -60.55 | X-H torsion
[ 11005 11000 10999 10996 ] final  -95.11 input  -57.11 | X-H torsion

> <Gold.Protein.ActiveResidues>
 VAL166  LYS551  ARG553  GLY616  TRP617  ASP618  TYR619  PRO620  LYS621  CYS622 
 ASP623  PHE694  ASN695  SER759  ASP760  ASP761  ALA762  ILE779  LEU786  VAL792 
 PHE793  MET794  SER795  GLU796  ALA797  LYS798  CYS799  TRP800  GLU811  SER814 

> <Gold.Protein.RotatedAtoms>
  152.3098  133.5740  159.5672 H   0  0  0  0  0  0  0  0  0  0  0  0  # atno 6907 bound_to 6896
  150.7317  134.0170  159.3697 H   0  0  0  0  0  0  0  0  0  0  0  0  # atno 6908 bound_to 6896
  151.8063  135.0694  160.0458 H   0  0  0  0  0  0  0  0  0  0  0  0  # atno 6909 bound_to 6896
  144.9436  139.4902  143.5560 H   0  0  0  0  0  0  0  0  0  0  0  0  # atno 7974 bound_to 7965
  155.6022  140.0663  157.2730 H   0  0  0  0  0  0  0  0  0  0  0  0  # atno 8008 bound_to 7997
  154.4276  140.1816  156.1232 H   0  0  0  0  0  0  0  0  0  0  0  0  # atno 8009 bound_to 7997
  156.0150  140.3322  155.6983 H   0  0  0  0  0  0  0  0  0  0  0  0  # atno 8010 bound_to 7997
  140.7269  143.4804  151.0125 H   0  0  0  0  0  0  0  0  0  0  0  0  # atno 10167 bound_to 10162
  157.0896  130.6422  149.5845 H   0  0  0  0  0  0  0  0  0  0  0  0  # atno 10718 bound_to 10713
  153.7223  135.3251  155.3269 H   0  0  0  0  0  0  0  0  0  0  0  0  # atno 10763 bound_to 10752
  154.8352  135.4502  154.1205 H   0  0  0  0  0  0  0  0  0  0  0  0  # atno 10764 bound_to 10752
  153.2329  135.6962  153.7950 H   0  0  0  0  0  0  0  0  0  0  0  0  # atno 10765 bound_to 10752
  141.1451  133.8003  157.0390 H   0  0  0  0  0  0  0  0  0  0  0  0  # atno 11005 bound_to 11000
  146.3295  139.8472  142.8879 LP  0  0  0  0  0  0  0  0  0  0  0  0  # atno 17320 bound_to 7965
  145.2953  141.0179  143.3639 LP  0  0  0  0  0  0  0  0  0  0  0  0  # atno 17321 bound_to 7965
  139.8502  143.7448  152.3178 LP  0  0  0  0  0  0  0  0  0  0  0  0  # atno 17342 bound_to 10162
  139.7627  144.7501  151.0340 LP  0  0  0  0  0  0  0  0  0  0  0  0  # atno 17343 bound_to 10162
  155.9901  130.4951  150.7244 LP  0  0  0  0  0  0  0  0  0  0  0  0  # atno 17370 bound_to 10713
  157.4732  131.0895  151.0619 LP  0  0  0  0  0  0  0  0  0  0  0  0  # atno 17371 bound_to 10713
  140.0705  134.9705  157.1459 LP  0  0  0  0  0  0  0  0  0  0  0  0  # atno 17394 bound_to 11000
  140.3718  134.2382  155.7177 LP  0  0  0  0  0  0  0  0  0  0  0  0  # atno 17395 bound_to 11000

$$$$
