AV-unprocessed.smi:1792|AV-procd|sdf|7222|dock1
  -GOLD-   22720 8463D 1   1.00000     0.00000
 Structure written by MMmdl.
 42 43  0  0  0  0  0  0  0  0  1 V2000
  147.8931  139.8891  153.1829 C   0  0  0  0  0  0  0  0  0  0  0  0
  147.9470  138.8765  154.3522 C   0  0  0  0  0  0  0  0  0  0  0  0
  147.7880  139.6830  155.6666 C   0  0  0  0  0  0  0  0  0  0  0  0
  146.6839  137.9748  154.2423 C   0  0  0  0  0  0  0  0  0  0  0  0
  146.8243  136.9633  153.1961 N   0  0  0  0  0  0  0  0  0  0  0  0
  145.8804  136.0929  152.8131 C   0  0  0  0  0  0  0  0  0  0  0  0
  144.7436  136.0666  153.2855 O   0  0  0  0  0  0  0  0  0  0  0  0
  146.3471  135.2661  151.8611 N   0  0  0  0  0  0  0  0  0  0  0  0
  145.6701  134.1979  151.2149 C   0  0  0  0  0  0  0  0  0  0  0  0
  146.5086  133.2700  150.5569 C   0  0  0  0  0  0  0  0  0  0  0  0
  145.9358  132.1703  149.8892 C   0  0  0  0  0  0  0  0  0  0  0  0
  144.5368  132.0278  149.8948 C   0  0  0  0  0  0  0  0  0  0  0  0
  143.7744  132.9975  150.5717 C   0  0  0  0  0  0  0  0  0  0  0  0
  144.3215  134.0517  151.2134 N   0  0  0  0  0  0  0  0  0  0  0  0
  149.2000  138.0695  154.3680 N   0  0  0  0  0  0  0  0  0  0  0  0
  149.2171  136.9733  155.3433 C   0  0  0  0  0  0  0  0  0  0  0  0
  150.4859  136.1116  155.2248 C   0  0  0  0  0  0  0  0  0  0  0  0
  151.6392  136.9313  155.3705 O   0  0  0  0  0  0  0  0  0  0  0  0
  151.6911  137.9704  154.4011 C   0  0  0  0  0  0  0  0  0  0  0  0
  150.4345  138.8493  154.5172 C   0  0  0  0  0  0  0  0  0  0  0  0
  146.9659  140.4631  153.2061 H   0  0  0  0  0  0  0  0  0  0  0  0
  147.9328  139.3983  152.2107 H   0  0  0  0  0  0  0  0  0  0  0  0
  148.7086  140.6107  153.2239 H   0  0  0  0  0  0  0  0  0  0  0  0
  146.7979  140.1345  155.7424 H   0  0  0  0  0  0  0  0  0  0  0  0
  148.5014  140.5038  155.7373 H   0  0  0  0  0  0  0  0  0  0  0  0
  147.9232  139.0516  156.5456 H   0  0  0  0  0  0  0  0  0  0  0  0
  146.4840  137.5056  155.2075 H   0  0  0  0  0  0  0  0  0  0  0  0
  145.7916  138.5637  154.0313 H   0  0  0  0  0  0  0  0  0  0  0  0
  147.7290  136.9065  152.7517 H   0  0  0  0  0  0  0  0  0  0  0  0
  147.3043  135.4085  151.5752 H   0  0  0  0  0  0  0  0  0  0  0  0
  147.5818  133.3946  150.5628 H   0  0  0  0  0  0  0  0  0  0  0  0
  146.5599  131.4493  149.3825 H   0  0  0  0  0  0  0  0  0  0  0  0
  144.0609  131.1982  149.3934 H   0  0  0  0  0  0  0  0  0  0  0  0
  142.6972  132.9258  150.5993 H   0  0  0  0  0  0  0  0  0  0  0  0
  149.1555  137.3690  156.3571 H   0  0  0  0  0  0  0  0  0  0  0  0
  148.3594  136.3172  155.2065 H   0  0  0  0  0  0  0  0  0  0  0  0
  150.4952  135.3439  155.9987 H   0  0  0  0  0  0  0  0  0  0  0  0
  150.5152  135.5972  154.2630 H   0  0  0  0  0  0  0  0  0  0  0  0
  152.5876  138.5677  154.5670 H   0  0  0  0  0  0  0  0  0  0  0  0
  151.7719  137.5423  153.4008 H   0  0  0  0  0  0  0  0  0  0  0  0
  150.5018  139.6232  153.7548 H   0  0  0  0  0  0  0  0  0  0  0  0
  150.4479  139.3542  155.4830 H   0  0  0  0  0  0  0  0  0  0  0  0
  1  2  1  0  0  0  0
  1 21  1  0  0  0  0
  1 22  1  0  0  0  0
  1 23  1  0  0  0  0
  2  3  1  0  0  0  0
  2  4  1  0  0  0  0
  2 15  1  0  0  0  0
  3 24  1  0  0  0  0
  3 25  1  0  0  0  0
  3 26  1  0  0  0  0
  4  5  1  0  0  0  0
  4 27  1  0  0  0  0
  4 28  1  0  0  0  0
  5  6  1  0  0  0  0
  5 29  1  0  0  0  0
  6  7  2  0  0  0  0
  6  8  1  0  0  0  0
  8  9  1  0  0  0  0
  8 30  1  0  0  0  0
  9 14  1  0  0  0  0
  9 10  2  0  0  0  0
 10 11  1  0  0  0  0
 10 31  1  0  0  0  0
 11 12  2  0  0  0  0
 11 32  1  0  0  0  0
 12 13  1  0  0  0  0
 12 33  1  0  0  0  0
 13 14  2  0  0  0  0
 13 34  1  0  0  0  0
 15 20  1  0  0  0  0
 15 16  1  0  0  0  0
 16 17  1  0  0  0  0
 16 35  1  0  0  0  0
 16 36  1  0  0  0  0
 17 18  1  0  0  0  0
 17 37  1  0  0  0  0
 17 38  1  0  0  0  0
 18 19  1  0  0  0  0
 19 20  1  0  0  0  0
 19 39  1  0  0  0  0
 19 40  1  0  0  0  0
 20 41  1  0  0  0  0
 20 42  1  0  0  0  0
M  END
> <s_m_source_file>
AV-unprocessed.smi

> <i_m_source_file_index>
1792

> <i_lp_mmshare_version>
43012

> <i_f3d_flags>
0

> <s_epik_input>
W0NIMl0xW0NIMl1PW0NIMl1bQ0gyXU4xQyhbQ0gzXSkoW0NIM10pW0NIMl1bTkhdQyg9TylbTkhdYzJbY0hdW2NIXVtjSF1bY0hdbjI=

> <s_epik_cmdline>
J2VwaWtfcHl0aG9uJywgJy1waCcsICc3LjAnLCAnLXRuJywgJzgnLCAnLW1hJywgJzIwMCcsICctbWV0YWxfYmluZGluZycsICctaW1hZScsICc8aW5maWxlLm1hZT4nLCAnLW9tYWUnLCAnPG91dGZpbGUubWFlPic=

> <r_epik_Ionization_Penalty>
0.26604

> <r_epik_Ionization_Penalty_Charging>
0

> <r_epik_Ionization_Penalty_Neutral>
0.26604

> <r_epik_State_Penalty>
0.257924

> <r_epik_Charging_Adjusted_Penalty>
0.257924

> <i_epik_Tot_Q>
0

> <i_epik_Tot_abs_Q>
0

> <r_epik_Metal_State_Penalty>
0.257923

> <b_epik_Metal_Only>
0

> <s_lp_Force_Field>
OPLS_2005

> <r_lp_Energy>
43.4175

> <b_lp_Chiralities_Consistent>
1

> <s_lp_Variant>
AV-unprocessed.smi:1792-1

> <Gold.Version>
5.8.1

> <Gold.Id.Protein>
6NUR|6NUR_protein|mol2

> <Gold.PLP.Fitness>
40.8129

> <Gold.PLP.PLP>
-29.3051

> <Gold.PLP.part.hbond>
-3.0000

> <Gold.PLP.part.metal>
0.0000

> <Gold.PLP.part.buried>
-1.5790

> <Gold.PLP.part.nonpolar>
-24.9590

> <Gold.PLP.part.repulsive>
0.8021

> <Gold.PLP.ligand.clash>
0.0000

> <Gold.PLP.ligand.torsion>
0.2724

> <Gold.PLP.Chemscore.Hbond>
3.0000

> <Gold.PLP.Chemscore.CHOScore>
0.9962

> <Gold.PLP.Chemscore.Metal>
0.0000

> <Gold.Chemscore.Hbonds>
donor molecule, donor type, donor heavy atom, donor atom, acceptor molecule, acceptor atom, score
      L1  H     5    29       P1  7948  1.00
      L1  H     8    30       P1  7948  1.00
      P1  H 10752 10763       L1    18  0.85
      L1  C    13    34       P1 10186  0.99

> <Gold.PLP.Chemscore.Internal.Correction>
0.0640

> <Gold.Rescore>
     Score         DG    S(hbond)    S(metal)    S(lipo)     H(rot)  DE(clash)    DE(int)     intcor
     14.30     -17.82       1.94        0.00      83.02       1.50       1.93       1.58       ----

> <Gold.Chemscore.Fitness>
14.3028

> <Gold.Chemscore.DG>
-17.8202

> <Gold.Chemscore.ZeroCoef>
-5.4800

> <Gold.Chemscore.Hbond>
1.9395

> <Gold.Chemscore.Metal>
0.0000

> <Gold.Chemscore.Lipo>
83.0238

> <Gold.Chemscore.Internal_Hbond>
0.0000

> <Gold.Chemscore.DEClash>
1.9335

> <Gold.Chemscore.DEInternal>
1.5840

> <Gold.Chemscore.Rot>
1.5045

> <Gold.Chemscore.Internal.Correction>
   9.000000E+99

> <Gold.Chemscore.Hbonds>
donor molecule, donor type, donor heavy atom, donor atom, acceptor molecule, acceptor atom, score
      L1  H     5    29       P1  7948  0.99
      L1  H     8    30       P1  7948  0.91
      P1  H 10752 10763       L1    18  0.11

> <Gold.Chemscore.Hbond.Weighted>
-6.4780

> <Gold.Chemscore.Metal.Weighted>
-0.0000

> <Gold.Chemscore.Lipo.Weighted>
-9.7138

> <Gold.Chemscore.Internal_Hbond.Weighted>
0.0000

> <Gold.Chemscore.DEClash.Weighted>
1.9335

> <Gold.Chemscore.DEInternal.Weighted>
1.5840

> <Gold.Chemscore.Rot.Weighted>
3.8515

> <Gold.Chemscore.Internal.Correction.Weighted>
   9.000000E+99

> <Gold.Protein.RotatedTorsions>
[ 6907 6896 6895 6894 ] final   95.96 input  -60.11 | X-H torsion
[ 7974 7965 7964 7962 ] final   38.75 input  175.53 | X-H torsion
[ 8008 7997 7996 7995 ] final  -82.82 input   59.86 | X-H torsion
[ 10167 10162 10161 10158 ] final   17.25 input  -65.29 | X-H torsion
[ 10718 10713 10712 10709 ] final   16.86 input   66.30 | X-H torsion
[ 10763 10752 10751 10750 ] final   81.11 input  -60.55 | X-H torsion
[ 11005 11000 10999 10996 ] final  -71.66 input  -57.11 | X-H torsion

> <Gold.Protein.ActiveResidues>
 VAL166  LYS551  ARG553  GLY616  TRP617  ASP618  TYR619  PRO620  LYS621  CYS622 
 ASP623  PHE694  ASN695  SER759  ASP760  ASP761  ALA762  ILE779  LEU786  VAL792 
 PHE793  MET794  SER795  GLU796  ALA797  LYS798  CYS799  TRP800  GLU811  SER814 

> <Gold.Protein.RotatedAtoms>
  152.5439  134.0959  159.8296 H   0  0  0  0  0  0  0  0  0  0  0  0  # atno 6907 bound_to 6896
  151.1043  133.5213  159.2616 H   0  0  0  0  0  0  0  0  0  0  0  0  # atno 6908 bound_to 6896
  151.1956  135.0430  159.8905 H   0  0  0  0  0  0  0  0  0  0  0  0  # atno 6909 bound_to 6896
  146.1038  139.5734  142.9397 H   0  0  0  0  0  0  0  0  0  0  0  0  # atno 7974 bound_to 7965
  154.6126  140.0627  156.9513 H   0  0  0  0  0  0  0  0  0  0  0  0  # atno 8008 bound_to 7997
  155.1948  140.3310  155.4334 H   0  0  0  0  0  0  0  0  0  0  0  0  # atno 8009 bound_to 7997
  156.2385  140.1874  156.7036 H   0  0  0  0  0  0  0  0  0  0  0  0  # atno 8010 bound_to 7997
  140.5739  143.9109  150.6734 H   0  0  0  0  0  0  0  0  0  0  0  0  # atno 10167 bound_to 10162
  157.0739  130.6359  149.5811 H   0  0  0  0  0  0  0  0  0  0  0  0  # atno 10718 bound_to 10713
  153.1089  135.4778  154.9000 H   0  0  0  0  0  0  0  0  0  0  0  0  # atno 10763 bound_to 10752
  154.7459  135.3094  154.8647 H   0  0  0  0  0  0  0  0  0  0  0  0  # atno 10764 bound_to 10752
  153.9242  135.6852  153.4800 H   0  0  0  0  0  0  0  0  0  0  0  0  # atno 10765 bound_to 10752
  141.1596  133.6824  156.6940 H   0  0  0  0  0  0  0  0  0  0  0  0  # atno 11005 bound_to 11000
  145.5802  141.0383  143.2126 LP  0  0  0  0  0  0  0  0  0  0  0  0  # atno 17320 bound_to 7965
  144.7454  139.7335  143.7294 LP  0  0  0  0  0  0  0  0  0  0  0  0  # atno 17321 bound_to 7965
  140.2591  143.3537  152.1338 LP  0  0  0  0  0  0  0  0  0  0  0  0  # atno 17342 bound_to 10162
  139.5132  144.6929  151.5711 LP  0  0  0  0  0  0  0  0  0  0  0  0  # atno 17343 bound_to 10162
  155.9942  130.5006  150.7413 LP  0  0  0  0  0  0  0  0  0  0  0  0  # atno 17370 bound_to 10713
  157.4856  131.0906  151.0487 LP  0  0  0  0  0  0  0  0  0  0  0  0  # atno 17371 bound_to 10713
  140.3009  134.8164  157.4096 LP  0  0  0  0  0  0  0  0  0  0  0  0  # atno 17394 bound_to 11000
  140.1263  134.5154  155.8142 LP  0  0  0  0  0  0  0  0  0  0  0  0  # atno 17395 bound_to 11000

$$$$
