AV-unprocessed.smi:2198|AV-procd|sdf|8917|dock1
  -GOLD-   2272012133D 1   1.00000     0.00000
 Structure written by MMmdl.
 43 44  0  0  0  0  0  0  0  0  1 V2000
  144.2069  143.0869  157.9915 C   0  0  0  0  0  0  0  0  0  0  0  0
  145.4144  142.4686  157.3209 C   0  0  0  0  0  0  0  0  0  0  0  0
  145.5390  142.8016  155.9824 N   0  0  0  0  0  0  0  0  0  0  0  0
  146.6176  142.2874  155.2846 C   0  0  0  0  0  0  0  0  0  0  0  0
  146.6829  142.7074  153.8264 C   0  0  0  0  0  0  0  0  0  0  0  0
  147.5231  141.4764  155.8887 C   0  0  0  0  0  0  0  0  0  0  0  0
  148.7258  140.8874  155.1541 C   0  0  0  0  0  0  0  0  0  0  0  0
  150.0861  141.1919  155.7837 C   0  0  0  0  0  0  0  0  0  0  0  0
  151.0899  140.5939  155.3971 O   0  0  0  0  0  0  0  0  0  0  0  0
  150.1066  142.1279  156.7453 N   0  0  0  0  0  0  0  0  0  0  0  0
  151.2971  142.5825  157.4566 C   0  0  2  0  0  0  0  0  0  0  0  0
  151.8335  141.4733  158.3831 C   0  0  0  0  0  0  0  0  0  0  0  0
  153.0413  141.9624  159.1969 C   0  0  0  0  0  0  0  0  0  0  0  0
  152.7022  143.2325  159.9928 C   0  0  0  0  0  0  0  0  0  0  0  0
  152.1731  144.3503  159.0739 C   0  0  2  0  0  0  0  0  0  0  0  0
  151.8318  145.6176  159.8704 C   0  0  0  0  0  0  0  0  0  0  0  0
  150.9618  143.8518  158.2618 C   0  0  0  0  0  0  0  0  0  0  0  0
  147.3307  141.1471  157.3211 C   0  0  0  0  0  0  0  0  0  0  0  0
  148.1072  140.4056  157.9218 O   0  0  0  0  0  0  0  0  0  0  0  0
  146.2252  141.7026  157.9855 N   0  0  0  0  0  0  0  0  0  0  0  0
  144.8869  143.3986  155.4943 H   0  0  0  0  0  0  0  0  0  0  0  0
  144.2090  142.8834  159.0631 H   0  0  0  0  0  0  0  0  0  0  0  0
  143.2884  142.6790  157.5688 H   0  0  0  0  0  0  0  0  0  0  0  0
  144.2038  144.1683  157.8514 H   0  0  0  0  0  0  0  0  0  0  0  0
  147.6077  143.2483  153.6253 H   0  0  0  0  0  0  0  0  0  0  0  0
  145.8509  143.3600  153.5589 H   0  0  0  0  0  0  0  0  0  0  0  0
  146.6444  141.8339  153.1754 H   0  0  0  0  0  0  0  0  0  0  0  0
  148.7481  141.2242  154.1173 H   0  0  0  0  0  0  0  0  0  0  0  0
  148.5943  139.8068  155.0866 H   0  0  0  0  0  0  0  0  0  0  0  0
  149.2324  142.5658  156.9970 H   0  0  0  0  0  0  0  0  0  0  0  0
  152.0704  142.8393  156.7297 H   0  0  0  0  0  0  0  0  0  0  0  0
  151.0466  141.1469  159.0646 H   0  0  0  0  0  0  0  0  0  0  0  0
  152.1186  140.5979  157.7983 H   0  0  0  0  0  0  0  0  0  0  0  0
  153.3748  141.1765  159.8754 H   0  0  0  0  0  0  0  0  0  0  0  0
  153.8757  142.1644  158.5243 H   0  0  0  0  0  0  0  0  0  0  0  0
  151.9576  142.9962  160.7544 H   0  0  0  0  0  0  0  0  0  0  0  0
  153.5897  143.5762  160.5253 H   0  0  0  0  0  0  0  0  0  0  0  0
  152.9655  144.6093  158.3700 H   0  0  0  0  0  0  0  0  0  0  0  0
  151.0405  145.4291  160.5967 H   0  0  0  0  0  0  0  0  0  0  0  0
  151.4942  146.4172  159.2104 H   0  0  0  0  0  0  0  0  0  0  0  0
  152.7021  145.9857  160.4142 H   0  0  0  0  0  0  0  0  0  0  0  0
  150.6241  144.6372  157.5840 H   0  0  0  0  0  0  0  0  0  0  0  0
  150.1290  143.6491  158.9371 H   0  0  0  0  0  0  0  0  0  0  0  0
  1 22  1  0  0  0  0
  1 23  1  0  0  0  0
  1 24  1  0  0  0  0
  1  2  1  0  0  0  0
  2  3  1  0  0  0  0
  2 20  2  0  0  0  0
  3  4  1  0  0  0  0
  3 21  1  0  0  0  0
  4  6  2  0  0  0  0
  4  5  1  0  0  0  0
  5 25  1  0  0  0  0
  5 26  1  0  0  0  0
  5 27  1  0  0  0  0
  6 18  1  0  0  0  0
  6  7  1  0  0  0  0
  7  8  1  0  0  0  0
  7 28  1  0  0  0  0
  7 29  1  0  0  0  0
  8  9  2  0  0  0  0
  8 10  1  0  0  0  0
 10 11  1  0  0  0  0
 10 30  1  0  0  0  0
 11 17  1  0  0  0  0
 11 12  1  0  0  0  0
 11 31  1  0  0  0  0
 12 13  1  0  0  0  0
 12 32  1  0  0  0  0
 12 33  1  0  0  0  0
 13 14  1  0  0  0  0
 13 34  1  0  0  0  0
 13 35  1  0  0  0  0
 14 15  1  0  0  0  0
 14 36  1  0  0  0  0
 14 37  1  0  0  0  0
 15 16  1  0  0  0  0
 15 17  1  0  0  0  0
 15 38  1  0  0  0  0
 16 39  1  0  0  0  0
 16 40  1  0  0  0  0
 16 41  1  0  0  0  0
 17 42  1  0  0  0  0
 17 43  1  0  0  0  0
 18 19  2  0  0  0  0
 18 20  1  0  0  0  0
M  END
> <s_m_source_file>
AV-unprocessed.smi

> <i_m_source_file_index>
2198

> <i_lp_mmshare_version>
43012

> <i_f3d_flags>
0

> <s_epik_input>
W0NIM11jMW5jKFtDSDNdKWMoYyg9TylbbkhdMSlbQ0gyXUMoPU8pW05IXVtDQEBIXTJbQ0gyXVtDSDJdW0NIMl1bQ0BASF0oW0NIM10pW0NIMl0y

> <s_epik_cmdline>
J2VwaWtfcHl0aG9uJywgJy1waCcsICc3LjAnLCAnLXRuJywgJzgnLCAnLW1hJywgJzIwMCcsICctbWV0YWxfYmluZGluZycsICctaW1hZScsICc8aW5maWxlLm1hZT4nLCAnLW9tYWUnLCAnPG91dGZpbGUubWFlPic=

> <r_lp_tautomer_probability>
0.156392

> <r_epik_Ionization_Penalty>
0.0136514

> <r_epik_Ionization_Penalty_Charging>
0.0135207

> <r_epik_Ionization_Penalty_Neutral>
0.000130657

> <r_epik_State_Penalty>
1.15342

> <r_epik_Charging_Adjusted_Penalty>
1.16694

> <i_epik_Tot_Q>
0

> <i_epik_Tot_abs_Q>
0

> <r_epik_Metal_State_Penalty>
1.31404

> <b_epik_Metal_Only>
0

> <s_lp_Force_Field>
OPLS_2005

> <r_lp_Energy>
14.0485

> <b_lp_Chiralities_Consistent>
1

> <s_lp_Variant>
AV-unprocessed.smi:2198-7

> <Gold.Version>
5.8.1

> <Gold.Id.Protein>
6NUR|6NUR_protein|mol2

> <Gold.PLP.Fitness>
41.4991

> <Gold.PLP.PLP>
-39.2910

> <Gold.PLP.part.hbond>
-2.4725

> <Gold.PLP.part.metal>
0.0000

> <Gold.PLP.part.buried>
-6.3415

> <Gold.PLP.part.nonpolar>
-31.1025

> <Gold.PLP.part.repulsive>
0.1171

> <Gold.PLP.ligand.clash>
0.0036

> <Gold.PLP.ligand.torsion>
0.2454

> <Gold.PLP.Chemscore.Hbond>
0.8960

> <Gold.PLP.Chemscore.CHOScore>
0.0000

> <Gold.PLP.Chemscore.Metal>
0.0000

> <Gold.Chemscore.Hbonds>
donor molecule, donor type, donor heavy atom, donor atom, acceptor molecule, acceptor atom, score
      P1  H  7989  7998       L1     9  0.88

> <Gold.PLP.Chemscore.Internal.Correction>
0.0145

> <Gold.Rescore>
     Score         DG    S(hbond)    S(metal)    S(lipo)     H(rot)  DE(clash)    DE(int)     intcor
     15.64     -15.91       0.87        0.00      96.62       1.48       0.02       0.24       ----

> <Gold.Chemscore.Fitness>
15.6374

> <Gold.Chemscore.DG>
-15.9066

> <Gold.Chemscore.ZeroCoef>
-5.4800

> <Gold.Chemscore.Hbond>
0.8716

> <Gold.Chemscore.Metal>
0.0000

> <Gold.Chemscore.Lipo>
96.6211

> <Gold.Chemscore.Internal_Hbond>
0.0000

> <Gold.Chemscore.DEClash>
0.0244

> <Gold.Chemscore.DEInternal>
0.2448

> <Gold.Chemscore.Rot>
1.4801

> <Gold.Chemscore.Internal.Correction>
   9.000000E+99

> <Gold.Chemscore.Hbonds>
donor molecule, donor type, donor heavy atom, donor atom, acceptor molecule, acceptor atom, score
      P1  H  7989  7998       L1     9  0.79

> <Gold.Chemscore.Hbond.Weighted>
-2.9111

> <Gold.Chemscore.Metal.Weighted>
-0.0000

> <Gold.Chemscore.Lipo.Weighted>
-11.3047

> <Gold.Chemscore.Internal_Hbond.Weighted>
0.0000

> <Gold.Chemscore.DEClash.Weighted>
0.0244

> <Gold.Chemscore.DEInternal.Weighted>
0.2448

> <Gold.Chemscore.Rot.Weighted>
3.7891

> <Gold.Chemscore.Internal.Correction.Weighted>
   9.000000E+99

> <Gold.Protein.RotatedTorsions>
[ 6907 6896 6895 6894 ] final   49.44 input  -60.11 | X-H torsion
[ 7974 7965 7964 7962 ] final -130.11 input  175.53 | X-H torsion
[ 8008 7997 7996 7995 ] final  -64.67 input   59.86 | X-H torsion
[ 10167 10162 10161 10158 ] final  -81.66 input  -65.29 | X-H torsion
[ 10718 10713 10712 10709 ] final  -21.97 input   66.30 | X-H torsion
[ 10763 10752 10751 10750 ] final  -41.86 input  -60.55 | X-H torsion
[ 11005 11000 10999 10996 ] final  136.91 input  -57.11 | X-H torsion

> <Gold.Protein.ActiveResidues>
 VAL166  LYS551  ARG553  GLY616  TRP617  ASP618  TYR619  PRO620  LYS621  CYS622 
 ASP623  PHE694  ASN695  SER759  ASP760  ASP761  ALA762  ILE779  LEU786  VAL792 
 PHE793  MET794  SER795  GLU796  ALA797  LYS798  CYS799  TRP800  GLU811  SER814 

> <Gold.Protein.RotatedAtoms>
  152.2908  134.7723  160.0377 H   0  0  0  0  0  0  0  0  0  0  0  0  # atno 6907 bound_to 6896
  151.8270  133.3397  159.3610 H   0  0  0  0  0  0  0  0  0  0  0  0  # atno 6908 bound_to 6896
  150.7229  134.5448  159.5809 H   0  0  0  0  0  0  0  0  0  0  0  0  # atno 6909 bound_to 6896
  144.9506  140.7340  143.4790 H   0  0  0  0  0  0  0  0  0  0  0  0  # atno 7974 bound_to 7965
  154.4625  140.0949  156.6933 H   0  0  0  0  0  0  0  0  0  0  0  0  # atno 8008 bound_to 7997
  155.4951  140.3472  155.4343 H   0  0  0  0  0  0  0  0  0  0  0  0  # atno 8009 bound_to 7997
  156.0897  140.1394  156.9596 H   0  0  0  0  0  0  0  0  0  0  0  0  # atno 8010 bound_to 7997
  140.4391  143.2521  151.8651 H   0  0  0  0  0  0  0  0  0  0  0  0  # atno 10167 bound_to 10162
  156.5109  130.4610  149.6649 H   0  0  0  0  0  0  0  0  0  0  0  0  # atno 10718 bound_to 10713
  153.9696  135.6730  153.4747 H   0  0  0  0  0  0  0  0  0  0  0  0  # atno 10763 bound_to 10752
  153.0799  135.4929  154.8478 H   0  0  0  0  0  0  0  0  0  0  0  0  # atno 10764 bound_to 10752
  154.7227  135.3120  154.8982 H   0  0  0  0  0  0  0  0  0  0  0  0  # atno 10765 bound_to 10752
  140.0078  134.9452  157.0212 H   0  0  0  0  0  0  0  0  0  0  0  0  # atno 11005 bound_to 11000
  145.2850  139.1904  143.4771 LP  0  0  0  0  0  0  0  0  0  0  0  0  # atno 17320 bound_to 7965
  146.3319  140.2817  142.8610 LP  0  0  0  0  0  0  0  0  0  0  0  0  # atno 17321 bound_to 7965
  139.4788  144.5249  151.8749 LP  0  0  0  0  0  0  0  0  0  0  0  0  # atno 17342 bound_to 10162
  140.4339  144.2078  150.5888 LP  0  0  0  0  0  0  0  0  0  0  0  0  # atno 17343 bound_to 10162
  156.3241  130.7296  151.2214 LP  0  0  0  0  0  0  0  0  0  0  0  0  # atno 17370 bound_to 10713
  157.7450  131.0447  150.4809 LP  0  0  0  0  0  0  0  0  0  0  0  0  # atno 17371 bound_to 10713
  140.4610  134.1484  155.7191 LP  0  0  0  0  0  0  0  0  0  0  0  0  # atno 17394 bound_to 11000
  141.1689  133.8648  157.1631 LP  0  0  0  0  0  0  0  0  0  0  0  0  # atno 17395 bound_to 11000

$$$$
