AV-unprocessed.smi:1482|AV-procd|sdf|5988|dock9
  -GOLD-   22720 6 83D 1   1.00000     0.00000
 Structure written by MMmdl.
 36 37  0  0  0  0  0  0  0  0  1 V2000
  147.5203  136.1843  161.8904 C   0  0  0  0  0  0  0  0  0  0  0  0
  148.0640  137.0258  160.8883 O   0  0  0  0  0  0  0  0  0  0  0  0
  149.0198  136.3592  160.0810 C   0  0  0  0  0  0  0  0  0  0  0  0
  148.9774  136.9450  158.6672 C   0  0  0  0  0  0  0  0  0  0  0  0
  149.9587  137.9726  158.5745 O   0  0  0  0  0  0  0  0  0  0  0  0
  150.5161  138.2516  157.3423 C   0  0  0  0  0  0  0  0  0  0  0  0
  150.1295  137.5052  156.2767 N   0  0  0  0  0  0  0  0  0  0  0  0
  150.6625  137.7811  155.0683 C   0  0  0  0  0  0  0  0  0  0  0  0
  151.6029  138.8063  154.8562 C   0  0  0  0  0  0  0  0  0  0  0  0
  152.0062  139.5796  155.9601 C   0  0  0  0  0  0  0  0  0  0  0  0
  151.4586  139.3023  157.2305 C   0  0  0  0  0  0  0  0  0  0  0  0
  151.8787  140.1320  158.4361 C   0  0  0  0  0  0  0  0  0  0  0  0
  151.5553  141.5467  158.2932 N   0  0  0  0  0  0  0  0  0  0  0  0
  151.8806  142.5013  159.1783 C   0  0  0  0  0  0  0  0  0  0  0  0
  152.5015  142.2696  160.2169 O   0  0  0  0  0  0  0  0  0  0  0  0
  151.4211  143.8687  158.7905 C   0  0  0  0  0  0  0  0  0  0  0  0
  152.4800  144.8848  158.4130 C   0  0  0  0  0  0  0  0  0  0  0  0
  151.7508  145.0139  159.7266 C   0  0  0  0  0  0  0  0  0  0  0  0
  146.7950  136.7416  162.4830 H   0  0  0  0  0  0  0  0  0  0  0  0
  148.2969  135.8203  162.5645 H   0  0  0  0  0  0  0  0  0  0  0  0
  147.0085  135.3276  161.4508 H   0  0  0  0  0  0  0  0  0  0  0  0
  150.0185  136.4791  160.5039 H   0  0  0  0  0  0  0  0  0  0  0  0
  148.8011  135.2909  160.0474 H   0  0  0  0  0  0  0  0  0  0  0  0
  149.1818  136.1603  157.9368 H   0  0  0  0  0  0  0  0  0  0  0  0
  147.9827  137.3463  158.4662 H   0  0  0  0  0  0  0  0  0  0  0  0
  150.3282  137.1665  154.2455 H   0  0  0  0  0  0  0  0  0  0  0  0
  152.0037  138.9950  153.8714 H   0  0  0  0  0  0  0  0  0  0  0  0
  152.7255  140.3752  155.8326 H   0  0  0  0  0  0  0  0  0  0  0  0
  151.4479  139.7477  159.3613 H   0  0  0  0  0  0  0  0  0  0  0  0
  152.9593  140.0432  158.5500 H   0  0  0  0  0  0  0  0  0  0  0  0
  151.0478  141.8197  157.4642 H   0  0  0  0  0  0  0  0  0  0  0  0
  150.4719  143.9309  158.2601 H   0  0  0  0  0  0  0  0  0  0  0  0
  153.5261  144.5853  158.4494 H   0  0  0  0  0  0  0  0  0  0  0  0
  152.2308  145.5853  157.6187 H   0  0  0  0  0  0  0  0  0  0  0  0
  151.0066  145.8016  159.8230 H   0  0  0  0  0  0  0  0  0  0  0  0
  152.3138  144.8005  160.6335 H   0  0  0  0  0  0  0  0  0  0  0  0
  1  2  1  0  0  0  0
  1 19  1  0  0  0  0
  1 20  1  0  0  0  0
  1 21  1  0  0  0  0
  2  3  1  0  0  0  0
  3  4  1  0  0  0  0
  3 22  1  0  0  0  0
  3 23  1  0  0  0  0
  4  5  1  0  0  0  0
  4 24  1  0  0  0  0
  4 25  1  0  0  0  0
  5  6  1  0  0  0  0
  6 11  1  0  0  0  0
  6  7  2  0  0  0  0
  7  8  1  0  0  0  0
  8  9  2  0  0  0  0
  8 26  1  0  0  0  0
  9 10  1  0  0  0  0
  9 27  1  0  0  0  0
 10 11  2  0  0  0  0
 10 28  1  0  0  0  0
 11 12  1  0  0  0  0
 12 13  1  0  0  0  0
 12 29  1  0  0  0  0
 12 30  1  0  0  0  0
 13 14  1  0  0  0  0
 13 31  1  0  0  0  0
 14 15  2  0  0  0  0
 14 16  1  0  0  0  0
 16 18  1  0  0  0  0
 16 17  1  0  0  0  0
 16 32  1  0  0  0  0
 17 18  1  0  0  0  0
 17 33  1  0  0  0  0
 17 34  1  0  0  0  0
 18 35  1  0  0  0  0
 18 36  1  0  0  0  0
M  END
> <s_m_source_file>
AV-unprocessed.smi

> <i_m_source_file_index>
1482

> <i_lp_mmshare_version>
43012

> <i_f3d_flags>
0

> <s_epik_input>
W0NIM11PW0NIMl1bQ0gyXU9jMW5bY0hdW2NIXVtjSF1jMVtDSDJdW05IXUMoPU8pW0NIXTJbQ0gyXVtDSDJdMg==

> <s_epik_cmdline>
J2VwaWtfcHl0aG9uJywgJy1waCcsICc3LjAnLCAnLXRuJywgJzgnLCAnLW1hJywgJzIwMCcsICctbWV0YWxfYmluZGluZycsICctaW1hZScsICc8aW5maWxlLm1hZT4nLCAnLW9tYWUnLCAnPG91dGZpbGUubWFlPic=

> <r_lp_tautomer_probability>
1

> <r_epik_Ionization_Penalty>
6.12052e-05

> <r_epik_Ionization_Penalty_Charging>
0

> <r_epik_Ionization_Penalty_Neutral>
6.12052e-05

> <r_epik_State_Penalty>
-0

> <r_epik_Charging_Adjusted_Penalty>
0

> <i_epik_Tot_Q>
0

> <i_epik_Tot_abs_Q>
0

> <r_epik_Metal_State_Penalty>
-0

> <b_epik_Metal_Only>
0

> <s_lp_Force_Field>
OPLS_2005

> <r_lp_Energy>
6.94905

> <b_lp_Chiralities_Consistent>
1

> <s_lp_Variant>
AV-unprocessed.smi:1482-1

> <Gold.Version>
5.8.1

> <Gold.Id.Protein>
6NUR|6NUR_protein|mol2

> <Gold.PLP.Fitness>
42.5138

> <Gold.PLP.PLP>
-36.1365

> <Gold.PLP.part.hbond>
-2.0000

> <Gold.PLP.part.metal>
0.0000

> <Gold.PLP.part.buried>
-5.5811

> <Gold.PLP.part.nonpolar>
-29.4602

> <Gold.PLP.part.repulsive>
0.0957

> <Gold.PLP.ligand.clash>
0.0000

> <Gold.PLP.ligand.torsion>
0.6719

> <Gold.PLP.Chemscore.Hbond>
1.6960

> <Gold.PLP.Chemscore.CHOScore>
0.8314

> <Gold.PLP.Chemscore.Metal>
0.0000

> <Gold.Chemscore.Hbonds>
donor molecule, donor type, donor heavy atom, donor atom, acceptor molecule, acceptor atom, score
      P1  H  6931  6943       L1     2  0.98
      P1  H  6934  6947       L1     2  0.48
      L1  C     8    26       P1  7948  0.16

> <Gold.PLP.Chemscore.Internal.Correction>
0.1389

> <Gold.Rescore>
     Score         DG    S(hbond)    S(metal)    S(lipo)     H(rot)  DE(clash)    DE(int)     intcor
     13.48     -14.37       1.28        0.00      87.92       2.21       0.05       0.84       ----

> <Gold.Chemscore.Fitness>
13.4785

> <Gold.Chemscore.DG>
-14.3705

> <Gold.Chemscore.ZeroCoef>
-5.4800

> <Gold.Chemscore.Hbond>
1.2784

> <Gold.Chemscore.Metal>
0.0000

> <Gold.Chemscore.Lipo>
87.9235

> <Gold.Chemscore.Internal_Hbond>
0.0000

> <Gold.Chemscore.DEClash>
0.0515

> <Gold.Chemscore.DEInternal>
0.8405

> <Gold.Chemscore.Rot>
2.2134

> <Gold.Chemscore.Internal.Correction>
   9.000000E+99

> <Gold.Chemscore.Hbonds>
donor molecule, donor type, donor heavy atom, donor atom, acceptor molecule, acceptor atom, score
      P1  H  6931  6943       L1     2  0.16
      P1  H  6934  6947       L1     2  0.38

> <Gold.Chemscore.Hbond.Weighted>
-4.2697

> <Gold.Chemscore.Metal.Weighted>
-0.0000

> <Gold.Chemscore.Lipo.Weighted>
-10.2871

> <Gold.Chemscore.Internal_Hbond.Weighted>
0.0000

> <Gold.Chemscore.DEClash.Weighted>
0.0515

> <Gold.Chemscore.DEInternal.Weighted>
0.8405

> <Gold.Chemscore.Rot.Weighted>
5.6663

> <Gold.Chemscore.Internal.Correction.Weighted>
   9.000000E+99

> <Gold.Protein.RotatedTorsions>
[ 6907 6896 6895 6894 ] final -125.37 input  -60.11 | X-H torsion
[ 7974 7965 7964 7962 ] final  -43.11 input  175.53 | X-H torsion
[ 8008 7997 7996 7995 ] final  127.49 input   59.86 | X-H torsion
[ 10167 10162 10161 10158 ] final  129.10 input  -65.29 | X-H torsion
[ 10718 10713 10712 10709 ] final  116.83 input   66.30 | X-H torsion
[ 10763 10752 10751 10750 ] final  -47.50 input  -60.55 | X-H torsion
[ 11005 11000 10999 10996 ] final   11.08 input  -57.11 | X-H torsion

> <Gold.Protein.ActiveResidues>
 VAL166  LYS551  ARG553  GLY616  TRP617  ASP618  TYR619  PRO620  LYS621  CYS622 
 ASP623  PHE694  ASN695  SER759  ASP760  ASP761  ALA762  ILE779  LEU786  VAL792 
 PHE793  MET794  SER795  GLU796  ALA797  LYS798  CYS799  TRP800  GLU811  SER814 

> <Gold.Protein.RotatedAtoms>
  150.8861  133.7306  159.2917 H   0  0  0  0  0  0  0  0  0  0  0  0  # atno 6907 bound_to 6896
  151.4872  135.1054  159.9803 H   0  0  0  0  0  0  0  0  0  0  0  0  # atno 6908 bound_to 6896
  152.4791  133.8163  159.7085 H   0  0  0  0  0  0  0  0  0  0  0  0  # atno 6909 bound_to 6896
  146.0051  140.7030  142.9251 H   0  0  0  0  0  0  0  0  0  0  0  0  # atno 7974 bound_to 7965
  156.2892  140.2667  156.2281 H   0  0  0  0  0  0  0  0  0  0  0  0  # atno 8008 bound_to 7997
  155.0100  140.0387  157.2413 H   0  0  0  0  0  0  0  0  0  0  0  0  # atno 8009 bound_to 7997
  154.7526  140.2746  155.6284 H   0  0  0  0  0  0  0  0  0  0  0  0  # atno 8010 bound_to 7997
  139.5494  144.6801  151.4370 H   0  0  0  0  0  0  0  0  0  0  0  0  # atno 10167 bound_to 10162
  157.6135  131.1030  150.7529 H   0  0  0  0  0  0  0  0  0  0  0  0  # atno 10718 bound_to 10713
  154.0623  135.6616  153.4813 H   0  0  0  0  0  0  0  0  0  0  0  0  # atno 10763 bound_to 10752
  153.0422  135.5138  154.7647 H   0  0  0  0  0  0  0  0  0  0  0  0  # atno 10764 bound_to 10752
  154.6687  135.3026  154.9738 H   0  0  0  0  0  0  0  0  0  0  0  0  # atno 10765 bound_to 10752
  140.5072  134.0687  155.7809 H   0  0  0  0  0  0  0  0  0  0  0  0  # atno 11005 bound_to 11000
  144.6933  140.3300  143.7217 LP  0  0  0  0  0  0  0  0  0  0  0  0  # atno 17320 bound_to 7965
  145.7429  139.1769  143.2366 LP  0  0  0  0  0  0  0  0  0  0  0  0  # atno 17321 bound_to 7965
  140.6752  143.8205  150.7050 LP  0  0  0  0  0  0  0  0  0  0  0  0  # atno 17342 bound_to 10162
  140.1641  143.4250  152.2046 LP  0  0  0  0  0  0  0  0  0  0  0  0  # atno 17343 bound_to 10162
  156.7901  130.4887  149.5386 LP  0  0  0  0  0  0  0  0  0  0  0  0  # atno 17370 bound_to 10713
  156.1248  130.6136  151.0247 LP  0  0  0  0  0  0  0  0  0  0  0  0  # atno 17371 bound_to 10713
  141.1404  133.9147  157.2338 LP  0  0  0  0  0  0  0  0  0  0  0  0  # atno 17394 bound_to 11000
  139.9679  135.0136  156.9436 LP  0  0  0  0  0  0  0  0  0  0  0  0  # atno 17395 bound_to 11000

$$$$
