AV-unprocessed.smi:670|AV-procd|sdf|3267|dock9
  -GOLD-   22720 0223D 1   1.00000     0.00000
 Structure written by MMmdl.
 44 45  0  0  0  0  0  0  0  0  2 V2000
  150.4257  141.4161  156.7987 C   0  0  0  0  0  0  0  0  0  0  0  0
  151.7669  141.6981  157.4927 C   0  0  2  0  0  0  0  0  0  0  0  0
  152.7360  142.4599  156.5665 C   0  0  0  0  0  0  0  0  0  0  0  0
  154.0583  142.7867  157.2783 C   0  0  0  0  0  0  0  0  0  0  0  0
  154.7191  141.5188  157.8396 C   0  0  0  0  0  0  0  0  0  0  0  0
  153.7586  140.7482  158.7612 C   0  0  0  0  0  0  0  0  0  0  0  0
  152.4279  140.4191  158.0593 C   0  0  2  0  0  0  0  0  0  0  0  0
  152.7089  139.5072  157.0036 O   0  0  0  0  0  0  0  0  0  0  0  0
  151.6210  138.6688  156.6452 C   0  0  0  0  0  0  0  0  0  0  0  0
  151.3683  137.6679  157.7814 C   0  0  0  0  0  0  0  0  0  0  0  0
  150.0164  137.7890  158.3143 N   0  0  0  0  0  0  0  0  0  0  0  0
  149.2083  136.7634  158.6224 C   0  0  0  0  0  0  0  0  0  0  0  0
  149.5272  135.5822  158.4838 O   0  0  0  0  0  0  0  0  0  0  0  0
  147.8339  137.1308  159.1923 C   0  0  0  0  0  0  0  0  0  0  0  0
  147.6177  136.5549  160.5260 N   0  0  0  0  0  0  0  0  0  0  0  0
  148.3026  137.2782  161.5945 N   0  5  0  0  0  0  0  0  0  0  0  0
  148.1575  136.8571  162.8789 C   0  0  0  0  0  0  0  0  0  0  0  0
  148.6917  137.4229  163.8300 O   0  0  0  0  0  0  0  0  0  0  0  0
  147.3347  135.6848  163.1255 C   0  0  0  0  0  0  0  0  0  0  0  0
  146.7265  135.0277  162.1185 C   0  0  0  0  0  0  0  0  0  0  0  0
  146.8486  135.4468  160.7273 C   0  0  0  0  0  0  0  0  0  0  0  0
  146.2980  134.8479  159.8037 O   0  0  0  0  0  0  0  0  0  0  0  0
  150.5607  140.8109  155.9024 H   0  0  0  0  0  0  0  0  0  0  0  0
  149.9389  142.3441  156.4977 H   0  0  0  0  0  0  0  0  0  0  0  0
  149.7421  140.8855  157.4618 H   0  0  0  0  0  0  0  0  0  0  0  0
  151.5493  142.3493  158.3407 H   0  0  0  0  0  0  0  0  0  0  0  0
  152.9386  141.8661  155.6740 H   0  0  0  0  0  0  0  0  0  0  0  0
  152.2716  143.3841  156.2207 H   0  0  0  0  0  0  0  0  0  0  0  0
  154.7385  143.2843  156.5865 H   0  0  0  0  0  0  0  0  0  0  0  0
  153.8721  143.4917  158.0893 H   0  0  0  0  0  0  0  0  0  0  0  0
  155.0316  140.8757  157.0158 H   0  0  0  0  0  0  0  0  0  0  0  0
  155.6256  141.7823  158.3846 H   0  0  0  0  0  0  0  0  0  0  0  0
  154.2333  139.8299  159.1088 H   0  0  0  0  0  0  0  0  0  0  0  0
  153.5590  141.3452  159.6520 H   0  0  0  0  0  0  0  0  0  0  0  0
  151.7623  139.9662  158.7973 H   0  0  0  0  0  0  0  0  0  0  0  0
  150.7319  139.2797  156.4831 H   0  0  0  0  0  0  0  0  0  0  0  0
  151.8255  138.1418  155.7125 H   0  0  0  0  0  0  0  0  0  0  0  0
  151.5069  136.6493  157.4184 H   0  0  0  0  0  0  0  0  0  0  0  0
  152.0957  137.8148  158.5812 H   0  0  0  0  0  0  0  0  0  0  0  0
  149.6613  138.7240  158.4560 H   0  0  0  0  0  0  0  0  0  0  0  0
  147.7390  138.2173  159.2297 H   0  0  0  0  0  0  0  0  0  0  0  0
  147.0587  136.7985  158.4989 H   0  0  0  0  0  0  0  0  0  0  0  0
  147.2097  135.3322  164.1389 H   0  0  0  0  0  0  0  0  0  0  0  0
  146.1252  134.1607  162.3484 H   0  0  0  0  0  0  0  0  0  0  0  0
  1  2  1  0  0  0  0
  1 23  1  0  0  0  0
  1 24  1  0  0  0  0
  1 25  1  0  0  0  0
  2  7  1  0  0  0  0
  2  3  1  0  0  0  0
  2 26  1  0  0  0  0
  3  4  1  0  0  0  0
  3 27  1  0  0  0  0
  3 28  1  0  0  0  0
  4  5  1  0  0  0  0
  4 29  1  0  0  0  0
  4 30  1  0  0  0  0
  5  6  1  0  0  0  0
  5 31  1  0  0  0  0
  5 32  1  0  0  0  0
  6  7  1  0  0  0  0
  6 33  1  0  0  0  0
  6 34  1  0  0  0  0
  7  8  1  0  0  0  0
  7 35  1  0  0  0  0
  8  9  1  0  0  0  0
  9 10  1  0  0  0  0
  9 36  1  0  0  0  0
  9 37  1  0  0  0  0
 10 11  1  0  0  0  0
 10 38  1  0  0  0  0
 10 39  1  0  0  0  0
 11 12  1  0  0  0  0
 11 40  1  0  0  0  0
 12 13  2  0  0  0  0
 12 14  1  0  0  0  0
 14 41  1  0  0  0  0
 14 42  1  0  0  0  0
 14 15  1  0  0  0  0
 15 16  1  0  0  0  0
 15 21  1  0  0  0  0
 16 17  1  0  0  0  0
 17 18  2  0  0  0  0
 17 19  1  0  0  0  0
 19 43  1  0  0  0  0
 19 20  2  0  0  0  0
 20 44  1  0  0  0  0
 20 21  1  0  0  0  0
 21 22  2  0  0  0  0
M  CHG  1  16  -1
M  END
> <s_m_source_file>
AV-unprocessed.smi

> <i_m_source_file_index>
670

> <i_lp_mmshare_version>
43012

> <i_f3d_flags>
0

> <s_epik_input>
W0NIM11bQ0BASF0xW0NIMl1bQ0gyXVtDSDJdW0NIMl1bQ0BIXTFPW0NIMl1bQ0gyXVtOSF1DKD1PKVtDSDJdbjJbbkhdYyg9TylbY0hdW2NIXWMyPU8=

> <s_epik_cmdline>
J2VwaWtfcHl0aG9uJywgJy1waCcsICc3LjAnLCAnLXRuJywgJzgnLCAnLW1hJywgJzIwMCcsICctbWV0YWxfYmluZGluZycsICctaW1hZScsICc8aW5maWxlLm1hZT4nLCAnLW9tYWUnLCAnPG91dGZpbGUubWFlPic=

> <r_lp_tautomer_probability>
1

> <r_epik_Ionization_Penalty>
0.0975638

> <r_epik_Ionization_Penalty_Charging>
0.0975637

> <r_epik_Ionization_Penalty_Neutral>
2.78599e-08

> <r_epik_State_Penalty>
0.0343507

> <r_epik_Charging_Adjusted_Penalty>
0.131914

> <i_epik_Tot_Q>
-1

> <i_epik_Tot_abs_Q>
1

> <r_epik_Metal_State_Penalty>
0.0343507

> <b_epik_Metal_Only>
0

> <s_lp_Force_Field>
OPLS_2005

> <r_lp_Energy>
29.4365

> <b_lp_Chiralities_Consistent>
1

> <s_lp_Variant>
AV-unprocessed.smi:670-3

> <Gold.Version>
5.8.1

> <Gold.Id.Protein>
6NUR|6NUR_protein|mol2

> <Gold.PLP.Fitness>
56.1415

> <Gold.PLP.PLP>
-45.4769

> <Gold.PLP.part.hbond>
-3.8082

> <Gold.PLP.part.metal>
0.0000

> <Gold.PLP.part.buried>
-3.0890

> <Gold.PLP.part.nonpolar>
-38.1694

> <Gold.PLP.part.repulsive>
0.2444

> <Gold.PLP.ligand.clash>
0.0000

> <Gold.PLP.ligand.torsion>
1.0430

> <Gold.PLP.Chemscore.Hbond>
4.2366

> <Gold.PLP.Chemscore.CHOScore>
0.0000

> <Gold.PLP.Chemscore.Metal>
0.0000

> <Gold.Chemscore.Hbonds>
donor molecule, donor type, donor heavy atom, donor atom, acceptor molecule, acceptor atom, score
      P1  H  6896  6909       L1    13  0.94
      P1  H  6931  6943       L1    16  0.43
      P1  H  6934  6947       L1    16  0.22
      P1  H  7997  8008       L1     8  0.03

> <Gold.PLP.Chemscore.Internal.Correction>
0.0411

> <Gold.Rescore>
     Score         DG    S(hbond)    S(metal)    S(lipo)     H(rot)  DE(clash)    DE(int)     intcor
     13.79     -15.77       1.49        0.00      98.99       2.45       0.09       1.89       ----

> <Gold.Chemscore.Fitness>
13.7924

> <Gold.Chemscore.DG>
-15.7714

> <Gold.Chemscore.ZeroCoef>
-5.4800

> <Gold.Chemscore.Hbond>
1.4908

> <Gold.Chemscore.Metal>
0.0000

> <Gold.Chemscore.Lipo>
98.9862

> <Gold.Chemscore.Internal_Hbond>
0.0000

> <Gold.Chemscore.DEClash>
0.0862

> <Gold.Chemscore.DEInternal>
1.8928

> <Gold.Chemscore.Rot>
2.4490

> <Gold.Chemscore.Internal.Correction>
   9.000000E+99

> <Gold.Chemscore.Hbonds>
donor molecule, donor type, donor heavy atom, donor atom, acceptor molecule, acceptor atom, score
      P1  H  6896  6909       L1    13  0.85
      P1  H  6931  6943       L1    16  0.02
      P1  H  7997  8008       L1     8  0.02

> <Gold.Chemscore.Hbond.Weighted>
-4.9794

> <Gold.Chemscore.Metal.Weighted>
-0.0000

> <Gold.Chemscore.Lipo.Weighted>
-11.5814

> <Gold.Chemscore.Internal_Hbond.Weighted>
0.0000

> <Gold.Chemscore.DEClash.Weighted>
0.0862

> <Gold.Chemscore.DEInternal.Weighted>
1.8928

> <Gold.Chemscore.Rot.Weighted>
6.2694

> <Gold.Chemscore.Internal.Correction.Weighted>
   9.000000E+99

> <Gold.Protein.RotatedTorsions>
[ 6907 6896 6895 6894 ] final   73.44 input  -60.11 | X-H torsion
[ 7974 7965 7964 7962 ] final   36.76 input  175.53 | X-H torsion
[ 8008 7997 7996 7995 ] final   -2.87 input   59.86 | X-H torsion
[ 10167 10162 10161 10158 ] final  -64.74 input  -65.29 | X-H torsion
[ 10718 10713 10712 10709 ] final  -91.83 input   66.30 | X-H torsion
[ 10763 10752 10751 10750 ] final  -17.96 input  -60.55 | X-H torsion
[ 11005 11000 10999 10996 ] final  -56.26 input  -57.11 | X-H torsion

> <Gold.Protein.ActiveResidues>
 VAL166  LYS551  ARG553  GLY616  TRP617  ASP618  TYR619  PRO620  LYS621  CYS622 
 ASP623  PHE694  ASN695  SER759  ASP760  ASP761  ALA762  ILE779  LEU786  VAL792 
 PHE793  MET794  SER795  GLU796  ALA797  LYS798  CYS799  TRP800  GLU811  SER814 

> <Gold.Protein.RotatedAtoms>
  152.4923  134.4420  159.9546 H   0  0  0  0  0  0  0  0  0  0  0  0  # atno 6907 bound_to 6896
  151.4405  133.3638  159.2789 H   0  0  0  0  0  0  0  0  0  0  0  0  # atno 6908 bound_to 6896
  150.9091  134.8530  159.7473 H   0  0  0  0  0  0  0  0  0  0  0  0  # atno 6909 bound_to 6896
  146.1188  139.5978  142.9304 H   0  0  0  0  0  0  0  0  0  0  0  0  # atno 7974 bound_to 7965
  154.6311  140.2523  155.7433 H   0  0  0  0  0  0  0  0  0  0  0  0  # atno 8008 bound_to 7997
  156.2480  140.2907  156.0582 H   0  0  0  0  0  0  0  0  0  0  0  0  # atno 8009 bound_to 7997
  155.1744  140.0387  157.2860 H   0  0  0  0  0  0  0  0  0  0  0  0  # atno 8010 bound_to 7997
  140.5780  143.2324  151.6402 H   0  0  0  0  0  0  0  0  0  0  0  0  # atno 10167 bound_to 10162
  155.9997  130.4963  150.5533 H   0  0  0  0  0  0  0  0  0  0  0  0  # atno 10718 bound_to 10713
  153.5818  135.7005  153.5460 H   0  0  0  0  0  0  0  0  0  0  0  0  # atno 10763 bound_to 10752
  153.3254  135.4062  155.1451 H   0  0  0  0  0  0  0  0  0  0  0  0  # atno 10764 bound_to 10752
  154.8616  135.3706  154.5346 H   0  0  0  0  0  0  0  0  0  0  0  0  # atno 10765 bound_to 10752
  141.1112  133.6610  156.4593 H   0  0  0  0  0  0  0  0  0  0  0  0  # atno 11005 bound_to 11000
  145.5510  141.0413  143.2278 LP  0  0  0  0  0  0  0  0  0  0  0  0  # atno 17320 bound_to 7965
  144.7577  139.7032  143.7247 LP  0  0  0  0  0  0  0  0  0  0  0  0  # atno 17321 bound_to 7965
  139.5153  144.3382  152.0764 LP  0  0  0  0  0  0  0  0  0  0  0  0  # atno 17342 bound_to 10162
  140.2528  144.4151  150.6215 LP  0  0  0  0  0  0  0  0  0  0  0  0  # atno 17343 bound_to 10162
  157.3453  131.0724  151.1756 LP  0  0  0  0  0  0  0  0  0  0  0  0  # atno 17370 bound_to 10713
  157.2590  130.6650  149.5966 LP  0  0  0  0  0  0  0  0  0  0  0  0  # atno 17371 bound_to 10713
  140.4770  134.6700  157.5154 LP  0  0  0  0  0  0  0  0  0  0  0  0  # atno 17394 bound_to 11000
  140.0007  134.6841  155.9535 LP  0  0  0  0  0  0  0  0  0  0  0  0  # atno 17395 bound_to 11000

$$$$
