AV-unprocessed.smi:188|AV-procd|sdf|1474|dock2
  -GOLD-   2262019293D 1   1.00000     0.00000
 Structure written by MMmdl.
 48 52  0  0  0  0  0  0  0  0  2 V2000
  153.2038  137.8674  154.4614 O   0  0  0  0  0  0  0  0  0  0  0  0
  152.4903  138.4923  155.2429 C   0  0  0  0  0  0  0  0  0  0  0  0
  151.5284  137.8892  155.9471 N   0  0  0  0  0  0  0  0  0  0  0  0
  150.8770  138.7451  156.7278 C   0  0  0  0  0  0  0  0  0  0  0  0
  149.9465  138.4867  157.4904 O   0  0  0  0  0  0  0  0  0  0  0  0
  151.4994  140.1212  156.5054 C   0  0  0  0  0  0  0  0  0  0  0  0
  150.4986  141.1460  155.9181 C   0  0  0  0  0  0  0  0  0  0  0  0
  149.4851  141.6477  156.9634 C   0  0  0  0  0  0  0  0  0  0  0  0
  150.1669  142.1590  158.1541 N   0  0  0  0  0  0  0  0  0  0  0  0
  149.4375  142.9086  159.0197 C   0  0  0  0  0  0  0  0  0  0  0  0
  150.0401  143.4827  160.0959 N   0  0  0  0  0  0  0  0  0  0  0  0
  149.3338  144.2325  160.9465 C   0  0  0  0  0  0  0  0  0  0  0  0
  148.0339  144.5307  160.9144 N   0  0  0  0  0  0  0  0  0  0  0  0
  147.4190  143.9489  159.8458 C   0  0  0  0  0  0  0  0  0  0  0  0
  148.0407  143.1334  158.8572 C   0  0  0  0  0  0  0  0  0  0  0  0
  147.0954  142.7180  157.9267 N   0  0  0  0  0  0  0  0  0  0  0  0
  145.9832  143.2638  158.3351 C   0  0  0  0  0  0  0  0  0  0  0  0
  146.0832  144.0116  159.4871 N   0  0  0  0  0  0  0  0  0  0  0  0
  145.0013  144.7191  160.1565 C   0  0  0  0  0  0  0  0  0  0  0  0
  144.1915  143.8603  161.1493 C   0  0  0  0  0  0  0  0  0  0  0  0
  145.0975  142.7442  161.7106 C   0  0  0  0  0  0  0  0  0  0  0  0
  145.2736  141.6786  160.7983 O   0  0  0  0  0  0  0  0  0  0  0  0
  143.3500  144.6250  162.1820 C   0  0  0  0  0  0  0  0  0  0  0  0
  142.1461  143.9190  161.8093 O   0  0  0  0  0  0  0  0  0  0  0  0
  142.8149  143.4171  160.6318 C   0  0  0  0  0  0  0  0  0  0  0  0
  151.0918  141.2229  158.7924 C   0  0  0  0  0  0  0  0  0  0  0  0
  152.1397  140.7062  157.7881 C   0  0  0  0  0  0  0  0  0  0  0  0
  152.5314  139.8154  155.5261 N   0  5  0  0  0  0  0  0  0  0  0  0
  151.3226  136.9031  155.8926 H   0  0  0  0  0  0  0  0  0  0  0  0
  151.0469  142.0042  155.5257 H   0  0  0  0  0  0  0  0  0  0  0  0
  149.9629  140.7190  155.0688 H   0  0  0  0  0  0  0  0  0  0  0  0
  148.8751  142.4354  156.5191 H   0  0  0  0  0  0  0  0  0  0  0  0
  148.8060  140.8444  157.2504 H   0  0  0  0  0  0  0  0  0  0  0  0
  149.8906  144.6520  161.7711 H   0  0  0  0  0  0  0  0  0  0  0  0
  145.0501  143.1267  157.8083 H   0  0  0  0  0  0  0  0  0  0  0  0
  145.4322  145.5855  160.6597 H   0  0  0  0  0  0  0  0  0  0  0  0
  144.3401  145.1256  159.3901 H   0  0  0  0  0  0  0  0  0  0  0  0
  146.0822  143.1360  161.9672 H   0  0  0  0  0  0  0  0  0  0  0  0
  144.6782  142.3166  162.6217 H   0  0  0  0  0  0  0  0  0  0  0  0
  145.2604  142.0276  159.9202 H   0  0  0  0  0  0  0  0  0  0  0  0
  143.6408  144.4460  163.2177 H   0  0  0  0  0  0  0  0  0  0  0  0
  143.2591  145.6935  161.9839 H   0  0  0  0  0  0  0  0  0  0  0  0
  142.4913  143.9419  159.7313 H   0  0  0  0  0  0  0  0  0  0  0  0
  142.7027  142.3393  160.5094 H   0  0  0  0  0  0  0  0  0  0  0  0
  151.6075  141.6869  159.6322 H   0  0  0  0  0  0  0  0  0  0  0  0
  150.5203  140.3923  159.2072 H   0  0  0  0  0  0  0  0  0  0  0  0
  152.7729  139.9629  158.2753 H   0  0  0  0  0  0  0  0  0  0  0  0
  152.8003  141.5323  157.5197 H   0  0  0  0  0  0  0  0  0  0  0  0
  1  2  2  0  0  0  0
  2 28  1  0  0  0  0
  2  3  1  0  0  0  0
  3  4  1  0  0  0  0
  3 29  1  0  0  0  0
  4  5  2  0  0  0  0
  4  6  1  0  0  0  0
  6 27  1  0  0  0  0
  6  7  1  0  0  0  0
  6 28  1  0  0  0  0
  7  8  1  0  0  0  0
  7 30  1  0  0  0  0
  7 31  1  0  0  0  0
  8  9  1  0  0  0  0
  8 32  1  0  0  0  0
  8 33  1  0  0  0  0
  9 10  1  0  0  0  0
  9 26  1  0  0  0  0
 10 15  1  0  0  0  0
 10 11  2  0  0  0  0
 11 12  1  0  0  0  0
 12 13  2  0  0  0  0
 12 34  1  0  0  0  0
 13 14  1  0  0  0  0
 14 18  1  0  0  0  0
 14 15  2  0  0  0  0
 15 16  1  0  0  0  0
 16 17  2  0  0  0  0
 17 18  1  0  0  0  0
 17 35  1  0  0  0  0
 18 19  1  0  0  0  0
 19 20  1  0  0  0  0
 19 36  1  0  0  0  0
 19 37  1  0  0  0  0
 20 25  1  0  0  0  0
 20 21  1  0  0  0  0
 20 23  1  0  0  0  0
 21 22  1  0  0  0  0
 21 38  1  0  0  0  0
 21 39  1  0  0  0  0
 22 40  1  0  0  0  0
 23 24  1  0  0  0  0
 23 41  1  0  0  0  0
 23 42  1  0  0  0  0
 24 25  1  0  0  0  0
 25 43  1  0  0  0  0
 25 44  1  0  0  0  0
 26 27  1  0  0  0  0
 26 45  1  0  0  0  0
 26 46  1  0  0  0  0
 27 47  1  0  0  0  0
 27 48  1  0  0  0  0
M  CHG  1  28  -1
M  END
> <s_m_source_file>
AV-unprocessed.smi

> <i_m_source_file_index>
188

> <i_lp_mmshare_version>
43012

> <i_f3d_flags>
0

> <s_epik_input>
Tz1DKFtOSF0xKVtOSF1DKD1PKUMxMltDSDJdW0NIMl1OKFtDSDJdW0NIMl0yKWMobltjSF1uMyljKGMzNCluW2NIXW40W0NIMl1DNShbQ0gyXVtPSF0pW0NIMl1PW0NIMl01

> <s_epik_cmdline>
J2VwaWtfcHl0aG9uJywgJy1waCcsICc3LjAnLCAnLXRuJywgJzgnLCAnLW1hJywgJzIwMCcsICctbWV0YWxfYmluZGluZycsICctaW1hZScsICc8aW5maWxlLm1hZT4nLCAnLW9tYWUnLCAnPG91dGZpbGUubWFlPic=

> <r_lp_tautomer_probability>
1

> <r_epik_Ionization_Penalty>
5.87904

> <r_epik_Ionization_Penalty_Charging>
5.87677

> <r_epik_Ionization_Penalty_Neutral>
0.00227107

> <r_epik_State_Penalty>
5.88193

> <r_epik_Charging_Adjusted_Penalty>
11.7587

> <i_epik_Tot_Q>
-1

> <i_epik_Tot_abs_Q>
1

> <r_epik_Metal_State_Penalty>
2.21794

> <b_epik_Metal_Only>
1

> <s_lp_Force_Field>
OPLS_2005

> <r_lp_Energy>
46.2215

> <b_lp_Chiralities_Consistent>
1

> <s_lp_Variant>
AV-unprocessed.smi:188-3

> <Gold.Version>
5.8.1

> <Gold.Id.Protein>
6NUR|6NUR_protein|mol2

> <Gold.PLP.Fitness>
39.5457

> <Gold.PLP.PLP>
-31.2961

> <Gold.PLP.part.hbond>
-5.9126

> <Gold.PLP.part.metal>
0.0000

> <Gold.PLP.part.buried>
0.8320

> <Gold.PLP.part.nonpolar>
-25.7109

> <Gold.PLP.part.repulsive>
0.7615

> <Gold.PLP.ligand.clash>
0.0000

> <Gold.PLP.ligand.torsion>
1.4557

> <Gold.PLP.Chemscore.Hbond>
3.4838

> <Gold.PLP.Chemscore.CHOScore>
0.0000

> <Gold.PLP.Chemscore.Metal>
0.0000

> <Gold.Chemscore.Hbonds>
donor molecule, donor type, donor heavy atom, donor atom, acceptor molecule, acceptor atom, score
      P1  H  6934  6946       L1    22  0.90
      P1  H  7997  8009       L1    28  2.00
      P1  H 10752 10765       L1     1  0.15

> <Gold.PLP.Chemscore.Internal.Correction>
0.7095

> <Gold.Rescore>
     Score         DG    S(hbond)    S(metal)    S(lipo)     H(rot)  DE(clash)    DE(int)     intcor
      2.62      -9.15       1.02        0.00      64.58       2.84       2.55       3.98       ----

> <Gold.Chemscore.Fitness>
2.6214

> <Gold.Chemscore.DG>
-9.1515

> <Gold.Chemscore.ZeroCoef>
-5.4800

> <Gold.Chemscore.Hbond>
1.0178

> <Gold.Chemscore.Metal>
0.0000

> <Gold.Chemscore.Lipo>
64.5752

> <Gold.Chemscore.Internal_Hbond>
0.0000

> <Gold.Chemscore.DEClash>
2.5515

> <Gold.Chemscore.DEInternal>
3.9786

> <Gold.Chemscore.Rot>
2.8450

> <Gold.Chemscore.Internal.Correction>
   9.000000E+99

> <Gold.Chemscore.Hbonds>
donor molecule, donor type, donor heavy atom, donor atom, acceptor molecule, acceptor atom, score
      P1  H  6934  6946       L1    22  0.19
      P1  H  7989  7998       L1    28  0.01
      P1  H  7997  8009       L1    28  0.50
      P1  H 10752 10765       L1     1  0.15

> <Gold.Chemscore.Hbond.Weighted>
-3.3993

> <Gold.Chemscore.Metal.Weighted>
-0.0000

> <Gold.Chemscore.Lipo.Weighted>
-7.5553

> <Gold.Chemscore.Internal_Hbond.Weighted>
0.0000

> <Gold.Chemscore.DEClash.Weighted>
2.5515

> <Gold.Chemscore.DEInternal.Weighted>
3.9786

> <Gold.Chemscore.Rot.Weighted>
7.2831

> <Gold.Chemscore.Internal.Correction.Weighted>
   9.000000E+99

> <Gold.Protein.RotatedTorsions>
[ 6907 6896 6895 6894 ] final  -56.03 input  -60.11 | X-H torsion
[ 7974 7965 7964 7962 ] final  -30.25 input  175.53 | X-H torsion
[ 8008 7997 7996 7995 ] final -150.26 input   59.86 | X-H torsion
[ 10167 10162 10161 10158 ] final -114.52 input  -65.29 | X-H torsion
[ 10718 10713 10712 10709 ] final  149.16 input   66.30 | X-H torsion
[ 10763 10752 10751 10750 ] final  139.03 input  -60.55 | X-H torsion
[ 11005 11000 10999 10996 ] final  -79.66 input  -57.11 | X-H torsion

> <Gold.Protein.ActiveResidues>
 VAL166  LYS551  ARG553  GLY616  TRP617  ASP618  TYR619  PRO620  LYS621  CYS622 
 ASP623  PHE694  ASN695  SER759  ASP760  ASP761  ALA762  ILE779  LEU786  VAL792 
 PHE793  MET794  SER795  GLU796  ALA797  LYS798  CYS799  TRP800  GLU811  SER814 

> <Gold.Protein.RotatedAtoms>
  150.8202  134.7405  159.6764 H   0  0  0  0  0  0  0  0  0  0  0  0  # atno 6907 bound_to 6896
  152.4318  134.5760  159.9944 H   0  0  0  0  0  0  0  0  0  0  0  0  # atno 6908 bound_to 6896
  151.5946  133.3325  159.3071 H   0  0  0  0  0  0  0  0  0  0  0  0  # atno 6909 bound_to 6896
  146.1157  140.5517  142.8758 H   0  0  0  0  0  0  0  0  0  0  0  0  # atno 7974 bound_to 7965
  155.6207  140.0681  157.2679 H   0  0  0  0  0  0  0  0  0  0  0  0  # atno 8008 bound_to 7997
  154.4230  140.1785  156.1417 H   0  0  0  0  0  0  0  0  0  0  0  0  # atno 8009 bound_to 7997
  156.0012  140.3336  155.6851 H   0  0  0  0  0  0  0  0  0  0  0  0  # atno 8010 bound_to 7997
  140.1001  143.4621  152.1817 H   0  0  0  0  0  0  0  0  0  0  0  0  # atno 10167 bound_to 10162
  157.2996  131.0868  151.1400 H   0  0  0  0  0  0  0  0  0  0  0  0  # atno 10718 bound_to 10713
  153.8994  135.3024  155.3448 H   0  0  0  0  0  0  0  0  0  0  0  0  # atno 10763 bound_to 10752
  154.7678  135.4902  153.9591 H   0  0  0  0  0  0  0  0  0  0  0  0  # atno 10764 bound_to 10752
  153.1253  135.6791  153.9367 H   0  0  0  0  0  0  0  0  0  0  0  0  # atno 10765 bound_to 10752
  141.1667  133.7115  156.8155 H   0  0  0  0  0  0  0  0  0  0  0  0  # atno 11005 bound_to 11000
  144.7550  140.5286  143.6775 LP  0  0  0  0  0  0  0  0  0  0  0  0  # atno 17320 bound_to 7965
  145.5572  139.1478  143.3361 LP  0  0  0  0  0  0  0  0  0  0  0  0  # atno 17321 bound_to 7965
  139.5676  144.7444  151.3979 LP  0  0  0  0  0  0  0  0  0  0  0  0  # atno 17342 bound_to 10162
  140.6982  143.7696  150.7361 LP  0  0  0  0  0  0  0  0  0  0  0  0  # atno 17343 bound_to 10162
  157.2764  130.6729  149.6044 LP  0  0  0  0  0  0  0  0  0  0  0  0  # atno 17370 bound_to 10713
  155.9671  130.4463  150.5536 LP  0  0  0  0  0  0  0  0  0  0  0  0  # atno 17371 bound_to 10713
  140.2157  134.8795  157.3322 LP  0  0  0  0  0  0  0  0  0  0  0  0  # atno 17394 bound_to 11000
  140.2040  134.4219  155.7647 LP  0  0  0  0  0  0  0  0  0  0  0  0  # atno 17395 bound_to 11000

$$$$
