AV-unprocessed.smi:1474|AV-procd|sdf|5975|dock5
  -GOLD-   22720 6 63D 1   1.00000     0.00000
 Structure written by MMmdl.
 43 44  0  0  0  0  0  0  0  0  1 V2000
  152.9578  128.8207  154.6547 C   0  0  0  0  0  0  0  0  0  0  0  0
  153.2499  130.0222  155.3462 O   0  0  0  0  0  0  0  0  0  0  0  0
  152.1279  130.5303  156.0487 C   0  0  0  0  0  0  0  0  0  0  0  0
  152.4310  131.9554  156.5207 C   0  0  0  0  0  0  0  0  0  0  0  0
  151.3669  132.3954  157.3590 O   0  0  0  0  0  0  0  0  0  0  0  0
  150.2793  133.0120  156.7756 C   0  0  0  0  0  0  0  0  0  0  0  0
  150.1142  132.9049  155.3802 C   0  0  0  0  0  0  0  0  0  0  0  0
  149.0094  133.5351  154.7770 C   0  0  0  0  0  0  0  0  0  0  0  0
  148.1068  134.2572  155.5877 C   0  0  0  0  0  0  0  0  0  0  0  0
  146.8868  134.9588  155.0077 C   0  0  0  0  0  0  0  0  0  0  0  0
  146.8648  135.0165  153.5495 N   0  0  0  0  0  0  0  0  0  0  0  0
  145.9921  134.3610  152.7681 C   0  0  0  0  0  0  0  0  0  0  0  0
  145.1077  133.6327  153.2192 O   0  0  0  0  0  0  0  0  0  0  0  0
  146.1345  134.5819  151.2501 C   0  0  1  0  0  0  0  0  0  0  0  0
  146.5874  133.3084  150.5118 C   0  0  0  0  0  0  0  0  0  0  0  0
  145.4982  132.2205  150.4527 C   0  0  0  0  0  0  0  0  0  0  0  0
  144.0982  132.7634  150.1282 C   0  0  0  0  0  0  0  0  0  0  0  0
  143.2183  131.9855  149.7665 O   0  0  0  0  0  0  0  0  0  0  0  0
  143.8526  134.0757  150.2881 N   0  0  0  0  0  0  0  0  0  0  0  0
  144.8375  135.1139  150.5994 C   0  0  0  0  0  0  0  0  0  0  0  0
  148.3557  134.2998  156.9754 C   0  0  0  0  0  0  0  0  0  0  0  0
  149.4121  133.6974  157.5615 N   0  0  0  0  0  0  0  0  0  0  0  0
  153.8500  128.4703  154.1356 H   0  0  0  0  0  0  0  0  0  0  0  0
  152.1739  128.9729  153.9116 H   0  0  0  0  0  0  0  0  0  0  0  0
  152.6401  128.0369  155.3435 H   0  0  0  0  0  0  0  0  0  0  0  0
  151.2640  130.5437  155.3824 H   0  0  0  0  0  0  0  0  0  0  0  0
  151.8764  129.8939  156.8985 H   0  0  0  0  0  0  0  0  0  0  0  0
  153.3872  131.9851  157.0460 H   0  0  0  0  0  0  0  0  0  0  0  0
  152.5049  132.6097  155.6506 H   0  0  0  0  0  0  0  0  0  0  0  0
  150.8220  132.3477  154.7841 H   0  0  0  0  0  0  0  0  0  0  0  0
  148.8632  133.4606  153.7097 H   0  0  0  0  0  0  0  0  0  0  0  0
  145.9969  134.4240  155.3395 H   0  0  0  0  0  0  0  0  0  0  0  0
  146.8091  135.9679  155.4162 H   0  0  0  0  0  0  0  0  0  0  0  0
  147.5611  135.5963  153.1040 H   0  0  0  0  0  0  0  0  0  0  0  0
  146.9037  135.3435  151.1106 H   0  0  0  0  0  0  0  0  0  0  0  0
  146.8781  133.5741  149.4945 H   0  0  0  0  0  0  0  0  0  0  0  0
  147.4853  132.9014  150.9786 H   0  0  0  0  0  0  0  0  0  0  0  0
  145.7715  131.4631  149.7174 H   0  0  0  0  0  0  0  0  0  0  0  0
  145.4382  131.7069  151.4126 H   0  0  0  0  0  0  0  0  0  0  0  0
  142.9104  134.3925  150.1100 H   0  0  0  0  0  0  0  0  0  0  0  0
  144.3656  135.8645  151.2350 H   0  0  0  0  0  0  0  0  0  0  0  0
  145.0843  135.6215  149.6662 H   0  0  0  0  0  0  0  0  0  0  0  0
  147.6896  134.8342  157.6367 H   0  0  0  0  0  0  0  0  0  0  0  0
  1  2  1  0  0  0  0
  1 23  1  0  0  0  0
  1 24  1  0  0  0  0
  1 25  1  0  0  0  0
  2  3  1  0  0  0  0
  3  4  1  0  0  0  0
  3 26  1  0  0  0  0
  3 27  1  0  0  0  0
  4  5  1  0  0  0  0
  4 28  1  0  0  0  0
  4 29  1  0  0  0  0
  5  6  1  0  0  0  0
  6 22  1  0  0  0  0
  6  7  2  0  0  0  0
  7  8  1  0  0  0  0
  7 30  1  0  0  0  0
  8  9  2  0  0  0  0
  8 31  1  0  0  0  0
  9 10  1  0  0  0  0
  9 21  1  0  0  0  0
 10 11  1  0  0  0  0
 10 32  1  0  0  0  0
 10 33  1  0  0  0  0
 11 12  1  0  0  0  0
 11 34  1  0  0  0  0
 12 13  2  0  0  0  0
 12 14  1  0  0  0  0
 14 20  1  0  0  0  0
 14 15  1  0  0  0  0
 14 35  1  0  0  0  0
 15 16  1  0  0  0  0
 15 36  1  0  0  0  0
 15 37  1  0  0  0  0
 16 17  1  0  0  0  0
 16 38  1  0  0  0  0
 16 39  1  0  0  0  0
 17 18  2  0  0  0  0
 17 19  1  0  0  0  0
 19 20  1  0  0  0  0
 19 40  1  0  0  0  0
 20 41  1  0  0  0  0
 20 42  1  0  0  0  0
 21 22  2  0  0  0  0
 21 43  1  0  0  0  0
M  END
> <s_m_source_file>
AV-unprocessed.smi

> <i_m_source_file_index>
1474

> <i_lp_mmshare_version>
43012

> <i_f3d_flags>
0

> <s_epik_input>
W0NIM11PW0NIMl1bQ0gyXU9jMVtjSF1bY0hdYyhbY0hdbjEpW0NIMl1bTkhdQyg9TylbQ0BASF0yW0NIMl1bQ0gyXUMoPU8pW05IXVtDSDJdMg==

> <s_epik_cmdline>
J2VwaWtfcHl0aG9uJywgJy1waCcsICc3LjAnLCAnLXRuJywgJzgnLCAnLW1hJywgJzIwMCcsICctbWV0YWxfYmluZGluZycsICctaW1hZScsICc8aW5maWxlLm1hZT4nLCAnLW9tYWUnLCAnPG91dGZpbGUubWFlPic=

> <r_lp_tautomer_probability>
1

> <r_epik_Ionization_Penalty>
6.19599e-05

> <r_epik_Ionization_Penalty_Charging>
0

> <r_epik_Ionization_Penalty_Neutral>
6.19599e-05

> <r_epik_State_Penalty>
-0

> <r_epik_Charging_Adjusted_Penalty>
0

> <i_epik_Tot_Q>
0

> <i_epik_Tot_abs_Q>
0

> <r_epik_Metal_State_Penalty>
-0

> <b_epik_Metal_Only>
0

> <s_lp_Force_Field>
OPLS_2005

> <r_lp_Energy>
8.64292

> <b_lp_Chiralities_Consistent>
1

> <s_lp_Variant>
AV-unprocessed.smi:1474-2

> <Gold.Version>
5.8.1

> <Gold.Id.Protein>
6NUR|6NUR_protein|mol2

> <Gold.PLP.Fitness>
42.1158

> <Gold.PLP.PLP>
-31.1700

> <Gold.PLP.part.hbond>
-4.6059

> <Gold.PLP.part.metal>
0.0000

> <Gold.PLP.part.buried>
-5.1981

> <Gold.PLP.part.nonpolar>
-22.4148

> <Gold.PLP.part.repulsive>
1.4267

> <Gold.PLP.ligand.clash>
0.0000

> <Gold.PLP.ligand.torsion>
0.5886

> <Gold.PLP.Chemscore.Hbond>
4.0000

> <Gold.PLP.Chemscore.CHOScore>
0.0000

> <Gold.PLP.Chemscore.Metal>
0.0000

> <Gold.Chemscore.Hbonds>
donor molecule, donor type, donor heavy atom, donor atom, acceptor molecule, acceptor atom, score
      L1  H    11    34       P1  7948  1.00
      L1  H    19    40       P1 10186  1.00
      P1  H  6896  6908       L1     5  0.84
      P1  H 10785 10796       L1    18  0.80

> <Gold.PLP.Chemscore.Internal.Correction>
0.1229

> <Gold.Rescore>
     Score         DG    S(hbond)    S(metal)    S(lipo)     H(rot)  DE(clash)    DE(int)     intcor
     17.14     -19.21       3.83        0.00      63.27       2.52       1.61       0.46       ----

> <Gold.Chemscore.Fitness>
17.1377

> <Gold.Chemscore.DG>
-19.2073

> <Gold.Chemscore.ZeroCoef>
-5.4800

> <Gold.Chemscore.Hbond>
3.8251

> <Gold.Chemscore.Metal>
0.0000

> <Gold.Chemscore.Lipo>
63.2730

> <Gold.Chemscore.Internal_Hbond>
0.0000

> <Gold.Chemscore.DEClash>
1.6063

> <Gold.Chemscore.DEInternal>
0.4633

> <Gold.Chemscore.Rot>
2.5201

> <Gold.Chemscore.Internal.Correction>
   9.000000E+99

> <Gold.Chemscore.Hbonds>
donor molecule, donor type, donor heavy atom, donor atom, acceptor molecule, acceptor atom, score
      L1  H    11    34       P1  7948  0.98
      L1  H    19    40       P1 10186  0.86
      P1  H  6896  6908       L1     5  0.36
      P1  H 10785 10796       L1    18  0.78

> <Gold.Chemscore.Hbond.Weighted>
-12.7758

> <Gold.Chemscore.Metal.Weighted>
-0.0000

> <Gold.Chemscore.Lipo.Weighted>
-7.4029

> <Gold.Chemscore.Internal_Hbond.Weighted>
0.0000

> <Gold.Chemscore.DEClash.Weighted>
1.6063

> <Gold.Chemscore.DEInternal.Weighted>
0.4633

> <Gold.Chemscore.Rot.Weighted>
6.4514

> <Gold.Chemscore.Internal.Correction.Weighted>
   9.000000E+99

> <Gold.Protein.RotatedTorsions>
[ 6907 6896 6895 6894 ] final   67.29 input  -60.11 | X-H torsion
[ 7974 7965 7964 7962 ] final  -24.04 input  175.53 | X-H torsion
[ 8008 7997 7996 7995 ] final   26.11 input   59.86 | X-H torsion
[ 10167 10162 10161 10158 ] final  -43.71 input  -65.29 | X-H torsion
[ 10718 10713 10712 10709 ] final  -74.06 input   66.30 | X-H torsion
[ 10763 10752 10751 10750 ] final -128.16 input  -60.55 | X-H torsion
[ 11005 11000 10999 10996 ] final -162.72 input  -57.11 | X-H torsion

> <Gold.Protein.ActiveResidues>
 VAL166  LYS551  ARG553  GLY616  TRP617  ASP618  TYR619  PRO620  LYS621  CYS622 
 ASP623  PHE694  ASN695  SER759  ASP760  ASP761  ALA762  ILE779  LEU786  VAL792 
 PHE793  MET794  SER795  GLU796  ALA797  LYS798  CYS799  TRP800  GLU811  SER814 

> <Gold.Protein.RotatedAtoms>
  152.4541  134.5330  159.9816 H   0  0  0  0  0  0  0  0  0  0  0  0  # atno 6907 bound_to 6896
  151.5395  133.3429  159.2940 H   0  0  0  0  0  0  0  0  0  0  0  0  # atno 6908 bound_to 6896
  150.8479  134.7826  159.7048 H   0  0  0  0  0  0  0  0  0  0  0  0  # atno 6909 bound_to 6896
  146.1579  140.4698  142.8583 H   0  0  0  0  0  0  0  0  0  0  0  0  # atno 7974 bound_to 7965
  155.0221  140.3149  155.4789 H   0  0  0  0  0  0  0  0  0  0  0  0  # atno 8008 bound_to 7997
  156.2890  140.2195  156.5282 H   0  0  0  0  0  0  0  0  0  0  0  0  # atno 8009 bound_to 7997
  154.7443  140.0471  157.0826 H   0  0  0  0  0  0  0  0  0  0  0  0  # atno 8010 bound_to 7997
  140.6924  143.2968  151.3391 H   0  0  0  0  0  0  0  0  0  0  0  0  # atno 10167 bound_to 10162
  156.0256  130.4408  150.2836 H   0  0  0  0  0  0  0  0  0  0  0  0  # atno 10718 bound_to 10713
  154.8755  135.3937  154.3712 H   0  0  0  0  0  0  0  0  0  0  0  0  # atno 10763 bound_to 10752
  153.4471  135.7027  153.6137 H   0  0  0  0  0  0  0  0  0  0  0  0  # atno 10764 bound_to 10752
  153.4693  135.3794  155.2351 H   0  0  0  0  0  0  0  0  0  0  0  0  # atno 10765 bound_to 10752
  140.6061  134.4897  157.5210 H   0  0  0  0  0  0  0  0  0  0  0  0  # atno 11005 bound_to 11000
  144.7988  140.6173  143.6492 LP  0  0  0  0  0  0  0  0  0  0  0  0  # atno 17320 bound_to 7965
  145.4662  139.1508  143.3839 LP  0  0  0  0  0  0  0  0  0  0  0  0  # atno 17321 bound_to 7965
  139.6340  144.0665  152.2500 LP  0  0  0  0  0  0  0  0  0  0  0  0  # atno 17342 bound_to 10162
  140.0149  144.6196  150.7615 LP  0  0  0  0  0  0  0  0  0  0  0  0  # atno 17343 bound_to 10162
  157.0940  131.0177  151.3111 LP  0  0  0  0  0  0  0  0  0  0  0  0  # atno 17370 bound_to 10713
  157.4832  130.7777  149.7434 LP  0  0  0  0  0  0  0  0  0  0  0  0  # atno 17371 bound_to 10713
  139.9211  134.8146  156.1207 LP  0  0  0  0  0  0  0  0  0  0  0  0  # atno 17394 bound_to 11000
  141.0839  133.6742  156.2395 LP  0  0  0  0  0  0  0  0  0  0  0  0  # atno 17395 bound_to 11000

$$$$
