AV-unprocessed.smi:2911|AV-procd|sdf|11180|dock10
  -GOLD-   2272016 73D 1   1.00000     0.00000
 Structure written by MMmdl.
 41 42  0  0  0  0  0  0  0  0  1 V2000
  153.0409  137.3563  157.5609 C   0  0  0  0  0  0  0  0  0  0  0  0
  152.3386  138.4077  156.7715 C   0  0  0  0  0  0  0  0  0  0  0  0
  152.9160  138.9845  155.7244 N   0  0  0  0  0  0  0  0  0  0  0  0
  151.9439  139.8914  155.2781 O   0  0  0  0  0  0  0  0  0  0  0  0
  150.8832  139.7329  156.1059 C   0  0  0  0  0  0  0  0  0  0  0  0
  149.6855  140.6017  155.9169 C   0  0  0  0  0  0  0  0  0  0  0  0
  149.4082  141.4917  157.1388 C   0  0  0  0  0  0  0  0  0  0  0  0
  150.6456  141.9320  157.7730 N   0  0  0  0  0  0  0  0  0  0  0  0
  150.7417  142.9153  158.6841 C   0  0  0  0  0  0  0  0  0  0  0  0
  149.7690  143.5872  159.0278 O   0  0  0  0  0  0  0  0  0  0  0  0
  152.0150  143.1600  159.0865 N   0  0  0  0  0  0  0  0  0  0  0  0
  152.9686  142.0564  159.2989 C   0  0  0  0  0  0  0  0  0  0  0  0
  152.9059  141.6171  160.7748 C   0  0  0  0  0  0  0  0  0  0  0  0
  153.1925  142.7977  161.7274 C   0  0  2  0  0  0  0  0  0  0  0  0
  153.0112  142.3972  163.1978 C   0  0  0  0  0  0  0  0  0  0  0  0
  152.3362  144.0299  161.3617 C   0  0  0  0  0  0  0  0  0  0  0  0
  152.4392  144.3504  159.8560 C   0  0  2  0  0  0  0  0  0  0  0  0
  151.7281  145.6684  159.4825 C   0  0  0  0  0  0  0  0  0  0  0  0
  151.0796  138.8331  157.0667 N   0  0  0  0  0  0  0  0  0  0  0  0
  154.1225  137.4641  157.4728 H   0  0  0  0  0  0  0  0  0  0  0  0
  152.7602  136.3667  157.2004 H   0  0  0  0  0  0  0  0  0  0  0  0
  152.7742  137.4293  158.6156 H   0  0  0  0  0  0  0  0  0  0  0  0
  149.8412  141.2131  155.0271 H   0  0  0  0  0  0  0  0  0  0  0  0
  148.8232  139.9659  155.7121 H   0  0  0  0  0  0  0  0  0  0  0  0
  148.8510  142.3777  156.8334 H   0  0  0  0  0  0  0  0  0  0  0  0
  148.7832  140.9651  157.8621 H   0  0  0  0  0  0  0  0  0  0  0  0
  151.4927  141.4535  157.5032 H   0  0  0  0  0  0  0  0  0  0  0  0
  152.7830  141.1951  158.6565 H   0  0  0  0  0  0  0  0  0  0  0  0
  153.9773  142.3882  159.0486 H   0  0  0  0  0  0  0  0  0  0  0  0
  151.9190  141.2027  160.9866 H   0  0  0  0  0  0  0  0  0  0  0  0
  153.6211  140.8131  160.9518 H   0  0  0  0  0  0  0  0  0  0  0  0
  154.2384  143.0770  161.5918 H   0  0  0  0  0  0  0  0  0  0  0  0
  151.9810  142.1063  163.4052 H   0  0  0  0  0  0  0  0  0  0  0  0
  153.2644  143.2228  163.8634 H   0  0  0  0  0  0  0  0  0  0  0  0
  153.6537  141.5554  163.4575 H   0  0  0  0  0  0  0  0  0  0  0  0
  151.2932  143.8515  161.6284 H   0  0  0  0  0  0  0  0  0  0  0  0
  152.6613  144.8895  161.9491 H   0  0  0  0  0  0  0  0  0  0  0  0
  153.4917  144.5208  159.6229 H   0  0  0  0  0  0  0  0  0  0  0  0
  152.2427  146.5182  159.9317 H   0  0  0  0  0  0  0  0  0  0  0  0
  150.6985  145.7045  159.8372 H   0  0  0  0  0  0  0  0  0  0  0  0
  151.7240  145.8246  158.4034 H   0  0  0  0  0  0  0  0  0  0  0  0
  1  2  1  0  0  0  0
  1 20  1  0  0  0  0
  1 21  1  0  0  0  0
  1 22  1  0  0  0  0
  2 19  1  0  0  0  0
  2  3  2  0  0  0  0
  3  4  1  0  0  0  0
  4  5  1  0  0  0  0
  5  6  1  0  0  0  0
  5 19  2  0  0  0  0
  6  7  1  0  0  0  0
  6 23  1  0  0  0  0
  6 24  1  0  0  0  0
  7  8  1  0  0  0  0
  7 25  1  0  0  0  0
  7 26  1  0  0  0  0
  8  9  1  0  0  0  0
  8 27  1  0  0  0  0
  9 10  2  0  0  0  0
  9 11  1  0  0  0  0
 11 17  1  0  0  0  0
 11 12  1  0  0  0  0
 12 13  1  0  0  0  0
 12 28  1  0  0  0  0
 12 29  1  0  0  0  0
 13 14  1  0  0  0  0
 13 30  1  0  0  0  0
 13 31  1  0  0  0  0
 14 15  1  0  0  0  0
 14 16  1  0  0  0  0
 14 32  1  0  0  0  0
 15 33  1  0  0  0  0
 15 34  1  0  0  0  0
 15 35  1  0  0  0  0
 16 17  1  0  0  0  0
 16 36  1  0  0  0  0
 16 37  1  0  0  0  0
 17 18  1  0  0  0  0
 17 38  1  0  0  0  0
 18 39  1  0  0  0  0
 18 40  1  0  0  0  0
 18 41  1  0  0  0  0
M  END
> <s_m_source_file>
AV-unprocessed.smi

> <i_m_source_file_index>
2911

> <i_lp_mmshare_version>
43012

> <i_f3d_flags>
0

> <s_epik_input>
W0NIM11jMW5vYyhuMSlbQ0gyXVtDSDJdW05IXUMoPU8pTjJbQ0gyXVtDSDJdW0NAQEhdKFtDSDNdKVtDSDJdW0NASF0yW0NIM10=

> <s_epik_cmdline>
J2VwaWtfcHl0aG9uJywgJy1waCcsICc3LjAnLCAnLXRuJywgJzgnLCAnLW1hJywgJzIwMCcsICctbWV0YWxfYmluZGluZycsICctaW1hZScsICc8aW5maWxlLm1hZT4nLCAnLW9tYWUnLCAnPG91dGZpbGUubWFlPic=

> <r_lp_tautomer_probability>
1

> <r_epik_Ionization_Penalty>
6.61671e-05

> <r_epik_Ionization_Penalty_Charging>
0

> <r_epik_Ionization_Penalty_Neutral>
6.61671e-05

> <r_epik_State_Penalty>
-0

> <r_epik_Charging_Adjusted_Penalty>
0

> <i_epik_Tot_Q>
0

> <i_epik_Tot_abs_Q>
0

> <r_epik_Metal_State_Penalty>
-0

> <b_epik_Metal_Only>
0

> <s_lp_Force_Field>
OPLS_2005

> <r_lp_Energy>
29.3819

> <b_lp_Chiralities_Consistent>
1

> <s_lp_Variant>
AV-unprocessed.smi:2911-4

> <Gold.Version>
5.8.1

> <Gold.Id.Protein>
6NUR|6NUR_protein|mol2

> <Gold.PLP.Fitness>
44.9213

> <Gold.PLP.PLP>
-40.0692

> <Gold.PLP.part.hbond>
-2.3977

> <Gold.PLP.part.metal>
0.0000

> <Gold.PLP.part.buried>
-6.4034

> <Gold.PLP.part.nonpolar>
-31.0977

> <Gold.PLP.part.repulsive>
0.2090

> <Gold.PLP.ligand.clash>
0.0000

> <Gold.PLP.ligand.torsion>
0.5127

> <Gold.PLP.Chemscore.Hbond>
1.8160

> <Gold.PLP.Chemscore.CHOScore>
0.0000

> <Gold.PLP.Chemscore.Metal>
0.0000

> <Gold.Chemscore.Hbonds>
donor molecule, donor type, donor heavy atom, donor atom, acceptor molecule, acceptor atom, score
      P1  H  7989  7998       L1     4  0.86
      P1  H  7997  8009       L1     3  1.00

> <Gold.PLP.Chemscore.Internal.Correction>
0.4294

> <Gold.Rescore>
     Score         DG    S(hbond)    S(metal)    S(lipo)     H(rot)  DE(clash)    DE(int)     intcor
     13.98     -16.10       0.96        0.00      98.54       1.61       0.32       1.81       ----

> <Gold.Chemscore.Fitness>
13.9800

> <Gold.Chemscore.DG>
-16.1047

> <Gold.Chemscore.ZeroCoef>
-5.4800

> <Gold.Chemscore.Hbond>
0.9622

> <Gold.Chemscore.Metal>
0.0000

> <Gold.Chemscore.Lipo>
98.5445

> <Gold.Chemscore.Internal_Hbond>
0.0000

> <Gold.Chemscore.DEClash>
0.3196

> <Gold.Chemscore.DEInternal>
1.8051

> <Gold.Chemscore.Rot>
1.6088

> <Gold.Chemscore.Internal.Correction>
   9.000000E+99

> <Gold.Chemscore.Hbonds>
donor molecule, donor type, donor heavy atom, donor atom, acceptor molecule, acceptor atom, score
      P1  H  7989  7998       L1     4  0.76
      P1  H  7997  8009       L1     3  0.34

> <Gold.Chemscore.Hbond.Weighted>
-3.2136

> <Gold.Chemscore.Metal.Weighted>
-0.0000

> <Gold.Chemscore.Lipo.Weighted>
-11.5297

> <Gold.Chemscore.Internal_Hbond.Weighted>
0.0000

> <Gold.Chemscore.DEClash.Weighted>
0.3196

> <Gold.Chemscore.DEInternal.Weighted>
1.8051

> <Gold.Chemscore.Rot.Weighted>
4.1186

> <Gold.Chemscore.Internal.Correction.Weighted>
   9.000000E+99

> <Gold.Protein.RotatedTorsions>
[ 6907 6896 6895 6894 ] final  161.82 input  -60.11 | X-H torsion
[ 7974 7965 7964 7962 ] final  -33.51 input  175.53 | X-H torsion
[ 8008 7997 7996 7995 ] final -156.27 input   59.86 | X-H torsion
[ 10167 10162 10161 10158 ] final  127.53 input  -65.29 | X-H torsion
[ 10718 10713 10712 10709 ] final   57.35 input   66.30 | X-H torsion
[ 10763 10752 10751 10750 ] final   -3.97 input  -60.55 | X-H torsion
[ 11005 11000 10999 10996 ] final  169.33 input  -57.11 | X-H torsion

> <Gold.Protein.ActiveResidues>
 VAL166  LYS551  ARG553  GLY616  TRP617  ASP618  TYR619  PRO620  LYS621  CYS622 
 ASP623  PHE694  ASN695  SER759  ASP760  ASP761  ALA762  ILE779  LEU786  VAL792 
 PHE793  MET794  SER795  GLU796  ALA797  LYS798  CYS799  TRP800  GLU811  SER814 

> <Gold.Protein.RotatedAtoms>
  151.9498  133.3662  159.3995 H   0  0  0  0  0  0  0  0  0  0  0  0  # atno 6907 bound_to 6896
  150.6983  134.4352  159.5276 H   0  0  0  0  0  0  0  0  0  0  0  0  # atno 6908 bound_to 6896
  152.2023  134.8576  160.0557 H   0  0  0  0  0  0  0  0  0  0  0  0  # atno 6909 bound_to 6896
  146.0905  140.5924  142.8866 H   0  0  0  0  0  0  0  0  0  0  0  0  # atno 7974 bound_to 7965
  155.7146  140.0782  157.2357 H   0  0  0  0  0  0  0  0  0  0  0  0  # atno 8008 bound_to 7997
  154.4053  140.1624  156.2388 H   0  0  0  0  0  0  0  0  0  0  0  0  # atno 8009 bound_to 7997
  155.9252  140.3395  155.6207 H   0  0  0  0  0  0  0  0  0  0  0  0  # atno 8010 bound_to 7997
  139.5573  144.6858  151.4144 H   0  0  0  0  0  0  0  0  0  0  0  0  # atno 10167 bound_to 10162
  157.5507  130.8763  149.8959 H   0  0  0  0  0  0  0  0  0  0  0  0  # atno 10718 bound_to 10713
  153.3786  135.6997  153.6583 H   0  0  0  0  0  0  0  0  0  0  0  0  # atno 10763 bound_to 10752
  153.5204  135.3613  155.2629 H   0  0  0  0  0  0  0  0  0  0  0  0  # atno 10764 bound_to 10752
  154.8690  135.4156  154.3079 H   0  0  0  0  0  0  0  0  0  0  0  0  # atno 10765 bound_to 10752
  140.2966  134.7629  157.3882 H   0  0  0  0  0  0  0  0  0  0  0  0  # atno 11005 bound_to 11000
  144.7357  140.4800  143.6906 LP  0  0  0  0  0  0  0  0  0  0  0  0  # atno 17320 bound_to 7965
  145.6048  139.1507  143.3109 LP  0  0  0  0  0  0  0  0  0  0  0  0  # atno 17321 bound_to 7965
  140.6848  143.7998  150.7171 LP  0  0  0  0  0  0  0  0  0  0  0  0  # atno 17342 bound_to 10162
  140.1463  143.4397  152.2161 LP  0  0  0  0  0  0  0  0  0  0  0  0  # atno 17343 bound_to 10162
  156.0574  130.3706  150.1059 LP  0  0  0  0  0  0  0  0  0  0  0  0  # atno 17370 bound_to 10713
  156.9232  130.9690  151.3545 LP  0  0  0  0  0  0  0  0  0  0  0  0  # atno 17371 bound_to 10713
  140.1147  134.5299  155.8235 LP  0  0  0  0  0  0  0  0  0  0  0  0  # atno 17394 bound_to 11000
  141.2136  133.6736  156.6754 LP  0  0  0  0  0  0  0  0  0  0  0  0  # atno 17395 bound_to 11000

$$$$
