AV-unprocessed.smi:1036|AV-procd|sdf|4519|dock1
  -GOLD-   22720 2533D 1   1.00000     0.00000
 Structure written by MMmdl.
 41 43  0  0  0  0  0  0  0  0  1 V2000
  156.3633  140.0034  159.1962 O   0  0  0  0  0  0  0  0  0  0  0  0
  155.6986  139.4533  160.3137 C   0  0  0  0  0  0  0  0  0  0  0  0
  154.6165  138.4685  159.8491 C   0  0  0  0  0  0  0  0  0  0  0  0
  153.5608  139.1324  159.1069 N   0  0  0  0  0  0  0  0  0  0  0  0
  153.0905  140.4400  159.1177 C   0  0  0  0  0  0  0  0  0  0  0  0
  153.5910  141.4030  159.8902 N   0  0  0  0  0  0  0  0  0  0  0  0
  152.8168  142.4929  159.5386 C   0  0  0  0  0  0  0  0  0  0  0  0
  152.8466  143.8280  160.0017 C   0  0  0  0  0  0  0  0  0  0  0  0
  151.9452  144.7828  159.4868 C   0  0  0  0  0  0  0  0  0  0  0  0
  151.0032  144.4182  158.5030 C   0  0  0  0  0  0  0  0  0  0  0  0
  150.9553  143.0935  158.0275 C   0  0  0  0  0  0  0  0  0  0  0  0
  151.8558  142.1437  158.5456 C   0  0  0  0  0  0  0  0  0  0  0  0
  152.0685  140.7908  158.3007 N   0  0  0  0  0  0  0  0  0  0  0  0
  151.3324  139.9620  157.3544 C   0  0  0  0  0  0  0  0  0  0  0  0
  151.4166  140.4953  155.9109 C   0  0  1  0  0  0  0  0  0  0  0  0
  152.5277  139.9216  155.2479 O   0  0  0  0  0  0  0  0  0  0  0  0
  150.1095  140.2650  155.1644 C   0  0  0  0  0  0  0  0  0  0  0  0
  149.2696  141.3535  154.8364 C   0  0  0  0  0  0  0  0  0  0  0  0
  148.0656  141.1392  154.1381 C   0  0  0  0  0  0  0  0  0  0  0  0
  147.2661  142.1876  153.8296 F   0  0  0  0  0  0  0  0  0  0  0  0
  147.6941  139.8358  153.7584 C   0  0  0  0  0  0  0  0  0  0  0  0
  148.5295  138.7476  154.0743 C   0  0  0  0  0  0  0  0  0  0  0  0
  149.7346  138.9595  154.7726 C   0  0  0  0  0  0  0  0  0  0  0  0
  150.5310  137.9018  155.0595 F   0  0  0  0  0  0  0  0  0  0  0  0
  156.5444  140.9137  159.3735 H   0  0  0  0  0  0  0  0  0  0  0  0
  156.4422  138.9245  160.9100 H   0  0  0  0  0  0  0  0  0  0  0  0
  155.2868  140.2437  160.9423 H   0  0  0  0  0  0  0  0  0  0  0  0
  155.0456  137.6645  159.2506 H   0  0  0  0  0  0  0  0  0  0  0  0
  154.1580  137.9994  160.7201 H   0  0  0  0  0  0  0  0  0  0  0  0
  153.1355  138.5438  158.4051 H   0  0  0  0  0  0  0  0  0  0  0  0
  153.5647  144.1180  160.7546 H   0  0  0  0  0  0  0  0  0  0  0  0
  151.9773  145.8002  159.8481 H   0  0  0  0  0  0  0  0  0  0  0  0
  150.3168  145.1558  158.1135 H   0  0  0  0  0  0  0  0  0  0  0  0
  150.2354  142.8114  157.2736 H   0  0  0  0  0  0  0  0  0  0  0  0
  151.6933  138.9343  157.4086 H   0  0  0  0  0  0  0  0  0  0  0  0
  150.2909  139.9318  157.6769 H   0  0  0  0  0  0  0  0  0  0  0  0
  151.6088  141.5684  155.9451 H   0  0  0  0  0  0  0  0  0  0  0  0
  152.3671  138.9968  155.1382 H   0  0  0  0  0  0  0  0  0  0  0  0
  149.5462  142.3596  155.1159 H   0  0  0  0  0  0  0  0  0  0  0  0
  146.7711  139.6710  153.2226 H   0  0  0  0  0  0  0  0  0  0  0  0
  148.2468  137.7482  153.7784 H   0  0  0  0  0  0  0  0  0  0  0  0
  1  2  1  0  0  0  0
  1 25  1  0  0  0  0
  2  3  1  0  0  0  0
  2 26  1  0  0  0  0
  2 27  1  0  0  0  0
  3  4  1  0  0  0  0
  3 28  1  0  0  0  0
  3 29  1  0  0  0  0
  4  5  1  0  0  0  0
  4 30  1  0  0  0  0
  5 13  1  0  0  0  0
  5  6  2  0  0  0  0
  6  7  1  0  0  0  0
  7 12  2  0  0  0  0
  7  8  1  0  0  0  0
  8  9  2  0  0  0  0
  8 31  1  0  0  0  0
  9 10  1  0  0  0  0
  9 32  1  0  0  0  0
 10 11  2  0  0  0  0
 10 33  1  0  0  0  0
 11 12  1  0  0  0  0
 11 34  1  0  0  0  0
 12 13  1  0  0  0  0
 13 14  1  0  0  0  0
 14 15  1  0  0  0  0
 14 35  1  0  0  0  0
 14 36  1  0  0  0  0
 15 16  1  0  0  0  0
 15 17  1  0  0  0  0
 15 37  1  0  0  0  0
 16 38  1  0  0  0  0
 17 23  1  0  0  0  0
 17 18  2  0  0  0  0
 18 19  1  0  0  0  0
 18 39  1  0  0  0  0
 19 20  1  0  0  0  0
 19 21  2  0  0  0  0
 21 22  1  0  0  0  0
 21 40  1  0  0  0  0
 22 23  2  0  0  0  0
 22 41  1  0  0  0  0
 23 24  1  0  0  0  0
M  END
> <s_m_source_file>
AV-unprocessed.smi

> <i_m_source_file_index>
1036

> <i_lp_mmshare_version>
43012

> <i_f3d_flags>
0

> <s_epik_input>
W09IXVtDSDJdW0NIMl1bTkhdYyhuMSluKGMoYzEyKVtjSF1bY0hdW2NIXVtjSF0yKVtDSDJdW0NASF0oW09IXSljM1tjSF1jKEYpW2NIXVtjSF1jM0Y=

> <s_epik_cmdline>
J2VwaWtfcHl0aG9uJywgJy1waCcsICc3LjAnLCAnLXRuJywgJzgnLCAnLW1hJywgJzIwMCcsICctbWV0YWxfYmluZGluZycsICctaW1hZScsICc8aW5maWxlLm1hZT4nLCAnLW9tYWUnLCAnPG91dGZpbGUubWFlPic=

> <r_epik_Ionization_Penalty>
1.30972

> <r_epik_Ionization_Penalty_Charging>
0

> <r_epik_Ionization_Penalty_Neutral>
1.30972

> <r_epik_State_Penalty>
1.38438

> <r_epik_Charging_Adjusted_Penalty>
1.38438

> <i_epik_Tot_Q>
0

> <i_epik_Tot_abs_Q>
0

> <r_epik_Metal_State_Penalty>
0.00551145

> <b_epik_Metal_Only>
0

> <s_lp_Force_Field>
OPLS_2005

> <r_lp_Energy>
10.9481

> <b_lp_Chiralities_Consistent>
1

> <s_lp_Variant>
AV-unprocessed.smi:1036-4

> <Gold.Version>
5.8.1

> <Gold.Id.Protein>
6NUR|6NUR_protein|mol2

> <Gold.PLP.Fitness>
55.3209

> <Gold.PLP.PLP>
-50.6170

> <Gold.PLP.part.hbond>
-3.0000

> <Gold.PLP.part.metal>
0.0000

> <Gold.PLP.part.buried>
-6.2576

> <Gold.PLP.part.nonpolar>
-42.1754

> <Gold.PLP.part.repulsive>
0.0833

> <Gold.PLP.ligand.clash>
0.0000

> <Gold.PLP.ligand.torsion>
0.7841

> <Gold.PLP.Chemscore.Hbond>
2.0759

> <Gold.PLP.Chemscore.CHOScore>
0.0000

> <Gold.PLP.Chemscore.Metal>
0.0000

> <Gold.Chemscore.Hbonds>
donor molecule, donor type, donor heavy atom, donor atom, acceptor molecule, acceptor atom, score
      P1  H  7989  7998       L1    16  0.08
      P1  H  7997  8008       L1    16  0.98
      P1  H  7997  8010       L1     1  1.00

> <Gold.PLP.Chemscore.Internal.Correction>
0.0444

> <Gold.Rescore>
     Score         DG    S(hbond)    S(metal)    S(lipo)     H(rot)  DE(clash)    DE(int)     intcor
     14.30     -17.63       1.60        0.00     128.55       3.22       0.13       3.20       ----

> <Gold.Chemscore.Fitness>
14.2982

> <Gold.Chemscore.DG>
-17.6329

> <Gold.Chemscore.ZeroCoef>
-5.4800

> <Gold.Chemscore.Hbond>
1.6031

> <Gold.Chemscore.Metal>
0.0000

> <Gold.Chemscore.Lipo>
128.5498

> <Gold.Chemscore.Internal_Hbond>
0.0000

> <Gold.Chemscore.DEClash>
0.1324

> <Gold.Chemscore.DEInternal>
3.2022

> <Gold.Chemscore.Rot>
3.2194

> <Gold.Chemscore.Internal.Correction>
   9.000000E+99

> <Gold.Chemscore.Hbonds>
donor molecule, donor type, donor heavy atom, donor atom, acceptor molecule, acceptor atom, score
      P1  H  7997  8008       L1    16  0.60
      P1  H  7997  8010       L1     1  0.33

> <Gold.Chemscore.Hbond.Weighted>
-5.3542

> <Gold.Chemscore.Metal.Weighted>
-0.0000

> <Gold.Chemscore.Lipo.Weighted>
-15.0403

> <Gold.Chemscore.Internal_Hbond.Weighted>
0.0000

> <Gold.Chemscore.DEClash.Weighted>
0.1324

> <Gold.Chemscore.DEInternal.Weighted>
3.2022

> <Gold.Chemscore.Rot.Weighted>
8.2416

> <Gold.Chemscore.Internal.Correction.Weighted>
   9.000000E+99

> <Gold.Protein.RotatedTorsions>
[ 6907 6896 6895 6894 ] final -150.93 input  -60.11 | X-H torsion
[ 7974 7965 7964 7962 ] final   -2.03 input  175.53 | X-H torsion
[ 8008 7997 7996 7995 ] final  -30.05 input   59.86 | X-H torsion
[ 10167 10162 10161 10158 ] final  -47.03 input  -65.29 | X-H torsion
[ 10718 10713 10712 10709 ] final   47.81 input   66.30 | X-H torsion
[ 10763 10752 10751 10750 ] final   17.92 input  -60.55 | X-H torsion
[ 11005 11000 10999 10996 ] final   20.31 input  -57.11 | X-H torsion

> <Gold.Protein.ActiveResidues>
 VAL166  LYS551  ARG553  GLY616  TRP617  ASP618  TYR619  PRO620  LYS621  CYS622 
 ASP623  PHE694  ASN695  SER759  ASP760  ASP761  ALA762  ILE779  LEU786  VAL792 
 PHE793  MET794  SER795  GLU796  ALA797  LYS798  CYS799  TRP800  GLU811  SER814 

> <Gold.Protein.RotatedAtoms>
  151.2057  133.4585  159.2596 H   0  0  0  0  0  0  0  0  0  0  0  0  # atno 6907 bound_to 6896
  151.1026  134.9981  159.8466 H   0  0  0  0  0  0  0  0  0  0  0  0  # atno 6908 bound_to 6896
  152.5444  134.1982  159.8754 H   0  0  0  0  0  0  0  0  0  0  0  0  # atno 6909 bound_to 6896
  146.2410  140.1509  142.8334 H   0  0  0  0  0  0  0  0  0  0  0  0  # atno 7974 bound_to 7965
  154.4265  140.1801  156.1346 H   0  0  0  0  0  0  0  0  0  0  0  0  # atno 8008 bound_to 7997
  156.0040  140.3357  155.6849 H   0  0  0  0  0  0  0  0  0  0  0  0  # atno 8009 bound_to 7997
  155.6203  140.0659  157.2671 H   0  0  0  0  0  0  0  0  0  0  0  0  # atno 8010 bound_to 7997
  140.6792  143.2803  151.3869 H   0  0  0  0  0  0  0  0  0  0  0  0  # atno 10167 bound_to 10162
  157.4623  130.8204  149.7899 H   0  0  0  0  0  0  0  0  0  0  0  0  # atno 10718 bound_to 10713
  153.1295  135.6737  153.9201 H   0  0  0  0  0  0  0  0  0  0  0  0  # atno 10763 bound_to 10752
  153.8692  135.3072  155.3442 H   0  0  0  0  0  0  0  0  0  0  0  0  # atno 10764 bound_to 10752
  154.7695  135.4947  153.9701 H   0  0  0  0  0  0  0  0  0  0  0  0  # atno 10765 bound_to 10752
  140.4040  134.1688  155.7665 H   0  0  0  0  0  0  0  0  0  0  0  0  # atno 11005 bound_to 11000
  145.0168  140.8760  143.5191 LP  0  0  0  0  0  0  0  0  0  0  0  0  # atno 17320 bound_to 7965
  145.1551  139.2491  143.5420 LP  0  0  0  0  0  0  0  0  0  0  0  0  # atno 17321 bound_to 7965
  139.6104  144.1111  152.2292 LP  0  0  0  0  0  0  0  0  0  0  0  0  # atno 17342 bound_to 10162
  140.0523  144.5923  150.7326 LP  0  0  0  0  0  0  0  0  0  0  0  0  # atno 17343 bound_to 10162
  156.0034  130.3868  150.2519 LP  0  0  0  0  0  0  0  0  0  0  0  0  # atno 17370 bound_to 10713
  157.0698  131.0113  151.3194 LP  0  0  0  0  0  0  0  0  0  0  0  0  # atno 17371 bound_to 10713
  141.1846  133.8340  157.1134 LP  0  0  0  0  0  0  0  0  0  0  0  0  # atno 17394 bound_to 11000
  140.0315  134.9898  157.0790 LP  0  0  0  0  0  0  0  0  0  0  0  0  # atno 17395 bound_to 11000

$$$$
