AV-unprocessed.smi:1543|AV-procd|sdf|6205|dock3
  -GOLD-   22720 6373D 1   1.00000     0.00000
 Structure written by MMmdl.
 48 49  0  0  0  0  0  0  0  0  1 V2000
  145.9013  131.7948  149.2001 C   0  0  0  0  0  0  0  0  0  0  0  0
  145.7978  132.8920  150.2650 C   0  0  2  0  0  0  0  0  0  0  0  0
  146.5148  132.4998  151.5698 C   0  0  0  0  0  0  0  0  0  0  0  0
  146.3373  133.5062  152.6204 N   0  0  0  0  0  0  0  0  0  0  0  0
  147.1387  133.2771  153.8556 C   0  0  0  0  0  0  0  0  0  0  0  0
  146.7260  131.9928  154.6137 C   0  0  0  0  0  0  0  0  0  0  0  0
  148.6480  133.1512  153.5260 C   0  0  0  0  0  0  0  0  0  0  0  0
  147.0105  134.4656  154.8529 C   0  0  0  0  0  0  0  0  0  0  0  0
  147.6211  135.6912  154.3377 N   0  0  0  0  0  0  0  0  0  0  0  0
  147.9500  136.7719  155.0585 C   0  0  0  0  0  0  0  0  0  0  0  0
  147.7486  136.8713  156.2683 O   0  0  0  0  0  0  0  0  0  0  0  0
  148.5100  137.7142  154.2806 N   0  0  0  0  0  0  0  0  0  0  0  0
  148.9771  139.0086  154.6383 C   0  0  0  0  0  0  0  0  0  0  0  0
  149.6014  139.3270  155.8693 C   0  0  0  0  0  0  0  0  0  0  0  0
  150.0283  140.6505  156.0927 C   0  0  0  0  0  0  0  0  0  0  0  0
  149.8238  141.6043  155.0773 C   0  0  0  0  0  0  0  0  0  0  0  0
  149.2423  141.3130  153.8949 N   0  0  0  0  0  0  0  0  0  0  0  0
  148.8353  140.0424  153.6882 C   0  0  0  0  0  0  0  0  0  0  0  0
  144.8996  133.6961  152.8437 C   0  0  0  0  0  0  0  0  0  0  0  0
  144.1428  134.0728  151.5557 C   0  0  1  0  0  0  0  0  0  0  0  0
  144.4149  135.5154  151.0957 C   0  0  0  0  0  0  0  0  0  0  0  0
  144.4156  133.1227  150.5260 O   0  0  0  0  0  0  0  0  0  0  0  0
  146.9422  131.5812  148.9558 H   0  0  0  0  0  0  0  0  0  0  0  0
  145.3994  132.0960  148.2802 H   0  0  0  0  0  0  0  0  0  0  0  0
  145.4408  130.8679  149.5428 H   0  0  0  0  0  0  0  0  0  0  0  0
  146.2466  133.8014  149.8641 H   0  0  0  0  0  0  0  0  0  0  0  0
  146.1379  131.5345  151.9086 H   0  0  0  0  0  0  0  0  0  0  0  0
  147.5689  132.3630  151.3363 H   0  0  0  0  0  0  0  0  0  0  0  0
  147.3387  131.8509  155.5049 H   0  0  0  0  0  0  0  0  0  0  0  0
  146.8482  131.0979  154.0036 H   0  0  0  0  0  0  0  0  0  0  0  0
  145.6893  132.0276  154.9478 H   0  0  0  0  0  0  0  0  0  0  0  0
  149.2577  133.1643  154.4302 H   0  0  0  0  0  0  0  0  0  0  0  0
  148.9915  133.9702  152.8926 H   0  0  0  0  0  0  0  0  0  0  0  0
  148.8851  132.2179  153.0159 H   0  0  0  0  0  0  0  0  0  0  0  0
  145.9659  134.6803  155.0775 H   0  0  0  0  0  0  0  0  0  0  0  0
  147.4424  134.1909  155.8168 H   0  0  0  0  0  0  0  0  0  0  0  0
  147.8316  135.7021  153.3504 H   0  0  0  0  0  0  0  0  0  0  0  0
  148.5565  137.4992  153.2952 H   0  0  0  0  0  0  0  0  0  0  0  0
  149.7730  138.5907  156.6383 H   0  0  0  0  0  0  0  0  0  0  0  0
  150.5057  140.9275  157.0211 H   0  0  0  0  0  0  0  0  0  0  0  0
  150.1403  142.6273  155.2168 H   0  0  0  0  0  0  0  0  0  0  0  0
  148.3757  139.8463  152.7303 H   0  0  0  0  0  0  0  0  0  0  0  0
  144.4646  132.7797  153.2433 H   0  0  0  0  0  0  0  0  0  0  0  0
  144.7128  134.4747  153.5806 H   0  0  0  0  0  0  0  0  0  0  0  0
  143.0747  134.0007  151.7618 H   0  0  0  0  0  0  0  0  0  0  0  0
  144.0971  136.2295  151.8559 H   0  0  0  0  0  0  0  0  0  0  0  0
  143.8679  135.7418  150.1804 H   0  0  0  0  0  0  0  0  0  0  0  0
  145.4733  135.6936  150.9067 H   0  0  0  0  0  0  0  0  0  0  0  0
  1  2  1  0  0  0  0
  1 23  1  0  0  0  0
  1 24  1  0  0  0  0
  1 25  1  0  0  0  0
  2 22  1  0  0  0  0
  2  3  1  0  0  0  0
  2 26  1  0  0  0  0
  3  4  1  0  0  0  0
  3 27  1  0  0  0  0
  3 28  1  0  0  0  0
  4  5  1  0  0  0  0
  4 19  1  0  0  0  0
  5  6  1  0  0  0  0
  5  7  1  0  0  0  0
  5  8  1  0  0  0  0
  6 29  1  0  0  0  0
  6 30  1  0  0  0  0
  6 31  1  0  0  0  0
  7 32  1  0  0  0  0
  7 33  1  0  0  0  0
  7 34  1  0  0  0  0
  8  9  1  0  0  0  0
  8 35  1  0  0  0  0
  8 36  1  0  0  0  0
  9 10  1  0  0  0  0
  9 37  1  0  0  0  0
 10 11  2  0  0  0  0
 10 12  1  0  0  0  0
 12 13  1  0  0  0  0
 12 38  1  0  0  0  0
 13 18  1  0  0  0  0
 13 14  2  0  0  0  0
 14 15  1  0  0  0  0
 14 39  1  0  0  0  0
 15 16  2  0  0  0  0
 15 40  1  0  0  0  0
 16 17  1  0  0  0  0
 16 41  1  0  0  0  0
 17 18  2  0  0  0  0
 18 42  1  0  0  0  0
 19 20  1  0  0  0  0
 19 43  1  0  0  0  0
 19 44  1  0  0  0  0
 20 21  1  0  0  0  0
 20 22  1  0  0  0  0
 20 45  1  0  0  0  0
 21 46  1  0  0  0  0
 21 47  1  0  0  0  0
 21 48  1  0  0  0  0
M  END
> <s_m_source_file>
AV-unprocessed.smi

> <i_m_source_file_index>
1543

> <i_lp_mmshare_version>
43012

> <i_f3d_flags>
0

> <s_epik_input>
W0NIM11bQ0BASF0xW0NIMl1OKFtDSDJdW0NASF0oTzEpW0NIM10pQyhbQ0gzXSkoW0NIM10pW0NIMl1bTkhdQyg9TylbTkhdYzJbY0hdW2NIXVtjSF1uW2NIXTI=

> <s_epik_cmdline>
J2VwaWtfcHl0aG9uJywgJy1waCcsICc3LjAnLCAnLXRuJywgJzgnLCAnLW1hJywgJzIwMCcsICctbWV0YWxfYmluZGluZycsICctaW1hZScsICc8aW5maWxlLm1hZT4nLCAnLW9tYWUnLCAnPG91dGZpbGUubWFlPic=

> <r_epik_Ionization_Penalty>
0.270794

> <r_epik_Ionization_Penalty_Charging>
0

> <r_epik_Ionization_Penalty_Neutral>
0.270794

> <r_epik_State_Penalty>
0.268291

> <r_epik_Charging_Adjusted_Penalty>
0.268291

> <i_epik_Tot_Q>
0

> <i_epik_Tot_abs_Q>
0

> <r_epik_Metal_State_Penalty>
0.264827

> <b_epik_Metal_Only>
0

> <s_lp_Force_Field>
OPLS_2005

> <r_lp_Energy>
46.6988

> <b_lp_Chiralities_Consistent>
1

> <s_lp_Variant>
AV-unprocessed.smi:1543-1

> <Gold.Version>
5.8.1

> <Gold.Id.Protein>
6NUR|6NUR_protein|mol2

> <Gold.PLP.Fitness>
42.2322

> <Gold.PLP.PLP>
-29.5537

> <Gold.PLP.part.hbond>
-4.0000

> <Gold.PLP.part.metal>
0.0000

> <Gold.PLP.part.buried>
-0.8259

> <Gold.PLP.part.nonpolar>
-26.6206

> <Gold.PLP.part.repulsive>
0.8745

> <Gold.PLP.ligand.clash>
0.0000

> <Gold.PLP.ligand.torsion>
0.4315

> <Gold.PLP.Chemscore.Hbond>
2.7920

> <Gold.PLP.Chemscore.CHOScore>
1.7000

> <Gold.PLP.Chemscore.Metal>
0.0000

> <Gold.Chemscore.Hbonds>
donor molecule, donor type, donor heavy atom, donor atom, acceptor molecule, acceptor atom, score
      L1  H     9    37       P1  7948  1.00
      L1  H    12    38       P1  7948  1.00
      P1  H  8011  8017       L1    17  0.80
      L1  C    16    41       P1  8028  1.00
      L1  C    18    42       P1  7957  0.65

> <Gold.PLP.Chemscore.Internal.Correction>
0.0656

> <Gold.Rescore>
     Score         DG    S(hbond)    S(metal)    S(lipo)     H(rot)  DE(clash)    DE(int)     intcor
     17.86     -20.83       2.65        0.00      86.84       1.43       1.77       1.20       ----

> <Gold.Chemscore.Fitness>
17.8575

> <Gold.Chemscore.DG>
-20.8326

> <Gold.Chemscore.ZeroCoef>
-5.4800

> <Gold.Chemscore.Hbond>
2.6500

> <Gold.Chemscore.Metal>
0.0000

> <Gold.Chemscore.Lipo>
86.8392

> <Gold.Chemscore.Internal_Hbond>
0.0000

> <Gold.Chemscore.DEClash>
1.7726

> <Gold.Chemscore.DEInternal>
1.2024

> <Gold.Chemscore.Rot>
1.4291

> <Gold.Chemscore.Internal.Correction>
   9.000000E+99

> <Gold.Chemscore.Hbonds>
donor molecule, donor type, donor heavy atom, donor atom, acceptor molecule, acceptor atom, score
      L1  H     9    37       P1  7948  0.95
      L1  H    12    38       P1  7948  0.94
      P1  H  8011  8017       L1    17  0.69

> <Gold.Chemscore.Hbond.Weighted>
-8.8510

> <Gold.Chemscore.Metal.Weighted>
-0.0000

> <Gold.Chemscore.Lipo.Weighted>
-10.1602

> <Gold.Chemscore.Internal_Hbond.Weighted>
0.0000

> <Gold.Chemscore.DEClash.Weighted>
1.7726

> <Gold.Chemscore.DEInternal.Weighted>
1.2024

> <Gold.Chemscore.Rot.Weighted>
3.6586

> <Gold.Chemscore.Internal.Correction.Weighted>
   9.000000E+99

> <Gold.Protein.RotatedTorsions>
[ 6907 6896 6895 6894 ] final  103.13 input  -60.11 | X-H torsion
[ 7974 7965 7964 7962 ] final  -47.28 input  175.53 | X-H torsion
[ 8008 7997 7996 7995 ] final    9.91 input   59.86 | X-H torsion
[ 10167 10162 10161 10158 ] final  -98.54 input  -65.29 | X-H torsion
[ 10718 10713 10712 10709 ] final -154.99 input   66.30 | X-H torsion
[ 10763 10752 10751 10750 ] final  133.97 input  -60.55 | X-H torsion
[ 11005 11000 10999 10996 ] final -148.08 input  -57.11 | X-H torsion

> <Gold.Protein.ActiveResidues>
 VAL166  LYS551  ARG553  GLY616  TRP617  ASP618  TYR619  PRO620  LYS621  CYS622 
 ASP623  PHE694  ASN695  SER759  ASP760  ASP761  ALA762  ILE779  LEU786  VAL792 
 PHE793  MET794  SER795  GLU796  ALA797  LYS798  CYS799  TRP800  GLU811  SER814 

> <Gold.Protein.RotatedAtoms>
  152.5304  133.9871  159.7833 H   0  0  0  0  0  0  0  0  0  0  0  0  # atno 6907 bound_to 6896
  151.0114  133.5954  159.2689 H   0  0  0  0  0  0  0  0  0  0  0  0  # atno 6908 bound_to 6896
  151.3027  135.0779  159.9297 H   0  0  0  0  0  0  0  0  0  0  0  0  # atno 6909 bound_to 6896
  145.9632  140.7458  142.9447 H   0  0  0  0  0  0  0  0  0  0  0  0  # atno 7974 bound_to 7965
  154.7864  140.2828  155.6025 H   0  0  0  0  0  0  0  0  0  0  0  0  # atno 8008 bound_to 7997
  156.2958  140.2613  156.2629 H   0  0  0  0  0  0  0  0  0  0  0  0  # atno 8009 bound_to 7997
  154.9723  140.0376  157.2230 H   0  0  0  0  0  0  0  0  0  0  0  0  # atno 8010 bound_to 7997
  140.2719  143.3338  152.0526 H   0  0  0  0  0  0  0  0  0  0  0  0  # atno 10167 bound_to 10162
  156.5067  130.8416  151.2630 H   0  0  0  0  0  0  0  0  0  0  0  0  # atno 10718 bound_to 10713
  153.8159  135.3122  155.3405 H   0  0  0  0  0  0  0  0  0  0  0  0  # atno 10763 bound_to 10752
  154.8032  135.4714  154.0331 H   0  0  0  0  0  0  0  0  0  0  0  0  # atno 10764 bound_to 10752
  153.1724  135.6880  153.8679 H   0  0  0  0  0  0  0  0  0  0  0  0  # atno 10765 bound_to 10752
  140.7649  134.3255  157.5091 H   0  0  0  0  0  0  0  0  0  0  0  0  # atno 11005 bound_to 11000
  144.6819  140.2626  143.7317 LP  0  0  0  0  0  0  0  0  0  0  0  0  # atno 17320 bound_to 7965
  145.8010  139.1964  143.2048 LP  0  0  0  0  0  0  0  0  0  0  0  0  # atno 17321 bound_to 7965
  139.4986  144.6651  151.6376 LP  0  0  0  0  0  0  0  0  0  0  0  0  # atno 17342 bound_to 10162
  140.5883  143.9825  150.6309 LP  0  0  0  0  0  0  0  0  0  0  0  0  # atno 17343 bound_to 10162
  157.7456  130.9963  150.2776 LP  0  0  0  0  0  0  0  0  0  0  0  0  # atno 17370 bound_to 10713
  156.3280  130.3796  149.7516 LP  0  0  0  0  0  0  0  0  0  0  0  0  # atno 17371 bound_to 10713
  139.8765  134.9225  156.3302 LP  0  0  0  0  0  0  0  0  0  0  0  0  # atno 17394 bound_to 11000
  140.9628  133.7377  156.0425 LP  0  0  0  0  0  0  0  0  0  0  0  0  # atno 17395 bound_to 11000

$$$$
