AV-unprocessed.smi:3036|AV-procd|sdf|11585|dock9
  -GOLD-   2272016563D 1   1.00000     0.00000
 Structure written by MMmdl.
 41 42  0  0  0  0  0  0  0  0  1 V2000
  152.0799  139.3505  158.0566 C   0  0  0  0  0  0  0  0  0  0  0  0
  150.6540  139.9049  158.2084 C   0  0  1  0  0  0  0  0  0  0  0  0
  150.4915  141.2526  157.4783 C   0  0  0  0  0  0  0  0  0  0  0  0
  151.3717  142.2769  158.0144 N   0  0  0  0  0  0  0  0  0  0  0  0
  151.5729  143.5617  157.5548 C   0  0  0  0  0  0  0  0  0  0  0  0
  152.4755  144.1554  158.3895 C   0  0  0  0  0  0  0  0  0  0  0  0
  152.7734  143.1403  159.3410 C   0  0  0  0  0  0  0  0  0  0  0  0
  152.1125  142.0167  159.1134 N   0  0  0  0  0  0  0  0  0  0  0  0
  149.6931  138.9575  157.6553 N   0  0  0  0  0  0  0  0  0  0  0  0
  149.9632  137.5844  158.0622 C   0  0  0  0  0  0  0  0  0  0  0  0
  149.2664  137.2530  159.3982 C   0  0  0  0  0  0  0  0  0  0  0  0
  148.6578  135.8379  159.4894 C   0  0  0  0  0  0  0  0  0  0  0  0
  149.0870  134.9503  158.7499 O   0  0  0  0  0  0  0  0  0  0  0  0
  147.6617  135.6088  160.3791 N   0  0  0  0  0  0  0  0  0  0  0  0
  147.1335  136.6433  161.2734 C   0  0  0  0  0  0  0  0  0  0  0  0
  147.4869  136.2610  162.7216 C   0  0  0  0  0  0  0  0  0  0  0  0
  146.9462  134.9770  163.0229 O   0  0  0  0  0  0  0  0  0  0  0  0
  147.4204  133.9532  162.1516 C   0  0  0  0  0  0  0  0  0  0  0  0
  147.0676  134.3055  160.6950 C   0  0  0  0  0  0  0  0  0  0  0  0
  152.8133  140.0591  158.4421 H   0  0  0  0  0  0  0  0  0  0  0  0
  152.3242  139.1585  157.0112 H   0  0  0  0  0  0  0  0  0  0  0  0
  152.2129  138.4197  158.6081 H   0  0  0  0  0  0  0  0  0  0  0  0
  150.4430  140.0658  159.2667 H   0  0  0  0  0  0  0  0  0  0  0  0
  150.7162  141.1348  156.4171 H   0  0  0  0  0  0  0  0  0  0  0  0
  149.4615  141.6075  157.5388 H   0  0  0  0  0  0  0  0  0  0  0  0
  151.0563  143.9439  156.6867 H   0  0  0  0  0  0  0  0  0  0  0  0
  152.8612  145.1622  158.3313 H   0  0  0  0  0  0  0  0  0  0  0  0
  153.4451  143.1865  160.1855 H   0  0  0  0  0  0  0  0  0  0  0  0
  149.6542  139.0353  156.6491 H   0  0  0  0  0  0  0  0  0  0  0  0
  149.6164  136.8995  157.2886 H   0  0  0  0  0  0  0  0  0  0  0  0
  151.0386  137.4319  158.1642 H   0  0  0  0  0  0  0  0  0  0  0  0
  149.9896  137.3840  160.2040 H   0  0  0  0  0  0  0  0  0  0  0  0
  148.4679  137.9766  159.5661 H   0  0  0  0  0  0  0  0  0  0  0  0
  147.5193  137.6384  161.0493 H   0  0  0  0  0  0  0  0  0  0  0  0
  146.0511  136.7063  161.1542 H   0  0  0  0  0  0  0  0  0  0  0  0
  148.5682  136.2552  162.8694 H   0  0  0  0  0  0  0  0  0  0  0  0
  147.0724  136.9910  163.4172 H   0  0  0  0  0  0  0  0  0  0  0  0
  148.4981  133.8305  162.2716 H   0  0  0  0  0  0  0  0  0  0  0  0
  146.9577  133.0075  162.4343 H   0  0  0  0  0  0  0  0  0  0  0  0
  145.9850  134.3663  160.5763 H   0  0  0  0  0  0  0  0  0  0  0  0
  147.3943  133.4989  160.0416 H   0  0  0  0  0  0  0  0  0  0  0  0
  1  2  1  0  0  0  0
  1 20  1  0  0  0  0
  1 21  1  0  0  0  0
  1 22  1  0  0  0  0
  2  3  1  0  0  0  0
  2  9  1  0  0  0  0
  2 23  1  0  0  0  0
  3  4  1  0  0  0  0
  3 24  1  0  0  0  0
  3 25  1  0  0  0  0
  4  8  1  0  0  0  0
  4  5  1  0  0  0  0
  5  6  2  0  0  0  0
  5 26  1  0  0  0  0
  6  7  1  0  0  0  0
  6 27  1  0  0  0  0
  7  8  2  0  0  0  0
  7 28  1  0  0  0  0
  9 10  1  0  0  0  0
  9 29  1  0  0  0  0
 10 11  1  0  0  0  0
 10 30  1  0  0  0  0
 10 31  1  0  0  0  0
 11 12  1  0  0  0  0
 11 32  1  0  0  0  0
 11 33  1  0  0  0  0
 12 13  2  0  0  0  0
 12 14  1  0  0  0  0
 14 19  1  0  0  0  0
 14 15  1  0  0  0  0
 15 16  1  0  0  0  0
 15 34  1  0  0  0  0
 15 35  1  0  0  0  0
 16 17  1  0  0  0  0
 16 36  1  0  0  0  0
 16 37  1  0  0  0  0
 17 18  1  0  0  0  0
 18 19  1  0  0  0  0
 18 38  1  0  0  0  0
 18 39  1  0  0  0  0
 19 40  1  0  0  0  0
 19 41  1  0  0  0  0
M  END
> <s_m_source_file>
AV-unprocessed.smi

> <i_m_source_file_index>
3036

> <i_lp_mmshare_version>
43012

> <i_f3d_flags>
0

> <s_epik_input>
bjFbY0hdW2NIXVtjSF1uMVtDSDJdW0NAQEhdKFtDSDNdKVtOSF1bQ0gyXVtDSDJdQyg9TylOMltDSDJdW0NIMl1PW0NIMl1bQ0gyXTI=

> <s_epik_cmdline>
J2VwaWtfcHl0aG9uJywgJy1waCcsICc3LjAnLCAnLXRuJywgJzgnLCAnLW1hJywgJzIwMCcsICctbWV0YWxfYmluZGluZycsICctaW1hZScsICc8aW5maWxlLm1hZT4nLCAnLW9tYWUnLCAnPG91dGZpbGUubWFlPic=

> <r_lp_tautomer_probability>
1

> <r_epik_Ionization_Penalty>
2.55703

> <r_epik_Ionization_Penalty_Charging>
0

> <r_epik_Ionization_Penalty_Neutral>
2.55703

> <r_epik_State_Penalty>
2.726

> <r_epik_Charging_Adjusted_Penalty>
2.726

> <i_epik_Tot_Q>
0

> <i_epik_Tot_abs_Q>
0

> <r_epik_Metal_State_Penalty>
2.72597

> <b_epik_Metal_Only>
0

> <s_lp_Force_Field>
OPLS_2005

> <r_lp_Energy>
21.9246

> <b_lp_Chiralities_Consistent>
1

> <s_lp_Variant>
AV-unprocessed.smi:3036-4

> <Gold.Version>
5.8.1

> <Gold.Id.Protein>
6NUR|6NUR_protein|mol2

> <Gold.PLP.Fitness>
44.2701

> <Gold.PLP.PLP>
-39.9962

> <Gold.PLP.part.hbond>
-1.2628

> <Gold.PLP.part.metal>
0.0000

> <Gold.PLP.part.buried>
-5.5346

> <Gold.PLP.part.nonpolar>
-33.5160

> <Gold.PLP.part.repulsive>
0.0000

> <Gold.PLP.ligand.clash>
0.0000

> <Gold.PLP.ligand.torsion>
0.9038

> <Gold.PLP.Chemscore.Hbond>
1.0000

> <Gold.PLP.Chemscore.CHOScore>
1.0000

> <Gold.PLP.Chemscore.Metal>
0.0000

> <Gold.Chemscore.Hbonds>
donor molecule, donor type, donor heavy atom, donor atom, acceptor molecule, acceptor atom, score
      P1  H  6896  6909       L1    13  1.00
      L1  C     5    26       P1  8028  1.00

> <Gold.PLP.Chemscore.Internal.Correction>
0.0815

> <Gold.Rescore>
     Score         DG    S(hbond)    S(metal)    S(lipo)     H(rot)  DE(clash)    DE(int)     intcor
     13.11     -14.39       0.97        0.00      91.84       1.99       0.10       1.17       ----

> <Gold.Chemscore.Fitness>
13.1149

> <Gold.Chemscore.DG>
-14.3865

> <Gold.Chemscore.ZeroCoef>
-5.4800

> <Gold.Chemscore.Hbond>
0.9748

> <Gold.Chemscore.Metal>
0.0000

> <Gold.Chemscore.Lipo>
91.8367

> <Gold.Chemscore.Internal_Hbond>
0.0000

> <Gold.Chemscore.DEClash>
0.1011

> <Gold.Chemscore.DEInternal>
1.1705

> <Gold.Chemscore.Rot>
1.9900

> <Gold.Chemscore.Internal.Correction>
   9.000000E+99

> <Gold.Chemscore.Hbonds>
donor molecule, donor type, donor heavy atom, donor atom, acceptor molecule, acceptor atom, score
      P1  H  6896  6909       L1    13  0.45

> <Gold.Chemscore.Hbond.Weighted>
-3.2560

> <Gold.Chemscore.Metal.Weighted>
-0.0000

> <Gold.Chemscore.Lipo.Weighted>
-10.7449

> <Gold.Chemscore.Internal_Hbond.Weighted>
0.0000

> <Gold.Chemscore.DEClash.Weighted>
0.1011

> <Gold.Chemscore.DEInternal.Weighted>
1.1705

> <Gold.Chemscore.Rot.Weighted>
5.0944

> <Gold.Chemscore.Internal.Correction.Weighted>
   9.000000E+99

> <Gold.Protein.RotatedTorsions>
[ 6907 6896 6895 6894 ] final   43.41 input  -60.11 | X-H torsion
[ 7974 7965 7964 7962 ] final  -87.93 input  175.53 | X-H torsion
[ 8008 7997 7996 7995 ] final   87.53 input   59.86 | X-H torsion
[ 10167 10162 10161 10158 ] final -112.66 input  -65.29 | X-H torsion
[ 10718 10713 10712 10709 ] final  138.65 input   66.30 | X-H torsion
[ 10763 10752 10751 10750 ] final   48.30 input  -60.55 | X-H torsion
[ 11005 11000 10999 10996 ] final -165.45 input  -57.11 | X-H torsion

> <Gold.Protein.ActiveResidues>
 VAL166  LYS551  ARG553  GLY616  TRP617  ASP618  TYR619  PRO620  LYS621  CYS622 
 ASP623  PHE694  ASN695  SER759  ASP760  ASP761  ALA762  ILE779  LEU786  VAL792 
 PHE793  MET794  SER795  GLU796  ALA797  LYS798  CYS799  TRP800  GLU811  SER814 

> <Gold.Protein.RotatedAtoms>
  152.2199  134.8422  160.0486 H   0  0  0  0  0  0  0  0  0  0  0  0  # atno 6907 bound_to 6896
  151.9210  133.3580  159.3905 H   0  0  0  0  0  0  0  0  0  0  0  0  # atno 6908 bound_to 6896
  150.6997  134.4560  159.5402 H   0  0  0  0  0  0  0  0  0  0  0  0  # atno 6909 bound_to 6896
  145.4600  140.9561  143.1975 H   0  0  0  0  0  0  0  0  0  0  0  0  # atno 7974 bound_to 7965
  155.9765  140.3381  155.6623 H   0  0  0  0  0  0  0  0  0  0  0  0  # atno 8008 bound_to 7997
  155.6606  140.0715  157.2573 H   0  0  0  0  0  0  0  0  0  0  0  0  # atno 8009 bound_to 7997
  154.4180  140.1709  156.1760 H   0  0  0  0  0  0  0  0  0  0  0  0  # atno 8010 bound_to 7997
  140.1203  143.4449  152.1695 H   0  0  0  0  0  0  0  0  0  0  0  0  # atno 10167 bound_to 10162
  157.4230  131.1040  151.0333 H   0  0  0  0  0  0  0  0  0  0  0  0  # atno 10718 bound_to 10713
  152.9793  135.5948  154.3904 H   0  0  0  0  0  0  0  0  0  0  0  0  # atno 10763 bound_to 10752
  154.3560  135.2767  155.2348 H   0  0  0  0  0  0  0  0  0  0  0  0  # atno 10764 bound_to 10752
  154.4366  135.6023  153.6158 H   0  0  0  0  0  0  0  0  0  0  0  0  # atno 10765 bound_to 10752
  140.5756  134.5194  157.5169 H   0  0  0  0  0  0  0  0  0  0  0  0  # atno 11005 bound_to 11000
  144.8009  139.6143  143.7072 LP  0  0  0  0  0  0  0  0  0  0  0  0  # atno 17320 bound_to 7965
  146.2457  139.6092  142.9461 LP  0  0  0  0  0  0  0  0  0  0  0  0  # atno 17321 bound_to 7965
  139.5572  144.7381  151.4259 LP  0  0  0  0  0  0  0  0  0  0  0  0  # atno 17342 bound_to 10162
  140.6876  143.7938  150.7208 LP  0  0  0  0  0  0  0  0  0  0  0  0  # atno 17343 bound_to 10162
  157.1257  130.6080  149.5516 LP  0  0  0  0  0  0  0  0  0  0  0  0  # atno 17370 bound_to 10713
  155.9887  130.4931  150.7181 LP  0  0  0  0  0  0  0  0  0  0  0  0  # atno 17371 bound_to 10713
  139.9341  134.7908  156.0850 LP  0  0  0  0  0  0  0  0  0  0  0  0  # atno 17394 bound_to 11000
  141.1029  133.6671  156.2795 LP  0  0  0  0  0  0  0  0  0  0  0  0  # atno 17395 bound_to 11000

$$$$
