AV-unprocessed.smi:2107|AV-procd|sdf|8602|dock6
  -GOLD-   2272011343D 1   1.00000     0.00000
 Structure written by MMmdl.
 45 46  0  0  0  0  0  0  0  0  2 V2000
  152.7587  142.4917  162.5408 C   0  0  0  0  0  0  0  0  0  0  0  0
  153.4870  141.7301  161.4236 C   0  0  0  0  0  0  0  0  0  0  0  0
  152.7868  141.8192  160.1266 N   0  0  0  0  0  0  0  0  0  0  0  0
  152.6527  143.1597  159.5202 C   0  0  0  0  0  0  0  0  0  0  0  0
  151.6002  144.0333  160.2190 C   0  0  0  0  0  0  0  0  0  0  0  0
  152.3527  140.3766  159.2414 S   0  0  0  0  0  0  0  0  0  0  0  0
  153.4665  139.4400  159.4568 O   0  0  0  0  0  0  0  0  0  0  0  0
  151.0227  139.9714  159.7299 O   0  0  0  0  0  0  0  0  0  0  0  0
  152.3726  140.9958  157.7339 N   0  5  0  0  0  0  0  0  0  0  0  0
  151.1525  141.2100  156.9685 C   0  0  0  0  0  0  0  0  0  0  0  0
  150.9534  140.1151  155.9113 C   0  0  0  0  0  0  0  0  0  0  0  0
  152.0961  139.4000  155.4758 C   0  0  0  0  0  0  0  0  0  0  0  0
  151.9616  138.3880  154.5089 C   0  0  0  0  0  0  0  0  0  0  0  0
  150.6807  138.1207  154.0012 C   0  0  0  0  0  0  0  0  0  0  0  0
  149.5784  138.7863  154.3968 N   0  0  0  0  0  0  0  0  0  0  0  0
  149.6914  139.7683  155.3278 C   0  0  0  0  0  0  0  0  0  0  0  0
  148.4809  140.4070  155.6760 N   0  0  0  0  0  0  0  0  0  0  0  0
  147.4774  140.3903  154.6172 C   0  0  0  0  0  0  0  0  0  0  0  0
  146.2338  141.1886  155.0461 C   0  0  0  0  0  0  0  0  0  0  0  0
  145.7385  140.6801  156.2811 O   0  0  0  0  0  0  0  0  0  0  0  0
  146.7000  140.7901  157.3267 C   0  0  0  0  0  0  0  0  0  0  0  0
  147.9522  139.9740  156.9638 C   0  0  0  0  0  0  0  0  0  0  0  0
  153.2536  142.3342  163.4988 H   0  0  0  0  0  0  0  0  0  0  0  0
  151.7254  142.1648  162.6443 H   0  0  0  0  0  0  0  0  0  0  0  0
  152.7514  143.5652  162.3522 H   0  0  0  0  0  0  0  0  0  0  0  0
  154.4956  142.1267  161.3080 H   0  0  0  0  0  0  0  0  0  0  0  0
  153.6101  140.6837  161.7041 H   0  0  0  0  0  0  0  0  0  0  0  0
  153.6150  143.6703  159.5442 H   0  0  0  0  0  0  0  0  0  0  0  0
  152.3956  143.0441  158.4672 H   0  0  0  0  0  0  0  0  0  0  0  0
  151.5968  145.0389  159.7987 H   0  0  0  0  0  0  0  0  0  0  0  0
  151.8069  144.1242  161.2833 H   0  0  0  0  0  0  0  0  0  0  0  0
  150.5940  143.6307  160.1058 H   0  0  0  0  0  0  0  0  0  0  0  0
  150.2711  141.2142  157.6105 H   0  0  0  0  0  0  0  0  0  0  0  0
  151.1452  142.1812  156.4743 H   0  0  0  0  0  0  0  0  0  0  0  0
  153.0826  139.6109  155.8674 H   0  0  0  0  0  0  0  0  0  0  0  0
  152.8216  137.8328  154.1651 H   0  0  0  0  0  0  0  0  0  0  0  0
  150.5358  137.3513  153.2576 H   0  0  0  0  0  0  0  0  0  0  0  0
  147.9001  140.8148  153.7057 H   0  0  0  0  0  0  0  0  0  0  0  0
  147.1903  139.3624  154.3928 H   0  0  0  0  0  0  0  0  0  0  0  0
  146.4612  142.2499  155.1454 H   0  0  0  0  0  0  0  0  0  0  0  0
  145.4550  141.1026  154.2886 H   0  0  0  0  0  0  0  0  0  0  0  0
  146.9516  141.8375  157.4976 H   0  0  0  0  0  0  0  0  0  0  0  0
  146.2628  140.4143  158.2516 H   0  0  0  0  0  0  0  0  0  0  0  0
  147.7012  138.9133  156.9229 H   0  0  0  0  0  0  0  0  0  0  0  0
  148.7149  140.0969  157.7336 H   0  0  0  0  0  0  0  0  0  0  0  0
  1  2  1  0  0  0  0
  1 23  1  0  0  0  0
  1 24  1  0  0  0  0
  1 25  1  0  0  0  0
  2  3  1  0  0  0  0
  2 26  1  0  0  0  0
  2 27  1  0  0  0  0
  3  4  1  0  0  0  0
  3  6  1  0  0  0  0
  4  5  1  0  0  0  0
  4 28  1  0  0  0  0
  4 29  1  0  0  0  0
  5 30  1  0  0  0  0
  5 31  1  0  0  0  0
  5 32  1  0  0  0  0
  6  7  2  0  0  0  0
  6  8  2  0  0  0  0
  6  9  1  0  0  0  0
  9 10  1  0  0  0  0
 10 11  1  0  0  0  0
 10 33  1  0  0  0  0
 10 34  1  0  0  0  0
 11 16  1  0  0  0  0
 11 12  2  0  0  0  0
 12 13  1  0  0  0  0
 12 35  1  0  0  0  0
 13 14  2  0  0  0  0
 13 36  1  0  0  0  0
 14 15  1  0  0  0  0
 14 37  1  0  0  0  0
 15 16  2  0  0  0  0
 16 17  1  0  0  0  0
 17 22  1  0  0  0  0
 17 18  1  0  0  0  0
 18 19  1  0  0  0  0
 18 38  1  0  0  0  0
 18 39  1  0  0  0  0
 19 20  1  0  0  0  0
 19 40  1  0  0  0  0
 19 41  1  0  0  0  0
 20 21  1  0  0  0  0
 21 22  1  0  0  0  0
 21 42  1  0  0  0  0
 21 43  1  0  0  0  0
 22 44  1  0  0  0  0
 22 45  1  0  0  0  0
M  CHG  1   9  -1
M  END
> <s_m_source_file>
AV-unprocessed.smi

> <i_m_source_file_index>
2107

> <i_lp_mmshare_version>
43012

> <i_f3d_flags>
0

> <s_epik_input>
W0NIM11bQ0gyXU4oW0NIMl1bQ0gzXSlTKD1PKSg9TylbTkhdW0NIMl1jMVtjSF1bY0hdW2NIXW5jMU4yW0NIMl1bQ0gyXU9bQ0gyXVtDSDJdMg==

> <s_epik_cmdline>
J2VwaWtfcHl0aG9uJywgJy1waCcsICc3LjAnLCAnLXRuJywgJzgnLCAnLW1hJywgJzIwMCcsICctbWV0YWxfYmluZGluZycsICctaW1hZScsICc8aW5maWxlLm1hZT4nLCAnLW9tYWUnLCAnPG91dGZpbGUubWFlPic=

> <r_lp_tautomer_probability>
1

> <r_epik_Ionization_Penalty>
2.49252

> <r_epik_Ionization_Penalty_Charging>
2.41478

> <r_epik_Ionization_Penalty_Neutral>
0.0777344

> <r_epik_State_Penalty>
2.68884

> <r_epik_Charging_Adjusted_Penalty>
5.10362

> <i_epik_Tot_Q>
-1

> <i_epik_Tot_abs_Q>
1

> <r_epik_Metal_State_Penalty>
0.584574

> <b_epik_Metal_Only>
0

> <s_lp_Force_Field>
OPLS_2005

> <r_lp_Energy>
22.2252

> <b_lp_Chiralities_Consistent>
1

> <s_lp_Variant>
AV-unprocessed.smi:2107-3

> <Gold.Version>
5.8.1

> <Gold.Id.Protein>
6NUR|6NUR_protein|mol2

> <Gold.PLP.Fitness>
46.2188

> <Gold.PLP.PLP>
-43.3849

> <Gold.PLP.part.hbond>
-2.7682

> <Gold.PLP.part.metal>
0.0000

> <Gold.PLP.part.buried>
0.9010

> <Gold.PLP.part.nonpolar>
-42.2931

> <Gold.PLP.part.repulsive>
0.4476

> <Gold.PLP.ligand.clash>
0.0000

> <Gold.PLP.ligand.torsion>
2.8187

> <Gold.PLP.Chemscore.Hbond>
0.7114

> <Gold.PLP.Chemscore.CHOScore>
0.9724

> <Gold.PLP.Chemscore.Metal>
0.0000

> <Gold.Chemscore.Hbonds>
donor molecule, donor type, donor heavy atom, donor atom, acceptor molecule, acceptor atom, score
      L1  C    14    37       P1  7948  0.47
      L1  C    14    37       P1  7949  0.50

> <Gold.PLP.Chemscore.Internal.Correction>
3.4201

> <Gold.Rescore>
     Score         DG    S(hbond)    S(metal)    S(lipo)     H(rot)  DE(clash)    DE(int)     intcor
      8.26     -13.60       0.03        0.00     104.90       1.66       2.97       2.37       ----

> <Gold.Chemscore.Fitness>
8.2617

> <Gold.Chemscore.DG>
-13.6010

> <Gold.Chemscore.ZeroCoef>
-5.4800

> <Gold.Chemscore.Hbond>
0.0324

> <Gold.Chemscore.Metal>
0.0000

> <Gold.Chemscore.Lipo>
104.8995

> <Gold.Chemscore.Internal_Hbond>
0.0000

> <Gold.Chemscore.DEClash>
2.9718

> <Gold.Chemscore.DEInternal>
2.3675

> <Gold.Chemscore.Rot>
1.6642

> <Gold.Chemscore.Internal.Correction>
   9.000000E+99

> <Gold.Chemscore.Hbonds>
donor molecule, donor type, donor heavy atom, donor atom, acceptor molecule, acceptor atom, score
      P1  H  7997  8008       L1     9  0.01

> <Gold.Chemscore.Hbond.Weighted>
-0.1081

> <Gold.Chemscore.Metal.Weighted>
-0.0000

> <Gold.Chemscore.Lipo.Weighted>
-12.2732

> <Gold.Chemscore.Internal_Hbond.Weighted>
0.0000

> <Gold.Chemscore.DEClash.Weighted>
2.9718

> <Gold.Chemscore.DEInternal.Weighted>
2.3675

> <Gold.Chemscore.Rot.Weighted>
4.2604

> <Gold.Chemscore.Internal.Correction.Weighted>
   9.000000E+99

> <Gold.Protein.RotatedTorsions>
[ 6907 6896 6895 6894 ] final  117.58 input  -60.11 | X-H torsion
[ 7974 7965 7964 7962 ] final  -53.17 input  175.53 | X-H torsion
[ 8008 7997 7996 7995 ] final  -72.39 input   59.86 | X-H torsion
[ 10167 10162 10161 10158 ] final  -23.19 input  -65.29 | X-H torsion
[ 10718 10713 10712 10709 ] final  -71.08 input   66.30 | X-H torsion
[ 10763 10752 10751 10750 ] final -156.04 input  -60.55 | X-H torsion
[ 11005 11000 10999 10996 ] final  -11.11 input  -57.11 | X-H torsion

> <Gold.Protein.ActiveResidues>
 VAL166  LYS551  ARG553  GLY616  TRP617  ASP618  TYR619  PRO620  LYS621  CYS622 
 ASP623  PHE694  ASN695  SER759  ASP760  ASP761  ALA762  ILE779  LEU786  VAL792 
 PHE793  MET794  SER795  GLU796  ALA797  LYS798  CYS799  TRP800  GLU811  SER814 

> <Gold.Protein.RotatedAtoms>
  152.4602  133.7806  159.6848 H   0  0  0  0  0  0  0  0  0  0  0  0  # atno 6907 bound_to 6896
  150.8543  133.7730  159.3021 H   0  0  0  0  0  0  0  0  0  0  0  0  # atno 6908 bound_to 6896
  151.5315  135.1071  159.9956 H   0  0  0  0  0  0  0  0  0  0  0  0  # atno 6909 bound_to 6896
  145.8998  140.8003  142.9749 H   0  0  0  0  0  0  0  0  0  0  0  0  # atno 7974 bound_to 7965
  154.5163  140.0798  156.8087 H   0  0  0  0  0  0  0  0  0  0  0  0  # atno 8008 bound_to 7997
  155.3674  140.3421  155.4224 H   0  0  0  0  0  0  0  0  0  0  0  0  # atno 8009 bound_to 7997
  156.1631  140.1595  156.8565 H   0  0  0  0  0  0  0  0  0  0  0  0  # atno 8010 bound_to 7997
  140.7287  143.4465  151.0579 H   0  0  0  0  0  0  0  0  0  0  0  0  # atno 10167 bound_to 10162
  156.0379  130.4344  150.2390 H   0  0  0  0  0  0  0  0  0  0  0  0  # atno 10718 bound_to 10713
  154.7743  135.3154  154.8125 H   0  0  0  0  0  0  0  0  0  0  0  0  # atno 10763 bound_to 10752
  153.8853  135.6831  153.4768 H   0  0  0  0  0  0  0  0  0  0  0  0  # atno 10764 bound_to 10752
  153.1363  135.4758  154.9363 H   0  0  0  0  0  0  0  0  0  0  0  0  # atno 10765 bound_to 10752
  140.7518  133.8586  155.9051 H   0  0  0  0  0  0  0  0  0  0  0  0  # atno 11005 bound_to 11000
  144.6735  140.1659  143.7418 LP  0  0  0  0  0  0  0  0  0  0  0  0  # atno 17320 bound_to 7965
  145.8805  139.2320  143.1608 LP  0  0  0  0  0  0  0  0  0  0  0  0  # atno 17321 bound_to 7965
  139.8137  143.7915  152.3173 LP  0  0  0  0  0  0  0  0  0  0  0  0  # atno 17342 bound_to 10162
  139.7973  144.7387  150.9872 LP  0  0  0  0  0  0  0  0  0  0  0  0  # atno 17343 bound_to 10162
  157.0488  131.0056  151.3260 LP  0  0  0  0  0  0  0  0  0  0  0  0  # atno 17370 bound_to 10713
  157.5156  130.7966  149.7752 LP  0  0  0  0  0  0  0  0  0  0  0  0  # atno 17371 bound_to 10713
  140.9744  134.1489  157.4549 LP  0  0  0  0  0  0  0  0  0  0  0  0  # atno 17394 bound_to 11000
  139.8786  134.9989  156.5927 LP  0  0  0  0  0  0  0  0  0  0  0  0  # atno 17395 bound_to 11000

$$$$
