AV-unprocessed.smi:1047|AV-procd|sdf|4562|dock3
  -GOLD-   22720 3 03D 1   1.00000     0.00000
 Structure written by MMmdl.
 57 59  0  0  0  0  0  0  0  0  3 V2000
  146.9337  129.8050  152.7577 C   0  0  0  0  0  0  0  0  0  0  0  0
  148.3861  130.1428  153.1213 C   0  0  0  0  0  0  0  0  0  0  0  0
  148.5267  130.5876  154.5331 N   0  3  1  0  0  0  0  0  0  0  0  0
  149.8768  130.3848  155.1172 C   0  0  0  0  0  0  0  0  0  0  0  0
  150.8643  131.4680  154.6435 C   0  0  0  0  0  0  0  0  0  0  0  0
  150.3393  132.7580  154.9350 O   0  0  0  0  0  0  0  0  0  0  0  0
  149.1028  133.0113  154.2746 C   0  0  2  0  0  0  0  0  0  0  0  0
  148.6744  134.4482  154.6102 C   0  0  0  0  0  0  0  0  0  0  0  0
  149.7218  135.4249  154.2485 N   0  3  0  0  0  0  0  0  0  0  0  0
  150.0099  136.4145  155.3066 C   0  0  0  0  0  0  0  0  0  0  0  0
  150.8704  137.5728  154.7755 C   0  0  2  0  0  0  0  0  0  0  0  0
  151.7876  137.0584  153.8288 O   0  0  0  0  0  0  0  0  0  0  0  0
  151.6450  138.2754  155.9077 C   0  0  0  0  0  0  0  0  0  0  0  0
  151.3012  139.6808  156.0287 N   0  0  0  0  0  0  0  0  0  0  0  0
  150.4104  140.3677  155.2871 C   0  0  0  0  0  0  0  0  0  0  0  0
  150.2463  141.6560  155.5720 N   0  0  0  0  0  0  0  0  0  0  0  0
  151.1406  141.8276  156.6145 C   0  0  0  0  0  0  0  0  0  0  0  0
  151.4567  142.9768  157.3712 C   0  0  0  0  0  0  0  0  0  0  0  0
  152.4206  142.9223  158.4031 C   0  0  0  0  0  0  0  0  0  0  0  0
  152.7313  144.1835  159.1901 C   0  0  0  0  0  0  0  0  0  0  0  0
  153.0854  141.7033  158.6911 C   0  0  0  0  0  0  0  0  0  0  0  0
  154.1309  141.6244  159.7894 C   0  0  0  0  0  0  0  0  0  0  0  0
  152.7780  140.5442  157.9479 C   0  0  0  0  0  0  0  0  0  0  0  0
  151.8179  140.6116  156.9231 C   0  0  0  0  0  0  0  0  0  0  0  0
  148.0656  131.9786  154.7675 C   0  0  0  0  0  0  0  0  0  0  0  0
  146.8492  129.5722  151.6959 H   0  0  0  0  0  0  0  0  0  0  0  0
  146.2703  130.6454  152.9638 H   0  0  0  0  0  0  0  0  0  0  0  0
  146.5632  128.9403  153.3072 H   0  0  0  0  0  0  0  0  0  0  0  0
  149.0380  129.2947  152.9118 H   0  0  0  0  0  0  0  0  0  0  0  0
  148.7108  130.9479  152.4609 H   0  0  0  0  0  0  0  0  0  0  0  0
  149.7860  130.4366  156.2030 H   0  0  0  0  0  0  0  0  0  0  0  0
  150.2605  129.3898  154.8943 H   0  0  0  0  0  0  0  0  0  0  0  0
  151.8170  131.3537  155.1609 H   0  0  0  0  0  0  0  0  0  0  0  0
  151.0752  131.3789  153.5774 H   0  0  0  0  0  0  0  0  0  0  0  0
  149.2345  132.9209  153.1947 H   0  0  0  0  0  0  0  0  0  0  0  0
  147.7639  134.7018  154.0658 H   0  0  0  0  0  0  0  0  0  0  0  0
  148.4457  134.5311  155.6738 H   0  0  0  0  0  0  0  0  0  0  0  0
  150.5769  134.9216  154.0560 H   0  0  0  0  0  0  0  0  0  0  0  0
  149.0629  136.8019  155.6852 H   0  0  0  0  0  0  0  0  0  0  0  0
  150.5114  135.9232  156.1422 H   0  0  0  0  0  0  0  0  0  0  0  0
  150.2320  138.3015  154.2737 H   0  0  0  0  0  0  0  0  0  0  0  0
  151.4006  137.1266  152.9684 H   0  0  0  0  0  0  0  0  0  0  0  0
  151.4392  137.7918  156.8635 H   0  0  0  0  0  0  0  0  0  0  0  0
  152.7208  138.1933  155.7435 H   0  0  0  0  0  0  0  0  0  0  0  0
  149.8467  139.8935  154.4969 H   0  0  0  0  0  0  0  0  0  0  0  0
  150.9520  143.9056  157.1494 H   0  0  0  0  0  0  0  0  0  0  0  0
  153.7702  144.4795  159.0419 H   0  0  0  0  0  0  0  0  0  0  0  0
  152.5646  144.0224  160.2552 H   0  0  0  0  0  0  0  0  0  0  0  0
  152.0985  145.0141  158.8767 H   0  0  0  0  0  0  0  0  0  0  0  0
  154.5625  140.6254  159.8575 H   0  0  0  0  0  0  0  0  0  0  0  0
  153.6890  141.8654  160.7564 H   0  0  0  0  0  0  0  0  0  0  0  0
  154.9427  142.3259  159.5947 H   0  0  0  0  0  0  0  0  0  0  0  0
  153.2766  139.6093  158.1574 H   0  0  0  0  0  0  0  0  0  0  0  0
  147.0960  132.1425  154.2956 H   0  0  0  0  0  0  0  0  0  0  0  0
  147.9066  132.1064  155.8392 H   0  0  0  0  0  0  0  0  0  0  0  0
  149.4414  135.9161  153.4116 H   0  0  0  0  0  0  0  0  0  0  0  0
  147.8954  129.9971  155.0563 H   0  0  0  0  0  0  0  0  0  0  0  0
  1  2  1  0  0  0  0
  1 26  1  0  0  0  0
  1 27  1  0  0  0  0
  1 28  1  0  0  0  0
  2  3  1  0  0  0  0
  2 29  1  0  0  0  0
  2 30  1  0  0  0  0
  3 25  1  0  0  0  0
  3  4  1  0  0  0  0
  3 57  1  0  0  0  0
  4  5  1  0  0  0  0
  4 31  1  0  0  0  0
  4 32  1  0  0  0  0
  5  6  1  0  0  0  0
  5 33  1  0  0  0  0
  5 34  1  0  0  0  0
  6  7  1  0  0  0  0
  7  8  1  0  0  0  0
  7 25  1  0  0  0  0
  7 35  1  0  0  0  0
  8  9  1  0  0  0  0
  8 36  1  0  0  0  0
  8 37  1  0  0  0  0
  9 10  1  0  0  0  0
  9 38  1  0  0  0  0
  9 56  1  0  0  0  0
 10 11  1  0  0  0  0
 10 39  1  0  0  0  0
 10 40  1  0  0  0  0
 11 12  1  0  0  0  0
 11 13  1  0  0  0  0
 11 41  1  0  0  0  0
 12 42  1  0  0  0  0
 13 14  1  0  0  0  0
 13 43  1  0  0  0  0
 13 44  1  0  0  0  0
 14 24  1  0  0  0  0
 14 15  1  0  0  0  0
 15 16  2  0  0  0  0
 15 45  1  0  0  0  0
 16 17  1  0  0  0  0
 17 24  2  0  0  0  0
 17 18  1  0  0  0  0
 18 19  2  0  0  0  0
 18 46  1  0  0  0  0
 19 20  1  0  0  0  0
 19 21  1  0  0  0  0
 20 47  1  0  0  0  0
 20 48  1  0  0  0  0
 20 49  1  0  0  0  0
 21 22  1  0  0  0  0
 21 23  2  0  0  0  0
 22 50  1  0  0  0  0
 22 51  1  0  0  0  0
 22 52  1  0  0  0  0
 23 24  1  0  0  0  0
 23 53  1  0  0  0  0
 25 54  1  0  0  0  0
 25 55  1  0  0  0  0
M  CHG  1   3   1
M  CHG  1   9   1
M  END
> <s_m_source_file>
AV-unprocessed.smi

> <i_m_source_file_index>
1047

> <i_lp_mmshare_version>
43012

> <i_f3d_flags>
0

> <s_epik_input>
W0NIM11bQ0gyXU4xW0NIMl1bQ0gyXU9bQ0BIXShbQ0gyXTEpW0NIMl1bTkhdW0NIMl1bQ0BIXShbT0hdKVtDSDJdbihbY0hdbjIpYyhjMjMpW2NIXWMoW0NIM10pYyhbY0hdMylbQ0gzXQ==

> <s_epik_cmdline>
J2VwaWtfcHl0aG9uJywgJy1waCcsICc3LjAnLCAnLXRuJywgJzgnLCAnLW1hJywgJzIwMCcsICctbWV0YWxfYmluZGluZycsICctaW1hZScsICc8aW5maWxlLm1hZT4nLCAnLW9tYWUnLCAnPG91dGZpbGUubWFlPic=

> <r_epik_Ionization_Penalty>
0.528991

> <r_epik_Ionization_Penalty_Charging>
0.438567

> <r_epik_Ionization_Penalty_Neutral>
0.0904237

> <r_epik_State_Penalty>
0.533036

> <r_epik_Charging_Adjusted_Penalty>
0.971603

> <i_epik_Tot_Q>
2

> <i_epik_Tot_abs_Q>
2

> <r_epik_Metal_State_Penalty>
0.448985

> <b_epik_Metal_Only>
0

> <s_lp_Force_Field>
OPLS_2005

> <r_lp_Energy>
30.7538

> <b_lp_Chiralities_Consistent>
1

> <s_lp_Variant>
AV-unprocessed.smi:1047-3

> <Gold.Version>
5.8.1

> <Gold.Id.Protein>
6NUR|6NUR_protein|mol2

> <Gold.PLP.Fitness>
54.4985

> <Gold.PLP.PLP>
-45.2067

> <Gold.PLP.part.hbond>
-3.6661

> <Gold.PLP.part.metal>
0.0000

> <Gold.PLP.part.buried>
-3.9723

> <Gold.PLP.part.nonpolar>
-37.3418

> <Gold.PLP.part.repulsive>
0.1543

> <Gold.PLP.ligand.clash>
0.0000

> <Gold.PLP.ligand.torsion>
1.5827

> <Gold.PLP.Chemscore.Hbond>
3.9920

> <Gold.PLP.Chemscore.CHOScore>
0.0000

> <Gold.PLP.Chemscore.Metal>
0.0000

> <Gold.Chemscore.Hbonds>
donor molecule, donor type, donor heavy atom, donor atom, acceptor molecule, acceptor atom, score
      L1  H     9    56       P1  7948  2.00
      L1  H    12    42       P1  7949  0.72
      P1  H 10752 10764       L1    12  1.00

> <Gold.PLP.Chemscore.Internal.Correction>
0.4813

> <Gold.Rescore>
     Score         DG    S(hbond)    S(metal)    S(lipo)     H(rot)  DE(clash)    DE(int)     intcor
     18.09     -19.75       2.16        0.00     119.42       2.70       0.01       1.65       ----

> <Gold.Chemscore.Fitness>
18.0889

> <Gold.Chemscore.DG>
-19.7482

> <Gold.Chemscore.ZeroCoef>
-5.4800

> <Gold.Chemscore.Hbond>
2.1569

> <Gold.Chemscore.Metal>
0.0000

> <Gold.Chemscore.Lipo>
119.4207

> <Gold.Chemscore.Internal_Hbond>
0.0000

> <Gold.Chemscore.DEClash>
0.0133

> <Gold.Chemscore.DEInternal>
1.6460

> <Gold.Chemscore.Rot>
2.6985

> <Gold.Chemscore.Internal.Correction>
   9.000000E+99

> <Gold.Chemscore.Hbonds>
donor molecule, donor type, donor heavy atom, donor atom, acceptor molecule, acceptor atom, score
      L1  H     9    56       P1  7948  0.39
      L1  H    12    42       P1  7949  0.59
      P1  H 10752 10764       L1    12  0.95

> <Gold.Chemscore.Hbond.Weighted>
-7.2041

> <Gold.Chemscore.Metal.Weighted>
-0.0000

> <Gold.Chemscore.Lipo.Weighted>
-13.9722

> <Gold.Chemscore.Internal_Hbond.Weighted>
0.0000

> <Gold.Chemscore.DEClash.Weighted>
0.0133

> <Gold.Chemscore.DEInternal.Weighted>
1.6460

> <Gold.Chemscore.Rot.Weighted>
6.9081

> <Gold.Chemscore.Internal.Correction.Weighted>
   9.000000E+99

> <Gold.Protein.RotatedTorsions>
[ 6907 6896 6895 6894 ] final   82.53 input  -60.11 | X-H torsion
[ 7974 7965 7964 7962 ] final  -61.30 input  175.53 | X-H torsion
[ 8008 7997 7996 7995 ] final  142.28 input   59.86 | X-H torsion
[ 10167 10162 10161 10158 ] final   -0.71 input  -65.29 | X-H torsion
[ 10718 10713 10712 10709 ] final -179.02 input   66.30 | X-H torsion
[ 10763 10752 10751 10750 ] final  -76.77 input  -60.55 | X-H torsion
[ 11005 11000 10999 10996 ] final   20.31 input  -57.11 | X-H torsion

> <Gold.Protein.ActiveResidues>
 VAL166  LYS551  ARG553  GLY616  TRP617  ASP618  TYR619  PRO620  LYS621  CYS622 
 ASP623  PHE694  ASN695  SER759  ASP760  ASP761  ALA762  ILE779  LEU786  VAL792 
 PHE793  MET794  SER795  GLU796  ALA797  LYS798  CYS799  TRP800  GLU811  SER814 

> <Gold.Protein.RotatedAtoms>
  152.5302  134.3035  159.9086 H   0  0  0  0  0  0  0  0  0  0  0  0  # atno 6907 bound_to 6896
  151.2985  133.4126  159.2645 H   0  0  0  0  0  0  0  0  0  0  0  0  # atno 6908 bound_to 6896
  151.0139  134.9434  159.8079 H   0  0  0  0  0  0  0  0  0  0  0  0  # atno 6909 bound_to 6896
  145.8052  140.8632  143.0211 H   0  0  0  0  0  0  0  0  0  0  0  0  # atno 7974 bound_to 7965
  156.2952  140.2293  156.4701 H   0  0  0  0  0  0  0  0  0  0  0  0  # atno 8008 bound_to 7997
  154.7942  140.0452  157.1245 H   0  0  0  0  0  0  0  0  0  0  0  0  # atno 8009 bound_to 7997
  154.9609  140.3054  155.5035 H   0  0  0  0  0  0  0  0  0  0  0  0  # atno 8010 bound_to 7997
  140.6779  143.6862  150.8064 H   0  0  0  0  0  0  0  0  0  0  0  0  # atno 10167 bound_to 10162
  156.8529  130.9725  151.3090 H   0  0  0  0  0  0  0  0  0  0  0  0  # atno 10718 bound_to 10713
  154.5042  135.5786  153.6554 H   0  0  0  0  0  0  0  0  0  0  0  0  # atno 10763 bound_to 10752
  152.9884  135.6143  154.2963 H   0  0  0  0  0  0  0  0  0  0  0  0  # atno 10764 bound_to 10752
  154.2873  135.2849  155.2650 H   0  0  0  0  0  0  0  0  0  0  0  0  # atno 10765 bound_to 10752
  140.4041  134.1687  155.7665 H   0  0  0  0  0  0  0  0  0  0  0  0  # atno 11005 bound_to 11000
  144.6764  140.0316  143.7482 LP  0  0  0  0  0  0  0  0  0  0  0  0  # atno 17320 bound_to 7965
  145.9836  139.2960  143.1027 LP  0  0  0  0  0  0  0  0  0  0  0  0  # atno 17321 bound_to 7965
  140.0558  143.5204  152.2652 LP  0  0  0  0  0  0  0  0  0  0  0  0  # atno 17342 bound_to 10162
  139.6082  144.7602  151.3012 LP  0  0  0  0  0  0  0  0  0  0  0  0  # atno 17343 bound_to 10162
  157.6293  130.8717  149.9246 LP  0  0  0  0  0  0  0  0  0  0  0  0  # atno 17370 bound_to 10713
  156.0818  130.3672  150.0564 LP  0  0  0  0  0  0  0  0  0  0  0  0  # atno 17371 bound_to 10713
  141.1846  133.8341  157.1135 LP  0  0  0  0  0  0  0  0  0  0  0  0  # atno 17394 bound_to 11000
  140.0315  134.9899  157.0789 LP  0  0  0  0  0  0  0  0  0  0  0  0  # atno 17395 bound_to 11000

$$$$
