AV-unprocessed.smi:753|AV-procd|sdf|3601|dock1
  -GOLD-   22720 0593D 1   1.00000     0.00000
 Structure written by MMmdl.
 43 45  0  0  0  0  0  0  0  0  1 V2000
  148.6494  141.4917  154.3235 C   0  0  0  0  0  0  0  0  0  0  0  0
  149.1276  140.0712  154.5397 C   0  0  0  0  0  0  0  0  0  0  0  0
  148.2062  139.0233  154.7472 C   0  0  0  0  0  0  0  0  0  0  0  0
  148.7049  137.7217  154.9455 C   0  0  0  0  0  0  0  0  0  0  0  0
  150.1002  137.5181  154.9290 C   0  0  0  0  0  0  0  0  0  0  0  0
  150.6932  136.1398  155.1633 C   0  0  0  0  0  0  0  0  0  0  0  0
  149.6358  135.0274  155.2937 C   0  0  0  0  0  0  0  0  0  0  0  0
  148.9149  134.8001  154.0439 N   0  0  0  0  0  0  0  0  0  0  0  0
  148.0031  133.8357  153.8299 C   0  0  0  0  0  0  0  0  0  0  0  0
  147.6728  133.0101  154.6790 O   0  0  0  0  0  0  0  0  0  0  0  0
  147.4585  133.8435  152.6010 N   0  0  0  0  0  0  0  0  0  0  0  0
  146.4458  132.9328  152.0608 C   0  0  2  0  0  0  0  0  0  0  0  0
  146.3225  133.0845  150.5283 C   0  0  0  0  0  0  0  0  0  0  0  0
  144.8412  133.4559  150.3317 C   0  0  2  0  0  0  0  0  0  0  0  0
  144.5973  134.8931  150.8311 C   0  0  0  0  0  0  0  0  0  0  0  0
  144.6599  134.7371  152.3622 C   0  0  0  0  0  0  0  0  0  0  0  0
  145.0009  133.2411  152.5346 C   0  0  1  0  0  0  0  0  0  0  0  0
  144.1685  132.6246  151.4154 C   0  0  0  0  0  0  0  0  0  0  0  0
  150.9349  138.6340  154.7086 C   0  0  0  0  0  0  0  0  0  0  0  0
  150.4659  139.8855  154.5162 N   0  0  0  0  0  0  0  0  0  0  0  0
  147.6172  141.6124  154.6535 H   0  0  0  0  0  0  0  0  0  0  0  0
  148.7039  141.7508  153.2661 H   0  0  0  0  0  0  0  0  0  0  0  0
  149.2662  142.1961  154.8828 H   0  0  0  0  0  0  0  0  0  0  0  0
  147.1424  139.2097  154.7578 H   0  0  0  0  0  0  0  0  0  0  0  0
  148.0271  136.8982  155.1158 H   0  0  0  0  0  0  0  0  0  0  0  0
  151.3771  135.9013  154.3475 H   0  0  0  0  0  0  0  0  0  0  0  0
  151.3018  136.1727  156.0676 H   0  0  0  0  0  0  0  0  0  0  0  0
  150.1225  134.0941  155.5774 H   0  0  0  0  0  0  0  0  0  0  0  0
  148.9409  135.2629  156.1016 H   0  0  0  0  0  0  0  0  0  0  0  0
  149.1173  135.4318  153.2829 H   0  0  0  0  0  0  0  0  0  0  0  0
  147.7705  134.5726  151.9759 H   0  0  0  0  0  0  0  0  0  0  0  0
  146.7103  131.8996  152.2953 H   0  0  0  0  0  0  0  0  0  0  0  0
  146.9905  133.8398  150.1113 H   0  0  0  0  0  0  0  0  0  0  0  0
  146.5499  132.1386  150.0347 H   0  0  0  0  0  0  0  0  0  0  0  0
  144.4775  133.2769  149.3196 H   0  0  0  0  0  0  0  0  0  0  0  0
  145.3452  135.5917  150.4541 H   0  0  0  0  0  0  0  0  0  0  0  0
  143.6155  135.2545  150.5226 H   0  0  0  0  0  0  0  0  0  0  0  0
  145.3834  135.4082  152.8250 H   0  0  0  0  0  0  0  0  0  0  0  0
  143.6873  134.9579  152.8041 H   0  0  0  0  0  0  0  0  0  0  0  0
  144.7756  132.8575  153.5301 H   0  0  0  0  0  0  0  0  0  0  0  0
  143.0989  132.8205  151.5107 H   0  0  0  0  0  0  0  0  0  0  0  0
  144.3265  131.5510  151.2989 H   0  0  0  0  0  0  0  0  0  0  0  0
  152.0091  138.5212  154.6947 H   0  0  0  0  0  0  0  0  0  0  0  0
  1  2  1  0  0  0  0
  1 21  1  0  0  0  0
  1 22  1  0  0  0  0
  1 23  1  0  0  0  0
  2 20  1  0  0  0  0
  2  3  2  0  0  0  0
  3  4  1  0  0  0  0
  3 24  1  0  0  0  0
  4  5  2  0  0  0  0
  4 25  1  0  0  0  0
  5  6  1  0  0  0  0
  5 19  1  0  0  0  0
  6  7  1  0  0  0  0
  6 26  1  0  0  0  0
  6 27  1  0  0  0  0
  7  8  1  0  0  0  0
  7 28  1  0  0  0  0
  7 29  1  0  0  0  0
  8  9  1  0  0  0  0
  8 30  1  0  0  0  0
  9 10  2  0  0  0  0
  9 11  1  0  0  0  0
 11 12  1  0  0  0  0
 11 31  1  0  0  0  0
 12 17  1  0  0  0  0
 12 13  1  0  0  0  0
 12 32  1  0  0  0  0
 13 14  1  0  0  0  0
 13 33  1  0  0  0  0
 13 34  1  0  0  0  0
 14 18  1  0  0  0  0
 14 15  1  0  0  0  0
 14 35  1  0  0  0  0
 15 16  1  0  0  0  0
 15 36  1  0  0  0  0
 15 37  1  0  0  0  0
 16 17  1  0  0  0  0
 16 38  1  0  0  0  0
 16 39  1  0  0  0  0
 17 18  1  0  0  0  0
 17 40  1  0  0  0  0
 18 41  1  0  0  0  0
 18 42  1  0  0  0  0
 19 20  2  0  0  0  0
 19 43  1  0  0  0  0
M  END
> <s_m_source_file>
AV-unprocessed.smi

> <i_m_source_file_index>
753

> <i_lp_mmshare_version>
43012

> <i_f3d_flags>
0

> <s_epik_input>
W0NIM11jMVtjSF1bY0hdYyhbY0hdbjEpW0NIMl1bQ0gyXVtOSF1DKD1PKVtOSF1bQ0BIXShbQ0gyXVtDQEBIXTIzKVtDQEBIXShbQ0gyXTMpW0NIMl1bQ0gyXTI=

> <s_epik_cmdline>
J2VwaWtfcHl0aG9uJywgJy1waCcsICc3LjAnLCAnLXRuJywgJzgnLCAnLW1hJywgJzIwMCcsICctbWV0YWxfYmluZGluZycsICctaW1hZScsICc8aW5maWxlLm1hZT4nLCAnLW9tYWUnLCAnPG91dGZpbGUubWFlPic=

> <r_epik_Ionization_Penalty>
0.0569047

> <r_epik_Ionization_Penalty_Charging>
0

> <r_epik_Ionization_Penalty_Neutral>
0.0569047

> <r_epik_State_Penalty>
0.0490541

> <r_epik_Charging_Adjusted_Penalty>
0.0490541

> <i_epik_Tot_Q>
0

> <i_epik_Tot_abs_Q>
0

> <r_epik_Metal_State_Penalty>
0.0447357

> <b_epik_Metal_Only>
0

> <s_lp_Force_Field>
OPLS_2005

> <r_lp_Energy>
52.9013

> <b_lp_Chiralities_Consistent>
1

> <s_lp_Variant>
AV-unprocessed.smi:753-3

> <Gold.Version>
5.8.1

> <Gold.Id.Protein>
6NUR|6NUR_protein|mol2

> <Gold.PLP.Fitness>
43.0816

> <Gold.PLP.PLP>
-34.9272

> <Gold.PLP.part.hbond>
-3.0000

> <Gold.PLP.part.metal>
0.0000

> <Gold.PLP.part.buried>
-3.0491

> <Gold.PLP.part.nonpolar>
-28.3428

> <Gold.PLP.part.repulsive>
0.1506

> <Gold.PLP.ligand.clash>
0.0000

> <Gold.PLP.ligand.torsion>
0.2336

> <Gold.PLP.Chemscore.Hbond>
2.8640

> <Gold.PLP.Chemscore.CHOScore>
0.0000

> <Gold.PLP.Chemscore.Metal>
0.0000

> <Gold.Chemscore.Hbonds>
donor molecule, donor type, donor heavy atom, donor atom, acceptor molecule, acceptor atom, score
      L1  H     8    30       P1  7948  1.00
      L1  H    11    31       P1  7948  0.88
      P1  H  7989  7998       L1    20  1.00

> <Gold.PLP.Chemscore.Internal.Correction>
0.0296

> <Gold.Rescore>
     Score         DG    S(hbond)    S(metal)    S(lipo)     H(rot)  DE(clash)    DE(int)     intcor
     18.97     -19.28       2.41        0.00      80.40       1.43       0.00       0.31       ----

> <Gold.Chemscore.Fitness>
18.9696

> <Gold.Chemscore.DG>
-19.2754

> <Gold.Chemscore.ZeroCoef>
-5.4800

> <Gold.Chemscore.Hbond>
2.4092

> <Gold.Chemscore.Metal>
0.0000

> <Gold.Chemscore.Lipo>
80.4032

> <Gold.Chemscore.Internal_Hbond>
0.0000

> <Gold.Chemscore.DEClash>
0.0004

> <Gold.Chemscore.DEInternal>
0.3054

> <Gold.Chemscore.Rot>
1.4291

> <Gold.Chemscore.Internal.Correction>
   9.000000E+99

> <Gold.Chemscore.Hbonds>
donor molecule, donor type, donor heavy atom, donor atom, acceptor molecule, acceptor atom, score
      L1  H     8    30       P1  7948  0.39
      L1  H    11    31       P1  7948  0.29
      P1  H  7989  7998       L1    20  0.78

> <Gold.Chemscore.Hbond.Weighted>
-8.0467

> <Gold.Chemscore.Metal.Weighted>
-0.0000

> <Gold.Chemscore.Lipo.Weighted>
-9.4072

> <Gold.Chemscore.Internal_Hbond.Weighted>
0.0000

> <Gold.Chemscore.DEClash.Weighted>
0.0004

> <Gold.Chemscore.DEInternal.Weighted>
0.3054

> <Gold.Chemscore.Rot.Weighted>
3.6585

> <Gold.Chemscore.Internal.Correction.Weighted>
   9.000000E+99

> <Gold.Protein.RotatedTorsions>
[ 6907 6896 6895 6894 ] final -174.92 input  -60.11 | X-H torsion
[ 7974 7965 7964 7962 ] final   29.15 input  175.53 | X-H torsion
[ 8008 7997 7996 7995 ] final   -0.50 input   59.86 | X-H torsion
[ 10167 10162 10161 10158 ] final  -84.53 input  -65.29 | X-H torsion
[ 10718 10713 10712 10709 ] final -109.12 input   66.30 | X-H torsion
[ 10763 10752 10751 10750 ] final   34.72 input  -60.55 | X-H torsion
[ 11005 11000 10999 10996 ] final   31.26 input  -57.11 | X-H torsion

> <Gold.Protein.ActiveResidues>
 VAL166  LYS551  ARG553  GLY616  TRP617  ASP618  TYR619  PRO620  LYS621  CYS622 
 ASP623  PHE694  ASN695  SER759  ASP760  ASP761  ALA762  ILE779  LEU786  VAL792 
 PHE793  MET794  SER795  GLU796  ALA797  LYS798  CYS799  TRP800  GLU811  SER814 

> <Gold.Protein.RotatedAtoms>
  151.5802  133.3378  159.3006 H   0  0  0  0  0  0  0  0  0  0  0  0  # atno 6907 bound_to 6896
  150.8317  134.7577  159.6871 H   0  0  0  0  0  0  0  0  0  0  0  0  # atno 6908 bound_to 6896
  152.4400  134.5616  159.9947 H   0  0  0  0  0  0  0  0  0  0  0  0  # atno 6909 bound_to 6896
  146.1688  139.6960  142.8982 H   0  0  0  0  0  0  0  0  0  0  0  0  # atno 7974 bound_to 7965
  154.6574  140.2583  155.7146 H   0  0  0  0  0  0  0  0  0  0  0  0  # atno 8008 bound_to 7997
  156.2603  140.2855  156.0954 H   0  0  0  0  0  0  0  0  0  0  0  0  # atno 8009 bound_to 7997
  155.1359  140.0379  157.2777 H   0  0  0  0  0  0  0  0  0  0  0  0  # atno 8010 bound_to 7997
  140.4123  143.2617  151.9000 H   0  0  0  0  0  0  0  0  0  0  0  0  # atno 10167 bound_to 10162
  156.0520  130.5747  150.8055 H   0  0  0  0  0  0  0  0  0  0  0  0  # atno 10718 bound_to 10713
  153.0151  135.6353  154.1713 H   0  0  0  0  0  0  0  0  0  0  0  0  # atno 10763 bound_to 10752
  154.1453  135.2832  155.3151 H   0  0  0  0  0  0  0  0  0  0  0  0  # atno 10764 bound_to 10752
  154.6094  135.5561  153.7518 H   0  0  0  0  0  0  0  0  0  0  0  0  # atno 10765 bound_to 10752
  140.2858  134.2921  155.7788 H   0  0  0  0  0  0  0  0  0  0  0  0  # atno 11005 bound_to 11000
  145.4396  141.0421  143.2865 LP  0  0  0  0  0  0  0  0  0  0  0  0  # atno 17320 bound_to 7965
  144.8132  139.5924  143.7020 LP  0  0  0  0  0  0  0  0  0  0  0  0  # atno 17321 bound_to 7965
  139.4782  144.5523  151.8366 LP  0  0  0  0  0  0  0  0  0  0  0  0  # atno 17342 bound_to 10162
  140.4624  144.1703  150.5908 LP  0  0  0  0  0  0  0  0  0  0  0  0  # atno 17343 bound_to 10162
  157.5456  131.0942  150.9767 LP  0  0  0  0  0  0  0  0  0  0  0  0  # atno 17370 bound_to 10713
  157.0040  130.5611  149.5314 LP  0  0  0  0  0  0  0  0  0  0  0  0  # atno 17371 bound_to 10713
  141.2155  133.7554  156.9549 LP  0  0  0  0  0  0  0  0  0  0  0  0  # atno 17394 bound_to 11000
  140.1241  134.9398  157.2245 LP  0  0  0  0  0  0  0  0  0  0  0  0  # atno 17395 bound_to 11000

$$$$
