AV-unprocessed.smi:2834|AV-procd|sdf|10916|dock6
  -GOLD-   2272015363D 1   1.00000     0.00000
 Structure written by MMmdl.
 35 36  0  0  0  0  0  0  0  0  1 V2000
  146.6932  139.8888  156.4514 C   0  0  0  0  0  0  0  0  0  0  0  0
  146.7585  140.5333  155.0509 C   0  0  1  0  0  0  0  0  0  0  0  0
  145.9506  139.7684  154.0911 N   0  0  0  0  0  0  0  0  0  0  0  0
  146.0859  138.4787  153.7418 C   0  0  0  0  0  0  0  0  0  0  0  0
  146.9483  137.7280  154.1979 O   0  0  0  0  0  0  0  0  0  0  0  0
  145.1589  138.1242  152.8370 N   0  0  0  0  0  0  0  0  0  0  0  0
  144.9796  136.8500  152.2418 C   0  0  0  0  0  0  0  0  0  0  0  0
  143.7312  136.3216  151.8223 C   0  0  0  0  0  0  0  0  0  0  0  0
  143.8736  135.1117  151.3030 N   0  0  0  0  0  0  0  0  0  0  0  0
  145.2020  134.8496  151.3797 N   0  0  0  0  0  0  0  0  0  0  0  0
  145.7148  133.5855  150.8835 C   0  0  0  0  0  0  0  0  0  0  0  0
  144.5951  132.6449  150.4083 C   0  0  0  0  0  0  0  0  0  0  0  0
  144.1229  133.0824  149.2416 F   0  0  0  0  0  0  0  0  0  0  0  0
  145.0595  131.4061  150.2424 F   0  0  0  0  0  0  0  0  0  0  0  0
  143.5965  132.6254  151.2918 F   0  0  0  0  0  0  0  0  0  0  0  0
  145.9078  135.8910  151.9491 C   0  0  0  0  0  0  0  0  0  0  0  0
  146.3977  142.0165  155.0566 C   0  0  0  0  0  0  0  0  0  0  0  0
  147.1157  142.5468  153.8207 C   0  0  0  0  0  0  0  0  0  0  0  0
  148.2967  141.7634  153.7049 O   0  0  0  0  0  0  0  0  0  0  0  0
  148.2007  140.6016  154.5254 C   0  0  0  0  0  0  0  0  0  0  0  0
  147.3501  140.4010  157.1549 H   0  0  0  0  0  0  0  0  0  0  0  0
  147.0019  138.8434  156.4183 H   0  0  0  0  0  0  0  0  0  0  0  0
  145.6877  139.9253  156.8704 H   0  0  0  0  0  0  0  0  0  0  0  0
  145.2024  140.2826  153.6495 H   0  0  0  0  0  0  0  0  0  0  0  0
  144.5106  138.8408  152.5451 H   0  0  0  0  0  0  0  0  0  0  0  0
  142.7476  136.7648  151.8763 H   0  0  0  0  0  0  0  0  0  0  0  0
  146.4041  133.7936  150.0640 H   0  0  0  0  0  0  0  0  0  0  0  0
  146.3008  133.1094  151.6712 H   0  0  0  0  0  0  0  0  0  0  0  0
  146.9783  135.8504  152.0857 H   0  0  0  0  0  0  0  0  0  0  0  0
  145.3283  142.2261  155.0451 H   0  0  0  0  0  0  0  0  0  0  0  0
  146.8122  142.4968  155.9442 H   0  0  0  0  0  0  0  0  0  0  0  0
  146.5047  142.3924  152.9305 H   0  0  0  0  0  0  0  0  0  0  0  0
  147.3457  143.6099  153.8936 H   0  0  0  0  0  0  0  0  0  0  0  0
  148.9062  140.7276  155.3477 H   0  0  0  0  0  0  0  0  0  0  0  0
  148.4998  139.7061  153.9791 H   0  0  0  0  0  0  0  0  0  0  0  0
  1  2  1  0  0  0  0
  1 21  1  0  0  0  0
  1 22  1  0  0  0  0
  1 23  1  0  0  0  0
  2 20  1  0  0  0  0
  2  3  1  0  0  0  0
  2 17  1  0  0  0  0
  3  4  1  0  0  0  0
  3 24  1  0  0  0  0
  4  5  2  0  0  0  0
  4  6  1  0  0  0  0
  6  7  1  0  0  0  0
  6 25  1  0  0  0  0
  7 16  2  0  0  0  0
  7  8  1  0  0  0  0
  8  9  2  0  0  0  0
  8 26  1  0  0  0  0
  9 10  1  0  0  0  0
 10 11  1  0  0  0  0
 10 16  1  0  0  0  0
 11 12  1  0  0  0  0
 11 27  1  0  0  0  0
 11 28  1  0  0  0  0
 12 13  1  0  0  0  0
 12 14  1  0  0  0  0
 12 15  1  0  0  0  0
 16 29  1  0  0  0  0
 17 18  1  0  0  0  0
 17 30  1  0  0  0  0
 17 31  1  0  0  0  0
 18 19  1  0  0  0  0
 18 32  1  0  0  0  0
 18 33  1  0  0  0  0
 19 20  1  0  0  0  0
 20 34  1  0  0  0  0
 20 35  1  0  0  0  0
M  END
> <s_m_source_file>
AV-unprocessed.smi

> <i_m_source_file_index>
2834

> <i_lp_mmshare_version>
43012

> <i_f3d_flags>
0

> <s_epik_input>
W0NIMl0xT1tDSDJdW0NIMl1bQ0BAXTEoW0NIM10pW05IXUMoPU8pW05IXWMyW2NIXW5uKFtjSF0yKVtDSDJdQyhGKShGKUY=

> <s_epik_cmdline>
J2VwaWtfcHl0aG9uJywgJy1waCcsICc3LjAnLCAnLXRuJywgJzgnLCAnLW1hJywgJzIwMCcsICctbWV0YWxfYmluZGluZycsICctaW1hZScsICc8aW5maWxlLm1hZT4nLCAnLW9tYWUnLCAnPG91dGZpbGUubWFlPic=

> <r_lp_tautomer_probability>
1

> <r_epik_Ionization_Penalty>
3.3002e-05

> <r_epik_Ionization_Penalty_Charging>
0

> <r_epik_Ionization_Penalty_Neutral>
3.3002e-05

> <r_epik_State_Penalty>
-0

> <r_epik_Charging_Adjusted_Penalty>
0

> <i_epik_Tot_Q>
0

> <i_epik_Tot_abs_Q>
0

> <r_epik_Metal_State_Penalty>
-0

> <b_epik_Metal_Only>
0

> <s_lp_Force_Field>
OPLS_2005

> <r_lp_Energy>
24.6434

> <b_lp_Chiralities_Consistent>
1

> <s_lp_Variant>
AV-unprocessed.smi:2834-1

> <Gold.Version>
5.8.1

> <Gold.Id.Protein>
6NUR|6NUR_protein|mol2

> <Gold.PLP.Fitness>
39.4548

> <Gold.PLP.PLP>
-29.9018

> <Gold.PLP.part.hbond>
-3.0000

> <Gold.PLP.part.metal>
0.0000

> <Gold.PLP.part.buried>
-2.2583

> <Gold.PLP.part.nonpolar>
-24.1302

> <Gold.PLP.part.repulsive>
0.4776

> <Gold.PLP.ligand.clash>
0.0000

> <Gold.PLP.ligand.torsion>
0.3983

> <Gold.PLP.Chemscore.Hbond>
2.4368

> <Gold.PLP.Chemscore.CHOScore>
0.9935

> <Gold.PLP.Chemscore.Metal>
0.0000

> <Gold.Chemscore.Hbonds>
donor molecule, donor type, donor heavy atom, donor atom, acceptor molecule, acceptor atom, score
      L1  H     3    24       P1 10175  1.00
      L1  H     6    25       P1 10175  1.00
      P1  H  8011  8017       L1    19  0.42
      L1  C    16    29       P1  7948  0.92

> <Gold.PLP.Chemscore.Internal.Correction>
0.0588

> <Gold.Rescore>
     Score         DG    S(hbond)    S(metal)    S(lipo)     H(rot)  DE(clash)    DE(int)     intcor
     12.05     -15.85       2.33        0.00      51.51       1.34       0.37       3.43       ----

> <Gold.Chemscore.Fitness>
12.0486

> <Gold.Chemscore.DG>
-15.8461

> <Gold.Chemscore.ZeroCoef>
-5.4800

> <Gold.Chemscore.Hbond>
2.3275

> <Gold.Chemscore.Metal>
0.0000

> <Gold.Chemscore.Lipo>
51.5119

> <Gold.Chemscore.Internal_Hbond>
0.0000

> <Gold.Chemscore.DEClash>
0.3652

> <Gold.Chemscore.DEInternal>
3.4323

> <Gold.Chemscore.Rot>
1.3417

> <Gold.Chemscore.Internal.Correction>
   9.000000E+99

> <Gold.Chemscore.Hbonds>
donor molecule, donor type, donor heavy atom, donor atom, acceptor molecule, acceptor atom, score
      L1  H     3    24       P1 10175  0.98
      L1  H     6    25       P1 10175  1.00
      P1  H  8011  8017       L1    19  0.39

> <Gold.Chemscore.Hbond.Weighted>
-7.7739

> <Gold.Chemscore.Metal.Weighted>
-0.0000

> <Gold.Chemscore.Lipo.Weighted>
-6.0269

> <Gold.Chemscore.Internal_Hbond.Weighted>
0.0000

> <Gold.Chemscore.DEClash.Weighted>
0.3652

> <Gold.Chemscore.DEInternal.Weighted>
3.4323

> <Gold.Chemscore.Rot.Weighted>
3.4347

> <Gold.Chemscore.Internal.Correction.Weighted>
   9.000000E+99

> <Gold.Protein.RotatedTorsions>
[ 6907 6896 6895 6894 ] final -143.84 input  -60.11 | X-H torsion
[ 7974 7965 7964 7962 ] final  177.18 input  175.53 | X-H torsion
[ 8008 7997 7996 7995 ] final   62.83 input   59.86 | X-H torsion
[ 10167 10162 10161 10158 ] final -173.48 input  -65.29 | X-H torsion
[ 10718 10713 10712 10709 ] final -140.10 input   66.30 | X-H torsion
[ 10763 10752 10751 10750 ] final  133.22 input  -60.55 | X-H torsion
[ 11005 11000 10999 10996 ] final -161.52 input  -57.11 | X-H torsion

> <Gold.Protein.ActiveResidues>
 VAL166  LYS551  ARG553  GLY616  TRP617  ASP618  TYR619  PRO620  LYS621  CYS622 
 ASP623  PHE694  ASN695  SER759  ASP760  ASP761  ALA762  ILE779  LEU786  VAL792 
 PHE793  MET794  SER795  GLU796  ALA797  LYS798  CYS799  TRP800  GLU811  SER814 

> <Gold.Protein.RotatedAtoms>
  151.1059  133.5209  159.2607 H   0  0  0  0  0  0  0  0  0  0  0  0  # atno 6907 bound_to 6896
  151.2021  135.0446  159.8886 H   0  0  0  0  0  0  0  0  0  0  0  0  # atno 6908 bound_to 6896
  152.5446  134.0886  159.8320 H   0  0  0  0  0  0  0  0  0  0  0  0  # atno 6909 bound_to 6896
  144.7173  140.0208  143.6440 H   0  0  0  0  0  0  0  0  0  0  0  0  # atno 7974 bound_to 7965
  155.6206  140.3495  155.4651 H   0  0  0  0  0  0  0  0  0  0  0  0  # atno 8008 bound_to 7997
  156.0082  140.1227  157.0504 H   0  0  0  0  0  0  0  0  0  0  0  0  # atno 8009 bound_to 7997
  154.4271  140.1087  156.5778 H   0  0  0  0  0  0  0  0  0  0  0  0  # atno 8010 bound_to 7997
  139.5686  144.1696  152.1350 H   0  0  0  0  0  0  0  0  0  0  0  0  # atno 10167 bound_to 10162
  156.3184  130.7520  151.1613 H   0  0  0  0  0  0  0  0  0  0  0  0  # atno 10718 bound_to 10713
  153.8035  135.3138  155.3393 H   0  0  0  0  0  0  0  0  0  0  0  0  # atno 10763 bound_to 10752
  154.8079  135.4686  154.0444 H   0  0  0  0  0  0  0  0  0  0  0  0  # atno 10764 bound_to 10752
  153.1799  135.6892  153.8580 H   0  0  0  0  0  0  0  0  0  0  0  0  # atno 10765 bound_to 10752
  140.6195  134.4765  157.5222 H   0  0  0  0  0  0  0  0  0  0  0  0  # atno 11005 bound_to 11000
  146.0182  139.3228  143.0829 LP  0  0  0  0  0  0  0  0  0  0  0  0  # atno 17320 bound_to 7965
  145.8600  140.9481  143.0705 LP  0  0  0  0  0  0  0  0  0  0  0  0  # atno 17321 bound_to 7965
  140.1224  144.5362  150.6854 LP  0  0  0  0  0  0  0  0  0  0  0  0  # atno 17342 bound_to 10162
  140.6970  143.2410  151.4972 LP  0  0  0  0  0  0  0  0  0  0  0  0  # atno 17343 bound_to 10162
  157.7406  131.0514  150.5151 LP  0  0  0  0  0  0  0  0  0  0  0  0  # atno 17370 bound_to 10713
  156.5300  130.4182  149.6206 LP  0  0  0  0  0  0  0  0  0  0  0  0  # atno 17371 bound_to 10713
  139.9159  134.8247  156.1368 LP  0  0  0  0  0  0  0  0  0  0  0  0  # atno 17394 bound_to 11000
  141.0752  133.6778  156.2222 LP  0  0  0  0  0  0  0  0  0  0  0  0  # atno 17395 bound_to 11000

$$$$
