AV-unprocessed.smi:3311|AV-procd|sdf|12719|dock10
  -GOLD-   2272019 63D 1   1.00000     0.00000
 Structure written by MMmdl.
 44 45  0  0  0  0  0  0  0  0  2 V2000
  144.9133  134.8434  154.1688 C   0  0  0  0  0  0  0  0  0  0  0  0
  146.0137  135.0797  153.1211 C   0  0  2  0  0  0  0  0  0  0  0  0
  146.7947  136.2746  153.5151 N   0  3  0  0  0  0  0  0  0  0  0  0
  146.1508  137.5720  153.2164 C   0  0  0  0  0  0  0  0  0  0  0  0
  147.1647  138.7366  153.2070 C   0  0  0  0  0  0  0  0  0  0  0  0
  147.8228  138.7067  151.9522 O   0  0  0  0  0  0  0  0  0  0  0  0
  146.4699  140.1081  153.3965 C   0  0  0  0  0  0  0  0  0  0  0  0
  147.4676  141.2731  153.5249 C   0  0  0  0  0  0  0  0  0  0  0  0
  148.4829  141.0196  154.6476 C   0  0  0  0  0  0  0  0  0  0  0  0
  149.2192  139.6903  154.4312 C   0  0  0  0  0  0  0  0  0  0  0  0
  148.2300  138.5171  154.3074 C   0  0  0  0  0  0  0  0  0  0  0  0
  145.4555  135.2573  151.6833 C   0  0  2  0  0  0  0  0  0  0  0  0
  144.1131  136.0119  151.6385 C   0  0  0  0  0  0  0  0  0  0  0  0
  145.3238  133.9731  151.0038 N   0  0  0  0  0  0  0  0  0  0  0  0
  144.1783  133.3803  150.5133 C   0  0  0  0  0  0  0  0  0  0  0  0
  144.5428  132.1928  149.9466 C   0  0  0  0  0  0  0  0  0  0  0  0
  145.9504  132.1411  150.1445 C   0  0  0  0  0  0  0  0  0  0  0  0
  146.4145  133.2064  150.7768 N   0  0  0  0  0  0  0  0  0  0  0  0
  144.3834  133.9077  153.9921 H   0  0  0  0  0  0  0  0  0  0  0  0
  144.1798  135.6504  154.1669 H   0  0  0  0  0  0  0  0  0  0  0  0
  145.3370  134.7814  155.1719 H   0  0  0  0  0  0  0  0  0  0  0  0
  146.6671  134.2053  153.1333 H   0  0  0  0  0  0  0  0  0  0  0  0
  146.9483  136.2347  154.5127 H   0  0  0  0  0  0  0  0  0  0  0  0
  145.6477  137.5021  152.2509 H   0  0  0  0  0  0  0  0  0  0  0  0
  145.3776  137.7637  153.9619 H   0  0  0  0  0  0  0  0  0  0  0  0
  148.2910  137.8884  151.8793 H   0  0  0  0  0  0  0  0  0  0  0  0
  145.7866  140.3117  152.5715 H   0  0  0  0  0  0  0  0  0  0  0  0
  145.8549  140.0761  154.2969 H   0  0  0  0  0  0  0  0  0  0  0  0
  147.9938  141.4152  152.5802 H   0  0  0  0  0  0  0  0  0  0  0  0
  146.9285  142.2012  153.7173 H   0  0  0  0  0  0  0  0  0  0  0  0
  149.2004  141.8395  154.6932 H   0  0  0  0  0  0  0  0  0  0  0  0
  147.9700  141.0032  155.6102 H   0  0  0  0  0  0  0  0  0  0  0  0
  149.8348  139.7539  153.5332 H   0  0  0  0  0  0  0  0  0  0  0  0
  149.9052  139.5092  155.2592 H   0  0  0  0  0  0  0  0  0  0  0  0
  147.7319  138.3817  155.2685 H   0  0  0  0  0  0  0  0  0  0  0  0
  148.7803  137.5933  154.1228 H   0  0  0  0  0  0  0  0  0  0  0  0
  146.1758  135.8443  151.1108 H   0  0  0  0  0  0  0  0  0  0  0  0
  144.2166  137.0404  151.9831 H   0  0  0  0  0  0  0  0  0  0  0  0
  143.3593  135.5259  152.2586 H   0  0  0  0  0  0  0  0  0  0  0  0
  143.7250  136.0562  150.6203 H   0  0  0  0  0  0  0  0  0  0  0  0
  143.2088  133.8479  150.6039 H   0  0  0  0  0  0  0  0  0  0  0  0
  143.9013  131.4698  149.4651 H   0  0  0  0  0  0  0  0  0  0  0  0
  146.6438  131.3674  149.8495 H   0  0  0  0  0  0  0  0  0  0  0  0
  147.6922  136.2447  153.0534 H   0  0  0  0  0  0  0  0  0  0  0  0
  1  2  1  0  0  0  0
  1 19  1  0  0  0  0
  1 20  1  0  0  0  0
  1 21  1  0  0  0  0
  2  3  1  0  0  0  0
  2 12  1  0  0  0  0
  2 22  1  0  0  0  0
  3  4  1  0  0  0  0
  3 23  1  0  0  0  0
  3 44  1  0  0  0  0
  4  5  1  0  0  0  0
  4 24  1  0  0  0  0
  4 25  1  0  0  0  0
  5 11  1  0  0  0  0
  5  6  1  0  0  0  0
  5  7  1  0  0  0  0
  6 26  1  0  0  0  0
  7  8  1  0  0  0  0
  7 27  1  0  0  0  0
  7 28  1  0  0  0  0
  8  9  1  0  0  0  0
  8 29  1  0  0  0  0
  8 30  1  0  0  0  0
  9 10  1  0  0  0  0
  9 31  1  0  0  0  0
  9 32  1  0  0  0  0
 10 11  1  0  0  0  0
 10 33  1  0  0  0  0
 10 34  1  0  0  0  0
 11 35  1  0  0  0  0
 11 36  1  0  0  0  0
 12 13  1  0  0  0  0
 12 14  1  0  0  0  0
 12 37  1  0  0  0  0
 13 38  1  0  0  0  0
 13 39  1  0  0  0  0
 13 40  1  0  0  0  0
 14 18  1  0  0  0  0
 14 15  1  0  0  0  0
 15 16  2  0  0  0  0
 15 41  1  0  0  0  0
 16 17  1  0  0  0  0
 16 42  1  0  0  0  0
 17 18  2  0  0  0  0
 17 43  1  0  0  0  0
M  CHG  1   3   1
M  END
> <s_m_source_file>
AV-unprocessed.smi

> <i_m_source_file_index>
3311

> <i_lp_mmshare_version>
43012

> <i_f3d_flags>
0

> <s_epik_input>
bjFbY0hdW2NIXVtjSF1uMVtDQEBIXShbQ0gzXSlbQ0BIXShbQ0gzXSlbTkhdW0NIMl1DMihbT0hdKVtDSDJdW0NIMl1bQ0gyXVtDSDJdW0NIMl0y

> <s_epik_cmdline>
J2VwaWtfcHl0aG9uJywgJy1waCcsICc3LjAnLCAnLXRuJywgJzgnLCAnLW1hJywgJzIwMCcsICctbWV0YWxfYmluZGluZycsICctaW1hZScsICc8aW5maWxlLm1hZT4nLCAnLW9tYWUnLCAnPG91dGZpbGUubWFlPic=

> <r_lp_tautomer_probability>
1

> <r_epik_Ionization_Penalty>
0.0141403

> <r_epik_Ionization_Penalty_Charging>
0.0141276

> <r_epik_Ionization_Penalty_Neutral>
1.27139e-05

> <r_epik_State_Penalty>
0.0110334

> <r_epik_Charging_Adjusted_Penalty>
0.025161

> <i_epik_Tot_Q>
1

> <i_epik_Tot_abs_Q>
1

> <r_epik_Metal_State_Penalty>
0.0110573

> <b_epik_Metal_Only>
0

> <s_lp_Force_Field>
OPLS_2005

> <r_lp_Energy>
21.8269

> <b_lp_Chiralities_Consistent>
1

> <s_lp_Variant>
AV-unprocessed.smi:3311-1

> <Gold.Version>
5.8.1

> <Gold.Id.Protein>
6NUR|6NUR_protein|mol2

> <Gold.PLP.Fitness>
44.5751

> <Gold.PLP.PLP>
-31.9396

> <Gold.PLP.part.hbond>
-3.2534

> <Gold.PLP.part.metal>
0.0000

> <Gold.PLP.part.buried>
-2.3695

> <Gold.PLP.part.nonpolar>
-26.7252

> <Gold.PLP.part.repulsive>
0.2078

> <Gold.PLP.ligand.clash>
0.0000

> <Gold.PLP.ligand.torsion>
1.2158

> <Gold.PLP.Chemscore.Hbond>
3.0000

> <Gold.PLP.Chemscore.CHOScore>
2.0000

> <Gold.PLP.Chemscore.Metal>
0.0000

> <Gold.Chemscore.Hbonds>
donor molecule, donor type, donor heavy atom, donor atom, acceptor molecule, acceptor atom, score
      L1  H     3    44       P1  7948  2.00
      L1  H     6    26       P1  7948  1.00
      L1  C    15    41       P1 10186  1.00
      L1  C    17    43       P1 10747  1.00

> <Gold.PLP.Chemscore.Internal.Correction>
0.0671

> <Gold.Rescore>
     Score         DG    S(hbond)    S(metal)    S(lipo)     H(rot)  DE(clash)    DE(int)     intcor
     13.45     -17.26       2.00        0.00      90.49       2.14       1.68       2.13       ----

> <Gold.Chemscore.Fitness>
13.4457

> <Gold.Chemscore.DG>
-17.2563

> <Gold.Chemscore.ZeroCoef>
-5.4800

> <Gold.Chemscore.Hbond>
1.9980

> <Gold.Chemscore.Metal>
0.0000

> <Gold.Chemscore.Lipo>
90.4932

> <Gold.Chemscore.Internal_Hbond>
0.0000

> <Gold.Chemscore.DEClash>
1.6771

> <Gold.Chemscore.DEInternal>
2.1335

> <Gold.Chemscore.Rot>
2.1424

> <Gold.Chemscore.Internal.Correction>
   9.000000E+99

> <Gold.Chemscore.Hbonds>
donor molecule, donor type, donor heavy atom, donor atom, acceptor molecule, acceptor atom, score
      L1  H     3    44       P1  7948  1.00
      L1  H     6    26       P1  7948  1.00

> <Gold.Chemscore.Hbond.Weighted>
-6.6733

> <Gold.Chemscore.Metal.Weighted>
-0.0000

> <Gold.Chemscore.Lipo.Weighted>
-10.5877

> <Gold.Chemscore.Internal_Hbond.Weighted>
0.0000

> <Gold.Chemscore.DEClash.Weighted>
1.6771

> <Gold.Chemscore.DEInternal.Weighted>
2.1335

> <Gold.Chemscore.Rot.Weighted>
5.4846

> <Gold.Chemscore.Internal.Correction.Weighted>
   9.000000E+99

> <Gold.Protein.RotatedTorsions>
[ 6907 6896 6895 6894 ] final -115.42 input  -60.11 | X-H torsion
[ 7974 7965 7964 7962 ] final   26.66 input  175.53 | X-H torsion
[ 8008 7997 7996 7995 ] final   -0.06 input   59.86 | X-H torsion
[ 10167 10162 10161 10158 ] final   15.59 input  -65.29 | X-H torsion
[ 10718 10713 10712 10709 ] final  -15.37 input   66.30 | X-H torsion
[ 10763 10752 10751 10750 ] final   34.04 input  -60.55 | X-H torsion
[ 11005 11000 10999 10996 ] final  120.08 input  -57.11 | X-H torsion

> <Gold.Protein.ActiveResidues>
 VAL166  LYS551  ARG553  GLY616  TRP617  ASP618  TYR619  PRO620  LYS621  CYS622 
 ASP623  PHE694  ASN695  SER759  ASP760  ASP761  ALA762  ILE779  LEU786  VAL792 
 PHE793  MET794  SER795  GLU796  ALA797  LYS798  CYS799  TRP800  GLU811  SER814 

> <Gold.Protein.RotatedAtoms>
  150.7977  133.8661  159.3245 H   0  0  0  0  0  0  0  0  0  0  0  0  # atno 6907 bound_to 6896
  151.6481  135.1003  160.0164 H   0  0  0  0  0  0  0  0  0  0  0  0  # atno 6908 bound_to 6896
  152.4060  133.6851  159.6392 H   0  0  0  0  0  0  0  0  0  0  0  0  # atno 6909 bound_to 6896
  146.1825  139.7297  142.8890 H   0  0  0  0  0  0  0  0  0  0  0  0  # atno 7974 bound_to 7965
  154.6624  140.2593  155.7094 H   0  0  0  0  0  0  0  0  0  0  0  0  # atno 8008 bound_to 7997
  156.2624  140.2846  156.1023 H   0  0  0  0  0  0  0  0  0  0  0  0  # atno 8009 bound_to 7997
  155.1289  140.0378  157.2759 H   0  0  0  0  0  0  0  0  0  0  0  0  # atno 8010 bound_to 7997
  140.5856  143.8895  150.6828 H   0  0  0  0  0  0  0  0  0  0  0  0  # atno 10167 bound_to 10162
  156.6027  130.4828  149.6233 H   0  0  0  0  0  0  0  0  0  0  0  0  # atno 10718 bound_to 10713
  153.0183  135.6371  154.1607 H   0  0  0  0  0  0  0  0  0  0  0  0  # atno 10763 bound_to 10752
  154.1344  135.2838  155.3178 H   0  0  0  0  0  0  0  0  0  0  0  0  # atno 10764 bound_to 10752
  154.6171  135.5537  153.7596 H   0  0  0  0  0  0  0  0  0  0  0  0  # atno 10765 bound_to 10752
  139.9171  134.9632  156.7752 H   0  0  0  0  0  0  0  0  0  0  0  0  # atno 11005 bound_to 11000
  145.4033  141.0388  143.3058 LP  0  0  0  0  0  0  0  0  0  0  0  0  # atno 17320 bound_to 7965
  144.8340  139.5581  143.6930 LP  0  0  0  0  0  0  0  0  0  0  0  0  # atno 17321 bound_to 7965
  140.2406  143.3667  152.1490 LP  0  0  0  0  0  0  0  0  0  0  0  0  # atno 17342 bound_to 10162
  139.5196  144.7021  151.5462 LP  0  0  0  0  0  0  0  0  0  0  0  0  # atno 17343 bound_to 10162
  156.2455  130.6876  151.1596 LP  0  0  0  0  0  0  0  0  0  0  0  0  # atno 17370 bound_to 10713
  157.7275  131.0638  150.5861 LP  0  0  0  0  0  0  0  0  0  0  0  0  # atno 17371 bound_to 10713
  140.6589  133.9663  155.7794 LP  0  0  0  0  0  0  0  0  0  0  0  0  # atno 17394 bound_to 11000
  141.0657  134.0280  157.3597 LP  0  0  0  0  0  0  0  0  0  0  0  0  # atno 17395 bound_to 11000

$$$$
