AV-unprocessed.smi:290|AV-procd|sdf|2243|dock1
  -GOLD-   2262022123D 1   1.00000     0.00000
 Structure written by MMmdl.
 59 62  0  0  0  0  0  0  0  0  2 V2000
  152.7866  144.3250  158.2858 C   0  0  0  0  0  0  0  0  0  0  0  0
  151.3386  144.0644  157.8421 C   0  0  2  0  0  0  0  0  0  0  0  0
  150.4807  144.4428  158.9152 O   0  0  0  0  0  0  0  0  0  0  0  0
  149.3103  143.6470  158.8647 C   0  0  0  0  0  0  0  0  0  0  0  0
  149.8667  142.2751  158.5166 C   0  0  0  0  0  0  0  0  0  0  0  0
  150.9616  142.5943  157.5012 C   0  0  1  0  0  0  0  0  0  0  0  0
  150.3677  142.5877  156.2135 O   0  0  0  0  0  0  0  0  0  0  0  0
  152.1241  141.5667  157.5029 C   0  0  0  0  0  0  0  0  0  0  0  0
  151.6732  140.1851  157.4389 N   0  0  0  0  0  0  0  0  0  0  0  0
  151.7464  139.2449  158.4414 C   0  0  0  0  0  0  0  0  0  0  0  0
  151.2647  138.0706  158.1386 N   0  0  0  0  0  0  0  0  0  0  0  0
  150.8277  138.2085  156.8257 C   0  0  0  0  0  0  0  0  0  0  0  0
  150.2035  137.3335  155.8897 C   0  0  0  0  0  0  0  0  0  0  0  0
  149.8716  136.0487  156.1894 N   0  0  0  0  0  0  0  0  0  0  0  0
  148.9890  135.8439  157.3376 C   0  0  0  0  0  0  0  0  0  0  0  0
  147.9466  134.8047  156.9055 C   0  0  0  0  0  0  0  0  0  0  0  0
  148.0319  134.8337  155.3732 C   0  0  2  0  0  0  0  0  0  0  0  0
  147.4749  133.6398  154.6747 N   0  3  2  0  0  0  0  0  0  0  0  0
  147.8822  133.5569  153.2497 C   0  0  0  0  0  0  0  0  0  0  0  0
  146.0126  133.4167  154.8694 C   0  0  0  0  0  0  0  0  0  0  0  0
  145.0864  134.4371  154.1701 C   0  0  0  0  0  0  0  0  0  0  0  0
  143.7334  134.2393  154.5189 O   0  0  0  0  0  0  0  0  0  0  0  0
  149.5381  135.0713  155.1536 C   0  0  2  0  0  0  0  0  0  0  0  0
  150.4182  133.8149  155.3255 C   0  0  0  0  0  0  0  0  0  0  0  0
  149.9377  137.8363  154.6546 N   0  0  0  0  0  0  0  0  0  0  0  0
  150.2446  139.1016  154.3547 C   0  0  0  0  0  0  0  0  0  0  0  0
  150.8142  140.0267  155.1280 N   0  0  0  0  0  0  0  0  0  0  0  0
  151.0914  139.5306  156.3674 C   0  0  0  0  0  0  0  0  0  0  0  0
  147.4997  135.7180  155.0174 H   0  0  0  0  0  0  0  0  0  0  0  0
  149.7009  135.4494  154.1452 H   0  0  0  0  0  0  0  0  0  0  0  0
  153.4971  144.0688  157.4999 H   0  0  0  0  0  0  0  0  0  0  0  0
  153.0416  143.7535  159.1785 H   0  0  0  0  0  0  0  0  0  0  0  0
  152.9312  145.3793  158.5229 H   0  0  0  0  0  0  0  0  0  0  0  0
  151.1153  144.7193  156.9977 H   0  0  0  0  0  0  0  0  0  0  0  0
  148.7730  143.6581  159.8131 H   0  0  0  0  0  0  0  0  0  0  0  0
  148.6444  144.0143  158.0820 H   0  0  0  0  0  0  0  0  0  0  0  0
  150.3039  141.8376  159.4152 H   0  0  0  0  0  0  0  0  0  0  0  0
  149.1074  141.5842  158.1469 H   0  0  0  0  0  0  0  0  0  0  0  0
  149.9191  143.4096  156.0845 H   0  0  0  0  0  0  0  0  0  0  0  0
  152.7932  141.7455  156.6602 H   0  0  0  0  0  0  0  0  0  0  0  0
  152.7275  141.6739  158.4048 H   0  0  0  0  0  0  0  0  0  0  0  0
  152.1666  139.4594  159.4131 H   0  0  0  0  0  0  0  0  0  0  0  0
  149.5541  135.5058  158.2066 H   0  0  0  0  0  0  0  0  0  0  0  0
  148.4844  136.7734  157.6060 H   0  0  0  0  0  0  0  0  0  0  0  0
  148.2222  133.8214  157.2884 H   0  0  0  0  0  0  0  0  0  0  0  0
  146.9543  135.0421  157.2883 H   0  0  0  0  0  0  0  0  0  0  0  0
  147.5919  134.4517  152.6983 H   0  0  0  0  0  0  0  0  0  0  0  0
  147.4285  132.6924  152.7641 H   0  0  0  0  0  0  0  0  0  0  0  0
  148.9617  133.4478  153.1519 H   0  0  0  0  0  0  0  0  0  0  0  0
  145.7894  132.4276  154.4675 H   0  0  0  0  0  0  0  0  0  0  0  0
  145.7705  133.3471  155.9300 H   0  0  0  0  0  0  0  0  0  0  0  0
  145.3749  135.4688  154.3669 H   0  0  0  0  0  0  0  0  0  0  0  0
  145.1593  134.3009  153.0910 H   0  0  0  0  0  0  0  0  0  0  0  0
  143.5036  133.3388  154.3449 H   0  0  0  0  0  0  0  0  0  0  0  0
  150.1860  133.0501  154.5851 H   0  0  0  0  0  0  0  0  0  0  0  0
  150.3085  133.3636  156.3116 H   0  0  0  0  0  0  0  0  0  0  0  0
  151.4715  134.0687  155.2025 H   0  0  0  0  0  0  0  0  0  0  0  0
  149.9956  139.4189  153.3527 H   0  0  0  0  0  0  0  0  0  0  0  0
  147.9133  132.8484  155.1237 H   0  0  0  0  0  0  0  0  0  0  0  0
  1  2  1  0  0  0  0
  1 31  1  0  0  0  0
  1 32  1  0  0  0  0
  1 33  1  0  0  0  0
  2  6  1  0  0  0  0
  2  3  1  0  0  0  0
  2 34  1  0  0  0  0
  3  4  1  0  0  0  0
  4  5  1  0  0  0  0
  4 35  1  0  0  0  0
  4 36  1  0  0  0  0
  5  6  1  0  0  0  0
  5 37  1  0  0  0  0
  5 38  1  0  0  0  0
  6  7  1  0  0  0  0
  6  8  1  0  0  0  0
  7 39  1  0  0  0  0
  8  9  1  0  0  0  0
  8 40  1  0  0  0  0
  8 41  1  0  0  0  0
  9 28  1  0  0  0  0
  9 10  1  0  0  0  0
 10 11  2  0  0  0  0
 10 42  1  0  0  0  0
 11 12  1  0  0  0  0
 12 28  2  0  0  0  0
 12 13  1  0  0  0  0
 13 14  1  0  0  0  0
 13 25  2  0  0  0  0
 14 23  1  0  0  0  0
 14 15  1  0  0  0  0
 15 16  1  0  0  0  0
 15 43  1  0  0  0  0
 15 44  1  0  0  0  0
 16 17  1  0  0  0  0
 16 45  1  0  0  0  0
 16 46  1  0  0  0  0
 17 29  1  0  0  0  0
 17 18  1  0  0  0  0
 17 23  1  0  0  0  0
 18 19  1  0  0  0  0
 18 20  1  0  0  0  0
 18 59  1  0  0  0  0
 19 47  1  0  0  0  0
 19 48  1  0  0  0  0
 19 49  1  0  0  0  0
 20 21  1  0  0  0  0
 20 50  1  0  0  0  0
 20 51  1  0  0  0  0
 21 22  1  0  0  0  0
 21 52  1  0  0  0  0
 21 53  1  0  0  0  0
 22 54  1  0  0  0  0
 23 30  1  0  0  0  0
 23 24  1  0  0  0  0
 24 55  1  0  0  0  0
 24 56  1  0  0  0  0
 24 57  1  0  0  0  0
 25 26  1  0  0  0  0
 26 27  2  0  0  0  0
 26 58  1  0  0  0  0
 27 28  1  0  0  0  0
M  CHG  1  18   1
M  END
> <s_m_source_file>
AV-unprocessed.smi

> <i_m_source_file_index>
290

> <i_lp_mmshare_version>
43012

> <i_f3d_flags>
0

> <s_epik_input>
W0NIMl0xW0NIMl1PW0NAQEhdKFtDSDNdKVtDQEBdMShbT0hdKVtDSDJdbihbY0hdbjIpYyhjMjMpbltjSF1uYzNONFtDSDJdW0NIMl1bQ0BIXShbQ0BIXTRbQ0gzXSlOKFtDSDNdKVtDSDJdW0NIMl1bT0hd

> <s_epik_cmdline>
J2VwaWtfcHl0aG9uJywgJy1waCcsICc3LjAnLCAnLXRuJywgJzgnLCAnLW1hJywgJzIwMCcsICctbWV0YWxfYmluZGluZycsICctaW1hZScsICc8aW5maWxlLm1hZT4nLCAnLW9tYWUnLCAnPG91dGZpbGUubWFlPic=

> <r_lp_tautomer_probability>
1

> <r_epik_Ionization_Penalty>
0.0036983

> <r_epik_Ionization_Penalty_Charging>
0.0032725

> <r_epik_Ionization_Penalty_Neutral>
0.000425798

> <r_epik_State_Penalty>
-0

> <r_epik_Charging_Adjusted_Penalty>
0.0032725

> <i_epik_Tot_Q>
1

> <i_epik_Tot_abs_Q>
1

> <r_epik_Metal_State_Penalty>
-0

> <b_epik_Metal_Only>
0

> <s_lp_Force_Field>
OPLS_2005

> <r_lp_Energy>
63.2975

> <b_lp_Chiralities_Consistent>
1

> <s_lp_Variant>
AV-unprocessed.smi:290-29

> <Gold.Version>
5.8.1

> <Gold.Id.Protein>
6NUR|6NUR_protein|mol2

> <Gold.PLP.Fitness>
42.0460

> <Gold.PLP.PLP>
-31.7740

> <Gold.PLP.part.hbond>
-3.0000

> <Gold.PLP.part.metal>
0.0000

> <Gold.PLP.part.buried>
-5.6232

> <Gold.PLP.part.nonpolar>
-24.1271

> <Gold.PLP.part.repulsive>
0.4334

> <Gold.PLP.ligand.clash>
0.0000

> <Gold.PLP.ligand.torsion>
0.5079

> <Gold.PLP.Chemscore.Hbond>
2.5000

> <Gold.PLP.Chemscore.CHOScore>
1.0000

> <Gold.PLP.Chemscore.Metal>
0.0000

> <Gold.Chemscore.Hbonds>
donor molecule, donor type, donor heavy atom, donor atom, acceptor molecule, acceptor atom, score
      L1  H     7    39       P1  8028  1.00
      L1  H    22    54       P1 10957  1.00
      P1  H  7989  7998       L1    27  0.50
      L1  C    26    58       P1  7957  1.00

> <Gold.PLP.Chemscore.Internal.Correction>
0.7877

> <Gold.Rescore>
     Score         DG    S(hbond)    S(metal)    S(lipo)     H(rot)  DE(clash)    DE(int)     intcor
      9.89     -11.86       2.00        0.00      77.60       3.67       0.13       1.84       ----

> <Gold.Chemscore.Fitness>
9.8851

> <Gold.Chemscore.DG>
-11.8572

> <Gold.Chemscore.ZeroCoef>
-5.4800

> <Gold.Chemscore.Hbond>
2.0006

> <Gold.Chemscore.Metal>
0.0000

> <Gold.Chemscore.Lipo>
77.6048

> <Gold.Chemscore.Internal_Hbond>
0.0000

> <Gold.Chemscore.DEClash>
0.1335

> <Gold.Chemscore.DEInternal>
1.8386

> <Gold.Chemscore.Rot>
3.6658

> <Gold.Chemscore.Internal.Correction>
   9.000000E+99

> <Gold.Chemscore.Hbonds>
donor molecule, donor type, donor heavy atom, donor atom, acceptor molecule, acceptor atom, score
      L1  H     7    39       P1  8028  1.00
      L1  H    22    54       P1 10957  0.96
      P1  H  7989  7998       L1    27  0.02

> <Gold.Chemscore.Hbond.Weighted>
-6.6819

> <Gold.Chemscore.Metal.Weighted>
-0.0000

> <Gold.Chemscore.Lipo.Weighted>
-9.0798

> <Gold.Chemscore.Internal_Hbond.Weighted>
0.0000

> <Gold.Chemscore.DEClash.Weighted>
0.1335

> <Gold.Chemscore.DEInternal.Weighted>
1.8386

> <Gold.Chemscore.Rot.Weighted>
9.3844

> <Gold.Chemscore.Internal.Correction.Weighted>
   9.000000E+99

> <Gold.Protein.RotatedTorsions>
[ 6907 6896 6895 6894 ] final   46.39 input  -60.11 | X-H torsion
[ 7974 7965 7964 7962 ] final  -58.88 input  175.53 | X-H torsion
[ 8008 7997 7996 7995 ] final   25.15 input   59.86 | X-H torsion
[ 10167 10162 10161 10158 ] final   -1.97 input  -65.29 | X-H torsion
[ 10718 10713 10712 10709 ] final   -5.94 input   66.30 | X-H torsion
[ 10763 10752 10751 10750 ] final  -12.56 input  -60.55 | X-H torsion
[ 11005 11000 10999 10996 ] final   50.28 input  -57.11 | X-H torsion

> <Gold.Protein.ActiveResidues>
 VAL166  LYS551  ARG553  GLY616  TRP617  ASP618  TYR619  PRO620  LYS621  CYS622 
 ASP623  PHE694  ASN695  SER759  ASP760  ASP761  ALA762  ILE779  LEU786  VAL792 
 PHE793  MET794  SER795  GLU796  ALA797  LYS798  CYS799  TRP800  GLU811  SER814 

> <Gold.Protein.RotatedAtoms>
  152.2558  134.8085  160.0438 H   0  0  0  0  0  0  0  0  0  0  0  0  # atno 6907 bound_to 6896
  151.8749  133.3478  159.3755 H   0  0  0  0  0  0  0  0  0  0  0  0  # atno 6908 bound_to 6896
  150.7099  134.5003  159.5602 H   0  0  0  0  0  0  0  0  0  0  0  0  # atno 6909 bound_to 6896
  145.8341  140.8461  143.0068 H   0  0  0  0  0  0  0  0  0  0  0  0  # atno 7974 bound_to 7965
  155.0072  140.3132  155.4844 H   0  0  0  0  0  0  0  0  0  0  0  0  # atno 8008 bound_to 7997
  156.2915  140.2221  156.5126 H   0  0  0  0  0  0  0  0  0  0  0  0  # atno 8009 bound_to 7997
  154.7566  140.0462  157.0926 H   0  0  0  0  0  0  0  0  0  0  0  0  # atno 8010 bound_to 7997
  140.6832  143.6713  150.8183 H   0  0  0  0  0  0  0  0  0  0  0  0  # atno 10167 bound_to 10162
  156.7392  130.5204  149.5828 H   0  0  0  0  0  0  0  0  0  0  0  0  # atno 10718 bound_to 10713
  153.5003  135.7017  153.5835 H   0  0  0  0  0  0  0  0  0  0  0  0  # atno 10763 bound_to 10752
  153.3970  135.3881  155.1962 H   0  0  0  0  0  0  0  0  0  0  0  0  # atno 10764 bound_to 10752
  154.8711  135.3872  154.4473 H   0  0  0  0  0  0  0  0  0  0  0  0  # atno 10765 bound_to 10752
  140.1031  134.5055  155.8744 H   0  0  0  0  0  0  0  0  0  0  0  0  # atno 11005 bound_to 11000
  144.6737  140.0715  143.7473 LP  0  0  0  0  0  0  0  0  0  0  0  0  # atno 17320 bound_to 7965
  145.9539  139.2752  143.1196 LP  0  0  0  0  0  0  0  0  0  0  0  0  # atno 17321 bound_to 7965
  140.0416  143.5340  152.2715 LP  0  0  0  0  0  0  0  0  0  0  0  0  # atno 17342 bound_to 10162
  139.6169  144.7621  151.2825 LP  0  0  0  0  0  0  0  0  0  0  0  0  # atno 17343 bound_to 10162
  156.1476  130.6288  151.0553 LP  0  0  0  0  0  0  0  0  0  0  0  0  # atno 17370 bound_to 10713
  157.6826  131.0834  150.7329 LP  0  0  0  0  0  0  0  0  0  0  0  0  # atno 17371 bound_to 10713
  141.2111  133.6702  156.6557 LP  0  0  0  0  0  0  0  0  0  0  0  0  # atno 17394 bound_to 11000
  140.3193  134.8021  157.4239 LP  0  0  0  0  0  0  0  0  0  0  0  0  # atno 17395 bound_to 11000

$$$$
