AV-unprocessed.smi:3255|AV-procd|sdf|12457|dock4
  -GOLD-   2272018353D 1   1.00000     0.00000
 Structure written by MMmdl.
 39 40  0  0  0  0  0  0  0  0  2 V2000
  147.4985  141.7162  154.6023 C   0  0  0  0  0  0  0  0  0  0  0  0
  148.7045  140.9757  154.0037 C   0  0  2  0  0  0  0  0  0  0  0  0
  148.2102  139.8579  153.2037 N   0  0  0  0  0  0  0  0  0  0  0  0
  147.3889  138.8946  153.6429 C   0  0  0  0  0  0  0  0  0  0  0  0
  146.9780  138.8090  154.8005 O   0  0  0  0  0  0  0  0  0  0  0  0
  147.0372  138.0544  152.6594 N   0  0  0  0  0  0  0  0  0  0  0  0
  146.0840  136.9565  152.7953 C   0  0  0  0  0  0  0  0  0  0  0  0
  145.8475  136.2256  151.4589 C   0  0  0  0  0  0  0  0  0  0  0  0
  145.1171  134.9636  151.6170 N   0  0  0  0  0  0  0  0  0  0  0  0
  144.8605  134.0230  150.6521 C   0  0  0  0  0  0  0  0  0  0  0  0
  144.1361  133.0293  151.2581 C   0  0  0  0  0  0  0  0  0  0  0  0
  143.9847  133.4028  152.5665 N   0  3  0  0  0  0  0  0  0  0  0  0
  144.5854  134.5772  152.7838 C   0  0  0  0  0  0  0  0  0  0  0  0
  149.6713  140.4589  155.0914 C   0  0  2  0  0  0  0  0  0  0  0  0
  150.2665  141.5480  155.9871 C   0  0  0  0  0  0  0  0  0  0  0  0
  151.5886  140.9582  156.4551 C   0  0  0  0  0  0  0  0  0  0  0  0
  151.7946  139.7392  155.5540 C   0  0  0  0  0  0  0  0  0  0  0  0
  150.8375  139.8868  154.5162 O   0  0  0  0  0  0  0  0  0  0  0  0
  147.8101  142.5998  155.1597 H   0  0  0  0  0  0  0  0  0  0  0  0
  146.9357  141.0754  155.2820 H   0  0  0  0  0  0  0  0  0  0  0  0
  146.8166  142.0517  153.8200 H   0  0  0  0  0  0  0  0  0  0  0  0
  149.2369  141.6769  153.3585 H   0  0  0  0  0  0  0  0  0  0  0  0
  148.4881  139.8394  152.2335 H   0  0  0  0  0  0  0  0  0  0  0  0
  147.4330  138.2037  151.7425 H   0  0  0  0  0  0  0  0  0  0  0  0
  146.4965  136.2540  153.5196 H   0  0  0  0  0  0  0  0  0  0  0  0
  145.1407  137.3064  153.2181 H   0  0  0  0  0  0  0  0  0  0  0  0
  145.2906  136.8580  150.7660 H   0  0  0  0  0  0  0  0  0  0  0  0
  146.8012  135.9971  150.9812 H   0  0  0  0  0  0  0  0  0  0  0  0
  145.1939  134.1325  149.6305 H   0  0  0  0  0  0  0  0  0  0  0  0
  143.7244  132.1108  150.8657 H   0  0  0  0  0  0  0  0  0  0  0  0
  144.6225  135.1132  153.7155 H   0  0  0  0  0  0  0  0  0  0  0  0
  149.1796  139.7026  155.7070 H   0  0  0  0  0  0  0  0  0  0  0  0
  150.4575  142.4522  155.4077 H   0  0  0  0  0  0  0  0  0  0  0  0
  149.6082  141.8141  156.8147 H   0  0  0  0  0  0  0  0  0  0  0  0
  152.3953  141.6828  156.3384 H   0  0  0  0  0  0  0  0  0  0  0  0
  151.5513  140.6627  157.5041 H   0  0  0  0  0  0  0  0  0  0  0  0
  152.8062  139.6800  155.1527 H   0  0  0  0  0  0  0  0  0  0  0  0
  151.5900  138.8174  156.1005 H   0  0  0  0  0  0  0  0  0  0  0  0
  143.4862  132.8713  153.2693 H   0  0  0  0  0  0  0  0  0  0  0  0
  1  2  1  0  0  0  0
  1 19  1  0  0  0  0
  1 20  1  0  0  0  0
  1 21  1  0  0  0  0
  2  3  1  0  0  0  0
  2 14  1  0  0  0  0
  2 22  1  0  0  0  0
  3  4  1  0  0  0  0
  3 23  1  0  0  0  0
  4  5  2  0  0  0  0
  4  6  1  0  0  0  0
  6  7  1  0  0  0  0
  6 24  1  0  0  0  0
  7  8  1  0  0  0  0
  7 25  1  0  0  0  0
  7 26  1  0  0  0  0
  8  9  1  0  0  0  0
  8 27  1  0  0  0  0
  8 28  1  0  0  0  0
  9 13  1  0  0  0  0
  9 10  1  0  0  0  0
 10 11  2  0  0  0  0
 10 29  1  0  0  0  0
 11 12  1  0  0  0  0
 11 30  1  0  0  0  0
 12 13  2  0  0  0  0
 12 39  1  0  0  0  0
 13 31  1  0  0  0  0
 14 18  1  0  0  0  0
 14 15  1  0  0  0  0
 14 32  1  0  0  0  0
 15 16  1  0  0  0  0
 15 33  1  0  0  0  0
 15 34  1  0  0  0  0
 16 17  1  0  0  0  0
 16 35  1  0  0  0  0
 16 36  1  0  0  0  0
 17 18  1  0  0  0  0
 17 37  1  0  0  0  0
 17 38  1  0  0  0  0
M  CHG  1  12   1
M  END
> <s_m_source_file>
AV-unprocessed.smi

> <i_m_source_file_index>
3255

> <i_lp_mmshare_version>
43012

> <i_f3d_flags>
0

> <s_epik_input>
TzFbQ0gyXVtDSDJdW0NIMl1bQ0BIXTFbQ0BIXShbQ0gzXSlbTkhdQyg9TylbTkhdW0NIMl1bQ0gyXW4yW2NIXVtjSF1uW2NIXTI=

> <s_epik_cmdline>
J2VwaWtfcHl0aG9uJywgJy1waCcsICc3LjAnLCAnLXRuJywgJzgnLCAnLW1hJywgJzIwMCcsICctbWV0YWxfYmluZGluZycsICctaW1hZScsICc8aW5maWxlLm1hZT4nLCAnLW9tYWUnLCAnPG91dGZpbGUubWFlPic=

> <r_lp_tautomer_probability>
1

> <r_epik_Ionization_Penalty>
0.256241

> <r_epik_Ionization_Penalty_Charging>
0

> <r_epik_Ionization_Penalty_Neutral>
0.256241

> <r_epik_State_Penalty>
0.247735

> <r_epik_Charging_Adjusted_Penalty>
0.247735

> <i_epik_Tot_Q>
1

> <i_epik_Tot_abs_Q>
1

> <r_epik_Metal_State_Penalty>
0.537184

> <b_epik_Metal_Only>
0

> <s_lp_Force_Field>
OPLS_2005

> <r_lp_Energy>
16.926

> <b_lp_Chiralities_Consistent>
1

> <s_lp_Variant>
AV-unprocessed.smi:3255-1

> <Gold.Version>
5.8.1

> <Gold.Id.Protein>
6NUR|6NUR_protein|mol2

> <Gold.PLP.Fitness>
49.6241

> <Gold.PLP.PLP>
-35.0104

> <Gold.PLP.part.hbond>
-3.9486

> <Gold.PLP.part.metal>
0.0000

> <Gold.PLP.part.buried>
-5.8770

> <Gold.PLP.part.nonpolar>
-26.5313

> <Gold.PLP.part.repulsive>
0.3371

> <Gold.PLP.ligand.clash>
0.0000

> <Gold.PLP.ligand.torsion>
0.1447

> <Gold.PLP.Chemscore.Hbond>
3.9440

> <Gold.PLP.Chemscore.CHOScore>
1.0000

> <Gold.PLP.Chemscore.Metal>
0.0000

> <Gold.Chemscore.Hbonds>
donor molecule, donor type, donor heavy atom, donor atom, acceptor molecule, acceptor atom, score
      L1  H     3    23       P1  7957  1.00
      L1  H    12    39       P1 10957  1.98
      P1  H  7989  7998       L1    18  1.00
      L1  C    10    29       P1  7921  1.00

> <Gold.PLP.Chemscore.Internal.Correction>
0.0711

> <Gold.Rescore>
     Score         DG    S(hbond)    S(metal)    S(lipo)     H(rot)  DE(clash)    DE(int)     intcor
     15.04     -16.49       2.88        0.00      61.51       2.26       0.19       1.26       ----

> <Gold.Chemscore.Fitness>
15.0436

> <Gold.Chemscore.DG>
-16.4924

> <Gold.Chemscore.ZeroCoef>
-5.4800

> <Gold.Chemscore.Hbond>
2.8776

> <Gold.Chemscore.Metal>
0.0000

> <Gold.Chemscore.Lipo>
61.5121

> <Gold.Chemscore.Internal_Hbond>
0.0000

> <Gold.Chemscore.DEClash>
0.1864

> <Gold.Chemscore.DEInternal>
1.2624

> <Gold.Chemscore.Rot>
2.2640

> <Gold.Chemscore.Internal.Correction>
   9.000000E+99

> <Gold.Chemscore.Hbonds>
donor molecule, donor type, donor heavy atom, donor atom, acceptor molecule, acceptor atom, score
      L1  H     3    23       P1  7957  0.90
      L1  H    12    39       P1 10957  0.56
      P1  H  7989  7998       L1    18  0.27

> <Gold.Chemscore.Hbond.Weighted>
-9.6112

> <Gold.Chemscore.Metal.Weighted>
-0.0000

> <Gold.Chemscore.Lipo.Weighted>
-7.1969

> <Gold.Chemscore.Internal_Hbond.Weighted>
0.0000

> <Gold.Chemscore.DEClash.Weighted>
0.1864

> <Gold.Chemscore.DEInternal.Weighted>
1.2624

> <Gold.Chemscore.Rot.Weighted>
5.7958

> <Gold.Chemscore.Internal.Correction.Weighted>
   9.000000E+99

> <Gold.Protein.RotatedTorsions>
[ 6907 6896 6895 6894 ] final -133.94 input  -60.11 | X-H torsion
[ 7974 7965 7964 7962 ] final   29.55 input  175.53 | X-H torsion
[ 8008 7997 7996 7995 ] final  -76.94 input   59.86 | X-H torsion
[ 10167 10162 10161 10158 ] final  -66.07 input  -65.29 | X-H torsion
[ 10718 10713 10712 10709 ] final  -38.85 input   66.30 | X-H torsion
[ 10763 10752 10751 10750 ] final   24.55 input  -60.55 | X-H torsion
[ 11005 11000 10999 10996 ] final   31.61 input  -57.11 | X-H torsion

> <Gold.Protein.ActiveResidues>
 VAL166  LYS551  ARG553  GLY616  TRP617  ASP618  TYR619  PRO620  LYS621  CYS622 
 ASP623  PHE694  ASN695  SER759  ASP760  ASP761  ALA762  ILE779  LEU786  VAL792 
 PHE793  MET794  SER795  GLU796  ALA797  LYS798  CYS799  TRP800  GLU811  SER814 

> <Gold.Protein.RotatedAtoms>
  150.9799  133.6256  159.2724 H   0  0  0  0  0  0  0  0  0  0  0  0  # atno 6907 bound_to 6896
  151.3514  135.0884  159.9414 H   0  0  0  0  0  0  0  0  0  0  0  0  # atno 6908 bound_to 6896
  152.5212  133.9391  159.7672 H   0  0  0  0  0  0  0  0  0  0  0  0  # atno 6909 bound_to 6896
  146.1664  139.6906  142.8998 H   0  0  0  0  0  0  0  0  0  0  0  0  # atno 7974 bound_to 7965
  154.5550  140.0719  156.8729 H   0  0  0  0  0  0  0  0  0  0  0  0  # atno 8008 bound_to 7997
  155.2919  140.3378  155.4234 H   0  0  0  0  0  0  0  0  0  0  0  0  # atno 8009 bound_to 7997
  156.1994  140.1716  156.7916 H   0  0  0  0  0  0  0  0  0  0  0  0  # atno 8010 bound_to 7997
  140.5684  143.2316  151.6588 H   0  0  0  0  0  0  0  0  0  0  0  0  # atno 10167 bound_to 10162
  156.2991  130.4238  149.8161 H   0  0  0  0  0  0  0  0  0  0  0  0  # atno 10718 bound_to 10713
  153.0756  135.6603  154.0154 H   0  0  0  0  0  0  0  0  0  0  0  0  # atno 10763 bound_to 10752
  153.9789  135.2957  155.3423 H   0  0  0  0  0  0  0  0  0  0  0  0  # atno 10764 bound_to 10752
  154.7142  135.5192  153.8783 H   0  0  0  0  0  0  0  0  0  0  0  0  # atno 10765 bound_to 10752
  140.2821  134.2961  155.7798 H   0  0  0  0  0  0  0  0  0  0  0  0  # atno 11005 bound_to 11000
  145.4455  141.0425  143.2833 LP  0  0  0  0  0  0  0  0  0  0  0  0  # atno 17320 bound_to 7965
  144.8099  139.5981  143.7034 LP  0  0  0  0  0  0  0  0  0  0  0  0  # atno 17321 bound_to 7965
  139.5104  144.3542  152.0623 LP  0  0  0  0  0  0  0  0  0  0  0  0  # atno 17342 bound_to 10162
  140.2677  144.3999  150.6162 LP  0  0  0  0  0  0  0  0  0  0  0  0  # atno 17343 bound_to 10162
  156.5546  130.8357  151.3310 LP  0  0  0  0  0  0  0  0  0  0  0  0  # atno 17370 bound_to 10713
  157.7363  130.9776  150.2129 LP  0  0  0  0  0  0  0  0  0  0  0  0  # atno 17371 bound_to 10713
  141.2161  133.7532  156.9496 LP  0  0  0  0  0  0  0  0  0  0  0  0  # atno 17394 bound_to 11000
  140.1274  134.9378  157.2289 LP  0  0  0  0  0  0  0  0  0  0  0  0  # atno 17395 bound_to 11000

$$$$
