AV-unprocessed.smi:2448|AV-procd|sdf|9659|dock9
  -GOLD-   2272013293D 1   1.00000     0.00000
 Structure written by MMmdl.
 38 39  0  0  0  0  0  0  0  0  2 V2000
  150.1086  142.6093  159.0651 O   0  0  0  0  0  0  0  0  0  0  0  0
  151.5009  142.4032  158.9015 C   0  0  1  0  0  0  0  0  0  0  0  0
  151.7021  141.1141  158.0786 C   0  0  0  0  0  0  0  0  0  0  0  0
  151.6724  141.3723  156.6374 N   0  0  0  0  0  0  0  0  0  0  0  0
  150.7155  140.5838  155.8467 C   0  0  2  0  0  0  0  0  0  0  0  0
  149.3296  140.4471  156.5305 C   0  0  0  0  0  0  0  0  0  0  0  0
  148.1281  140.5980  155.6109 C   0  0  0  0  0  0  0  0  0  0  0  0
  146.8233  140.6791  156.1478 C   0  0  0  0  0  0  0  0  0  0  0  0
  145.7249  140.8141  155.2746 C   0  0  0  0  0  0  0  0  0  0  0  0
  145.9282  140.8590  153.9399 N   0  3  0  0  0  0  0  0  0  0  0  0
  147.1565  140.7758  153.3838 C   0  0  0  0  0  0  0  0  0  0  0  0
  148.2925  140.6391  154.2076 C   0  0  0  0  0  0  0  0  0  0  0  0
  151.3217  139.1968  155.5447 C   0  0  0  0  0  0  0  0  0  0  0  0
  150.5425  138.5393  154.6850 F   0  0  0  0  0  0  0  0  0  0  0  0
  152.5402  139.3185  155.0165 F   0  0  0  0  0  0  0  0  0  0  0  0
  151.4040  138.4754  156.6628 F   0  0  0  0  0  0  0  0  0  0  0  0
  152.0668  143.6335  158.1728 C   0  0  0  0  0  0  0  0  0  0  0  0
  152.1131  144.7937  159.1725 C   0  0  0  0  0  0  0  0  0  0  0  0
  152.4768  144.0955  160.8022 S   0  0  0  0  0  0  0  0  0  0  0  0
  152.1957  142.3835  160.2757 C   0  0  0  0  0  0  0  0  0  0  0  0
  149.9558  142.9781  159.9214 H   0  0  0  0  0  0  0  0  0  0  0  0
  152.6408  140.6484  158.3713 H   0  0  0  0  0  0  0  0  0  0  0  0
  150.9105  140.4080  158.3321 H   0  0  0  0  0  0  0  0  0  0  0  0
  151.5081  142.3610  156.4741 H   0  0  0  0  0  0  0  0  0  0  0  0
  150.5821  141.0649  154.8773 H   0  0  0  0  0  0  0  0  0  0  0  0
  149.2398  139.4585  156.9806 H   0  0  0  0  0  0  0  0  0  0  0  0
  149.2559  141.1531  157.3588 H   0  0  0  0  0  0  0  0  0  0  0  0
  146.6633  140.6430  157.2158 H   0  0  0  0  0  0  0  0  0  0  0  0
  144.6977  140.8856  155.6013 H   0  0  0  0  0  0  0  0  0  0  0  0
  147.1929  140.8181  152.3050 H   0  0  0  0  0  0  0  0  0  0  0  0
  149.2750  140.5664  153.7643 H   0  0  0  0  0  0  0  0  0  0  0  0
  153.0843  143.4208  157.8415 H   0  0  0  0  0  0  0  0  0  0  0  0
  151.4929  143.8911  157.2816 H   0  0  0  0  0  0  0  0  0  0  0  0
  152.8517  145.5459  158.8950 H   0  0  0  0  0  0  0  0  0  0  0  0
  151.1413  145.2856  159.2228 H   0  0  0  0  0  0  0  0  0  0  0  0
  151.6295  141.8315  161.0270 H   0  0  0  0  0  0  0  0  0  0  0  0
  153.1737  141.9084  160.1914 H   0  0  0  0  0  0  0  0  0  0  0  0
  145.1191  140.9560  153.3256 H   0  0  0  0  0  0  0  0  0  0  0  0
  1  2  1  0  0  0  0
  1 21  1  0  0  0  0
  2 20  1  0  0  0  0
  2  3  1  0  0  0  0
  2 17  1  0  0  0  0
  3  4  1  0  0  0  0
  3 22  1  0  0  0  0
  3 23  1  0  0  0  0
  4  5  1  0  0  0  0
  4 24  1  0  0  0  0
  5  6  1  0  0  0  0
  5 13  1  0  0  0  0
  5 25  1  0  0  0  0
  6  7  1  0  0  0  0
  6 26  1  0  0  0  0
  6 27  1  0  0  0  0
  7 12  1  0  0  0  0
  7  8  2  0  0  0  0
  8  9  1  0  0  0  0
  8 28  1  0  0  0  0
  9 10  2  0  0  0  0
  9 29  1  0  0  0  0
 10 11  1  0  0  0  0
 10 38  1  0  0  0  0
 11 12  2  0  0  0  0
 11 30  1  0  0  0  0
 12 31  1  0  0  0  0
 13 14  1  0  0  0  0
 13 15  1  0  0  0  0
 13 16  1  0  0  0  0
 17 18  1  0  0  0  0
 17 32  1  0  0  0  0
 17 33  1  0  0  0  0
 18 19  1  0  0  0  0
 18 34  1  0  0  0  0
 18 35  1  0  0  0  0
 19 20  1  0  0  0  0
 20 36  1  0  0  0  0
 20 37  1  0  0  0  0
M  CHG  1  10   1
M  END
> <s_m_source_file>
AV-unprocessed.smi

> <i_m_source_file_index>
2448

> <i_lp_mmshare_version>
43012

> <i_f3d_flags>
0

> <s_epik_input>
W0NIMl0xU1tDSDJdW0NIMl1bQ0BAXTEoW09IXSlbQ0gyXVtOSF1bQ0BASF0oQyhGKShGKUYpW0NIMl1jMltjSF1bY0hdbltjSF1bY0hdMg==

> <s_epik_cmdline>
J2VwaWtfcHl0aG9uJywgJy1waCcsICc3LjAnLCAnLXRuJywgJzgnLCAnLW1hJywgJzIwMCcsICctbWV0YWxfYmluZGluZycsICctaW1hZScsICc8aW5maWxlLm1hZT4nLCAnLW9tYWUnLCAnPG91dGZpbGUubWFlPic=

> <r_epik_Ionization_Penalty>
1.11129

> <r_epik_Ionization_Penalty_Charging>
1.08366

> <r_epik_Ionization_Penalty_Neutral>
0.0276276

> <r_epik_State_Penalty>
1.93785

> <r_epik_Charging_Adjusted_Penalty>
3.02151

> <i_epik_Tot_Q>
1

> <i_epik_Tot_abs_Q>
1

> <r_epik_Metal_State_Penalty>
5.97911

> <b_epik_Metal_Only>
0

> <s_lp_Force_Field>
OPLS_2005

> <r_lp_Energy>
39.4187

> <b_lp_Chiralities_Consistent>
1

> <s_lp_Variant>
AV-unprocessed.smi:2448-9

> <Gold.Version>
5.8.1

> <Gold.Id.Protein>
6NUR|6NUR_protein|mol2

> <Gold.PLP.Fitness>
40.2641

> <Gold.PLP.PLP>
-37.4174

> <Gold.PLP.part.hbond>
-1.8902

> <Gold.PLP.part.metal>
0.0000

> <Gold.PLP.part.buried>
-2.1849

> <Gold.PLP.part.nonpolar>
-33.8945

> <Gold.PLP.part.repulsive>
0.0000

> <Gold.PLP.ligand.clash>
0.0000

> <Gold.PLP.ligand.torsion>
1.7766

> <Gold.PLP.Chemscore.Hbond>
2.0000

> <Gold.PLP.Chemscore.CHOScore>
0.0000

> <Gold.PLP.Chemscore.Metal>
0.0000

> <Gold.Chemscore.Hbonds>
donor molecule, donor type, donor heavy atom, donor atom, acceptor molecule, acceptor atom, score
      L1  H    10    38       P1 10175  2.00

> <Gold.PLP.Chemscore.Internal.Correction>
0.3999

> <Gold.Rescore>
     Score         DG    S(hbond)    S(metal)    S(lipo)     H(rot)  DE(clash)    DE(int)     intcor
     11.73     -14.15       0.99        0.00      98.84       2.42       0.80       1.62       ----

> <Gold.Chemscore.Fitness>
11.7349

> <Gold.Chemscore.DG>
-14.1526

> <Gold.Chemscore.ZeroCoef>
-5.4800

> <Gold.Chemscore.Hbond>
0.9928

> <Gold.Chemscore.Metal>
0.0000

> <Gold.Chemscore.Lipo>
98.8374

> <Gold.Chemscore.Internal_Hbond>
0.0000

> <Gold.Chemscore.DEClash>
0.7984

> <Gold.Chemscore.DEInternal>
1.6193

> <Gold.Chemscore.Rot>
2.4247

> <Gold.Chemscore.Internal.Correction>
   9.000000E+99

> <Gold.Chemscore.Hbonds>
donor molecule, donor type, donor heavy atom, donor atom, acceptor molecule, acceptor atom, score
      L1  H    10    38       P1 10175  0.60

> <Gold.Chemscore.Hbond.Weighted>
-3.3159

> <Gold.Chemscore.Metal.Weighted>
-0.0000

> <Gold.Chemscore.Lipo.Weighted>
-11.5640

> <Gold.Chemscore.Internal_Hbond.Weighted>
0.0000

> <Gold.Chemscore.DEClash.Weighted>
0.7984

> <Gold.Chemscore.DEInternal.Weighted>
1.6193

> <Gold.Chemscore.Rot.Weighted>
6.2072

> <Gold.Chemscore.Internal.Correction.Weighted>
   9.000000E+99

> <Gold.Protein.RotatedTorsions>
[ 6907 6896 6895 6894 ] final  125.74 input  -60.11 | X-H torsion
[ 7974 7965 7964 7962 ] final   76.53 input  175.53 | X-H torsion
[ 8008 7997 7996 7995 ] final -149.64 input   59.86 | X-H torsion
[ 10167 10162 10161 10158 ] final -150.19 input  -65.29 | X-H torsion
[ 10718 10713 10712 10709 ] final  172.43 input   66.30 | X-H torsion
[ 10763 10752 10751 10750 ] final -143.78 input  -60.55 | X-H torsion
[ 11005 11000 10999 10996 ] final -119.05 input  -57.11 | X-H torsion

> <Gold.Protein.ActiveResidues>
 VAL166  LYS551  ARG553  GLY616  TRP617  ASP618  TYR619  PRO620  LYS621  CYS622 
 ASP623  PHE694  ASN695  SER759  ASP760  ASP761  ALA762  ILE779  LEU786  VAL792 
 PHE793  MET794  SER795  GLU796  ALA797  LYS798  CYS799  TRP800  GLU811  SER814 

> <Gold.Protein.RotatedAtoms>
  152.3965  133.6755  159.6280 H   0  0  0  0  0  0  0  0  0  0  0  0  # atno 6907 bound_to 6896
  150.7863  133.8865  159.3309 H   0  0  0  0  0  0  0  0  0  0  0  0  # atno 6908 bound_to 6896
  151.6640  135.0987  160.0236 H   0  0  0  0  0  0  0  0  0  0  0  0  # atno 6909 bound_to 6896
  145.7016  139.2585  143.1702 H   0  0  0  0  0  0  0  0  0  0  0  0  # atno 7974 bound_to 7965
  155.6109  140.0671  157.2706 H   0  0  0  0  0  0  0  0  0  0  0  0  # atno 8008 bound_to 7997
  154.4254  140.1801  156.1318 H   0  0  0  0  0  0  0  0  0  0  0  0  # atno 8009 bound_to 7997
  156.0086  140.3329  155.6921 H   0  0  0  0  0  0  0  0  0  0  0  0  # atno 8010 bound_to 7997
  139.7376  143.8712  152.2553 H   0  0  0  0  0  0  0  0  0  0  0  0  # atno 10167 bound_to 10162
  156.9791  131.0113  151.2886 H   0  0  0  0  0  0  0  0  0  0  0  0  # atno 10718 bound_to 10713
  154.8456  135.3458  154.6242 H   0  0  0  0  0  0  0  0  0  0  0  0  # atno 10763 bound_to 10752
  153.6851  135.6978  153.5111 H   0  0  0  0  0  0  0  0  0  0  0  0  # atno 10764 bound_to 10752
  153.2638  135.4314  155.0876 H   0  0  0  0  0  0  0  0  0  0  0  0  # atno 10765 bound_to 10752
  141.0243  134.0078  157.3238 H   0  0  0  0  0  0  0  0  0  0  0  0  # atno 11005 bound_to 11000
  146.0792  140.7783  142.9650 LP  0  0  0  0  0  0  0  0  0  0  0  0  # atno 17320 bound_to 7965
  144.6967  140.3463  143.7190 LP  0  0  0  0  0  0  0  0  0  0  0  0  # atno 17321 bound_to 7965
  139.8653  144.7096  150.9051 LP  0  0  0  0  0  0  0  0  0  0  0  0  # atno 17342 bound_to 10162
  140.7781  143.3783  151.1522 LP  0  0  0  0  0  0  0  0  0  0  0  0  # atno 17343 bound_to 10162
  157.5539  130.8200  149.8180 LP  0  0  0  0  0  0  0  0  0  0  0  0  # atno 17370 bound_to 10713
  156.0252  130.3782  150.1845 LP  0  0  0  0  0  0  0  0  0  0  0  0  # atno 17371 bound_to 10713
  139.9166  135.0197  156.7903 LP  0  0  0  0  0  0  0  0  0  0  0  0  # atno 17394 bound_to 11000
  140.6519  133.9723  155.7759 LP  0  0  0  0  0  0  0  0  0  0  0  0  # atno 17395 bound_to 11000

$$$$
