AV-unprocessed.smi:246|AV-procd|sdf|1884|dock6
  -GOLD-   2262020533D 1   1.00000     0.00000
 Structure written by MMmdl.
 57 60  0  0  0  0  0  0  0  0  1 V2000
  144.4612  132.3809  150.1199 C   0  0  0  0  0  0  0  0  0  0  0  0
  145.3019  131.3855  150.9314 C   0  0  0  0  0  0  0  0  0  0  0  0
  145.5167  131.8374  152.2610 O   0  0  0  0  0  0  0  0  0  0  0  0
  146.3697  132.9683  152.3629 C   0  0  0  0  0  0  0  0  0  0  0  0
  146.5812  133.2976  153.8432 C   0  0  0  0  0  0  0  0  0  0  0  0
  147.1230  134.6054  153.9458 O   0  0  0  0  0  0  0  0  0  0  0  0
  147.9829  134.7861  155.0611 C   0  0  1  0  0  0  0  0  0  0  0  0
  149.2726  133.9651  154.9759 C   0  0  0  0  0  0  0  0  0  0  0  0
  150.2743  134.7712  155.8069 C   0  0  0  0  0  0  0  0  0  0  0  0
  149.7836  136.1451  155.7877 N   0  0  0  0  0  0  0  0  0  0  0  0
  150.6194  137.2108  155.9059 C   0  0  0  0  0  0  0  0  0  0  0  0
  151.9579  136.9755  155.9496 N   0  0  0  0  0  0  0  0  0  0  0  0
  152.8252  137.9854  156.0594 C   0  0  0  0  0  0  0  0  0  0  0  0
  152.5759  139.2923  156.1424 N   0  0  0  0  0  0  0  0  0  0  0  0
  151.2360  139.5403  156.1101 C   0  0  0  0  0  0  0  0  0  0  0  0
  150.1962  138.5714  155.9994 C   0  0  0  0  0  0  0  0  0  0  0  0
  148.9624  139.2154  156.0081 N   0  0  0  0  0  0  0  0  0  0  0  0
  149.2554  140.4826  156.1072 C   0  0  0  0  0  0  0  0  0  0  0  0
  150.5996  140.7670  156.1645 N   0  0  0  0  0  0  0  0  0  0  0  0
  151.2085  142.0811  156.2576 C   0  0  0  0  0  0  0  0  0  0  0  0
  150.9867  142.7537  157.6293 C   0  0  2  0  0  0  0  0  0  0  0  0
  150.9735  144.1507  157.4143 O   0  0  0  0  0  0  0  0  0  0  0  0
  152.0607  142.4156  158.6880 C   0  0  1  0  0  0  0  0  0  0  0  0
  151.9933  143.2693  159.9572 C   0  0  0  0  0  0  0  0  0  0  0  0
  152.6298  142.3926  161.0251 C   0  0  0  0  0  0  0  0  0  0  0  0
  152.6771  141.0041  160.3848 C   0  0  0  0  0  0  0  0  0  0  0  0
  151.8682  141.1147  159.2240 O   0  0  0  0  0  0  0  0  0  0  0  0
  148.5031  136.2231  155.1024 C   0  0  0  0  0  0  0  0  0  0  0  0
  147.4621  134.5695  155.9959 H   0  0  0  0  0  0  0  0  0  0  0  0
  144.3858  132.0627  149.0800 H   0  0  0  0  0  0  0  0  0  0  0  0
  144.9123  133.3733  150.1312 H   0  0  0  0  0  0  0  0  0  0  0  0
  143.4470  132.4679  150.5075 H   0  0  0  0  0  0  0  0  0  0  0  0
  144.8518  130.3919  150.9238 H   0  0  0  0  0  0  0  0  0  0  0  0
  146.2790  131.2854  150.4584 H   0  0  0  0  0  0  0  0  0  0  0  0
  147.3304  132.7963  151.8778 H   0  0  0  0  0  0  0  0  0  0  0  0
  145.8989  133.8178  151.8660 H   0  0  0  0  0  0  0  0  0  0  0  0
  145.6228  133.2639  154.3634 H   0  0  0  0  0  0  0  0  0  0  0  0
  147.2333  132.5566  154.3069 H   0  0  0  0  0  0  0  0  0  0  0  0
  149.1556  132.9415  155.3325 H   0  0  0  0  0  0  0  0  0  0  0  0
  149.6126  133.9237  153.9400 H   0  0  0  0  0  0  0  0  0  0  0  0
  150.2913  134.4199  156.8391 H   0  0  0  0  0  0  0  0  0  0  0  0
  151.2805  134.6755  155.3967 H   0  0  0  0  0  0  0  0  0  0  0  0
  153.8681  137.7060  156.0834 H   0  0  0  0  0  0  0  0  0  0  0  0
  148.4944  141.2489  156.1288 H   0  0  0  0  0  0  0  0  0  0  0  0
  152.2757  141.9807  156.0544 H   0  0  0  0  0  0  0  0  0  0  0  0
  150.7967  142.7018  155.4608 H   0  0  0  0  0  0  0  0  0  0  0  0
  150.0055  142.4742  158.0152 H   0  0  0  0  0  0  0  0  0  0  0  0
  150.1605  144.3818  156.9919 H   0  0  0  0  0  0  0  0  0  0  0  0
  153.0598  142.4782  158.2518 H   0  0  0  0  0  0  0  0  0  0  0  0
  152.4974  144.2296  159.8444 H   0  0  0  0  0  0  0  0  0  0  0  0
  150.9536  143.4664  160.2228 H   0  0  0  0  0  0  0  0  0  0  0  0
  153.6333  142.7338  161.2814 H   0  0  0  0  0  0  0  0  0  0  0  0
  152.0301  142.3956  161.9358 H   0  0  0  0  0  0  0  0  0  0  0  0
  153.6961  140.7511  160.0887 H   0  0  0  0  0  0  0  0  0  0  0  0
  152.3099  140.2207  161.0482 H   0  0  0  0  0  0  0  0  0  0  0  0
  148.6615  136.6031  154.0920 H   0  0  0  0  0  0  0  0  0  0  0  0
  147.8034  136.8820  155.6172 H   0  0  0  0  0  0  0  0  0  0  0  0
  1  2  1  0  0  0  0
  1 30  1  0  0  0  0
  1 31  1  0  0  0  0
  1 32  1  0  0  0  0
  2  3  1  0  0  0  0
  2 33  1  0  0  0  0
  2 34  1  0  0  0  0
  3  4  1  0  0  0  0
  4  5  1  0  0  0  0
  4 35  1  0  0  0  0
  4 36  1  0  0  0  0
  5  6  1  0  0  0  0
  5 37  1  0  0  0  0
  5 38  1  0  0  0  0
  6  7  1  0  0  0  0
  7 29  1  0  0  0  0
  7 28  1  0  0  0  0
  7  8  1  0  0  0  0
  8  9  1  0  0  0  0
  8 39  1  0  0  0  0
  8 40  1  0  0  0  0
  9 10  1  0  0  0  0
  9 41  1  0  0  0  0
  9 42  1  0  0  0  0
 10 11  1  0  0  0  0
 10 28  1  0  0  0  0
 11 16  1  0  0  0  0
 11 12  2  0  0  0  0
 12 13  1  0  0  0  0
 13 14  2  0  0  0  0
 13 43  1  0  0  0  0
 14 15  1  0  0  0  0
 15 19  1  0  0  0  0
 15 16  2  0  0  0  0
 16 17  1  0  0  0  0
 17 18  2  0  0  0  0
 18 19  1  0  0  0  0
 18 44  1  0  0  0  0
 19 20  1  0  0  0  0
 20 21  1  0  0  0  0
 20 45  1  0  0  0  0
 20 46  1  0  0  0  0
 21 22  1  0  0  0  0
 21 23  1  0  0  0  0
 21 47  1  0  0  0  0
 22 48  1  0  0  0  0
 23 27  1  0  0  0  0
 23 24  1  0  0  0  0
 23 49  1  0  0  0  0
 24 25  1  0  0  0  0
 24 50  1  0  0  0  0
 24 51  1  0  0  0  0
 25 26  1  0  0  0  0
 25 52  1  0  0  0  0
 25 53  1  0  0  0  0
 26 27  1  0  0  0  0
 26 54  1  0  0  0  0
 26 55  1  0  0  0  0
 28 56  1  0  0  0  0
 28 57  1  0  0  0  0
M  END
> <s_m_source_file>
AV-unprocessed.smi

> <i_m_source_file_index>
246

> <i_lp_mmshare_version>
43012

> <i_f3d_flags>
0

> <s_epik_input>
W0NIM11bQ0gyXU9bQ0gyXVtDSDJdT1tDQEhdMVtDSDJdW0NIMl1OKFtDSDJdMSljKG5bY0hdbjIpYyhjMjMpbltjSF1uM1tDSDJdW0NASF0oW09IXSlbQ0BASF00W0NIMl1bQ0gyXVtDSDJdTzQ=

> <s_epik_cmdline>
J2VwaWtfcHl0aG9uJywgJy1waCcsICc3LjAnLCAnLXRuJywgJzgnLCAnLW1hJywgJzIwMCcsICctbWV0YWxfYmluZGluZycsICctaW1hZScsICc8aW5maWxlLm1hZT4nLCAnLW9tYWUnLCAnPG91dGZpbGUubWFlPic=

> <r_lp_tautomer_probability>
1

> <r_epik_Ionization_Penalty>
0.0024631

> <r_epik_Ionization_Penalty_Charging>
0

> <r_epik_Ionization_Penalty_Neutral>
0.0024631

> <r_epik_State_Penalty>
0.00162428

> <r_epik_Charging_Adjusted_Penalty>
0.00162428

> <i_epik_Tot_Q>
0

> <i_epik_Tot_abs_Q>
0

> <r_epik_Metal_State_Penalty>
-0

> <b_epik_Metal_Only>
0

> <s_lp_Force_Field>
OPLS_2005

> <r_lp_Energy>
49.6926

> <b_lp_Chiralities_Consistent>
1

> <s_lp_Variant>
AV-unprocessed.smi:246-5

> <Gold.Version>
5.8.1

> <Gold.Id.Protein>
6NUR|6NUR_protein|mol2

> <Gold.PLP.Fitness>
52.8510

> <Gold.PLP.PLP>
-45.9207

> <Gold.PLP.part.hbond>
-3.0000

> <Gold.PLP.part.metal>
0.0000

> <Gold.PLP.part.buried>
-8.3811

> <Gold.PLP.part.nonpolar>
-36.0376

> <Gold.PLP.part.repulsive>
0.5797

> <Gold.PLP.ligand.clash>
0.0000

> <Gold.PLP.ligand.torsion>
1.1425

> <Gold.PLP.Chemscore.Hbond>
2.8800

> <Gold.PLP.Chemscore.CHOScore>
0.0000

> <Gold.PLP.Chemscore.Metal>
0.0000

> <Gold.Chemscore.Hbonds>
donor molecule, donor type, donor heavy atom, donor atom, acceptor molecule, acceptor atom, score
      L1  H    22    48       P1  8028  1.00
      P1  H  7997  8008       L1    14  1.00
      P1  H 10752 10764       L1    12  0.83

> <Gold.PLP.Chemscore.Internal.Correction>
0.5754

> <Gold.Rescore>
     Score         DG    S(hbond)    S(metal)    S(lipo)     H(rot)  DE(clash)    DE(int)     intcor
     15.75     -17.74       2.37        0.00     104.98       3.10       0.85       1.15       ----

> <Gold.Chemscore.Fitness>
15.7484

> <Gold.Chemscore.DG>
-17.7417

> <Gold.Chemscore.ZeroCoef>
-5.4800

> <Gold.Chemscore.Hbond>
2.3717

> <Gold.Chemscore.Metal>
0.0000

> <Gold.Chemscore.Lipo>
104.9801

> <Gold.Chemscore.Internal_Hbond>
0.0000

> <Gold.Chemscore.DEClash>
0.8477

> <Gold.Chemscore.DEInternal>
1.1455

> <Gold.Chemscore.Rot>
3.1026

> <Gold.Chemscore.Internal.Correction>
   9.000000E+99

> <Gold.Chemscore.Hbonds>
donor molecule, donor type, donor heavy atom, donor atom, acceptor molecule, acceptor atom, score
      L1  H    22    48       P1  8028  0.78
      P1  H  7997  8008       L1    14  0.49
      P1  H 10752 10764       L1    12  0.31

> <Gold.Chemscore.Hbond.Weighted>
-7.9216

> <Gold.Chemscore.Metal.Weighted>
-0.0000

> <Gold.Chemscore.Lipo.Weighted>
-12.2827

> <Gold.Chemscore.Internal_Hbond.Weighted>
0.0000

> <Gold.Chemscore.DEClash.Weighted>
0.8477

> <Gold.Chemscore.DEInternal.Weighted>
1.1455

> <Gold.Chemscore.Rot.Weighted>
7.9426

> <Gold.Chemscore.Internal.Correction.Weighted>
   9.000000E+99

> <Gold.Protein.RotatedTorsions>
[ 6907 6896 6895 6894 ] final -166.52 input  -60.11 | X-H torsion
[ 7974 7965 7964 7962 ] final  -41.47 input  175.53 | X-H torsion
[ 8008 7997 7996 7995 ] final  -36.55 input   59.86 | X-H torsion
[ 10167 10162 10161 10158 ] final  -43.89 input  -65.29 | X-H torsion
[ 10718 10713 10712 10709 ] final -154.60 input   66.30 | X-H torsion
[ 10763 10752 10751 10750 ] final  -46.47 input  -60.55 | X-H torsion
[ 11005 11000 10999 10996 ] final -123.31 input  -57.11 | X-H torsion

> <Gold.Protein.ActiveResidues>
 VAL166  LYS551  ARG553  GLY616  TRP617  ASP618  TYR619  PRO620  LYS621  CYS622 
 ASP623  PHE694  ASN695  SER759  ASP760  ASP761  ALA762  ILE779  LEU786  VAL792 
 PHE793  MET794  SER795  GLU796  ALA797  LYS798  CYS799  TRP800  GLU811  SER814 

> <Gold.Protein.RotatedAtoms>
  151.4450  133.3633  159.2786 H   0  0  0  0  0  0  0  0  0  0  0  0  # atno 6907 bound_to 6896
  150.9131  134.8550  159.7449 H   0  0  0  0  0  0  0  0  0  0  0  0  # atno 6908 bound_to 6896
  152.4943  134.4381  159.9586 H   0  0  0  0  0  0  0  0  0  0  0  0  # atno 6909 bound_to 6896
  146.0208  140.6852  142.9179 H   0  0  0  0  0  0  0  0  0  0  0  0  # atno 7974 bound_to 7965
  154.4071  140.1628  156.2392 H   0  0  0  0  0  0  0  0  0  0  0  0  # atno 8008 bound_to 7997
  155.9216  140.3421  155.6154 H   0  0  0  0  0  0  0  0  0  0  0  0  # atno 8009 bound_to 7997
  155.7215  140.0769  157.2319 H   0  0  0  0  0  0  0  0  0  0  0  0  # atno 8010 bound_to 7997
  140.6917  143.2959  151.3417 H   0  0  0  0  0  0  0  0  0  0  0  0  # atno 10167 bound_to 10162
  156.5015  130.8393  151.2611 H   0  0  0  0  0  0  0  0  0  0  0  0  # atno 10718 bound_to 10713
  154.0456  135.6638  153.4794 H   0  0  0  0  0  0  0  0  0  0  0  0  # atno 10763 bound_to 10752
  153.0484  135.5100  154.7800 H   0  0  0  0  0  0  0  0  0  0  0  0  # atno 10764 bound_to 10752
  154.6790  135.3042  154.9605 H   0  0  0  0  0  0  0  0  0  0  0  0  # atno 10765 bound_to 10752
  140.9928  134.0514  157.3633 H   0  0  0  0  0  0  0  0  0  0  0  0  # atno 11005 bound_to 11000
  144.6989  140.3562  143.7172 LP  0  0  0  0  0  0  0  0  0  0  0  0  # atno 17320 bound_to 7965
  145.7196  139.1706  143.2492 LP  0  0  0  0  0  0  0  0  0  0  0  0  # atno 17321 bound_to 7965
  139.6327  144.0690  152.2490 LP  0  0  0  0  0  0  0  0  0  0  0  0  # atno 17342 bound_to 10162
  140.0169  144.6182  150.7599 LP  0  0  0  0  0  0  0  0  0  0  0  0  # atno 17343 bound_to 10162
  157.7462  130.9980  150.2837 LP  0  0  0  0  0  0  0  0  0  0  0  0  # atno 17370 bound_to 10713
  156.3328  130.3803  149.7476 LP  0  0  0  0  0  0  0  0  0  0  0  0  # atno 17371 bound_to 10713
  139.9000  135.0161  156.7224 LP  0  0  0  0  0  0  0  0  0  0  0  0  # atno 17394 bound_to 11000
  140.7012  133.9304  155.8026 LP  0  0  0  0  0  0  0  0  0  0  0  0  # atno 17395 bound_to 11000

$$$$
