AV-unprocessed.smi:21|AV-procd|sdf|147|dock10
  -GOLD-   2262015363D 1   1.00000     0.00000
 Structure written by MMmdl.
 62 65  0  0  0  0  0  0  0  0  2 V2000
  143.8315  132.7186  151.0876 C   0  0  0  0  0  0  0  0  0  0  0  0
  144.2308  133.6802  152.0511 O   0  0  0  0  0  0  0  0  0  0  0  0
  145.1791  134.6172  151.5595 C   0  0  1  0  0  0  0  0  0  0  0  0
  145.4271  135.6544  152.6457 C   0  0  0  0  0  0  0  0  0  0  0  0
  146.5417  135.0473  153.5034 C   0  0  2  0  0  0  0  0  0  0  0  0
  147.3514  136.0859  154.3164 C   0  0  0  0  0  0  0  0  0  0  0  0
  147.9552  135.5334  155.5305 N   0  0  0  0  0  0  0  0  0  0  0  0
  147.3305  134.3698  156.1462 C   0  0  0  0  0  0  0  0  0  0  0  0
  148.6503  136.3942  156.3169 C   0  0  0  0  0  0  0  0  0  0  0  0
  148.6086  136.1929  157.6596 N   0  0  0  0  0  0  0  0  0  0  0  0
  149.3313  136.9579  158.4817 C   0  0  0  0  0  0  0  0  0  0  0  0
  150.1723  137.9462  158.1754 N   0  0  0  0  0  0  0  0  0  0  0  0
  150.2231  138.1527  156.8289 C   0  0  0  0  0  0  0  0  0  0  0  0
  149.4829  137.4485  155.8367 C   0  0  0  0  0  0  0  0  0  0  0  0
  149.8046  137.9427  154.5769 N   0  0  0  0  0  0  0  0  0  0  0  0
  150.6924  138.8698  154.8089 C   0  0  0  0  0  0  0  0  0  0  0  0
  151.0342  139.0304  156.1318 N   0  0  0  0  0  0  0  0  0  0  0  0
  152.0302  139.9410  156.6662 C   0  0  0  0  0  0  0  0  0  0  0  0
  151.4450  141.1116  157.5030 C   0  0  2  0  0  0  0  0  0  0  0  0
  150.6611  142.0621  156.5688 C   0  0  0  0  0  0  0  0  0  0  0  0
  149.6022  142.7069  157.2478 O   0  0  0  0  0  0  0  0  0  0  0  0
  152.4817  141.8645  158.3920 C   0  0  1  0  0  0  0  0  0  0  0  0
  151.8921  142.9661  159.2597 C   0  0  0  0  0  0  0  0  0  0  0  0
  152.9811  143.1784  160.3014 C   0  0  0  0  0  0  0  0  0  0  0  0
  153.4673  141.8736  160.5733 O   0  0  0  0  0  0  0  0  0  0  0  0
  153.1889  141.0203  159.4671 C   0  0  0  0  0  0  0  0  0  0  0  0
  147.3937  134.3293  152.5289 N   0  3  1  0  0  0  0  0  0  0  0  0
  148.1576  133.1981  153.0991 C   0  0  0  0  0  0  0  0  0  0  0  0
  146.5521  133.9527  151.3668 C   0  0  0  0  0  0  0  0  0  0  0  0
  144.8138  135.0965  150.6494 H   0  0  0  0  0  0  0  0  0  0  0  0
  146.0959  134.3099  154.1735 H   0  0  0  0  0  0  0  0  0  0  0  0
  143.1232  132.0238  151.5385 H   0  0  0  0  0  0  0  0  0  0  0  0
  144.6794  132.1413  150.7177 H   0  0  0  0  0  0  0  0  0  0  0  0
  143.3373  133.1950  150.2398 H   0  0  0  0  0  0  0  0  0  0  0  0
  145.7690  136.5837  152.1881 H   0  0  0  0  0  0  0  0  0  0  0  0
  144.5248  135.8749  153.2140 H   0  0  0  0  0  0  0  0  0  0  0  0
  148.1644  136.4743  153.7030 H   0  0  0  0  0  0  0  0  0  0  0  0
  146.7284  136.9499  154.5504 H   0  0  0  0  0  0  0  0  0  0  0  0
  147.9839  133.9267  156.8985 H   0  0  0  0  0  0  0  0  0  0  0  0
  147.1287  133.6079  155.3933 H   0  0  0  0  0  0  0  0  0  0  0  0
  146.3848  134.6365  156.6179 H   0  0  0  0  0  0  0  0  0  0  0  0
  149.2355  136.7346  159.5342 H   0  0  0  0  0  0  0  0  0  0  0  0
  151.1511  139.4385  154.0129 H   0  0  0  0  0  0  0  0  0  0  0  0
  152.7331  139.3639  157.2681 H   0  0  0  0  0  0  0  0  0  0  0  0
  152.5987  140.3327  155.8218 H   0  0  0  0  0  0  0  0  0  0  0  0
  150.6994  140.6874  158.1764 H   0  0  0  0  0  0  0  0  0  0  0  0
  151.3250  142.8231  156.1574 H   0  0  0  0  0  0  0  0  0  0  0  0
  150.2534  141.5244  155.7130 H   0  0  0  0  0  0  0  0  0  0  0  0
  149.5005  143.5757  156.8906 H   0  0  0  0  0  0  0  0  0  0  0  0
  153.2422  142.3147  157.7520 H   0  0  0  0  0  0  0  0  0  0  0  0
  151.6679  143.8777  158.7046 H   0  0  0  0  0  0  0  0  0  0  0  0
  150.9761  142.6242  159.7440 H   0  0  0  0  0  0  0  0  0  0  0  0
  153.7919  143.7818  159.8907 H   0  0  0  0  0  0  0  0  0  0  0  0
  152.6140  143.6662  161.2046 H   0  0  0  0  0  0  0  0  0  0  0  0
  152.5479  140.2142  159.8244 H   0  0  0  0  0  0  0  0  0  0  0  0
  154.1154  140.5812  159.0999 H   0  0  0  0  0  0  0  0  0  0  0  0
  147.4895  132.4308  153.4923 H   0  0  0  0  0  0  0  0  0  0  0  0
  148.8067  133.5337  153.9078 H   0  0  0  0  0  0  0  0  0  0  0  0
  148.7877  132.7431  152.3341 H   0  0  0  0  0  0  0  0  0  0  0  0
  146.4626  132.8708  151.2599 H   0  0  0  0  0  0  0  0  0  0  0  0
  147.0352  134.3263  150.4638 H   0  0  0  0  0  0  0  0  0  0  0  0
  148.0614  135.0039  152.1836 H   0  0  0  0  0  0  0  0  0  0  0  0
  1  2  1  0  0  0  0
  1 32  1  0  0  0  0
  1 33  1  0  0  0  0
  1 34  1  0  0  0  0
  2  3  1  0  0  0  0
  3 30  1  0  0  0  0
  3 29  1  0  0  0  0
  3  4  1  0  0  0  0
  4  5  1  0  0  0  0
  4 35  1  0  0  0  0
  4 36  1  0  0  0  0
  5 31  1  0  0  0  0
  5  6  1  0  0  0  0
  5 27  1  0  0  0  0
  6  7  1  0  0  0  0
  6 37  1  0  0  0  0
  6 38  1  0  0  0  0
  7  8  1  0  0  0  0
  7  9  1  0  0  0  0
  8 39  1  0  0  0  0
  8 40  1  0  0  0  0
  8 41  1  0  0  0  0
  9 14  1  0  0  0  0
  9 10  2  0  0  0  0
 10 11  1  0  0  0  0
 11 12  2  0  0  0  0
 11 42  1  0  0  0  0
 12 13  1  0  0  0  0
 13 17  1  0  0  0  0
 13 14  2  0  0  0  0
 14 15  1  0  0  0  0
 15 16  2  0  0  0  0
 16 17  1  0  0  0  0
 16 43  1  0  0  0  0
 17 18  1  0  0  0  0
 18 19  1  0  0  0  0
 18 44  1  0  0  0  0
 18 45  1  0  0  0  0
 19 20  1  0  0  0  0
 19 22  1  0  0  0  0
 19 46  1  0  0  0  0
 20 21  1  0  0  0  0
 20 47  1  0  0  0  0
 20 48  1  0  0  0  0
 21 49  1  0  0  0  0
 22 26  1  0  0  0  0
 22 23  1  0  0  0  0
 22 50  1  0  0  0  0
 23 24  1  0  0  0  0
 23 51  1  0  0  0  0
 23 52  1  0  0  0  0
 24 25  1  0  0  0  0
 24 53  1  0  0  0  0
 24 54  1  0  0  0  0
 25 26  1  0  0  0  0
 26 55  1  0  0  0  0
 26 56  1  0  0  0  0
 27 28  1  0  0  0  0
 27 29  1  0  0  0  0
 27 62  1  0  0  0  0
 28 57  1  0  0  0  0
 28 58  1  0  0  0  0
 28 59  1  0  0  0  0
 29 60  1  0  0  0  0
 29 61  1  0  0  0  0
M  CHG  1  27   1
M  END
> <s_m_source_file>
AV-unprocessed.smi

> <i_m_source_file_index>
21

> <i_lp_mmshare_version>
43012

> <i_f3d_flags>
0

> <s_epik_input>
W0NIM11PW0NASF0xW0NIMl1bQ0BIXShOKFtDSDNdKVtDSDJdMSlbQ0gyXU4oW0NIM10pYyhuW2NIXW4yKWMoYzIzKW5bY0hdbjNbQ0gyXVtDQEhdKFtDSDJdW09IXSlbQ0BASF00W0NIMl1bQ0gyXU9bQ0gyXTQ=

> <s_epik_cmdline>
J2VwaWtfcHl0aG9uJywgJy1waCcsICc3LjAnLCAnLXRuJywgJzgnLCAnLW1hJywgJzIwMCcsICctbWV0YWxfYmluZGluZycsICctaW1hZScsICc8aW5maWxlLm1hZT4nLCAnLW9tYWUnLCAnPG91dGZpbGUubWFlPic=

> <r_lp_tautomer_probability>
1

> <r_epik_Ionization_Penalty>
0.0157465

> <r_epik_Ionization_Penalty_Charging>
0.015354

> <r_epik_Ionization_Penalty_Neutral>
0.000392529

> <r_epik_State_Penalty>
0.0120612

> <r_epik_Charging_Adjusted_Penalty>
0.0274152

> <i_epik_Tot_Q>
1

> <i_epik_Tot_abs_Q>
1

> <r_epik_Metal_State_Penalty>
0.0121253

> <b_epik_Metal_Only>
0

> <s_lp_Force_Field>
OPLS_2005

> <r_lp_Energy>
57.9391

> <b_lp_Chiralities_Consistent>
1

> <s_lp_Variant>
AV-unprocessed.smi:21-27

> <Gold.Version>
5.8.1

> <Gold.Id.Protein>
6NUR|6NUR_protein|mol2

> <Gold.PLP.Fitness>
45.1313

> <Gold.PLP.PLP>
-37.9409

> <Gold.PLP.part.hbond>
-2.0000

> <Gold.PLP.part.metal>
0.0000

> <Gold.PLP.part.buried>
-5.1560

> <Gold.PLP.part.nonpolar>
-30.7381

> <Gold.PLP.part.repulsive>
0.3094

> <Gold.PLP.ligand.clash>
0.0000

> <Gold.PLP.ligand.torsion>
1.2680

> <Gold.PLP.Chemscore.Hbond>
3.0000

> <Gold.PLP.Chemscore.CHOScore>
0.0000

> <Gold.PLP.Chemscore.Metal>
0.0000

> <Gold.Chemscore.Hbonds>
donor molecule, donor type, donor heavy atom, donor atom, acceptor molecule, acceptor atom, score
      L1  H    21    49       P1  8028  1.00
      L1  H    27    62       P1  7948  1.89

> <Gold.PLP.Chemscore.Internal.Correction>
0.7265

> <Gold.Rescore>
     Score         DG    S(hbond)    S(metal)    S(lipo)     H(rot)  DE(clash)    DE(int)     intcor
     13.37     -14.90       1.98        0.00      91.29       3.08       0.00       1.53       ----

> <Gold.Chemscore.Fitness>
13.3722

> <Gold.Chemscore.DG>
-14.9045

> <Gold.Chemscore.ZeroCoef>
-5.4800

> <Gold.Chemscore.Hbond>
1.9814

> <Gold.Chemscore.Metal>
0.0000

> <Gold.Chemscore.Lipo>
91.2900

> <Gold.Chemscore.Internal_Hbond>
0.0000

> <Gold.Chemscore.DEClash>
0.0004

> <Gold.Chemscore.DEInternal>
1.5319

> <Gold.Chemscore.Rot>
3.0758

> <Gold.Chemscore.Internal.Correction>
   9.000000E+99

> <Gold.Chemscore.Hbonds>
donor molecule, donor type, donor heavy atom, donor atom, acceptor molecule, acceptor atom, score
      L1  H    21    49       P1  8028  0.93
      L1  H    27    62       P1  7948  0.59

> <Gold.Chemscore.Hbond.Weighted>
-6.6177

> <Gold.Chemscore.Metal.Weighted>
-0.0000

> <Gold.Chemscore.Lipo.Weighted>
-10.6809

> <Gold.Chemscore.Internal_Hbond.Weighted>
0.0000

> <Gold.Chemscore.DEClash.Weighted>
0.0004

> <Gold.Chemscore.DEInternal.Weighted>
1.5319

> <Gold.Chemscore.Rot.Weighted>
7.8741

> <Gold.Chemscore.Internal.Correction.Weighted>
   9.000000E+99

> <Gold.Protein.RotatedTorsions>
[ 6907 6896 6895 6894 ] final   81.72 input  -60.11 | X-H torsion
[ 7974 7965 7964 7962 ] final   71.69 input  175.53 | X-H torsion
[ 8008 7997 7996 7995 ] final  -84.10 input   59.86 | X-H torsion
[ 10167 10162 10161 10158 ] final   86.03 input  -65.29 | X-H torsion
[ 10718 10713 10712 10709 ] final  133.47 input   66.30 | X-H torsion
[ 10763 10752 10751 10750 ] final   53.66 input  -60.55 | X-H torsion
[ 11005 11000 10999 10996 ] final -170.89 input  -57.11 | X-H torsion

> <Gold.Protein.ActiveResidues>
 VAL166  LYS551  ARG553  GLY616  TRP617  ASP618  TYR619  PRO620  LYS621  CYS622 
 ASP623  PHE694  ASN695  SER759  ASP760  ASP761  ALA762  ILE779  LEU786  VAL792 
 PHE793  MET794  SER795  GLU796  ALA797  LYS798  CYS799  TRP800  GLU811  SER814 

> <Gold.Protein.RotatedAtoms>
  152.5277  134.3160  159.9130 H   0  0  0  0  0  0  0  0  0  0  0  0  # atno 6907 bound_to 6896
  151.3110  133.4074  159.2654 H   0  0  0  0  0  0  0  0  0  0  0  0  # atno 6908 bound_to 6896
  151.0039  134.9360  159.8026 H   0  0  0  0  0  0  0  0  0  0  0  0  # atno 6909 bound_to 6896
  145.7627  139.2808  143.1367 H   0  0  0  0  0  0  0  0  0  0  0  0  # atno 7974 bound_to 7965
  154.6261  140.0609  156.9675 H   0  0  0  0  0  0  0  0  0  0  0  0  # atno 8008 bound_to 7997
  155.1739  140.3293  155.4369 H   0  0  0  0  0  0  0  0  0  0  0  0  # atno 8009 bound_to 7997
  156.2458  140.1909  156.6840 H   0  0  0  0  0  0  0  0  0  0  0  0  # atno 8010 bound_to 7997
  139.8917  144.6381  150.8731 H   0  0  0  0  0  0  0  0  0  0  0  0  # atno 10167 bound_to 10162
  157.4769  131.1083  150.9731 H   0  0  0  0  0  0  0  0  0  0  0  0  # atno 10718 bound_to 10713
  152.9797  135.5771  154.4778 H   0  0  0  0  0  0  0  0  0  0  0  0  # atno 10763 bound_to 10752
  154.4331  135.2774  155.1901 H   0  0  0  0  0  0  0  0  0  0  0  0  # atno 10764 bound_to 10752
  154.3601  135.6190  153.5740 H   0  0  0  0  0  0  0  0  0  0  0  0  # atno 10765 bound_to 10752
  140.5144  134.5770  157.5029 H   0  0  0  0  0  0  0  0  0  0  0  0  # atno 11005 bound_to 11000
  146.0248  140.8314  142.9905 LP  0  0  0  0  0  0  0  0  0  0  0  0  # atno 17320 bound_to 7965
  144.6827  140.2681  143.7309 LP  0  0  0  0  0  0  0  0  0  0  0  0  # atno 17321 bound_to 7965
  140.7725  143.3505  151.2025 LP  0  0  0  0  0  0  0  0  0  0  0  0  # atno 17342 bound_to 10162
  139.7103  143.9387  152.2945 LP  0  0  0  0  0  0  0  0  0  0  0  0  # atno 17343 bound_to 10162
  157.0477  130.5774  149.5365 LP  0  0  0  0  0  0  0  0  0  0  0  0  # atno 17370 bound_to 10713
  156.0101  130.5192  150.7962 LP  0  0  0  0  0  0  0  0  0  0  0  0  # atno 17371 bound_to 10713
  139.9640  134.7403  156.0176 LP  0  0  0  0  0  0  0  0  0  0  0  0  # atno 17394 bound_to 11000
  141.1368  133.6573  156.3616 LP  0  0  0  0  0  0  0  0  0  0  0  0  # atno 17395 bound_to 11000

$$$$
