AV-unprocessed.smi:1762|AV-procd|sdf|7108|dock8
  -GOLD-   22720 8333D 1   1.00000     0.00000
 Structure written by MMmdl.
 53 54  0  0  0  0  0  0  0  0  2 V2000
  153.1015  138.5831  154.6801 C   0  0  0  0  0  0  0  0  0  0  0  0
  151.6119  138.3797  154.3806 C   0  0  1  0  0  0  0  0  0  0  0  0
  150.9703  137.3146  155.2911 C   0  0  0  0  0  0  0  0  0  0  0  0
  149.5282  137.1640  155.0609 N   0  0  0  0  0  0  0  0  0  0  0  0
  148.9085  136.1109  155.9137 C   0  0  1  0  0  0  0  0  0  0  0  0
  147.5775  135.5695  155.3400 C   0  0  0  0  0  0  0  0  0  0  0  0
  146.5861  135.4604  156.0625 O   0  0  0  0  0  0  0  0  0  0  0  0
  147.5789  135.2077  154.0471 N   0  0  0  0  0  0  0  0  0  0  0  0
  146.4322  134.6529  153.3385 C   0  0  0  0  0  0  0  0  0  0  0  0
  146.6635  133.1810  152.9567 C   0  0  0  0  0  0  0  0  0  0  0  0
  145.8237  132.7580  151.7675 C   0  0  0  0  0  0  0  0  0  0  0  0
  144.4225  132.9292  151.7411 C   0  0  0  0  0  0  0  0  0  0  0  0
  143.6995  132.5203  150.6010 C   0  0  0  0  0  0  0  0  0  0  0  0
  144.3921  131.9510  149.5123 C   0  0  0  0  0  0  0  0  0  0  0  0
  145.7923  131.8055  149.5910 C   0  0  0  0  0  0  0  0  0  0  0  0
  146.4493  132.2090  150.7008 N   0  3  0  0  0  0  0  0  0  0  0  0
  149.8612  134.9321  156.3069 C   0  0  0  0  0  0  0  0  0  0  0  0
  150.3231  134.0766  155.1108 C   0  0  0  0  0  0  0  0  0  0  0  0
  149.2953  134.0311  157.4230 C   0  0  0  0  0  0  0  0  0  0  0  0
  148.8974  138.4903  155.1791 C   0  0  0  0  0  0  0  0  0  0  0  0
  149.5567  139.5476  154.2729 C   0  0  1  0  0  0  0  0  0  0  0  0
  148.9505  140.9417  154.4686 C   0  0  0  0  0  0  0  0  0  0  0  0
  150.9448  139.6205  154.5722 O   0  0  0  0  0  0  0  0  0  0  0  0
  153.6615  137.6597  154.5306 H   0  0  0  0  0  0  0  0  0  0  0  0
  153.2573  138.9068  155.7096 H   0  0  0  0  0  0  0  0  0  0  0  0
  153.5304  139.3410  154.0241 H   0  0  0  0  0  0  0  0  0  0  0  0
  151.5058  138.0782  153.3371 H   0  0  0  0  0  0  0  0  0  0  0  0
  151.4920  136.3800  155.0965 H   0  0  0  0  0  0  0  0  0  0  0  0
  151.1544  137.5672  156.3369 H   0  0  0  0  0  0  0  0  0  0  0  0
  148.6422  136.5955  156.8557 H   0  0  0  0  0  0  0  0  0  0  0  0
  148.4335  135.3250  153.5217 H   0  0  0  0  0  0  0  0  0  0  0  0
  145.5347  134.7522  153.9516 H   0  0  0  0  0  0  0  0  0  0  0  0
  146.2638  135.2508  152.4426 H   0  0  0  0  0  0  0  0  0  0  0  0
  147.7167  133.0147  152.7265 H   0  0  0  0  0  0  0  0  0  0  0  0
  146.4286  132.5298  153.7996 H   0  0  0  0  0  0  0  0  0  0  0  0
  143.9066  133.3694  152.5822 H   0  0  0  0  0  0  0  0  0  0  0  0
  142.6268  132.6424  150.5614 H   0  0  0  0  0  0  0  0  0  0  0  0
  143.8572  131.6317  148.6299 H   0  0  0  0  0  0  0  0  0  0  0  0
  146.4018  131.3822  148.8058 H   0  0  0  0  0  0  0  0  0  0  0  0
  150.7563  135.3636  156.7515 H   0  0  0  0  0  0  0  0  0  0  0  0
  149.4992  133.5196  154.6653 H   0  0  0  0  0  0  0  0  0  0  0  0
  151.0736  133.3498  155.4222 H   0  0  0  0  0  0  0  0  0  0  0  0
  150.7727  134.6887  154.3288 H   0  0  0  0  0  0  0  0  0  0  0  0
  148.4462  133.4381  157.0818 H   0  0  0  0  0  0  0  0  0  0  0  0
  148.9696  134.6226  158.2792 H   0  0  0  0  0  0  0  0  0  0  0  0
  150.0532  133.3330  157.7792 H   0  0  0  0  0  0  0  0  0  0  0  0
  147.8442  138.4558  154.9030 H   0  0  0  0  0  0  0  0  0  0  0  0
  148.9368  138.8235  156.2178 H   0  0  0  0  0  0  0  0  0  0  0  0
  149.4338  139.2587  153.2277 H   0  0  0  0  0  0  0  0  0  0  0  0
  147.8854  140.9430  154.2362 H   0  0  0  0  0  0  0  0  0  0  0  0
  149.4330  141.6708  153.8170 H   0  0  0  0  0  0  0  0  0  0  0  0
  149.0700  141.2837  155.4969 H   0  0  0  0  0  0  0  0  0  0  0  0
  147.4625  132.0945  150.7356 H   0  0  0  0  0  0  0  0  0  0  0  0
  1  2  1  0  0  0  0
  1 24  1  0  0  0  0
  1 25  1  0  0  0  0
  1 26  1  0  0  0  0
  2 23  1  0  0  0  0
  2  3  1  0  0  0  0
  2 27  1  0  0  0  0
  3  4  1  0  0  0  0
  3 28  1  0  0  0  0
  3 29  1  0  0  0  0
  4  5  1  0  0  0  0
  4 20  1  0  0  0  0
  5  6  1  0  0  0  0
  5 17  1  0  0  0  0
  5 30  1  0  0  0  0
  6  7  2  0  0  0  0
  6  8  1  0  0  0  0
  8  9  1  0  0  0  0
  8 31  1  0  0  0  0
  9 10  1  0  0  0  0
  9 32  1  0  0  0  0
  9 33  1  0  0  0  0
 10 11  1  0  0  0  0
 10 34  1  0  0  0  0
 10 35  1  0  0  0  0
 11 16  1  0  0  0  0
 11 12  2  0  0  0  0
 12 13  1  0  0  0  0
 12 36  1  0  0  0  0
 13 14  2  0  0  0  0
 13 37  1  0  0  0  0
 14 15  1  0  0  0  0
 14 38  1  0  0  0  0
 15 16  2  0  0  0  0
 15 39  1  0  0  0  0
 16 53  1  0  0  0  0
 17 18  1  0  0  0  0
 17 19  1  0  0  0  0
 17 40  1  0  0  0  0
 18 41  1  0  0  0  0
 18 42  1  0  0  0  0
 18 43  1  0  0  0  0
 19 44  1  0  0  0  0
 19 45  1  0  0  0  0
 19 46  1  0  0  0  0
 20 21  1  0  0  0  0
 20 47  1  0  0  0  0
 20 48  1  0  0  0  0
 21 22  1  0  0  0  0
 21 23  1  0  0  0  0
 21 49  1  0  0  0  0
 22 50  1  0  0  0  0
 22 51  1  0  0  0  0
 22 52  1  0  0  0  0
M  CHG  1  16   1
M  END
> <s_m_source_file>
AV-unprocessed.smi

> <i_m_source_file_index>
1762

> <i_lp_mmshare_version>
43012

> <i_f3d_flags>
0

> <s_epik_input>
W0NIM11bQ0BASF0xW0NIMl1OKFtDSDJdW0NASF0oTzEpW0NIM10pW0NAQEhdKFtDSF0oW0NIM10pW0NIM10pQyg9TylbTkhdW0NIMl1bQ0gyXWMyW2NIXVtjSF1bY0hdW2NIXW4y

> <s_epik_cmdline>
J2VwaWtfcHl0aG9uJywgJy1waCcsICc3LjAnLCAnLXRuJywgJzgnLCAnLW1hJywgJzIwMCcsICctbWV0YWxfYmluZGluZycsICctaW1hZScsICc8aW5maWxlLm1hZT4nLCAnLW9tYWUnLCAnPG91dGZpbGUubWFlPic=

> <r_epik_Ionization_Penalty>
1.86475

> <r_epik_Ionization_Penalty_Charging>
1.85347

> <r_epik_Ionization_Penalty_Neutral>
0.0112771

> <r_epik_State_Penalty>
1.99714

> <r_epik_Charging_Adjusted_Penalty>
3.85061

> <i_epik_Tot_Q>
1

> <i_epik_Tot_abs_Q>
1

> <r_epik_Metal_State_Penalty>
2.02271

> <b_epik_Metal_Only>
0

> <s_lp_Force_Field>
OPLS_2005

> <r_lp_Energy>
32.1869

> <b_lp_Chiralities_Consistent>
1

> <s_lp_Variant>
AV-unprocessed.smi:1762-10

> <Gold.Version>
5.8.1

> <Gold.Id.Protein>
6NUR|6NUR_protein|mol2

> <Gold.PLP.Fitness>
45.3772

> <Gold.PLP.PLP>
-39.7781

> <Gold.PLP.part.hbond>
-3.0000

> <Gold.PLP.part.metal>
0.0000

> <Gold.PLP.part.buried>
-4.6806

> <Gold.PLP.part.nonpolar>
-31.9348

> <Gold.PLP.part.repulsive>
0.3313

> <Gold.PLP.ligand.clash>
0.0000

> <Gold.PLP.ligand.torsion>
1.2139

> <Gold.PLP.Chemscore.Hbond>
2.5680

> <Gold.PLP.Chemscore.CHOScore>
0.0000

> <Gold.PLP.Chemscore.Metal>
0.0000

> <Gold.Chemscore.Hbonds>
donor molecule, donor type, donor heavy atom, donor atom, acceptor molecule, acceptor atom, score
      L1  H     8    31       P1  7948  0.74
      L1  H    16    53       P1 10747  0.88
      P1  H  7989  7998       L1    23  1.00

> <Gold.PLP.Chemscore.Internal.Correction>
0.3228

> <Gold.Rescore>
     Score         DG    S(hbond)    S(metal)    S(lipo)     H(rot)  DE(clash)    DE(int)     intcor
     19.08     -20.88       2.10        0.00     109.30       1.72       0.50       1.30       ----

> <Gold.Chemscore.Fitness>
19.0791

> <Gold.Chemscore.DG>
-20.8824

> <Gold.Chemscore.ZeroCoef>
-5.4800

> <Gold.Chemscore.Hbond>
2.0991

> <Gold.Chemscore.Metal>
0.0000

> <Gold.Chemscore.Lipo>
109.2979

> <Gold.Chemscore.Internal_Hbond>
0.0000

> <Gold.Chemscore.DEClash>
0.5002

> <Gold.Chemscore.DEInternal>
1.3032

> <Gold.Chemscore.Rot>
1.7174

> <Gold.Chemscore.Internal.Correction>
   9.000000E+99

> <Gold.Chemscore.Hbonds>
donor molecule, donor type, donor heavy atom, donor atom, acceptor molecule, acceptor atom, score
      L1  H     8    31       P1  7948  0.72
      L1  H    16    53       P1 10747  0.83
      P1  H  7989  7998       L1    23  0.45

> <Gold.Chemscore.Hbond.Weighted>
-7.0111

> <Gold.Chemscore.Metal.Weighted>
-0.0000

> <Gold.Chemscore.Lipo.Weighted>
-12.7879

> <Gold.Chemscore.Internal_Hbond.Weighted>
0.0000

> <Gold.Chemscore.DEClash.Weighted>
0.5002

> <Gold.Chemscore.DEInternal.Weighted>
1.3032

> <Gold.Chemscore.Rot.Weighted>
4.3966

> <Gold.Chemscore.Internal.Correction.Weighted>
   9.000000E+99

> <Gold.Protein.RotatedTorsions>
[ 6907 6896 6895 6894 ] final  104.03 input  -60.11 | X-H torsion
[ 7974 7965 7964 7962 ] final  -16.05 input  175.53 | X-H torsion
[ 8008 7997 7996 7995 ] final  -12.32 input   59.86 | X-H torsion
[ 10167 10162 10161 10158 ] final  -64.36 input  -65.29 | X-H torsion
[ 10718 10713 10712 10709 ] final   83.64 input   66.30 | X-H torsion
[ 10763 10752 10751 10750 ] final   93.54 input  -60.55 | X-H torsion
[ 11005 11000 10999 10996 ] final  110.43 input  -57.11 | X-H torsion

> <Gold.Protein.ActiveResidues>
 VAL166  LYS551  ARG553  GLY616  TRP617  ASP618  TYR619  PRO620  LYS621  CYS622 
 ASP623  PHE694  ASN695  SER759  ASP760  ASP761  ALA762  ILE779  LEU786  VAL792 
 PHE793  MET794  SER795  GLU796  ALA797  LYS798  CYS799  TRP800  GLU811  SER814 

> <Gold.Protein.RotatedAtoms>
  152.5277  133.9738  159.7774 H   0  0  0  0  0  0  0  0  0  0  0  0  # atno 6907 bound_to 6896
  151.0005  133.6053  159.2703 H   0  0  0  0  0  0  0  0  0  0  0  0  # atno 6908 bound_to 6896
  151.3164  135.0814  159.9343 H   0  0  0  0  0  0  0  0  0  0  0  0  # atno 6909 bound_to 6896
  146.2005  140.3581  142.8425 H   0  0  0  0  0  0  0  0  0  0  0  0  # atno 7974 bound_to 7965
  154.5387  140.2279  155.8678 H   0  0  0  0  0  0  0  0  0  0  0  0  # atno 8008 bound_to 7997
  156.1837  140.3094  155.9160 H   0  0  0  0  0  0  0  0  0  0  0  0  # atno 8009 bound_to 7997
  155.3302  140.0445  157.3033 H   0  0  0  0  0  0  0  0  0  0  0  0  # atno 8010 bound_to 7997
  140.5806  143.2327  151.6350 H   0  0  0  0  0  0  0  0  0  0  0  0  # atno 10167 bound_to 10162
  157.6883  131.0099  150.2554 H   0  0  0  0  0  0  0  0  0  0  0  0  # atno 10718 bound_to 10713
  153.2315  135.4321  155.0600 H   0  0  0  0  0  0  0  0  0  0  0  0  # atno 10763 bound_to 10752
  154.8299  135.3380  154.6780 H   0  0  0  0  0  0  0  0  0  0  0  0  # atno 10764 bound_to 10752
  153.7207  135.7017  153.5070 H   0  0  0  0  0  0  0  0  0  0  0  0  # atno 10765 bound_to 10752
  139.8882  134.9484  156.6278 H   0  0  0  0  0  0  0  0  0  0  0  0  # atno 11005 bound_to 11000
  144.8672  140.7223  143.6069 LP  0  0  0  0  0  0  0  0  0  0  0  0  # atno 17320 bound_to 7965
  145.3501  139.1708  143.4439 LP  0  0  0  0  0  0  0  0  0  0  0  0  # atno 17321 bound_to 7965
  139.5168  144.3336  152.0804 LP  0  0  0  0  0  0  0  0  0  0  0  0  # atno 17342 bound_to 10162
  140.2486  144.4193  150.6231 LP  0  0  0  0  0  0  0  0  0  0  0  0  # atno 17343 bound_to 10162
  156.3143  130.3776  149.7633 LP  0  0  0  0  0  0  0  0  0  0  0  0  # atno 17370 bound_to 10713
  156.5224  130.8221  151.3208 LP  0  0  0  0  0  0  0  0  0  0  0  0  # atno 17371 bound_to 10713
  140.7690  133.8754  155.8477 LP  0  0  0  0  0  0  0  0  0  0  0  0  # atno 17394 bound_to 11000
  140.9858  134.1345  157.4453 LP  0  0  0  0  0  0  0  0  0  0  0  0  # atno 17395 bound_to 11000

$$$$
