AV-unprocessed.smi:605|AV-procd|sdf|3040|dock1
  -GOLD-   2262023563D 1   1.00000     0.00000
 Structure written by MMmdl.
 34 35  0  0  0  0  0  0  0  0  2 V2000
  153.4517  142.0913  159.4933 C   0  0  0  0  0  0  0  0  0  0  0  0
  152.6049  141.5038  158.3551 C   0  0  0  0  0  0  0  0  0  0  0  0
  151.3027  142.2797  158.1096 C   0  0  0  0  0  0  0  0  0  0  0  0
  152.3611  140.0377  158.5321 C   0  0  0  0  0  0  0  0  0  0  0  0
  153.3429  139.1308  158.5510 N   0  0  0  0  0  0  0  0  0  0  0  0
  152.8636  137.8423  158.7326 N   0  0  0  0  0  0  0  0  0  0  0  0
  151.5304  137.7904  158.8599 C   0  0  0  0  0  0  0  0  0  0  0  0
  150.8666  136.6359  159.0550 N   0  5  0  0  0  0  0  0  0  0  0  0
  149.5443  136.5966  159.3686 C   0  0  0  0  0  0  0  0  0  0  0  0
  148.7574  137.4998  159.0878 O   0  0  0  0  0  0  0  0  0  0  0  0
  149.0837  135.5092  160.0173 N   0  0  0  0  0  0  0  0  0  0  0  0
  147.7069  135.2771  160.4467 C   0  0  0  0  0  0  0  0  0  0  0  0
  147.3016  136.2878  161.5373 C   0  0  0  0  0  0  0  0  0  0  0  0
  146.6850  135.4665  162.6711 C   0  0  0  0  0  0  0  0  0  0  0  0
  147.3778  134.1112  162.5769 C   0  0  0  0  0  0  0  0  0  0  0  0
  147.5405  133.8792  161.0748 C   0  0  0  0  0  0  0  0  0  0  0  0
  150.7507  139.3663  158.7347 S   0  0  0  0  0  0  0  0  0  0  0  0
  154.4041  141.5679  159.5839 H   0  0  0  0  0  0  0  0  0  0  0  0
  152.9365  142.0134  160.4511 H   0  0  0  0  0  0  0  0  0  0  0  0
  153.6696  143.1452  159.3183 H   0  0  0  0  0  0  0  0  0  0  0  0
  153.1990  141.6082  157.4464 H   0  0  0  0  0  0  0  0  0  0  0  0
  150.7699  141.8866  157.2431 H   0  0  0  0  0  0  0  0  0  0  0  0
  151.5031  143.3351  157.9238 H   0  0  0  0  0  0  0  0  0  0  0  0
  150.6346  142.2149  158.9690 H   0  0  0  0  0  0  0  0  0  0  0  0
  149.7497  134.7799  160.2258 H   0  0  0  0  0  0  0  0  0  0  0  0
  147.0351  135.3766  159.5923 H   0  0  0  0  0  0  0  0  0  0  0  0
  148.1776  136.8157  161.9178 H   0  0  0  0  0  0  0  0  0  0  0  0
  146.6114  137.0435  161.1612 H   0  0  0  0  0  0  0  0  0  0  0  0
  146.8115  135.9365  163.6468 H   0  0  0  0  0  0  0  0  0  0  0  0
  145.6154  135.3435  162.4962 H   0  0  0  0  0  0  0  0  0  0  0  0
  148.3604  134.1666  163.0478 H   0  0  0  0  0  0  0  0  0  0  0  0
  146.8161  133.3151  163.0665 H   0  0  0  0  0  0  0  0  0  0  0  0
  146.6340  133.4168  160.6819 H   0  0  0  0  0  0  0  0  0  0  0  0
  148.3657  133.2011  160.8532 H   0  0  0  0  0  0  0  0  0  0  0  0
  1  2  1  0  0  0  0
  1 18  1  0  0  0  0
  1 19  1  0  0  0  0
  1 20  1  0  0  0  0
  2  3  1  0  0  0  0
  2  4  1  0  0  0  0
  2 21  1  0  0  0  0
  3 22  1  0  0  0  0
  3 23  1  0  0  0  0
  3 24  1  0  0  0  0
  4 17  1  0  0  0  0
  4  5  2  0  0  0  0
  5  6  1  0  0  0  0
  6  7  2  0  0  0  0
  7  8  1  0  0  0  0
  7 17  1  0  0  0  0
  8  9  1  0  0  0  0
  9 10  2  0  0  0  0
  9 11  1  0  0  0  0
 11 12  1  0  0  0  0
 11 25  1  0  0  0  0
 12 16  1  0  0  0  0
 12 13  1  0  0  0  0
 12 26  1  0  0  0  0
 13 14  1  0  0  0  0
 13 27  1  0  0  0  0
 13 28  1  0  0  0  0
 14 15  1  0  0  0  0
 14 29  1  0  0  0  0
 14 30  1  0  0  0  0
 15 16  1  0  0  0  0
 15 31  1  0  0  0  0
 15 32  1  0  0  0  0
 16 33  1  0  0  0  0
 16 34  1  0  0  0  0
M  CHG  1   8  -1
M  END
> <s_m_source_file>
AV-unprocessed.smi

> <i_m_source_file_index>
605

> <i_lp_mmshare_version>
43012

> <i_f3d_flags>
0

> <s_epik_input>
W0NIM11bQ0hdKFtDSDNdKWMxbm5jKHMxKVtOSF1DKD1PKVtOSF1bQ0hdMltDSDJdW0NIMl1bQ0gyXVtDSDJdMg==

> <s_epik_cmdline>
J2VwaWtfcHl0aG9uJywgJy1waCcsICc3LjAnLCAnLXRuJywgJzgnLCAnLW1hJywgJzIwMCcsICctbWV0YWxfYmluZGluZycsICctaW1hZScsICc8aW5maWxlLm1hZT4nLCAnLW9tYWUnLCAnPG91dGZpbGUubWFlPic=

> <r_lp_tautomer_probability>
1

> <r_epik_Ionization_Penalty>
4.57432

> <r_epik_Ionization_Penalty_Charging>
4.40687

> <r_epik_Ionization_Penalty_Neutral>
0.167446

> <r_epik_State_Penalty>
4.40652

> <r_epik_Charging_Adjusted_Penalty>
8.8134

> <i_epik_Tot_Q>
-1

> <i_epik_Tot_abs_Q>
1

> <r_epik_Metal_State_Penalty>
0.774635

> <b_epik_Metal_Only>
1

> <s_lp_Force_Field>
OPLS_2005

> <r_lp_Energy>
11.4858

> <b_lp_Chiralities_Consistent>
1

> <s_lp_Variant>
AV-unprocessed.smi:605-2

> <Gold.Version>
5.8.1

> <Gold.Id.Protein>
6NUR|6NUR_protein|mol2

> <Gold.PLP.Fitness>
36.1898

> <Gold.PLP.PLP>
-28.5761

> <Gold.PLP.part.hbond>
-3.0177

> <Gold.PLP.part.metal>
0.0000

> <Gold.PLP.part.buried>
-4.5067

> <Gold.PLP.part.nonpolar>
-22.1946

> <Gold.PLP.part.repulsive>
0.4406

> <Gold.PLP.ligand.clash>
0.0000

> <Gold.PLP.ligand.torsion>
0.2844

> <Gold.PLP.Chemscore.Hbond>
2.6988

> <Gold.PLP.Chemscore.CHOScore>
0.0000

> <Gold.PLP.Chemscore.Metal>
0.0000

> <Gold.Chemscore.Hbonds>
donor molecule, donor type, donor heavy atom, donor atom, acceptor molecule, acceptor atom, score
      P1  H  6896  6909       L1     8  1.50
      P1  H  7997  8008       L1     5  0.68

> <Gold.PLP.Chemscore.Internal.Correction>
0.0862

> <Gold.Rescore>
     Score         DG    S(hbond)    S(metal)    S(lipo)     H(rot)  DE(clash)    DE(int)     intcor
     13.29     -15.03       1.01        0.00      78.76       1.18       0.01       1.74       ----

> <Gold.Chemscore.Fitness>
13.2858

> <Gold.Chemscore.DG>
-15.0333

> <Gold.Chemscore.ZeroCoef>
-5.4800

> <Gold.Chemscore.Hbond>
1.0082

> <Gold.Chemscore.Metal>
0.0000

> <Gold.Chemscore.Lipo>
78.7637

> <Gold.Chemscore.Internal_Hbond>
0.0000

> <Gold.Chemscore.DEClash>
0.0073

> <Gold.Chemscore.DEInternal>
1.7402

> <Gold.Chemscore.Rot>
1.1833

> <Gold.Chemscore.Internal.Correction>
   9.000000E+99

> <Gold.Chemscore.Hbonds>
donor molecule, donor type, donor heavy atom, donor atom, acceptor molecule, acceptor atom, score
      P1  H  6896  6909       L1     8  0.09
      P1  H  7997  8008       L1     5  0.18

> <Gold.Chemscore.Hbond.Weighted>
-3.3672

> <Gold.Chemscore.Metal.Weighted>
-0.0000

> <Gold.Chemscore.Lipo.Weighted>
-9.2154

> <Gold.Chemscore.Internal_Hbond.Weighted>
0.0000

> <Gold.Chemscore.DEClash.Weighted>
0.0073

> <Gold.Chemscore.DEInternal.Weighted>
1.7402

> <Gold.Chemscore.Rot.Weighted>
3.0293

> <Gold.Chemscore.Internal.Correction.Weighted>
   9.000000E+99

> <Gold.Protein.RotatedTorsions>
[ 6907 6896 6895 6894 ] final  101.74 input  -60.11 | X-H torsion
[ 7974 7965 7964 7962 ] final -160.89 input  175.53 | X-H torsion
[ 8008 7997 7996 7995 ] final  -93.02 input   59.86 | X-H torsion
[ 10167 10162 10161 10158 ] final  -61.00 input  -65.29 | X-H torsion
[ 10718 10713 10712 10709 ] final  -45.70 input   66.30 | X-H torsion
[ 10763 10752 10751 10750 ] final  -47.60 input  -60.55 | X-H torsion
[ 11005 11000 10999 10996 ] final -134.52 input  -57.11 | X-H torsion

> <Gold.Protein.ActiveResidues>
 VAL166  LYS551  ARG553  GLY616  TRP617  ASP618  TYR619  PRO620  LYS621  CYS622 
 ASP623  PHE694  ASN695  SER759  ASP760  ASP761  ALA762  ILE779  LEU786  VAL792 
 PHE793  MET794  SER795  GLU796  ALA797  LYS798  CYS799  TRP800  GLU811  SER814 

> <Gold.Protein.RotatedAtoms>
  152.5342  134.0080  159.7925 H   0  0  0  0  0  0  0  0  0  0  0  0  # atno 6907 bound_to 6896
  151.0288  133.5802  159.2670 H   0  0  0  0  0  0  0  0  0  0  0  0  # atno 6908 bound_to 6896
  151.2814  135.0722  159.9224 H   0  0  0  0  0  0  0  0  0  0  0  0  # atno 6909 bound_to 6896
  144.7411  140.3477  143.6122 H   0  0  0  0  0  0  0  0  0  0  0  0  # atno 7974 bound_to 7965
  154.7304  140.0503  157.0721 H   0  0  0  0  0  0  0  0  0  0  0  0  # atno 8008 bound_to 7997
  155.0309  140.3158  155.4739 H   0  0  0  0  0  0  0  0  0  0  0  0  # atno 8009 bound_to 7997
  156.2840  140.2150  156.5430 H   0  0  0  0  0  0  0  0  0  0  0  0  # atno 8010 bound_to 7997
  140.6034  143.2367  151.5876 H   0  0  0  0  0  0  0  0  0  0  0  0  # atno 10167 bound_to 10162
  156.2257  130.4169  149.8937 H   0  0  0  0  0  0  0  0  0  0  0  0  # atno 10718 bound_to 10713
  154.0640  135.6614  153.4815 H   0  0  0  0  0  0  0  0  0  0  0  0  # atno 10763 bound_to 10752
  153.0416  135.5141  154.7631 H   0  0  0  0  0  0  0  0  0  0  0  0  # atno 10764 bound_to 10752
  154.6676  135.3024  154.9751 H   0  0  0  0  0  0  0  0  0  0  0  0  # atno 10765 bound_to 10752
  140.8983  134.1724  157.4479 H   0  0  0  0  0  0  0  0  0  0  0  0  # atno 11005 bound_to 11000
  145.7309  139.1736  143.2431 LP  0  0  0  0  0  0  0  0  0  0  0  0  # atno 17320 bound_to 7965
  146.1207  140.7312  142.9459 LP  0  0  0  0  0  0  0  0  0  0  0  0  # atno 17321 bound_to 7965
  139.5307  144.2924  152.1141 LP  0  0  0  0  0  0  0  0  0  0  0  0  # atno 17342 bound_to 10162
  140.2109  144.4564  150.6386 LP  0  0  0  0  0  0  0  0  0  0  0  0  # atno 17343 bound_to 10162
  156.6568  130.8766  151.3540 LP  0  0  0  0  0  0  0  0  0  0  0  0  # atno 17370 bound_to 10713
  157.7109  130.9439  150.1087 LP  0  0  0  0  0  0  0  0  0  0  0  0  # atno 17371 bound_to 10713
  139.8738  134.9887  156.5425 LP  0  0  0  0  0  0  0  0  0  0  0  0  # atno 17394 bound_to 11000
  140.8262  133.8315  155.8941 LP  0  0  0  0  0  0  0  0  0  0  0  0  # atno 17395 bound_to 11000

$$$$
