AV-unprocessed.smi:1550|AV-procd|sdf|6229|dock8
  -GOLD-   22720 6403D 1   1.00000     0.00000
 Structure written by MMmdl.
 42 43  0  0  0  0  0  0  0  0  2 V2000
  147.3664  138.5904  157.3871 C   0  0  0  0  0  0  0  0  0  0  0  0
  148.8116  138.2375  157.7688 C   0  0  1  0  0  0  0  0  0  0  0  0
  149.3436  139.3422  158.4959 O   0  0  0  0  0  0  0  0  0  0  0  0
  149.7183  140.4690  157.7110 C   0  0  0  0  0  0  0  0  0  0  0  0
  150.6170  141.3794  158.5571 C   0  0  2  0  0  0  0  0  0  0  0  0
  150.9123  142.7154  157.8477 C   0  0  0  0  0  0  0  0  0  0  0  0
  151.8864  143.5619  158.6755 C   0  0  0  0  0  0  0  0  0  0  0  0
  153.1366  142.7383  159.0015 C   0  0  0  0  0  0  0  0  0  0  0  0
  152.7408  141.3977  159.6401 C   0  0  0  0  0  0  0  0  0  0  0  0
  151.8492  140.6960  158.7794 O   0  0  0  0  0  0  0  0  0  0  0  0
  148.8678  136.9610  158.6235 C   0  0  0  0  0  0  0  0  0  0  0  0
  149.6409  136.0558  158.3094 O   0  0  0  0  0  0  0  0  0  0  0  0
  148.0362  136.9376  159.6832 N   0  0  0  0  0  0  0  0  0  0  0  0
  147.7955  135.9007  160.5998 C   0  0  0  0  0  0  0  0  0  0  0  0
  147.8489  134.5743  160.2961 C   0  0  0  0  0  0  0  0  0  0  0  0
  147.5644  133.5384  161.2816 C   0  0  0  0  0  0  0  0  0  0  0  0
  147.6103  132.0485  160.9961 C   0  0  0  0  0  0  0  0  0  0  0  0
  148.5455  131.4648  161.7448 F   0  0  0  0  0  0  0  0  0  0  0  0
  146.4379  131.4869  161.2893 F   0  0  0  0  0  0  0  0  0  0  0  0
  147.8847  131.8057  159.7144 F   0  0  0  0  0  0  0  0  0  0  0  0
  147.2317  134.0632  162.5145 C   0  0  0  0  0  0  0  0  0  0  0  0
  147.1468  135.3571  162.8941 N   0  5  0  0  0  0  0  0  0  0  0  0
  147.4174  136.3180  161.9660 C   0  0  0  0  0  0  0  0  0  0  0  0
  147.3530  137.5167  162.2415 O   0  0  0  0  0  0  0  0  0  0  0  0
  146.8925  137.7772  156.8364 H   0  0  0  0  0  0  0  0  0  0  0  0
  147.3404  139.4763  156.7524 H   0  0  0  0  0  0  0  0  0  0  0  0
  146.7577  138.7996  158.2677 H   0  0  0  0  0  0  0  0  0  0  0  0
  149.3858  138.0989  156.8504 H   0  0  0  0  0  0  0  0  0  0  0  0
  150.2393  140.1789  156.7977 H   0  0  0  0  0  0  0  0  0  0  0  0
  148.8165  141.0075  157.4156 H   0  0  0  0  0  0  0  0  0  0  0  0
  150.1263  141.5761  159.5121 H   0  0  0  0  0  0  0  0  0  0  0  0
  151.3437  142.5217  156.8646 H   0  0  0  0  0  0  0  0  0  0  0  0
  149.9880  143.2690  157.6797 H   0  0  0  0  0  0  0  0  0  0  0  0
  152.1578  144.4692  158.1353 H   0  0  0  0  0  0  0  0  0  0  0  0
  151.4030  143.8792  159.6003 H   0  0  0  0  0  0  0  0  0  0  0  0
  153.7014  142.5520  158.0870 H   0  0  0  0  0  0  0  0  0  0  0  0
  153.7940  143.2964  159.6685 H   0  0  0  0  0  0  0  0  0  0  0  0
  153.6273  140.7844  159.8035 H   0  0  0  0  0  0  0  0  0  0  0  0
  152.2764  141.5517  160.6153 H   0  0  0  0  0  0  0  0  0  0  0  0
  147.5274  137.7886  159.8739 H   0  0  0  0  0  0  0  0  0  0  0  0
  148.0829  134.2501  159.2952 H   0  0  0  0  0  0  0  0  0  0  0  0
  146.9958  133.3298  163.3150 H   0  0  0  0  0  0  0  0  0  0  0  0
  1  2  1  0  0  0  0
  1 25  1  0  0  0  0
  1 26  1  0  0  0  0
  1 27  1  0  0  0  0
  2  3  1  0  0  0  0
  2 11  1  0  0  0  0
  2 28  1  0  0  0  0
  3  4  1  0  0  0  0
  4  5  1  0  0  0  0
  4 29  1  0  0  0  0
  4 30  1  0  0  0  0
  5 10  1  0  0  0  0
  5  6  1  0  0  0  0
  5 31  1  0  0  0  0
  6  7  1  0  0  0  0
  6 32  1  0  0  0  0
  6 33  1  0  0  0  0
  7  8  1  0  0  0  0
  7 34  1  0  0  0  0
  7 35  1  0  0  0  0
  8  9  1  0  0  0  0
  8 36  1  0  0  0  0
  8 37  1  0  0  0  0
  9 10  1  0  0  0  0
  9 38  1  0  0  0  0
  9 39  1  0  0  0  0
 11 12  2  0  0  0  0
 11 13  1  0  0  0  0
 13 14  1  0  0  0  0
 13 40  1  0  0  0  0
 14 23  1  0  0  0  0
 14 15  2  0  0  0  0
 15 16  1  0  0  0  0
 15 41  1  0  0  0  0
 16 17  1  0  0  0  0
 16 21  2  0  0  0  0
 17 18  1  0  0  0  0
 17 19  1  0  0  0  0
 17 20  1  0  0  0  0
 21 22  1  0  0  0  0
 21 42  1  0  0  0  0
 22 23  1  0  0  0  0
 23 24  2  0  0  0  0
M  CHG  1  22  -1
M  END
> <s_m_source_file>
AV-unprocessed.smi

> <i_m_source_file_index>
1550

> <i_lp_mmshare_version>
43012

> <i_f3d_flags>
0

> <s_epik_input>
TzFbQ0gyXVtDSDJdW0NIMl1bQ0gyXVtDQEhdMVtDSDJdT1tDQEBIXShbQ0gzXSlDKD1PKVtOSF1jMltjSF1jKEMoRikoRilGKVtjSF1bbkhdYzI9Tw==

> <s_epik_cmdline>
J2VwaWtfcHl0aG9uJywgJy1waCcsICc3LjAnLCAnLXRuJywgJzgnLCAnLW1hJywgJzIwMCcsICctbWV0YWxfYmluZGluZycsICctaW1hZScsICc8aW5maWxlLm1hZT4nLCAnLW9tYWUnLCAnPG91dGZpbGUubWFlPic=

> <r_epik_Ionization_Penalty>
2.54933

> <r_epik_Ionization_Penalty_Charging>
0.0583423

> <r_epik_Ionization_Penalty_Neutral>
2.49099

> <r_epik_State_Penalty>
2.65532

> <r_epik_Charging_Adjusted_Penalty>
2.71366

> <i_epik_Tot_Q>
-1

> <i_epik_Tot_abs_Q>
1

> <r_epik_Metal_State_Penalty>
0.516364

> <b_epik_Metal_Only>
0

> <s_lp_Force_Field>
OPLS_2005

> <r_lp_Energy>
27.7266

> <b_lp_Chiralities_Consistent>
1

> <s_lp_Variant>
AV-unprocessed.smi:1550-6

> <Gold.Version>
5.8.1

> <Gold.Id.Protein>
6NUR|6NUR_protein|mol2

> <Gold.PLP.Fitness>
47.9069

> <Gold.PLP.PLP>
-42.0918

> <Gold.PLP.part.hbond>
-3.1051

> <Gold.PLP.part.metal>
0.0000

> <Gold.PLP.part.buried>
-5.9545

> <Gold.PLP.part.nonpolar>
-32.9724

> <Gold.PLP.part.repulsive>
0.1939

> <Gold.PLP.ligand.clash>
0.0000

> <Gold.PLP.ligand.torsion>
0.6296

> <Gold.PLP.Chemscore.Hbond>
2.3440

> <Gold.PLP.Chemscore.CHOScore>
0.0000

> <Gold.PLP.Chemscore.Metal>
0.0000

> <Gold.Chemscore.Hbonds>
donor molecule, donor type, donor heavy atom, donor atom, acceptor molecule, acceptor atom, score
      P1  H  6896  6907       L1    12  0.67
      P1  H  6931  6943       L1    24  0.69
      P1  H  6934  6947       L1    24  0.54

> <Gold.PLP.Chemscore.Internal.Correction>
0.0423

> <Gold.Rescore>
     Score         DG    S(hbond)    S(metal)    S(lipo)     H(rot)  DE(clash)    DE(int)     intcor
     17.72     -18.36       2.49        0.00      78.90       1.82       0.00       0.64       ----

> <Gold.Chemscore.Fitness>
17.7190

> <Gold.Chemscore.DG>
-18.3557

> <Gold.Chemscore.ZeroCoef>
-5.4800

> <Gold.Chemscore.Hbond>
2.4889

> <Gold.Chemscore.Metal>
0.0000

> <Gold.Chemscore.Lipo>
78.9002

> <Gold.Chemscore.Internal_Hbond>
0.0000

> <Gold.Chemscore.DEClash>
0.0000

> <Gold.Chemscore.DEInternal>
0.6367

> <Gold.Chemscore.Rot>
1.8236

> <Gold.Chemscore.Internal.Correction>
   9.000000E+99

> <Gold.Chemscore.Hbonds>
donor molecule, donor type, donor heavy atom, donor atom, acceptor molecule, acceptor atom, score
      P1  H  6896  6907       L1    12  0.66
      P1  H  6931  6943       L1    24  0.44
      P1  H  6934  6947       L1    24  0.53

> <Gold.Chemscore.Hbond.Weighted>
-8.3128

> <Gold.Chemscore.Metal.Weighted>
-0.0000

> <Gold.Chemscore.Lipo.Weighted>
-9.2313

> <Gold.Chemscore.Internal_Hbond.Weighted>
0.0000

> <Gold.Chemscore.DEClash.Weighted>
0.0000

> <Gold.Chemscore.DEInternal.Weighted>
0.6367

> <Gold.Chemscore.Rot.Weighted>
4.6684

> <Gold.Chemscore.Internal.Correction.Weighted>
   9.000000E+99

> <Gold.Protein.RotatedTorsions>
[ 6907 6896 6895 6894 ] final  -54.73 input  -60.11 | X-H torsion
[ 7974 7965 7964 7962 ] final    3.13 input  175.53 | X-H torsion
[ 8008 7997 7996 7995 ] final  -71.15 input   59.86 | X-H torsion
[ 10167 10162 10161 10158 ] final -120.81 input  -65.29 | X-H torsion
[ 10718 10713 10712 10709 ] final  153.38 input   66.30 | X-H torsion
[ 10763 10752 10751 10750 ] final  -24.60 input  -60.55 | X-H torsion
[ 11005 11000 10999 10996 ] final  -25.22 input  -57.11 | X-H torsion

> <Gold.Protein.ActiveResidues>
 VAL166  LYS551  ARG553  GLY616  TRP617  ASP618  TYR619  PRO620  LYS621  CYS622 
 ASP623  PHE694  ASN695  SER759  ASP760  ASP761  ALA762  ILE779  LEU786  VAL792 
 PHE793  MET794  SER795  GLU796  ALA797  LYS798  CYS799  TRP800  GLU811  SER814 

> <Gold.Protein.RotatedAtoms>
  150.8313  134.7567  159.6855 H   0  0  0  0  0  0  0  0  0  0  0  0  # atno 6907 bound_to 6896
  152.4417  134.5575  159.9894 H   0  0  0  0  0  0  0  0  0  0  0  0  # atno 6908 bound_to 6896
  151.5735  133.3349  159.3030 H   0  0  0  0  0  0  0  0  0  0  0  0  # atno 6909 bound_to 6896
  146.2445  140.0731  142.8361 H   0  0  0  0  0  0  0  0  0  0  0  0  # atno 7974 bound_to 7965
  154.5065  140.0821  156.7905 H   0  0  0  0  0  0  0  0  0  0  0  0  # atno 8008 bound_to 7997
  155.3881  140.3431  155.4232 H   0  0  0  0  0  0  0  0  0  0  0  0  # atno 8009 bound_to 7997
  156.1522  140.1562  156.8739 H   0  0  0  0  0  0  0  0  0  0  0  0  # atno 8010 bound_to 7997
  140.0318  143.5241  152.2173 H   0  0  0  0  0  0  0  0  0  0  0  0  # atno 10167 bound_to 10162
  157.2455  131.0768  151.1764 H   0  0  0  0  0  0  0  0  0  0  0  0  # atno 10718 bound_to 10713
  153.6863  135.6964  153.5103 H   0  0  0  0  0  0  0  0  0  0  0  0  # atno 10763 bound_to 10752
  153.2446  135.4294  155.0733 H   0  0  0  0  0  0  0  0  0  0  0  0  # atno 10764 bound_to 10752
  154.8385  135.3516  154.6406 H   0  0  0  0  0  0  0  0  0  0  0  0  # atno 10765 bound_to 10752
  140.8918  133.7583  156.0431 H   0  0  0  0  0  0  0  0  0  0  0  0  # atno 11005 bound_to 11000
  145.0798  140.9213  143.4832 LP  0  0  0  0  0  0  0  0  0  0  0  0  # atno 17320 bound_to 7965
  145.0882  139.2909  143.5748 LP  0  0  0  0  0  0  0  0  0  0  0  0  # atno 17321 bound_to 7965
  139.6071  144.7599  151.3037 LP  0  0  0  0  0  0  0  0  0  0  0  0  # atno 17342 bound_to 10162
  140.7299  143.6896  150.7933 LP  0  0  0  0  0  0  0  0  0  0  0  0  # atno 17343 bound_to 10162
  157.3334  130.6996  149.6338 LP  0  0  0  0  0  0  0  0  0  0  0  0  # atno 17370 bound_to 10713
  155.9668  130.4301  150.4861 LP  0  0  0  0  0  0  0  0  0  0  0  0  # atno 17371 bound_to 10713
  140.8337  134.3148  157.5339 LP  0  0  0  0  0  0  0  0  0  0  0  0  # atno 17394 bound_to 11000
  139.8730  134.9378  156.3696 LP  0  0  0  0  0  0  0  0  0  0  0  0  # atno 17395 bound_to 11000

$$$$
