AV-unprocessed.smi:1920|AV-procd|sdf|7778|dock5
  -GOLD-   22720 9523D 1   1.00000     0.00000
 Structure written by MMmdl.
 37 38  0  0  0  0  0  0  0  0  2 V2000
  148.9916  140.2532  156.4902 C   0  0  0  0  0  0  0  0  0  0  0  0
  149.6327  141.1585  155.4297 C   0  0  1  0  0  0  0  0  0  0  0  0
  148.6074  141.5685  154.3510 C   0  0  0  0  0  0  0  0  0  0  0  0
  148.1518  140.4373  153.5358 N   0  0  0  0  0  0  0  0  0  0  0  0
  146.9687  140.3320  152.8500 C   0  0  0  0  0  0  0  0  0  0  0  0
  146.9756  139.1015  152.2455 C   0  0  0  0  0  0  0  0  0  0  0  0
  148.1642  138.5111  152.5818 N   0  3  0  0  0  0  0  0  0  0  0  0
  148.8802  139.3267  153.3626 C   0  0  0  0  0  0  0  0  0  0  0  0
  150.2015  142.3311  156.0934 N   0  0  0  0  0  0  0  0  0  0  0  0
  151.2162  142.3211  156.9727 C   0  0  0  0  0  0  0  0  0  0  0  0
  151.8220  141.2992  157.2955 O   0  0  0  0  0  0  0  0  0  0  0  0
  151.6159  143.6749  157.5692 C   0  0  0  0  0  0  0  0  0  0  0  0
  151.2267  143.8368  159.0550 C   0  0  2  0  0  0  0  0  0  0  0  0
  151.5209  145.2081  159.6145 C   0  0  0  0  0  0  0  0  0  0  0  0
  152.2452  145.1633  160.7303 C   0  0  0  0  0  0  0  0  0  0  0  0
  152.5819  143.7571  161.1418 C   0  0  0  0  0  0  0  0  0  0  0  0
  152.0115  142.8891  159.9980 C   0  0  0  0  0  0  0  0  0  0  0  0
  148.5871  139.3463  156.0400 H   0  0  0  0  0  0  0  0  0  0  0  0
  148.1757  140.7604  157.0064 H   0  0  0  0  0  0  0  0  0  0  0  0
  149.7221  139.9482  157.2402 H   0  0  0  0  0  0  0  0  0  0  0  0
  150.4301  140.5816  154.9574 H   0  0  0  0  0  0  0  0  0  0  0  0
  147.7206  141.9987  154.8183 H   0  0  0  0  0  0  0  0  0  0  0  0
  149.0191  142.3349  153.6919 H   0  0  0  0  0  0  0  0  0  0  0  0
  146.2258  141.1165  152.8505 H   0  0  0  0  0  0  0  0  0  0  0  0
  146.2427  138.6147  151.6186 H   0  0  0  0  0  0  0  0  0  0  0  0
  149.8508  139.1229  153.7786 H   0  0  0  0  0  0  0  0  0  0  0  0
  149.7672  143.2201  155.8904 H   0  0  0  0  0  0  0  0  0  0  0  0
  152.6955  143.7827  157.4606 H   0  0  0  0  0  0  0  0  0  0  0  0
  151.1660  144.4780  156.9828 H   0  0  0  0  0  0  0  0  0  0  0  0
  150.1573  143.6582  159.1783 H   0  0  0  0  0  0  0  0  0  0  0  0
  151.1556  146.1131  159.1512 H   0  0  0  0  0  0  0  0  0  0  0  0
  152.5575  146.0227  161.3051 H   0  0  0  0  0  0  0  0  0  0  0  0
  153.6601  143.6328  161.2471 H   0  0  0  0  0  0  0  0  0  0  0  0
  152.1082  143.5281  162.0967 H   0  0  0  0  0  0  0  0  0  0  0  0
  151.3711  142.0953  160.3836 H   0  0  0  0  0  0  0  0  0  0  0  0
  152.8316  142.4043  159.4667 H   0  0  0  0  0  0  0  0  0  0  0  0
  148.4603  137.5895  152.2850 H   0  0  0  0  0  0  0  0  0  0  0  0
  1  2  1  0  0  0  0
  1 18  1  0  0  0  0
  1 19  1  0  0  0  0
  1 20  1  0  0  0  0
  2  3  1  0  0  0  0
  2  9  1  0  0  0  0
  2 21  1  0  0  0  0
  3  4  1  0  0  0  0
  3 22  1  0  0  0  0
  3 23  1  0  0  0  0
  4  8  1  0  0  0  0
  4  5  1  0  0  0  0
  5  6  2  0  0  0  0
  5 24  1  0  0  0  0
  6  7  1  0  0  0  0
  6 25  1  0  0  0  0
  7  8  2  0  0  0  0
  7 37  1  0  0  0  0
  8 26  1  0  0  0  0
  9 10  1  0  0  0  0
  9 27  1  0  0  0  0
 10 11  2  0  0  0  0
 10 12  1  0  0  0  0
 12 13  1  0  0  0  0
 12 28  1  0  0  0  0
 12 29  1  0  0  0  0
 13 17  1  0  0  0  0
 13 14  1  0  0  0  0
 13 30  1  0  0  0  0
 14 15  2  0  0  0  0
 14 31  1  0  0  0  0
 15 16  1  0  0  0  0
 15 32  1  0  0  0  0
 16 17  1  0  0  0  0
 16 33  1  0  0  0  0
 16 34  1  0  0  0  0
 17 35  1  0  0  0  0
 17 36  1  0  0  0  0
M  CHG  1   7   1
M  END
> <s_m_source_file>
AV-unprocessed.smi

> <i_m_source_file_index>
1920

> <i_lp_mmshare_version>
43012

> <i_f3d_flags>
0

> <s_epik_input>
W2NIXTFuW2NIXVtjSF1uMVtDSDJdW0NAQEhdKFtDSDNdKVtOSF1DKD1PKVtDSDJdW0NAQEhdMltDSF09W0NIXVtDSDJdW0NIMl0y

> <s_epik_cmdline>
J2VwaWtfcHl0aG9uJywgJy1waCcsICc3LjAnLCAnLXRuJywgJzgnLCAnLW1hJywgJzIwMCcsICctbWV0YWxfYmluZGluZycsICctaW1hZScsICc8aW5maWxlLm1hZT4nLCAnLW9tYWUnLCAnPG91dGZpbGUubWFlPic=

> <r_lp_tautomer_probability>
1

> <r_epik_Ionization_Penalty>
0.24816

> <r_epik_Ionization_Penalty_Charging>
0

> <r_epik_Ionization_Penalty_Neutral>
0.24816

> <r_epik_State_Penalty>
0.2394

> <r_epik_Charging_Adjusted_Penalty>
0.2394

> <i_epik_Tot_Q>
1

> <i_epik_Tot_abs_Q>
1

> <r_epik_Metal_State_Penalty>
0.531457

> <b_epik_Metal_Only>
0

> <s_lp_Force_Field>
OPLS_2005

> <r_lp_Energy>
20.1539

> <b_lp_Chiralities_Consistent>
1

> <s_lp_Variant>
AV-unprocessed.smi:1920-2

> <Gold.Version>
5.8.1

> <Gold.Id.Protein>
6NUR|6NUR_protein|mol2

> <Gold.PLP.Fitness>
47.5128

> <Gold.PLP.PLP>
-37.2670

> <Gold.PLP.part.hbond>
-3.0000

> <Gold.PLP.part.metal>
0.0000

> <Gold.PLP.part.buried>
0.6620

> <Gold.PLP.part.nonpolar>
-35.1018

> <Gold.PLP.part.repulsive>
0.1794

> <Gold.PLP.ligand.clash>
0.0000

> <Gold.PLP.ligand.torsion>
0.5588

> <Gold.PLP.Chemscore.Hbond>
3.0000

> <Gold.PLP.Chemscore.CHOScore>
0.7809

> <Gold.PLP.Chemscore.Metal>
0.0000

> <Gold.Chemscore.Hbonds>
donor molecule, donor type, donor heavy atom, donor atom, acceptor molecule, acceptor atom, score
      L1  H     7    37       P1  7948  1.76
      L1  H     9    27       P1  8028  1.00
      L1  C     5    24       P1 10175  0.53

> <Gold.PLP.Chemscore.Internal.Correction>
0.0206

> <Gold.Rescore>
     Score         DG    S(hbond)    S(metal)    S(lipo)     H(rot)  DE(clash)    DE(int)     intcor
     16.12     -18.56       1.98        0.00      99.49       2.01       1.91       0.54       ----

> <Gold.Chemscore.Fitness>
16.1166

> <Gold.Chemscore.DG>
-18.5647

> <Gold.Chemscore.ZeroCoef>
-5.4800

> <Gold.Chemscore.Hbond>
1.9755

> <Gold.Chemscore.Metal>
0.0000

> <Gold.Chemscore.Lipo>
99.4858

> <Gold.Chemscore.Internal_Hbond>
0.0000

> <Gold.Chemscore.DEClash>
1.9103

> <Gold.Chemscore.DEInternal>
0.5379

> <Gold.Chemscore.Rot>
2.0130

> <Gold.Chemscore.Internal.Correction>
   9.000000E+99

> <Gold.Chemscore.Hbonds>
donor molecule, donor type, donor heavy atom, donor atom, acceptor molecule, acceptor atom, score
      L1  H     7    37       P1  7948  0.86
      L1  H     9    27       P1  8028  1.00

> <Gold.Chemscore.Hbond.Weighted>
-6.5981

> <Gold.Chemscore.Metal.Weighted>
-0.0000

> <Gold.Chemscore.Lipo.Weighted>
-11.6398

> <Gold.Chemscore.Internal_Hbond.Weighted>
0.0000

> <Gold.Chemscore.DEClash.Weighted>
1.9103

> <Gold.Chemscore.DEInternal.Weighted>
0.5379

> <Gold.Chemscore.Rot.Weighted>
5.1533

> <Gold.Chemscore.Internal.Correction.Weighted>
   9.000000E+99

> <Gold.Protein.RotatedTorsions>
[ 6907 6896 6895 6894 ] final  156.71 input  -60.11 | X-H torsion
[ 7974 7965 7964 7962 ] final  157.32 input  175.53 | X-H torsion
[ 8008 7997 7996 7995 ] final  172.24 input   59.86 | X-H torsion
[ 10167 10162 10161 10158 ] final -120.57 input  -65.29 | X-H torsion
[ 10718 10713 10712 10709 ] final  -83.11 input   66.30 | X-H torsion
[ 10763 10752 10751 10750 ] final  114.37 input  -60.55 | X-H torsion
[ 11005 11000 10999 10996 ] final  -13.46 input  -57.11 | X-H torsion

> <Gold.Protein.ActiveResidues>
 VAL166  LYS551  ARG553  GLY616  TRP617  ASP618  TYR619  PRO620  LYS621  CYS622 
 ASP623  PHE694  ASN695  SER759  ASP760  ASP761  ALA762  ILE779  LEU786  VAL792 
 PHE793  MET794  SER795  GLU796  ALA797  LYS798  CYS799  TRP800  GLU811  SER814 

> <Gold.Protein.RotatedAtoms>
  152.0257  133.3917  159.4276 H   0  0  0  0  0  0  0  0  0  0  0  0  # atno 6907 bound_to 6896
  150.6886  134.3576  159.4945 H   0  0  0  0  0  0  0  0  0  0  0  0  # atno 6908 bound_to 6896
  152.1356  134.9101  160.0607 H   0  0  0  0  0  0  0  0  0  0  0  0  # atno 6909 bound_to 6896
  144.7910  139.7324  143.6221 H   0  0  0  0  0  0  0  0  0  0  0  0  # atno 7974 bound_to 7965
  156.1193  140.1491  156.9227 H   0  0  0  0  0  0  0  0  0  0  0  0  # atno 8008 bound_to 7997
  154.4824  140.0875  156.7449 H   0  0  0  0  0  0  0  0  0  0  0  0  # atno 8009 bound_to 7997
  155.4457  140.3433  155.4297 H   0  0  0  0  0  0  0  0  0  0  0  0  # atno 8010 bound_to 7997
  140.0344  143.5215  152.2160 H   0  0  0  0  0  0  0  0  0  0  0  0  # atno 10167 bound_to 10162
  156.0023  130.4655  150.4207 H   0  0  0  0  0  0  0  0  0  0  0  0  # atno 10718 bound_to 10713
  153.5063  135.3627  155.2565 H   0  0  0  0  0  0  0  0  0  0  0  0  # atno 10763 bound_to 10752
  154.8745  135.4012  154.3420 H   0  0  0  0  0  0  0  0  0  0  0  0  # atno 10764 bound_to 10752
  153.4065  135.7076  153.6455 H   0  0  0  0  0  0  0  0  0  0  0  0  # atno 10765 bound_to 10752
  140.7763  133.8398  155.9252 H   0  0  0  0  0  0  0  0  0  0  0  0  # atno 11005 bound_to 11000
  146.2162  139.5554  142.9648 LP  0  0  0  0  0  0  0  0  0  0  0  0  # atno 17320 bound_to 7965
  145.5794  141.0384  143.2130 LP  0  0  0  0  0  0  0  0  0  0  0  0  # atno 17321 bound_to 7965
  139.6054  144.7595  151.3073 LP  0  0  0  0  0  0  0  0  0  0  0  0  # atno 17342 bound_to 10162
  140.7288  143.6926  150.7909 LP  0  0  0  0  0  0  0  0  0  0  0  0  # atno 17343 bound_to 10162
  157.2263  131.0494  151.2518 LP  0  0  0  0  0  0  0  0  0  0  0  0  # atno 17370 bound_to 10713
  157.3753  130.7202  149.6593 LP  0  0  0  0  0  0  0  0  0  0  0  0  # atno 17371 bound_to 10713
  140.9525  134.1760  157.4716 LP  0  0  0  0  0  0  0  0  0  0  0  0  # atno 17394 bound_to 11000
  139.8748  134.9915  156.5550 LP  0  0  0  0  0  0  0  0  0  0  0  0  # atno 17395 bound_to 11000

$$$$
