AV-unprocessed.smi:1522|AV-procd|sdf|6135|dock8
  -GOLD-   22720 6273D 1   1.00000     0.00000
 Structure written by MMmdl.
 35 36  0  0  0  0  0  0  0  0  2 V2000
  142.8828  135.4117  153.3231 C   0  0  0  0  0  0  0  0  0  0  0  0
  144.0467  135.2863  152.3140 C   0  0  1  0  0  0  0  0  0  0  0  0
  145.3473  134.8397  153.0242 C   0  0  0  0  0  0  0  0  0  0  0  0
  146.3432  135.9062  153.0674 N   0  0  0  0  0  0  0  0  0  0  0  0
  146.3003  136.9590  153.8959 C   0  0  0  0  0  0  0  0  0  0  0  0
  145.4093  137.1292  154.7281 O   0  0  0  0  0  0  0  0  0  0  0  0
  147.3432  137.7832  153.6925 N   0  0  0  0  0  0  0  0  0  0  0  0
  147.6348  139.0099  154.3464 C   0  0  0  0  0  0  0  0  0  0  0  0
  146.7011  139.9120  154.6871 N   0  0  0  0  0  0  0  0  0  0  0  0
  147.2546  141.0226  155.3107 N   0  0  0  0  0  0  0  0  0  0  0  0
  148.5822  140.9149  155.4152 C   0  0  0  0  0  0  0  0  0  0  0  0
  149.2864  139.4460  154.7617 S   0  0  0  0  0  0  0  0  0  0  0  0
  143.6930  134.3502  151.2062 N   0  3  0  0  0  0  0  0  0  0  0  0
  144.6278  134.3456  150.0598 C   0  0  0  0  0  0  0  0  0  0  0  0
  144.3690  133.0401  149.3045 C   0  0  0  0  0  0  0  0  0  0  0  0
  143.6767  132.1159  150.3092 C   0  0  0  0  0  0  0  0  0  0  0  0
  143.5521  132.9309  151.5988 C   0  0  0  0  0  0  0  0  0  0  0  0
  143.1264  136.0876  154.1429 H   0  0  0  0  0  0  0  0  0  0  0  0
  142.6330  134.4439  153.7594 H   0  0  0  0  0  0  0  0  0  0  0  0
  141.9814  135.8125  152.8599 H   0  0  0  0  0  0  0  0  0  0  0  0
  144.2194  136.2710  151.8766 H   0  0  0  0  0  0  0  0  0  0  0  0
  145.1078  134.4960  154.0322 H   0  0  0  0  0  0  0  0  0  0  0  0
  145.8103  134.0001  152.5057 H   0  0  0  0  0  0  0  0  0  0  0  0
  147.1149  135.8399  152.4198 H   0  0  0  0  0  0  0  0  0  0  0  0
  148.0024  137.5069  152.9799 H   0  0  0  0  0  0  0  0  0  0  0  0
  149.1505  141.7064  155.8808 H   0  0  0  0  0  0  0  0  0  0  0  0
  144.4896  135.2153  149.4169 H   0  0  0  0  0  0  0  0  0  0  0  0
  145.6553  134.3565  150.4275 H   0  0  0  0  0  0  0  0  0  0  0  0
  143.7108  133.2192  148.4533 H   0  0  0  0  0  0  0  0  0  0  0  0
  145.2941  132.6103  148.9192 H   0  0  0  0  0  0  0  0  0  0  0  0
  142.6892  131.8389  149.9379 H   0  0  0  0  0  0  0  0  0  0  0  0
  144.2362  131.1943  150.4728 H   0  0  0  0  0  0  0  0  0  0  0  0
  144.3596  132.6599  152.2810 H   0  0  0  0  0  0  0  0  0  0  0  0
  142.6047  132.7397  152.1036 H   0  0  0  0  0  0  0  0  0  0  0  0
  142.7953  134.6359  150.8413 H   0  0  0  0  0  0  0  0  0  0  0  0
  1  2  1  0  0  0  0
  1 18  1  0  0  0  0
  1 19  1  0  0  0  0
  1 20  1  0  0  0  0
  2  3  1  0  0  0  0
  2 13  1  0  0  0  0
  2 21  1  0  0  0  0
  3  4  1  0  0  0  0
  3 22  1  0  0  0  0
  3 23  1  0  0  0  0
  4  5  1  0  0  0  0
  4 24  1  0  0  0  0
  5  6  2  0  0  0  0
  5  7  1  0  0  0  0
  7  8  1  0  0  0  0
  7 25  1  0  0  0  0
  8 12  1  0  0  0  0
  8  9  2  0  0  0  0
  9 10  1  0  0  0  0
 10 11  2  0  0  0  0
 11 12  1  0  0  0  0
 11 26  1  0  0  0  0
 13 17  1  0  0  0  0
 13 14  1  0  0  0  0
 13 35  1  0  0  0  0
 14 15  1  0  0  0  0
 14 27  1  0  0  0  0
 14 28  1  0  0  0  0
 15 16  1  0  0  0  0
 15 29  1  0  0  0  0
 15 30  1  0  0  0  0
 16 17  1  0  0  0  0
 16 31  1  0  0  0  0
 16 32  1  0  0  0  0
 17 33  1  0  0  0  0
 17 34  1  0  0  0  0
M  CHG  1  13   1
M  END
> <s_m_source_file>
AV-unprocessed.smi

> <i_m_source_file_index>
1522

> <i_lp_mmshare_version>
43012

> <i_f3d_flags>
0

> <s_epik_input>
W0NIMl0xW0NIMl1bQ0gyXVtDSDJdTjFbQ0BIXShbQ0gzXSlbQ0gyXVtOSF1DKD1PKVtOSF1jMm5uW2NIXXMy

> <s_epik_cmdline>
J2VwaWtfcHl0aG9uJywgJy1waCcsICc3LjAnLCAnLXRuJywgJzgnLCAnLW1hJywgJzIwMCcsICctbWV0YWxfYmluZGluZycsICctaW1hZScsICc8aW5maWxlLm1hZT4nLCAnLW9tYWUnLCAnPG91dGZpbGUubWFlPic=

> <r_lp_tautomer_probability>
1

> <r_epik_Ionization_Penalty>
0.00457064

> <r_epik_Ionization_Penalty_Charging>
0.000848324

> <r_epik_Ionization_Penalty_Neutral>
0.00372231

> <r_epik_State_Penalty>
-0

> <r_epik_Charging_Adjusted_Penalty>
0.000848324

> <i_epik_Tot_Q>
1

> <i_epik_Tot_abs_Q>
1

> <r_epik_Metal_State_Penalty>
0.370178

> <b_epik_Metal_Only>
0

> <s_lp_Force_Field>
OPLS_2005

> <r_lp_Energy>
30.6198

> <b_lp_Chiralities_Consistent>
1

> <s_lp_Variant>
AV-unprocessed.smi:1522-2

> <Gold.Version>
5.8.1

> <Gold.Id.Protein>
6NUR|6NUR_protein|mol2

> <Gold.PLP.Fitness>
37.6164

> <Gold.PLP.PLP>
-24.9398

> <Gold.PLP.part.hbond>
-3.0000

> <Gold.PLP.part.metal>
0.0000

> <Gold.PLP.part.buried>
-1.7308

> <Gold.PLP.part.nonpolar>
-21.7663

> <Gold.PLP.part.repulsive>
0.4525

> <Gold.PLP.ligand.clash>
0.0000

> <Gold.PLP.ligand.torsion>
1.1769

> <Gold.PLP.Chemscore.Hbond>
4.0000

> <Gold.PLP.Chemscore.CHOScore>
1.0000

> <Gold.PLP.Chemscore.Metal>
0.0000

> <Gold.Chemscore.Hbonds>
donor molecule, donor type, donor heavy atom, donor atom, acceptor molecule, acceptor atom, score
      L1  H     4    24       P1  7948  1.00
      L1  H     7    25       P1  7948  1.00
      L1  H    13    35       P1 10186  0.97

> <Gold.PLP.Chemscore.Internal.Correction>
0.0304

> <Gold.Rescore>
     Score         DG    S(hbond)    S(metal)    S(lipo)     H(rot)  DE(clash)    DE(int)     intcor
     12.25     -15.20       2.10        0.00      60.32       1.70       0.87       2.08       ----

> <Gold.Chemscore.Fitness>
12.2465

> <Gold.Chemscore.DG>
-15.2020

> <Gold.Chemscore.ZeroCoef>
-5.4800

> <Gold.Chemscore.Hbond>
2.1027

> <Gold.Chemscore.Metal>
0.0000

> <Gold.Chemscore.Lipo>
60.3246

> <Gold.Chemscore.Internal_Hbond>
0.0000

> <Gold.Chemscore.DEClash>
0.8707

> <Gold.Chemscore.DEInternal>
2.0848

> <Gold.Chemscore.Rot>
1.7028

> <Gold.Chemscore.Internal.Correction>
   9.000000E+99

> <Gold.Chemscore.Hbonds>
donor molecule, donor type, donor heavy atom, donor atom, acceptor molecule, acceptor atom, score
      L1  H     4    24       P1  7948  0.97
      L1  H     7    25       P1  7948  0.98
      L1  H    13    35       P1 10186  0.08

> <Gold.Chemscore.Hbond.Weighted>
-7.0232

> <Gold.Chemscore.Metal.Weighted>
-0.0000

> <Gold.Chemscore.Lipo.Weighted>
-7.0580

> <Gold.Chemscore.Internal_Hbond.Weighted>
0.0000

> <Gold.Chemscore.DEClash.Weighted>
0.8707

> <Gold.Chemscore.DEInternal.Weighted>
2.0848

> <Gold.Chemscore.Rot.Weighted>
4.3592

> <Gold.Chemscore.Internal.Correction.Weighted>
   9.000000E+99

> <Gold.Protein.RotatedTorsions>
[ 6907 6896 6895 6894 ] final -157.46 input  -60.11 | X-H torsion
[ 7974 7965 7964 7962 ] final  -64.82 input  175.53 | X-H torsion
[ 8008 7997 7996 7995 ] final  110.47 input   59.86 | X-H torsion
[ 10167 10162 10161 10158 ] final  152.51 input  -65.29 | X-H torsion
[ 10718 10713 10712 10709 ] final -169.87 input   66.30 | X-H torsion
[ 10763 10752 10751 10750 ] final -152.41 input  -60.55 | X-H torsion
[ 11005 11000 10999 10996 ] final   69.17 input  -57.11 | X-H torsion

> <Gold.Protein.ActiveResidues>
 VAL166  LYS551  ARG553  GLY616  TRP617  ASP618  TYR619  PRO620  LYS621  CYS622 
 ASP623  PHE694  ASN695  SER759  ASP760  ASP761  ALA762  ILE779  LEU786  VAL792 
 PHE793  MET794  SER795  GLU796  ALA797  LYS798  CYS799  TRP800  GLU811  SER814 

> <Gold.Protein.RotatedAtoms>
  151.3032  133.4113  159.2641 H   0  0  0  0  0  0  0  0  0  0  0  0  # atno 6907 bound_to 6896
  151.0177  134.9446  159.8053 H   0  0  0  0  0  0  0  0  0  0  0  0  # atno 6908 bound_to 6896
  152.5317  134.2995  159.9126 H   0  0  0  0  0  0  0  0  0  0  0  0  # atno 6909 bound_to 6896
  145.7620  140.8857  143.0425 H   0  0  0  0  0  0  0  0  0  0  0  0  # atno 7974 bound_to 7965
  156.2055  140.3038  155.9618 H   0  0  0  0  0  0  0  0  0  0  0  0  # atno 8008 bound_to 7997
  155.2851  140.0439  157.3035 H   0  0  0  0  0  0  0  0  0  0  0  0  # atno 8009 bound_to 7997
  154.5628  140.2325  155.8318 H   0  0  0  0  0  0  0  0  0  0  0  0  # atno 8010 bound_to 7997
  139.4832  144.5352  151.7657 H   0  0  0  0  0  0  0  0  0  0  0  0  # atno 10167 bound_to 10162
  156.7179  130.9258  151.3095 H   0  0  0  0  0  0  0  0  0  0  0  0  # atno 10718 bound_to 10713
  154.7996  135.3237  154.7583 H   0  0  0  0  0  0  0  0  0  0  0  0  # atno 10763 bound_to 10752
  153.8254  135.6884  153.4826 H   0  0  0  0  0  0  0  0  0  0  0  0  # atno 10764 bound_to 10752
  153.1705  135.4625  154.9839 H   0  0  0  0  0  0  0  0  0  0  0  0  # atno 10765 bound_to 10752
  139.9669  134.6965  156.0526 H   0  0  0  0  0  0  0  0  0  0  0  0  # atno 11005 bound_to 11000
  144.6829  139.9735  143.7482 LP  0  0  0  0  0  0  0  0  0  0  0  0  # atno 17320 bound_to 7965
  146.0255  139.3288  143.0787 LP  0  0  0  0  0  0  0  0  0  0  0  0  # atno 17321 bound_to 7965
  140.4883  144.1347  150.5945 LP  0  0  0  0  0  0  0  0  0  0  0  0  # atno 17342 bound_to 10162
  140.4199  143.2616  151.9728 LP  0  0  0  0  0  0  0  0  0  0  0  0  # atno 17343 bound_to 10162
  157.6910  130.9233  150.0513 LP  0  0  0  0  0  0  0  0  0  0  0  0  # atno 17370 bound_to 10713
  156.1615  130.3644  149.9293 LP  0  0  0  0  0  0  0  0  0  0  0  0  # atno 17371 bound_to 10713
  141.1349  133.6577  156.3566 LP  0  0  0  0  0  0  0  0  0  0  0  0  # atno 17394 bound_to 11000
  140.5377  134.6151  157.5370 LP  0  0  0  0  0  0  0  0  0  0  0  0  # atno 17395 bound_to 11000

$$$$
