AV-unprocessed.smi:438|AV-procd|sdf|2575|dock7
  -GOLD-   2262022553D 1   1.00000     0.00000
 Structure written by MMmdl.
 48 49  0  0  0  0  0  0  0  0  1 V2000
  146.8550  139.1032  152.8665 C   0  0  0  0  0  0  0  0  0  0  0  0
  148.0782  139.6172  153.6031 C   0  0  0  0  0  0  0  0  0  0  0  0
  149.0168  138.6901  153.8946 N   0  0  0  0  0  0  0  0  0  0  0  0
  150.1109  139.1228  154.5190 C   0  0  0  0  0  0  0  0  0  0  0  0
  151.3438  137.8814  154.8560 S   0  0  0  0  0  0  0  0  0  0  0  0
  151.3939  137.8891  156.6755 C   0  0  0  0  0  0  0  0  0  0  0  0
  151.8968  139.2091  157.2596 C   0  0  0  0  0  0  0  0  0  0  0  0
  153.0545  139.5681  157.0476 O   0  0  0  0  0  0  0  0  0  0  0  0
  151.0170  139.9106  157.9951 N   0  0  0  0  0  0  0  0  0  0  0  0
  151.2487  141.1807  158.6900 C   0  0  2  0  0  0  0  0  0  0  0  0
  150.7126  142.3833  157.8811 C   0  0  0  0  0  0  0  0  0  0  0  0
  150.8803  143.6963  158.6591 C   0  0  0  0  0  0  0  0  0  0  0  0
  152.3466  143.9114  159.0611 C   0  0  0  0  0  0  0  0  0  0  0  0
  152.8791  142.7229  159.8774 C   0  0  0  0  0  0  0  0  0  0  0  0
  152.7270  141.3876  159.1200 C   0  0  1  0  0  0  0  0  0  0  0  0
  153.2661  140.2242  159.9711 C   0  0  0  0  0  0  0  0  0  0  0  0
  150.3779  140.3699  154.9102 N   0  0  0  0  0  0  0  0  0  0  0  0
  149.4499  141.3085  154.6277 C   0  0  0  0  0  0  0  0  0  0  0  0
  149.7072  142.5937  155.0083 O   0  0  0  0  0  0  0  0  0  0  0  0
  148.2454  140.9816  153.9558 C   0  0  0  0  0  0  0  0  0  0  0  0
  147.2003  142.0467  153.6389 C   0  0  0  0  0  0  0  0  0  0  0  0
  146.4746  142.5657  154.8908 C   0  0  0  0  0  0  0  0  0  0  0  0
  145.5010  143.5260  154.5411 O   0  0  0  0  0  0  0  0  0  0  0  0
  145.9447  139.3449  153.4141 H   0  0  0  0  0  0  0  0  0  0  0  0
  146.8917  138.0203  152.7416 H   0  0  0  0  0  0  0  0  0  0  0  0
  146.7940  139.5519  151.8750 H   0  0  0  0  0  0  0  0  0  0  0  0
  150.4022  137.6617  157.0681 H   0  0  0  0  0  0  0  0  0  0  0  0
  152.0497  137.0835  157.0063 H   0  0  0  0  0  0  0  0  0  0  0  0
  150.0940  139.5143  158.1008 H   0  0  0  0  0  0  0  0  0  0  0  0
  150.6516  141.1149  159.6006 H   0  0  0  0  0  0  0  0  0  0  0  0
  151.2377  142.4699  156.9296 H   0  0  0  0  0  0  0  0  0  0  0  0
  149.6597  142.2329  157.6396 H   0  0  0  0  0  0  0  0  0  0  0  0
  150.5339  144.5342  158.0534 H   0  0  0  0  0  0  0  0  0  0  0  0
  150.2530  143.6781  159.5512 H   0  0  0  0  0  0  0  0  0  0  0  0
  152.9566  144.0432  158.1665 H   0  0  0  0  0  0  0  0  0  0  0  0
  152.4420  144.8313  159.6389 H   0  0  0  0  0  0  0  0  0  0  0  0
  153.9279  142.8934  160.1230 H   0  0  0  0  0  0  0  0  0  0  0  0
  152.3464  142.6702  160.8280 H   0  0  0  0  0  0  0  0  0  0  0  0
  153.3456  141.4519  158.2242 H   0  0  0  0  0  0  0  0  0  0  0  0
  152.6861  140.1002  160.8859 H   0  0  0  0  0  0  0  0  0  0  0  0
  154.3049  140.3942  160.2549 H   0  0  0  0  0  0  0  0  0  0  0  0
  153.2323  139.2814  159.4278 H   0  0  0  0  0  0  0  0  0  0  0  0
  148.9249  143.1219  155.0502 H   0  0  0  0  0  0  0  0  0  0  0  0
  147.7063  142.8802  153.1509 H   0  0  0  0  0  0  0  0  0  0  0  0
  146.4788  141.6852  152.9068 H   0  0  0  0  0  0  0  0  0  0  0  0
  146.0098  141.7518  155.4481 H   0  0  0  0  0  0  0  0  0  0  0  0
  147.1901  143.0440  155.5600 H   0  0  0  0  0  0  0  0  0  0  0  0
  144.8784  143.1234  153.9550 H   0  0  0  0  0  0  0  0  0  0  0  0
  1  2  1  0  0  0  0
  1 24  1  0  0  0  0
  1 25  1  0  0  0  0
  1 26  1  0  0  0  0
  2 20  1  0  0  0  0
  2  3  2  0  0  0  0
  3  4  1  0  0  0  0
  4  5  1  0  0  0  0
  4 17  2  0  0  0  0
  5  6  1  0  0  0  0
  6  7  1  0  0  0  0
  6 27  1  0  0  0  0
  6 28  1  0  0  0  0
  7  8  2  0  0  0  0
  7  9  1  0  0  0  0
  9 10  1  0  0  0  0
  9 29  1  0  0  0  0
 10 15  1  0  0  0  0
 10 11  1  0  0  0  0
 10 30  1  0  0  0  0
 11 12  1  0  0  0  0
 11 31  1  0  0  0  0
 11 32  1  0  0  0  0
 12 13  1  0  0  0  0
 12 33  1  0  0  0  0
 12 34  1  0  0  0  0
 13 14  1  0  0  0  0
 13 35  1  0  0  0  0
 13 36  1  0  0  0  0
 14 15  1  0  0  0  0
 14 37  1  0  0  0  0
 14 38  1  0  0  0  0
 15 16  1  0  0  0  0
 15 39  1  0  0  0  0
 16 40  1  0  0  0  0
 16 41  1  0  0  0  0
 16 42  1  0  0  0  0
 17 18  1  0  0  0  0
 18 19  1  0  0  0  0
 18 20  2  0  0  0  0
 19 43  1  0  0  0  0
 20 21  1  0  0  0  0
 21 22  1  0  0  0  0
 21 44  1  0  0  0  0
 21 45  1  0  0  0  0
 22 23  1  0  0  0  0
 22 46  1  0  0  0  0
 22 47  1  0  0  0  0
 23 48  1  0  0  0  0
M  END
> <s_m_source_file>
AV-unprocessed.smi

> <i_m_source_file_index>
438

> <i_lp_mmshare_version>
43012

> <i_f3d_flags>
0

> <s_epik_input>
W09IXVtDSDJdW0NIMl1jMWMoW09IXSluYyhuYzFbQ0gzXSlTW0NIMl1DKD1PKVtOSF1bQ0BASF0yW0NIMl1bQ0gyXVtDSDJdW0NIMl1bQ0BIXTJbQ0gzXQ==

> <s_epik_cmdline>
J2VwaWtfcHl0aG9uJywgJy1waCcsICc3LjAnLCAnLXRuJywgJzgnLCAnLW1hJywgJzIwMCcsICctbWV0YWxfYmluZGluZycsICctaW1hZScsICc8aW5maWxlLm1hZT4nLCAnLW9tYWUnLCAnPG91dGZpbGUubWFlPic=

> <r_lp_tautomer_probability>
0.0660145

> <r_epik_Ionization_Penalty>
2.91405

> <r_epik_Ionization_Penalty_Charging>
0

> <r_epik_Ionization_Penalty_Neutral>
2.91405

> <r_epik_State_Penalty>
2.44767

> <r_epik_Charging_Adjusted_Penalty>
2.44767

> <i_epik_Tot_Q>
0

> <i_epik_Tot_abs_Q>
0

> <r_epik_Metal_State_Penalty>
3.04288

> <b_epik_Metal_Only>
0

> <s_lp_Force_Field>
OPLS_2005

> <r_lp_Energy>
1.00415

> <b_lp_Chiralities_Consistent>
1

> <s_lp_Variant>
AV-unprocessed.smi:438-13

> <Gold.Version>
5.8.1

> <Gold.Id.Protein>
6NUR|6NUR_protein|mol2

> <Gold.PLP.Fitness>
50.3114

> <Gold.PLP.PLP>
-44.1311

> <Gold.PLP.part.hbond>
-2.8439

> <Gold.PLP.part.metal>
0.0000

> <Gold.PLP.part.buried>
-4.0841

> <Gold.PLP.part.nonpolar>
-37.3768

> <Gold.PLP.part.repulsive>
0.4078

> <Gold.PLP.ligand.clash>
0.0000

> <Gold.PLP.ligand.torsion>
0.4664

> <Gold.PLP.Chemscore.Hbond>
2.3418

> <Gold.PLP.Chemscore.CHOScore>
0.0000

> <Gold.PLP.Chemscore.Metal>
0.0000

> <Gold.Chemscore.Hbonds>
donor molecule, donor type, donor heavy atom, donor atom, acceptor molecule, acceptor atom, score
      L1  H    19    43       P1  8028  0.50
      P1  H  7989  7998       L1    17  0.76
      P1  H  7997  8009       L1     8  0.98

> <Gold.PLP.Chemscore.Internal.Correction>
0.0879

> <Gold.Rescore>
     Score         DG    S(hbond)    S(metal)    S(lipo)     H(rot)  DE(clash)    DE(int)     intcor
     12.46     -14.26       1.51        0.00     107.14       3.44       0.04       1.75       ----

> <Gold.Chemscore.Fitness>
12.4616

> <Gold.Chemscore.DG>
-14.2598

> <Gold.Chemscore.ZeroCoef>
-5.4800

> <Gold.Chemscore.Hbond>
1.5090

> <Gold.Chemscore.Metal>
0.0000

> <Gold.Chemscore.Lipo>
107.1434

> <Gold.Chemscore.Internal_Hbond>
0.0000

> <Gold.Chemscore.DEClash>
0.0434

> <Gold.Chemscore.DEInternal>
1.7548

> <Gold.Chemscore.Rot>
3.4359

> <Gold.Chemscore.Internal.Correction>
   9.000000E+99

> <Gold.Chemscore.Hbonds>
donor molecule, donor type, donor heavy atom, donor atom, acceptor molecule, acceptor atom, score
      L1  H    19    43       P1  8028  0.50
      P1  H  7989  7998       L1    17  0.02
      P1  H  7997  8009       L1     8  0.90

> <Gold.Chemscore.Hbond.Weighted>
-5.0401

> <Gold.Chemscore.Metal.Weighted>
-0.0000

> <Gold.Chemscore.Lipo.Weighted>
-12.5358

> <Gold.Chemscore.Internal_Hbond.Weighted>
0.0000

> <Gold.Chemscore.DEClash.Weighted>
0.0434

> <Gold.Chemscore.DEInternal.Weighted>
1.7548

> <Gold.Chemscore.Rot.Weighted>
8.7960

> <Gold.Chemscore.Internal.Correction.Weighted>
   9.000000E+99

> <Gold.Protein.RotatedTorsions>
[ 6907 6896 6895 6894 ] final  -27.04 input  -60.11 | X-H torsion
[ 7974 7965 7964 7962 ] final  157.99 input  175.53 | X-H torsion
[ 8008 7997 7996 7995 ] final -161.58 input   59.86 | X-H torsion
[ 10167 10162 10161 10158 ] final   20.33 input  -65.29 | X-H torsion
[ 10718 10713 10712 10709 ] final -150.16 input   66.30 | X-H torsion
[ 10763 10752 10751 10750 ] final   82.60 input  -60.55 | X-H torsion
[ 11005 11000 10999 10996 ] final   53.46 input  -57.11 | X-H torsion

> <Gold.Protein.ActiveResidues>
 VAL166  LYS551  ARG553  GLY616  TRP617  ASP618  TYR619  PRO620  LYS621  CYS622 
 ASP623  PHE694  ASN695  SER759  ASP760  ASP761  ALA762  ILE779  LEU786  VAL792 
 PHE793  MET794  SER795  GLU796  ALA797  LYS798  CYS799  TRP800  GLU811  SER814 

> <Gold.Protein.RotatedAtoms>
  151.1525  135.0234  159.8674 H   0  0  0  0  0  0  0  0  0  0  0  0  # atno 6907 bound_to 6896
  152.5452  134.1372  159.8474 H   0  0  0  0  0  0  0  0  0  0  0  0  # atno 6908 bound_to 6896
  151.1459  133.4894  159.2628 H   0  0  0  0  0  0  0  0  0  0  0  0  # atno 6909 bound_to 6896
  144.7871  139.7417  143.6236 H   0  0  0  0  0  0  0  0  0  0  0  0  # atno 7974 bound_to 7965
  155.7942  140.0882  157.1992 H   0  0  0  0  0  0  0  0  0  0  0  0  # atno 8008 bound_to 7997
  154.3984  140.1484  156.3257 H   0  0  0  0  0  0  0  0  0  0  0  0  # atno 8009 bound_to 7997
  155.8528  140.3434  155.5707 H   0  0  0  0  0  0  0  0  0  0  0  0  # atno 8010 bound_to 7997
  140.5512  143.9506  150.6579 H   0  0  0  0  0  0  0  0  0  0  0  0  # atno 10167 bound_to 10162
  156.4425  130.8129  151.2359 H   0  0  0  0  0  0  0  0  0  0  0  0  # atno 10718 bound_to 10713
  153.1217  135.4722  154.9206 H   0  0  0  0  0  0  0  0  0  0  0  0  # atno 10763 bound_to 10752
  154.7582  135.3124  154.8432 H   0  0  0  0  0  0  0  0  0  0  0  0  # atno 10764 bound_to 10752
  153.8995  135.6876  153.4810 H   0  0  0  0  0  0  0  0  0  0  0  0  # atno 10765 bound_to 10752
  140.0765  134.5397  155.8991 H   0  0  0  0  0  0  0  0  0  0  0  0  # atno 11005 bound_to 11000
  146.2108  139.5463  142.9682 LP  0  0  0  0  0  0  0  0  0  0  0  0  # atno 17320 bound_to 7965
  145.5892  141.0372  143.2079 LP  0  0  0  0  0  0  0  0  0  0  0  0  # atno 17321 bound_to 7965
  140.2932  143.3310  152.1042 LP  0  0  0  0  0  0  0  0  0  0  0  0  # atno 17342 bound_to 10162
  139.5028  144.6742  151.6168 LP  0  0  0  0  0  0  0  0  0  0  0  0  # atno 17343 bound_to 10162
  157.7506  131.0163  150.3541 LP  0  0  0  0  0  0  0  0  0  0  0  0  # atno 17370 bound_to 10713
  156.3902  130.3896  149.7036 LP  0  0  0  0  0  0  0  0  0  0  0  0  # atno 17371 bound_to 10713
  141.2031  133.6630  156.6045 LP  0  0  0  0  0  0  0  0  0  0  0  0  # atno 17394 bound_to 11000
  140.3550  134.7736  157.4494 LP  0  0  0  0  0  0  0  0  0  0  0  0  # atno 17395 bound_to 11000

$$$$
