AV-unprocessed.smi:1200|AV-procd|sdf|5026|dock8
  -GOLD-   22720 4 43D 1   1.00000     0.00000
 Structure written by MMmdl.
 42 43  0  0  0  0  0  0  0  0  3 V2000
  144.1157  146.9129  154.9630 C   0  0  0  0  0  0  0  0  0  0  0  0
  143.8419  145.5187  154.6342 N   0  5  0  0  0  0  0  0  0  0  0  0
  144.3135  144.4703  155.3607 C   0  0  0  0  0  0  0  0  0  0  0  0
  145.0307  144.4444  156.3666 O   0  0  0  0  0  0  0  0  0  0  0  0
  143.8158  143.1358  154.7935 C   0  0  0  0  0  0  0  0  0  0  0  0
  144.9659  142.2432  154.5061 N   0  3  2  0  0  0  0  0  0  0  0  0
  145.5059  141.6060  155.7334 C   0  0  0  0  0  0  0  0  0  0  0  0
  146.5944  140.5718  155.3930 C   0  0  0  0  0  0  0  0  0  0  0  0
  147.7285  141.1795  154.5494 C   0  0  2  0  0  0  0  0  0  0  0  0
  148.5492  142.0766  155.3624 N   0  0  0  0  0  0  0  0  0  0  0  0
  149.4385  141.6882  156.2877 C   0  0  0  0  0  0  0  0  0  0  0  0
  149.6763  140.5087  156.5459 O   0  0  0  0  0  0  0  0  0  0  0  0
  150.0323  142.7472  156.8644 N   0  0  0  0  0  0  0  0  0  0  0  0
  151.0168  142.7639  157.8895 C   0  0  0  0  0  0  0  0  0  0  0  0
  151.7856  143.8997  158.2420 C   0  0  0  0  0  0  0  0  0  0  0  0
  152.7429  143.7809  159.2680 C   0  0  0  0  0  0  0  0  0  0  0  0
  152.9028  142.5317  159.8984 C   0  0  0  0  0  0  0  0  0  0  0  0
  152.1872  141.4377  159.5637 N   0  0  0  0  0  0  0  0  0  0  0  0
  151.2714  141.5591  158.5792 C   0  0  0  0  0  0  0  0  0  0  0  0
  147.1366  141.9000  153.3221 C   0  0  0  0  0  0  0  0  0  0  0  0
  146.0385  142.9039  153.7147 C   0  0  0  0  0  0  0  0  0  0  0  0
  143.6692  147.5951  154.2399 H   0  0  0  0  0  0  0  0  0  0  0  0
  145.1830  147.1358  154.9803 H   0  0  0  0  0  0  0  0  0  0  0  0
  143.7183  147.1942  155.9386 H   0  0  0  0  0  0  0  0  0  0  0  0
  143.0966  142.6355  155.4462 H   0  0  0  0  0  0  0  0  0  0  0  0
  143.2829  143.3673  153.8701 H   0  0  0  0  0  0  0  0  0  0  0  0
  145.9029  142.3742  156.3989 H   0  0  0  0  0  0  0  0  0  0  0  0
  144.6999  141.1070  156.2726 H   0  0  0  0  0  0  0  0  0  0  0  0
  146.9950  140.1337  156.3081 H   0  0  0  0  0  0  0  0  0  0  0  0
  146.1395  139.7499  154.8386 H   0  0  0  0  0  0  0  0  0  0  0  0
  148.3640  140.3621  154.2036 H   0  0  0  0  0  0  0  0  0  0  0  0
  148.4226  143.0673  155.2162 H   0  0  0  0  0  0  0  0  0  0  0  0
  149.7865  143.6517  156.4896 H   0  0  0  0  0  0  0  0  0  0  0  0
  151.6733  144.8494  157.7433 H   0  0  0  0  0  0  0  0  0  0  0  0
  153.3444  144.6282  159.5618 H   0  0  0  0  0  0  0  0  0  0  0  0
  153.6285  142.4069  160.6883 H   0  0  0  0  0  0  0  0  0  0  0  0
  150.7189  140.6628  158.3375 H   0  0  0  0  0  0  0  0  0  0  0  0
  147.9209  142.4050  152.7572 H   0  0  0  0  0  0  0  0  0  0  0  0
  146.7107  141.1582  152.6450 H   0  0  0  0  0  0  0  0  0  0  0  0
  145.6220  143.3426  152.8076 H   0  0  0  0  0  0  0  0  0  0  0  0
  146.4651  143.7263  154.2910 H   0  0  0  0  0  0  0  0  0  0  0  0
  144.5955  141.4965  153.9353 H   0  0  0  0  0  0  0  0  0  0  0  0
  1  2  1  0  0  0  0
  1 22  1  0  0  0  0
  1 23  1  0  0  0  0
  1 24  1  0  0  0  0
  2  3  1  0  0  0  0
  3  4  2  0  0  0  0
  3  5  1  0  0  0  0
  5  6  1  0  0  0  0
  5 25  1  0  0  0  0
  5 26  1  0  0  0  0
  6 21  1  0  0  0  0
  6  7  1  0  0  0  0
  6 42  1  0  0  0  0
  7  8  1  0  0  0  0
  7 27  1  0  0  0  0
  7 28  1  0  0  0  0
  8  9  1  0  0  0  0
  8 29  1  0  0  0  0
  8 30  1  0  0  0  0
  9 10  1  0  0  0  0
  9 20  1  0  0  0  0
  9 31  1  0  0  0  0
 10 11  1  0  0  0  0
 10 32  1  0  0  0  0
 11 12  2  0  0  0  0
 11 13  1  0  0  0  0
 13 14  1  0  0  0  0
 13 33  1  0  0  0  0
 14 19  1  0  0  0  0
 14 15  2  0  0  0  0
 15 16  1  0  0  0  0
 15 34  1  0  0  0  0
 16 17  2  0  0  0  0
 16 35  1  0  0  0  0
 17 18  1  0  0  0  0
 17 36  1  0  0  0  0
 18 19  2  0  0  0  0
 19 37  1  0  0  0  0
 20 21  1  0  0  0  0
 20 38  1  0  0  0  0
 20 39  1  0  0  0  0
 21 40  1  0  0  0  0
 21 41  1  0  0  0  0
M  CHG  1   2  -1
M  CHG  1   6   1
M  END
> <s_m_source_file>
AV-unprocessed.smi

> <i_m_source_file_index>
1200

> <i_lp_mmshare_version>
43012

> <i_f3d_flags>
0

> <s_epik_input>
W0NIM11bTkhdQyg9TylbQ0gyXU4xW0NIMl1bQ0gyXVtDSF0oW0NIMl1bQ0gyXTEpW05IXUMoPU8pW05IXWMyW2NIXVtjSF1bY0hdbltjSF0y

> <s_epik_cmdline>
J2VwaWtfcHl0aG9uJywgJy1waCcsICc3LjAnLCAnLXRuJywgJzgnLCAnLW1hJywgJzIwMCcsICctbWV0YWxfYmluZGluZycsICctaW1hZScsICc8aW5maWxlLm1hZT4nLCAnLW9tYWUnLCAnPG91dGZpbGUubWFlPic=

> <r_epik_Ionization_Penalty>
6.14345

> <r_epik_Ionization_Penalty_Charging>
6.13946

> <r_epik_Ionization_Penalty_Neutral>
0.00398477

> <r_epik_State_Penalty>
6.94483

> <r_epik_Charging_Adjusted_Penalty>
13.0843

> <i_epik_Tot_Q>
0

> <i_epik_Tot_abs_Q>
2

> <r_epik_Metal_State_Penalty>
2.87819

> <b_epik_Metal_Only>
1

> <s_lp_Force_Field>
OPLS_2005

> <r_lp_Energy>
15.1129

> <b_lp_Chiralities_Consistent>
1

> <s_lp_Variant>
AV-unprocessed.smi:1200-5

> <Gold.Version>
5.8.1

> <Gold.Id.Protein>
6NUR|6NUR_protein|mol2

> <Gold.PLP.Fitness>
47.1960

> <Gold.PLP.PLP>
-35.9607

> <Gold.PLP.part.hbond>
-3.0000

> <Gold.PLP.part.metal>
0.0000

> <Gold.PLP.part.buried>
-5.8911

> <Gold.PLP.part.nonpolar>
-28.5178

> <Gold.PLP.part.repulsive>
0.4108

> <Gold.PLP.ligand.clash>
0.0000

> <Gold.PLP.ligand.torsion>
0.3645

> <Gold.PLP.Chemscore.Hbond>
3.9760

> <Gold.PLP.Chemscore.CHOScore>
0.0000

> <Gold.PLP.Chemscore.Metal>
0.0000

> <Gold.Chemscore.Hbonds>
donor molecule, donor type, donor heavy atom, donor atom, acceptor molecule, acceptor atom, score
      L1  H     6    42       P1 10175  1.90
      L1  H    10    32       P1  8028  0.99
      L1  H    13    33       P1  8028  1.00

> <Gold.PLP.Chemscore.Internal.Correction>
0.0363

> <Gold.Rescore>
     Score         DG    S(hbond)    S(metal)    S(lipo)     H(rot)  DE(clash)    DE(int)     intcor
     17.00     -20.11       2.53        0.00      88.67       1.63       0.13       2.99       ----

> <Gold.Chemscore.Fitness>
16.9973

> <Gold.Chemscore.DG>
-20.1098

> <Gold.Chemscore.ZeroCoef>
-5.4800

> <Gold.Chemscore.Hbond>
2.5253

> <Gold.Chemscore.Metal>
0.0000

> <Gold.Chemscore.Lipo>
88.6666

> <Gold.Chemscore.Internal_Hbond>
0.0000

> <Gold.Chemscore.DEClash>
0.1274

> <Gold.Chemscore.DEInternal>
2.9851

> <Gold.Chemscore.Rot>
1.6323

> <Gold.Chemscore.Internal.Correction>
   9.000000E+99

> <Gold.Chemscore.Hbonds>
donor molecule, donor type, donor heavy atom, donor atom, acceptor molecule, acceptor atom, score
      L1  H     6    42       P1 10175  0.21
      L1  H    10    32       P1  8028  0.93
      L1  H    13    33       P1  8028  0.98

> <Gold.Chemscore.Hbond.Weighted>
-8.4344

> <Gold.Chemscore.Metal.Weighted>
-0.0000

> <Gold.Chemscore.Lipo.Weighted>
-10.3740

> <Gold.Chemscore.Internal_Hbond.Weighted>
0.0000

> <Gold.Chemscore.DEClash.Weighted>
0.1274

> <Gold.Chemscore.DEInternal.Weighted>
2.9851

> <Gold.Chemscore.Rot.Weighted>
4.1786

> <Gold.Chemscore.Internal.Correction.Weighted>
   9.000000E+99

> <Gold.Protein.RotatedTorsions>
[ 6907 6896 6895 6894 ] final  -46.78 input  -60.11 | X-H torsion
[ 7974 7965 7964 7962 ] final  -70.07 input  175.53 | X-H torsion
[ 8008 7997 7996 7995 ] final   31.58 input   59.86 | X-H torsion
[ 10167 10162 10161 10158 ] final  150.92 input  -65.29 | X-H torsion
[ 10718 10713 10712 10709 ] final -136.05 input   66.30 | X-H torsion
[ 10763 10752 10751 10750 ] final -149.94 input  -60.55 | X-H torsion
[ 11005 11000 10999 10996 ] final   56.99 input  -57.11 | X-H torsion

> <Gold.Protein.ActiveResidues>
 VAL166  LYS551  ARG553  GLY616  TRP617  ASP618  TYR619  PRO620  LYS621  CYS622 
 ASP623  PHE694  ASN695  SER759  ASP760  ASP761  ALA762  ILE779  LEU786  VAL792 
 PHE793  MET794  SER795  GLU796  ALA797  LYS798  CYS799  TRP800  GLU811  SER814 

> <Gold.Protein.RotatedAtoms>
  150.9077  134.8492  159.7403 H   0  0  0  0  0  0  0  0  0  0  0  0  # atno 6907 bound_to 6896
  152.4927  134.4407  159.9552 H   0  0  0  0  0  0  0  0  0  0  0  0  # atno 6908 bound_to 6896
  151.4452  133.3593  159.2822 H   0  0  0  0  0  0  0  0  0  0  0  0  # atno 6909 bound_to 6896
  145.6957  140.9136  143.0758 H   0  0  0  0  0  0  0  0  0  0  0  0  # atno 7974 bound_to 7965
  155.1087  140.3237  155.4527 H   0  0  0  0  0  0  0  0  0  0  0  0  # atno 8008 bound_to 7997
  156.2697  140.2048  156.6159 H   0  0  0  0  0  0  0  0  0  0  0  0  # atno 8009 bound_to 7997
  154.6773  140.0530  157.0216 H   0  0  0  0  0  0  0  0  0  0  0  0  # atno 8010 bound_to 7997
  139.4845  144.5483  151.7446 H   0  0  0  0  0  0  0  0  0  0  0  0  # atno 10167 bound_to 10162
  156.2728  130.7275  151.1248 H   0  0  0  0  0  0  0  0  0  0  0  0  # atno 10718 bound_to 10713
  154.8148  135.3296  154.7207 H   0  0  0  0  0  0  0  0  0  0  0  0  # atno 10763 bound_to 10752
  153.7849  135.6915  153.4886 H   0  0  0  0  0  0  0  0  0  0  0  0  # atno 10764 bound_to 10752
  153.1955  135.4535  155.0149 H   0  0  0  0  0  0  0  0  0  0  0  0  # atno 10765 bound_to 10752
  140.0486  134.5769  155.9291 H   0  0  0  0  0  0  0  0  0  0  0  0  # atno 11005 bound_to 11000
  144.6983  139.8880  143.7451 LP  0  0  0  0  0  0  0  0  0  0  0  0  # atno 17320 bound_to 7965
  146.0843  139.3831  143.0445 LP  0  0  0  0  0  0  0  0  0  0  0  0  # atno 17321 bound_to 7965
  140.5033  144.1136  150.5976 LP  0  0  0  0  0  0  0  0  0  0  0  0  # atno 17342 bound_to 10162
  140.4037  143.2691  151.9917 LP  0  0  0  0  0  0  0  0  0  0  0  0  # atno 17343 bound_to 10162
  157.7289  131.0628  150.5796 LP  0  0  0  0  0  0  0  0  0  0  0  0  # atno 17370 bound_to 10713
  156.5895  130.4325  149.5943 LP  0  0  0  0  0  0  0  0  0  0  0  0  # atno 17371 bound_to 10713
  141.1919  133.6573  156.5479 LP  0  0  0  0  0  0  0  0  0  0  0  0  # atno 17394 bound_to 11000
  140.3953  134.7404  157.4747 LP  0  0  0  0  0  0  0  0  0  0  0  0  # atno 17395 bound_to 11000

$$$$
