AV-unprocessed.smi:2684|AV-procd|sdf|10381|dock2
  -GOLD-   2272014413D 1   1.00000     0.00000
 Structure written by MMmdl.
 44 45  0  0  0  0  0  0  0  0  1 V2000
  143.7889  132.6977  150.2772 C   0  0  0  0  0  0  0  0  0  0  0  0
  144.9796  133.1450  151.0753 C   0  0  0  0  0  0  0  0  0  0  0  0
  145.1107  134.3256  151.8601 C   0  0  0  0  0  0  0  0  0  0  0  0
  146.2917  134.4240  152.4484 N   0  0  0  0  0  0  0  0  0  0  0  0
  146.9605  133.3208  152.0496 N   0  0  0  0  0  0  0  0  0  0  0  0
  148.3170  133.0863  152.5135 C   0  0  0  0  0  0  0  0  0  0  0  0
  148.5268  133.3769  154.0184 C   0  0  1  0  0  0  0  0  0  0  0  0
  149.7102  132.5659  154.5646 C   0  0  0  0  0  0  0  0  0  0  0  0
  148.8342  134.7864  154.2485 N   0  0  0  0  0  0  0  0  0  0  0  0
  147.8944  135.4336  155.1750 C   0  0  0  0  0  0  0  0  0  0  0  0
  147.9579  136.9678  155.1292 C   0  0  0  0  0  0  0  0  0  0  0  0
  147.4049  137.6392  155.9993 O   0  0  0  0  0  0  0  0  0  0  0  0
  148.6237  137.5615  154.1237 N   0  0  0  0  0  0  0  0  0  0  0  0
  148.8005  138.9954  153.9000 C   0  0  0  0  0  0  0  0  0  0  0  0
  149.5844  139.6330  155.0595 C   0  0  0  0  0  0  0  0  0  0  0  0
  149.6416  141.1602  154.8974 C   0  0  0  0  0  0  0  0  0  0  0  0
  148.3231  141.6907  154.8111 O   0  0  0  0  0  0  0  0  0  0  0  0
  147.6006  141.2068  153.6836 C   0  0  0  0  0  0  0  0  0  0  0  0
  147.4318  139.6812  153.7807 C   0  0  0  0  0  0  0  0  0  0  0  0
  146.1891  132.5278  151.2268 C   0  0  0  0  0  0  0  0  0  0  0  0
  142.8641  132.7951  150.8460 H   0  0  0  0  0  0  0  0  0  0  0  0
  143.8715  131.6535  149.9754 H   0  0  0  0  0  0  0  0  0  0  0  0
  143.6702  133.2857  149.3677 H   0  0  0  0  0  0  0  0  0  0  0  0
  144.3836  135.1078  152.0222 H   0  0  0  0  0  0  0  0  0  0  0  0
  148.5567  132.0433  152.3029 H   0  0  0  0  0  0  0  0  0  0  0  0
  149.0017  133.6843  151.9103 H   0  0  0  0  0  0  0  0  0  0  0  0
  147.6436  133.0794  154.5864 H   0  0  0  0  0  0  0  0  0  0  0  0
  149.5375  131.4957  154.4463 H   0  0  0  0  0  0  0  0  0  0  0  0
  149.8623  132.7560  155.6278 H   0  0  0  0  0  0  0  0  0  0  0  0
  150.6378  132.8108  154.0455 H   0  0  0  0  0  0  0  0  0  0  0  0
  148.8913  135.2731  153.3657 H   0  0  0  0  0  0  0  0  0  0  0  0
  146.8806  135.1165  154.9441 H   0  0  0  0  0  0  0  0  0  0  0  0
  148.1133  135.1138  156.1947 H   0  0  0  0  0  0  0  0  0  0  0  0
  149.0446  136.9525  153.4369 H   0  0  0  0  0  0  0  0  0  0  0  0
  149.3368  139.1708  152.9663 H   0  0  0  0  0  0  0  0  0  0  0  0
  149.1051  139.3915  156.0093 H   0  0  0  0  0  0  0  0  0  0  0  0
  150.5942  139.2271  155.1109 H   0  0  0  0  0  0  0  0  0  0  0  0
  150.1444  141.6092  155.7539 H   0  0  0  0  0  0  0  0  0  0  0  0
  150.2163  141.4350  154.0116 H   0  0  0  0  0  0  0  0  0  0  0  0
  146.6241  141.6908  153.6575 H   0  0  0  0  0  0  0  0  0  0  0  0
  148.1164  141.4834  152.7629 H   0  0  0  0  0  0  0  0  0  0  0  0
  146.8960  139.3085  152.9070 H   0  0  0  0  0  0  0  0  0  0  0  0
  146.8175  139.4431  154.6503 H   0  0  0  0  0  0  0  0  0  0  0  0
  146.5619  131.5997  150.8188 H   0  0  0  0  0  0  0  0  0  0  0  0
  1  2  1  0  0  0  0
  1 21  1  0  0  0  0
  1 22  1  0  0  0  0
  1 23  1  0  0  0  0
  2 20  2  0  0  0  0
  2  3  1  0  0  0  0
  3  4  2  0  0  0  0
  3 24  1  0  0  0  0
  4  5  1  0  0  0  0
  5  6  1  0  0  0  0
  5 20  1  0  0  0  0
  6  7  1  0  0  0  0
  6 25  1  0  0  0  0
  6 26  1  0  0  0  0
  7  8  1  0  0  0  0
  7  9  1  0  0  0  0
  7 27  1  0  0  0  0
  8 28  1  0  0  0  0
  8 29  1  0  0  0  0
  8 30  1  0  0  0  0
  9 10  1  0  0  0  0
  9 31  1  0  0  0  0
 10 11  1  0  0  0  0
 10 32  1  0  0  0  0
 10 33  1  0  0  0  0
 11 12  2  0  0  0  0
 11 13  1  0  0  0  0
 13 14  1  0  0  0  0
 13 34  1  0  0  0  0
 14 19  1  0  0  0  0
 14 15  1  0  0  0  0
 14 35  1  0  0  0  0
 15 16  1  0  0  0  0
 15 36  1  0  0  0  0
 15 37  1  0  0  0  0
 16 17  1  0  0  0  0
 16 38  1  0  0  0  0
 16 39  1  0  0  0  0
 17 18  1  0  0  0  0
 18 19  1  0  0  0  0
 18 40  1  0  0  0  0
 18 41  1  0  0  0  0
 19 42  1  0  0  0  0
 19 43  1  0  0  0  0
 20 44  1  0  0  0  0
M  END
> <s_m_source_file>
AV-unprocessed.smi

> <i_m_source_file_index>
2684

> <i_lp_mmshare_version>
43012

> <i_f3d_flags>
0

> <s_epik_input>
W0NIM11jMVtjSF1ubihbY0hdMSlbQ0gyXVtDQEhdKFtDSDNdKVtOSF1bQ0gyXUMoPU8pW05IXVtDSF0yW0NIMl1bQ0gyXU9bQ0gyXVtDSDJdMg==

> <s_epik_cmdline>
J2VwaWtfcHl0aG9uJywgJy1waCcsICc3LjAnLCAnLXRuJywgJzgnLCAnLW1hJywgJzIwMCcsICctbWV0YWxfYmluZGluZycsICctaW1hZScsICc8aW5maWxlLm1hZT4nLCAnLW9tYWUnLCAnPG91dGZpbGUubWFlPic=

> <r_lp_tautomer_probability>
1

> <r_epik_Ionization_Penalty>
0.968507

> <r_epik_Ionization_Penalty_Charging>
0

> <r_epik_Ionization_Penalty_Neutral>
0.968507

> <r_epik_State_Penalty>
1.01412

> <r_epik_Charging_Adjusted_Penalty>
1.01412

> <i_epik_Tot_Q>
0

> <i_epik_Tot_abs_Q>
0

> <r_epik_Metal_State_Penalty>
1.01401

> <b_epik_Metal_Only>
0

> <s_lp_Force_Field>
OPLS_2005

> <r_lp_Energy>
12.4601

> <b_lp_Chiralities_Consistent>
1

> <s_lp_Variant>
AV-unprocessed.smi:2684-4

> <Gold.Version>
5.8.1

> <Gold.Id.Protein>
6NUR|6NUR_protein|mol2

> <Gold.PLP.Fitness>
40.2192

> <Gold.PLP.PLP>
-34.0606

> <Gold.PLP.part.hbond>
-2.0000

> <Gold.PLP.part.metal>
0.0000

> <Gold.PLP.part.buried>
-3.1170

> <Gold.PLP.part.nonpolar>
-29.1123

> <Gold.PLP.part.repulsive>
0.2502

> <Gold.PLP.ligand.clash>
0.0000

> <Gold.PLP.ligand.torsion>
1.4446

> <Gold.PLP.Chemscore.Hbond>
2.0000

> <Gold.PLP.Chemscore.CHOScore>
0.9999

> <Gold.PLP.Chemscore.Metal>
0.0000

> <Gold.Chemscore.Hbonds>
donor molecule, donor type, donor heavy atom, donor atom, acceptor molecule, acceptor atom, score
      L1  H     9    31       P1  7948  1.00
      L1  H    13    34       P1  7948  0.98
      L1  C    20    44       P1 10747  0.87

> <Gold.PLP.Chemscore.Internal.Correction>
0.0482

> <Gold.Rescore>
     Score         DG    S(hbond)    S(metal)    S(lipo)     H(rot)  DE(clash)    DE(int)     intcor
     13.85     -16.47       1.95        0.00      81.34       1.97       0.03       2.59       ----

> <Gold.Chemscore.Fitness>
13.8495

> <Gold.Chemscore.DG>
-16.4725

> <Gold.Chemscore.ZeroCoef>
-5.4800

> <Gold.Chemscore.Hbond>
1.9544

> <Gold.Chemscore.Metal>
0.0000

> <Gold.Chemscore.Lipo>
81.3437

> <Gold.Chemscore.Internal_Hbond>
0.0000

> <Gold.Chemscore.DEClash>
0.0285

> <Gold.Chemscore.DEInternal>
2.5945

> <Gold.Chemscore.Rot>
1.9736

> <Gold.Chemscore.Internal.Correction>
   9.000000E+99

> <Gold.Chemscore.Hbonds>
donor molecule, donor type, donor heavy atom, donor atom, acceptor molecule, acceptor atom, score
      L1  H     9    31       P1  7948  0.60
      L1  H    13    34       P1  7948  0.93

> <Gold.Chemscore.Hbond.Weighted>
-6.5277

> <Gold.Chemscore.Metal.Weighted>
-0.0000

> <Gold.Chemscore.Lipo.Weighted>
-9.5172

> <Gold.Chemscore.Internal_Hbond.Weighted>
0.0000

> <Gold.Chemscore.DEClash.Weighted>
0.0285

> <Gold.Chemscore.DEInternal.Weighted>
2.5945

> <Gold.Chemscore.Rot.Weighted>
5.0523

> <Gold.Chemscore.Internal.Correction.Weighted>
   9.000000E+99

> <Gold.Protein.RotatedTorsions>
[ 6907 6896 6895 6894 ] final  -51.26 input  -60.11 | X-H torsion
[ 7974 7965 7964 7962 ] final   39.38 input  175.53 | X-H torsion
[ 8008 7997 7996 7995 ] final -156.46 input   59.86 | X-H torsion
[ 10167 10162 10161 10158 ] final -130.16 input  -65.29 | X-H torsion
[ 10718 10713 10712 10709 ] final   -1.60 input   66.30 | X-H torsion
[ 10763 10752 10751 10750 ] final   81.68 input  -60.55 | X-H torsion
[ 11005 11000 10999 10996 ] final -175.95 input  -57.11 | X-H torsion

> <Gold.Protein.ActiveResidues>
 VAL166  LYS551  ARG553  GLY616  TRP617  ASP618  TYR619  PRO620  LYS621  CYS622 
 ASP623  PHE694  ASN695  SER759  ASP760  ASP761  ALA762  ILE779  LEU786  VAL792 
 PHE793  MET794  SER795  GLU796  ALA797  LYS798  CYS799  TRP800  GLU811  SER814 

> <Gold.Protein.RotatedAtoms>
  150.8628  134.7984  159.7095 H   0  0  0  0  0  0  0  0  0  0  0  0  # atno 6907 bound_to 6896
  152.4659  134.5072  159.9752 H   0  0  0  0  0  0  0  0  0  0  0  0  # atno 6908 bound_to 6896
  151.5173  133.3435  159.2931 H   0  0  0  0  0  0  0  0  0  0  0  0  # atno 6909 bound_to 6896
  146.0989  139.5659  142.9427 H   0  0  0  0  0  0  0  0  0  0  0  0  # atno 7974 bound_to 7965
  155.7176  140.0786  157.2344 H   0  0  0  0  0  0  0  0  0  0  0  0  # atno 8008 bound_to 7997
  154.4049  140.1618  156.2420 H   0  0  0  0  0  0  0  0  0  0  0  0  # atno 8009 bound_to 7997
  155.9226  140.3396  155.6187 H   0  0  0  0  0  0  0  0  0  0  0  0  # atno 8010 bound_to 7997
  139.9323  143.6258  152.2526 H   0  0  0  0  0  0  0  0  0  0  0  0  # atno 10167 bound_to 10162
  156.8032  130.5400  149.5719 H   0  0  0  0  0  0  0  0  0  0  0  0  # atno 10718 bound_to 10713
  153.1137  135.4756  154.9080 H   0  0  0  0  0  0  0  0  0  0  0  0  # atno 10763 bound_to 10752
  154.7507  135.3105  154.8565 H   0  0  0  0  0  0  0  0  0  0  0  0  # atno 10764 bound_to 10752
  153.9147  135.6861  153.4803 H   0  0  0  0  0  0  0  0  0  0  0  0  # atno 10765 bound_to 10752
  140.4575  134.6286  157.4828 H   0  0  0  0  0  0  0  0  0  0  0  0  # atno 11005 bound_to 11000
  145.5894  141.0372  143.2078 LP  0  0  0  0  0  0  0  0  0  0  0  0  # atno 17320 bound_to 7965
  144.7417  139.7431  143.7308 LP  0  0  0  0  0  0  0  0  0  0  0  0  # atno 17321 bound_to 7965
  139.6772  144.7658  151.1674 LP  0  0  0  0  0  0  0  0  0  0  0  0  # atno 17342 bound_to 10162
  140.7634  143.5777  150.8928 LP  0  0  0  0  0  0  0  0  0  0  0  0  # atno 17343 bound_to 10162
  156.1089  130.6025  151.0015 LP  0  0  0  0  0  0  0  0  0  0  0  0  # atno 17370 bound_to 10713
  157.6543  131.0892  150.7981 LP  0  0  0  0  0  0  0  0  0  0  0  0  # atno 17371 bound_to 10713
  139.9967  134.6901  155.9598 LP  0  0  0  0  0  0  0  0  0  0  0  0  # atno 17394 bound_to 11000
  141.1636  133.6537  156.4403 LP  0  0  0  0  0  0  0  0  0  0  0  0  # atno 17395 bound_to 11000

$$$$
