AV-unprocessed.smi:109|AV-procd|sdf|1037|dock4
  -GOLD-   2262018 53D 1   1.00000     0.00000
 Structure written by MMmdl.
 58 61  0  0  0  0  0  0  0  0  1 V2000
  149.4442  141.3670  153.5164 O   0  0  0  0  0  0  0  0  0  0  0  0
  149.4205  140.9435  154.8624 C   0  0  0  0  0  0  0  0  0  0  0  0
  150.2983  141.8724  155.7183 C   0  0  0  0  0  0  0  0  0  0  0  0
  150.3500  141.4918  157.2185 C   0  0  2  0  0  0  0  0  0  0  0  0
  149.0543  141.7780  157.8388 N   0  0  0  0  0  0  0  0  0  0  0  0
  147.9631  141.0116  157.6154 C   0  0  0  0  0  0  0  0  0  0  0  0
  148.0711  139.7006  157.2750 N   0  0  0  0  0  0  0  0  0  0  0  0
  146.9724  138.9708  157.0593 C   0  0  0  0  0  0  0  0  0  0  0  0
  145.6935  139.3468  157.1293 N   0  0  0  0  0  0  0  0  0  0  0  0
  145.5817  140.6635  157.4689 C   0  0  0  0  0  0  0  0  0  0  0  0
  146.6578  141.5561  157.7271 C   0  0  0  0  0  0  0  0  0  0  0  0
  146.1591  142.8118  158.0486 N   0  0  0  0  0  0  0  0  0  0  0  0
  144.8624  142.6630  157.9856 C   0  0  0  0  0  0  0  0  0  0  0  0
  144.4309  141.4021  157.6310 N   0  0  0  0  0  0  0  0  0  0  0  0
  143.0363  140.8813  157.4745 C   0  0  1  0  0  0  0  0  0  0  0  0
  142.1324  141.9245  157.7172 O   0  0  0  0  0  0  0  0  0  0  0  0
  141.3083  142.1831  156.5791 C   0  0  1  0  0  0  0  0  0  0  0  0
  141.8885  143.3771  155.7893 C   0  0  0  0  0  0  0  0  0  0  0  0
  141.2873  143.4451  154.5141 O   0  0  0  0  0  0  0  0  0  0  0  0
  141.3316  140.8349  155.8464 C   0  0  1  0  0  0  0  0  0  0  0  0
  140.9279  140.8718  154.4898 O   0  0  0  0  0  0  0  0  0  0  0  0
  142.7509  140.3345  156.0603 C   0  0  1  0  0  0  0  0  0  0  0  0
  143.6490  140.8053  155.0667 O   0  0  0  0  0  0  0  0  0  0  0  0
  151.4739  142.2239  158.0077 C   0  0  0  0  0  0  0  0  0  0  0  0
  151.7673  141.5792  159.3862 C   0  0  0  0  0  0  0  0  0  0  0  0
  152.8451  142.3396  160.1767 C   0  0  0  0  0  0  0  0  0  0  0  0
  152.4732  143.8159  160.3572 C   0  0  0  0  0  0  0  0  0  0  0  0
  152.2150  144.4752  158.9977 C   0  0  0  0  0  0  0  0  0  0  0  0
  151.1292  143.7219  158.2140 C   0  0  0  0  0  0  0  0  0  0  0  0
  142.9354  140.1260  158.2553 H   0  0  0  0  0  0  0  0  0  0  0  0
  140.2893  142.4124  156.8941 H   0  0  0  0  0  0  0  0  0  0  0  0
  140.6527  140.1585  156.3685 H   0  0  0  0  0  0  0  0  0  0  0  0
  142.7966  139.2450  156.0730 H   0  0  0  0  0  0  0  0  0  0  0  0
  149.2905  140.6168  152.9625 H   0  0  0  0  0  0  0  0  0  0  0  0
  148.3864  140.9456  155.2073 H   0  0  0  0  0  0  0  0  0  0  0  0
  149.7824  139.9164  154.9160 H   0  0  0  0  0  0  0  0  0  0  0  0
  151.2991  141.8363  155.2917 H   0  0  0  0  0  0  0  0  0  0  0  0
  149.9561  142.9030  155.6130 H   0  0  0  0  0  0  0  0  0  0  0  0
  150.5765  140.4276  157.2810 H   0  0  0  0  0  0  0  0  0  0  0  0
  149.0568  142.5283  158.5150 H   0  0  0  0  0  0  0  0  0  0  0  0
  147.1428  137.9381  156.7926 H   0  0  0  0  0  0  0  0  0  0  0  0
  144.1862  143.4775  158.2004 H   0  0  0  0  0  0  0  0  0  0  0  0
  141.7585  144.3232  156.3130 H   0  0  0  0  0  0  0  0  0  0  0  0
  142.9581  143.2481  155.6258 H   0  0  0  0  0  0  0  0  0  0  0  0
  141.9360  143.2215  153.8641 H   0  0  0  0  0  0  0  0  0  0  0  0
  141.4243  141.5432  154.0470 H   0  0  0  0  0  0  0  0  0  0  0  0
  143.3511  140.4921  154.2262 H   0  0  0  0  0  0  0  0  0  0  0  0
  152.3899  142.1702  157.4165 H   0  0  0  0  0  0  0  0  0  0  0  0
  150.8490  141.5333  159.9732 H   0  0  0  0  0  0  0  0  0  0  0  0
  152.1136  140.5537  159.2701 H   0  0  0  0  0  0  0  0  0  0  0  0
  152.9883  141.8724  161.1513 H   0  0  0  0  0  0  0  0  0  0  0  0
  153.8004  142.2649  159.6557 H   0  0  0  0  0  0  0  0  0  0  0  0
  151.5827  143.8983  160.9816 H   0  0  0  0  0  0  0  0  0  0  0  0
  153.2715  144.3414  160.8820 H   0  0  0  0  0  0  0  0  0  0  0  0
  151.9162  145.5141  159.1399 H   0  0  0  0  0  0  0  0  0  0  0  0
  153.1382  144.4949  158.4173 H   0  0  0  0  0  0  0  0  0  0  0  0
  150.9944  144.2241  157.2558 H   0  0  0  0  0  0  0  0  0  0  0  0
  150.1770  143.8090  158.7391 H   0  0  0  0  0  0  0  0  0  0  0  0
  1  2  1  0  0  0  0
  1 34  1  0  0  0  0
  2  3  1  0  0  0  0
  2 35  1  0  0  0  0
  2 36  1  0  0  0  0
  3  4  1  0  0  0  0
  3 37  1  0  0  0  0
  3 38  1  0  0  0  0
  4  5  1  0  0  0  0
  4 24  1  0  0  0  0
  4 39  1  0  0  0  0
  5  6  1  0  0  0  0
  5 40  1  0  0  0  0
  6 11  1  0  0  0  0
  6  7  2  0  0  0  0
  7  8  1  0  0  0  0
  8  9  2  0  0  0  0
  8 41  1  0  0  0  0
  9 10  1  0  0  0  0
 10 14  1  0  0  0  0
 10 11  2  0  0  0  0
 11 12  1  0  0  0  0
 12 13  2  0  0  0  0
 13 14  1  0  0  0  0
 13 42  1  0  0  0  0
 14 15  1  0  0  0  0
 15 30  1  0  0  0  0
 15 22  1  0  0  0  0
 15 16  1  0  0  0  0
 16 17  1  0  0  0  0
 17 31  1  0  0  0  0
 17 18  1  0  0  0  0
 17 20  1  0  0  0  0
 18 19  1  0  0  0  0
 18 43  1  0  0  0  0
 18 44  1  0  0  0  0
 19 45  1  0  0  0  0
 20 32  1  0  0  0  0
 20 21  1  0  0  0  0
 20 22  1  0  0  0  0
 21 46  1  0  0  0  0
 22 33  1  0  0  0  0
 22 23  1  0  0  0  0
 23 47  1  0  0  0  0
 24 29  1  0  0  0  0
 24 25  1  0  0  0  0
 24 48  1  0  0  0  0
 25 26  1  0  0  0  0
 25 49  1  0  0  0  0
 25 50  1  0  0  0  0
 26 27  1  0  0  0  0
 26 51  1  0  0  0  0
 26 52  1  0  0  0  0
 27 28  1  0  0  0  0
 27 53  1  0  0  0  0
 27 54  1  0  0  0  0
 28 29  1  0  0  0  0
 28 55  1  0  0  0  0
 28 56  1  0  0  0  0
 29 57  1  0  0  0  0
 29 58  1  0  0  0  0
M  END
> <s_m_source_file>
AV-unprocessed.smi

> <i_m_source_file_index>
109

> <i_lp_mmshare_version>
43012

> <i_f3d_flags>
0

> <s_epik_input>
W0NIMl0xW0NIMl1bQ0gyXVtDSDJdW0NIMl1bQ0hdMVtDQEhdKFtDSDJdW0NIMl1bT0hdKVtOSF1jKG5bY0hdbjIpYyhjMjMpbltjSF1uM1tDQEBIXTRPW0NASF0oW0NIMl1bT0hdKVtDQEBIXShbT0hdKVtDQEhdNFtPSF0=

> <s_epik_cmdline>
J2VwaWtfcHl0aG9uJywgJy1waCcsICc3LjAnLCAnLXRuJywgJzgnLCAnLW1hJywgJzIwMCcsICctbWV0YWxfYmluZGluZycsICctaW1hZScsICc8aW5maWxlLm1hZT4nLCAnLW9tYWUnLCAnPG91dGZpbGUubWFlPic=

> <r_lp_tautomer_probability>
1

> <r_epik_Ionization_Penalty>
0.000793976

> <r_epik_Ionization_Penalty_Charging>
0

> <r_epik_Ionization_Penalty_Neutral>
0.000793976

> <r_epik_State_Penalty>
-0

> <r_epik_Charging_Adjusted_Penalty>
0

> <i_epik_Tot_Q>
0

> <i_epik_Tot_abs_Q>
0

> <r_epik_Metal_State_Penalty>
-0

> <b_epik_Metal_Only>
0

> <s_epik_Chemistry_Notes>
This compound contains an acetal/aminal-like group ( X-CH(R)-Y where X, Y are N, S, or O) that may be acid/base labile, releasing an aldehyde.

> <s_lp_Force_Field>
OPLS_2005

> <r_lp_Energy>
61.3844

> <b_lp_Chiralities_Consistent>
1

> <s_lp_Variant>
AV-unprocessed.smi:109-7

> <Gold.Version>
5.8.1

> <Gold.Id.Protein>
6NUR|6NUR_protein|mol2

> <Gold.PLP.Fitness>
52.7187

> <Gold.PLP.PLP>
-39.5743

> <Gold.PLP.part.hbond>
-7.3792

> <Gold.PLP.part.metal>
0.0000

> <Gold.PLP.part.buried>
-5.1672

> <Gold.PLP.part.nonpolar>
-28.1512

> <Gold.PLP.part.repulsive>
1.0430

> <Gold.PLP.ligand.clash>
0.0000

> <Gold.PLP.ligand.torsion>
0.6540

> <Gold.PLP.Chemscore.Hbond>
4.7654

> <Gold.PLP.Chemscore.CHOScore>
0.0000

> <Gold.PLP.Chemscore.Metal>
0.0000

> <Gold.Chemscore.Hbonds>
donor molecule, donor type, donor heavy atom, donor atom, acceptor molecule, acceptor atom, score
      L1  H     1    34       P1  7957  0.78
      L1  H    19    45       P1 10174  1.00
      L1  H    23    47       P1 10175  0.93
      P1  H  7989  7998       L1     1  0.02
      P1  H  8011  8017       L1     1  0.79

> <Gold.PLP.Chemscore.Internal.Correction>
0.1560

> <Gold.Rescore>
     Score         DG    S(hbond)    S(metal)    S(lipo)     H(rot)  DE(clash)    DE(int)     intcor
     13.47     -15.36       3.85        0.00      94.06       5.47       0.53       1.36       ----

> <Gold.Chemscore.Fitness>
13.4669

> <Gold.Chemscore.DG>
-15.3649

> <Gold.Chemscore.ZeroCoef>
-5.4800

> <Gold.Chemscore.Hbond>
3.8545

> <Gold.Chemscore.Metal>
0.0000

> <Gold.Chemscore.Lipo>
94.0551

> <Gold.Chemscore.Internal_Hbond>
0.0000

> <Gold.Chemscore.DEClash>
0.5346

> <Gold.Chemscore.DEInternal>
1.3634

> <Gold.Chemscore.Rot>
5.4662

> <Gold.Chemscore.Internal.Correction>
   9.000000E+99

> <Gold.Chemscore.Hbonds>
donor molecule, donor type, donor heavy atom, donor atom, acceptor molecule, acceptor atom, score
      L1  H     1    34       P1  7957  0.77
      L1  H    19    45       P1 10174  0.95
      L1  H    21    46       P1 10174  0.02
      L1  H    23    47       P1 10175  0.89
      P1  H  8011  8017       L1     1  0.13

> <Gold.Chemscore.Hbond.Weighted>
-12.8740

> <Gold.Chemscore.Metal.Weighted>
-0.0000

> <Gold.Chemscore.Lipo.Weighted>
-11.0044

> <Gold.Chemscore.Internal_Hbond.Weighted>
0.0000

> <Gold.Chemscore.DEClash.Weighted>
0.5346

> <Gold.Chemscore.DEInternal.Weighted>
1.3634

> <Gold.Chemscore.Rot.Weighted>
13.9935

> <Gold.Chemscore.Internal.Correction.Weighted>
   9.000000E+99

> <Gold.Protein.RotatedTorsions>
[ 6907 6896 6895 6894 ] final   55.46 input  -60.11 | X-H torsion
[ 7974 7965 7964 7962 ] final   73.11 input  175.53 | X-H torsion
[ 8008 7997 7996 7995 ] final   28.00 input   59.86 | X-H torsion
[ 10167 10162 10161 10158 ] final -127.94 input  -65.29 | X-H torsion
[ 10718 10713 10712 10709 ] final  -59.13 input   66.30 | X-H torsion
[ 10763 10752 10751 10750 ] final  171.93 input  -60.55 | X-H torsion
[ 11005 11000 10999 10996 ] final  169.99 input  -57.11 | X-H torsion

> <Gold.Protein.ActiveResidues>
 VAL166  LYS551  ARG553  GLY616  TRP617  ASP618  TYR619  PRO620  LYS621  CYS622 
 ASP623  PHE694  ASN695  SER759  ASP760  ASP761  ALA762  ILE779  LEU786  VAL792 
 PHE793  MET794  SER795  GLU796  ALA797  LYS798  CYS799  TRP800  GLU811  SER814 

> <Gold.Protein.RotatedAtoms>
  152.3540  134.6965  160.0227 H   0  0  0  0  0  0  0  0  0  0  0  0  # atno 6907 bound_to 6896
  151.7310  133.3312  159.3348 H   0  0  0  0  0  0  0  0  0  0  0  0  # atno 6908 bound_to 6896
  150.7559  134.6297  159.6224 H   0  0  0  0  0  0  0  0  0  0  0  0  # atno 6909 bound_to 6896
  145.7449  139.2736  143.1464 H   0  0  0  0  0  0  0  0  0  0  0  0  # atno 7974 bound_to 7965
  155.0518  140.3180  155.4689 H   0  0  0  0  0  0  0  0  0  0  0  0  # atno 8008 bound_to 7997
  156.2833  140.2144  156.5587 H   0  0  0  0  0  0  0  0  0  0  0  0  # atno 8009 bound_to 7997
  154.7204  140.0490  157.0622 H   0  0  0  0  0  0  0  0  0  0  0  0  # atno 8010 bound_to 7997
  139.9556  143.6007  152.2462 H   0  0  0  0  0  0  0  0  0  0  0  0  # atno 10167 bound_to 10162
  156.1084  130.4178  150.0673 H   0  0  0  0  0  0  0  0  0  0  0  0  # atno 10718 bound_to 10713
  154.4189  135.2757  155.1988 H   0  0  0  0  0  0  0  0  0  0  0  0  # atno 10763 bound_to 10752
  154.3942  135.6059  153.5864 H   0  0  0  0  0  0  0  0  0  0  0  0  # atno 10764 bound_to 10752
  152.9832  135.5911  154.4482 H   0  0  0  0  0  0  0  0  0  0  0  0  # atno 10765 bound_to 10752
  140.3036  134.7574  157.3936 H   0  0  0  0  0  0  0  0  0  0  0  0  # atno 11005 bound_to 11000
  146.0412  140.8163  142.9828 LP  0  0  0  0  0  0  0  0  0  0  0  0  # atno 17320 bound_to 7965
  144.6862  140.2913  143.7277 LP  0  0  0  0  0  0  0  0  0  0  0  0  # atno 17321 bound_to 7965
  139.6594  144.7662  151.1992 LP  0  0  0  0  0  0  0  0  0  0  0  0  # atno 17342 bound_to 10162
  140.7569  143.6034  150.8677 LP  0  0  0  0  0  0  0  0  0  0  0  0  # atno 17343 bound_to 10162
  156.8642  130.9502  151.3615 LP  0  0  0  0  0  0  0  0  0  0  0  0  # atno 17370 bound_to 10713
  157.6263  130.8694  149.9195 LP  0  0  0  0  0  0  0  0  0  0  0  0  # atno 17371 bound_to 10713
  140.1087  134.5375  155.8286 LP  0  0  0  0  0  0  0  0  0  0  0  0  # atno 17394 bound_to 11000
  141.2123  133.6717  156.6647 LP  0  0  0  0  0  0  0  0  0  0  0  0  # atno 17395 bound_to 11000

$$$$
