AV-unprocessed.smi:1046|AV-procd|sdf|4555|dock1
  -GOLD-   22720 2583D 1   1.00000     0.00000
 Structure written by MMmdl.
 54 56  0  0  0  0  0  0  0  0  3 V2000
  153.7058  142.6762  163.6451 C   0  0  0  0  0  0  0  0  0  0  0  0
  153.1709  142.9513  162.2508 C   0  0  0  0  0  0  0  0  0  0  0  0
  152.4647  144.1515  162.0105 C   0  0  0  0  0  0  0  0  0  0  0  0
  151.9462  144.4427  160.7300 C   0  0  0  0  0  0  0  0  0  0  0  0
  151.2327  145.5390  160.2769 N   0  0  0  0  0  0  0  0  0  0  0  0
  151.0344  145.2222  159.0011 C   0  0  0  0  0  0  0  0  0  0  0  0
  151.5511  144.0556  158.5683 N   0  0  0  0  0  0  0  0  0  0  0  0
  151.4756  143.5081  157.2263 C   0  0  0  0  0  0  0  0  0  0  0  0
  150.5820  142.2540  157.1482 C   0  0  1  0  0  0  0  0  0  0  0  0
  149.2373  142.6838  157.0924 O   0  0  0  0  0  0  0  0  0  0  0  0
  150.8727  141.3683  155.9159 C   0  0  0  0  0  0  0  0  0  0  0  0
  149.6486  140.7352  155.3612 N   0  3  2  0  0  0  0  0  0  0  0  0
  149.8658  139.3495  154.8724 C   0  0  0  0  0  0  0  0  0  0  0  0
  148.5482  138.7204  154.3859 C   0  0  0  0  0  0  0  0  0  0  0  0
  147.9062  139.5551  153.3408 N   0  3  1  0  0  0  0  0  0  0  0  0
  146.6818  138.9220  152.7861 C   0  0  0  0  0  0  0  0  0  0  0  0
  146.3813  139.3713  151.3456 C   0  0  0  0  0  0  0  0  0  0  0  0
  146.2217  138.2435  150.5111 O   0  0  0  0  0  0  0  0  0  0  0  0
  147.6908  140.9418  153.8272 C   0  0  0  0  0  0  0  0  0  0  0  0
  149.0082  141.5702  154.3155 C   0  0  0  0  0  0  0  0  0  0  0  0
  152.1588  143.4949  159.6867 C   0  0  0  0  0  0  0  0  0  0  0  0
  152.8604  142.2976  159.9129 C   0  0  0  0  0  0  0  0  0  0  0  0
  153.3697  142.0211  161.1989 C   0  0  0  0  0  0  0  0  0  0  0  0
  154.1219  140.7233  161.4350 C   0  0  0  0  0  0  0  0  0  0  0  0
  153.4333  143.4706  164.3404 H   0  0  0  0  0  0  0  0  0  0  0  0
  154.7934  142.6038  163.6292 H   0  0  0  0  0  0  0  0  0  0  0  0
  153.3011  141.7410  164.0327 H   0  0  0  0  0  0  0  0  0  0  0  0
  152.3121  144.8592  162.8122 H   0  0  0  0  0  0  0  0  0  0  0  0
  150.4908  145.8816  158.3402 H   0  0  0  0  0  0  0  0  0  0  0  0
  151.0983  144.2872  156.5624 H   0  0  0  0  0  0  0  0  0  0  0  0
  152.4874  143.2745  156.8908 H   0  0  0  0  0  0  0  0  0  0  0  0
  150.7129  141.6832  158.0664 H   0  0  0  0  0  0  0  0  0  0  0  0
  149.2212  143.5931  156.8324 H   0  0  0  0  0  0  0  0  0  0  0  0
  151.3431  141.9899  155.1523 H   0  0  0  0  0  0  0  0  0  0  0  0
  151.5930  140.5846  156.1541 H   0  0  0  0  0  0  0  0  0  0  0  0
  150.5956  139.3590  154.0611 H   0  0  0  0  0  0  0  0  0  0  0  0
  150.2828  138.7260  155.6623 H   0  0  0  0  0  0  0  0  0  0  0  0
  148.7512  137.7248  153.9892 H   0  0  0  0  0  0  0  0  0  0  0  0
  147.8610  138.5941  155.2242 H   0  0  0  0  0  0  0  0  0  0  0  0
  146.7961  137.8366  152.7872 H   0  0  0  0  0  0  0  0  0  0  0  0
  145.8326  139.1386  153.4357 H   0  0  0  0  0  0  0  0  0  0  0  0
  145.4540  139.9443  151.3253 H   0  0  0  0  0  0  0  0  0  0  0  0
  147.1589  140.0203  150.9443 H   0  0  0  0  0  0  0  0  0  0  0  0
  145.3186  138.1987  150.2327 H   0  0  0  0  0  0  0  0  0  0  0  0
  147.2756  141.5628  153.0342 H   0  0  0  0  0  0  0  0  0  0  0  0
  146.9599  140.9343  154.6377 H   0  0  0  0  0  0  0  0  0  0  0  0
  148.8054  142.5661  154.7116 H   0  0  0  0  0  0  0  0  0  0  0  0
  149.6972  141.6956  153.4784 H   0  0  0  0  0  0  0  0  0  0  0  0
  153.0015  141.5949  159.1051 H   0  0  0  0  0  0  0  0  0  0  0  0
  154.2187  140.1462  160.5150 H   0  0  0  0  0  0  0  0  0  0  0  0
  153.5965  140.1054  162.1636 H   0  0  0  0  0  0  0  0  0  0  0  0
  155.1254  140.9243  161.8107 H   0  0  0  0  0  0  0  0  0  0  0  0
  148.9908  140.6838  156.1268 H   0  0  0  0  0  0  0  0  0  0  0  0
  148.5635  139.6059  152.5748 H   0  0  0  0  0  0  0  0  0  0  0  0
  1  2  1  0  0  0  0
  1 25  1  0  0  0  0
  1 26  1  0  0  0  0
  1 27  1  0  0  0  0
  2 23  1  0  0  0  0
  2  3  2  0  0  0  0
  3  4  1  0  0  0  0
  3 28  1  0  0  0  0
  4 21  2  0  0  0  0
  4  5  1  0  0  0  0
  5  6  2  0  0  0  0
  6  7  1  0  0  0  0
  6 29  1  0  0  0  0
  7  8  1  0  0  0  0
  7 21  1  0  0  0  0
  8  9  1  0  0  0  0
  8 30  1  0  0  0  0
  8 31  1  0  0  0  0
  9 10  1  0  0  0  0
  9 11  1  0  0  0  0
  9 32  1  0  0  0  0
 10 33  1  0  0  0  0
 11 12  1  0  0  0  0
 11 34  1  0  0  0  0
 11 35  1  0  0  0  0
 12 20  1  0  0  0  0
 12 13  1  0  0  0  0
 12 53  1  0  0  0  0
 13 14  1  0  0  0  0
 13 36  1  0  0  0  0
 13 37  1  0  0  0  0
 14 15  1  0  0  0  0
 14 38  1  0  0  0  0
 14 39  1  0  0  0  0
 15 16  1  0  0  0  0
 15 19  1  0  0  0  0
 15 54  1  0  0  0  0
 16 17  1  0  0  0  0
 16 40  1  0  0  0  0
 16 41  1  0  0  0  0
 17 18  1  0  0  0  0
 17 42  1  0  0  0  0
 17 43  1  0  0  0  0
 18 44  1  0  0  0  0
 19 20  1  0  0  0  0
 19 45  1  0  0  0  0
 19 46  1  0  0  0  0
 20 47  1  0  0  0  0
 20 48  1  0  0  0  0
 21 22  1  0  0  0  0
 22 23  2  0  0  0  0
 22 49  1  0  0  0  0
 23 24  1  0  0  0  0
 24 50  1  0  0  0  0
 24 51  1  0  0  0  0
 24 52  1  0  0  0  0
M  CHG  1  12   1
M  CHG  1  15   1
M  END
> <s_m_source_file>
AV-unprocessed.smi

> <i_m_source_file_index>
1046

> <i_lp_mmshare_version>
43012

> <i_f3d_flags>
0

> <s_epik_input>
W0NIM11jKFtjSF0xKWMoW0NIM10pW2NIXWMoYzEyKW4oW2NIXW4yKVtDSDJdW0NASF0oW09IXSlbQ0gyXU4zW0NIMl1bQ0gyXU4oW0NIMl1bQ0gyXTMpW0NIMl1bQ0gyXVtPSF0=

> <s_epik_cmdline>
J2VwaWtfcHl0aG9uJywgJy1waCcsICc3LjAnLCAnLXRuJywgJzgnLCAnLW1hJywgJzIwMCcsICctbWV0YWxfYmluZGluZycsICctaW1hZScsICc8aW5maWxlLm1hZT4nLCAnLW9tYWUnLCAnPG91dGZpbGUubWFlPic=

> <r_epik_Ionization_Penalty>
3.17398

> <r_epik_Ionization_Penalty_Charging>
3.09061

> <r_epik_Ionization_Penalty_Neutral>
0.0833726

> <r_epik_State_Penalty>
2.17606

> <r_epik_Charging_Adjusted_Penalty>
5.26667

> <i_epik_Tot_Q>
2

> <i_epik_Tot_abs_Q>
2

> <r_epik_Metal_State_Penalty>
2.08587

> <b_epik_Metal_Only>
0

> <s_lp_Force_Field>
OPLS_2005

> <r_lp_Energy>
27.7872

> <b_lp_Chiralities_Consistent>
1

> <s_lp_Variant>
AV-unprocessed.smi:1046-8

> <Gold.Version>
5.8.1

> <Gold.Id.Protein>
6NUR|6NUR_protein|mol2

> <Gold.PLP.Fitness>
74.7749

> <Gold.PLP.PLP>
-64.1314

> <Gold.PLP.part.hbond>
-5.0441

> <Gold.PLP.part.metal>
0.0000

> <Gold.PLP.part.buried>
-3.2915

> <Gold.PLP.part.nonpolar>
-55.5114

> <Gold.PLP.part.repulsive>
0.4022

> <Gold.PLP.ligand.clash>
0.0000

> <Gold.PLP.ligand.torsion>
1.8137

> <Gold.PLP.Chemscore.Hbond>
3.9840

> <Gold.PLP.Chemscore.CHOScore>
0.7327

> <Gold.PLP.Chemscore.Metal>
0.0000

> <Gold.Chemscore.Hbonds>
donor molecule, donor type, donor heavy atom, donor atom, acceptor molecule, acceptor atom, score
      L1  H    10    33       P1  8028  0.98
      L1  H    15    54       P1  7957  1.00
      L1  H    18    44       P1 10171  1.00
      P1  H  7954  7966       L1    18  0.76
      L1  C     6    29       P1  8029  0.38

> <Gold.PLP.Chemscore.Internal.Correction>
0.1207

> <Gold.Rescore>
     Score         DG    S(hbond)    S(metal)    S(lipo)     H(rot)  DE(clash)    DE(int)     intcor
     24.18     -28.39       3.58        0.00     165.55       3.28       1.29       2.92       ----

> <Gold.Chemscore.Fitness>
24.1805

> <Gold.Chemscore.DG>
-28.3886

> <Gold.Chemscore.ZeroCoef>
-5.4800

> <Gold.Chemscore.Hbond>
3.5759

> <Gold.Chemscore.Metal>
0.0000

> <Gold.Chemscore.Lipo>
165.5472

> <Gold.Chemscore.Internal_Hbond>
0.0000

> <Gold.Chemscore.DEClash>
1.2850

> <Gold.Chemscore.DEInternal>
2.9231

> <Gold.Chemscore.Rot>
3.2828

> <Gold.Chemscore.Internal.Correction>
   9.000000E+99

> <Gold.Chemscore.Hbonds>
donor molecule, donor type, donor heavy atom, donor atom, acceptor molecule, acceptor atom, score
      L1  H    10    33       P1  8028  0.82
      L1  H    15    54       P1  7957  1.00
      L1  H    18    44       P1 10171  0.94
      P1  H  7954  7966       L1    18  0.29

> <Gold.Chemscore.Hbond.Weighted>
-11.9435

> <Gold.Chemscore.Metal.Weighted>
-0.0000

> <Gold.Chemscore.Lipo.Weighted>
-19.3690

> <Gold.Chemscore.Internal_Hbond.Weighted>
0.0000

> <Gold.Chemscore.DEClash.Weighted>
1.2850

> <Gold.Chemscore.DEInternal.Weighted>
2.9231

> <Gold.Chemscore.Rot.Weighted>
8.4039

> <Gold.Chemscore.Internal.Correction.Weighted>
   9.000000E+99

> <Gold.Protein.RotatedTorsions>
[ 6907 6896 6895 6894 ] final -128.99 input  -60.11 | X-H torsion
[ 7974 7965 7964 7962 ] final  -82.36 input  175.53 | X-H torsion
[ 8008 7997 7996 7995 ] final   48.06 input   59.86 | X-H torsion
[ 10167 10162 10161 10158 ] final  -58.08 input  -65.29 | X-H torsion
[ 10718 10713 10712 10709 ] final  -81.19 input   66.30 | X-H torsion
[ 10763 10752 10751 10750 ] final -126.86 input  -60.55 | X-H torsion
[ 11005 11000 10999 10996 ] final  -76.10 input  -57.11 | X-H torsion

> <Gold.Protein.ActiveResidues>
 VAL166  LYS551  ARG553  GLY616  TRP617  ASP618  TYR619  PRO620  LYS621  CYS622 
 ASP623  PHE694  ASN695  SER759  ASP760  ASP761  ALA762  ILE779  LEU786  VAL792 
 PHE793  MET794  SER795  GLU796  ALA797  LYS798  CYS799  TRP800  GLU811  SER814 

> <Gold.Protein.RotatedAtoms>
  150.9239  133.6847  159.2825 H   0  0  0  0  0  0  0  0  0  0  0  0  # atno 6907 bound_to 6896
  151.4292  135.1006  159.9647 H   0  0  0  0  0  0  0  0  0  0  0  0  # atno 6908 bound_to 6896
  152.4993  133.8673  159.7335 H   0  0  0  0  0  0  0  0  0  0  0  0  # atno 6909 bound_to 6896
  145.5344  140.9517  143.1585 H   0  0  0  0  0  0  0  0  0  0  0  0  # atno 7974 bound_to 7965
  155.3793  140.3428  155.4246 H   0  0  0  0  0  0  0  0  0  0  0  0  # atno 8008 bound_to 7997
  156.1619  140.1603  156.8631 H   0  0  0  0  0  0  0  0  0  0  0  0  # atno 8009 bound_to 7997
  154.5148  140.0781  156.8041 H   0  0  0  0  0  0  0  0  0  0  0  0  # atno 8010 bound_to 7997
  140.6219  143.2423  151.5458 H   0  0  0  0  0  0  0  0  0  0  0  0  # atno 10167 bound_to 10162
  156.0055  130.4596  150.3914 H   0  0  0  0  0  0  0  0  0  0  0  0  # atno 10718 bound_to 10713
  154.8748  135.3981  154.3500 H   0  0  0  0  0  0  0  0  0  0  0  0  # atno 10763 bound_to 10752
  153.4287  135.7024  153.6250 H   0  0  0  0  0  0  0  0  0  0  0  0  # atno 10764 bound_to 10752
  153.4881  135.3754  155.2447 H   0  0  0  0  0  0  0  0  0  0  0  0  # atno 10765 bound_to 10752
  141.1651  133.6971  156.7618 H   0  0  0  0  0  0  0  0  0  0  0  0  # atno 11005 bound_to 11000
  144.7609  139.6959  143.7234 LP  0  0  0  0  0  0  0  0  0  0  0  0  # atno 17320 bound_to 7965
  146.2023  139.5325  142.9735 LP  0  0  0  0  0  0  0  0  0  0  0  0  # atno 17321 bound_to 7965
  139.5446  144.2555  152.1418 LP  0  0  0  0  0  0  0  0  0  0  0  0  # atno 17342 bound_to 10162
  140.1777  144.4874  150.6545 LP  0  0  0  0  0  0  0  0  0  0  0  0  # atno 17343 bound_to 10162
  157.1988  131.0433  151.2661 LP  0  0  0  0  0  0  0  0  0  0  0  0  # atno 17370 bound_to 10713
  157.3994  130.7325  149.6756 LP  0  0  0  0  0  0  0  0  0  0  0  0  # atno 17371 bound_to 10713
  140.2528  134.8527  157.3684 LP  0  0  0  0  0  0  0  0  0  0  0  0  # atno 17394 bound_to 11000
  140.1686  134.4637  155.7846 LP  0  0  0  0  0  0  0  0  0  0  0  0  # atno 17395 bound_to 11000

$$$$
