AV-unprocessed.smi:3183|AV-procd|sdf|12153|dock4
  -GOLD-   2272017593D 1   1.00000     0.00000
 Structure written by MMmdl.
 43 44  0  0  0  0  0  0  0  0  2 V2000
  153.6027  142.3069  160.8747 C   0  0  0  0  0  0  0  0  0  0  0  0
  152.3513  142.3270  159.9793 C   0  0  2  0  0  0  0  0  0  0  0  0
  152.4483  141.2067  158.9232 C   0  0  0  0  0  0  0  0  0  0  0  0
  151.2198  141.1721  158.0038 C   0  0  0  0  0  0  0  0  0  0  0  0
  151.0143  142.5274  157.3114 C   0  0  1  0  0  0  0  0  0  0  0  0
  149.8092  142.4887  156.4551 N   0  3  0  0  0  0  0  0  0  0  0  0
  149.8145  141.4279  155.4277 C   0  0  0  0  0  0  0  0  0  0  0  0
  148.6487  141.6067  154.4439 C   0  0  0  0  0  0  0  0  0  0  0  0
  147.8974  140.3456  154.1404 C   0  0  0  0  0  0  0  0  0  0  0  0
  148.3041  139.1804  153.5486 C   0  0  0  0  0  0  0  0  0  0  0  0
  147.1398  138.3646  153.5454 C   0  0  0  0  0  0  0  0  0  0  0  0
  146.0979  138.9684  154.0880 N   0  0  0  0  0  0  0  0  0  0  0  0
  146.5580  140.1829  154.4540 N   0  0  0  0  0  0  0  0  0  0  0  0
  145.6376  141.1052  155.0927 C   0  0  0  0  0  0  0  0  0  0  0  0
  150.8899  143.6445  158.3611 C   0  0  0  0  0  0  0  0  0  0  0  0
  152.1141  143.7024  159.2996 C   0  0  1  0  0  0  0  0  0  0  0  0
  151.9420  144.8497  160.3115 C   0  0  0  0  0  0  0  0  0  0  0  0
  154.4966  142.5826  160.3142 H   0  0  0  0  0  0  0  0  0  0  0  0
  153.7677  141.3132  161.2921 H   0  0  0  0  0  0  0  0  0  0  0  0
  153.5101  142.9905  161.7181 H   0  0  0  0  0  0  0  0  0  0  0  0
  151.4910  142.1090  160.6142 H   0  0  0  0  0  0  0  0  0  0  0  0
  153.3475  141.3461  158.3211 H   0  0  0  0  0  0  0  0  0  0  0  0
  152.5573  140.2396  159.4152 H   0  0  0  0  0  0  0  0  0  0  0  0
  151.3437  140.3857  157.2584 H   0  0  0  0  0  0  0  0  0  0  0  0
  150.3357  140.9106  158.5871 H   0  0  0  0  0  0  0  0  0  0  0  0
  151.8910  142.7330  156.6943 H   0  0  0  0  0  0  0  0  0  0  0  0
  149.0030  142.3535  157.0485 H   0  0  0  0  0  0  0  0  0  0  0  0
  150.7647  141.4560  154.8919 H   0  0  0  0  0  0  0  0  0  0  0  0
  149.7439  140.4565  155.9195 H   0  0  0  0  0  0  0  0  0  0  0  0
  147.9529  142.3442  154.8460 H   0  0  0  0  0  0  0  0  0  0  0  0
  149.0306  142.0241  153.5112 H   0  0  0  0  0  0  0  0  0  0  0  0
  149.2872  138.9403  153.1718 H   0  0  0  0  0  0  0  0  0  0  0  0
  147.0221  137.3595  153.1680 H   0  0  0  0  0  0  0  0  0  0  0  0
  146.1302  142.0473  155.3308 H   0  0  0  0  0  0  0  0  0  0  0  0
  145.2591  140.6653  156.0159 H   0  0  0  0  0  0  0  0  0  0  0  0
  144.7994  141.3080  154.4253 H   0  0  0  0  0  0  0  0  0  0  0  0
  150.7698  144.6042  157.8564 H   0  0  0  0  0  0  0  0  0  0  0  0
  149.9854  143.4936  158.9526 H   0  0  0  0  0  0  0  0  0  0  0  0
  152.9883  143.9340  158.6890 H   0  0  0  0  0  0  0  0  0  0  0  0
  151.1273  144.6478  161.0076 H   0  0  0  0  0  0  0  0  0  0  0  0
  151.7180  145.7883  159.8038 H   0  0  0  0  0  0  0  0  0  0  0  0
  152.8478  145.0160  160.8939 H   0  0  0  0  0  0  0  0  0  0  0  0
  149.7189  143.3823  155.9929 H   0  0  0  0  0  0  0  0  0  0  0  0
  1  2  1  0  0  0  0
  1 18  1  0  0  0  0
  1 19  1  0  0  0  0
  1 20  1  0  0  0  0
  2 16  1  0  0  0  0
  2  3  1  0  0  0  0
  2 21  1  0  0  0  0
  3  4  1  0  0  0  0
  3 22  1  0  0  0  0
  3 23  1  0  0  0  0
  4  5  1  0  0  0  0
  4 24  1  0  0  0  0
  4 25  1  0  0  0  0
  5  6  1  0  0  0  0
  5 15  1  0  0  0  0
  5 26  1  0  0  0  0
  6  7  1  0  0  0  0
  6 27  1  0  0  0  0
  6 43  1  0  0  0  0
  7  8  1  0  0  0  0
  7 28  1  0  0  0  0
  7 29  1  0  0  0  0
  8  9  1  0  0  0  0
  8 30  1  0  0  0  0
  8 31  1  0  0  0  0
  9 13  1  0  0  0  0
  9 10  2  0  0  0  0
 10 11  1  0  0  0  0
 10 32  1  0  0  0  0
 11 12  2  0  0  0  0
 11 33  1  0  0  0  0
 12 13  1  0  0  0  0
 13 14  1  0  0  0  0
 14 34  1  0  0  0  0
 14 35  1  0  0  0  0
 14 36  1  0  0  0  0
 15 16  1  0  0  0  0
 15 37  1  0  0  0  0
 15 38  1  0  0  0  0
 16 17  1  0  0  0  0
 16 39  1  0  0  0  0
 17 40  1  0  0  0  0
 17 41  1  0  0  0  0
 17 42  1  0  0  0  0
M  CHG  1   6   1
M  END
> <s_m_source_file>
AV-unprocessed.smi

> <i_m_source_file_index>
3183

> <i_lp_mmshare_version>
43012

> <i_f3d_flags>
0

> <s_epik_input>
W0NIM11bQ0BASF0xW0NIMl1bQ0gyXVtDQEhdKFtDSDJdW0NASF0xW0NIM10pW05IXVtDSDJdW0NIMl1jMltjSF1bY0hdbm4yW0NIM10=

> <s_epik_cmdline>
J2VwaWtfcHl0aG9uJywgJy1waCcsICc3LjAnLCAnLXRuJywgJzgnLCAnLW1hJywgJzIwMCcsICctbWV0YWxfYmluZGluZycsICctaW1hZScsICc8aW5maWxlLm1hZT4nLCAnLW9tYWUnLCAnPG91dGZpbGUubWFlPic=

> <r_lp_tautomer_probability>
1

> <r_epik_Ionization_Penalty>
0.000327718

> <r_epik_Ionization_Penalty_Charging>
0.000294043

> <r_epik_Ionization_Penalty_Neutral>
3.36755e-05

> <r_epik_State_Penalty>
-0

> <r_epik_Charging_Adjusted_Penalty>
0.000294043

> <i_epik_Tot_Q>
1

> <i_epik_Tot_abs_Q>
1

> <r_epik_Metal_State_Penalty>
-0

> <b_epik_Metal_Only>
0

> <s_lp_Force_Field>
OPLS_2005

> <r_lp_Energy>
14.1595

> <b_lp_Chiralities_Consistent>
1

> <s_lp_Variant>
AV-unprocessed.smi:3183-1

> <Gold.Version>
5.8.1

> <Gold.Id.Protein>
6NUR|6NUR_protein|mol2

> <Gold.PLP.Fitness>
43.1683

> <Gold.PLP.PLP>
-35.4201

> <Gold.PLP.part.hbond>
-0.9813

> <Gold.PLP.part.metal>
0.0000

> <Gold.PLP.part.buried>
-1.0209

> <Gold.PLP.part.nonpolar>
-34.3002

> <Gold.PLP.part.repulsive>
0.2145

> <Gold.PLP.ligand.clash>
0.0000

> <Gold.PLP.ligand.torsion>
0.3558

> <Gold.PLP.Chemscore.Hbond>
2.0000

> <Gold.PLP.Chemscore.CHOScore>
0.8174

> <Gold.PLP.Chemscore.Metal>
0.0000

> <Gold.Chemscore.Hbonds>
donor molecule, donor type, donor heavy atom, donor atom, acceptor molecule, acceptor atom, score
      L1  H     6    43       P1  8028  2.00
      L1  C    11    33       P1  7948  0.69

> <Gold.PLP.Chemscore.Internal.Correction>
0.0075

> <Gold.Rescore>
     Score         DG    S(hbond)    S(metal)    S(lipo)     H(rot)  DE(clash)    DE(int)     intcor
     17.85     -18.22       0.97        0.00     111.36       1.38       0.01       0.37       ----

> <Gold.Chemscore.Fitness>
17.8508

> <Gold.Chemscore.DG>
-18.2248

> <Gold.Chemscore.ZeroCoef>
-5.4800

> <Gold.Chemscore.Hbond>
0.9702

> <Gold.Chemscore.Metal>
0.0000

> <Gold.Chemscore.Lipo>
111.3585

> <Gold.Chemscore.Internal_Hbond>
0.0000

> <Gold.Chemscore.DEClash>
0.0081

> <Gold.Chemscore.DEInternal>
0.3659

> <Gold.Chemscore.Rot>
1.3768

> <Gold.Chemscore.Internal.Correction>
   9.000000E+99

> <Gold.Chemscore.Hbonds>
donor molecule, donor type, donor heavy atom, donor atom, acceptor molecule, acceptor atom, score
      L1  H     6    43       P1  8028  0.95

> <Gold.Chemscore.Hbond.Weighted>
-3.2405

> <Gold.Chemscore.Metal.Weighted>
-0.0000

> <Gold.Chemscore.Lipo.Weighted>
-13.0289

> <Gold.Chemscore.Internal_Hbond.Weighted>
0.0000

> <Gold.Chemscore.DEClash.Weighted>
0.0081

> <Gold.Chemscore.DEInternal.Weighted>
0.3659

> <Gold.Chemscore.Rot.Weighted>
3.5247

> <Gold.Chemscore.Internal.Correction.Weighted>
   9.000000E+99

> <Gold.Protein.RotatedTorsions>
[ 6907 6896 6895 6894 ] final  169.88 input  -60.11 | X-H torsion
[ 7974 7965 7964 7962 ] final -166.73 input  175.53 | X-H torsion
[ 8008 7997 7996 7995 ] final  -45.98 input   59.86 | X-H torsion
[ 10167 10162 10161 10158 ] final   17.25 input  -65.29 | X-H torsion
[ 10718 10713 10712 10709 ] final -112.14 input   66.30 | X-H torsion
[ 10763 10752 10751 10750 ] final  142.65 input  -60.55 | X-H torsion
[ 11005 11000 10999 10996 ] final  168.22 input  -57.11 | X-H torsion

> <Gold.Protein.ActiveResidues>
 VAL166  LYS551  ARG553  GLY616  TRP617  ASP618  TYR619  PRO620  LYS621  CYS622 
 ASP623  PHE694  ASN695  SER759  ASP760  ASP761  ALA762  ILE779  LEU786  VAL792 
 PHE793  MET794  SER795  GLU796  ALA797  LYS798  CYS799  TRP800  GLU811  SER814 

> <Gold.Protein.RotatedAtoms>
  151.8249  133.3400  159.3595 H   0  0  0  0  0  0  0  0  0  0  0  0  # atno 6907 bound_to 6896
  150.7283  134.5539  159.5817 H   0  0  0  0  0  0  0  0  0  0  0  0  # atno 6908 bound_to 6896
  152.2979  134.7647  160.0415 H   0  0  0  0  0  0  0  0  0  0  0  0  # atno 6909 bound_to 6896
  144.7238  140.2623  143.6263 H   0  0  0  0  0  0  0  0  0  0  0  0  # atno 7974 bound_to 7965
  154.4004  140.1383  156.3936 H   0  0  0  0  0  0  0  0  0  0  0  0  # atno 8008 bound_to 7997
  155.7890  140.3479  155.5318 H   0  0  0  0  0  0  0  0  0  0  0  0  # atno 8009 bound_to 7997
  155.8598  140.0954  157.1611 H   0  0  0  0  0  0  0  0  0  0  0  0  # atno 8010 bound_to 7997
  140.5739  143.9109  150.6734 H   0  0  0  0  0  0  0  0  0  0  0  0  # atno 10167 bound_to 10162
  156.0688  130.5904  150.8469 H   0  0  0  0  0  0  0  0  0  0  0  0  # atno 10718 bound_to 10713
  153.9593  135.2962  155.3434 H   0  0  0  0  0  0  0  0  0  0  0  0  # atno 10763 bound_to 10752
  154.7384  135.5036  153.9083 H   0  0  0  0  0  0  0  0  0  0  0  0  # atno 10764 bound_to 10752
  153.0955  135.6720  153.9882 H   0  0  0  0  0  0  0  0  0  0  0  0  # atno 10765 bound_to 10752
  140.2849  134.7720  157.3790 H   0  0  0  0  0  0  0  0  0  0  0  0  # atno 11005 bound_to 11000
  145.8124  139.2008  143.1985 LP  0  0  0  0  0  0  0  0  0  0  0  0  # atno 17320 bound_to 7965
  146.0585  140.7996  142.9746 LP  0  0  0  0  0  0  0  0  0  0  0  0  # atno 17321 bound_to 7965
  140.2591  143.3537  152.1338 LP  0  0  0  0  0  0  0  0  0  0  0  0  # atno 17342 bound_to 10162
  139.5132  144.6929  151.5711 LP  0  0  0  0  0  0  0  0  0  0  0  0  # atno 17343 bound_to 10162
  157.5747  131.0946  150.9364 LP  0  0  0  0  0  0  0  0  0  0  0  0  # atno 17370 bound_to 10713
  156.9573  130.5442  149.5284 LP  0  0  0  0  0  0  0  0  0  0  0  0  # atno 17371 bound_to 10713
  140.1249  134.5171  155.8153 LP  0  0  0  0  0  0  0  0  0  0  0  0  # atno 17394 bound_to 11000
  141.2156  133.6769  156.6933 LP  0  0  0  0  0  0  0  0  0  0  0  0  # atno 17395 bound_to 11000

$$$$
