AV-unprocessed.smi:1523|AV-procd|sdf|6138|dock3
  -GOLD-   22720 6283D 1   1.00000     0.00000
 Structure written by MMmdl.
 37 38  0  0  0  0  0  0  0  0  1 V2000
  144.9550  129.0961  151.6294 C   0  0  0  0  0  0  0  0  0  0  0  0
  146.3902  128.9818  152.0137 C   0  0  0  0  0  0  0  0  0  0  0  0
  147.0301  129.8928  152.7512 N   0  0  0  0  0  0  0  0  0  0  0  0
  148.3697  129.5596  152.9762 C   0  0  0  0  0  0  0  0  0  0  0  0
  149.2389  130.4668  153.7931 C   0  0  0  0  0  0  0  0  0  0  0  0
  148.6336  131.8724  153.9403 C   0  0  0  0  0  0  0  0  0  0  0  0
  147.9420  132.2879  152.7257 N   0  0  0  0  0  0  0  0  0  0  0  0
  146.9946  133.2386  152.6553 C   0  0  0  0  0  0  0  0  0  0  0  0
  146.6174  133.8589  153.6504 O   0  0  0  0  0  0  0  0  0  0  0  0
  146.4942  133.4524  151.4113 N   0  0  0  0  0  0  0  0  0  0  0  0
  146.7722  132.6497  150.2066 C   0  0  0  0  0  0  0  0  0  0  0  0
  145.5162  131.8321  149.8544 C   0  0  0  0  0  0  0  0  0  0  0  0
  144.3008  132.7604  149.6570 C   0  0  0  0  0  0  0  0  0  0  0  0
  143.1298  131.9892  149.4935 O   0  0  0  0  0  0  0  0  0  0  0  0
  144.1289  133.7286  150.8446 C   0  0  0  0  0  0  0  0  0  0  0  0
  145.4517  134.4553  151.1528 C   0  0  0  0  0  0  0  0  0  0  0  0
  148.7372  128.3730  152.3921 C   0  0  0  0  0  0  0  0  0  0  0  0
  147.4131  127.6325  151.5356 S   0  0  0  0  0  0  0  0  0  0  0  0
  144.3948  129.6222  152.4030 H   0  0  0  0  0  0  0  0  0  0  0  0
  144.5203  128.1049  151.4985 H   0  0  0  0  0  0  0  0  0  0  0  0
  144.8629  129.6459  150.6927 H   0  0  0  0  0  0  0  0  0  0  0  0
  149.3997  130.0318  154.7804 H   0  0  0  0  0  0  0  0  0  0  0  0
  150.2267  130.5420  153.3363 H   0  0  0  0  0  0  0  0  0  0  0  0
  147.9112  131.8828  154.7568 H   0  0  0  0  0  0  0  0  0  0  0  0
  149.4069  132.5972  154.2013 H   0  0  0  0  0  0  0  0  0  0  0  0
  148.2007  131.8164  151.8715 H   0  0  0  0  0  0  0  0  0  0  0  0
  147.0209  133.3197  149.3822 H   0  0  0  0  0  0  0  0  0  0  0  0
  147.6317  131.9864  150.3032 H   0  0  0  0  0  0  0  0  0  0  0  0
  145.6924  131.2456  148.9521 H   0  0  0  0  0  0  0  0  0  0  0  0
  145.3153  131.1188  150.6555 H   0  0  0  0  0  0  0  0  0  0  0  0
  144.4465  133.3438  148.7469 H   0  0  0  0  0  0  0  0  0  0  0  0
  142.3962  132.5749  149.3835 H   0  0  0  0  0  0  0  0  0  0  0  0
  143.3439  134.4542  150.6285 H   0  0  0  0  0  0  0  0  0  0  0  0
  143.8074  133.1780  151.7303 H   0  0  0  0  0  0  0  0  0  0  0  0
  145.3097  135.1447  151.9862 H   0  0  0  0  0  0  0  0  0  0  0  0
  145.7465  135.0749  150.3048 H   0  0  0  0  0  0  0  0  0  0  0  0
  149.7031  127.8906  152.4149 H   0  0  0  0  0  0  0  0  0  0  0  0
  1  2  1  0  0  0  0
  1 19  1  0  0  0  0
  1 20  1  0  0  0  0
  1 21  1  0  0  0  0
  2 18  1  0  0  0  0
  2  3  2  0  0  0  0
  3  4  1  0  0  0  0
  4  5  1  0  0  0  0
  4 17  2  0  0  0  0
  5  6  1  0  0  0  0
  5 22  1  0  0  0  0
  5 23  1  0  0  0  0
  6  7  1  0  0  0  0
  6 24  1  0  0  0  0
  6 25  1  0  0  0  0
  7  8  1  0  0  0  0
  7 26  1  0  0  0  0
  8  9  2  0  0  0  0
  8 10  1  0  0  0  0
 10 16  1  0  0  0  0
 10 11  1  0  0  0  0
 11 12  1  0  0  0  0
 11 27  1  0  0  0  0
 11 28  1  0  0  0  0
 12 13  1  0  0  0  0
 12 29  1  0  0  0  0
 12 30  1  0  0  0  0
 13 14  1  0  0  0  0
 13 15  1  0  0  0  0
 13 31  1  0  0  0  0
 14 32  1  0  0  0  0
 15 16  1  0  0  0  0
 15 33  1  0  0  0  0
 15 34  1  0  0  0  0
 16 35  1  0  0  0  0
 16 36  1  0  0  0  0
 17 18  1  0  0  0  0
 17 37  1  0  0  0  0
M  END
> <s_m_source_file>
AV-unprocessed.smi

> <i_m_source_file_index>
1523

> <i_lp_mmshare_version>
43012

> <i_f3d_flags>
0

> <s_epik_input>
W0NIM11jMW5jKFtjSF1zMSlbQ0gyXVtDSDJdW05IXUMoPU8pTjJbQ0gyXVtDSDJdW0NIXShbT0hdKVtDSDJdW0NIMl0y

> <s_epik_cmdline>
J2VwaWtfcHl0aG9uJywgJy1waCcsICc3LjAnLCAnLXRuJywgJzgnLCAnLW1hJywgJzIwMCcsICctbWV0YWxfYmluZGluZycsICctaW1hZScsICc8aW5maWxlLm1hZT4nLCAnLW9tYWUnLCAnPG91dGZpbGUubWFlPic=

> <r_epik_Ionization_Penalty>
0.00204564

> <r_epik_Ionization_Penalty_Charging>
0

> <r_epik_Ionization_Penalty_Neutral>
0.00204564

> <r_epik_State_Penalty>
0.00135655

> <r_epik_Charging_Adjusted_Penalty>
0.00135655

> <i_epik_Tot_Q>
0

> <i_epik_Tot_abs_Q>
0

> <r_epik_Metal_State_Penalty>
-0

> <b_epik_Metal_Only>
0

> <s_lp_Force_Field>
OPLS_2005

> <r_lp_Energy>
24.1717

> <b_lp_Chiralities_Consistent>
1

> <s_lp_Variant>
AV-unprocessed.smi:1523-1

> <Gold.Version>
5.8.1

> <Gold.Id.Protein>
6NUR|6NUR_protein|mol2

> <Gold.PLP.Fitness>
45.4507

> <Gold.PLP.PLP>
-36.2384

> <Gold.PLP.part.hbond>
-3.4714

> <Gold.PLP.part.metal>
0.0000

> <Gold.PLP.part.buried>
-3.1828

> <Gold.PLP.part.nonpolar>
-30.1392

> <Gold.PLP.part.repulsive>
0.2125

> <Gold.PLP.ligand.clash>
0.0000

> <Gold.PLP.ligand.torsion>
0.5128

> <Gold.PLP.Chemscore.Hbond>
2.4062

> <Gold.PLP.Chemscore.CHOScore>
1.0000

> <Gold.PLP.Chemscore.Metal>
0.0000

> <Gold.Chemscore.Hbonds>
donor molecule, donor type, donor heavy atom, donor atom, acceptor molecule, acceptor atom, score
      L1  H     7    26       P1 10747  1.00
      L1  H    14    32       P1 10186  0.31
      P1  H 10785 10796       L1    14  1.00
      L1  C    17    37       P1 10737  1.00

> <Gold.PLP.Chemscore.Internal.Correction>
0.0191

> <Gold.Rescore>
     Score         DG    S(hbond)    S(metal)    S(lipo)     H(rot)  DE(clash)    DE(int)     intcor
     16.73     -19.82       2.27        0.00      98.31       1.86       2.59       0.50       ----

> <Gold.Chemscore.Fitness>
16.7292

> <Gold.Chemscore.DG>
-19.8168

> <Gold.Chemscore.ZeroCoef>
-5.4800

> <Gold.Chemscore.Hbond>
2.2749

> <Gold.Chemscore.Metal>
0.0000

> <Gold.Chemscore.Lipo>
98.3059

> <Gold.Chemscore.Internal_Hbond>
0.0000

> <Gold.Chemscore.DEClash>
2.5895

> <Gold.Chemscore.DEInternal>
0.4981

> <Gold.Chemscore.Rot>
1.8607

> <Gold.Chemscore.Internal.Correction>
   9.000000E+99

> <Gold.Chemscore.Hbonds>
donor molecule, donor type, donor heavy atom, donor atom, acceptor molecule, acceptor atom, score
      L1  H     7    26       P1 10747  0.95
      L1  H    14    32       P1 10186  0.31
      P1  H 10785 10796       L1    14  0.94

> <Gold.Chemscore.Hbond.Weighted>
-7.5983

> <Gold.Chemscore.Metal.Weighted>
-0.0000

> <Gold.Chemscore.Lipo.Weighted>
-11.5018

> <Gold.Chemscore.Internal_Hbond.Weighted>
0.0000

> <Gold.Chemscore.DEClash.Weighted>
2.5895

> <Gold.Chemscore.DEInternal.Weighted>
0.4981

> <Gold.Chemscore.Rot.Weighted>
4.7633

> <Gold.Chemscore.Internal.Correction.Weighted>
   9.000000E+99

> <Gold.Protein.RotatedTorsions>
[ 6907 6896 6895 6894 ] final -106.84 input  -60.11 | X-H torsion
[ 7974 7965 7964 7962 ] final  -49.85 input  175.53 | X-H torsion
[ 8008 7997 7996 7995 ] final  162.31 input   59.86 | X-H torsion
[ 10167 10162 10161 10158 ] final  176.65 input  -65.29 | X-H torsion
[ 10718 10713 10712 10709 ] final  141.07 input   66.30 | X-H torsion
[ 10763 10752 10751 10750 ] final   38.21 input  -60.55 | X-H torsion
[ 11005 11000 10999 10996 ] final   23.69 input  -57.11 | X-H torsion

> <Gold.Protein.ActiveResidues>
 VAL166  LYS551  ARG553  GLY616  TRP617  ASP618  TYR619  PRO620  LYS621  CYS622 
 ASP623  PHE694  ASN695  SER759  ASP760  ASP761  ALA762  ILE779  LEU786  VAL792 
 PHE793  MET794  SER795  GLU796  ALA797  LYS798  CYS799  TRP800  GLU811  SER814 

> <Gold.Protein.RotatedAtoms>
  150.7411  133.9916  159.3608 H   0  0  0  0  0  0  0  0  0  0  0  0  # atno 6907 bound_to 6896
  151.7864  135.0745  160.0390 H   0  0  0  0  0  0  0  0  0  0  0  0  # atno 6908 bound_to 6896
  152.3238  133.5846  159.5799 H   0  0  0  0  0  0  0  0  0  0  0  0  # atno 6909 bound_to 6896
  145.9362  140.7704  142.9575 H   0  0  0  0  0  0  0  0  0  0  0  0  # atno 7974 bound_to 7965
  156.2040  140.1754  156.7838 H   0  0  0  0  0  0  0  0  0  0  0  0  # atno 8008 bound_to 7997
  154.5630  140.0696  156.8879 H   0  0  0  0  0  0  0  0  0  0  0  0  # atno 8009 bound_to 7997
  155.2813  140.3349  155.4260 H   0  0  0  0  0  0  0  0  0  0  0  0  # atno 8010 bound_to 7997
  139.5222  144.2891  152.0480 H   0  0  0  0  0  0  0  0  0  0  0  0  # atno 10167 bound_to 10162
  157.3961  131.1011  151.0598 H   0  0  0  0  0  0  0  0  0  0  0  0  # atno 10718 bound_to 10713
  153.0009  135.6256  154.2268 H   0  0  0  0  0  0  0  0  0  0  0  0  # atno 10763 bound_to 10752
  154.2011  135.2804  155.2992 H   0  0  0  0  0  0  0  0  0  0  0  0  # atno 10764 bound_to 10752
  154.5683  135.5684  153.7130 H   0  0  0  0  0  0  0  0  0  0  0  0  # atno 10765 bound_to 10752
  140.3669  134.2065  155.7669 H   0  0  0  0  0  0  0  0  0  0  0  0  # atno 11005 bound_to 11000
  144.6772  140.2206  143.7367 LP  0  0  0  0  0  0  0  0  0  0  0  0  # atno 17320 bound_to 7965
  145.8361  139.2108  143.1855 LP  0  0  0  0  0  0  0  0  0  0  0  0  # atno 17321 bound_to 7965
  140.2343  144.4336  150.6287 LP  0  0  0  0  0  0  0  0  0  0  0  0  # atno 17342 bound_to 10162
  140.6334  143.2191  151.6446 LP  0  0  0  0  0  0  0  0  0  0  0  0  # atno 17343 bound_to 10162
  157.1614  130.6227  149.5612 LP  0  0  0  0  0  0  0  0  0  0  0  0  # atno 17370 bound_to 10713
  155.9811  130.4816  150.6808 LP  0  0  0  0  0  0  0  0  0  0  0  0  # atno 17371 bound_to 10713
  141.1967  133.8077  157.0661 LP  0  0  0  0  0  0  0  0  0  0  0  0  # atno 17394 bound_to 11000
  140.0582  134.9769  157.1258 LP  0  0  0  0  0  0  0  0  0  0  0  0  # atno 17395 bound_to 11000

$$$$
