AV-unprocessed.smi:1554|AV-procd|sdf|6243|dock2
  -GOLD-   22720 6423D 1   1.00000     0.00000
 Structure written by MMmdl.
 47 49  0  0  0  0  0  0  0  0  1 V2000
  153.3901  143.1047  163.4198 C   0  0  0  0  0  0  0  0  0  0  0  0
  153.0140  142.7251  161.9983 C   0  0  0  0  0  0  0  0  0  0  0  0
  152.1341  143.5604  161.2738 C   0  0  0  0  0  0  0  0  0  0  0  0
  151.7610  143.2438  159.9491 C   0  0  0  0  0  0  0  0  0  0  0  0
  150.9290  143.9108  159.0660 N   0  0  0  0  0  0  0  0  0  0  0  0
  150.9827  143.1197  157.9984 C   0  0  0  0  0  0  0  0  0  0  0  0
  151.7502  142.0165  158.0857 N   0  0  0  0  0  0  0  0  0  0  0  0
  151.9546  141.0118  157.0570 C   0  0  0  0  0  0  0  0  0  0  0  0
  150.7658  140.9091  156.0823 C   0  0  1  0  0  0  0  0  0  0  0  0
  151.1699  140.2058  154.9239 O   0  0  0  0  0  0  0  0  0  0  0  0
  149.5797  140.1571  156.7187 C   0  0  0  0  0  0  0  0  0  0  0  0
  148.3286  140.1874  155.9584 N   0  0  0  0  0  0  0  0  0  0  0  0
  148.3251  139.2539  154.8339 C   0  0  0  0  0  0  0  0  0  0  0  0
  147.0151  139.3281  154.0311 C   0  0  0  0  0  0  0  0  0  0  0  0
  146.7993  140.6635  153.5881 O   0  0  0  0  0  0  0  0  0  0  0  0
  146.7438  141.6018  154.6585 C   0  0  2  0  0  0  0  0  0  0  0  0
  146.4989  142.9942  154.0675 C   0  0  0  0  0  0  0  0  0  0  0  0
  148.0607  141.5308  155.4557 C   0  0  0  0  0  0  0  0  0  0  0  0
  152.2924  142.0566  159.3659 C   0  0  0  0  0  0  0  0  0  0  0  0
  153.1692  141.2180  160.0764 C   0  0  0  0  0  0  0  0  0  0  0  0
  153.5363  141.5518  161.3968 C   0  0  0  0  0  0  0  0  0  0  0  0
  154.4901  140.6431  162.1519 C   0  0  0  0  0  0  0  0  0  0  0  0
  152.8312  143.9772  163.7594 H   0  0  0  0  0  0  0  0  0  0  0  0
  154.4525  143.3411  163.4817 H   0  0  0  0  0  0  0  0  0  0  0  0
  153.1762  142.2855  164.1063 H   0  0  0  0  0  0  0  0  0  0  0  0
  151.7382  144.4554  161.7307 H   0  0  0  0  0  0  0  0  0  0  0  0
  150.4307  143.3546  157.1001 H   0  0  0  0  0  0  0  0  0  0  0  0
  152.8743  141.2449  156.5187 H   0  0  0  0  0  0  0  0  0  0  0  0
  152.1188  140.0524  157.5491 H   0  0  0  0  0  0  0  0  0  0  0  0
  150.4740  141.9174  155.7908 H   0  0  0  0  0  0  0  0  0  0  0  0
  150.4604  139.6408  154.6572 H   0  0  0  0  0  0  0  0  0  0  0  0
  149.8831  139.1197  156.8689 H   0  0  0  0  0  0  0  0  0  0  0  0
  149.3973  140.5570  157.7173 H   0  0  0  0  0  0  0  0  0  0  0  0
  149.1659  139.4678  154.1722 H   0  0  0  0  0  0  0  0  0  0  0  0
  148.4546  138.2312  155.1846 H   0  0  0  0  0  0  0  0  0  0  0  0
  147.0637  138.6685  153.1645 H   0  0  0  0  0  0  0  0  0  0  0  0
  146.1711  138.9977  154.6384 H   0  0  0  0  0  0  0  0  0  0  0  0
  145.9069  141.3454  155.3107 H   0  0  0  0  0  0  0  0  0  0  0  0
  146.4379  143.7487  154.8521 H   0  0  0  0  0  0  0  0  0  0  0  0
  145.5640  143.0209  153.5074 H   0  0  0  0  0  0  0  0  0  0  0  0
  147.3023  143.2811  153.3884 H   0  0  0  0  0  0  0  0  0  0  0  0
  148.0134  142.2322  156.2898 H   0  0  0  0  0  0  0  0  0  0  0  0
  148.8864  141.8577  154.8214 H   0  0  0  0  0  0  0  0  0  0  0  0
  153.5600  140.3282  159.6052 H   0  0  0  0  0  0  0  0  0  0  0  0
  154.8386  139.8229  161.5237 H   0  0  0  0  0  0  0  0  0  0  0  0
  153.9968  140.2120  163.0233 H   0  0  0  0  0  0  0  0  0  0  0  0
  155.3644  141.2005  162.4882 H   0  0  0  0  0  0  0  0  0  0  0  0
  1  2  1  0  0  0  0
  1 23  1  0  0  0  0
  1 24  1  0  0  0  0
  1 25  1  0  0  0  0
  2 21  1  0  0  0  0
  2  3  2  0  0  0  0
  3  4  1  0  0  0  0
  3 26  1  0  0  0  0
  4 19  2  0  0  0  0
  4  5  1  0  0  0  0
  5  6  2  0  0  0  0
  6  7  1  0  0  0  0
  6 27  1  0  0  0  0
  7  8  1  0  0  0  0
  7 19  1  0  0  0  0
  8  9  1  0  0  0  0
  8 28  1  0  0  0  0
  8 29  1  0  0  0  0
  9 10  1  0  0  0  0
  9 11  1  0  0  0  0
  9 30  1  0  0  0  0
 10 31  1  0  0  0  0
 11 12  1  0  0  0  0
 11 32  1  0  0  0  0
 11 33  1  0  0  0  0
 12 18  1  0  0  0  0
 12 13  1  0  0  0  0
 13 14  1  0  0  0  0
 13 34  1  0  0  0  0
 13 35  1  0  0  0  0
 14 15  1  0  0  0  0
 14 36  1  0  0  0  0
 14 37  1  0  0  0  0
 15 16  1  0  0  0  0
 16 17  1  0  0  0  0
 16 18  1  0  0  0  0
 16 38  1  0  0  0  0
 17 39  1  0  0  0  0
 17 40  1  0  0  0  0
 17 41  1  0  0  0  0
 18 42  1  0  0  0  0
 18 43  1  0  0  0  0
 19 20  1  0  0  0  0
 20 21  2  0  0  0  0
 20 44  1  0  0  0  0
 21 22  1  0  0  0  0
 22 45  1  0  0  0  0
 22 46  1  0  0  0  0
 22 47  1  0  0  0  0
M  END
> <s_m_source_file>
AV-unprocessed.smi

> <i_m_source_file_index>
1554

> <i_lp_mmshare_version>
43012

> <i_f3d_flags>
0

> <s_epik_input>
W0NIM11jKFtjSF0xKWMoW0NIM10pW2NIXWMoYzEyKW4oW2NIXW4yKVtDSDJdW0NASF0oW09IXSlbQ0gyXU4zW0NIMl1bQ0gyXU9bQ0BASF0oW0NIM10pW0NIMl0z

> <s_epik_cmdline>
J2VwaWtfcHl0aG9uJywgJy1waCcsICc3LjAnLCAnLXRuJywgJzgnLCAnLW1hJywgJzIwMCcsICctbWV0YWxfYmluZGluZycsICctaW1hZScsICc8aW5maWxlLm1hZT4nLCAnLW9tYWUnLCAnPG91dGZpbGUubWFlPic=

> <r_epik_Ionization_Penalty>
0.345108

> <r_epik_Ionization_Penalty_Charging>
0

> <r_epik_Ionization_Penalty_Neutral>
0.345108

> <r_epik_State_Penalty>
0.314544

> <r_epik_Charging_Adjusted_Penalty>
0.314544

> <i_epik_Tot_Q>
0

> <i_epik_Tot_abs_Q>
0

> <r_epik_Metal_State_Penalty>
0.239719

> <b_epik_Metal_Only>
0

> <s_lp_Force_Field>
OPLS_2005

> <r_lp_Energy>
29.2504

> <b_lp_Chiralities_Consistent>
1

> <s_lp_Variant>
AV-unprocessed.smi:1554-4

> <Gold.Version>
5.8.1

> <Gold.Id.Protein>
6NUR|6NUR_protein|mol2

> <Gold.PLP.Fitness>
50.8840

> <Gold.PLP.PLP>
-46.1769

> <Gold.PLP.part.hbond>
-1.0000

> <Gold.PLP.part.metal>
0.0000

> <Gold.PLP.part.buried>
-7.1216

> <Gold.PLP.part.nonpolar>
-37.8558

> <Gold.PLP.part.repulsive>
0.2892

> <Gold.PLP.ligand.clash>
0.0000

> <Gold.PLP.ligand.torsion>
0.6691

> <Gold.PLP.Chemscore.Hbond>
1.0000

> <Gold.PLP.Chemscore.CHOScore>
1.0000

> <Gold.PLP.Chemscore.Metal>
0.0000

> <Gold.Chemscore.Hbonds>
donor molecule, donor type, donor heavy atom, donor atom, acceptor molecule, acceptor atom, score
      P1  H  7989  7998       L1    10  1.00
      L1  C     6    27       P1  8028  1.00

> <Gold.PLP.Chemscore.Internal.Correction>
0.0453

> <Gold.Rescore>
     Score         DG    S(hbond)    S(metal)    S(lipo)     H(rot)  DE(clash)    DE(int)     intcor
     16.61     -17.47       0.91        0.00     119.99       1.98       0.06       0.80       ----

> <Gold.Chemscore.Fitness>
16.6074

> <Gold.Chemscore.DG>
-17.4732

> <Gold.Chemscore.ZeroCoef>
-5.4800

> <Gold.Chemscore.Hbond>
0.9088

> <Gold.Chemscore.Metal>
0.0000

> <Gold.Chemscore.Lipo>
119.9900

> <Gold.Chemscore.Internal_Hbond>
0.0000

> <Gold.Chemscore.DEClash>
0.0640

> <Gold.Chemscore.DEInternal>
0.8018

> <Gold.Chemscore.Rot>
1.9848

> <Gold.Chemscore.Internal.Correction>
   9.000000E+99

> <Gold.Chemscore.Hbonds>
donor molecule, donor type, donor heavy atom, donor atom, acceptor molecule, acceptor atom, score
      P1  H  7989  7998       L1    10  0.39

> <Gold.Chemscore.Hbond.Weighted>
-3.0353

> <Gold.Chemscore.Metal.Weighted>
-0.0000

> <Gold.Chemscore.Lipo.Weighted>
-14.0388

> <Gold.Chemscore.Internal_Hbond.Weighted>
0.0000

> <Gold.Chemscore.DEClash.Weighted>
0.0640

> <Gold.Chemscore.DEInternal.Weighted>
0.8018

> <Gold.Chemscore.Rot.Weighted>
5.0810

> <Gold.Chemscore.Internal.Correction.Weighted>
   9.000000E+99

> <Gold.Protein.RotatedTorsions>
[ 6907 6896 6895 6894 ] final  150.73 input  -60.11 | X-H torsion
[ 7974 7965 7964 7962 ] final  -76.80 input  175.53 | X-H torsion
[ 8008 7997 7996 7995 ] final  -36.88 input   59.86 | X-H torsion
[ 10167 10162 10161 10158 ] final   64.02 input  -65.29 | X-H torsion
[ 10718 10713 10712 10709 ] final  -93.40 input   66.30 | X-H torsion
[ 10763 10752 10751 10750 ] final -156.09 input  -60.55 | X-H torsion
[ 11005 11000 10999 10996 ] final  -42.71 input  -57.11 | X-H torsion

> <Gold.Protein.ActiveResidues>
 VAL166  LYS551  ARG553  GLY616  TRP617  ASP618  TYR619  PRO620  LYS621  CYS622 
 ASP623  PHE694  ASN695  SER759  ASP760  ASP761  ALA762  ILE779  LEU786  VAL792 
 PHE793  MET794  SER795  GLU796  ALA797  LYS798  CYS799  TRP800  GLU811  SER814 

> <Gold.Protein.RotatedAtoms>
  152.1104  133.4297  159.4628 H   0  0  0  0  0  0  0  0  0  0  0  0  # atno 6907 bound_to 6896
  150.6867  134.2655  159.4576 H   0  0  0  0  0  0  0  0  0  0  0  0  # atno 6908 bound_to 6896
  152.0523  134.9645  160.0625 H   0  0  0  0  0  0  0  0  0  0  0  0  # atno 6909 bound_to 6896
  145.6081  140.9393  143.1204 H   0  0  0  0  0  0  0  0  0  0  0  0  # atno 7974 bound_to 7965
  154.4064  140.1619  156.2446 H   0  0  0  0  0  0  0  0  0  0  0  0  # atno 8008 bound_to 7997
  155.9172  140.3423  155.6121 H   0  0  0  0  0  0  0  0  0  0  0  0  # atno 8009 bound_to 7997
  155.7266  140.0775  157.2298 H   0  0  0  0  0  0  0  0  0  0  0  0  # atno 8010 bound_to 7997
  140.1267  144.4681  150.6888 H   0  0  0  0  0  0  0  0  0  0  0  0  # atno 10167 bound_to 10162
  156.0013  130.5025  150.5770 H   0  0  0  0  0  0  0  0  0  0  0  0  # atno 10718 bound_to 10713
  154.7739  135.3153  154.8133 H   0  0  0  0  0  0  0  0  0  0  0  0  # atno 10763 bound_to 10752
  153.8861  135.6830  153.4768 H   0  0  0  0  0  0  0  0  0  0  0  0  # atno 10764 bound_to 10752
  153.1358  135.4760  154.9356 H   0  0  0  0  0  0  0  0  0  0  0  0  # atno 10765 bound_to 10752
  141.0334  133.6810  156.2632 H   0  0  0  0  0  0  0  0  0  0  0  0  # atno 11005 bound_to 11000
  144.7281  139.7810  143.7357 LP  0  0  0  0  0  0  0  0  0  0  0  0  # atno 17320 bound_to 7965
  146.1525  139.4613  143.0039 LP  0  0  0  0  0  0  0  0  0  0  0  0  # atno 17321 bound_to 7965
  140.6841  143.2341  151.5308 LP  0  0  0  0  0  0  0  0  0  0  0  0  # atno 17342 bound_to 10162
  139.5540  144.2322  152.1581 LP  0  0  0  0  0  0  0  0  0  0  0  0  # atno 17343 bound_to 10162
  157.3656  131.0757  151.1600 LP  0  0  0  0  0  0  0  0  0  0  0  0  # atno 17370 bound_to 10713
  157.2371  130.6552  149.5874 LP  0  0  0  0  0  0  0  0  0  0  0  0  # atno 17371 bound_to 10713
  140.6366  134.5209  157.5565 LP  0  0  0  0  0  0  0  0  0  0  0  0  # atno 17394 bound_to 11000
  139.9224  134.8123  156.1172 LP  0  0  0  0  0  0  0  0  0  0  0  0  # atno 17395 bound_to 11000

$$$$
