AV-unprocessed.smi:926|AV-procd|sdf|4186|dock6
  -GOLD-   22720 2 93D 1   1.00000     0.00000
 Structure written by MMmdl.
 37 39  0  0  0  0  0  0  0  0  1 V2000
  148.1377  141.4471  154.8639 O   0  0  0  0  0  0  0  0  0  0  0  0
  149.0963  140.6897  155.0250 C   0  0  0  0  0  0  0  0  0  0  0  0
  149.4350  139.6046  153.9957 C   0  0  0  0  0  0  0  0  0  0  0  0
  150.5694  138.7868  154.3896 N   0  0  0  0  0  0  0  0  0  0  0  0
  150.7112  137.4618  154.4692 C   0  0  0  0  0  0  0  0  0  0  0  0
  151.9244  137.1235  154.8780 N   0  0  0  0  0  0  0  0  0  0  0  0
  152.5494  138.3467  155.0543 N   0  0  0  0  0  0  0  0  0  0  0  0
  151.7504  139.3373  154.7658 N   0  0  0  0  0  0  0  0  0  0  0  0
  149.9103  140.7562  156.0895 N   0  0  0  0  0  0  0  0  0  0  0  0
  149.7788  141.7123  157.1821 C   0  0  0  0  0  0  0  0  0  0  0  0
  151.1525  142.1386  157.7286 C   0  0  0  0  0  0  0  0  0  0  0  0
  151.2500  143.6489  158.0219 C   0  0  1  0  0  0  0  0  0  0  0  0
  150.2576  144.1452  159.0957 C   0  0  0  0  0  0  0  0  0  0  0  0
  151.1614  144.9309  160.0641 C   0  0  1  0  0  0  0  0  0  0  0  0
  152.0075  143.9382  160.8829 C   0  0  0  0  0  0  0  0  0  0  0  0
  153.0312  143.4338  159.8494 C   0  0  0  0  0  0  0  0  0  0  0  0
  152.6059  144.1685  158.5614 C   0  0  2  0  0  0  0  0  0  0  0  0
  152.1993  145.5282  159.1203 C   0  0  0  0  0  0  0  0  0  0  0  0
  148.5708  138.9536  153.8592 H   0  0  0  0  0  0  0  0  0  0  0  0
  149.6470  140.0680  153.0307 H   0  0  0  0  0  0  0  0  0  0  0  0
  149.9312  136.7530  154.2329 H   0  0  0  0  0  0  0  0  0  0  0  0
  150.6745  140.0984  156.1477 H   0  0  0  0  0  0  0  0  0  0  0  0
  149.2093  142.5791  156.8432 H   0  0  0  0  0  0  0  0  0  0  0  0
  149.1919  141.2463  157.9738 H   0  0  0  0  0  0  0  0  0  0  0  0
  151.3496  141.5921  158.6517 H   0  0  0  0  0  0  0  0  0  0  0  0
  151.9413  141.8373  157.0396 H   0  0  0  0  0  0  0  0  0  0  0  0
  151.0358  144.1801  157.0926 H   0  0  0  0  0  0  0  0  0  0  0  0
  149.5058  144.7969  158.6487 H   0  0  0  0  0  0  0  0  0  0  0  0
  149.7317  143.3333  159.5998 H   0  0  0  0  0  0  0  0  0  0  0  0
  150.6221  145.6540  160.6764 H   0  0  0  0  0  0  0  0  0  0  0  0
  152.5125  144.4421  161.7080 H   0  0  0  0  0  0  0  0  0  0  0  0
  151.4067  143.1299  161.3019 H   0  0  0  0  0  0  0  0  0  0  0  0
  154.0383  143.7347  160.1413 H   0  0  0  0  0  0  0  0  0  0  0  0
  153.0378  142.3490  159.7506 H   0  0  0  0  0  0  0  0  0  0  0  0
  153.3903  144.2101  157.8053 H   0  0  0  0  0  0  0  0  0  0  0  0
  151.7703  146.1965  158.3715 H   0  0  0  0  0  0  0  0  0  0  0  0
  153.0092  146.0451  159.6383 H   0  0  0  0  0  0  0  0  0  0  0  0
  1  2  2  0  0  0  0
  2  3  1  0  0  0  0
  2  9  1  0  0  0  0
  3  4  1  0  0  0  0
  3 19  1  0  0  0  0
  3 20  1  0  0  0  0
  4  8  1  0  0  0  0
  4  5  1  0  0  0  0
  5  6  2  0  0  0  0
  5 21  1  0  0  0  0
  6  7  1  0  0  0  0
  7  8  2  0  0  0  0
  9 10  1  0  0  0  0
  9 22  1  0  0  0  0
 10 11  1  0  0  0  0
 10 23  1  0  0  0  0
 10 24  1  0  0  0  0
 11 12  1  0  0  0  0
 11 25  1  0  0  0  0
 11 26  1  0  0  0  0
 12 17  1  0  0  0  0
 12 13  1  0  0  0  0
 12 27  1  0  0  0  0
 13 14  1  0  0  0  0
 13 28  1  0  0  0  0
 13 29  1  0  0  0  0
 14 18  1  0  0  0  0
 14 15  1  0  0  0  0
 14 30  1  0  0  0  0
 15 16  1  0  0  0  0
 15 31  1  0  0  0  0
 15 32  1  0  0  0  0
 16 17  1  0  0  0  0
 16 33  1  0  0  0  0
 16 34  1  0  0  0  0
 17 18  1  0  0  0  0
 17 35  1  0  0  0  0
 18 36  1  0  0  0  0
 18 37  1  0  0  0  0
M  END
> <s_m_source_file>
AV-unprocessed.smi

> <i_m_source_file_index>
926

> <i_lp_mmshare_version>
43012

> <i_f3d_flags>
0

> <s_epik_input>
bjFubltjSF1uMVtDSDJdQyg9TylbTkhdW0NIMl1bQ0gyXVtDQEhdKFtDSDJdW0NASF0yMylbQ0BIXShbQ0gyXTMpW0NIMl1bQ0gyXTI=

> <s_epik_cmdline>
J2VwaWtfcHl0aG9uJywgJy1waCcsICc3LjAnLCAnLXRuJywgJzgnLCAnLW1hJywgJzIwMCcsICctbWV0YWxfYmluZGluZycsICctaW1hZScsICc8aW5maWxlLm1hZT4nLCAnLW9tYWUnLCAnPG91dGZpbGUubWFlPic=

> <r_lp_tautomer_probability>
1

> <r_epik_Ionization_Penalty>
4.22645e-07

> <r_epik_Ionization_Penalty_Charging>
0

> <r_epik_Ionization_Penalty_Neutral>
4.22645e-07

> <r_epik_State_Penalty>
-0

> <r_epik_Charging_Adjusted_Penalty>
0

> <i_epik_Tot_Q>
0

> <i_epik_Tot_abs_Q>
0

> <r_epik_Metal_State_Penalty>
-0

> <b_epik_Metal_Only>
0

> <s_lp_Force_Field>
OPLS_2005

> <r_lp_Energy>
51.6894

> <b_lp_Chiralities_Consistent>
1

> <s_lp_Variant>
AV-unprocessed.smi:926-4

> <Gold.Version>
5.8.1

> <Gold.Id.Protein>
6NUR|6NUR_protein|mol2

> <Gold.PLP.Fitness>
48.5024

> <Gold.PLP.PLP>
-41.2245

> <Gold.PLP.part.hbond>
-2.0000

> <Gold.PLP.part.metal>
0.0000

> <Gold.PLP.part.buried>
-4.8255

> <Gold.PLP.part.nonpolar>
-34.9626

> <Gold.PLP.part.repulsive>
0.3928

> <Gold.PLP.ligand.clash>
0.0000

> <Gold.PLP.ligand.torsion>
0.5460

> <Gold.PLP.Chemscore.Hbond>
1.8600

> <Gold.PLP.Chemscore.CHOScore>
0.9249

> <Gold.PLP.Chemscore.Metal>
0.0000

> <Gold.Chemscore.Hbonds>
donor molecule, donor type, donor heavy atom, donor atom, acceptor molecule, acceptor atom, score
      P1  H  7989  7998       L1     8  0.75
      P1  H 10752 10763       L1     6  0.98
      L1  C     5    21       P1  7948  0.80

> <Gold.PLP.Chemscore.Internal.Correction>
0.0152

> <Gold.Rescore>
     Score         DG    S(hbond)    S(metal)    S(lipo)     H(rot)  DE(clash)    DE(int)     intcor
     16.68     -17.64       1.90        0.00     105.29       2.54       0.45       0.50       ----

> <Gold.Chemscore.Fitness>
16.6794

> <Gold.Chemscore.DG>
-17.6369

> <Gold.Chemscore.ZeroCoef>
-5.4800

> <Gold.Chemscore.Hbond>
1.9013

> <Gold.Chemscore.Metal>
0.0000

> <Gold.Chemscore.Lipo>
105.2851

> <Gold.Chemscore.Internal_Hbond>
0.0000

> <Gold.Chemscore.DEClash>
0.4539

> <Gold.Chemscore.DEInternal>
0.5036

> <Gold.Chemscore.Rot>
2.5436

> <Gold.Chemscore.Internal.Correction>
   9.000000E+99

> <Gold.Chemscore.Hbonds>
donor molecule, donor type, donor heavy atom, donor atom, acceptor molecule, acceptor atom, score
      P1  H  7989  7998       L1     8  0.09
      P1  H 10752 10763       L1     6  0.90

> <Gold.Chemscore.Hbond.Weighted>
-6.3502

> <Gold.Chemscore.Metal.Weighted>
-0.0000

> <Gold.Chemscore.Lipo.Weighted>
-12.3184

> <Gold.Chemscore.Internal_Hbond.Weighted>
0.0000

> <Gold.Chemscore.DEClash.Weighted>
0.4539

> <Gold.Chemscore.DEInternal.Weighted>
0.5036

> <Gold.Chemscore.Rot.Weighted>
6.5117

> <Gold.Chemscore.Internal.Correction.Weighted>
   9.000000E+99

> <Gold.Protein.RotatedTorsions>
[ 6907 6896 6895 6894 ] final   45.18 input  -60.11 | X-H torsion
[ 7974 7965 7964 7962 ] final -157.34 input  175.53 | X-H torsion
[ 8008 7997 7996 7995 ] final -118.65 input   59.86 | X-H torsion
[ 10167 10162 10161 10158 ] final   -0.07 input  -65.29 | X-H torsion
[ 10718 10713 10712 10709 ] final  142.53 input   66.30 | X-H torsion
[ 10763 10752 10751 10750 ] final   56.46 input  -60.55 | X-H torsion
[ 11005 11000 10999 10996 ] final  161.91 input  -57.11 | X-H torsion

> <Gold.Protein.ActiveResidues>
 VAL166  LYS551  ARG553  GLY616  TRP617  ASP618  TYR619  PRO620  LYS621  CYS622 
 ASP623  PHE694  ASN695  SER759  ASP760  ASP761  ALA762  ILE779  LEU786  VAL792 
 PHE793  MET794  SER795  GLU796  ALA797  LYS798  CYS799  TRP800  GLU811  SER814 

> <Gold.Protein.RotatedAtoms>
  152.2415  134.8224  160.0459 H   0  0  0  0  0  0  0  0  0  0  0  0  # atno 6907 bound_to 6896
  151.8937  133.3517  159.3815 H   0  0  0  0  0  0  0  0  0  0  0  0  # atno 6908 bound_to 6896
  150.7055  134.4824  159.5521 H   0  0  0  0  0  0  0  0  0  0  0  0  # atno 6909 bound_to 6896
  144.7553  140.3983  143.6017 H   0  0  0  0  0  0  0  0  0  0  0  0  # atno 7974 bound_to 7965
  155.1030  140.0396  157.2702 H   0  0  0  0  0  0  0  0  0  0  0  0  # atno 8008 bound_to 7997
  154.6743  140.2619  155.6948 H   0  0  0  0  0  0  0  0  0  0  0  0  # atno 8009 bound_to 7997
  156.2670  140.2791  156.1264 H   0  0  0  0  0  0  0  0  0  0  0  0  # atno 8010 bound_to 7997
  140.6751  143.6939  150.8006 H   0  0  0  0  0  0  0  0  0  0  0  0  # atno 10167 bound_to 10162
  157.3795  131.0990  151.0752 H   0  0  0  0  0  0  0  0  0  0  0  0  # atno 10718 bound_to 10713
  152.9832  135.5675  154.5232 H   0  0  0  0  0  0  0  0  0  0  0  0  # atno 10763 bound_to 10752
  154.4716  135.2785  155.1640 H   0  0  0  0  0  0  0  0  0  0  0  0  # atno 10764 bound_to 10752
  154.3186  135.6273  153.5551 H   0  0  0  0  0  0  0  0  0  0  0  0  # atno 10765 bound_to 10752
  140.2204  134.8200  157.3215 H   0  0  0  0  0  0  0  0  0  0  0  0  # atno 11005 bound_to 11000
  145.6802  139.1617  143.2705 LP  0  0  0  0  0  0  0  0  0  0  0  0  # atno 17320 bound_to 7965
  146.1555  140.6864  142.9302 LP  0  0  0  0  0  0  0  0  0  0  0  0  # atno 17321 bound_to 7965
  140.0631  143.5135  152.2618 LP  0  0  0  0  0  0  0  0  0  0  0  0  # atno 17342 bound_to 10162
  139.6039  144.7590  151.3107 LP  0  0  0  0  0  0  0  0  0  0  0  0  # atno 17343 bound_to 10162
  157.1827  130.6316  149.5677 LP  0  0  0  0  0  0  0  0  0  0  0  0  # atno 17370 bound_to 10713
  155.9772  130.4748  150.6581 LP  0  0  0  0  0  0  0  0  0  0  0  0  # atno 17371 bound_to 10713
  140.1855  134.4436  155.7746 LP  0  0  0  0  0  0  0  0  0  0  0  0  # atno 17394 bound_to 11000
  141.2223  133.7003  156.7940 LP  0  0  0  0  0  0  0  0  0  0  0  0  # atno 17395 bound_to 11000

$$$$
