AV-unprocessed.smi:106|AV-procd|sdf|1012|dock9
  -GOLD-   2262018 13D 1   1.00000     0.00000
 Structure written by MMmdl.
 51 54  0  0  0  0  0  0  0  0  1 V2000
  150.3216  138.5376  153.7975 O   0  0  0  0  0  0  0  0  0  0  0  0
  149.8084  139.4967  154.3776 C   0  0  0  0  0  0  0  0  0  0  0  0
  148.3458  139.8740  154.0531 C   0  0  0  0  0  0  0  0  0  0  0  0
  147.3906  138.7584  154.2376 N   0  0  0  0  0  0  0  0  0  0  0  0
  147.2406  138.2000  155.5313 C   0  0  0  0  0  0  0  0  0  0  0  0
  147.8844  138.6283  156.4903 O   0  0  0  0  0  0  0  0  0  0  0  0
  146.2907  137.0982  155.6357 C   0  0  0  0  0  0  0  0  0  0  0  0
  146.0738  136.5179  156.8282 F   0  0  0  0  0  0  0  0  0  0  0  0
  145.6226  136.6511  154.5527 C   0  0  0  0  0  0  0  0  0  0  0  0
  145.7924  137.1934  153.2913 N   0  0  0  0  0  0  0  0  0  0  0  0
  145.0435  136.6718  152.0832 C   0  0  1  0  0  0  0  0  0  0  0  0
  146.0263  136.1226  151.0321 C   0  0  0  0  0  0  0  0  0  0  0  0
  145.4666  134.7452  150.7376 C   0  0  0  0  0  0  0  0  0  0  0  0
  144.8067  134.3843  152.0599 C   0  0  0  0  0  0  0  0  0  0  0  0
  144.2113  135.6117  152.4603 O   0  0  0  0  0  0  0  0  0  0  0  0
  146.6871  138.2704  153.1103 C   0  0  0  0  0  0  0  0  0  0  0  0
  146.8555  138.7652  151.9935 O   0  0  0  0  0  0  0  0  0  0  0  0
  150.4844  140.2375  155.2895 N   0  0  0  0  0  0  0  0  0  0  0  0
  149.8944  141.4014  155.9700 C   0  0  0  0  0  0  0  0  0  0  0  0
  150.9007  142.2056  156.8219 C   0  0  0  0  0  0  0  0  0  0  0  0
  151.7102  141.3579  157.7138 N   0  0  0  0  0  0  0  0  0  0  0  0
  152.2207  141.8659  158.8646 C   0  0  0  0  0  0  0  0  0  0  0  0
  152.8137  141.1623  159.6846 O   0  0  0  0  0  0  0  0  0  0  0  0
  152.0702  143.3154  159.1480 C   0  0  0  0  0  0  0  0  0  0  0  0
  152.1878  144.4370  158.3625 C   0  0  0  0  0  0  0  0  0  0  0  0
  151.9985  145.6520  159.0845 C   0  0  0  0  0  0  0  0  0  0  0  0
  151.7657  145.4477  160.4182 C   0  0  0  0  0  0  0  0  0  0  0  0
  151.7879  143.7524  160.8181 S   0  0  0  0  0  0  0  0  0  0  0  0
  152.0479  140.0243  157.1904 C   0  0  0  0  0  0  0  0  0  0  0  0
  151.8694  139.9293  155.6662 C   0  0  0  0  0  0  0  0  0  0  0  0
  148.0506  140.7273  154.6655 H   0  0  0  0  0  0  0  0  0  0  0  0
  148.2981  140.2482  153.0299 H   0  0  0  0  0  0  0  0  0  0  0  0
  144.9320  135.8351  154.6996 H   0  0  0  0  0  0  0  0  0  0  0  0
  144.4310  137.5039  151.7316 H   0  0  0  0  0  0  0  0  0  0  0  0
  146.0628  136.7691  150.1550 H   0  0  0  0  0  0  0  0  0  0  0  0
  147.0287  136.0431  151.4562 H   0  0  0  0  0  0  0  0  0  0  0  0
  144.7152  134.8053  149.9490 H   0  0  0  0  0  0  0  0  0  0  0  0
  146.2302  134.0297  150.4318 H   0  0  0  0  0  0  0  0  0  0  0  0
  144.0645  133.5920  151.9602 H   0  0  0  0  0  0  0  0  0  0  0  0
  145.5519  134.0694  152.7915 H   0  0  0  0  0  0  0  0  0  0  0  0
  149.4441  142.0785  155.2435 H   0  0  0  0  0  0  0  0  0  0  0  0
  149.0907  141.0496  156.6187 H   0  0  0  0  0  0  0  0  0  0  0  0
  151.5780  142.7587  156.1693 H   0  0  0  0  0  0  0  0  0  0  0  0
  150.3399  142.9532  157.3855 H   0  0  0  0  0  0  0  0  0  0  0  0
  152.4047  144.4347  157.3051 H   0  0  0  0  0  0  0  0  0  0  0  0
  152.0477  146.6201  158.6081 H   0  0  0  0  0  0  0  0  0  0  0  0
  151.5954  146.1852  161.1886 H   0  0  0  0  0  0  0  0  0  0  0  0
  153.0820  139.7684  157.4260 H   0  0  0  0  0  0  0  0  0  0  0  0
  151.4116  139.2810  157.6714 H   0  0  0  0  0  0  0  0  0  0  0  0
  152.1736  138.9300  155.3518 H   0  0  0  0  0  0  0  0  0  0  0  0
  152.5400  140.6239  155.1583 H   0  0  0  0  0  0  0  0  0  0  0  0
  1  2  2  0  0  0  0
  2  3  1  0  0  0  0
  2 18  1  0  0  0  0
  3  4  1  0  0  0  0
  3 31  1  0  0  0  0
  3 32  1  0  0  0  0
  4 16  1  0  0  0  0
  4  5  1  0  0  0  0
  5  6  2  0  0  0  0
  5  7  1  0  0  0  0
  7  8  1  0  0  0  0
  7  9  2  0  0  0  0
  9 10  1  0  0  0  0
  9 33  1  0  0  0  0
 10 11  1  0  0  0  0
 10 16  1  0  0  0  0
 11 15  1  0  0  0  0
 11 12  1  0  0  0  0
 11 34  1  0  0  0  0
 12 13  1  0  0  0  0
 12 35  1  0  0  0  0
 12 36  1  0  0  0  0
 13 14  1  0  0  0  0
 13 37  1  0  0  0  0
 13 38  1  0  0  0  0
 14 15  1  0  0  0  0
 14 39  1  0  0  0  0
 14 40  1  0  0  0  0
 16 17  2  0  0  0  0
 18 30  1  0  0  0  0
 18 19  1  0  0  0  0
 19 20  1  0  0  0  0
 19 41  1  0  0  0  0
 19 42  1  0  0  0  0
 20 21  1  0  0  0  0
 20 43  1  0  0  0  0
 20 44  1  0  0  0  0
 21 22  1  0  0  0  0
 21 29  1  0  0  0  0
 22 23  2  0  0  0  0
 22 24  1  0  0  0  0
 24 28  1  0  0  0  0
 24 25  2  0  0  0  0
 25 26  1  0  0  0  0
 25 45  1  0  0  0  0
 26 27  2  0  0  0  0
 26 46  1  0  0  0  0
 27 28  1  0  0  0  0
 27 47  1  0  0  0  0
 29 30  1  0  0  0  0
 29 48  1  0  0  0  0
 29 49  1  0  0  0  0
 30 50  1  0  0  0  0
 30 51  1  0  0  0  0
M  END
> <s_m_source_file>
AV-unprocessed.smi

> <i_m_source_file_index>
106

> <i_lp_mmshare_version>
43012

> <i_f3d_flags>
0

> <s_epik_input>
czFbY0hdW2NIXVtjSF1jMUMoPU8pTihbQ0gyXVtDSDJdMilbQ0gyXVtDSDJdTjJDKD1PKVtDSDJdbjNjKD1PKWMoRilbY0hdbihjMz1PKVtDQEBIXTRbQ0gyXVtDSDJdW0NIMl1PNA==

> <s_epik_cmdline>
J2VwaWtfcHl0aG9uJywgJy1waCcsICc3LjAnLCAnLXRuJywgJzgnLCAnLW1hJywgJzIwMCcsICctbWV0YWxfYmluZGluZycsICctaW1hZScsICc8aW5maWxlLm1hZT4nLCAnLW9tYWUnLCAnPG91dGZpbGUubWFlPic=

> <r_lp_tautomer_probability>
1

> <r_epik_Ionization_Penalty>
4.82844e-09

> <r_epik_Ionization_Penalty_Charging>
4.20153e-09

> <r_epik_Ionization_Penalty_Neutral>
6.26919e-10

> <r_epik_State_Penalty>
-0

> <r_epik_Charging_Adjusted_Penalty>
4.20153e-09

> <i_epik_Tot_Q>
0

> <i_epik_Tot_abs_Q>
0

> <r_epik_Metal_State_Penalty>
-0

> <b_epik_Metal_Only>
0

> <s_epik_Chemistry_Notes>
This compound contains an acetal/aminal-like group ( X-CH(R)-Y where X, Y are N, S, or O) that may be acid/base labile, releasing an aldehyde.

> <s_lp_Force_Field>
OPLS_2005

> <r_lp_Energy>
72.1787

> <b_lp_Chiralities_Consistent>
1

> <s_lp_Variant>
AV-unprocessed.smi:106-2

> <Gold.Version>
5.8.1

> <Gold.Id.Protein>
6NUR|6NUR_protein|mol2

> <Gold.PLP.Fitness>
51.5693

> <Gold.PLP.PLP>
-52.3110

> <Gold.PLP.part.hbond>
0.0000

> <Gold.PLP.part.metal>
0.0000

> <Gold.PLP.part.buried>
-5.0947

> <Gold.PLP.part.nonpolar>
-47.2837

> <Gold.PLP.part.repulsive>
1.0566

> <Gold.PLP.ligand.clash>
0.0000

> <Gold.PLP.ligand.torsion>
0.6869

> <Gold.PLP.Chemscore.Hbond>
0.0000

> <Gold.PLP.Chemscore.CHOScore>
0.0000

> <Gold.PLP.Chemscore.Metal>
0.0000

> <Gold.PLP.Chemscore.Internal.Correction>
0.6321

> <Gold.Rescore>
     Score         DG    S(hbond)    S(metal)    S(lipo)     H(rot)  DE(clash)    DE(int)     intcor
     11.93     -14.23       0.00        0.00     110.31       1.63       0.06       2.24       ----

> <Gold.Chemscore.Fitness>
11.9252

> <Gold.Chemscore.DG>
-14.2254

> <Gold.Chemscore.ZeroCoef>
-5.4800

> <Gold.Chemscore.Hbond>
0.0000

> <Gold.Chemscore.Metal>
0.0000

> <Gold.Chemscore.Lipo>
110.3062

> <Gold.Chemscore.Internal_Hbond>
0.0000

> <Gold.Chemscore.DEClash>
0.0560

> <Gold.Chemscore.DEInternal>
2.2442

> <Gold.Chemscore.Rot>
1.6252

> <Gold.Chemscore.Internal.Correction>
   9.000000E+99

> <Gold.Chemscore.Hbond.Weighted>
-0.0000

> <Gold.Chemscore.Metal.Weighted>
-0.0000

> <Gold.Chemscore.Lipo.Weighted>
-12.9058

> <Gold.Chemscore.Internal_Hbond.Weighted>
0.0000

> <Gold.Chemscore.DEClash.Weighted>
0.0560

> <Gold.Chemscore.DEInternal.Weighted>
2.2442

> <Gold.Chemscore.Rot.Weighted>
4.1605

> <Gold.Chemscore.Internal.Correction.Weighted>
   9.000000E+99

> <Gold.Protein.RotatedTorsions>
[ 6907 6896 6895 6894 ] final  -58.70 input  -60.11 | X-H torsion
[ 7974 7965 7964 7962 ] final  110.95 input  175.53 | X-H torsion
[ 8008 7997 7996 7995 ] final   39.52 input   59.86 | X-H torsion
[ 10167 10162 10161 10158 ] final -106.80 input  -65.29 | X-H torsion
[ 10718 10713 10712 10709 ] final -128.96 input   66.30 | X-H torsion
[ 10763 10752 10751 10750 ] final   67.02 input  -60.55 | X-H torsion
[ 11005 11000 10999 10996 ] final  -91.59 input  -57.11 | X-H torsion

> <Gold.Protein.ActiveResidues>
 VAL166  LYS551  ARG553  GLY616  TRP617  ASP618  TYR619  PRO620  LYS621  CYS622 
 ASP623  PHE694  ASN695  SER759  ASP760  ASP761  ALA762  ILE779  LEU786  VAL792 
 PHE793  MET794  SER795  GLU796  ALA797  LYS798  CYS799  TRP800  GLU811  SER814 

> <Gold.Protein.RotatedAtoms>
  150.7987  134.7065  159.6579 H   0  0  0  0  0  0  0  0  0  0  0  0  # atno 6907 bound_to 6896
  152.4102  134.6135  160.0041 H   0  0  0  0  0  0  0  0  0  0  0  0  # atno 6908 bound_to 6896
  151.6380  133.3291  159.3160 H   0  0  0  0  0  0  0  0  0  0  0  0  # atno 6909 bound_to 6896
  145.2485  139.2749  143.4080 H   0  0  0  0  0  0  0  0  0  0  0  0  # atno 7974 bound_to 7965
  155.2379  140.3343  155.4295 H   0  0  0  0  0  0  0  0  0  0  0  0  # atno 8008 bound_to 7997
  156.2268  140.1833  156.7389 H   0  0  0  0  0  0  0  0  0  0  0  0  # atno 8009 bound_to 7997
  154.5912  140.0638  156.9226 H   0  0  0  0  0  0  0  0  0  0  0  0  # atno 8010 bound_to 7997
  140.1838  143.3945  152.1260 H   0  0  0  0  0  0  0  0  0  0  0  0  # atno 10167 bound_to 10162
  156.2000  130.6851  151.0528 H   0  0  0  0  0  0  0  0  0  0  0  0  # atno 10718 bound_to 10713
  153.0166  135.5299  154.6914 H   0  0  0  0  0  0  0  0  0  0  0  0  # atno 10763 bound_to 10752
  154.6048  135.2872  155.0499 H   0  0  0  0  0  0  0  0  0  0  0  0  # atno 10764 bound_to 10752
  154.1543  135.6558  153.5023 H   0  0  0  0  0  0  0  0  0  0  0  0  # atno 10765 bound_to 10752
  141.1541  133.7766  156.9901 H   0  0  0  0  0  0  0  0  0  0  0  0  # atno 11005 bound_to 11000
  146.3309  140.2869  142.8613 LP  0  0  0  0  0  0  0  0  0  0  0  0  # atno 17320 bound_to 7965
  144.9524  140.8192  143.5563 LP  0  0  0  0  0  0  0  0  0  0  0  0  # atno 17321 bound_to 7965
  139.5285  144.7131  151.5143 LP  0  0  0  0  0  0  0  0  0  0  0  0  # atno 17342 bound_to 10162
  140.6502  143.8713  150.6777 LP  0  0  0  0  0  0  0  0  0  0  0  0  # atno 17343 bound_to 10162
  157.6980  131.0787  150.6909 LP  0  0  0  0  0  0  0  0  0  0  0  0  # atno 17370 bound_to 10713
  156.6966  130.4611  149.5584 LP  0  0  0  0  0  0  0  0  0  0  0  0  # atno 17371 bound_to 10713
  140.1008  134.9536  157.1920 LP  0  0  0  0  0  0  0  0  0  0  0  0  # atno 17394 bound_to 11000
  140.3321  134.2799  155.7226 LP  0  0  0  0  0  0  0  0  0  0  0  0  # atno 17395 bound_to 11000

$$$$
