AV-unprocessed.smi:69|AV-procd|sdf|657|dock10
  -GOLD-   2262016563D 1   1.00000     0.00000
 Structure written by MMmdl.
 32 34  0  0  0  0  0  0  0  0  1 V2000
  146.2054  132.0556  150.8042 N   0  0  0  0  0  0  0  0  0  0  0  0
  145.9282  133.0336  151.6775 C   0  0  0  0  0  0  0  0  0  0  0  0
  146.9592  133.6537  152.2973 N   0  0  0  0  0  0  0  0  0  0  0  0
  146.7074  134.6302  153.1749 C   0  0  0  0  0  0  0  0  0  0  0  0
  145.5275  135.1218  153.5614 N   0  0  0  0  0  0  0  0  0  0  0  0
  144.4879  134.4966  152.9353 C   0  0  0  0  0  0  0  0  0  0  0  0
  144.6066  133.4456  151.9837 C   0  0  0  0  0  0  0  0  0  0  0  0
  143.3470  133.0472  151.5580 N   0  0  0  0  0  0  0  0  0  0  0  0
  142.5324  133.8199  152.2246 C   0  0  0  0  0  0  0  0  0  0  0  0
  143.1315  134.7185  153.0807 N   0  0  0  0  0  0  0  0  0  0  0  0
  142.4480  135.7136  153.9717 C   0  0  2  0  0  0  0  0  0  0  0  0
  141.0625  135.5539  153.8763 O   0  0  0  0  0  0  0  0  0  0  0  0
  140.4465  136.7571  153.4160 C   0  0  1  0  0  0  0  0  0  0  0  0
  139.0514  136.8995  154.0440 C   0  0  0  0  0  0  0  0  0  0  0  0
  139.0740  136.4618  155.3859 O   0  0  0  0  0  0  0  0  0  0  0  0
  141.4307  137.8394  153.8641 C   0  0  2  0  0  0  0  0  0  0  0  0
  141.2742  139.0606  153.1662 O   0  0  0  0  0  0  0  0  0  0  0  0
  142.7791  137.1772  153.6199 C   0  0  2  0  0  0  0  0  0  0  0  0
  143.2465  137.3553  152.2915 O   0  0  0  0  0  0  0  0  0  0  0  0
  142.7594  135.4419  154.9813 H   0  0  0  0  0  0  0  0  0  0  0  0
  140.3884  136.7485  152.3264 H   0  0  0  0  0  0  0  0  0  0  0  0
  141.3129  138.0229  154.9333 H   0  0  0  0  0  0  0  0  0  0  0  0
  143.5427  137.5524  154.3018 H   0  0  0  0  0  0  0  0  0  0  0  0
  145.4525  131.5768  150.3312 H   0  0  0  0  0  0  0  0  0  0  0  0
  147.1650  131.8004  150.6212 H   0  0  0  0  0  0  0  0  0  0  0  0
  147.5742  135.0826  153.6340 H   0  0  0  0  0  0  0  0  0  0  0  0
  141.4602  133.7513  152.1127 H   0  0  0  0  0  0  0  0  0  0  0  0
  138.6917  137.9270  153.9848 H   0  0  0  0  0  0  0  0  0  0  0  0
  138.3348  136.2745  153.5102 H   0  0  0  0  0  0  0  0  0  0  0  0
  138.8812  137.1983  155.9457 H   0  0  0  0  0  0  0  0  0  0  0  0
  142.1290  139.3737  152.9135 H   0  0  0  0  0  0  0  0  0  0  0  0
  143.4132  138.2752  152.1529 H   0  0  0  0  0  0  0  0  0  0  0  0
  1  2  1  0  0  0  0
  1 24  1  0  0  0  0
  1 25  1  0  0  0  0
  2  7  1  0  0  0  0
  2  3  2  0  0  0  0
  3  4  1  0  0  0  0
  4  5  2  0  0  0  0
  4 26  1  0  0  0  0
  5  6  1  0  0  0  0
  6 10  1  0  0  0  0
  6  7  2  0  0  0  0
  7  8  1  0  0  0  0
  8  9  2  0  0  0  0
  9 10  1  0  0  0  0
  9 27  1  0  0  0  0
 10 11  1  0  0  0  0
 11 20  1  0  0  0  0
 11 18  1  0  0  0  0
 11 12  1  0  0  0  0
 12 13  1  0  0  0  0
 13 21  1  0  0  0  0
 13 14  1  0  0  0  0
 13 16  1  0  0  0  0
 14 15  1  0  0  0  0
 14 28  1  0  0  0  0
 14 29  1  0  0  0  0
 15 30  1  0  0  0  0
 16 22  1  0  0  0  0
 16 17  1  0  0  0  0
 16 18  1  0  0  0  0
 17 31  1  0  0  0  0
 18 23  1  0  0  0  0
 18 19  1  0  0  0  0
 19 32  1  0  0  0  0
M  END
> <s_m_source_file>
AV-unprocessed.smi

> <i_m_source_file_index>
69

> <i_lp_mmshare_version>
43012

> <i_f3d_flags>
0

> <s_epik_input>
bjFbY0hdbmMoW05IMl0pYyhjMTIpbltjSF1uMltDQEBIXTNPW0NASF0oW0NIMl1bT0hdKVtDQEBIXShbT0hdKVtDQEhdM1tPSF0=

> <s_epik_cmdline>
J2VwaWtfcHl0aG9uJywgJy1waCcsICc3LjAnLCAnLXRuJywgJzgnLCAnLW1hJywgJzIwMCcsICctbWV0YWxfYmluZGluZycsICctaW1hZScsICc8aW5maWxlLm1hZT4nLCAnLW9tYWUnLCAnPG91dGZpbGUubWFlPic=

> <r_lp_tautomer_probability>
1

> <r_epik_Ionization_Penalty>
0.000428445

> <r_epik_Ionization_Penalty_Charging>
0

> <r_epik_Ionization_Penalty_Neutral>
0.000428445

> <r_epik_State_Penalty>
-0

> <r_epik_Charging_Adjusted_Penalty>
0

> <i_epik_Tot_Q>
0

> <i_epik_Tot_abs_Q>
0

> <r_epik_Metal_State_Penalty>
-0

> <b_epik_Metal_Only>
0

> <s_epik_Chemistry_Notes>
This compound contains an acetal/aminal-like group ( X-CH(R)-Y where X, Y are N, S, or O) that may be acid/base labile, releasing an aldehyde.

> <s_lp_Force_Field>
OPLS_2005

> <r_lp_Energy>
44.883

> <b_lp_Chiralities_Consistent>
1

> <s_lp_Variant>
AV-unprocessed.smi:69-15

> <Gold.Version>
5.8.1

> <Gold.Id.Protein>
6NUR|6NUR_protein|mol2

> <Gold.PLP.Fitness>
39.6876

> <Gold.PLP.PLP>
-27.3860

> <Gold.PLP.part.hbond>
-6.1451

> <Gold.PLP.part.metal>
0.0000

> <Gold.PLP.part.buried>
-5.0408

> <Gold.PLP.part.nonpolar>
-16.8633

> <Gold.PLP.part.repulsive>
0.6391

> <Gold.PLP.ligand.clash>
0.0000

> <Gold.PLP.ligand.torsion>
0.1929

> <Gold.PLP.Chemscore.Hbond>
3.6412

> <Gold.PLP.Chemscore.CHOScore>
0.5852

> <Gold.PLP.Chemscore.Metal>
0.0000

> <Gold.Chemscore.Hbonds>
donor molecule, donor type, donor heavy atom, donor atom, acceptor molecule, acceptor atom, score
      L1  H     1    25       P1 10747  0.91
      L1  H    17    31       P1 10175  1.00
      L1  H    19    32       P1 10175  0.62
      P1  H 11000 11005       L1    15  1.00
      L1  C     4    26       P1  7948  0.58
      L1  C     9    27       P1 10186  0.06

> <Gold.PLP.Chemscore.Internal.Correction>
0.0080

> <Gold.Rescore>
     Score         DG    S(hbond)    S(metal)    S(lipo)     H(rot)  DE(clash)    DE(int)     intcor
     10.41     -10.74       3.84        0.00      23.50       4.03       0.01       0.32       ----

> <Gold.Chemscore.Fitness>
10.4053

> <Gold.Chemscore.DG>
-10.7362

> <Gold.Chemscore.ZeroCoef>
-5.4800

> <Gold.Chemscore.Hbond>
3.8378

> <Gold.Chemscore.Metal>
0.0000

> <Gold.Chemscore.Lipo>
23.4953

> <Gold.Chemscore.Internal_Hbond>
0.0000

> <Gold.Chemscore.DEClash>
0.0121

> <Gold.Chemscore.DEInternal>
0.3188

> <Gold.Chemscore.Rot>
4.0277

> <Gold.Chemscore.Internal.Correction>
   9.000000E+99

> <Gold.Chemscore.Hbonds>
donor molecule, donor type, donor heavy atom, donor atom, acceptor molecule, acceptor atom, score
      L1  H     1    25       P1 10747  0.87
      L1  H    17    31       P1 10175  0.88
      L1  H    19    32       P1 10175  0.60
      P1  H 11000 11005       L1    15  0.93

> <Gold.Chemscore.Hbond.Weighted>
-12.8183

> <Gold.Chemscore.Metal.Weighted>
-0.0000

> <Gold.Chemscore.Lipo.Weighted>
-2.7489

> <Gold.Chemscore.Internal_Hbond.Weighted>
0.0000

> <Gold.Chemscore.DEClash.Weighted>
0.0121

> <Gold.Chemscore.DEInternal.Weighted>
0.3188

> <Gold.Chemscore.Rot.Weighted>
10.3110

> <Gold.Chemscore.Internal.Correction.Weighted>
   9.000000E+99

> <Gold.Protein.RotatedTorsions>
[ 6907 6896 6895 6894 ] final -118.29 input  -60.11 | X-H torsion
[ 7974 7965 7964 7962 ] final -173.56 input  175.53 | X-H torsion
[ 8008 7997 7996 7995 ] final -104.49 input   59.86 | X-H torsion
[ 10167 10162 10161 10158 ] final   -4.77 input  -65.29 | X-H torsion
[ 10718 10713 10712 10709 ] final -112.87 input   66.30 | X-H torsion
[ 10763 10752 10751 10750 ] final  131.79 input  -60.55 | X-H torsion
[ 11005 11000 10999 10996 ] final   86.79 input  -57.11 | X-H torsion

> <Gold.Protein.ActiveResidues>
 VAL166  LYS551  ARG553  GLY616  TRP617  ASP618  TYR619  PRO620  LYS621  CYS622 
 ASP623  PHE694  ASN695  SER759  ASP760  ASP761  ALA762  ILE779  LEU786  VAL792 
 PHE793  MET794  SER795  GLU796  ALA797  LYS798  CYS799  TRP800  GLU811  SER814 

> <Gold.Protein.RotatedAtoms>
  150.8208  133.8257  159.3139 H   0  0  0  0  0  0  0  0  0  0  0  0  # atno 6907 bound_to 6896
  151.6015  135.1045  160.0071 H   0  0  0  0  0  0  0  0  0  0  0  0  # atno 6908 bound_to 6896
  152.4297  133.7215  159.6592 H   0  0  0  0  0  0  0  0  0  0  0  0  # atno 6909 bound_to 6896
  144.7137  140.1604  143.6376 H   0  0  0  0  0  0  0  0  0  0  0  0  # atno 7974 bound_to 7965
  154.8861  140.0417  157.1811 H   0  0  0  0  0  0  0  0  0  0  0  0  # atno 8008 bound_to 7997
  154.8589  140.2941  155.5530 H   0  0  0  0  0  0  0  0  0  0  0  0  # atno 8009 bound_to 7997
  156.2998  140.2450  156.3560 H   0  0  0  0  0  0  0  0  0  0  0  0  # atno 8010 bound_to 7997
  140.6939  143.6385  150.8457 H   0  0  0  0  0  0  0  0  0  0  0  0  # atno 10167 bound_to 10162
  156.0732  130.5943  150.8567 H   0  0  0  0  0  0  0  0  0  0  0  0  # atno 10718 bound_to 10713
  153.7801  135.3170  155.3364 H   0  0  0  0  0  0  0  0  0  0  0  0  # atno 10763 bound_to 10752
  154.8165  135.4633  154.0660 H   0  0  0  0  0  0  0  0  0  0  0  0  # atno 10764 bound_to 10752
  153.1946  135.6913  153.8394 H   0  0  0  0  0  0  0  0  0  0  0  0  # atno 10765 bound_to 10752
  139.8935  134.8379  156.2770 H   0  0  0  0  0  0  0  0  0  0  0  0  # atno 11005 bound_to 11000
  145.9036  139.2445  143.1479 LP  0  0  0  0  0  0  0  0  0  0  0  0  # atno 17320 bound_to 7965
  145.9786  140.8701  143.0126 LP  0  0  0  0  0  0  0  0  0  0  0  0  # atno 17321 bound_to 7965
  140.0101  143.5652  152.2842 LP  0  0  0  0  0  0  0  0  0  0  0  0  # atno 17342 bound_to 10162
  139.6372  144.7651  151.2412 LP  0  0  0  0  0  0  0  0  0  0  0  0  # atno 17343 bound_to 10162
  157.5814  131.0946  150.9265 LP  0  0  0  0  0  0  0  0  0  0  0  0  # atno 17370 bound_to 10713
  156.9460  130.5402  149.5281 LP  0  0  0  0  0  0  0  0  0  0  0  0  # atno 17371 bound_to 10713
  141.0063  133.7121  156.1040 LP  0  0  0  0  0  0  0  0  0  0  0  0  # atno 17394 bound_to 11000
  140.7428  134.4131  157.5552 LP  0  0  0  0  0  0  0  0  0  0  0  0  # atno 17395 bound_to 11000

$$$$
