AV-unprocessed.smi:546|AV-procd|sdf|2887|dock8
  -GOLD-   2262023383D 1   1.00000     0.00000
 Structure written by MMmdl.
 51 53  0  0  0  0  0  0  0  0  2 V2000
  147.4596  139.8150  153.8684 C   0  0  0  0  0  0  0  0  0  0  0  0
  147.5743  141.3406  153.8565 C   0  0  0  0  0  0  0  0  0  0  0  0
  148.8987  141.6939  154.2112 O   0  0  0  0  0  0  0  0  0  0  0  0
  149.2701  141.2406  155.5013 C   0  0  0  0  0  0  0  0  0  0  0  0
  150.5548  141.9458  155.9621 C   0  0  0  0  0  0  0  0  0  0  0  0
  151.3311  141.1140  156.8757 N   0  0  0  0  0  0  0  0  0  0  0  0
  151.7277  141.4260  158.1353 C   0  0  0  0  0  0  0  0  0  0  0  0
  151.4501  142.6700  158.6956 N   0  0  0  0  0  0  0  0  0  0  0  0
  150.1087  143.2453  158.6304 C   0  0  0  0  0  0  0  0  0  0  0  0
  149.7655  144.0941  159.8671 C   0  0  2  0  0  0  0  0  0  0  0  0
  148.3377  144.6505  159.7837 C   0  0  0  0  0  0  0  0  0  0  0  0
  150.7993  145.2209  160.0207 C   0  0  0  0  0  0  0  0  0  0  0  0
  152.2307  144.6591  160.0333 C   0  0  1  0  0  0  0  0  0  0  0  0
  152.5953  144.0099  161.3782 C   0  0  0  0  0  0  0  0  0  0  0  0
  152.4590  143.7223  158.8247 C   0  0  0  0  0  0  0  0  0  0  0  0
  152.4160  140.4710  158.7627 N   0  0  0  0  0  0  0  0  0  0  0  0
  152.4651  139.4608  157.8133 C   0  0  0  0  0  0  0  0  0  0  0  0
  151.8266  139.8225  156.6683 C   0  0  0  0  0  0  0  0  0  0  0  0
  151.7222  138.9515  155.4768 C   0  0  0  0  0  0  0  0  0  0  0  0
  151.1488  139.3314  154.4578 O   0  0  0  0  0  0  0  0  0  0  0  0
  152.3270  137.7370  155.6713 N   0  5  0  0  0  0  0  0  0  0  0  0
  152.9814  137.3288  156.8141 C   0  0  0  0  0  0  0  0  0  0  0  0
  153.4957  136.2133  156.8976 O   0  0  0  0  0  0  0  0  0  0  0  0
  153.0672  138.1772  157.8889 N   0  0  0  0  0  0  0  0  0  0  0  0
  153.7504  137.8215  159.1364 C   0  0  0  0  0  0  0  0  0  0  0  0
  146.4514  139.4969  153.6034 H   0  0  0  0  0  0  0  0  0  0  0  0
  147.6894  139.4144  154.8560 H   0  0  0  0  0  0  0  0  0  0  0  0
  148.1521  139.3659  153.1562 H   0  0  0  0  0  0  0  0  0  0  0  0
  147.3336  141.7282  152.8657 H   0  0  0  0  0  0  0  0  0  0  0  0
  146.8652  141.7719  154.5645 H   0  0  0  0  0  0  0  0  0  0  0  0
  148.4646  141.4298  156.2120 H   0  0  0  0  0  0  0  0  0  0  0  0
  149.4340  140.1642  155.4680 H   0  0  0  0  0  0  0  0  0  0  0  0
  151.1707  142.2222  155.1081 H   0  0  0  0  0  0  0  0  0  0  0  0
  150.3095  142.8859  156.4558 H   0  0  0  0  0  0  0  0  0  0  0  0
  150.0259  143.8451  157.7231 H   0  0  0  0  0  0  0  0  0  0  0  0
  149.3853  142.4349  158.5318 H   0  0  0  0  0  0  0  0  0  0  0  0
  149.8133  143.4511  160.7467 H   0  0  0  0  0  0  0  0  0  0  0  0
  148.2153  145.3020  158.9177 H   0  0  0  0  0  0  0  0  0  0  0  0
  148.0892  145.2291  160.6739 H   0  0  0  0  0  0  0  0  0  0  0  0
  147.6079  143.8447  159.7003 H   0  0  0  0  0  0  0  0  0  0  0  0
  150.6984  145.9168  159.1865 H   0  0  0  0  0  0  0  0  0  0  0  0
  150.6077  145.7995  160.9252 H   0  0  0  0  0  0  0  0  0  0  0  0
  152.9094  145.5048  159.9163 H   0  0  0  0  0  0  0  0  0  0  0  0
  151.9895  143.1284  161.5833 H   0  0  0  0  0  0  0  0  0  0  0  0
  152.4477  144.7089  162.2017 H   0  0  0  0  0  0  0  0  0  0  0  0
  153.6426  143.7082  161.3944 H   0  0  0  0  0  0  0  0  0  0  0  0
  153.4478  143.2667  158.8895 H   0  0  0  0  0  0  0  0  0  0  0  0
  152.4544  144.3073  157.9040 H   0  0  0  0  0  0  0  0  0  0  0  0
  154.2433  136.8491  159.1194 H   0  0  0  0  0  0  0  0  0  0  0  0
  153.0354  137.8119  159.9595 H   0  0  0  0  0  0  0  0  0  0  0  0
  154.5142  138.5650  159.3659 H   0  0  0  0  0  0  0  0  0  0  0  0
  1  2  1  0  0  0  0
  1 26  1  0  0  0  0
  1 27  1  0  0  0  0
  1 28  1  0  0  0  0
  2  3  1  0  0  0  0
  2 29  1  0  0  0  0
  2 30  1  0  0  0  0
  3  4  1  0  0  0  0
  4  5  1  0  0  0  0
  4 31  1  0  0  0  0
  4 32  1  0  0  0  0
  5  6  1  0  0  0  0
  5 33  1  0  0  0  0
  5 34  1  0  0  0  0
  6 18  1  0  0  0  0
  6  7  1  0  0  0  0
  7  8  1  0  0  0  0
  7 16  2  0  0  0  0
  8 15  1  0  0  0  0
  8  9  1  0  0  0  0
  9 10  1  0  0  0  0
  9 35  1  0  0  0  0
  9 36  1  0  0  0  0
 10 11  1  0  0  0  0
 10 12  1  0  0  0  0
 10 37  1  0  0  0  0
 11 38  1  0  0  0  0
 11 39  1  0  0  0  0
 11 40  1  0  0  0  0
 12 13  1  0  0  0  0
 12 41  1  0  0  0  0
 12 42  1  0  0  0  0
 13 14  1  0  0  0  0
 13 15  1  0  0  0  0
 13 43  1  0  0  0  0
 14 44  1  0  0  0  0
 14 45  1  0  0  0  0
 14 46  1  0  0  0  0
 15 47  1  0  0  0  0
 15 48  1  0  0  0  0
 16 17  1  0  0  0  0
 17 24  1  0  0  0  0
 17 18  2  0  0  0  0
 18 19  1  0  0  0  0
 19 20  2  0  0  0  0
 19 21  1  0  0  0  0
 21 22  1  0  0  0  0
 22 23  2  0  0  0  0
 22 24  1  0  0  0  0
 24 25  1  0  0  0  0
 25 49  1  0  0  0  0
 25 50  1  0  0  0  0
 25 51  1  0  0  0  0
M  CHG  1  21  -1
M  END
> <s_m_source_file>
AV-unprocessed.smi

> <i_m_source_file_index>
546

> <i_lp_mmshare_version>
43012

> <i_f3d_flags>
0

> <s_epik_input>
W0NIM11uMWMoPU8pW25IXWMoPU8pYyhjMTIpbihbQ0gyXVtDSDJdT1tDSDJdW0NIM10pYyhuMilOM1tDSDJdW0NAQEhdKFtDSDNdKVtDSDJdW0NAQEhdKFtDSDNdKVtDSDJdMw==

> <s_epik_cmdline>
J2VwaWtfcHl0aG9uJywgJy1waCcsICc3LjAnLCAnLXRuJywgJzgnLCAnLW1hJywgJzIwMCcsICctbWV0YWxfYmluZGluZycsICctaW1hZScsICc8aW5maWxlLm1hZT4nLCAnLW9tYWUnLCAnPG91dGZpbGUubWFlPic=

> <r_lp_tautomer_probability>
1

> <r_epik_Ionization_Penalty>
5.12825

> <r_epik_Ionization_Penalty_Charging>
0.0743105

> <r_epik_Ionization_Penalty_Neutral>
5.05394

> <r_epik_State_Penalty>
5.04406

> <r_epik_Charging_Adjusted_Penalty>
5.11837

> <i_epik_Tot_Q>
-1

> <i_epik_Tot_abs_Q>
1

> <r_epik_Metal_State_Penalty>
1.15122

> <b_epik_Metal_Only>
1

> <s_lp_Force_Field>
OPLS_2005

> <r_lp_Energy>
46.3243

> <b_lp_Chiralities_Consistent>
1

> <s_lp_Variant>
AV-unprocessed.smi:546-5

> <Gold.Version>
5.8.1

> <Gold.Id.Protein>
6NUR|6NUR_protein|mol2

> <Gold.PLP.Fitness>
50.0559

> <Gold.PLP.PLP>
-44.1866

> <Gold.PLP.part.hbond>
-3.7419

> <Gold.PLP.part.metal>
0.0000

> <Gold.PLP.part.buried>
-4.5059

> <Gold.PLP.part.nonpolar>
-35.4262

> <Gold.PLP.part.repulsive>
0.3376

> <Gold.PLP.ligand.clash>
0.0000

> <Gold.PLP.ligand.torsion>
1.3467

> <Gold.PLP.Chemscore.Hbond>
2.5551

> <Gold.PLP.Chemscore.CHOScore>
0.0000

> <Gold.PLP.Chemscore.Metal>
0.0000

> <Gold.Chemscore.Hbonds>
donor molecule, donor type, donor heavy atom, donor atom, acceptor molecule, acceptor atom, score
      P1  H  7989  7998       L1    20  1.00
      P1  H  8011  8017       L1     3  0.32
      P1  H 10752 10764       L1    23  1.00

> <Gold.PLP.Chemscore.Internal.Correction>
0.8974

> <Gold.Rescore>
     Score         DG    S(hbond)    S(metal)    S(lipo)     H(rot)  DE(clash)    DE(int)     intcor
     15.76     -20.62       2.15        0.00     101.21       1.52       1.31       3.55       ----

> <Gold.Chemscore.Fitness>
15.7612

> <Gold.Chemscore.DG>
-20.6219

> <Gold.Chemscore.ZeroCoef>
-5.4800

> <Gold.Chemscore.Hbond>
2.1534

> <Gold.Chemscore.Metal>
0.0000

> <Gold.Chemscore.Lipo>
101.2148

> <Gold.Chemscore.Internal_Hbond>
0.0000

> <Gold.Chemscore.DEClash>
1.3125

> <Gold.Chemscore.DEInternal>
3.5481

> <Gold.Chemscore.Rot>
1.5206

> <Gold.Chemscore.Internal.Correction>
   9.000000E+99

> <Gold.Chemscore.Hbonds>
donor molecule, donor type, donor heavy atom, donor atom, acceptor molecule, acceptor atom, score
      P1  H  7989  7998       L1    20  0.99
      P1  H  8011  8017       L1     3  0.14
      P1  H 10752 10764       L1    23  0.94

> <Gold.Chemscore.Hbond.Weighted>
-7.1924

> <Gold.Chemscore.Metal.Weighted>
-0.0000

> <Gold.Chemscore.Lipo.Weighted>
-11.8421

> <Gold.Chemscore.Internal_Hbond.Weighted>
0.0000

> <Gold.Chemscore.DEClash.Weighted>
1.3125

> <Gold.Chemscore.DEInternal.Weighted>
3.5481

> <Gold.Chemscore.Rot.Weighted>
3.8926

> <Gold.Chemscore.Internal.Correction.Weighted>
   9.000000E+99

> <Gold.Protein.RotatedTorsions>
[ 6907 6896 6895 6894 ] final  128.58 input  -60.11 | X-H torsion
[ 7974 7965 7964 7962 ] final  -99.69 input  175.53 | X-H torsion
[ 8008 7997 7996 7995 ] final  -44.58 input   59.86 | X-H torsion
[ 10167 10162 10161 10158 ] final -161.09 input  -65.29 | X-H torsion
[ 10718 10713 10712 10709 ] final  -59.69 input   66.30 | X-H torsion
[ 10763 10752 10751 10750 ] final   16.87 input  -60.55 | X-H torsion
[ 11005 11000 10999 10996 ] final   12.26 input  -57.11 | X-H torsion

> <Gold.Protein.ActiveResidues>
 VAL166  LYS551  ARG553  GLY616  TRP617  ASP618  TYR619  PRO620  LYS621  CYS622 
 ASP623  PHE694  ASN695  SER759  ASP760  ASP761  ALA762  ILE779  LEU786  VAL792 
 PHE793  MET794  SER795  GLU796  ALA797  LYS798  CYS799  TRP800  GLU811  SER814 

> <Gold.Protein.RotatedAtoms>
  152.3705  133.6413  159.6083 H   0  0  0  0  0  0  0  0  0  0  0  0  # atno 6907 bound_to 6896
  150.7665  133.9277  159.3426 H   0  0  0  0  0  0  0  0  0  0  0  0  # atno 6908 bound_to 6896
  151.7101  135.0915  160.0317 H   0  0  0  0  0  0  0  0  0  0  0  0  # atno 6909 bound_to 6896
  145.3043  140.9385  143.2805 H   0  0  0  0  0  0  0  0  0  0  0  0  # atno 7974 bound_to 7965
  154.3998  140.1418  156.3706 H   0  0  0  0  0  0  0  0  0  0  0  0  # atno 8008 bound_to 7997
  155.8096  140.3473  155.5429 H   0  0  0  0  0  0  0  0  0  0  0  0  # atno 8009 bound_to 7997
  155.8400  140.0925  157.1730 H   0  0  0  0  0  0  0  0  0  0  0  0  # atno 8010 bound_to 7997
  139.6491  144.0118  152.2148 H   0  0  0  0  0  0  0  0  0  0  0  0  # atno 10167 bound_to 10162
  156.1043  130.4182  150.0751 H   0  0  0  0  0  0  0  0  0  0  0  0  # atno 10718 bound_to 10713
  153.1391  135.6756  153.9056 H   0  0  0  0  0  0  0  0  0  0  0  0  # atno 10763 bound_to 10752
  153.8519  135.3092  155.3434 H   0  0  0  0  0  0  0  0  0  0  0  0  # atno 10764 bound_to 10752
  154.7772  135.4908  153.9852 H   0  0  0  0  0  0  0  0  0  0  0  0  # atno 10765 bound_to 10752
  140.4939  134.0812  155.7778 H   0  0  0  0  0  0  0  0  0  0  0  0  # atno 11005 bound_to 11000
  144.9067  139.4580  143.6606 LP  0  0  0  0  0  0  0  0  0  0  0  0  # atno 17320 bound_to 7965
  146.3141  139.7853  142.8997 LP  0  0  0  0  0  0  0  0  0  0  0  0  # atno 17321 bound_to 7965
  139.9827  144.6417  150.7886 LP  0  0  0  0  0  0  0  0  0  0  0  0  # atno 17342 bound_to 10162
  140.7529  143.2998  151.3110 LP  0  0  0  0  0  0  0  0  0  0  0  0  # atno 17343 bound_to 10162
  156.8730  130.9531  151.3607 LP  0  0  0  0  0  0  0  0  0  0  0  0  # atno 17370 bound_to 10713
  157.6218  130.8661  149.9121 LP  0  0  0  0  0  0  0  0  0  0  0  0  # atno 17371 bound_to 10713
  141.1470  133.9038  157.2192 LP  0  0  0  0  0  0  0  0  0  0  0  0  # atno 17394 bound_to 11000
  139.9752  135.0116  156.9614 LP  0  0  0  0  0  0  0  0  0  0  0  0  # atno 17395 bound_to 11000

$$$$
