AV-unprocessed.smi:915|AV-procd|sdf|4155|dock4
  -GOLD-   22720 2 63D 1   1.00000     0.00000
 Structure written by MMmdl.
 34 35  0  0  0  0  0  0  0  0  1 V2000
  146.1161  131.7288  149.1010 C   0  0  0  0  0  0  0  0  0  0  0  0
  145.1866  131.7116  150.3194 C   0  0  0  0  0  0  0  0  0  0  0  0
  144.8972  133.0887  150.8349 C   0  0  0  0  0  0  0  0  0  0  0  0
  143.6601  133.6415  151.0622 C   0  0  0  0  0  0  0  0  0  0  0  0
  143.7736  135.2737  151.6642 S   0  0  0  0  0  0  0  0  0  0  0  0
  145.5232  135.1415  151.5804 C   0  0  0  0  0  0  0  0  0  0  0  0
  146.3775  136.2077  151.9656 N   0  0  0  0  0  0  0  0  0  0  0  0
  146.0319  137.4356  152.3902 C   0  0  0  0  0  0  0  0  0  0  0  0
  144.8786  137.8348  152.5552 O   0  0  0  0  0  0  0  0  0  0  0  0
  147.1142  138.1925  152.6200 N   0  0  0  0  0  0  0  0  0  0  0  0
  147.0845  139.5790  153.0747 C   0  0  0  0  0  0  0  0  0  0  0  0
  147.8686  139.7790  154.3856 C   0  0  1  0  0  0  0  0  0  0  0  0
  149.2914  139.2093  154.3198 C   0  0  0  0  0  0  0  0  0  0  0  0
  150.0982  139.9057  155.4161 C   0  0  0  0  0  0  0  0  0  0  0  0
  149.7685  141.3953  155.3142 C   0  0  0  0  0  0  0  0  0  0  0  0
  148.0251  141.5314  154.8417 S   0  0  0  0  0  0  0  0  0  0  0  0
  145.9525  133.9559  151.1336 N   0  0  0  0  0  0  0  0  0  0  0  0
  146.3118  130.7163  148.7481 H   0  0  0  0  0  0  0  0  0  0  0  0
  147.0752  132.1882  149.3426 H   0  0  0  0  0  0  0  0  0  0  0  0
  145.6729  132.2893  148.2774 H   0  0  0  0  0  0  0  0  0  0  0  0
  144.2564  131.2092  150.0521 H   0  0  0  0  0  0  0  0  0  0  0  0
  145.6371  131.1060  151.1067 H   0  0  0  0  0  0  0  0  0  0  0  0
  142.6915  133.1877  150.9126 H   0  0  0  0  0  0  0  0  0  0  0  0
  147.3663  136.0173  151.8993 H   0  0  0  0  0  0  0  0  0  0  0  0
  148.0242  137.7884  152.4539 H   0  0  0  0  0  0  0  0  0  0  0  0
  147.4846  140.2279  152.2938 H   0  0  0  0  0  0  0  0  0  0  0  0
  146.0432  139.8711  153.2129 H   0  0  0  0  0  0  0  0  0  0  0  0
  147.3485  139.2846  155.2073 H   0  0  0  0  0  0  0  0  0  0  0  0
  149.2966  138.1255  154.4391 H   0  0  0  0  0  0  0  0  0  0  0  0
  149.7389  139.4300  153.3496 H   0  0  0  0  0  0  0  0  0  0  0  0
  149.7902  139.5271  156.3918 H   0  0  0  0  0  0  0  0  0  0  0  0
  151.1678  139.7200  155.3175 H   0  0  0  0  0  0  0  0  0  0  0  0
  149.9671  141.9262  156.2454 H   0  0  0  0  0  0  0  0  0  0  0  0
  150.3693  141.8587  154.5312 H   0  0  0  0  0  0  0  0  0  0  0  0
  1  2  1  0  0  0  0
  1 18  1  0  0  0  0
  1 19  1  0  0  0  0
  1 20  1  0  0  0  0
  2  3  1  0  0  0  0
  2 21  1  0  0  0  0
  2 22  1  0  0  0  0
  3 17  1  0  0  0  0
  3  4  2  0  0  0  0
  4  5  1  0  0  0  0
  4 23  1  0  0  0  0
  5  6  1  0  0  0  0
  6  7  1  0  0  0  0
  6 17  2  0  0  0  0
  7  8  1  0  0  0  0
  7 24  1  0  0  0  0
  8  9  2  0  0  0  0
  8 10  1  0  0  0  0
 10 11  1  0  0  0  0
 10 25  1  0  0  0  0
 11 12  1  0  0  0  0
 11 26  1  0  0  0  0
 11 27  1  0  0  0  0
 12 16  1  0  0  0  0
 12 13  1  0  0  0  0
 12 28  1  0  0  0  0
 13 14  1  0  0  0  0
 13 29  1  0  0  0  0
 13 30  1  0  0  0  0
 14 15  1  0  0  0  0
 14 31  1  0  0  0  0
 14 32  1  0  0  0  0
 15 16  1  0  0  0  0
 15 33  1  0  0  0  0
 15 34  1  0  0  0  0
M  END
> <s_m_source_file>
AV-unprocessed.smi

> <i_m_source_file_index>
915

> <i_lp_mmshare_version>
43012

> <i_f3d_flags>
0

> <s_epik_input>
W0NIM11bQ0gyXWMxW2NIXXNjKG4xKVtOSF1DKD1PKVtOSF1bQ0gyXVtDQEBIXTJbQ0gyXVtDSDJdW0NIMl1TMg==

> <s_epik_cmdline>
J2VwaWtfcHl0aG9uJywgJy1waCcsICc3LjAnLCAnLXRuJywgJzgnLCAnLW1hJywgJzIwMCcsICctbWV0YWxfYmluZGluZycsICctaW1hZScsICc8aW5maWxlLm1hZT4nLCAnLW9tYWUnLCAnPG91dGZpbGUubWFlPic=

> <r_lp_tautomer_probability>
0.999

> <r_epik_Ionization_Penalty>
0.000460048

> <r_epik_Ionization_Penalty_Charging>
0

> <r_epik_Ionization_Penalty_Neutral>
0.000460048

> <r_epik_State_Penalty>
0.000177984

> <r_epik_Charging_Adjusted_Penalty>
0.000177984

> <i_epik_Tot_Q>
0

> <i_epik_Tot_abs_Q>
0

> <r_epik_Metal_State_Penalty>
0.00612978

> <b_epik_Metal_Only>
0

> <s_lp_Force_Field>
OPLS_2005

> <r_lp_Energy>
6.6865

> <b_lp_Chiralities_Consistent>
1

> <s_lp_Variant>
AV-unprocessed.smi:915-2

> <Gold.Version>
5.8.1

> <Gold.Id.Protein>
6NUR|6NUR_protein|mol2

> <Gold.PLP.Fitness>
38.9437

> <Gold.PLP.PLP>
-31.2708

> <Gold.PLP.part.hbond>
-1.9905

> <Gold.PLP.part.metal>
0.0000

> <Gold.PLP.part.buried>
-2.7206

> <Gold.PLP.part.nonpolar>
-28.0529

> <Gold.PLP.part.repulsive>
2.3834

> <Gold.PLP.ligand.clash>
0.0000

> <Gold.PLP.ligand.torsion>
0.0887

> <Gold.PLP.Chemscore.Hbond>
1.8960

> <Gold.PLP.Chemscore.CHOScore>
0.7174

> <Gold.PLP.Chemscore.Metal>
0.0000

> <Gold.Chemscore.Hbonds>
donor molecule, donor type, donor heavy atom, donor atom, acceptor molecule, acceptor atom, score
      L1  H     7    24       P1  7948  1.00
      L1  H    10    25       P1  7948  0.91
      L1  C     4    23       P1 10186  0.77

> <Gold.PLP.Chemscore.Internal.Correction>
0.0100

> <Gold.Rescore>
     Score         DG    S(hbond)    S(metal)    S(lipo)     H(rot)  DE(clash)    DE(int)     intcor
     16.25     -17.51       1.95        0.00      76.85       1.36       0.04       1.22       ----

> <Gold.Chemscore.Fitness>
16.2495

> <Gold.Chemscore.DG>
-17.5142

> <Gold.Chemscore.ZeroCoef>
-5.4800

> <Gold.Chemscore.Hbond>
1.9535

> <Gold.Chemscore.Metal>
0.0000

> <Gold.Chemscore.Lipo>
76.8539

> <Gold.Chemscore.Internal_Hbond>
0.0000

> <Gold.Chemscore.DEClash>
0.0432

> <Gold.Chemscore.DEInternal>
1.2216

> <Gold.Chemscore.Rot>
1.3603

> <Gold.Chemscore.Internal.Correction>
   9.000000E+99

> <Gold.Chemscore.Hbonds>
donor molecule, donor type, donor heavy atom, donor atom, acceptor molecule, acceptor atom, score
      L1  H     7    24       P1  7948  0.97
      L1  H    10    25       P1  7948  0.88

> <Gold.Chemscore.Hbond.Weighted>
-6.5248

> <Gold.Chemscore.Metal.Weighted>
-0.0000

> <Gold.Chemscore.Lipo.Weighted>
-8.9919

> <Gold.Chemscore.Internal_Hbond.Weighted>
0.0000

> <Gold.Chemscore.DEClash.Weighted>
0.0432

> <Gold.Chemscore.DEInternal.Weighted>
1.2216

> <Gold.Chemscore.Rot.Weighted>
3.4824

> <Gold.Chemscore.Internal.Correction.Weighted>
   9.000000E+99

> <Gold.Protein.RotatedTorsions>
[ 6907 6896 6895 6894 ] final  166.71 input  -60.11 | X-H torsion
[ 7974 7965 7964 7962 ] final   92.24 input  175.53 | X-H torsion
[ 8008 7997 7996 7995 ] final    2.32 input   59.86 | X-H torsion
[ 10167 10162 10161 10158 ] final -111.28 input  -65.29 | X-H torsion
[ 10718 10713 10712 10709 ] final -126.72 input   66.30 | X-H torsion
[ 10763 10752 10751 10750 ] final   47.43 input  -60.55 | X-H torsion
[ 11005 11000 10999 10996 ] final  147.52 input  -57.11 | X-H torsion

> <Gold.Protein.ActiveResidues>
 VAL166  LYS551  ARG553  GLY616  TRP617  ASP618  TYR619  PRO620  LYS621  CYS622 
 ASP623  PHE694  ASN695  SER759  ASP760  ASP761  ALA762  ILE779  LEU786  VAL792 
 PHE793  MET794  SER795  GLU796  ALA797  LYS798  CYS799  TRP800  GLU811  SER814 

> <Gold.Protein.RotatedAtoms>
  151.8746  133.3482  159.3745 H   0  0  0  0  0  0  0  0  0  0  0  0  # atno 6907 bound_to 6896
  150.7143  134.5079  159.5602 H   0  0  0  0  0  0  0  0  0  0  0  0  # atno 6908 bound_to 6896
  152.2618  134.8026  160.0480 H   0  0  0  0  0  0  0  0  0  0  0  0  # atno 6909 bound_to 6896
  145.4950  139.2276  143.2809 H   0  0  0  0  0  0  0  0  0  0  0  0  # atno 7974 bound_to 7965
  154.6902  140.2651  155.6820 H   0  0  0  0  0  0  0  0  0  0  0  0  # atno 8008 bound_to 7997
  156.2729  140.2792  156.1401 H   0  0  0  0  0  0  0  0  0  0  0  0  # atno 8009 bound_to 7997
  155.0907  140.0373  157.2658 H   0  0  0  0  0  0  0  0  0  0  0  0  # atno 8010 bound_to 7997
  140.1353  143.4326  152.1600 H   0  0  0  0  0  0  0  0  0  0  0  0  # atno 10167 bound_to 10162
  156.1791  130.6720  151.0281 H   0  0  0  0  0  0  0  0  0  0  0  0  # atno 10718 bound_to 10713
  152.9800  135.5976  154.3762 H   0  0  0  0  0  0  0  0  0  0  0  0  # atno 10763 bound_to 10752
  154.3431  135.2767  155.2414 H   0  0  0  0  0  0  0  0  0  0  0  0  # atno 10764 bound_to 10752
  154.4487  135.5995  153.6232 H   0  0  0  0  0  0  0  0  0  0  0  0  # atno 10765 bound_to 10752
  140.0882  134.9056  157.1610 H   0  0  0  0  0  0  0  0  0  0  0  0  # atno 11005 bound_to 11000
  146.2261  140.5746  142.8996 LP  0  0  0  0  0  0  0  0  0  0  0  0  # atno 17320 bound_to 7965
  144.7812  140.5845  143.6604 LP  0  0  0  0  0  0  0  0  0  0  0  0  # atno 17321 bound_to 7965
  139.5499  144.7329  151.4467 LP  0  0  0  0  0  0  0  0  0  0  0  0  # atno 17342 bound_to 10162
  140.6793  143.8119  150.7100 LP  0  0  0  0  0  0  0  0  0  0  0  0  # atno 17343 bound_to 10162
  157.6856  131.0826  150.7252 LP  0  0  0  0  0  0  0  0  0  0  0  0  # atno 17370 bound_to 10713
  156.7309  130.4709  149.5500 LP  0  0  0  0  0  0  0  0  0  0  0  0  # atno 17371 bound_to 10713
  140.3389  134.2726  155.7215 LP  0  0  0  0  0  0  0  0  0  0  0  0  # atno 17394 bound_to 11000
  141.2069  133.7819  157.0147 LP  0  0  0  0  0  0  0  0  0  0  0  0  # atno 17395 bound_to 11000

$$$$
