AV-unprocessed.smi:1033|AV-procd|sdf|4502|dock1
  -GOLD-   22720 2503D 1   1.00000     0.00000
 Structure written by MMmdl.
 57 59  0  0  0  0  0  0  0  0  3 V2000
  153.2128  142.7131  161.2598 C   0  0  0  0  0  0  0  0  0  0  0  0
  152.5639  142.3527  159.9342 C   0  0  0  0  0  0  0  0  0  0  0  0
  152.5021  140.9905  159.5616 C   0  0  0  0  0  0  0  0  0  0  0  0
  151.9045  140.6930  158.3425 C   0  0  0  0  0  0  0  0  0  0  0  0
  151.6924  139.4712  157.6993 N   0  3  0  0  0  0  0  0  0  0  0  0
  151.0621  139.6863  156.5111 C   0  0  0  0  0  0  0  0  0  0  0  0
  150.8647  141.0273  156.3897 N   0  0  0  0  0  0  0  0  0  0  0  0
  150.2353  141.7988  155.3108 C   0  0  0  0  0  0  0  0  0  0  0  0
  149.0516  141.0566  154.6576 C   0  0  2  0  0  0  0  0  0  0  0  0
  149.1167  141.2282  153.2568 O   0  0  0  0  0  0  0  0  0  0  0  0
  147.6855  141.5831  155.1378 C   0  0  0  0  0  0  0  0  0  0  0  0
  146.5558  141.3079  154.2418 N   0  0  0  0  0  0  0  0  0  0  0  0
  145.3352  140.9520  154.9645 C   0  0  0  0  0  0  0  0  0  0  0  0
  144.6862  142.1479  155.6913 C   0  0  0  0  0  0  0  0  0  0  0  0
  144.3910  143.2416  154.7300 N   0  3  0  0  0  0  0  0  0  0  0  0
  143.6976  144.3879  155.3718 C   0  0  0  0  0  0  0  0  0  0  0  0
  143.1807  145.4195  154.3495 C   0  0  2  0  0  0  0  0  0  0  0  0
  142.5432  146.6370  155.0314 C   0  0  0  0  0  0  0  0  0  0  0  0
  142.2026  144.8128  153.5289 O   0  0  0  0  0  0  0  0  0  0  0  0
  145.6176  143.6263  153.9813 C   0  0  0  0  0  0  0  0  0  0  0  0
  146.2400  142.3886  153.3035 C   0  0  0  0  0  0  0  0  0  0  0  0
  151.3782  141.6954  157.5055 C   0  0  0  0  0  0  0  0  0  0  0  0
  151.4311  143.0420  157.8559 C   0  0  0  0  0  0  0  0  0  0  0  0
  152.0350  143.3654  159.0920 C   0  0  0  0  0  0  0  0  0  0  0  0
  152.1075  144.8262  159.5020 C   0  0  0  0  0  0  0  0  0  0  0  0
  153.5528  141.8244  161.7925 H   0  0  0  0  0  0  0  0  0  0  0  0
  152.5055  143.2358  161.9040 H   0  0  0  0  0  0  0  0  0  0  0  0
  154.0781  143.3568  161.0998 H   0  0  0  0  0  0  0  0  0  0  0  0
  152.9032  140.2147  160.1974 H   0  0  0  0  0  0  0  0  0  0  0  0
  150.7696  138.9303  155.7962 H   0  0  0  0  0  0  0  0  0  0  0  0
  149.9211  142.7601  155.7194 H   0  0  0  0  0  0  0  0  0  0  0  0
  151.0051  142.0160  154.5687 H   0  0  0  0  0  0  0  0  0  0  0  0
  149.1307  139.9864  154.8442 H   0  0  0  0  0  0  0  0  0  0  0  0
  149.4217  140.4217  152.8700 H   0  0  0  0  0  0  0  0  0  0  0  0
  147.4805  141.1341  156.1107 H   0  0  0  0  0  0  0  0  0  0  0  0
  147.7631  142.6543  155.3229 H   0  0  0  0  0  0  0  0  0  0  0  0
  144.6146  140.5342  154.2602 H   0  0  0  0  0  0  0  0  0  0  0  0
  145.5459  140.1552  155.6785 H   0  0  0  0  0  0  0  0  0  0  0  0
  143.7599  141.8185  156.1636 H   0  0  0  0  0  0  0  0  0  0  0  0
  145.3312  142.5171  156.4898 H   0  0  0  0  0  0  0  0  0  0  0  0
  142.8499  144.0236  155.9551 H   0  0  0  0  0  0  0  0  0  0  0  0
  144.3744  144.8614  156.0849 H   0  0  0  0  0  0  0  0  0  0  0  0
  143.9916  145.7709  153.7127 H   0  0  0  0  0  0  0  0  0  0  0  0
  143.2665  147.1545  155.6626 H   0  0  0  0  0  0  0  0  0  0  0  0
  141.7010  146.3475  155.6611 H   0  0  0  0  0  0  0  0  0  0  0  0
  142.1778  147.3543  154.2956 H   0  0  0  0  0  0  0  0  0  0  0  0
  142.6084  144.1148  153.0368 H   0  0  0  0  0  0  0  0  0  0  0  0
  145.3758  144.3595  153.2130 H   0  0  0  0  0  0  0  0  0  0  0  0
  146.3328  144.1037  154.6521 H   0  0  0  0  0  0  0  0  0  0  0  0
  147.1243  142.6789  152.7385 H   0  0  0  0  0  0  0  0  0  0  0  0
  145.5372  142.0115  152.5592 H   0  0  0  0  0  0  0  0  0  0  0  0
  151.0294  143.8114  157.2135 H   0  0  0  0  0  0  0  0  0  0  0  0
  151.6474  145.4738  158.7550 H   0  0  0  0  0  0  0  0  0  0  0  0
  153.1453  145.1387  159.6207 H   0  0  0  0  0  0  0  0  0  0  0  0
  151.5868  144.9857  160.4464 H   0  0  0  0  0  0  0  0  0  0  0  0
  143.7431  142.8562  154.0572 H   0  0  0  0  0  0  0  0  0  0  0  0
  151.9588  138.5571  158.0426 H   0  0  0  0  0  0  0  0  0  0  0  0
  1  2  1  0  0  0  0
  1 26  1  0  0  0  0
  1 27  1  0  0  0  0
  1 28  1  0  0  0  0
  2 24  1  0  0  0  0
  2  3  2  0  0  0  0
  3  4  1  0  0  0  0
  3 29  1  0  0  0  0
  4 22  2  0  0  0  0
  4  5  1  0  0  0  0
  5  6  2  0  0  0  0
  5 57  1  0  0  0  0
  6  7  1  0  0  0  0
  6 30  1  0  0  0  0
  7  8  1  0  0  0  0
  7 22  1  0  0  0  0
  8  9  1  0  0  0  0
  8 31  1  0  0  0  0
  8 32  1  0  0  0  0
  9 10  1  0  0  0  0
  9 11  1  0  0  0  0
  9 33  1  0  0  0  0
 10 34  1  0  0  0  0
 11 12  1  0  0  0  0
 11 35  1  0  0  0  0
 11 36  1  0  0  0  0
 12 21  1  0  0  0  0
 12 13  1  0  0  0  0
 13 14  1  0  0  0  0
 13 37  1  0  0  0  0
 13 38  1  0  0  0  0
 14 15  1  0  0  0  0
 14 39  1  0  0  0  0
 14 40  1  0  0  0  0
 15 16  1  0  0  0  0
 15 20  1  0  0  0  0
 15 56  1  0  0  0  0
 16 17  1  0  0  0  0
 16 41  1  0  0  0  0
 16 42  1  0  0  0  0
 17 18  1  0  0  0  0
 17 19  1  0  0  0  0
 17 43  1  0  0  0  0
 18 44  1  0  0  0  0
 18 45  1  0  0  0  0
 18 46  1  0  0  0  0
 19 47  1  0  0  0  0
 20 21  1  0  0  0  0
 20 48  1  0  0  0  0
 20 49  1  0  0  0  0
 21 50  1  0  0  0  0
 21 51  1  0  0  0  0
 22 23  1  0  0  0  0
 23 24  2  0  0  0  0
 23 52  1  0  0  0  0
 24 25  1  0  0  0  0
 25 53  1  0  0  0  0
 25 54  1  0  0  0  0
 25 55  1  0  0  0  0
M  CHG  1   5   1
M  CHG  1  15   1
M  END
> <s_m_source_file>
AV-unprocessed.smi

> <i_m_source_file_index>
1033

> <i_lp_mmshare_version>
43012

> <i_f3d_flags>
0

> <s_epik_input>
W0NIM11jKFtjSF0xKWMoW0NIM10pW2NIXWMoYzEyKW4oW2NIXW4yKVtDSDJdW0NASF0oW09IXSlbQ0gyXU4zW0NIMl1bQ0gyXU4oW0NIMl1bQ0gyXTMpW0NIMl1bQ0BIXShbQ0gzXSlbT0hd

> <s_epik_cmdline>
J2VwaWtfcHl0aG9uJywgJy1waCcsICc3LjAnLCAnLXRuJywgJzgnLCAnLW1hJywgJzIwMCcsICctbWV0YWxfYmluZGluZycsICctaW1hZScsICc8aW5maWxlLm1hZT4nLCAnLW9tYWUnLCAnPG91dGZpbGUubWFlPic=

> <r_epik_Ionization_Penalty>
1.28617

> <r_epik_Ionization_Penalty_Charging>
1.23646

> <r_epik_Ionization_Penalty_Neutral>
0.0497112

> <r_epik_State_Penalty>
1.79157

> <r_epik_Charging_Adjusted_Penalty>
3.02803

> <i_epik_Tot_Q>
2

> <i_epik_Tot_abs_Q>
2

> <r_epik_Metal_State_Penalty>
5.81739

> <b_epik_Metal_Only>
0

> <s_lp_Force_Field>
OPLS_2005

> <r_lp_Energy>
39.1755

> <b_lp_Chiralities_Consistent>
1

> <s_lp_Variant>
AV-unprocessed.smi:1033-13

> <Gold.Version>
5.8.1

> <Gold.Id.Protein>
6NUR|6NUR_protein|mol2

> <Gold.PLP.Fitness>
59.9071

> <Gold.PLP.PLP>
-51.1177

> <Gold.PLP.part.hbond>
-5.6357

> <Gold.PLP.part.metal>
0.0000

> <Gold.PLP.part.buried>
-4.4802

> <Gold.PLP.part.nonpolar>
-41.3882

> <Gold.PLP.part.repulsive>
0.2435

> <Gold.PLP.ligand.clash>
0.0000

> <Gold.PLP.ligand.torsion>
1.7068

> <Gold.PLP.Chemscore.Hbond>
3.9425

> <Gold.PLP.Chemscore.CHOScore>
0.0000

> <Gold.PLP.Chemscore.Metal>
0.0000

> <Gold.Chemscore.Hbonds>
donor molecule, donor type, donor heavy atom, donor atom, acceptor molecule, acceptor atom, score
      L1  H    10    34       P1  7957  0.56
      L1  H    15    56       P1 10174  0.86
      L1  H    19    47       P1 10174  1.00
      P1  H  8011  8017       L1    10  1.00

> <Gold.PLP.Chemscore.Internal.Correction>
0.3755

> <Gold.Rescore>
     Score         DG    S(hbond)    S(metal)    S(lipo)     H(rot)  DE(clash)    DE(int)     intcor
     18.90     -21.44       2.36        0.00     137.97       3.15       0.67       1.86       ----

> <Gold.Chemscore.Fitness>
18.9048

> <Gold.Chemscore.DG>
-21.4404

> <Gold.Chemscore.ZeroCoef>
-5.4800

> <Gold.Chemscore.Hbond>
2.3584

> <Gold.Chemscore.Metal>
0.0000

> <Gold.Chemscore.Lipo>
137.9734

> <Gold.Chemscore.Internal_Hbond>
0.0000

> <Gold.Chemscore.DEClash>
0.6737

> <Gold.Chemscore.DEInternal>
1.8619

> <Gold.Chemscore.Rot>
3.1483

> <Gold.Chemscore.Internal.Correction>
   9.000000E+99

> <Gold.Chemscore.Hbonds>
donor molecule, donor type, donor heavy atom, donor atom, acceptor molecule, acceptor atom, score
      L1  H    10    34       P1  7957  0.56
      L1  H    15    56       P1 10174  0.07
      L1  H    19    47       P1 10174  0.98
      P1  H  8011  8017       L1    10  0.44

> <Gold.Chemscore.Hbond.Weighted>
-7.8772

> <Gold.Chemscore.Metal.Weighted>
-0.0000

> <Gold.Chemscore.Lipo.Weighted>
-16.1429

> <Gold.Chemscore.Internal_Hbond.Weighted>
0.0000

> <Gold.Chemscore.DEClash.Weighted>
0.6737

> <Gold.Chemscore.DEInternal.Weighted>
1.8619

> <Gold.Chemscore.Rot.Weighted>
8.0597

> <Gold.Chemscore.Internal.Correction.Weighted>
   9.000000E+99

> <Gold.Protein.RotatedTorsions>
[ 6907 6896 6895 6894 ] final  101.84 input  -60.11 | X-H torsion
[ 7974 7965 7964 7962 ] final  -18.38 input  175.53 | X-H torsion
[ 8008 7997 7996 7995 ] final  -11.41 input   59.86 | X-H torsion
[ 10167 10162 10161 10158 ] final   12.42 input  -65.29 | X-H torsion
[ 10718 10713 10712 10709 ] final   -2.77 input   66.30 | X-H torsion
[ 10763 10752 10751 10750 ] final  101.68 input  -60.55 | X-H torsion
[ 11005 11000 10999 10996 ] final  164.41 input  -57.11 | X-H torsion

> <Gold.Protein.ActiveResidues>
 VAL166  LYS551  ARG553  GLY616  TRP617  ASP618  TYR619  PRO620  LYS621  CYS622 
 ASP623  PHE694  ASN695  SER759  ASP760  ASP761  ALA762  ILE779  LEU786  VAL792 
 PHE793  MET794  SER795  GLU796  ALA797  LYS798  CYS799  TRP800  GLU811  SER814 

> <Gold.Protein.RotatedAtoms>
  152.5339  134.0065  159.7918 H   0  0  0  0  0  0  0  0  0  0  0  0  # atno 6907 bound_to 6896
  151.0275  133.5813  159.2671 H   0  0  0  0  0  0  0  0  0  0  0  0  # atno 6908 bound_to 6896
  151.2830  135.0726  159.9230 H   0  0  0  0  0  0  0  0  0  0  0  0  # atno 6909 bound_to 6896
  146.1895  140.3912  142.8463 H   0  0  0  0  0  0  0  0  0  0  0  0  # atno 7974 bound_to 7965
  154.5467  140.2303  155.8551 H   0  0  0  0  0  0  0  0  0  0  0  0  # atno 8008 bound_to 7997
  156.1909  140.3077  155.9293 H   0  0  0  0  0  0  0  0  0  0  0  0  # atno 8009 bound_to 7997
  155.3150  140.0437  157.3027 H   0  0  0  0  0  0  0  0  0  0  0  0  # atno 8010 bound_to 7997
  140.6069  143.8489  150.7023 H   0  0  0  0  0  0  0  0  0  0  0  0  # atno 10167 bound_to 10162
  156.7860  130.5346  149.5743 H   0  0  0  0  0  0  0  0  0  0  0  0  # atno 10718 bound_to 10713
  153.3298  135.4036  155.1486 H   0  0  0  0  0  0  0  0  0  0  0  0  # atno 10763 bound_to 10752
  154.8620  135.3608  154.5485 H   0  0  0  0  0  0  0  0  0  0  0  0  # atno 10764 bound_to 10752
  153.5923  135.7073  153.5477 H   0  0  0  0  0  0  0  0  0  0  0  0  # atno 10765 bound_to 10752
  140.2456  134.8017  157.3453 H   0  0  0  0  0  0  0  0  0  0  0  0  # atno 11005 bound_to 11000
  144.8460  140.6929  143.6199 LP  0  0  0  0  0  0  0  0  0  0  0  0  # atno 17320 bound_to 7965
  145.3836  139.1631  143.4267 LP  0  0  0  0  0  0  0  0  0  0  0  0  # atno 17321 bound_to 7965
  140.2048  143.3930  152.1763 LP  0  0  0  0  0  0  0  0  0  0  0  0  # atno 17342 bound_to 10162
  139.5331  144.7181  151.4985 LP  0  0  0  0  0  0  0  0  0  0  0  0  # atno 17343 bound_to 10162
  156.1189  130.6095  151.0162 LP  0  0  0  0  0  0  0  0  0  0  0  0  # atno 17370 bound_to 10713
  157.6624  131.0878  150.7808 LP  0  0  0  0  0  0  0  0  0  0  0  0  # atno 17371 bound_to 10713
  140.1609  134.4729  155.7895 LP  0  0  0  0  0  0  0  0  0  0  0  0  # atno 17394 bound_to 11000
  141.2206  133.6901  156.7543 LP  0  0  0  0  0  0  0  0  0  0  0  0  # atno 17395 bound_to 11000

$$$$
