AV-unprocessed.smi:573|AV-procd|sdf|2972|dock9
  -GOLD-   2262023483D 1   1.00000     0.00000
 Structure written by MMmdl.
 44 46  0  0  0  0  0  0  0  0  1 V2000
  147.3322  141.4087  153.6222 C   0  0  0  0  0  0  0  0  0  0  0  0
  148.5237  140.7342  154.3188 C   0  0  1  0  0  0  0  0  0  0  0  0
  149.6303  140.7889  153.4440 O   0  0  0  0  0  0  0  0  0  0  0  0
  148.9263  141.4095  155.6413 C   0  0  0  0  0  0  0  0  0  0  0  0
  149.9099  140.6382  156.3793 N   0  0  0  0  0  0  0  0  0  0  0  0
  150.7735  140.9712  157.4164 C   0  0  0  0  0  0  0  0  0  0  0  0
  150.8512  142.1839  157.9615 N   0  0  0  0  0  0  0  0  0  0  0  0
  151.8330  142.0119  158.9191 C   0  0  0  0  0  0  0  0  0  0  0  0
  152.3850  142.9294  159.8417 C   0  0  0  0  0  0  0  0  0  0  0  0
  153.3962  142.5213  160.7361 C   0  0  0  0  0  0  0  0  0  0  0  0
  153.8705  141.1937  160.7206 C   0  0  0  0  0  0  0  0  0  0  0  0
  153.3352  140.2629  159.8095 C   0  0  0  0  0  0  0  0  0  0  0  0
  152.3241  140.6736  158.9202 C   0  0  0  0  0  0  0  0  0  0  0  0
  151.6004  140.0267  157.9227 N   0  0  0  0  0  0  0  0  0  0  0  0
  151.7292  138.6338  157.5184 C   0  0  0  0  0  0  0  0  0  0  0  0
  150.4075  137.8659  157.6842 C   0  0  2  0  0  0  0  0  0  0  0  0
  150.1428  137.4736  159.1499 C   0  0  0  0  0  0  0  0  0  0  0  0
  148.8506  136.6562  159.2608 C   0  0  0  0  0  0  0  0  0  0  0  0
  148.9035  135.4708  158.2908 C   0  0  0  0  0  0  0  0  0  0  0  0
  149.2386  135.9548  156.8708 C   0  0  0  0  0  0  0  0  0  0  0  0
  150.4597  136.6868  156.8827 O   0  0  0  0  0  0  0  0  0  0  0  0
  146.4288  141.3419  154.2283 H   0  0  0  0  0  0  0  0  0  0  0  0
  147.1162  140.9320  152.6655 H   0  0  0  0  0  0  0  0  0  0  0  0
  147.5286  142.4646  153.4326 H   0  0  0  0  0  0  0  0  0  0  0  0
  148.2950  139.6826  154.4968 H   0  0  0  0  0  0  0  0  0  0  0  0
  149.5090  140.1424  152.7656 H   0  0  0  0  0  0  0  0  0  0  0  0
  149.3613  142.3892  155.4411 H   0  0  0  0  0  0  0  0  0  0  0  0
  148.0500  141.5777  156.2688 H   0  0  0  0  0  0  0  0  0  0  0  0
  149.9526  139.6692  156.0991 H   0  0  0  0  0  0  0  0  0  0  0  0
  152.0305  143.9492  159.8602 H   0  0  0  0  0  0  0  0  0  0  0  0
  153.8108  143.2310  161.4367 H   0  0  0  0  0  0  0  0  0  0  0  0
  154.6464  140.8901  161.4080 H   0  0  0  0  0  0  0  0  0  0  0  0
  153.6993  139.2463  159.7927 H   0  0  0  0  0  0  0  0  0  0  0  0
  152.0566  138.6017  156.4788 H   0  0  0  0  0  0  0  0  0  0  0  0
  152.5224  138.1658  158.1026 H   0  0  0  0  0  0  0  0  0  0  0  0
  149.5910  138.4972  157.3285 H   0  0  0  0  0  0  0  0  0  0  0  0
  150.9794  136.8864  159.5308 H   0  0  0  0  0  0  0  0  0  0  0  0
  150.0753  138.3647  159.7749 H   0  0  0  0  0  0  0  0  0  0  0  0
  148.7069  136.3061  160.2834 H   0  0  0  0  0  0  0  0  0  0  0  0
  147.9944  137.2885  159.0221 H   0  0  0  0  0  0  0  0  0  0  0  0
  149.6629  134.7610  158.6210 H   0  0  0  0  0  0  0  0  0  0  0  0
  147.9527  134.9372  158.2940 H   0  0  0  0  0  0  0  0  0  0  0  0
  149.3480  135.1022  156.2004 H   0  0  0  0  0  0  0  0  0  0  0  0
  148.4350  136.5740  156.4697 H   0  0  0  0  0  0  0  0  0  0  0  0
  1  2  1  0  0  0  0
  1 22  1  0  0  0  0
  1 23  1  0  0  0  0
  1 24  1  0  0  0  0
  2  3  1  0  0  0  0
  2  4  1  0  0  0  0
  2 25  1  0  0  0  0
  3 26  1  0  0  0  0
  4  5  1  0  0  0  0
  4 27  1  0  0  0  0
  4 28  1  0  0  0  0
  5  6  1  0  0  0  0
  5 29  1  0  0  0  0
  6 14  1  0  0  0  0
  6  7  2  0  0  0  0
  7  8  1  0  0  0  0
  8 13  2  0  0  0  0
  8  9  1  0  0  0  0
  9 10  2  0  0  0  0
  9 30  1  0  0  0  0
 10 11  1  0  0  0  0
 10 31  1  0  0  0  0
 11 12  2  0  0  0  0
 11 32  1  0  0  0  0
 12 13  1  0  0  0  0
 12 33  1  0  0  0  0
 13 14  1  0  0  0  0
 14 15  1  0  0  0  0
 15 16  1  0  0  0  0
 15 34  1  0  0  0  0
 15 35  1  0  0  0  0
 16 21  1  0  0  0  0
 16 17  1  0  0  0  0
 16 36  1  0  0  0  0
 17 18  1  0  0  0  0
 17 37  1  0  0  0  0
 17 38  1  0  0  0  0
 18 19  1  0  0  0  0
 18 39  1  0  0  0  0
 18 40  1  0  0  0  0
 19 20  1  0  0  0  0
 19 41  1  0  0  0  0
 19 42  1  0  0  0  0
 20 21  1  0  0  0  0
 20 43  1  0  0  0  0
 20 44  1  0  0  0  0
M  END
> <s_m_source_file>
AV-unprocessed.smi

> <i_m_source_file_index>
573

> <i_lp_mmshare_version>
43012

> <i_f3d_flags>
0

> <s_epik_input>
W0NIM11bQ0BIXShbT0hdKVtDSDJdW05IXWMobjEpbihjKGMxMilbY0hdW2NIXVtjSF1bY0hdMilbQ0gyXVtDQEBIXTNbQ0gyXVtDSDJdW0NIMl1bQ0gyXU8z

> <s_epik_cmdline>
J2VwaWtfcHl0aG9uJywgJy1waCcsICc3LjAnLCAnLXRuJywgJzgnLCAnLW1hJywgJzIwMCcsICctbWV0YWxfYmluZGluZycsICctaW1hZScsICc8aW5maWxlLm1hZT4nLCAnLW9tYWUnLCAnPG91dGZpbGUubWFlPic=

> <r_epik_Ionization_Penalty>
1.30635

> <r_epik_Ionization_Penalty_Charging>
0

> <r_epik_Ionization_Penalty_Neutral>
1.30635

> <r_epik_State_Penalty>
1.38073

> <r_epik_Charging_Adjusted_Penalty>
1.38073

> <i_epik_Tot_Q>
0

> <i_epik_Tot_abs_Q>
0

> <r_epik_Metal_State_Penalty>
0.00547412

> <b_epik_Metal_Only>
0

> <s_lp_Force_Field>
OPLS_2005

> <r_lp_Energy>
6.58613

> <b_lp_Chiralities_Consistent>
1

> <s_lp_Variant>
AV-unprocessed.smi:573-6

> <Gold.Version>
5.8.1

> <Gold.Id.Protein>
6NUR|6NUR_protein|mol2

> <Gold.PLP.Fitness>
43.4389

> <Gold.PLP.PLP>
-37.7650

> <Gold.PLP.part.hbond>
-2.5627

> <Gold.PLP.part.metal>
0.0000

> <Gold.PLP.part.buried>
-6.1550

> <Gold.PLP.part.nonpolar>
-29.3264

> <Gold.PLP.part.repulsive>
0.1011

> <Gold.PLP.ligand.clash>
0.0000

> <Gold.PLP.ligand.torsion>
0.3226

> <Gold.PLP.Chemscore.Hbond>
2.1040

> <Gold.PLP.Chemscore.CHOScore>
0.0000

> <Gold.PLP.Chemscore.Metal>
0.0000

> <Gold.Chemscore.Hbonds>
donor molecule, donor type, donor heavy atom, donor atom, acceptor molecule, acceptor atom, score
      L1  H     3    26       P1  7957  0.77
      P1  H  7989  7998       L1     3  0.32
      P1  H  8011  8017       L1     3  0.95

> <Gold.PLP.Chemscore.Internal.Correction>
0.0072

> <Gold.Rescore>
     Score         DG    S(hbond)    S(metal)    S(lipo)     H(rot)  DE(clash)    DE(int)     intcor
     16.37     -16.72       1.38        0.00     100.92       2.02       0.02       0.33       ----

> <Gold.Chemscore.Fitness>
16.3693

> <Gold.Chemscore.DG>
-16.7197

> <Gold.Chemscore.ZeroCoef>
-5.4800

> <Gold.Chemscore.Hbond>
1.3800

> <Gold.Chemscore.Metal>
0.0000

> <Gold.Chemscore.Lipo>
100.9226

> <Gold.Chemscore.Internal_Hbond>
0.0000

> <Gold.Chemscore.DEClash>
0.0232

> <Gold.Chemscore.DEInternal>
0.3272

> <Gold.Chemscore.Rot>
2.0224

> <Gold.Chemscore.Internal.Correction>
   9.000000E+99

> <Gold.Chemscore.Hbonds>
donor molecule, donor type, donor heavy atom, donor atom, acceptor molecule, acceptor atom, score
      L1  H     3    26       P1  7957  0.75
      P1  H  7989  7998       L1     3  0.08
      P1  H  8011  8017       L1     3  0.20

> <Gold.Chemscore.Hbond.Weighted>
-4.6091

> <Gold.Chemscore.Metal.Weighted>
-0.0000

> <Gold.Chemscore.Lipo.Weighted>
-11.8079

> <Gold.Chemscore.Internal_Hbond.Weighted>
0.0000

> <Gold.Chemscore.DEClash.Weighted>
0.0232

> <Gold.Chemscore.DEInternal.Weighted>
0.3272

> <Gold.Chemscore.Rot.Weighted>
5.1773

> <Gold.Chemscore.Internal.Correction.Weighted>
   9.000000E+99

> <Gold.Protein.RotatedTorsions>
[ 6907 6896 6895 6894 ] final -128.40 input  -60.11 | X-H torsion
[ 7974 7965 7964 7962 ] final -105.53 input  175.53 | X-H torsion
[ 8008 7997 7996 7995 ] final   -6.87 input   59.86 | X-H torsion
[ 10167 10162 10161 10158 ] final  -99.95 input  -65.29 | X-H torsion
[ 10718 10713 10712 10709 ] final   54.35 input   66.30 | X-H torsion
[ 10763 10752 10751 10750 ] final -103.86 input  -60.55 | X-H torsion
[ 11005 11000 10999 10996 ] final   84.96 input  -57.11 | X-H torsion

> <Gold.Protein.ActiveResidues>
 VAL166  LYS551  ARG553  GLY616  TRP617  ASP618  TYR619  PRO620  LYS621  CYS622 
 ASP623  PHE694  ASN695  SER759  ASP760  ASP761  ALA762  ILE779  LEU786  VAL792 
 PHE793  MET794  SER795  GLU796  ALA797  LYS798  CYS799  TRP800  GLU811  SER814 

> <Gold.Protein.RotatedAtoms>
  150.9175  133.6921  159.2839 H   0  0  0  0  0  0  0  0  0  0  0  0  # atno 6907 bound_to 6896
  151.4387  135.1016  159.9673 H   0  0  0  0  0  0  0  0  0  0  0  0  # atno 6908 bound_to 6896
  152.4962  133.8588  159.7294 H   0  0  0  0  0  0  0  0  0  0  0  0  # atno 6909 bound_to 6896
  145.2293  140.9164  143.3214 H   0  0  0  0  0  0  0  0  0  0  0  0  # atno 7974 bound_to 7965
  154.5894  140.2421  155.7941 H   0  0  0  0  0  0  0  0  0  0  0  0  # atno 8008 bound_to 7997
  156.2236  140.2989  155.9968 H   0  0  0  0  0  0  0  0  0  0  0  0  # atno 8009 bound_to 7997
  155.2400  140.0406  157.2964 H   0  0  0  0  0  0  0  0  0  0  0  0  # atno 8010 bound_to 7997
  140.2570  143.3433  152.0661 H   0  0  0  0  0  0  0  0  0  0  0  0  # atno 10167 bound_to 10162
  157.5249  130.8590  149.8608 H   0  0  0  0  0  0  0  0  0  0  0  0  # atno 10718 bound_to 10713
  154.7838  135.4807  153.9901 H   0  0  0  0  0  0  0  0  0  0  0  0  # atno 10763 bound_to 10752
  153.1530  135.6795  153.8860 H   0  0  0  0  0  0  0  0  0  0  0  0  # atno 10764 bound_to 10752
  153.8499  135.3168  155.3410 H   0  0  0  0  0  0  0  0  0  0  0  0  # atno 10765 bound_to 10752
  139.8985  134.8253  156.2516 H   0  0  0  0  0  0  0  0  0  0  0  0  # atno 11005 bound_to 11000
  144.9691  139.3899  143.6318 LP  0  0  0  0  0  0  0  0  0  0  0  0  # atno 17320 bound_to 7965
  146.3357  139.8780  142.8829 LP  0  0  0  0  0  0  0  0  0  0  0  0  # atno 17321 bound_to 7965
  139.5028  144.6743  151.6167 LP  0  0  0  0  0  0  0  0  0  0  0  0  # atno 17342 bound_to 10162
  140.5996  143.9634  150.6377 LP  0  0  0  0  0  0  0  0  0  0  0  0  # atno 17343 bound_to 10162
  156.0379  130.3746  150.1511 LP  0  0  0  0  0  0  0  0  0  0  0  0  # atno 17370 bound_to 10713
  156.9698  130.9831  151.3461 LP  0  0  0  0  0  0  0  0  0  0  0  0  # atno 17371 bound_to 10713
  141.0220  133.7036  156.1284 LP  0  0  0  0  0  0  0  0  0  0  0  0  # atno 17394 bound_to 11000
  140.7220  134.4348  157.5574 LP  0  0  0  0  0  0  0  0  0  0  0  0  # atno 17395 bound_to 11000

$$$$
