AV-unprocessed.smi:1568|AV-procd|sdf|6310|dock7
  -GOLD-   22720 6513D 1   1.00000     0.00000
 Structure written by MMmdl.
 43 44  0  0  0  0  0  0  0  0  1 V2000
  152.0365  144.8935  159.1946 C   0  0  0  0  0  0  0  0  0  0  0  0
  152.6400  143.6900  158.7530 O   0  0  0  0  0  0  0  0  0  0  0  0
  152.1933  142.5638  159.4881 C   0  0  0  0  0  0  0  0  0  0  0  0
  152.6077  141.2841  158.7574 C   0  0  0  0  0  0  0  0  0  0  0  0
  151.8439  141.1884  157.5603 O   0  0  0  0  0  0  0  0  0  0  0  0
  152.0275  140.0961  156.7350 C   0  0  0  0  0  0  0  0  0  0  0  0
  153.0106  139.2130  157.0436 N   0  0  0  0  0  0  0  0  0  0  0  0
  153.1681  138.1252  156.2607 C   0  0  0  0  0  0  0  0  0  0  0  0
  152.3580  137.8560  155.1414 C   0  0  0  0  0  0  0  0  0  0  0  0
  151.3398  138.7719  154.8178 C   0  0  0  0  0  0  0  0  0  0  0  0
  151.1770  139.9237  155.6152 C   0  0  0  0  0  0  0  0  0  0  0  0
  150.0926  140.9103  155.2945 C   0  0  0  0  0  0  0  0  0  0  0  0
  150.3809  142.1067  155.2593 O   0  0  0  0  0  0  0  0  0  0  0  0
  148.8485  140.4336  155.0371 N   0  0  0  0  0  0  0  0  0  0  0  0
  147.7685  141.2955  154.5396 C   0  0  0  0  0  0  0  0  0  0  0  0
  147.2675  140.7522  153.1900 C   0  0  0  0  0  0  0  0  0  0  0  0
  146.7820  139.2928  153.3272 C   0  0  0  0  0  0  0  0  0  0  0  0
  146.3613  138.7176  151.9682 C   0  0  0  0  0  0  0  0  0  0  0  0
  145.0672  138.4334  151.8027 N   0  0  0  0  0  0  0  0  0  0  0  0
  147.1890  138.5335  151.0778 O   0  0  0  0  0  0  0  0  0  0  0  0
  147.8737  138.4229  153.9872 C   0  0  0  0  0  0  0  0  0  0  0  0
  148.3845  139.0601  155.2927 C   0  0  0  0  0  0  0  0  0  0  0  0
  152.4080  145.7294  158.6020 H   0  0  0  0  0  0  0  0  0  0  0  0
  152.2723  145.0917  160.2409 H   0  0  0  0  0  0  0  0  0  0  0  0
  150.9519  144.8559  159.0818 H   0  0  0  0  0  0  0  0  0  0  0  0
  152.6226  142.5762  160.4911 H   0  0  0  0  0  0  0  0  0  0  0  0
  151.1089  142.5958  159.5940 H   0  0  0  0  0  0  0  0  0  0  0  0
  153.6737  141.3185  158.5264 H   0  0  0  0  0  0  0  0  0  0  0  0
  152.4248  140.4190  159.3968 H   0  0  0  0  0  0  0  0  0  0  0  0
  153.9601  137.4455  156.5383 H   0  0  0  0  0  0  0  0  0  0  0  0
  152.5143  136.9688  154.5460 H   0  0  0  0  0  0  0  0  0  0  0  0
  150.7013  138.5946  153.9643 H   0  0  0  0  0  0  0  0  0  0  0  0
  146.9554  141.3113  155.2668 H   0  0  0  0  0  0  0  0  0  0  0  0
  148.0787  142.3335  154.4128 H   0  0  0  0  0  0  0  0  0  0  0  0
  146.4591  141.3828  152.8179 H   0  0  0  0  0  0  0  0  0  0  0  0
  148.0739  140.8172  152.4571 H   0  0  0  0  0  0  0  0  0  0  0  0
  145.9117  139.2935  153.9861 H   0  0  0  0  0  0  0  0  0  0  0  0
  144.7417  138.0535  150.9257 H   0  0  0  0  0  0  0  0  0  0  0  0
  144.4176  138.6007  152.5575 H   0  0  0  0  0  0  0  0  0  0  0  0
  147.4813  137.4271  154.1969 H   0  0  0  0  0  0  0  0  0  0  0  0
  148.7094  138.2819  153.3032 H   0  0  0  0  0  0  0  0  0  0  0  0
  149.1425  138.4182  155.7396 H   0  0  0  0  0  0  0  0  0  0  0  0
  147.5743  139.0991  156.0221 H   0  0  0  0  0  0  0  0  0  0  0  0
  1  2  1  0  0  0  0
  1 23  1  0  0  0  0
  1 24  1  0  0  0  0
  1 25  1  0  0  0  0
  2  3  1  0  0  0  0
  3  4  1  0  0  0  0
  3 26  1  0  0  0  0
  3 27  1  0  0  0  0
  4  5  1  0  0  0  0
  4 28  1  0  0  0  0
  4 29  1  0  0  0  0
  5  6  1  0  0  0  0
  6 11  1  0  0  0  0
  6  7  2  0  0  0  0
  7  8  1  0  0  0  0
  8  9  2  0  0  0  0
  8 30  1  0  0  0  0
  9 10  1  0  0  0  0
  9 31  1  0  0  0  0
 10 11  2  0  0  0  0
 10 32  1  0  0  0  0
 11 12  1  0  0  0  0
 12 13  2  0  0  0  0
 12 14  1  0  0  0  0
 14 22  1  0  0  0  0
 14 15  1  0  0  0  0
 15 16  1  0  0  0  0
 15 33  1  0  0  0  0
 15 34  1  0  0  0  0
 16 17  1  0  0  0  0
 16 35  1  0  0  0  0
 16 36  1  0  0  0  0
 17 18  1  0  0  0  0
 17 21  1  0  0  0  0
 17 37  1  0  0  0  0
 18 19  1  0  0  0  0
 18 20  2  0  0  0  0
 19 38  1  0  0  0  0
 19 39  1  0  0  0  0
 21 22  1  0  0  0  0
 21 40  1  0  0  0  0
 21 41  1  0  0  0  0
 22 42  1  0  0  0  0
 22 43  1  0  0  0  0
M  END
> <s_m_source_file>
AV-unprocessed.smi

> <i_m_source_file_index>
1568

> <i_lp_mmshare_version>
43012

> <i_f3d_flags>
0

> <s_epik_input>
W0NIM11PW0NIMl1bQ0gyXU9jMW5bY0hdW2NIXVtjSF1jMUMoPU8pTjJbQ0gyXVtDSDJdW0NIXShDKD1PKVtOSDJdKVtDSDJdW0NIMl0y

> <s_epik_cmdline>
J2VwaWtfcHl0aG9uJywgJy1waCcsICc3LjAnLCAnLXRuJywgJzgnLCAnLW1hJywgJzIwMCcsICctbWV0YWxfYmluZGluZycsICctaW1hZScsICc8aW5maWxlLm1hZT4nLCAnLW9tYWUnLCAnPG91dGZpbGUubWFlPic=

> <r_lp_tautomer_probability>
1

> <r_epik_Ionization_Penalty>
2.36279e-06

> <r_epik_Ionization_Penalty_Charging>
0

> <r_epik_Ionization_Penalty_Neutral>
2.36279e-06

> <r_epik_State_Penalty>
-0

> <r_epik_Charging_Adjusted_Penalty>
0

> <i_epik_Tot_Q>
0

> <i_epik_Tot_abs_Q>
0

> <r_epik_Metal_State_Penalty>
-0

> <b_epik_Metal_Only>
0

> <s_lp_Force_Field>
OPLS_2005

> <r_lp_Energy>
28.0257

> <b_lp_Chiralities_Consistent>
1

> <s_lp_Variant>
AV-unprocessed.smi:1568-1

> <Gold.Version>
5.8.1

> <Gold.Id.Protein>
6NUR|6NUR_protein|mol2

> <Gold.PLP.Fitness>
44.1820

> <Gold.PLP.PLP>
-35.7559

> <Gold.PLP.part.hbond>
-4.4462

> <Gold.PLP.part.metal>
0.0000

> <Gold.PLP.part.buried>
0.2640

> <Gold.PLP.part.nonpolar>
-34.7577

> <Gold.PLP.part.repulsive>
3.5985

> <Gold.PLP.ligand.clash>
0.0000

> <Gold.PLP.ligand.torsion>
1.0299

> <Gold.PLP.Chemscore.Hbond>
2.8480

> <Gold.PLP.Chemscore.CHOScore>
0.0000

> <Gold.PLP.Chemscore.Metal>
0.0000

> <Gold.Chemscore.Hbonds>
donor molecule, donor type, donor heavy atom, donor atom, acceptor molecule, acceptor atom, score
      L1  H    19    38       P1 10171  0.64
      L1  H    19    39       P1 10175  0.22
      P1  H  7954  7966       L1    20  1.00
      P1  H  7997  8009       L1     7  1.00

> <Gold.PLP.Chemscore.Internal.Correction>
1.9419

> <Gold.Rescore>
     Score         DG    S(hbond)    S(metal)    S(lipo)     H(rot)  DE(clash)    DE(int)     intcor
     10.30     -17.54       2.26        0.00      86.88       2.21       3.70       3.54       ----

> <Gold.Chemscore.Fitness>
10.2979

> <Gold.Chemscore.DG>
-17.5378

> <Gold.Chemscore.ZeroCoef>
-5.4800

> <Gold.Chemscore.Hbond>
2.2642

> <Gold.Chemscore.Metal>
0.0000

> <Gold.Chemscore.Lipo>
86.8812

> <Gold.Chemscore.Internal_Hbond>
0.0000

> <Gold.Chemscore.DEClash>
3.7000

> <Gold.Chemscore.DEInternal>
3.5399

> <Gold.Chemscore.Rot>
2.2148

> <Gold.Chemscore.Internal.Correction>
   9.000000E+99

> <Gold.Chemscore.Hbonds>
donor molecule, donor type, donor heavy atom, donor atom, acceptor molecule, acceptor atom, score
      L1  H    19    38       P1 10171  0.61
      L1  H    19    39       P1 10175  0.22
      P1  H  7954  7966       L1    20  0.96
      P1  H  7997  8009       L1     7  0.09

> <Gold.Chemscore.Hbond.Weighted>
-7.5625

> <Gold.Chemscore.Metal.Weighted>
-0.0000

> <Gold.Chemscore.Lipo.Weighted>
-10.1651

> <Gold.Chemscore.Internal_Hbond.Weighted>
0.0000

> <Gold.Chemscore.DEClash.Weighted>
3.7000

> <Gold.Chemscore.DEInternal.Weighted>
3.5399

> <Gold.Chemscore.Rot.Weighted>
5.6698

> <Gold.Chemscore.Internal.Correction.Weighted>
   9.000000E+99

> <Gold.Protein.RotatedTorsions>
[ 6907 6896 6895 6894 ] final  -92.24 input  -60.11 | X-H torsion
[ 7974 7965 7964 7962 ] final -162.75 input  175.53 | X-H torsion
[ 8008 7997 7996 7995 ] final  179.64 input   59.86 | X-H torsion
[ 10167 10162 10161 10158 ] final    6.30 input  -65.29 | X-H torsion
[ 10718 10713 10712 10709 ] final  131.51 input   66.30 | X-H torsion
[ 10763 10752 10751 10750 ] final  -62.73 input  -60.55 | X-H torsion
[ 11005 11000 10999 10996 ] final   -6.13 input  -57.11 | X-H torsion

> <Gold.Protein.ActiveResidues>
 VAL166  LYS551  ARG553  GLY616  TRP617  ASP618  TYR619  PRO620  LYS621  CYS622 
 ASP623  PHE694  ASN695  SER759  ASP760  ASP761  ALA762  ILE779  LEU786  VAL792 
 PHE793  MET794  SER795  GLU796  ALA797  LYS798  CYS799  TRP800  GLU811  SER814 

> <Gold.Protein.RotatedAtoms>
  150.6903  134.2152  159.4374 H   0  0  0  0  0  0  0  0  0  0  0  0  # atno 6907 bound_to 6896
  152.0112  134.9873  160.0577 H   0  0  0  0  0  0  0  0  0  0  0  0  # atno 6908 bound_to 6896
  152.1487  133.4473  159.4839 H   0  0  0  0  0  0  0  0  0  0  0  0  # atno 6909 bound_to 6896
  144.7347  140.3207  143.6171 H   0  0  0  0  0  0  0  0  0  0  0  0  # atno 7974 bound_to 7965
  156.0411  140.1304  157.0154 H   0  0  0  0  0  0  0  0  0  0  0  0  # atno 8008 bound_to 7997
  154.4391  140.1030  156.6309 H   0  0  0  0  0  0  0  0  0  0  0  0  # atno 8009 bound_to 7997
  155.5665  140.3465  155.4506 H   0  0  0  0  0  0  0  0  0  0  0  0  # atno 8010 bound_to 7997
  140.6435  143.7717  150.7464 H   0  0  0  0  0  0  0  0  0  0  0  0  # atno 10167 bound_to 10162
  157.4961  131.1092  150.9491 H   0  0  0  0  0  0  0  0  0  0  0  0  # atno 10718 bound_to 10713
  154.3044  135.6228  153.5438 H   0  0  0  0  0  0  0  0  0  0  0  0  # atno 10763 bound_to 10752
  152.9836  135.5686  154.5248 H   0  0  0  0  0  0  0  0  0  0  0  0  # atno 10764 bound_to 10752
  154.4885  135.2866  155.1491 H   0  0  0  0  0  0  0  0  0  0  0  0  # atno 10765 bound_to 10752
  140.6986  133.9009  155.8667 H   0  0  0  0  0  0  0  0  0  0  0  0  # atno 11005 bound_to 11000
  145.7572  139.1812  143.2288 LP  0  0  0  0  0  0  0  0  0  0  0  0  # atno 17320 bound_to 7965
  146.1015  140.7538  142.9547 LP  0  0  0  0  0  0  0  0  0  0  0  0  # atno 17321 bound_to 7965
  140.1353  143.4489  152.2228 LP  0  0  0  0  0  0  0  0  0  0  0  0  # atno 17342 bound_to 10162
  139.5645  144.7426  151.4061 LP  0  0  0  0  0  0  0  0  0  0  0  0  # atno 17343 bound_to 10162
  157.0177  130.5661  149.5328 LP  0  0  0  0  0  0  0  0  0  0  0  0  # atno 17370 bound_to 10713
  156.0201  130.5296  150.8251 LP  0  0  0  0  0  0  0  0  0  0  0  0  # atno 17371 bound_to 10713
  141.0182  134.0925  157.4149 LP  0  0  0  0  0  0  0  0  0  0  0  0  # atno 17394 bound_to 11000
  139.8903  135.0111  156.6728 LP  0  0  0  0  0  0  0  0  0  0  0  0  # atno 17395 bound_to 11000

$$$$
