AV-unprocessed.smi:2753|AV-procd|sdf|10614|dock4
  -GOLD-   2272015 63D 1   1.00000     0.00000
 Structure written by MMmdl.
 27 28  0  0  0  0  0  0  0  0  3 V2000
  148.3745  133.1413  156.0289 F   0  0  0  0  0  0  0  0  0  0  0  0
  148.8788  133.6854  154.9216 C   0  0  0  0  0  0  0  0  0  0  0  0
  149.4486  134.8491  155.2344 F   0  0  0  0  0  0  0  0  0  0  0  0
  149.8086  132.8716  154.4212 F   0  0  0  0  0  0  0  0  0  0  0  0
  147.7775  133.9024  153.9028 C   0  0  0  0  0  0  0  0  0  0  0  0
  146.6299  134.6672  154.2664 C   0  0  0  0  0  0  0  0  0  0  0  0
  145.8557  134.6773  153.1757 N   0  5  0  0  0  0  0  0  0  0  0  0
  146.4516  133.9792  152.1860 C   0  0  0  0  0  0  0  0  0  0  0  0
  145.8786  133.7619  150.8008 C   0  0  1  0  0  0  0  0  0  0  0  0
  145.8741  132.2752  150.4015 C   0  0  0  0  0  0  0  0  0  0  0  0
  145.2659  132.0992  149.0016 C   0  0  0  0  0  0  0  0  0  0  0  0
  143.8761  132.7532  148.9197 C   0  0  0  0  0  0  0  0  0  0  0  0
  143.9465  134.1825  149.2949 N   0  3  0  0  0  0  0  0  0  0  0  0
  144.4831  134.3964  150.6563 C   0  0  0  0  0  0  0  0  0  0  0  0
  147.6299  133.4991  152.6261 N   0  0  0  0  0  0  0  0  0  0  0  0
  146.3323  135.1736  155.1762 H   0  0  0  0  0  0  0  0  0  0  0  0
  146.5451  134.2812  150.1100 H   0  0  0  0  0  0  0  0  0  0  0  0
  146.8881  131.8743  150.4237 H   0  0  0  0  0  0  0  0  0  0  0  0
  145.2944  131.6996  151.1247 H   0  0  0  0  0  0  0  0  0  0  0  0
  145.9259  132.5458  148.2568 H   0  0  0  0  0  0  0  0  0  0  0  0
  145.1957  131.0390  148.7568 H   0  0  0  0  0  0  0  0  0  0  0  0
  143.4778  132.6700  147.9082 H   0  0  0  0  0  0  0  0  0  0  0  0
  143.1761  132.2419  149.5821 H   0  0  0  0  0  0  0  0  0  0  0  0
  144.5477  134.6582  148.6373 H   0  0  0  0  0  0  0  0  0  0  0  0
  143.7914  133.9669  151.3826 H   0  0  0  0  0  0  0  0  0  0  0  0
  144.5300  135.4674  150.8547 H   0  0  0  0  0  0  0  0  0  0  0  0
  143.0212  134.5836  149.2423 H   0  0  0  0  0  0  0  0  0  0  0  0
  1  2  1  0  0  0  0
  2  3  1  0  0  0  0
  2  4  1  0  0  0  0
  2  5  1  0  0  0  0
  5 15  1  0  0  0  0
  5  6  2  0  0  0  0
  6  7  1  0  0  0  0
  6 16  1  0  0  0  0
  7  8  1  0  0  0  0
  8  9  1  0  0  0  0
  8 15  2  0  0  0  0
  9 14  1  0  0  0  0
  9 10  1  0  0  0  0
  9 17  1  0  0  0  0
 10 11  1  0  0  0  0
 10 18  1  0  0  0  0
 10 19  1  0  0  0  0
 11 12  1  0  0  0  0
 11 20  1  0  0  0  0
 11 21  1  0  0  0  0
 12 13  1  0  0  0  0
 12 22  1  0  0  0  0
 12 23  1  0  0  0  0
 13 14  1  0  0  0  0
 13 24  1  0  0  0  0
 13 27  1  0  0  0  0
 14 25  1  0  0  0  0
 14 26  1  0  0  0  0
M  CHG  1   7  -1
M  CHG  1  13   1
M  END
> <s_m_source_file>
AV-unprocessed.smi

> <i_m_source_file_index>
2753

> <i_lp_mmshare_version>
43012

> <i_f3d_flags>
0

> <s_epik_input>
RkMoRikoRiljMVtjSF1bbkhdYyhuMSlbQ0BASF0yW0NIMl1bQ0gyXVtDSDJdW05IXVtDSDJdMg==

> <s_epik_cmdline>
J2VwaWtfcHl0aG9uJywgJy1waCcsICc3LjAnLCAnLXRuJywgJzgnLCAnLW1hJywgJzIwMCcsICctbWV0YWxfYmluZGluZycsICctaW1hZScsICc8aW5maWxlLm1hZT4nLCAnLW9tYWUnLCAnPG91dGZpbGUubWFlPic=

> <r_lp_tautomer_probability>
0.5

> <r_epik_Ionization_Penalty>
6.42345

> <r_epik_Ionization_Penalty_Charging>
5.19935

> <r_epik_Ionization_Penalty_Neutral>
1.22411

> <r_epik_State_Penalty>
5.30226

> <r_epik_Charging_Adjusted_Penalty>
10.5016

> <i_epik_Tot_Q>
0

> <i_epik_Tot_abs_Q>
2

> <r_epik_Metal_State_Penalty>
1.35744

> <b_epik_Metal_Only>
1

> <s_lp_Force_Field>
OPLS_2005

> <r_lp_Energy>
18.3827

> <b_lp_Chiralities_Consistent>
1

> <s_lp_Variant>
AV-unprocessed.smi:2753-6

> <Gold.Version>
5.8.1

> <Gold.Id.Protein>
6NUR|6NUR_protein|mol2

> <Gold.PLP.Fitness>
35.8695

> <Gold.PLP.PLP>
-27.1021

> <Gold.PLP.part.hbond>
-2.0000

> <Gold.PLP.part.metal>
0.0000

> <Gold.PLP.part.buried>
-3.6859

> <Gold.PLP.part.nonpolar>
-21.9821

> <Gold.PLP.part.repulsive>
0.7072

> <Gold.PLP.ligand.clash>
0.0000

> <Gold.PLP.ligand.torsion>
0.1371

> <Gold.PLP.Chemscore.Hbond>
3.0000

> <Gold.PLP.Chemscore.CHOScore>
0.0000

> <Gold.PLP.Chemscore.Metal>
0.0000

> <Gold.Chemscore.Hbonds>
donor molecule, donor type, donor heavy atom, donor atom, acceptor molecule, acceptor atom, score
      L1  H    13    24       P1  7921  1.00
      L1  H    13    27       P1 10186  2.00

> <Gold.PLP.Chemscore.Internal.Correction>
0.0416

> <Gold.Rescore>
     Score         DG    S(hbond)    S(metal)    S(lipo)     H(rot)  DE(clash)    DE(int)     intcor
     16.31     -16.37       1.95        0.00      59.35       1.00       0.02       0.04       ----

> <Gold.Chemscore.Fitness>
16.3064

> <Gold.Chemscore.DG>
-16.3689

> <Gold.Chemscore.ZeroCoef>
-5.4800

> <Gold.Chemscore.Hbond>
1.9477

> <Gold.Chemscore.Metal>
0.0000

> <Gold.Chemscore.Lipo>
59.3466

> <Gold.Chemscore.Internal_Hbond>
0.0000

> <Gold.Chemscore.DEClash>
0.0207

> <Gold.Chemscore.DEInternal>
0.0418

> <Gold.Chemscore.Rot>
1.0000

> <Gold.Chemscore.Internal.Correction>
   9.000000E+99

> <Gold.Chemscore.Hbonds>
donor molecule, donor type, donor heavy atom, donor atom, acceptor molecule, acceptor atom, score
      L1  H    13    24       P1  7921  0.97
      L1  H    13    27       P1 10186  0.88

> <Gold.Chemscore.Hbond.Weighted>
-6.5053

> <Gold.Chemscore.Metal.Weighted>
-0.0000

> <Gold.Chemscore.Lipo.Weighted>
-6.9435

> <Gold.Chemscore.Internal_Hbond.Weighted>
0.0000

> <Gold.Chemscore.DEClash.Weighted>
0.0207

> <Gold.Chemscore.DEInternal.Weighted>
0.0418

> <Gold.Chemscore.Rot.Weighted>
2.5600

> <Gold.Chemscore.Internal.Correction.Weighted>
   9.000000E+99

> <Gold.Protein.RotatedTorsions>
[ 6907 6896 6895 6894 ] final  131.12 input  -60.11 | X-H torsion
[ 7974 7965 7964 7962 ] final  -64.40 input  175.53 | X-H torsion
[ 8008 7997 7996 7995 ] final   52.05 input   59.86 | X-H torsion
[ 10167 10162 10161 10158 ] final  -78.53 input  -65.29 | X-H torsion
[ 10718 10713 10712 10709 ] final -167.10 input   66.30 | X-H torsion
[ 10763 10752 10751 10750 ] final  120.94 input  -60.55 | X-H torsion
[ 11005 11000 10999 10996 ] final  140.25 input  -57.11 | X-H torsion

> <Gold.Protein.ActiveResidues>
 VAL166  LYS551  ARG553  GLY616  TRP617  ASP618  TYR619  PRO620  LYS621  CYS622 
 ASP623  PHE694  ASN695  SER759  ASP760  ASP761  ALA762  ILE779  LEU786  VAL792 
 PHE793  MET794  SER795  GLU796  ALA797  LYS798  CYS799  TRP800  GLU811  SER814 

> <Gold.Protein.RotatedAtoms>
  152.3458  133.6120  159.5908 H   0  0  0  0  0  0  0  0  0  0  0  0  # atno 6907 bound_to 6896
  150.7506  133.9652  159.3537 H   0  0  0  0  0  0  0  0  0  0  0  0  # atno 6908 bound_to 6896
  151.7510  135.0833  160.0382 H   0  0  0  0  0  0  0  0  0  0  0  0  # atno 6909 bound_to 6896
  145.7672  140.8831  143.0399 H   0  0  0  0  0  0  0  0  0  0  0  0  # atno 7974 bound_to 7965
  155.4454  140.3456  155.4294 H   0  0  0  0  0  0  0  0  0  0  0  0  # atno 8008 bound_to 7997
  156.1253  140.1498  156.9175 H   0  0  0  0  0  0  0  0  0  0  0  0  # atno 8009 bound_to 7997
  154.4853  140.0857  156.7452 H   0  0  0  0  0  0  0  0  0  0  0  0  # atno 8010 bound_to 7997
  140.4674  143.2436  151.8257 H   0  0  0  0  0  0  0  0  0  0  0  0  # atno 10167 bound_to 10162
  156.6774  130.9108  151.3052 H   0  0  0  0  0  0  0  0  0  0  0  0  # atno 10718 bound_to 10713
  153.6063  135.3438  155.2963 H   0  0  0  0  0  0  0  0  0  0  0  0  # atno 10763 bound_to 10752
  154.8627  135.4239  154.2358 H   0  0  0  0  0  0  0  0  0  0  0  0  # atno 10764 bound_to 10752
  153.3198  135.7037  153.7113 H   0  0  0  0  0  0  0  0  0  0  0  0  # atno 10765 bound_to 10752
  140.0314  134.9350  157.0669 H   0  0  0  0  0  0  0  0  0  0  0  0  # atno 11005 bound_to 11000
  144.6819  139.9804  143.7483 LP  0  0  0  0  0  0  0  0  0  0  0  0  # atno 17320 bound_to 7965
  146.0206  139.3248  143.0815 LP  0  0  0  0  0  0  0  0  0  0  0  0  # atno 17321 bound_to 7965
  139.4814  144.4933  151.9156 LP  0  0  0  0  0  0  0  0  0  0  0  0  # atno 17342 bound_to 10162
  140.4019  144.2482  150.5892 LP  0  0  0  0  0  0  0  0  0  0  0  0  # atno 17343 bound_to 10162
  157.7056  130.9381  150.0919 LP  0  0  0  0  0  0  0  0  0  0  0  0  # atno 17370 bound_to 10713
  156.1893  130.3654  149.8931 LP  0  0  0  0  0  0  0  0  0  0  0  0  # atno 17371 bound_to 10713
  140.4220  134.1871  155.7165 LP  0  0  0  0  0  0  0  0  0  0  0  0  # atno 17394 bound_to 11000
  141.1833  133.8367  157.1180 LP  0  0  0  0  0  0  0  0  0  0  0  0  # atno 17395 bound_to 11000

$$$$
