AV-unprocessed.smi:34|AV-procd|sdf|231|dock5
  -GOLD-   2262015563D 1   1.00000     0.00000
 Structure written by MMmdl.
 54 58  0  0  0  0  0  0  0  0  2 V2000
  152.9070  139.9838  157.8805 O   0  0  0  0  0  0  0  0  0  0  0  0
  152.0812  140.8238  157.5166 C   0  0  0  0  0  0  0  0  0  0  0  0
  151.1397  140.7021  156.5470 N   0  5  0  0  0  0  0  0  0  0  0  0
  150.9471  139.5190  155.9444 C   0  0  0  0  0  0  0  0  0  0  0  0
  151.4092  139.3045  154.6859 N   0  0  0  0  0  0  0  0  0  0  0  0
  151.2063  138.1271  154.0826 C   0  0  0  0  0  0  0  0  0  0  0  0
  150.5698  137.0451  154.5425 N   0  0  0  0  0  0  0  0  0  0  0  0
  150.0920  137.2530  155.8040 C   0  0  0  0  0  0  0  0  0  0  0  0
  150.2394  138.4513  156.5610 C   0  0  0  0  0  0  0  0  0  0  0  0
  149.6341  138.3255  157.8020 N   0  0  0  0  0  0  0  0  0  0  0  0
  149.1552  137.0849  157.7427 C   0  0  0  0  0  0  0  0  0  0  0  0
  149.3774  136.3844  156.6101 N   0  0  0  0  0  0  0  0  0  0  0  0
  148.9598  134.9913  156.2569 C   0  0  2  0  0  0  0  0  0  0  0  0
  149.4208  134.1349  157.2619 O   0  0  0  0  0  0  0  0  0  0  0  0
  150.5407  133.3942  156.7852 C   0  0  1  0  0  0  0  0  0  0  0  0
  150.7312  132.1085  157.5981 C   0  0  0  0  0  0  0  0  0  0  0  0
  151.7464  131.3316  156.9844 O   0  0  0  0  0  0  0  0  0  0  0  0
  153.0330  131.7215  157.0529 C   0  0  0  0  0  0  0  0  0  0  0  0
  153.4534  132.5454  157.8673 O   0  0  0  0  0  0  0  0  0  0  0  0
  153.8964  131.0493  156.0391 C   0  0  0  0  0  0  0  0  0  0  0  0
  153.3250  130.0974  155.1628 C   0  0  0  0  0  0  0  0  0  0  0  0
  154.1166  129.4439  154.1983 C   0  0  0  0  0  0  0  0  0  0  0  0
  155.4896  129.7340  154.0984 C   0  0  0  0  0  0  0  0  0  0  0  0
  156.0702  130.6788  154.9644 C   0  0  0  0  0  0  0  0  0  0  0  0
  155.2802  131.3335  155.9293 C   0  0  0  0  0  0  0  0  0  0  0  0
  150.1781  133.1789  155.3183 C   0  0  1  0  0  0  0  0  0  0  0  0
  149.2269  132.2427  155.2415 F   0  0  0  0  0  0  0  0  0  0  0  0
  149.6252  134.5467  154.9437 C   0  0  1  0  0  0  0  0  0  0  0  0
  148.7277  134.4486  153.8568 O   0  0  0  0  0  0  0  0  0  0  0  0
  152.1123  142.1914  158.1437 C   0  0  0  0  0  0  0  0  0  0  0  0
  151.3842  143.2497  157.5537 C   0  0  0  0  0  0  0  0  0  0  0  0
  151.4204  144.5424  158.1119 C   0  0  0  0  0  0  0  0  0  0  0  0
  152.1939  144.7933  159.2606 C   0  0  0  0  0  0  0  0  0  0  0  0
  152.9345  143.7510  159.8486 C   0  0  0  0  0  0  0  0  0  0  0  0
  152.8979  142.4576  159.2917 C   0  0  0  0  0  0  0  0  0  0  0  0
  151.6105  138.0406  153.0851 H   0  0  0  0  0  0  0  0  0  0  0  0
  148.6102  136.6707  158.5761 H   0  0  0  0  0  0  0  0  0  0  0  0
  147.8693  134.9997  156.2361 H   0  0  0  0  0  0  0  0  0  0  0  0
  151.4440  134.0021  156.8416 H   0  0  0  0  0  0  0  0  0  0  0  0
  150.9970  132.3382  158.6309 H   0  0  0  0  0  0  0  0  0  0  0  0
  149.8023  131.5369  157.6126 H   0  0  0  0  0  0  0  0  0  0  0  0
  152.2731  129.8574  155.2209 H   0  0  0  0  0  0  0  0  0  0  0  0
  153.6693  128.7184  153.5351 H   0  0  0  0  0  0  0  0  0  0  0  0
  156.0965  129.2321  153.3593 H   0  0  0  0  0  0  0  0  0  0  0  0
  157.1243  130.9014  154.8901 H   0  0  0  0  0  0  0  0  0  0  0  0
  155.7590  132.0509  156.5797 H   0  0  0  0  0  0  0  0  0  0  0  0
  151.0183  132.8623  154.6999 H   0  0  0  0  0  0  0  0  0  0  0  0
  150.4438  135.2230  154.6910 H   0  0  0  0  0  0  0  0  0  0  0  0
  148.8775  135.1812  153.2788 H   0  0  0  0  0  0  0  0  0  0  0  0
  150.7873  143.0741  156.6704 H   0  0  0  0  0  0  0  0  0  0  0  0
  150.8554  145.3421  157.6567 H   0  0  0  0  0  0  0  0  0  0  0  0
  152.2223  145.7847  159.6877 H   0  0  0  0  0  0  0  0  0  0  0  0
  153.5341  143.9428  160.7261 H   0  0  0  0  0  0  0  0  0  0  0  0
  153.4818  141.6739  159.7525 H   0  0  0  0  0  0  0  0  0  0  0  0
  1  2  2  0  0  0  0
  2  3  1  0  0  0  0
  2 30  1  0  0  0  0
  3  4  1  0  0  0  0
  4  9  1  0  0  0  0
  4  5  2  0  0  0  0
  5  6  1  0  0  0  0
  6  7  2  0  0  0  0
  6 36  1  0  0  0  0
  7  8  1  0  0  0  0
  8 12  1  0  0  0  0
  8  9  2  0  0  0  0
  9 10  1  0  0  0  0
 10 11  2  0  0  0  0
 11 12  1  0  0  0  0
 11 37  1  0  0  0  0
 12 13  1  0  0  0  0
 13 28  1  0  0  0  0
 13 14  1  0  0  0  0
 13 38  1  0  0  0  0
 14 15  1  0  0  0  0
 15 16  1  0  0  0  0
 15 26  1  0  0  0  0
 15 39  1  0  0  0  0
 16 17  1  0  0  0  0
 16 40  1  0  0  0  0
 16 41  1  0  0  0  0
 17 18  1  0  0  0  0
 18 19  2  0  0  0  0
 18 20  1  0  0  0  0
 20 25  1  0  0  0  0
 20 21  2  0  0  0  0
 21 22  1  0  0  0  0
 21 42  1  0  0  0  0
 22 23  2  0  0  0  0
 22 43  1  0  0  0  0
 23 24  1  0  0  0  0
 23 44  1  0  0  0  0
 24 25  2  0  0  0  0
 24 45  1  0  0  0  0
 25 46  1  0  0  0  0
 26 27  1  0  0  0  0
 26 28  1  0  0  0  0
 26 47  1  0  0  0  0
 28 29  1  0  0  0  0
 28 48  1  0  0  0  0
 29 49  1  0  0  0  0
 30 35  1  0  0  0  0
 30 31  2  0  0  0  0
 31 32  1  0  0  0  0
 31 50  1  0  0  0  0
 32 33  2  0  0  0  0
 32 51  1  0  0  0  0
 33 34  1  0  0  0  0
 33 52  1  0  0  0  0
 34 35  2  0  0  0  0
 34 53  1  0  0  0  0
 35 54  1  0  0  0  0
M  CHG  1   3  -1
M  END
> <s_m_source_file>
AV-unprocessed.smi

> <i_m_source_file_index>
34

> <i_lp_mmshare_version>
43012

> <i_f3d_flags>
0

> <s_epik_input>
W2NIXTFbY0hdW2NIXVtjSF1bY0hdYzFDKD1PKVtOSF1jKG5bY0hdbjIpYyhjMjMpbltjSF1uM1tDQEBIXTRPW0NASF0oW0NAQEhdKEYpW0NASF00W09IXSlbQ0gyXU9DKD1PKWM1W2NIXVtjSF1bY0hdW2NIXVtjSF01

> <s_epik_cmdline>
J2VwaWtfcHl0aG9uJywgJy1waCcsICc3LjAnLCAnLXRuJywgJzgnLCAnLW1hJywgJzIwMCcsICctbWV0YWxfYmluZGluZycsICctaW1hZScsICc8aW5maWxlLm1hZT4nLCAnLW9tYWUnLCAnPG91dGZpbGUubWFlPic=

> <r_lp_tautomer_probability>
1

> <r_epik_Ionization_Penalty>
4.33227

> <r_epik_Ionization_Penalty_Charging>
3.41027

> <r_epik_Ionization_Penalty_Neutral>
0.922001

> <r_epik_State_Penalty>
3.41358

> <r_epik_Charging_Adjusted_Penalty>
6.82385

> <i_epik_Tot_Q>
-1

> <i_epik_Tot_abs_Q>
1

> <r_epik_Metal_State_Penalty>
0.496292

> <b_epik_Metal_Only>
1

> <s_epik_Chemistry_Notes>
This compound has an ester and may undergo hydrolysis at high or low pH. This compound contains an acetal/aminal-like group ( X-CH(R)-Y where X, Y are N, S, or O) that may be acid/base labile, releasing an aldehyde.

> <s_lp_Force_Field>
OPLS_2005

> <r_lp_Energy>
43.1366

> <b_lp_Chiralities_Consistent>
1

> <s_lp_Variant>
AV-unprocessed.smi:34-17

> <Gold.Version>
5.8.1

> <Gold.Id.Protein>
6NUR|6NUR_protein|mol2

> <Gold.PLP.Fitness>
64.0785

> <Gold.PLP.PLP>
-53.8694

> <Gold.PLP.part.hbond>
-4.0000

> <Gold.PLP.part.metal>
0.0000

> <Gold.PLP.part.buried>
-7.0865

> <Gold.PLP.part.nonpolar>
-43.7930

> <Gold.PLP.part.repulsive>
0.2986

> <Gold.PLP.ligand.clash>
1.7702

> <Gold.PLP.ligand.torsion>
1.1621

> <Gold.PLP.Chemscore.Hbond>
4.0000

> <Gold.PLP.Chemscore.CHOScore>
0.6779

> <Gold.PLP.Chemscore.Metal>
0.0000

> <Gold.Chemscore.Hbonds>
donor molecule, donor type, donor heavy atom, donor atom, acceptor molecule, acceptor atom, score
      L1  H    29    49       P1  7948  1.00
      P1  H  6896  6908       L1    19  0.54
      P1  H  7989  7998       L1     5  1.00
      P1  H  7997  8008       L1     1  1.00
      L1  C     6    36       P1  7949  0.67

> <Gold.PLP.Chemscore.Internal.Correction>
0.2697

> <Gold.Rescore>
     Score         DG    S(hbond)    S(metal)    S(lipo)     H(rot)  DE(clash)    DE(int)     intcor
     22.82     -25.81       3.74        0.00     126.07       2.69       0.18       2.81       ----

> <Gold.Chemscore.Fitness>
22.8177

> <Gold.Chemscore.DG>
-25.8098

> <Gold.Chemscore.ZeroCoef>
-5.4800

> <Gold.Chemscore.Hbond>
3.7358

> <Gold.Chemscore.Metal>
0.0000

> <Gold.Chemscore.Lipo>
126.0656

> <Gold.Chemscore.Internal_Hbond>
0.0000

> <Gold.Chemscore.DEClash>
0.1806

> <Gold.Chemscore.DEInternal>
2.8115

> <Gold.Chemscore.Rot>
2.6944

> <Gold.Chemscore.Internal.Correction>
   9.000000E+99

> <Gold.Chemscore.Hbonds>
donor molecule, donor type, donor heavy atom, donor atom, acceptor molecule, acceptor atom, score
      L1  H    29    49       P1  7948  0.50
      P1  H  6896  6908       L1    19  0.53
      P1  H  7989  7998       L1     5  0.88
      P1  H  7997  8008       L1     1  0.84

> <Gold.Chemscore.Hbond.Weighted>
-12.4776

> <Gold.Chemscore.Metal.Weighted>
-0.0000

> <Gold.Chemscore.Lipo.Weighted>
-14.7497

> <Gold.Chemscore.Internal_Hbond.Weighted>
0.0000

> <Gold.Chemscore.DEClash.Weighted>
0.1806

> <Gold.Chemscore.DEInternal.Weighted>
2.8115

> <Gold.Chemscore.Rot.Weighted>
6.8975

> <Gold.Chemscore.Internal.Correction.Weighted>
   9.000000E+99

> <Gold.Protein.RotatedTorsions>
[ 6907 6896 6895 6894 ] final   16.79 input  -60.11 | X-H torsion
[ 7974 7965 7964 7962 ] final   20.58 input  175.53 | X-H torsion
[ 8008 7997 7996 7995 ] final  -77.04 input   59.86 | X-H torsion
[ 10167 10162 10161 10158 ] final -136.06 input  -65.29 | X-H torsion
[ 10718 10713 10712 10709 ] final -107.37 input   66.30 | X-H torsion
[ 10763 10752 10751 10750 ] final   95.14 input  -60.55 | X-H torsion
[ 11005 11000 10999 10996 ] final  -74.44 input  -57.11 | X-H torsion

> <Gold.Protein.ActiveResidues>
 VAL166  LYS551  ARG553  GLY616  TRP617  ASP618  TYR619  PRO620  LYS621  CYS622 
 ASP623  PHE694  ASN695  SER759  ASP760  ASP761  ALA762  ILE779  LEU786  VAL792 
 PHE793  MET794  SER795  GLU796  ALA797  LYS798  CYS799  TRP800  GLU811  SER814 

> <Gold.Protein.RotatedAtoms>
  151.8395  135.0595  160.0446 H   0  0  0  0  0  0  0  0  0  0  0  0  # atno 6907 bound_to 6896
  152.2820  133.5475  159.5512 H   0  0  0  0  0  0  0  0  0  0  0  0  # atno 6908 bound_to 6896
  150.7193  134.0467  159.3826 H   0  0  0  0  0  0  0  0  0  0  0  0  # atno 6909 bound_to 6896
  146.2105  139.8149  142.8692 H   0  0  0  0  0  0  0  0  0  0  0  0  # atno 7974 bound_to 7965
  154.5559  140.0717  156.8743 H   0  0  0  0  0  0  0  0  0  0  0  0  # atno 8008 bound_to 7997
  155.2902  140.3377  155.4235 H   0  0  0  0  0  0  0  0  0  0  0  0  # atno 8009 bound_to 7997
  156.2002  140.1719  156.7901 H   0  0  0  0  0  0  0  0  0  0  0  0  # atno 8010 bound_to 7997
  139.8716  143.6951  152.2639 H   0  0  0  0  0  0  0  0  0  0  0  0  # atno 10167 bound_to 10162
  156.0433  130.5659  150.7812 H   0  0  0  0  0  0  0  0  0  0  0  0  # atno 10718 bound_to 10713
  153.2497  135.4264  155.0785 H   0  0  0  0  0  0  0  0  0  0  0  0  # atno 10763 bound_to 10752
  154.8376  135.3423  154.6530 H   0  0  0  0  0  0  0  0  0  0  0  0  # atno 10764 bound_to 10752
  153.6952  135.7031  153.5135 H   0  0  0  0  0  0  0  0  0  0  0  0  # atno 10765 bound_to 10752
  141.1635  133.6912  156.7365 H   0  0  0  0  0  0  0  0  0  0  0  0  # atno 11005 bound_to 11000
  145.3157  141.0231  143.3529 LP  0  0  0  0  0  0  0  0  0  0  0  0  # atno 17320 bound_to 7965
  144.8903  139.4783  143.6681 LP  0  0  0  0  0  0  0  0  0  0  0  0  # atno 17321 bound_to 7965
  139.7279  144.7589  151.0849 LP  0  0  0  0  0  0  0  0  0  0  0  0  # atno 17342 bound_to 10162
  140.7760  143.5125  150.9635 LP  0  0  0  0  0  0  0  0  0  0  0  0  # atno 17343 bound_to 10162
  157.5279  131.0935  150.9994 LP  0  0  0  0  0  0  0  0  0  0  0  0  # atno 17370 bound_to 10713
  157.0308  130.5710  149.5343 LP  0  0  0  0  0  0  0  0  0  0  0  0  # atno 17371 bound_to 10713
  140.2706  134.8395  157.3843 LP  0  0  0  0  0  0  0  0  0  0  0  0  # atno 17394 bound_to 11000
  140.1525  134.4832  155.7951 LP  0  0  0  0  0  0  0  0  0  0  0  0  # atno 17395 bound_to 11000

$$$$
