AV-unprocessed.smi:3345|AV-procd|sdf|12902|dock10
  -GOLD-   2272019313D 1   1.00000     0.00000
 Structure written by MMmdl.
 40 41  0  0  0  0  0  0  0  0  1 V2000
  151.4507  138.7754  156.6479 C   0  0  0  0  0  0  0  0  0  0  0  0
  150.8358  138.9711  158.0396 C   0  0  1  0  0  0  0  0  0  0  0  0
  150.3784  140.4293  158.2609 C   0  0  0  0  0  0  0  0  0  0  0  0
  151.4558  141.4148  158.3790 N   0  0  0  0  0  0  0  0  0  0  0  0
  150.9613  142.7856  158.4812 C   0  0  0  0  0  0  0  0  0  0  0  0
  152.1123  143.7989  158.6028 C   0  0  0  0  0  0  0  0  0  0  0  0
  152.9262  143.4665  159.7228 O   0  0  0  0  0  0  0  0  0  0  0  0
  153.4622  142.1499  159.6416 C   0  0  0  0  0  0  0  0  0  0  0  0
  152.3148  141.1318  159.5224 C   0  0  0  0  0  0  0  0  0  0  0  0
  149.6930  138.0750  158.1991 N   0  0  0  0  0  0  0  0  0  0  0  0
  149.5790  137.1019  159.1173 C   0  0  0  0  0  0  0  0  0  0  0  0
  150.5115  136.7283  159.8298 O   0  0  0  0  0  0  0  0  0  0  0  0
  148.1760  136.4984  159.2782 C   0  0  1  0  0  0  0  0  0  0  0  0
  148.0198  135.1388  158.5661 C   0  0  0  0  0  0  0  0  0  0  0  0
  147.8397  136.4247  160.6960 N   0  0  0  0  0  0  0  0  0  0  0  0
  148.3150  135.6183  161.6481 C   0  0  0  0  0  0  0  0  0  0  0  0
  147.7312  135.7731  162.8279 N   0  0  0  0  0  0  0  0  0  0  0  0
  146.8322  136.7510  162.5099 C   0  0  0  0  0  0  0  0  0  0  0  0
  146.8472  137.1692  161.2446 N   0  0  0  0  0  0  0  0  0  0  0  0
  152.3126  139.4282  156.5064 H   0  0  0  0  0  0  0  0  0  0  0  0
  150.7317  138.9981  155.8586 H   0  0  0  0  0  0  0  0  0  0  0  0
  151.7898  137.7482  156.5100 H   0  0  0  0  0  0  0  0  0  0  0  0
  151.6123  138.7330  158.7676 H   0  0  0  0  0  0  0  0  0  0  0  0
  149.6985  140.7229  157.4598 H   0  0  0  0  0  0  0  0  0  0  0  0
  149.7851  140.4539  159.1764 H   0  0  0  0  0  0  0  0  0  0  0  0
  150.3655  143.0414  157.6062 H   0  0  0  0  0  0  0  0  0  0  0  0
  150.3034  142.8786  159.3465 H   0  0  0  0  0  0  0  0  0  0  0  0
  152.7161  143.8069  157.6944 H   0  0  0  0  0  0  0  0  0  0  0  0
  151.7183  144.8069  158.7340 H   0  0  0  0  0  0  0  0  0  0  0  0
  154.1351  142.0765  158.7863 H   0  0  0  0  0  0  0  0  0  0  0  0
  154.0557  141.9499  160.5337 H   0  0  0  0  0  0  0  0  0  0  0  0
  151.7251  141.1427  160.4403 H   0  0  0  0  0  0  0  0  0  0  0  0
  152.7334  140.1288  159.4319 H   0  0  0  0  0  0  0  0  0  0  0  0
  148.8736  138.2976  157.6532 H   0  0  0  0  0  0  0  0  0  0  0  0
  147.4690  137.1897  158.8163 H   0  0  0  0  0  0  0  0  0  0  0  0
  148.2167  135.2310  157.4975 H   0  0  0  0  0  0  0  0  0  0  0  0
  147.0051  134.7562  158.6786 H   0  0  0  0  0  0  0  0  0  0  0  0
  148.7018  134.3858  158.9634 H   0  0  0  0  0  0  0  0  0  0  0  0
  149.0977  134.8952  161.4714 H   0  0  0  0  0  0  0  0  0  0  0  0
  146.1392  137.1601  163.2302 H   0  0  0  0  0  0  0  0  0  0  0  0
  1  2  1  0  0  0  0
  1 20  1  0  0  0  0
  1 21  1  0  0  0  0
  1 22  1  0  0  0  0
  2  3  1  0  0  0  0
  2 10  1  0  0  0  0
  2 23  1  0  0  0  0
  3  4  1  0  0  0  0
  3 24  1  0  0  0  0
  3 25  1  0  0  0  0
  4  9  1  0  0  0  0
  4  5  1  0  0  0  0
  5  6  1  0  0  0  0
  5 26  1  0  0  0  0
  5 27  1  0  0  0  0
  6  7  1  0  0  0  0
  6 28  1  0  0  0  0
  6 29  1  0  0  0  0
  7  8  1  0  0  0  0
  8  9  1  0  0  0  0
  8 30  1  0  0  0  0
  8 31  1  0  0  0  0
  9 32  1  0  0  0  0
  9 33  1  0  0  0  0
 10 11  1  0  0  0  0
 10 34  1  0  0  0  0
 11 12  2  0  0  0  0
 11 13  1  0  0  0  0
 13 14  1  0  0  0  0
 13 15  1  0  0  0  0
 13 35  1  0  0  0  0
 14 36  1  0  0  0  0
 14 37  1  0  0  0  0
 14 38  1  0  0  0  0
 15 19  1  0  0  0  0
 15 16  1  0  0  0  0
 16 17  2  0  0  0  0
 16 39  1  0  0  0  0
 17 18  1  0  0  0  0
 18 19  2  0  0  0  0
 18 40  1  0  0  0  0
M  END
> <s_m_source_file>
AV-unprocessed.smi

> <i_m_source_file_index>
3345

> <i_lp_mmshare_version>
43012

> <i_f3d_flags>
0

> <s_epik_input>
W0NIMl0xW0NIMl1PW0NIMl1bQ0gyXU4xW0NIMl1bQ0BASF0oW0NIM10pW05IXUMoPU8pW0NASF0oW0NIM10pbjJbY0hdbltjSF1uMg==

> <s_epik_cmdline>
J2VwaWtfcHl0aG9uJywgJy1waCcsICc3LjAnLCAnLXRuJywgJzgnLCAnLW1hJywgJzIwMCcsICctbWV0YWxfYmluZGluZycsICctaW1hZScsICc8aW5maWxlLm1hZT4nLCAnLW9tYWUnLCAnPG91dGZpbGUubWFlPic=

> <r_lp_tautomer_probability>
1

> <r_epik_Ionization_Penalty>
0.211373

> <r_epik_Ionization_Penalty_Charging>
0

> <r_epik_Ionization_Penalty_Neutral>
0.211373

> <r_epik_State_Penalty>
0.201459

> <r_epik_Charging_Adjusted_Penalty>
0.201459

> <i_epik_Tot_Q>
0

> <i_epik_Tot_abs_Q>
0

> <r_epik_Metal_State_Penalty>
0.201458

> <b_epik_Metal_Only>
0

> <s_lp_Force_Field>
OPLS_2005

> <r_lp_Energy>
29.1888

> <b_lp_Chiralities_Consistent>
1

> <s_lp_Variant>
AV-unprocessed.smi:3345-4

> <Gold.Version>
5.8.1

> <Gold.Id.Protein>
6NUR|6NUR_protein|mol2

> <Gold.PLP.Fitness>
35.9027

> <Gold.PLP.PLP>
-30.9506

> <Gold.PLP.part.hbond>
-2.6831

> <Gold.PLP.part.metal>
0.0000

> <Gold.PLP.part.buried>
-5.1543

> <Gold.PLP.part.nonpolar>
-23.8844

> <Gold.PLP.part.repulsive>
0.1157

> <Gold.PLP.ligand.clash>
0.0000

> <Gold.PLP.ligand.torsion>
0.6068

> <Gold.PLP.Chemscore.Hbond>
2.0000

> <Gold.PLP.Chemscore.CHOScore>
0.0000

> <Gold.PLP.Chemscore.Metal>
0.0000

> <Gold.Chemscore.Hbonds>
donor molecule, donor type, donor heavy atom, donor atom, acceptor molecule, acceptor atom, score
      P1  H  6896  6908       L1    12  1.00
      P1  H  6934  6947       L1    19  1.00

> <Gold.PLP.Chemscore.Internal.Correction>
0.1657

> <Gold.Rescore>
     Score         DG    S(hbond)    S(metal)    S(lipo)     H(rot)  DE(clash)    DE(int)     intcor
     11.69     -12.81       1.97        0.00      61.89       2.54       0.03       1.09       ----

> <Gold.Chemscore.Fitness>
11.6881

> <Gold.Chemscore.DG>
-12.8146

> <Gold.Chemscore.ZeroCoef>
-5.4800

> <Gold.Chemscore.Hbond>
1.9711

> <Gold.Chemscore.Metal>
0.0000

> <Gold.Chemscore.Lipo>
61.8934

> <Gold.Chemscore.Internal_Hbond>
0.0000

> <Gold.Chemscore.DEClash>
0.0315

> <Gold.Chemscore.DEInternal>
1.0950

> <Gold.Chemscore.Rot>
2.5353

> <Gold.Chemscore.Internal.Correction>
   9.000000E+99

> <Gold.Chemscore.Hbonds>
donor molecule, donor type, donor heavy atom, donor atom, acceptor molecule, acceptor atom, score
      P1  H  6896  6908       L1    12  1.00
      P1  H  6934  6947       L1    19  0.70

> <Gold.Chemscore.Hbond.Weighted>
-6.5835

> <Gold.Chemscore.Metal.Weighted>
-0.0000

> <Gold.Chemscore.Lipo.Weighted>
-7.2415

> <Gold.Chemscore.Internal_Hbond.Weighted>
0.0000

> <Gold.Chemscore.DEClash.Weighted>
0.0315

> <Gold.Chemscore.DEInternal.Weighted>
1.0950

> <Gold.Chemscore.Rot.Weighted>
6.4905

> <Gold.Chemscore.Internal.Correction.Weighted>
   9.000000E+99

> <Gold.Protein.RotatedTorsions>
[ 6907 6896 6895 6894 ] final -144.79 input  -60.11 | X-H torsion
[ 7974 7965 7964 7962 ] final   11.08 input  175.53 | X-H torsion
[ 8008 7997 7996 7995 ] final -164.13 input   59.86 | X-H torsion
[ 10167 10162 10161 10158 ] final  -77.28 input  -65.29 | X-H torsion
[ 10718 10713 10712 10709 ] final  109.78 input   66.30 | X-H torsion
[ 10763 10752 10751 10750 ] final -105.28 input  -60.55 | X-H torsion
[ 11005 11000 10999 10996 ] final  -37.43 input  -57.11 | X-H torsion

> <Gold.Protein.ActiveResidues>
 VAL166  LYS551  ARG553  GLY616  TRP617  ASP618  TYR619  PRO620  LYS621  CYS622 
 ASP623  PHE694  ASN695  SER759  ASP760  ASP761  ALA762  ILE779  LEU786  VAL792 
 PHE793  MET794  SER795  GLU796  ALA797  LYS798  CYS799  TRP800  GLU811  SER814 

> <Gold.Protein.RotatedAtoms>
  151.1189  133.5118  159.2602 H   0  0  0  0  0  0  0  0  0  0  0  0  # atno 6907 bound_to 6896
  151.1884  135.0391  159.8832 H   0  0  0  0  0  0  0  0  0  0  0  0  # atno 6908 bound_to 6896
  152.5454  134.1032  159.8380 H   0  0  0  0  0  0  0  0  0  0  0  0  # atno 6909 bound_to 6896
  146.2377  139.9539  142.8467 H   0  0  0  0  0  0  0  0  0  0  0  0  # atno 7974 bound_to 7965
  155.8312  140.0934  157.1791 H   0  0  0  0  0  0  0  0  0  0  0  0  # atno 8008 bound_to 7997
  154.3980  140.1418  156.3676 H   0  0  0  0  0  0  0  0  0  0  0  0  # atno 8009 bound_to 7997
  155.8164  140.3448  155.5490 H   0  0  0  0  0  0  0  0  0  0  0  0  # atno 8010 bound_to 7997
  140.4784  143.2408  151.8096 H   0  0  0  0  0  0  0  0  0  0  0  0  # atno 10167 bound_to 10162
  157.6525  131.0920  150.6505 H   0  0  0  0  0  0  0  0  0  0  0  0  # atno 10718 bound_to 10713
  154.7936  135.4755  154.0109 H   0  0  0  0  0  0  0  0  0  0  0  0  # atno 10763 bound_to 10752
  153.1669  135.6818  153.8670 H   0  0  0  0  0  0  0  0  0  0  0  0  # atno 10764 bound_to 10752
  153.8265  135.3197  155.3393 H   0  0  0  0  0  0  0  0  0  0  0  0  # atno 10765 bound_to 10752
  140.9951  133.6984  156.1920 H   0  0  0  0  0  0  0  0  0  0  0  0  # atno 11005 bound_to 11000
  145.1835  140.9778  143.4252 LP  0  0  0  0  0  0  0  0  0  0  0  0  # atno 17320 bound_to 7965
  144.9921  139.3680  143.6210 LP  0  0  0  0  0  0  0  0  0  0  0  0  # atno 17321 bound_to 7965
  139.4829  144.4804  151.9314 LP  0  0  0  0  0  0  0  0  0  0  0  0  # atno 17342 bound_to 10162
  140.3889  144.2641  150.5901 LP  0  0  0  0  0  0  0  0  0  0  0  0  # atno 17343 bound_to 10162
  156.6815  130.4568  149.5626 LP  0  0  0  0  0  0  0  0  0  0  0  0  # atno 17370 bound_to 10713
  156.1926  130.6569  151.1078 LP  0  0  0  0  0  0  0  0  0  0  0  0  # atno 17371 bound_to 10713
  140.6979  134.4596  157.5587 LP  0  0  0  0  0  0  0  0  0  0  0  0  # atno 17394 bound_to 11000
  139.9011  134.8555  156.1894 LP  0  0  0  0  0  0  0  0  0  0  0  0  # atno 17395 bound_to 11000

$$$$
