AV-unprocessed.smi:67|AV-procd|sdf|629|dock7
  -GOLD-   2262016523D 1   1.00000     0.00000
 Structure written by MMmdl.
 49 51  0  0  0  0  0  0  0  0  3 V2000
  147.8370  138.8213  152.8491 O   0  0  0  0  0  0  0  0  0  0  0  0
  147.7854  139.2327  154.2049 C   0  0  1  0  0  0  0  0  0  0  0  0
  148.5465  138.1940  155.0598 C   0  0  0  0  0  0  0  0  0  0  0  0
  149.6885  138.7998  155.7971 N   0  3  2  0  0  0  0  0  0  0  0  0
  150.9921  138.6007  155.1109 C   0  0  0  0  0  0  0  0  0  0  0  0
  152.1078  139.4157  155.7862 C   0  0  0  0  0  0  0  0  0  0  0  0
  152.1809  139.0960  157.2933 C   0  0  1  0  0  0  0  0  0  0  0  0
  153.2579  139.7278  157.9894 O   0  0  0  0  0  0  0  0  0  0  0  0
  153.0746  140.6667  158.9871 C   0  0  0  0  0  0  0  0  0  0  0  0
  153.4649  140.5297  160.3429 C   0  0  0  0  0  0  0  0  0  0  0  0
  153.2251  141.5668  161.2642 C   0  0  0  0  0  0  0  0  0  0  0  0
  152.5906  142.7517  160.8504 C   0  0  0  0  0  0  0  0  0  0  0  0
  152.1869  142.9044  159.5081 C   0  0  0  0  0  0  0  0  0  0  0  0
  151.5064  144.1838  159.0442 C   0  0  0  0  0  0  0  0  0  0  0  0
  152.1650  144.6747  157.9952 F   0  0  0  0  0  0  0  0  0  0  0  0
  150.2452  143.9416  158.6847 F   0  0  0  0  0  0  0  0  0  0  0  0
  151.4945  145.1020  160.0112 F   0  0  0  0  0  0  0  0  0  0  0  0
  152.4390  141.8622  158.5904 C   0  0  0  0  0  0  0  0  0  0  0  0
  150.8091  139.1951  157.9921 C   0  0  0  0  0  0  0  0  0  0  0  0
  149.7512  138.3858  157.2241 C   0  0  0  0  0  0  0  0  0  0  0  0
  148.2917  140.6736  154.3291 C   0  0  0  0  0  0  0  0  0  0  0  0
  147.0961  141.5244  153.8964 C   0  0  0  0  0  0  0  0  0  0  0  0
  145.8924  140.7451  154.2436 N   0  3  0  0  0  0  0  0  0  0  0  0
  146.3057  139.3723  154.6021 C   0  0  0  0  0  0  0  0  0  0  0  0
  148.5445  139.2757  152.4162 H   0  0  0  0  0  0  0  0  0  0  0  0
  147.8673  137.7018  155.7584 H   0  0  0  0  0  0  0  0  0  0  0  0
  148.9031  137.4007  154.4003 H   0  0  0  0  0  0  0  0  0  0  0  0
  151.2454  137.5394  155.1110 H   0  0  0  0  0  0  0  0  0  0  0  0
  150.9114  138.9089  154.0675 H   0  0  0  0  0  0  0  0  0  0  0  0
  153.0643  139.1839  155.3165 H   0  0  0  0  0  0  0  0  0  0  0  0
  151.9319  140.4712  155.5958 H   0  0  0  0  0  0  0  0  0  0  0  0
  152.4520  138.0406  157.3475 H   0  0  0  0  0  0  0  0  0  0  0  0
  153.9526  139.6473  160.7179 H   0  0  0  0  0  0  0  0  0  0  0  0
  153.5309  141.4534  162.2939 H   0  0  0  0  0  0  0  0  0  0  0  0
  152.4183  143.5405  161.5677 H   0  0  0  0  0  0  0  0  0  0  0  0
  152.1414  141.9796  157.5585 H   0  0  0  0  0  0  0  0  0  0  0  0
  150.8898  138.8158  159.0114 H   0  0  0  0  0  0  0  0  0  0  0  0
  150.4634  140.2214  158.0836 H   0  0  0  0  0  0  0  0  0  0  0  0
  148.7809  138.5252  157.6997 H   0  0  0  0  0  0  0  0  0  0  0  0
  149.9787  137.3201  157.2832 H   0  0  0  0  0  0  0  0  0  0  0  0
  148.5231  140.8966  155.3717 H   0  0  0  0  0  0  0  0  0  0  0  0
  149.1884  140.8722  153.7405 H   0  0  0  0  0  0  0  0  0  0  0  0
  147.0881  142.5069  154.3691 H   0  0  0  0  0  0  0  0  0  0  0  0
  147.1103  141.6710  152.8156 H   0  0  0  0  0  0  0  0  0  0  0  0
  145.4176  141.1694  155.0281 H   0  0  0  0  0  0  0  0  0  0  0  0
  145.6613  138.6233  154.1393 H   0  0  0  0  0  0  0  0  0  0  0  0
  146.1947  139.2735  155.6829 H   0  0  0  0  0  0  0  0  0  0  0  0
  145.2722  140.7229  153.4462 H   0  0  0  0  0  0  0  0  0  0  0  0
  149.5216  139.7965  155.7890 H   0  0  0  0  0  0  0  0  0  0  0  0
  1  2  1  0  0  0  0
  1 25  1  0  0  0  0
  2 24  1  0  0  0  0
  2  3  1  0  0  0  0
  2 21  1  0  0  0  0
  3  4  1  0  0  0  0
  3 26  1  0  0  0  0
  3 27  1  0  0  0  0
  4 20  1  0  0  0  0
  4  5  1  0  0  0  0
  4 49  1  0  0  0  0
  5  6  1  0  0  0  0
  5 28  1  0  0  0  0
  5 29  1  0  0  0  0
  6  7  1  0  0  0  0
  6 30  1  0  0  0  0
  6 31  1  0  0  0  0
  7  8  1  0  0  0  0
  7 19  1  0  0  0  0
  7 32  1  0  0  0  0
  8  9  1  0  0  0  0
  9 18  1  0  0  0  0
  9 10  2  0  0  0  0
 10 11  1  0  0  0  0
 10 33  1  0  0  0  0
 11 12  2  0  0  0  0
 11 34  1  0  0  0  0
 12 13  1  0  0  0  0
 12 35  1  0  0  0  0
 13 14  1  0  0  0  0
 13 18  2  0  0  0  0
 14 15  1  0  0  0  0
 14 16  1  0  0  0  0
 14 17  1  0  0  0  0
 18 36  1  0  0  0  0
 19 20  1  0  0  0  0
 19 37  1  0  0  0  0
 19 38  1  0  0  0  0
 20 39  1  0  0  0  0
 20 40  1  0  0  0  0
 21 22  1  0  0  0  0
 21 41  1  0  0  0  0
 21 42  1  0  0  0  0
 22 23  1  0  0  0  0
 22 43  1  0  0  0  0
 22 44  1  0  0  0  0
 23 24  1  0  0  0  0
 23 45  1  0  0  0  0
 23 48  1  0  0  0  0
 24 46  1  0  0  0  0
 24 47  1  0  0  0  0
M  CHG  1   4   1
M  CHG  1  23   1
M  END
> <s_m_source_file>
AV-unprocessed.smi

> <i_m_source_file_index>
67

> <i_lp_mmshare_version>
43012

> <i_f3d_flags>
0

> <s_epik_input>
W0NIMl0xW05IXVtDSDJdW0NIMl1bQ0BAXTEoW09IXSlbQ0gyXU4yW0NIMl1bQ0gyXVtDSF0oW0NIMl1bQ0gyXTIpT2MzW2NIXVtjSF1bY0hdYyhDKEYpKEYpRilbY0hdMw==

> <s_epik_cmdline>
J2VwaWtfcHl0aG9uJywgJy1waCcsICc3LjAnLCAnLXRuJywgJzgnLCAnLW1hJywgJzIwMCcsICctbWV0YWxfYmluZGluZycsICctaW1hZScsICc8aW5maWxlLm1hZT4nLCAnLW9tYWUnLCAnPG91dGZpbGUubWFlPic=

> <r_lp_tautomer_probability>
1

> <r_epik_Ionization_Penalty>
0.0989853

> <r_epik_Ionization_Penalty_Charging>
0.0989662

> <r_epik_Ionization_Penalty_Neutral>
1.91014e-05

> <r_epik_State_Penalty>
0.0852826

> <r_epik_Charging_Adjusted_Penalty>
0.184249

> <i_epik_Tot_Q>
2

> <i_epik_Tot_abs_Q>
2

> <r_epik_Metal_State_Penalty>
0.0849414

> <b_epik_Metal_Only>
0

> <s_lp_Force_Field>
OPLS_2005

> <r_lp_Energy>
60.8706

> <b_lp_Chiralities_Consistent>
1

> <s_lp_Variant>
AV-unprocessed.smi:67-1

> <Gold.Version>
5.8.1

> <Gold.Id.Protein>
6NUR|6NUR_protein|mol2

> <Gold.PLP.Fitness>
61.3306

> <Gold.PLP.PLP>
-53.9409

> <Gold.PLP.part.hbond>
-3.8304

> <Gold.PLP.part.metal>
0.0000

> <Gold.PLP.part.buried>
-6.9300

> <Gold.PLP.part.nonpolar>
-43.6834

> <Gold.PLP.part.repulsive>
0.0236

> <Gold.PLP.ligand.clash>
0.8790

> <Gold.PLP.ligand.torsion>
2.5214

> <Gold.PLP.Chemscore.Hbond>
3.9840

> <Gold.PLP.Chemscore.CHOScore>
0.0000

> <Gold.PLP.Chemscore.Metal>
0.0000

> <Gold.Chemscore.Hbonds>
donor molecule, donor type, donor heavy atom, donor atom, acceptor molecule, acceptor atom, score
      L1  H     1    25       P1  7957  1.00
      L1  H    23    48       P1 10175  2.00
      P1  H  7997  8010       L1     8  1.00

> <Gold.PLP.Chemscore.Internal.Correction>
1.3594

> <Gold.Rescore>
     Score         DG    S(hbond)    S(metal)    S(lipo)     H(rot)  DE(clash)    DE(int)     intcor
     20.39     -22.88       2.77        0.00     118.54       2.24       0.00       2.48       ----

> <Gold.Chemscore.Fitness>
20.3946

> <Gold.Chemscore.DG>
-22.8766

> <Gold.Chemscore.ZeroCoef>
-5.4800

> <Gold.Chemscore.Hbond>
2.7694

> <Gold.Chemscore.Metal>
0.0000

> <Gold.Chemscore.Lipo>
118.5382

> <Gold.Chemscore.Internal_Hbond>
0.0000

> <Gold.Chemscore.DEClash>
0.0039

> <Gold.Chemscore.DEInternal>
2.4781

> <Gold.Chemscore.Rot>
2.2352

> <Gold.Chemscore.Internal.Correction>
   9.000000E+99

> <Gold.Chemscore.Hbonds>
donor molecule, donor type, donor heavy atom, donor atom, acceptor molecule, acceptor atom, score
      L1  H     1    25       P1  7957  1.00
      L1  H    23    48       P1 10175  0.88
      P1  H  7997  8010       L1     8  0.73

> <Gold.Chemscore.Hbond.Weighted>
-9.2498

> <Gold.Chemscore.Metal.Weighted>
-0.0000

> <Gold.Chemscore.Lipo.Weighted>
-13.8690

> <Gold.Chemscore.Internal_Hbond.Weighted>
0.0000

> <Gold.Chemscore.DEClash.Weighted>
0.0039

> <Gold.Chemscore.DEInternal.Weighted>
2.4781

> <Gold.Chemscore.Rot.Weighted>
5.7221

> <Gold.Chemscore.Internal.Correction.Weighted>
   9.000000E+99

> <Gold.Protein.RotatedTorsions>
[ 6907 6896 6895 6894 ] final  -20.55 input  -60.11 | X-H torsion
[ 7974 7965 7964 7962 ] final  -64.74 input  175.53 | X-H torsion
[ 8008 7997 7996 7995 ] final   24.64 input   59.86 | X-H torsion
[ 10167 10162 10161 10158 ] final   78.07 input  -65.29 | X-H torsion
[ 10718 10713 10712 10709 ] final  146.94 input   66.30 | X-H torsion
[ 10763 10752 10751 10750 ] final  152.04 input  -60.55 | X-H torsion
[ 11005 11000 10999 10996 ] final -104.51 input  -57.11 | X-H torsion

> <Gold.Protein.ActiveResidues>
 VAL166  LYS551  ARG553  GLY616  TRP617  ASP618  TYR619  PRO620  LYS621  CYS622 
 ASP623  PHE694  ASN695  SER759  ASP760  ASP761  ALA762  ILE779  LEU786  VAL792 
 PHE793  MET794  SER795  GLU796  ALA797  LYS798  CYS799  TRP800  GLU811  SER814 

> <Gold.Protein.RotatedAtoms>
  151.2465  135.0607  159.9044 H   0  0  0  0  0  0  0  0  0  0  0  0  # atno 6907 bound_to 6896
  152.5386  134.0378  159.8064 H   0  0  0  0  0  0  0  0  0  0  0  0  # atno 6908 bound_to 6896
  151.0580  133.5519  159.2668 H   0  0  0  0  0  0  0  0  0  0  0  0  # atno 6909 bound_to 6896
  145.7630  140.8852  143.0420 H   0  0  0  0  0  0  0  0  0  0  0  0  # atno 7974 bound_to 7965
  154.9994  140.3123  155.4873 H   0  0  0  0  0  0  0  0  0  0  0  0  # atno 8008 bound_to 7997
  156.2927  140.2234  156.5044 H   0  0  0  0  0  0  0  0  0  0  0  0  # atno 8009 bound_to 7997
  154.7632  140.0457  157.0979 H   0  0  0  0  0  0  0  0  0  0  0  0  # atno 8010 bound_to 7997
  139.9749  144.5868  150.7952 H   0  0  0  0  0  0  0  0  0  0  0  0  # atno 10167 bound_to 10162
  157.3271  131.0914  151.1193 H   0  0  0  0  0  0  0  0  0  0  0  0  # atno 10718 bound_to 10713
  154.1136  135.2837  155.3225 H   0  0  0  0  0  0  0  0  0  0  0  0  # atno 10763 bound_to 10752
  154.6472  135.5381  153.7862 H   0  0  0  0  0  0  0  0  0  0  0  0  # atno 10764 bound_to 10752
  153.0337  135.6501  154.1294 H   0  0  0  0  0  0  0  0  0  0  0  0  # atno 10765 bound_to 10752
  141.1097  133.8729  157.1620 H   0  0  0  0  0  0  0  0  0  0  0  0  # atno 11005 bound_to 11000
  144.6827  139.9749  143.7482 LP  0  0  0  0  0  0  0  0  0  0  0  0  # atno 17320 bound_to 7965
  146.0245  139.3280  143.0792 LP  0  0  0  0  0  0  0  0  0  0  0  0  # atno 17321 bound_to 7965
  140.7509  143.2964  151.3194 LP  0  0  0  0  0  0  0  0  0  0  0  0  # atno 17342 bound_to 10162
  139.6453  144.0462  152.2586 LP  0  0  0  0  0  0  0  0  0  0  0  0  # atno 17343 bound_to 10162
  157.2456  130.6589  149.5908 LP  0  0  0  0  0  0  0  0  0  0  0  0  # atno 17370 bound_to 10713
  155.9692  130.4555  150.5888 LP  0  0  0  0  0  0  0  0  0  0  0  0  # atno 17371 bound_to 10713
  139.9984  135.0037  157.0136 LP  0  0  0  0  0  0  0  0  0  0  0  0  # atno 17394 bound_to 11000
  140.4808  134.1291  155.7216 LP  0  0  0  0  0  0  0  0  0  0  0  0  # atno 17395 bound_to 11000

$$$$
