AV-unprocessed.smi:598|AV-procd|sdf|3025|dock4
  -GOLD-   2262023533D 1   1.00000     0.00000
 Structure written by MMmdl.
 43 44  0  0  0  0  0  0  0  0  3 V2000
  152.4416  143.6732  161.6669 C   0  0  0  0  0  0  0  0  0  0  0  0
  152.7050  143.9599  160.1742 C   0  0  2  0  0  0  0  0  0  0  0  0
  151.9746  145.2342  159.7035 C   0  0  0  0  0  0  0  0  0  0  0  0
  150.4584  145.0202  159.5750 C   0  0  0  0  0  0  0  0  0  0  0  0
  150.1424  143.8439  158.6412 C   0  0  0  0  0  0  0  0  0  0  0  0
  150.8530  142.5484  159.0850 C   0  0  1  0  0  0  0  0  0  0  0  0
  150.5832  141.4869  158.1170 N   0  0  0  0  0  0  0  0  0  0  0  0
  149.3705  141.0016  157.8114 C   0  0  0  0  0  0  0  0  0  0  0  0
  148.3271  141.4263  158.3094 O   0  0  0  0  0  0  0  0  0  0  0  0
  149.3415  139.8774  156.7664 C   0  0  0  0  0  0  0  0  0  0  0  0
  150.6511  139.2319  156.5738 N   0  0  0  0  0  0  0  0  0  0  0  0
  151.2116  138.5741  157.6867 C   0  0  0  0  0  0  0  0  0  0  0  0
  152.4078  137.9565  157.6256 C   0  0  0  0  0  0  0  0  0  0  0  0
  152.9709  137.2911  158.7799 N   0  3  0  0  0  0  0  0  0  0  0  0
  154.1467  136.9425  158.7428 O   0  0  0  0  0  0  0  0  0  0  0  0
  152.2586  137.0940  159.7600 O   0  5  0  0  0  0  0  0  0  0  0  0
  153.1175  137.9849  156.3613 C   0  0  0  0  0  0  0  0  0  0  0  0
  152.5880  138.6151  155.2942 C   0  0  0  0  0  0  0  0  0  0  0  0
  151.2876  139.2896  155.3639 C   0  0  0  0  0  0  0  0  0  0  0  0
  150.8006  139.8711  154.3942 O   0  0  0  0  0  0  0  0  0  0  0  0
  152.3810  142.7700  159.2310 C   0  0  2  0  0  0  0  0  0  0  0  0
  153.1401  141.4865  159.6229 C   0  0  0  0  0  0  0  0  0  0  0  0
  151.4037  143.4027  161.8583 H   0  0  0  0  0  0  0  0  0  0  0  0
  152.6687  144.5487  162.2758 H   0  0  0  0  0  0  0  0  0  0  0  0
  153.0680  142.8615  162.0362 H   0  0  0  0  0  0  0  0  0  0  0  0
  153.7737  144.1615  160.0875 H   0  0  0  0  0  0  0  0  0  0  0  0
  152.1780  146.0611  160.3847 H   0  0  0  0  0  0  0  0  0  0  0  0
  152.3726  145.5383  158.7345 H   0  0  0  0  0  0  0  0  0  0  0  0
  150.0209  144.8388  160.5571 H   0  0  0  0  0  0  0  0  0  0  0  0
  149.9890  145.9281  159.1956 H   0  0  0  0  0  0  0  0  0  0  0  0
  149.0636  143.6883  158.6057 H   0  0  0  0  0  0  0  0  0  0  0  0
  150.4490  144.1017  157.6264 H   0  0  0  0  0  0  0  0  0  0  0  0
  150.4569  142.2458  160.0558 H   0  0  0  0  0  0  0  0  0  0  0  0
  151.3843  141.0832  157.6537 H   0  0  0  0  0  0  0  0  0  0  0  0
  148.5951  139.1455  157.0777 H   0  0  0  0  0  0  0  0  0  0  0  0
  148.9742  140.2719  155.8169 H   0  0  0  0  0  0  0  0  0  0  0  0
  150.6090  138.6161  158.5825 H   0  0  0  0  0  0  0  0  0  0  0  0
  154.0785  137.5019  156.2610 H   0  0  0  0  0  0  0  0  0  0  0  0
  153.1346  138.6246  154.3625 H   0  0  0  0  0  0  0  0  0  0  0  0
  152.7561  143.0524  158.2456 H   0  0  0  0  0  0  0  0  0  0  0  0
  152.7469  141.0524  160.5426 H   0  0  0  0  0  0  0  0  0  0  0  0
  154.2006  141.6885  159.7740 H   0  0  0  0  0  0  0  0  0  0  0  0
  153.0666  140.7250  158.8464 H   0  0  0  0  0  0  0  0  0  0  0  0
  1  2  1  0  0  0  0
  1 23  1  0  0  0  0
  1 24  1  0  0  0  0
  1 25  1  0  0  0  0
  2 21  1  0  0  0  0
  2  3  1  0  0  0  0
  2 26  1  0  0  0  0
  3  4  1  0  0  0  0
  3 27  1  0  0  0  0
  3 28  1  0  0  0  0
  4  5  1  0  0  0  0
  4 29  1  0  0  0  0
  4 30  1  0  0  0  0
  5  6  1  0  0  0  0
  5 31  1  0  0  0  0
  5 32  1  0  0  0  0
  6  7  1  0  0  0  0
  6 21  1  0  0  0  0
  6 33  1  0  0  0  0
  7  8  1  0  0  0  0
  7 34  1  0  0  0  0
  8  9  2  0  0  0  0
  8 10  1  0  0  0  0
 10 11  1  0  0  0  0
 10 35  1  0  0  0  0
 10 36  1  0  0  0  0
 11 19  1  0  0  0  0
 11 12  1  0  0  0  0
 12 13  2  0  0  0  0
 12 37  1  0  0  0  0
 13 14  1  0  0  0  0
 13 17  1  0  0  0  0
 14 15  2  0  0  0  0
 14 16  1  0  0  0  0
 17 18  2  0  0  0  0
 17 38  1  0  0  0  0
 18 19  1  0  0  0  0
 18 39  1  0  0  0  0
 19 20  2  0  0  0  0
 21 22  1  0  0  0  0
 21 40  1  0  0  0  0
 22 41  1  0  0  0  0
 22 42  1  0  0  0  0
 22 43  1  0  0  0  0
M  CHG  1  14   1
M  CHG  1  16  -1
M  END
> <s_m_source_file>
AV-unprocessed.smi

> <i_m_source_file_index>
598

> <i_lp_mmshare_version>
43012

> <i_f3d_flags>
0

> <s_epik_input>
W0NIM11bQ0BASF0xW0NIMl1bQ0gyXVtDSDJdW0NASF0oW0NASF0xW0NIM10pW05IXUMoPU8pW0NIMl1uMltjSF1jKFtOK10oPU8pW08tXSlbY0hdW2NIXWMyPU8=

> <s_epik_cmdline>
J2VwaWtfcHl0aG9uJywgJy1waCcsICc3LjAnLCAnLXRuJywgJzgnLCAnLW1hJywgJzIwMCcsICctbWV0YWxfYmluZGluZycsICctaW1hZScsICc8aW5maWxlLm1hZT4nLCAnLW9tYWUnLCAnPG91dGZpbGUubWFlPic=

> <r_lp_tautomer_probability>
1

> <r_epik_Ionization_Penalty>
1.91291e-08

> <r_epik_Ionization_Penalty_Charging>
8.21931e-11

> <r_epik_Ionization_Penalty_Neutral>
1.90469e-08

> <r_epik_State_Penalty>
-0

> <r_epik_Charging_Adjusted_Penalty>
8.21931e-11

> <i_epik_Tot_Q>
0

> <i_epik_Tot_abs_Q>
2

> <r_epik_Metal_State_Penalty>
-0

> <b_epik_Metal_Only>
0

> <s_lp_Force_Field>
OPLS_2005

> <r_lp_Energy>
25.21

> <b_lp_Chiralities_Consistent>
1

> <s_lp_Variant>
AV-unprocessed.smi:598-5

> <Gold.Version>
5.8.1

> <Gold.Id.Protein>
6NUR|6NUR_protein|mol2

> <Gold.PLP.Fitness>
44.3060

> <Gold.PLP.PLP>
-38.9395

> <Gold.PLP.part.hbond>
-2.6342

> <Gold.PLP.part.metal>
0.0000

> <Gold.PLP.part.buried>
-6.9706

> <Gold.PLP.part.nonpolar>
-31.0013

> <Gold.PLP.part.repulsive>
0.2745

> <Gold.PLP.ligand.clash>
0.0000

> <Gold.PLP.ligand.torsion>
0.3084

> <Gold.PLP.Chemscore.Hbond>
1.9913

> <Gold.PLP.Chemscore.CHOScore>
0.0000

> <Gold.PLP.Chemscore.Metal>
0.0000

> <Gold.Chemscore.Hbonds>
donor molecule, donor type, donor heavy atom, donor atom, acceptor molecule, acceptor atom, score
      P1  H  6896  6908       L1    16  1.00
      P1  H  7989  7998       L1    20  1.00

> <Gold.PLP.Chemscore.Internal.Correction>
0.0096

> <Gold.Rescore>
     Score         DG    S(hbond)    S(metal)    S(lipo)     H(rot)  DE(clash)    DE(int)     intcor
     20.22     -20.79       1.99        0.00     107.83       1.54       0.02       0.56       ----

> <Gold.Chemscore.Fitness>
20.2183

> <Gold.Chemscore.DG>
-20.7909

> <Gold.Chemscore.ZeroCoef>
-5.4800

> <Gold.Chemscore.Hbond>
1.9868

> <Gold.Chemscore.Metal>
0.0000

> <Gold.Chemscore.Lipo>
107.8272

> <Gold.Chemscore.Internal_Hbond>
0.0000

> <Gold.Chemscore.DEClash>
0.0153

> <Gold.Chemscore.DEInternal>
0.5574

> <Gold.Chemscore.Rot>
1.5393

> <Gold.Chemscore.Internal.Correction>
   9.000000E+99

> <Gold.Chemscore.Hbonds>
donor molecule, donor type, donor heavy atom, donor atom, acceptor molecule, acceptor atom, score
      P1  H  6896  6908       L1    16  0.85
      P1  H  7989  7998       L1    20  0.97

> <Gold.Chemscore.Hbond.Weighted>
-6.6359

> <Gold.Chemscore.Metal.Weighted>
-0.0000

> <Gold.Chemscore.Lipo.Weighted>
-12.6158

> <Gold.Chemscore.Internal_Hbond.Weighted>
0.0000

> <Gold.Chemscore.DEClash.Weighted>
0.0153

> <Gold.Chemscore.DEInternal.Weighted>
0.5574

> <Gold.Chemscore.Rot.Weighted>
3.9407

> <Gold.Chemscore.Internal.Correction.Weighted>
   9.000000E+99

> <Gold.Protein.RotatedTorsions>
[ 6907 6896 6895 6894 ] final -114.77 input  -60.11 | X-H torsion
[ 7974 7965 7964 7962 ] final  -71.43 input  175.53 | X-H torsion
[ 8008 7997 7996 7995 ] final -178.27 input   59.86 | X-H torsion
[ 10167 10162 10161 10158 ] final  -56.91 input  -65.29 | X-H torsion
[ 10718 10713 10712 10709 ] final  -22.21 input   66.30 | X-H torsion
[ 10763 10752 10751 10750 ] final  -55.38 input  -60.55 | X-H torsion
[ 11005 11000 10999 10996 ] final  128.00 input  -57.11 | X-H torsion

> <Gold.Protein.ActiveResidues>
 VAL166  LYS551  ARG553  GLY616  TRP617  ASP618  TYR619  PRO620  LYS621  CYS622 
 ASP623  PHE694  ASN695  SER759  ASP760  ASP761  ALA762  ILE779  LEU786  VAL792 
 PHE793  MET794  SER795  GLU796  ALA797  LYS798  CYS799  TRP800  GLU811  SER814 

> <Gold.Protein.RotatedAtoms>
  150.7927  133.8754  159.3270 H   0  0  0  0  0  0  0  0  0  0  0  0  # atno 6907 bound_to 6896
  151.6588  135.0990  160.0185 H   0  0  0  0  0  0  0  0  0  0  0  0  # atno 6908 bound_to 6896
  152.4004  133.6770  159.6346 H   0  0  0  0  0  0  0  0  0  0  0  0  # atno 6909 bound_to 6896
  145.6782  140.9197  143.0846 H   0  0  0  0  0  0  0  0  0  0  0  0  # atno 7974 bound_to 7965
  156.0168  140.1252  157.0398 H   0  0  0  0  0  0  0  0  0  0  0  0  # atno 8008 bound_to 7997
  154.4296  140.1077  156.5977 H   0  0  0  0  0  0  0  0  0  0  0  0  # atno 8009 bound_to 7997
  155.6002  140.3470  155.4594 H   0  0  0  0  0  0  0  0  0  0  0  0  # atno 8010 bound_to 7997
  140.6289  143.2450  151.5292 H   0  0  0  0  0  0  0  0  0  0  0  0  # atno 10167 bound_to 10162
  156.5076  130.4602  149.6666 H   0  0  0  0  0  0  0  0  0  0  0  0  # atno 10718 bound_to 10713
  154.1898  135.6429  153.5057 H   0  0  0  0  0  0  0  0  0  0  0  0  # atno 10763 bound_to 10752
  153.0038  135.5426  154.6427 H   0  0  0  0  0  0  0  0  0  0  0  0  # atno 10764 bound_to 10752
  154.5813  135.2925  155.0703 H   0  0  0  0  0  0  0  0  0  0  0  0  # atno 10765 bound_to 10752
  139.9537  134.9617  156.8937 H   0  0  0  0  0  0  0  0  0  0  0  0  # atno 11005 bound_to 11000
  144.7034  139.8661  143.7437 LP  0  0  0  0  0  0  0  0  0  0  0  0  # atno 17320 bound_to 7965
  146.0987  139.3981  143.0360 LP  0  0  0  0  0  0  0  0  0  0  0  0  # atno 17321 bound_to 7965
  139.5506  144.2406  152.1522 LP  0  0  0  0  0  0  0  0  0  0  0  0  # atno 17342 bound_to 10162
  140.1645  144.4994  150.6614 LP  0  0  0  0  0  0  0  0  0  0  0  0  # atno 17343 bound_to 10162
  156.3271  130.7312  151.2234 LP  0  0  0  0  0  0  0  0  0  0  0  0  # atno 17370 bound_to 10713
  157.7455  131.0440  150.4770 LP  0  0  0  0  0  0  0  0  0  0  0  0  # atno 17371 bound_to 10713
  140.5659  134.0490  155.7414 LP  0  0  0  0  0  0  0  0  0  0  0  0  # atno 17394 bound_to 11000
  141.1205  133.9469  157.2739 LP  0  0  0  0  0  0  0  0  0  0  0  0  # atno 17395 bound_to 11000

$$$$
