AV-unprocessed.smi:2492|AV-procd|sdf|9815|dock7
  -GOLD-   2272013443D 1   1.00000     0.00000
 Structure written by MMmdl.
 32 33  0  0  0  0  0  0  0  0  2 V2000
  152.4932  143.7032  161.8042 C   0  0  0  0  0  0  0  0  0  0  0  0
  153.4122  142.2583  161.2106 S   0  0  0  0  0  0  0  0  0  0  0  0
  152.8313  142.1979  159.4911 C   0  0  2  0  0  0  0  0  0  0  0  0
  152.0983  143.4699  159.0736 C   0  0  0  0  0  0  0  0  0  0  0  0
  151.2920  143.0531  157.8419 C   0  0  0  0  0  0  0  0  0  0  0  0
  150.9746  141.5563  158.0253 C   0  0  1  0  0  0  0  0  0  0  0  0
  151.3127  140.8032  156.8192 N   0  0  0  0  0  0  0  0  0  0  0  0
  150.6458  140.8379  155.6561 C   0  0  0  0  0  0  0  0  0  0  0  0
  149.6454  141.5500  155.5423 O   0  0  0  0  0  0  0  0  0  0  0  0
  151.1782  140.0441  154.6994 N   0  5  0  0  0  0  0  0  0  0  0  0
  151.1262  138.7083  154.8305 C   0  0  0  0  0  0  0  0  0  0  0  0
  150.1023  138.0081  155.3205 N   0  0  0  0  0  0  0  0  0  0  0  0
  150.5610  136.7322  155.2163 C   0  0  0  0  0  0  0  0  0  0  0  0
  149.7657  135.5470  155.6447 C   0  0  0  0  0  0  0  0  0  0  0  0
  151.7713  136.5944  154.6960 N   0  0  0  0  0  0  0  0  0  0  0  0
  152.1553  137.9165  154.4307 O   0  0  0  0  0  0  0  0  0  0  0  0
  151.8057  141.0902  159.2374 C   0  0  0  0  0  0  0  0  0  0  0  0
  152.7042  143.8737  162.8598 H   0  0  0  0  0  0  0  0  0  0  0  0
  151.4208  143.5471  161.6868 H   0  0  0  0  0  0  0  0  0  0  0  0
  152.7789  144.5961  161.2480 H   0  0  0  0  0  0  0  0  0  0  0  0
  153.6889  142.0543  158.8319 H   0  0  0  0  0  0  0  0  0  0  0  0
  151.4162  143.7851  159.8648 H   0  0  0  0  0  0  0  0  0  0  0  0
  152.7769  144.2983  158.8688 H   0  0  0  0  0  0  0  0  0  0  0  0
  150.3896  143.6538  157.7249 H   0  0  0  0  0  0  0  0  0  0  0  0
  151.9005  143.2116  156.9499 H   0  0  0  0  0  0  0  0  0  0  0  0
  149.9118  141.4341  158.2425 H   0  0  0  0  0  0  0  0  0  0  0  0
  152.1260  140.2072  156.8673 H   0  0  0  0  0  0  0  0  0  0  0  0
  149.3554  135.0357  154.7738 H   0  0  0  0  0  0  0  0  0  0  0  0
  148.9400  135.8507  156.2889 H   0  0  0  0  0  0  0  0  0  0  0  0
  150.3926  134.8467  156.1972 H   0  0  0  0  0  0  0  0  0  0  0  0
  152.2799  140.1191  159.0891 H   0  0  0  0  0  0  0  0  0  0  0  0
  151.1467  140.9942  160.1014 H   0  0  0  0  0  0  0  0  0  0  0  0
  1  2  1  0  0  0  0
  1 18  1  0  0  0  0
  1 19  1  0  0  0  0
  1 20  1  0  0  0  0
  2  3  1  0  0  0  0
  3 17  1  0  0  0  0
  3  4  1  0  0  0  0
  3 21  1  0  0  0  0
  4  5  1  0  0  0  0
  4 22  1  0  0  0  0
  4 23  1  0  0  0  0
  5  6  1  0  0  0  0
  5 24  1  0  0  0  0
  5 25  1  0  0  0  0
  6  7  1  0  0  0  0
  6 17  1  0  0  0  0
  6 26  1  0  0  0  0
  7  8  1  0  0  0  0
  7 27  1  0  0  0  0
  8  9  2  0  0  0  0
  8 10  1  0  0  0  0
 10 11  1  0  0  0  0
 11 16  1  0  0  0  0
 11 12  2  0  0  0  0
 12 13  1  0  0  0  0
 13 14  1  0  0  0  0
 13 15  2  0  0  0  0
 14 28  1  0  0  0  0
 14 29  1  0  0  0  0
 14 30  1  0  0  0  0
 15 16  1  0  0  0  0
 17 31  1  0  0  0  0
 17 32  1  0  0  0  0
M  CHG  1  10  -1
M  END
> <s_m_source_file>
AV-unprocessed.smi

> <i_m_source_file_index>
2492

> <i_lp_mmshare_version>
43012

> <i_f3d_flags>
0

> <s_epik_input>
W0NIM11TW0NAQEhdMVtDSDJdW0NIMl1bQ0BIXShbQ0gyXTEpW05IXUMoPU8pW05IXWMybmMoW0NIM10pbm8y

> <s_epik_cmdline>
J2VwaWtfcHl0aG9uJywgJy1waCcsICc3LjAnLCAnLXRuJywgJzgnLCAnLW1hJywgJzIwMCcsICctbWV0YWxfYmluZGluZycsICctaW1hZScsICc8aW5maWxlLm1hZT4nLCAnLW9tYWUnLCAnPG91dGZpbGUubWFlPic=

> <r_lp_tautomer_probability>
1

> <r_epik_Ionization_Penalty>
6.26454

> <r_epik_Ionization_Penalty_Charging>
6.26445

> <r_epik_Ionization_Penalty_Neutral>
9.05726e-05

> <r_epik_State_Penalty>
6.26444

> <r_epik_Charging_Adjusted_Penalty>
12.5289

> <i_epik_Tot_Q>
-1

> <i_epik_Tot_abs_Q>
1

> <r_epik_Metal_State_Penalty>
2.20125

> <b_epik_Metal_Only>
1

> <s_lp_Force_Field>
OPLS_2005

> <r_lp_Energy>
10.5247

> <b_lp_Chiralities_Consistent>
1

> <s_lp_Variant>
AV-unprocessed.smi:2492-5

> <Gold.Version>
5.8.1

> <Gold.Id.Protein>
6NUR|6NUR_protein|mol2

> <Gold.PLP.Fitness>
38.1937

> <Gold.PLP.PLP>
-35.5866

> <Gold.PLP.part.hbond>
-2.3941

> <Gold.PLP.part.metal>
0.0000

> <Gold.PLP.part.buried>
-6.6290

> <Gold.PLP.part.nonpolar>
-27.2035

> <Gold.PLP.part.repulsive>
0.6420

> <Gold.PLP.ligand.clash>
0.0000

> <Gold.PLP.ligand.torsion>
1.6871

> <Gold.PLP.Chemscore.Hbond>
1.9913

> <Gold.PLP.Chemscore.CHOScore>
0.0000

> <Gold.PLP.Chemscore.Metal>
0.0000

> <Gold.Chemscore.Hbonds>
donor molecule, donor type, donor heavy atom, donor atom, acceptor molecule, acceptor atom, score
      P1  H  7989  7998       L1    10  0.99
      P1  H 10752 10763       L1    15  0.99

> <Gold.PLP.Chemscore.Internal.Correction>
0.0075

> <Gold.Rescore>
     Score         DG    S(hbond)    S(metal)    S(lipo)     H(rot)  DE(clash)    DE(int)     intcor
     15.52     -17.19       1.90        0.00      73.57       1.27       0.01       1.67       ----

> <Gold.Chemscore.Fitness>
15.5167

> <Gold.Chemscore.DG>
-17.1877

> <Gold.Chemscore.ZeroCoef>
-5.4800

> <Gold.Chemscore.Hbond>
1.9024

> <Gold.Chemscore.Metal>
0.0000

> <Gold.Chemscore.Lipo>
73.5704

> <Gold.Chemscore.Internal_Hbond>
0.0000

> <Gold.Chemscore.DEClash>
0.0057

> <Gold.Chemscore.DEInternal>
1.6653

> <Gold.Chemscore.Rot>
1.2712

> <Gold.Chemscore.Internal.Correction>
   9.000000E+99

> <Gold.Chemscore.Hbonds>
donor molecule, donor type, donor heavy atom, donor atom, acceptor molecule, acceptor atom, score
      P1  H  7989  7998       L1    10  0.72
      P1  H 10752 10763       L1    15  0.76

> <Gold.Chemscore.Hbond.Weighted>
-6.3541

> <Gold.Chemscore.Metal.Weighted>
-0.0000

> <Gold.Chemscore.Lipo.Weighted>
-8.6077

> <Gold.Chemscore.Internal_Hbond.Weighted>
0.0000

> <Gold.Chemscore.DEClash.Weighted>
0.0057

> <Gold.Chemscore.DEInternal.Weighted>
1.6653

> <Gold.Chemscore.Rot.Weighted>
3.2542

> <Gold.Chemscore.Internal.Correction.Weighted>
   9.000000E+99

> <Gold.Protein.RotatedTorsions>
[ 6907 6896 6895 6894 ] final  120.06 input  -60.11 | X-H torsion
[ 7974 7965 7964 7962 ] final -108.25 input  175.53 | X-H torsion
[ 8008 7997 7996 7995 ] final -104.67 input   59.86 | X-H torsion
[ 10167 10162 10161 10158 ] final -121.21 input  -65.29 | X-H torsion
[ 10718 10713 10712 10709 ] final  -53.53 input   66.30 | X-H torsion
[ 10763 10752 10751 10750 ] final   57.14 input  -60.55 | X-H torsion
[ 11005 11000 10999 10996 ] final -164.85 input  -57.11 | X-H torsion

> <Gold.Protein.ActiveResidues>
 VAL166  LYS551  ARG553  GLY616  TRP617  ASP618  TYR619  PRO620  LYS621  CYS622 
 ASP623  PHE694  ASN695  SER759  ASP760  ASP761  ALA762  ILE779  LEU786  VAL792 
 PHE793  MET794  SER795  GLU796  ALA797  LYS798  CYS799  TRP800  GLU811  SER814 

> <Gold.Protein.RotatedAtoms>
  152.4426  133.7476  159.6675 H   0  0  0  0  0  0  0  0  0  0  0  0  # atno 6907 bound_to 6896
  150.8319  133.8066  159.3101 H   0  0  0  0  0  0  0  0  0  0  0  0  # atno 6908 bound_to 6896
  151.5717  135.1064  160.0048 H   0  0  0  0  0  0  0  0  0  0  0  0  # atno 6909 bound_to 6896
  145.1952  140.9032  143.3401 H   0  0  0  0  0  0  0  0  0  0  0  0  # atno 7974 bound_to 7965
  154.8887  140.0416  157.1825 H   0  0  0  0  0  0  0  0  0  0  0  0  # atno 8008 bound_to 7997
  154.8564  140.2937  155.5545 H   0  0  0  0  0  0  0  0  0  0  0  0  # atno 8009 bound_to 7997
  156.2997  140.2455  156.3531 H   0  0  0  0  0  0  0  0  0  0  0  0  # atno 8010 bound_to 7997
  140.0275  143.5281  152.2192 H   0  0  0  0  0  0  0  0  0  0  0  0  # atno 10167 bound_to 10162
  156.1527  130.4151  149.9919 H   0  0  0  0  0  0  0  0  0  0  0  0  # atno 10718 bound_to 10713
  152.9844  135.5652  154.5342 H   0  0  0  0  0  0  0  0  0  0  0  0  # atno 10763 bound_to 10752
  154.4808  135.2788  155.1574 H   0  0  0  0  0  0  0  0  0  0  0  0  # atno 10764 bound_to 10752
  154.3083  135.6293  153.5507 H   0  0  0  0  0  0  0  0  0  0  0  0  # atno 10765 bound_to 10752
  140.5823  134.5129  157.5180 H   0  0  0  0  0  0  0  0  0  0  0  0  # atno 11005 bound_to 11000
  145.0002  139.3606  143.6171 LP  0  0  0  0  0  0  0  0  0  0  0  0  # atno 17320 bound_to 7965
  146.3428  139.9221  142.8765 LP  0  0  0  0  0  0  0  0  0  0  0  0  # atno 17321 bound_to 7965
  139.6098  144.7606  151.2978 LP  0  0  0  0  0  0  0  0  0  0  0  0  # atno 17342 bound_to 10162
  140.7316  143.6847  150.7972 LP  0  0  0  0  0  0  0  0  0  0  0  0  # atno 17343 bound_to 10162
  156.7772  130.9208  151.3645 LP  0  0  0  0  0  0  0  0  0  0  0  0  # atno 17370 bound_to 10713
  157.6670  130.9016  149.9954 LP  0  0  0  0  0  0  0  0  0  0  0  0  # atno 17371 bound_to 10713
  139.9311  134.7961  156.0927 LP  0  0  0  0  0  0  0  0  0  0  0  0  # atno 17394 bound_to 11000
  141.0988  133.6685  156.2707 LP  0  0  0  0  0  0  0  0  0  0  0  0  # atno 17395 bound_to 11000

$$$$
