AV-unprocessed.smi:2768|AV-procd|sdf|10648|dock3
  -GOLD-   2272015103D 1   1.00000     0.00000
 Structure written by MMmdl.
 35 36  0  0  0  0  0  0  0  0  1 V2000
  152.6096  139.8501  155.2113 O   0  0  0  0  0  0  0  0  0  0  0  0
  151.4683  139.7870  155.6703 C   0  0  0  0  0  0  0  0  0  0  0  0
  151.0717  140.4893  156.7444 N   0  0  0  0  0  0  0  0  0  0  0  0
  151.9047  141.4122  157.5110 C   0  0  2  0  0  0  0  0  0  0  0  0
  152.2296  140.7745  158.8806 C   0  0  0  0  0  0  0  0  0  0  0  0
  152.9691  141.7445  159.8136 C   0  0  0  0  0  0  0  0  0  0  0  0
  152.1723  143.0420  160.0008 C   0  0  0  0  0  0  0  0  0  0  0  0
  151.8937  143.7062  158.6461 C   0  0  0  0  0  0  0  0  0  0  0  0
  151.1555  142.7544  157.6856 C   0  0  1  0  0  0  0  0  0  0  0  0
  151.0520  143.4076  156.4358 O   0  0  0  0  0  0  0  0  0  0  0  0
  150.4259  138.8628  155.0231 C   0  0  0  0  0  0  0  0  0  0  0  0
  151.0145  138.1210  154.0811 F   0  0  0  0  0  0  0  0  0  0  0  0
  149.9511  138.0342  155.9560 F   0  0  0  0  0  0  0  0  0  0  0  0
  149.2951  139.6867  154.4126 C   0  0  0  0  0  0  0  0  0  0  0  0
  148.2274  139.0642  153.7263 C   0  0  0  0  0  0  0  0  0  0  0  0
  147.2046  139.8717  153.1925 C   0  0  0  0  0  0  0  0  0  0  0  0
  147.2818  141.2667  153.3639 C   0  0  0  0  0  0  0  0  0  0  0  0
  148.3831  141.7944  154.0657 C   0  0  0  0  0  0  0  0  0  0  0  0
  149.3688  141.0292  154.5813 N   0  0  0  0  0  0  0  0  0  0  0  0
  152.8404  141.5990  156.9797 H   0  0  0  0  0  0  0  0  0  0  0  0
  150.1497  142.5716  158.0673 H   0  0  0  0  0  0  0  0  0  0  0  0
  150.1169  140.3763  157.0539 H   0  0  0  0  0  0  0  0  0  0  0  0
  151.3056  140.4534  159.3641 H   0  0  0  0  0  0  0  0  0  0  0  0
  152.8300  139.8745  158.7428 H   0  0  0  0  0  0  0  0  0  0  0  0
  153.1404  141.2711  160.7808 H   0  0  0  0  0  0  0  0  0  0  0  0
  153.9527  141.9725  159.4009 H   0  0  0  0  0  0  0  0  0  0  0  0
  151.2305  142.8280  160.5077 H   0  0  0  0  0  0  0  0  0  0  0  0
  152.7238  143.7272  160.6452 H   0  0  0  0  0  0  0  0  0  0  0  0
  151.3084  144.6145  158.7950 H   0  0  0  0  0  0  0  0  0  0  0  0
  152.8404  144.0189  158.2024 H   0  0  0  0  0  0  0  0  0  0  0  0
  150.1823  143.7691  156.3566 H   0  0  0  0  0  0  0  0  0  0  0  0
  148.1858  137.9911  153.6121 H   0  0  0  0  0  0  0  0  0  0  0  0
  146.3743  139.4287  152.6626 H   0  0  0  0  0  0  0  0  0  0  0  0
  146.5151  141.9163  152.9683 H   0  0  0  0  0  0  0  0  0  0  0  0
  148.4744  142.8596  154.2180 H   0  0  0  0  0  0  0  0  0  0  0  0
  1  2  2  0  0  0  0
  2  3  1  0  0  0  0
  2 11  1  0  0  0  0
  3  4  1  0  0  0  0
  3 22  1  0  0  0  0
  4 20  1  0  0  0  0
  4  9  1  0  0  0  0
  4  5  1  0  0  0  0
  5  6  1  0  0  0  0
  5 23  1  0  0  0  0
  5 24  1  0  0  0  0
  6  7  1  0  0  0  0
  6 25  1  0  0  0  0
  6 26  1  0  0  0  0
  7  8  1  0  0  0  0
  7 27  1  0  0  0  0
  7 28  1  0  0  0  0
  8  9  1  0  0  0  0
  8 29  1  0  0  0  0
  8 30  1  0  0  0  0
  9 21  1  0  0  0  0
  9 10  1  0  0  0  0
 10 31  1  0  0  0  0
 11 12  1  0  0  0  0
 11 13  1  0  0  0  0
 11 14  1  0  0  0  0
 14 19  1  0  0  0  0
 14 15  2  0  0  0  0
 15 16  1  0  0  0  0
 15 32  1  0  0  0  0
 16 17  2  0  0  0  0
 16 33  1  0  0  0  0
 17 18  1  0  0  0  0
 17 34  1  0  0  0  0
 18 19  2  0  0  0  0
 18 35  1  0  0  0  0
M  END
> <s_m_source_file>
AV-unprocessed.smi

> <i_m_source_file_index>
2768

> <i_lp_mmshare_version>
43012

> <i_f3d_flags>
0

> <s_epik_input>
bjFbY0hdW2NIXVtjSF1bY0hdYzFDKEYpKEYpQyg9TylbTkhdW0NAQEhdMltDSDJdW0NIMl1bQ0gyXVtDSDJdW0NASF0yW09IXQ==

> <s_epik_cmdline>
J2VwaWtfcHl0aG9uJywgJy1waCcsICc3LjAnLCAnLXRuJywgJzgnLCAnLW1hJywgJzIwMCcsICctbWV0YWxfYmluZGluZycsICctaW1hZScsICc8aW5maWxlLm1hZT4nLCAnLW9tYWUnLCAnPG91dGZpbGUubWFlPic=

> <r_lp_tautomer_probability>
1

> <r_epik_Ionization_Penalty>
4.19456e-05

> <r_epik_Ionization_Penalty_Charging>
0

> <r_epik_Ionization_Penalty_Neutral>
4.19456e-05

> <r_epik_State_Penalty>
-0

> <r_epik_Charging_Adjusted_Penalty>
0

> <i_epik_Tot_Q>
0

> <i_epik_Tot_abs_Q>
0

> <r_epik_Metal_State_Penalty>
0.0354684

> <b_epik_Metal_Only>
0

> <s_lp_Force_Field>
OPLS_2005

> <r_lp_Energy>
17.1667

> <b_lp_Chiralities_Consistent>
1

> <s_lp_Variant>
AV-unprocessed.smi:2768-1

> <Gold.Version>
5.8.1

> <Gold.Id.Protein>
6NUR|6NUR_protein|mol2

> <Gold.PLP.Fitness>
50.2961

> <Gold.PLP.PLP>
-41.1445

> <Gold.PLP.part.hbond>
-3.0225

> <Gold.PLP.part.metal>
0.0000

> <Gold.PLP.part.buried>
-4.9939

> <Gold.PLP.part.nonpolar>
-32.9101

> <Gold.PLP.part.repulsive>
0.2226

> <Gold.PLP.ligand.clash>
0.0000

> <Gold.PLP.ligand.torsion>
0.2286

> <Gold.PLP.Chemscore.Hbond>
2.1991

> <Gold.PLP.Chemscore.CHOScore>
1.0000

> <Gold.PLP.Chemscore.Metal>
0.0000

> <Gold.Chemscore.Hbonds>
donor molecule, donor type, donor heavy atom, donor atom, acceptor molecule, acceptor atom, score
      L1  H    10    31       P1  8028  1.00
      P1  H  7989  7998       L1     1  0.10
      P1  H  7997  8009       L1     1  1.00
      L1  C    18    35       P1  8028  1.00

> <Gold.PLP.Chemscore.Internal.Correction>
0.0113

> <Gold.Rescore>
     Score         DG    S(hbond)    S(metal)    S(lipo)     H(rot)  DE(clash)    DE(int)     intcor
     16.87     -18.87       1.98        0.00     101.73       2.00       0.17       1.82       ----

> <Gold.Chemscore.Fitness>
16.8711

> <Gold.Chemscore.DG>
-18.8704

> <Gold.Chemscore.ZeroCoef>
-5.4800

> <Gold.Chemscore.Hbond>
1.9759

> <Gold.Chemscore.Metal>
0.0000

> <Gold.Chemscore.Lipo>
101.7343

> <Gold.Chemscore.Internal_Hbond>
0.0000

> <Gold.Chemscore.DEClash>
0.1746

> <Gold.Chemscore.DEInternal>
1.8247

> <Gold.Chemscore.Rot>
1.9969

> <Gold.Chemscore.Internal.Correction>
   9.000000E+99

> <Gold.Chemscore.Hbonds>
donor molecule, donor type, donor heavy atom, donor atom, acceptor molecule, acceptor atom, score
      L1  H    10    31       P1  8028  0.99
      P1  H  7997  8009       L1     1  0.97

> <Gold.Chemscore.Hbond.Weighted>
-6.5996

> <Gold.Chemscore.Metal.Weighted>
-0.0000

> <Gold.Chemscore.Lipo.Weighted>
-11.9029

> <Gold.Chemscore.Internal_Hbond.Weighted>
0.0000

> <Gold.Chemscore.DEClash.Weighted>
0.1746

> <Gold.Chemscore.DEInternal.Weighted>
1.8247

> <Gold.Chemscore.Rot.Weighted>
5.1122

> <Gold.Chemscore.Internal.Correction.Weighted>
   9.000000E+99

> <Gold.Protein.RotatedTorsions>
[ 6907 6896 6895 6894 ] final -132.42 input  -60.11 | X-H torsion
[ 7974 7965 7964 7962 ] final -169.10 input  175.53 | X-H torsion
[ 8008 7997 7996 7995 ] final -141.50 input   59.86 | X-H torsion
[ 10167 10162 10161 10158 ] final  134.58 input  -65.29 | X-H torsion
[ 10718 10713 10712 10709 ] final  -49.12 input   66.30 | X-H torsion
[ 10763 10752 10751 10750 ] final   97.88 input  -60.55 | X-H torsion
[ 11005 11000 10999 10996 ] final -119.31 input  -57.11 | X-H torsion

> <Gold.Protein.ActiveResidues>
 VAL166  LYS551  ARG553  GLY616  TRP617  ASP618  TYR619  PRO620  LYS621  CYS622 
 ASP623  PHE694  ASN695  SER759  ASP760  ASP761  ALA762  ILE779  LEU786  VAL792 
 PHE793  MET794  SER795  GLU796  ALA797  LYS798  CYS799  TRP800  GLU811  SER814 

> <Gold.Protein.RotatedAtoms>
  150.9621  133.6434  159.2752 H   0  0  0  0  0  0  0  0  0  0  0  0  # atno 6907 bound_to 6896
  151.3752  135.0929  159.9488 H   0  0  0  0  0  0  0  0  0  0  0  0  # atno 6908 bound_to 6896
  152.5152  133.9167  159.7569 H   0  0  0  0  0  0  0  0  0  0  0  0  # atno 6909 bound_to 6896
  144.7191  140.2271  143.6309 H   0  0  0  0  0  0  0  0  0  0  0  0  # atno 7974 bound_to 7965
  155.4788  140.0558  157.2970 H   0  0  0  0  0  0  0  0  0  0  0  0  # atno 8008 bound_to 7997
  154.4669  140.2022  156.0048 H   0  0  0  0  0  0  0  0  0  0  0  0  # atno 8009 bound_to 7997
  156.0989  140.3222  155.7919 H   0  0  0  0  0  0  0  0  0  0  0  0  # atno 8010 bound_to 7997
  139.5251  144.6560  151.5159 H   0  0  0  0  0  0  0  0  0  0  0  0  # atno 10167 bound_to 10162
  156.1923  130.4153  149.9354 H   0  0  0  0  0  0  0  0  0  0  0  0  # atno 10718 bound_to 10713
  153.2823  135.4168  155.1090 H   0  0  0  0  0  0  0  0  0  0  0  0  # atno 10763 bound_to 10752
  154.8493  135.3498  154.6095 H   0  0  0  0  0  0  0  0  0  0  0  0  # atno 10764 bound_to 10752
  153.6516  135.7052  153.5264 H   0  0  0  0  0  0  0  0  0  0  0  0  # atno 10765 bound_to 10752
  141.0224  134.0104  157.3263 H   0  0  0  0  0  0  0  0  0  0  0  0  # atno 11005 bound_to 11000
  145.8446  139.2146  143.1807 LP  0  0  0  0  0  0  0  0  0  0  0  0  # atno 17320 bound_to 7965
  146.0315  140.8253  142.9873 LP  0  0  0  0  0  0  0  0  0  0  0  0  # atno 17321 bound_to 7965
  140.6386  143.8934  150.6671 LP  0  0  0  0  0  0  0  0  0  0  0  0  # atno 17342 bound_to 10162
  140.2261  143.3771  152.1604 LP  0  0  0  0  0  0  0  0  0  0  0  0  # atno 17343 bound_to 10162
  156.7090  130.8962  151.3607 LP  0  0  0  0  0  0  0  0  0  0  0  0  # atno 17370 bound_to 10713
  157.6937  130.9259  150.0584 LP  0  0  0  0  0  0  0  0  0  0  0  0  # atno 17371 bound_to 10713
  139.9155  135.0196  156.7862 LP  0  0  0  0  0  0  0  0  0  0  0  0  # atno 17394 bound_to 11000
  140.6549  133.9697  155.7774 LP  0  0  0  0  0  0  0  0  0  0  0  0  # atno 17395 bound_to 11000

$$$$
