AV-unprocessed.smi:1085|AV-procd|sdf|4720|dock5
  -GOLD-   22720 3243D 1   1.00000     0.00000
 Structure written by MMmdl.
 33 34  0  0  0  0  0  0  0  0  1 V2000
  153.0486  139.7889  154.7337 O   0  0  0  0  0  0  0  0  0  0  0  0
  152.1312  139.1458  155.2426 C   0  0  0  0  0  0  0  0  0  0  0  0
  152.2597  137.6326  155.4176 C   0  0  0  0  0  0  0  0  0  0  0  0
  152.5897  137.3008  156.7917 N   0  0  0  0  0  0  0  0  0  0  0  0
  152.5820  138.0451  157.8996 C   0  0  0  0  0  0  0  0  0  0  0  0
  152.9262  137.3383  158.9654 N   0  0  0  0  0  0  0  0  0  0  0  0
  153.1559  136.0753  158.4453 N   0  0  0  0  0  0  0  0  0  0  0  0
  152.9578  136.0467  157.1562 N   0  0  0  0  0  0  0  0  0  0  0  0
  150.9929  139.7000  155.6876 N   0  0  0  0  0  0  0  0  0  0  0  0
  150.6950  141.1294  155.7267 C   0  0  2  0  0  0  0  0  0  0  0  0
  150.4247  141.6034  157.1704 C   0  0  0  0  0  0  0  0  0  0  0  0
  149.1116  141.0281  157.7268 C   0  0  0  0  0  0  0  0  0  0  0  0
  147.9254  141.3640  156.8093 C   0  0  0  0  0  0  0  0  0  0  0  0
  148.1610  140.8733  155.3648 C   0  0  1  0  0  0  0  0  0  0  0  0
  146.9698  141.2019  154.4414 C   0  0  0  0  0  0  0  0  0  0  0  0
  147.1304  140.6429  153.2415 F   0  0  0  0  0  0  0  0  0  0  0  0
  145.8376  140.7488  154.9798 F   0  0  0  0  0  0  0  0  0  0  0  0
  146.8588  142.5218  154.2908 F   0  0  0  0  0  0  0  0  0  0  0  0
  149.4909  141.4429  154.8165 C   0  0  0  0  0  0  0  0  0  0  0  0
  151.3258  137.1430  155.1370 H   0  0  0  0  0  0  0  0  0  0  0  0
  153.0417  137.2422  154.7648 H   0  0  0  0  0  0  0  0  0  0  0  0
  152.3179  139.0921  157.9259 H   0  0  0  0  0  0  0  0  0  0  0  0
  150.2969  139.0842  156.0835 H   0  0  0  0  0  0  0  0  0  0  0  0
  151.5616  141.6665  155.3369 H   0  0  0  0  0  0  0  0  0  0  0  0
  151.2553  141.3374  157.8250 H   0  0  0  0  0  0  0  0  0  0  0  0
  150.3695  142.6927  157.1838 H   0  0  0  0  0  0  0  0  0  0  0  0
  149.1976  139.9460  157.8369 H   0  0  0  0  0  0  0  0  0  0  0  0
  148.9296  141.4234  158.7265 H   0  0  0  0  0  0  0  0  0  0  0  0
  147.0183  140.9152  157.2148 H   0  0  0  0  0  0  0  0  0  0  0  0
  147.7616  142.4425  156.8108 H   0  0  0  0  0  0  0  0  0  0  0  0
  148.2493  139.7862  155.3973 H   0  0  0  0  0  0  0  0  0  0  0  0
  149.4020  142.5249  154.7109 H   0  0  0  0  0  0  0  0  0  0  0  0
  149.6803  141.0587  153.8134 H   0  0  0  0  0  0  0  0  0  0  0  0
  1  2  2  0  0  0  0
  2  3  1  0  0  0  0
  2  9  1  0  0  0  0
  3  4  1  0  0  0  0
  3 20  1  0  0  0  0
  3 21  1  0  0  0  0
  4  8  1  0  0  0  0
  4  5  1  0  0  0  0
  5  6  2  0  0  0  0
  5 22  1  0  0  0  0
  6  7  1  0  0  0  0
  7  8  2  0  0  0  0
  9 10  1  0  0  0  0
  9 23  1  0  0  0  0
 10 19  1  0  0  0  0
 10 11  1  0  0  0  0
 10 24  1  0  0  0  0
 11 12  1  0  0  0  0
 11 25  1  0  0  0  0
 11 26  1  0  0  0  0
 12 13  1  0  0  0  0
 12 27  1  0  0  0  0
 12 28  1  0  0  0  0
 13 14  1  0  0  0  0
 13 29  1  0  0  0  0
 13 30  1  0  0  0  0
 14 15  1  0  0  0  0
 14 19  1  0  0  0  0
 14 31  1  0  0  0  0
 15 16  1  0  0  0  0
 15 17  1  0  0  0  0
 15 18  1  0  0  0  0
 19 32  1  0  0  0  0
 19 33  1  0  0  0  0
M  END
> <s_m_source_file>
AV-unprocessed.smi

> <i_m_source_file_index>
1085

> <i_lp_mmshare_version>
43012

> <i_f3d_flags>
0

> <s_epik_input>
bjFubltjSF1uMVtDSDJdQyg9TylbTkhdW0NAQEhdMltDSDJdW0NIMl1bQ0gyXVtDQEBIXShDKEYpKEYpRilbQ0gyXTI=

> <s_epik_cmdline>
J2VwaWtfcHl0aG9uJywgJy1waCcsICc3LjAnLCAnLXRuJywgJzgnLCAnLW1hJywgJzIwMCcsICctbWV0YWxfYmluZGluZycsICctaW1hZScsICc8aW5maWxlLm1hZT4nLCAnLW9tYWUnLCAnPG91dGZpbGUubWFlPic=

> <r_lp_tautomer_probability>
1

> <r_epik_Ionization_Penalty>
8.41315e-07

> <r_epik_Ionization_Penalty_Charging>
0

> <r_epik_Ionization_Penalty_Neutral>
8.41315e-07

> <r_epik_State_Penalty>
-0

> <r_epik_Charging_Adjusted_Penalty>
0

> <i_epik_Tot_Q>
0

> <i_epik_Tot_abs_Q>
0

> <r_epik_Metal_State_Penalty>
-0

> <b_epik_Metal_Only>
0

> <s_lp_Force_Field>
OPLS_2005

> <r_lp_Energy>
11.1057

> <b_lp_Chiralities_Consistent>
1

> <s_lp_Variant>
AV-unprocessed.smi:1085-1

> <Gold.Version>
5.8.1

> <Gold.Id.Protein>
6NUR|6NUR_protein|mol2

> <Gold.PLP.Fitness>
36.3010

> <Gold.PLP.PLP>
-29.2536

> <Gold.PLP.part.hbond>
-3.9923

> <Gold.PLP.part.metal>
0.0000

> <Gold.PLP.part.buried>
-1.6769

> <Gold.PLP.part.nonpolar>
-23.8604

> <Gold.PLP.part.repulsive>
0.1341

> <Gold.PLP.ligand.clash>
0.0000

> <Gold.PLP.ligand.torsion>
0.4000

> <Gold.PLP.Chemscore.Hbond>
2.6040

> <Gold.PLP.Chemscore.CHOScore>
0.0000

> <Gold.PLP.Chemscore.Metal>
0.0000

> <Gold.Chemscore.Hbonds>
donor molecule, donor type, donor heavy atom, donor atom, acceptor molecule, acceptor atom, score
      P1  H  6896  6907       L1     7  0.39
      P1  H  7989  7998       L1     1  0.15
      P1  H  7997  8010       L1     1  1.00
      P1  H 10752 10763       L1     8  0.99

> <Gold.PLP.Chemscore.Internal.Correction>
0.0354

> <Gold.Rescore>
     Score         DG    S(hbond)    S(metal)    S(lipo)     H(rot)  DE(clash)    DE(int)     intcor
     10.74     -11.04       1.74        0.00      42.58       2.05       0.03       0.26       ----

> <Gold.Chemscore.Fitness>
10.7433

> <Gold.Chemscore.DG>
-11.0394

> <Gold.Chemscore.ZeroCoef>
-5.4800

> <Gold.Chemscore.Hbond>
1.7407

> <Gold.Chemscore.Metal>
0.0000

> <Gold.Chemscore.Lipo>
42.5838

> <Gold.Chemscore.Internal_Hbond>
0.0000

> <Gold.Chemscore.DEClash>
0.0320

> <Gold.Chemscore.DEInternal>
0.2641

> <Gold.Chemscore.Rot>
2.0456

> <Gold.Chemscore.Internal.Correction>
   9.000000E+99

> <Gold.Chemscore.Hbonds>
donor molecule, donor type, donor heavy atom, donor atom, acceptor molecule, acceptor atom, score
      P1  H  6896  6907       L1     7  0.10
      P1  H  7989  7998       L1     1  0.01
      P1  H  7997  8010       L1     1  0.96
      P1  H 10752 10763       L1     8  0.24

> <Gold.Chemscore.Hbond.Weighted>
-5.8139

> <Gold.Chemscore.Metal.Weighted>
-0.0000

> <Gold.Chemscore.Lipo.Weighted>
-4.9823

> <Gold.Chemscore.Internal_Hbond.Weighted>
0.0000

> <Gold.Chemscore.DEClash.Weighted>
0.0320

> <Gold.Chemscore.DEInternal.Weighted>
0.2641

> <Gold.Chemscore.Rot.Weighted>
5.2368

> <Gold.Chemscore.Internal.Correction.Weighted>
   9.000000E+99

> <Gold.Protein.RotatedTorsions>
[ 6907 6896 6895 6894 ] final   44.83 input  -60.11 | X-H torsion
[ 7974 7965 7964 7962 ] final   85.70 input  175.53 | X-H torsion
[ 8008 7997 7996 7995 ] final  110.64 input   59.86 | X-H torsion
[ 10167 10162 10161 10158 ] final  -51.23 input  -65.29 | X-H torsion
[ 10718 10713 10712 10709 ] final   77.32 input   66.30 | X-H torsion
[ 10763 10752 10751 10750 ] final  126.41 input  -60.55 | X-H torsion
[ 11005 11000 10999 10996 ] final   17.57 input  -57.11 | X-H torsion

> <Gold.Protein.ActiveResidues>
 VAL166  LYS551  ARG553  GLY616  TRP617  ASP618  TYR619  PRO620  LYS621  CYS622 
 ASP623  PHE694  ASN695  SER759  ASP760  ASP761  ALA762  ILE779  LEU786  VAL792 
 PHE793  MET794  SER795  GLU796  ALA797  LYS798  CYS799  TRP800  GLU811  SER814 

> <Gold.Protein.RotatedAtoms>
  152.2372  134.8264  160.0465 H   0  0  0  0  0  0  0  0  0  0  0  0  # atno 6907 bound_to 6896
  151.8991  133.3529  159.3833 H   0  0  0  0  0  0  0  0  0  0  0  0  # atno 6908 bound_to 6896
  150.7043  134.4772  159.5497 H   0  0  0  0  0  0  0  0  0  0  0  0  # atno 6909 bound_to 6896
  145.5820  139.2326  143.2347 H   0  0  0  0  0  0  0  0  0  0  0  0  # atno 7974 bound_to 7965
  156.2067  140.3035  155.9643 H   0  0  0  0  0  0  0  0  0  0  0  0  # atno 8008 bound_to 7997
  155.2823  140.0438  157.3033 H   0  0  0  0  0  0  0  0  0  0  0  0  # atno 8009 bound_to 7997
  154.5643  140.2329  155.8296 H   0  0  0  0  0  0  0  0  0  0  0  0  # atno 8010 bound_to 7997
  140.6599  143.2627  151.4474 H   0  0  0  0  0  0  0  0  0  0  0  0  # atno 10167 bound_to 10162
  157.6706  130.9816  150.1624 H   0  0  0  0  0  0  0  0  0  0  0  0  # atno 10718 bound_to 10713
  153.6930  135.3296  155.3206 H   0  0  0  0  0  0  0  0  0  0  0  0  # atno 10763 bound_to 10752
  154.8434  135.4436  154.1489 H   0  0  0  0  0  0  0  0  0  0  0  0  # atno 10764 bound_to 10752
  153.2536  135.6984  153.7731 H   0  0  0  0  0  0  0  0  0  0  0  0  # atno 10765 bound_to 10752
  140.4344  134.1386  155.7684 H   0  0  0  0  0  0  0  0  0  0  0  0  # atno 11005 bound_to 11000
  146.1709  140.6646  142.9233 LP  0  0  0  0  0  0  0  0  0  0  0  0  # atno 17320 bound_to 7965
  144.7390  140.4888  143.6883 LP  0  0  0  0  0  0  0  0  0  0  0  0  # atno 17321 bound_to 7965
  139.5830  144.1668  152.1992 LP  0  0  0  0  0  0  0  0  0  0  0  0  # atno 17342 bound_to 10162
  140.0999  144.5549  150.6996 LP  0  0  0  0  0  0  0  0  0  0  0  0  # atno 17343 bound_to 10162
  156.2397  130.3690  149.8350 LP  0  0  0  0  0  0  0  0  0  0  0  0  # atno 17370 bound_to 10713
  156.6154  130.8604  151.3463 LP  0  0  0  0  0  0  0  0  0  0  0  0  # atno 17371 bound_to 10713
  141.1732  133.8567  157.1505 LP  0  0  0  0  0  0  0  0  0  0  0  0  # atno 17394 bound_to 11000
  140.0112  134.9987  157.0399 LP  0  0  0  0  0  0  0  0  0  0  0  0  # atno 17395 bound_to 11000

$$$$
