AV-unprocessed.smi:2037|AV-procd|sdf|8278|dock10
  -GOLD-   2272010543D 1   1.00000     0.00000
 Structure written by MMmdl.
 38 39  0  0  0  0  0  0  0  0  3 V2000
  145.3823  132.5105  151.0801 C   0  0  0  0  0  0  0  0  0  0  0  0
  145.2828  133.8842  151.7578 C   0  0  2  0  0  0  0  0  0  0  0  0
  145.5566  135.0294  150.7693 C   0  0  0  0  0  0  0  0  0  0  0  0
  145.4748  136.3980  151.4661 C   0  0  0  0  0  0  0  0  0  0  0  0
  146.4111  136.4776  152.6175 N   0  3  1  0  0  0  0  0  0  0  0  0
  146.4286  137.8327  153.2241 C   0  0  0  0  0  0  0  0  0  0  0  0
  146.6269  138.9452  152.1827 C   0  0  0  0  0  0  0  0  0  0  0  0
  147.7114  139.8272  152.5900 N   0  0  0  0  0  0  0  0  0  0  0  0
  147.8245  140.4084  153.7910 C   0  0  0  0  0  0  0  0  0  0  0  0
  146.9652  140.2089  154.6526 O   0  0  0  0  0  0  0  0  0  0  0  0
  148.9256  141.1827  153.9161 N   0  5  0  0  0  0  0  0  0  0  0  0
  149.6758  141.1119  155.0278 C   0  0  0  0  0  0  0  0  0  0  0  0
  150.8803  140.5305  155.0565 N   0  0  0  0  0  0  0  0  0  0  0  0
  151.4816  140.5605  156.3162 C   0  0  0  0  0  0  0  0  0  0  0  0
  150.7138  141.1730  157.2706 C   0  0  0  0  0  0  0  0  0  0  0  0
  149.2024  141.7321  156.6124 S   0  0  0  0  0  0  0  0  0  0  0  0
  146.1548  135.3941  153.6042 C   0  0  0  0  0  0  0  0  0  0  0  0
  146.2493  134.0063  152.9472 C   0  0  0  0  0  0  0  0  0  0  0  0
  146.3794  132.3381  150.6739 H   0  0  0  0  0  0  0  0  0  0  0  0
  144.6692  132.4257  150.2595 H   0  0  0  0  0  0  0  0  0  0  0  0
  145.1666  131.7080  151.7862 H   0  0  0  0  0  0  0  0  0  0  0  0
  144.2645  133.9947  152.1340 H   0  0  0  0  0  0  0  0  0  0  0  0
  146.5447  134.9065  150.3229 H   0  0  0  0  0  0  0  0  0  0  0  0
  144.8400  134.9934  149.9479 H   0  0  0  0  0  0  0  0  0  0  0  0
  145.7121  137.1794  150.7429 H   0  0  0  0  0  0  0  0  0  0  0  0
  144.4564  136.5842  151.8110 H   0  0  0  0  0  0  0  0  0  0  0  0
  145.4772  138.0109  153.7278 H   0  0  0  0  0  0  0  0  0  0  0  0
  147.1994  137.8823  153.9952 H   0  0  0  0  0  0  0  0  0  0  0  0
  146.8647  138.5274  151.2044 H   0  0  0  0  0  0  0  0  0  0  0  0
  145.7120  139.5295  152.0740 H   0  0  0  0  0  0  0  0  0  0  0  0
  148.4363  140.0161  151.9131 H   0  0  0  0  0  0  0  0  0  0  0  0
  152.4594  140.1203  156.4427 H   0  0  0  0  0  0  0  0  0  0  0  0
  150.9420  141.3273  158.3143 H   0  0  0  0  0  0  0  0  0  0  0  0
  146.8756  135.4420  154.4192 H   0  0  0  0  0  0  0  0  0  0  0  0
  145.1677  135.5313  154.0484 H   0  0  0  0  0  0  0  0  0  0  0  0
  146.0297  133.2360  153.6872 H   0  0  0  0  0  0  0  0  0  0  0  0
  147.2730  133.8301  152.6135 H   0  0  0  0  0  0  0  0  0  0  0  0
  147.3355  136.3224  152.2412 H   0  0  0  0  0  0  0  0  0  0  0  0
  1  2  1  0  0  0  0
  1 19  1  0  0  0  0
  1 20  1  0  0  0  0
  1 21  1  0  0  0  0
  2 18  1  0  0  0  0
  2  3  1  0  0  0  0
  2 22  1  0  0  0  0
  3  4  1  0  0  0  0
  3 23  1  0  0  0  0
  3 24  1  0  0  0  0
  4  5  1  0  0  0  0
  4 25  1  0  0  0  0
  4 26  1  0  0  0  0
  5  6  1  0  0  0  0
  5 17  1  0  0  0  0
  5 38  1  0  0  0  0
  6  7  1  0  0  0  0
  6 27  1  0  0  0  0
  6 28  1  0  0  0  0
  7  8  1  0  0  0  0
  7 29  1  0  0  0  0
  7 30  1  0  0  0  0
  8  9  1  0  0  0  0
  8 31  1  0  0  0  0
  9 10  2  0  0  0  0
  9 11  1  0  0  0  0
 11 12  1  0  0  0  0
 12 16  1  0  0  0  0
 12 13  2  0  0  0  0
 13 14  1  0  0  0  0
 14 15  2  0  0  0  0
 14 32  1  0  0  0  0
 15 16  1  0  0  0  0
 15 33  1  0  0  0  0
 17 18  1  0  0  0  0
 17 34  1  0  0  0  0
 17 35  1  0  0  0  0
 18 36  1  0  0  0  0
 18 37  1  0  0  0  0
M  CHG  1   5   1
M  CHG  1  11  -1
M  END
> <s_m_source_file>
AV-unprocessed.smi

> <i_m_source_file_index>
2037

> <i_lp_mmshare_version>
43012

> <i_f3d_flags>
0

> <s_epik_input>
W0NIM11bQ0hdMVtDSDJdW0NIMl1OKFtDSDJdW0NIMl0xKVtDSDJdW0NIMl1bTkhdQyg9TylbTkhdYzJuW2NIXVtjSF1zMg==

> <s_epik_cmdline>
J2VwaWtfcHl0aG9uJywgJy1waCcsICc3LjAnLCAnLXRuJywgJzgnLCAnLW1hJywgJzIwMCcsICctbWV0YWxfYmluZGluZycsICctaW1hZScsICc8aW5maWxlLm1hZT4nLCAnLW9tYWUnLCAnPG91dGZpbGUubWFlPic=

> <r_lp_tautomer_probability>
0.999

> <r_epik_Ionization_Penalty>
6.22113

> <r_epik_Ionization_Penalty_Charging>
5.39005

> <r_epik_Ionization_Penalty_Neutral>
0.831074

> <r_epik_State_Penalty>
5.38997

> <r_epik_Charging_Adjusted_Penalty>
10.78

> <i_epik_Tot_Q>
0

> <i_epik_Tot_abs_Q>
2

> <r_epik_Metal_State_Penalty>
1.41601

> <b_epik_Metal_Only>
1

> <s_lp_Force_Field>
OPLS_2005

> <r_lp_Energy>
7.40316

> <b_lp_Chiralities_Consistent>
1

> <s_lp_Variant>
AV-unprocessed.smi:2037-3

> <Gold.Version>
5.8.1

> <Gold.Id.Protein>
6NUR|6NUR_protein|mol2

> <Gold.PLP.Fitness>
40.5303

> <Gold.PLP.PLP>
-30.7490

> <Gold.PLP.part.hbond>
-3.6671

> <Gold.PLP.part.metal>
0.0000

> <Gold.PLP.part.buried>
-2.4517

> <Gold.PLP.part.nonpolar>
-24.6593

> <Gold.PLP.part.repulsive>
1.0228

> <Gold.PLP.ligand.clash>
0.0000

> <Gold.PLP.ligand.torsion>
1.4674

> <Gold.PLP.Chemscore.Hbond>
4.2160

> <Gold.PLP.Chemscore.CHOScore>
0.0000

> <Gold.PLP.Chemscore.Metal>
0.0000

> <Gold.Chemscore.Hbonds>
donor molecule, donor type, donor heavy atom, donor atom, acceptor molecule, acceptor atom, score
      L1  H     5    38       P1  7948  2.00
      L1  H     8    31       P1  7957  0.60
      P1  H  7989  7998       L1    13  1.00
      P1  H  8011  8017       L1    11  0.52

> <Gold.PLP.Chemscore.Internal.Correction>
0.0680

> <Gold.Rescore>
     Score         DG    S(hbond)    S(metal)    S(lipo)     H(rot)  DE(clash)    DE(int)     intcor
     15.40     -18.27       3.03        0.00      57.01       1.57       0.11       2.76       ----

> <Gold.Chemscore.Fitness>
15.3976

> <Gold.Chemscore.DG>
-18.2732

> <Gold.Chemscore.ZeroCoef>
-5.4800

> <Gold.Chemscore.Hbond>
3.0348

> <Gold.Chemscore.Metal>
0.0000

> <Gold.Chemscore.Lipo>
57.0077

> <Gold.Chemscore.Internal_Hbond>
0.0000

> <Gold.Chemscore.DEClash>
0.1122

> <Gold.Chemscore.DEInternal>
2.7634

> <Gold.Chemscore.Rot>
1.5676

> <Gold.Chemscore.Internal.Correction>
   9.000000E+99

> <Gold.Chemscore.Hbonds>
donor molecule, donor type, donor heavy atom, donor atom, acceptor molecule, acceptor atom, score
      L1  H     5    38       P1  7948  1.00
      L1  H     8    31       P1  7957  0.60
      P1  H  7989  7998       L1    13  0.52
      P1  H  8011  8017       L1    11  0.44

> <Gold.Chemscore.Hbond.Weighted>
-10.1363

> <Gold.Chemscore.Metal.Weighted>
-0.0000

> <Gold.Chemscore.Lipo.Weighted>
-6.6699

> <Gold.Chemscore.Internal_Hbond.Weighted>
0.0000

> <Gold.Chemscore.DEClash.Weighted>
0.1122

> <Gold.Chemscore.DEInternal.Weighted>
2.7634

> <Gold.Chemscore.Rot.Weighted>
4.0130

> <Gold.Chemscore.Internal.Correction.Weighted>
   9.000000E+99

> <Gold.Protein.RotatedTorsions>
[ 6907 6896 6895 6894 ] final -137.32 input  -60.11 | X-H torsion
[ 7974 7965 7964 7962 ] final  176.00 input  175.53 | X-H torsion
[ 8008 7997 7996 7995 ] final   11.31 input   59.86 | X-H torsion
[ 10167 10162 10161 10158 ] final   98.23 input  -65.29 | X-H torsion
[ 10718 10713 10712 10709 ] final  -91.75 input   66.30 | X-H torsion
[ 10763 10752 10751 10750 ] final  -49.68 input  -60.55 | X-H torsion
[ 11005 11000 10999 10996 ] final   57.34 input  -57.11 | X-H torsion

> <Gold.Protein.ActiveResidues>
 VAL166  LYS551  ARG553  GLY616  TRP617  ASP618  TYR619  PRO620  LYS621  CYS622 
 ASP623  PHE694  ASN695  SER759  ASP760  ASP761  ALA762  ILE779  LEU786  VAL792 
 PHE793  MET794  SER795  GLU796  ALA797  LYS798  CYS799  TRP800  GLU811  SER814 

> <Gold.Protein.RotatedAtoms>
  151.0210  133.5876  159.2671 H   0  0  0  0  0  0  0  0  0  0  0  0  # atno 6907 bound_to 6896
  151.2993  135.0763  159.9242 H   0  0  0  0  0  0  0  0  0  0  0  0  # atno 6908 bound_to 6896
  152.5323  133.9895  159.7898 H   0  0  0  0  0  0  0  0  0  0  0  0  # atno 6909 bound_to 6896
  144.7192  140.0031  143.6440 H   0  0  0  0  0  0  0  0  0  0  0  0  # atno 7974 bound_to 7965
  154.8051  140.2858  155.5893 H   0  0  0  0  0  0  0  0  0  0  0  0  # atno 8008 bound_to 7997
  156.2982  140.2579  156.2857 H   0  0  0  0  0  0  0  0  0  0  0  0  # atno 8009 bound_to 7997
  154.9512  140.0379  157.2134 H   0  0  0  0  0  0  0  0  0  0  0  0  # atno 8010 bound_to 7997
  139.7728  144.6916  151.0132 H   0  0  0  0  0  0  0  0  0  0  0  0  # atno 10167 bound_to 10162
  155.9996  130.4960  150.5522 H   0  0  0  0  0  0  0  0  0  0  0  0  # atno 10718 bound_to 10713
  154.0981  135.6567  153.4863 H   0  0  0  0  0  0  0  0  0  0  0  0  # atno 10763 bound_to 10752
  153.0298  135.5218  154.7314 H   0  0  0  0  0  0  0  0  0  0  0  0  # atno 10764 bound_to 10752
  154.6458  135.2994  155.0017 H   0  0  0  0  0  0  0  0  0  0  0  0  # atno 10765 bound_to 10752
  140.0460  134.5805  155.9322 H   0  0  0  0  0  0  0  0  0  0  0  0  # atno 11005 bound_to 11000
  146.0319  139.3343  143.0750 LP  0  0  0  0  0  0  0  0  0  0  0  0  # atno 17320 bound_to 7965
  145.8442  140.9564  143.0783 LP  0  0  0  0  0  0  0  0  0  0  0  0  # atno 17321 bound_to 7965
  140.7815  143.4569  151.0332 LP  0  0  0  0  0  0  0  0  0  0  0  0  # atno 17342 bound_to 10162
  139.8253  143.7765  152.3178 LP  0  0  0  0  0  0  0  0  0  0  0  0  # atno 17343 bound_to 10162
  157.3443  131.0722  151.1763 LP  0  0  0  0  0  0  0  0  0  0  0  0  # atno 17370 bound_to 10713
  157.2601  130.6655  149.5970 LP  0  0  0  0  0  0  0  0  0  0  0  0  # atno 17371 bound_to 10713
  141.1907  133.6569  156.5424 LP  0  0  0  0  0  0  0  0  0  0  0  0  # atno 17394 bound_to 11000
  140.3993  134.7371  157.4770 LP  0  0  0  0  0  0  0  0  0  0  0  0  # atno 17395 bound_to 11000

$$$$
