AV-unprocessed.smi:3112|AV-procd|sdf|11838|dock4
  -GOLD-   2272017213D 1   1.00000     0.00000
 Structure written by MMmdl.
 37 37  0  0  0  0  0  0  0  0  2 V2000
  151.8166  143.7553  160.3129 C   0  0  0  0  0  0  0  0  0  0  0  0
  152.5194  143.5730  158.9604 C   0  0  0  0  0  0  0  0  0  0  0  0
  151.5559  143.6063  157.7602 C   0  0  2  0  0  0  0  0  0  0  0  0
  150.6103  144.6385  157.9612 O   0  0  0  0  0  0  0  0  0  0  0  0
  150.7957  142.2795  157.5949 C   0  0  0  0  0  0  0  0  0  0  0  0
  150.1235  142.2137  156.2801 N   0  3  0  0  0  0  0  0  0  0  0  0
  149.0948  141.1568  156.1326 C   0  0  1  0  0  0  0  0  0  0  0  0
  147.6823  141.7248  156.3730 C   0  0  0  0  0  0  0  0  0  0  0  0
  149.2125  140.4555  154.7533 C   0  0  2  0  0  0  0  0  0  0  0  0
  147.9150  139.7432  154.3260 C   0  0  0  0  0  0  0  0  0  0  0  0
  150.3722  139.5739  154.6551 N   0  0  0  0  0  0  0  0  0  0  0  0
  150.4131  138.2692  154.2062 C   0  0  0  0  0  0  0  0  0  0  0  0
  151.7114  137.8519  154.2743 C   0  0  0  0  0  0  0  0  0  0  0  0
  152.4045  138.9857  154.7804 C   0  0  0  0  0  0  0  0  0  0  0  0
  151.6030  140.0143  155.0037 N   0  0  0  0  0  0  0  0  0  0  0  0
  152.5416  143.7630  161.1270 H   0  0  0  0  0  0  0  0  0  0  0  0
  151.1107  142.9482  160.5090 H   0  0  0  0  0  0  0  0  0  0  0  0
  151.2685  144.6972  160.3485 H   0  0  0  0  0  0  0  0  0  0  0  0
  153.2562  144.3694  158.8496 H   0  0  0  0  0  0  0  0  0  0  0  0
  153.0823  142.6385  158.9628 H   0  0  0  0  0  0  0  0  0  0  0  0
  152.1207  143.8189  156.8510 H   0  0  0  0  0  0  0  0  0  0  0  0
  149.8923  144.5109  157.3592 H   0  0  0  0  0  0  0  0  0  0  0  0
  151.4941  141.4447  157.6650 H   0  0  0  0  0  0  0  0  0  0  0  0
  150.0726  142.1607  158.4018 H   0  0  0  0  0  0  0  0  0  0  0  0
  149.7002  143.1093  156.0816 H   0  0  0  0  0  0  0  0  0  0  0  0
  149.2880  140.3997  156.8942 H   0  0  0  0  0  0  0  0  0  0  0  0
  146.9221  140.9618  156.2034 H   0  0  0  0  0  0  0  0  0  0  0  0
  147.4654  142.5613  155.7078 H   0  0  0  0  0  0  0  0  0  0  0  0
  147.5561  142.0764  157.3966 H   0  0  0  0  0  0  0  0  0  0  0  0
  149.3735  141.2451  154.0175 H   0  0  0  0  0  0  0  0  0  0  0  0
  147.0732  140.4360  154.3196 H   0  0  0  0  0  0  0  0  0  0  0  0
  147.6603  138.9195  154.9934 H   0  0  0  0  0  0  0  0  0  0  0  0
  148.0091  139.3336  153.3198 H   0  0  0  0  0  0  0  0  0  0  0  0
  149.5243  137.7504  153.8778 H   0  0  0  0  0  0  0  0  0  0  0  0
  152.1062  136.8841  154.0027 H   0  0  0  0  0  0  0  0  0  0  0  0
  153.4590  139.0920  154.9888 H   0  0  0  0  0  0  0  0  0  0  0  0
  150.8367  142.0438  155.5858 H   0  0  0  0  0  0  0  0  0  0  0  0
  1  2  1  0  0  0  0
  1 16  1  0  0  0  0
  1 17  1  0  0  0  0
  1 18  1  0  0  0  0
  2  3  1  0  0  0  0
  2 19  1  0  0  0  0
  2 20  1  0  0  0  0
  3  4  1  0  0  0  0
  3  5  1  0  0  0  0
  3 21  1  0  0  0  0
  4 22  1  0  0  0  0
  5  6  1  0  0  0  0
  5 23  1  0  0  0  0
  5 24  1  0  0  0  0
  6  7  1  0  0  0  0
  6 25  1  0  0  0  0
  6 37  1  0  0  0  0
  7  8  1  0  0  0  0
  7  9  1  0  0  0  0
  7 26  1  0  0  0  0
  8 27  1  0  0  0  0
  8 28  1  0  0  0  0
  8 29  1  0  0  0  0
  9 10  1  0  0  0  0
  9 11  1  0  0  0  0
  9 30  1  0  0  0  0
 10 31  1  0  0  0  0
 10 32  1  0  0  0  0
 10 33  1  0  0  0  0
 11 15  1  0  0  0  0
 11 12  1  0  0  0  0
 12 13  2  0  0  0  0
 12 34  1  0  0  0  0
 13 14  1  0  0  0  0
 13 35  1  0  0  0  0
 14 15  2  0  0  0  0
 14 36  1  0  0  0  0
M  CHG  1   6   1
M  END
> <s_m_source_file>
AV-unprocessed.smi

> <i_m_source_file_index>
3112

> <i_lp_mmshare_version>
43012

> <i_f3d_flags>
0

> <s_epik_input>
W0NIM11bQ0gyXVtDQEhdKFtPSF0pW0NIMl1bTkhdW0NASF0oW0NIM10pW0NASF0oW0NIM10pbjFbY0hdW2NIXVtjSF1uMQ==

> <s_epik_cmdline>
J2VwaWtfcHl0aG9uJywgJy1waCcsICc3LjAnLCAnLXRuJywgJzgnLCAnLW1hJywgJzIwMCcsICctbWV0YWxfYmluZGluZycsICctaW1hZScsICc8aW5maWxlLm1hZT4nLCAnLW9tYWUnLCAnPG91dGZpbGUubWFlPic=

> <r_lp_tautomer_probability>
1

> <r_epik_Ionization_Penalty>
0.0154842

> <r_epik_Ionization_Penalty_Charging>
0.0154724

> <r_epik_Ionization_Penalty_Neutral>
1.17979e-05

> <r_epik_State_Penalty>
0.0121607

> <r_epik_Charging_Adjusted_Penalty>
0.0276331

> <i_epik_Tot_Q>
1

> <i_epik_Tot_abs_Q>
1

> <r_epik_Metal_State_Penalty>
0.0121863

> <b_epik_Metal_Only>
0

> <s_lp_Force_Field>
OPLS_2005

> <r_lp_Energy>
12.0711

> <b_lp_Chiralities_Consistent>
1

> <s_lp_Variant>
AV-unprocessed.smi:3112-3

> <Gold.Version>
5.8.1

> <Gold.Id.Protein>
6NUR|6NUR_protein|mol2

> <Gold.PLP.Fitness>
46.0450

> <Gold.PLP.PLP>
-34.6805

> <Gold.PLP.part.hbond>
-3.6461

> <Gold.PLP.part.metal>
0.0000

> <Gold.PLP.part.buried>
-4.2562

> <Gold.PLP.part.nonpolar>
-28.2550

> <Gold.PLP.part.repulsive>
0.1405

> <Gold.PLP.ligand.clash>
0.0000

> <Gold.PLP.ligand.torsion>
1.3142

> <Gold.PLP.Chemscore.Hbond>
3.6000

> <Gold.PLP.Chemscore.CHOScore>
0.9880

> <Gold.PLP.Chemscore.Metal>
0.0000

> <Gold.Chemscore.Hbonds>
donor molecule, donor type, donor heavy atom, donor atom, acceptor molecule, acceptor atom, score
      L1  H     4    22       P1  8028  0.95
      L1  H     6    25       P1  8028  2.00
      P1  H  7989  7998       L1    15  0.40
      L1  C    12    34       P1  7948  0.93

> <Gold.PLP.Chemscore.Internal.Correction>
0.2289

> <Gold.Rescore>
     Score         DG    S(hbond)    S(metal)    S(lipo)     H(rot)  DE(clash)    DE(int)     intcor
     14.62     -16.96       2.22        0.00      87.52       2.41       0.16       2.18       ----

> <Gold.Chemscore.Fitness>
14.6165

> <Gold.Chemscore.DG>
-16.9601

> <Gold.Chemscore.ZeroCoef>
-5.4800

> <Gold.Chemscore.Hbond>
2.2175

> <Gold.Chemscore.Metal>
0.0000

> <Gold.Chemscore.Lipo>
87.5249

> <Gold.Chemscore.Internal_Hbond>
0.0000

> <Gold.Chemscore.DEClash>
0.1613

> <Gold.Chemscore.DEInternal>
2.1823

> <Gold.Chemscore.Rot>
2.4089

> <Gold.Chemscore.Internal.Correction>
   9.000000E+99

> <Gold.Chemscore.Hbonds>
donor molecule, donor type, donor heavy atom, donor atom, acceptor molecule, acceptor atom, score
      L1  H     4    22       P1  8028  0.21
      L1  H     6    25       P1  8028  1.00

> <Gold.Chemscore.Hbond.Weighted>
-7.4063

> <Gold.Chemscore.Metal.Weighted>
-0.0000

> <Gold.Chemscore.Lipo.Weighted>
-10.2404

> <Gold.Chemscore.Internal_Hbond.Weighted>
0.0000

> <Gold.Chemscore.DEClash.Weighted>
0.1613

> <Gold.Chemscore.DEInternal.Weighted>
2.1823

> <Gold.Chemscore.Rot.Weighted>
6.1667

> <Gold.Chemscore.Internal.Correction.Weighted>
   9.000000E+99

> <Gold.Protein.RotatedTorsions>
[ 6907 6896 6895 6894 ] final   36.73 input  -60.11 | X-H torsion
[ 7974 7965 7964 7962 ] final   30.16 input  175.53 | X-H torsion
[ 8008 7997 7996 7995 ] final -168.88 input   59.86 | X-H torsion
[ 10167 10162 10161 10158 ] final -146.29 input  -65.29 | X-H torsion
[ 10718 10713 10712 10709 ] final    3.78 input   66.30 | X-H torsion
[ 10763 10752 10751 10750 ] final    4.69 input  -60.55 | X-H torsion
[ 11005 11000 10999 10996 ] final  149.62 input  -57.11 | X-H torsion

> <Gold.Protein.ActiveResidues>
 VAL166  LYS551  ARG553  GLY616  TRP617  ASP618  TYR619  PRO620  LYS621  CYS622 
 ASP623  PHE694  ASN695  SER759  ASP760  ASP761  ALA762  ILE779  LEU786  VAL792 
 PHE793  MET794  SER795  GLU796  ALA797  LYS798  CYS799  TRP800  GLU811  SER814 

> <Gold.Protein.RotatedAtoms>
  152.1336  134.9116  160.0557 H   0  0  0  0  0  0  0  0  0  0  0  0  # atno 6907 bound_to 6896
  152.0210  133.3894  159.4266 H   0  0  0  0  0  0  0  0  0  0  0  0  # atno 6908 bound_to 6896
  150.6858  134.3547  159.4968 H   0  0  0  0  0  0  0  0  0  0  0  0  # atno 6909 bound_to 6896
  146.1628  139.6826  142.9021 H   0  0  0  0  0  0  0  0  0  0  0  0  # atno 7974 bound_to 7965
  155.8974  140.1035  157.1375 H   0  0  0  0  0  0  0  0  0  0  0  0  # atno 8008 bound_to 7997
  154.4022  140.1299  156.4456 H   0  0  0  0  0  0  0  0  0  0  0  0  # atno 8009 bound_to 7997
  155.7463  140.3466  155.5131 H   0  0  0  0  0  0  0  0  0  0  0  0  # atno 8010 bound_to 7997
  139.7727  143.8215  152.2627 H   0  0  0  0  0  0  0  0  0  0  0  0  # atno 10167 bound_to 10162
  156.8828  130.5660  149.5652 H   0  0  0  0  0  0  0  0  0  0  0  0  # atno 10718 bound_to 10713
  153.2682  135.6929  153.7507 H   0  0  0  0  0  0  0  0  0  0  0  0  # atno 10763 bound_to 10752
  153.6541  135.3371  155.3109 H   0  0  0  0  0  0  0  0  0  0  0  0  # atno 10764 bound_to 10752
  154.8455  135.4461  154.1696 H   0  0  0  0  0  0  0  0  0  0  0  0  # atno 10765 bound_to 10752
  140.1060  134.8953  157.1867 H   0  0  0  0  0  0  0  0  0  0  0  0  # atno 11005 bound_to 11000
  145.4543  141.0430  143.2787 LP  0  0  0  0  0  0  0  0  0  0  0  0  # atno 17320 bound_to 7965
  144.8051  139.6066  143.7054 LP  0  0  0  0  0  0  0  0  0  0  0  0  # atno 17321 bound_to 7965
  139.8254  144.7277  150.9519 LP  0  0  0  0  0  0  0  0  0  0  0  0  # atno 17342 bound_to 10162
  140.7815  143.4120  151.0978 LP  0  0  0  0  0  0  0  0  0  0  0  0  # atno 17343 bound_to 10162
  156.0668  130.5710  150.9305 LP  0  0  0  0  0  0  0  0  0  0  0  0  # atno 17370 bound_to 10713
  157.6130  131.0935  150.8761 LP  0  0  0  0  0  0  0  0  0  0  0  0  # atno 17371 bound_to 10713
  140.3155  134.2976  155.7257 LP  0  0  0  0  0  0  0  0  0  0  0  0  # atno 17394 bound_to 11000
  141.2118  133.7677  156.9837 LP  0  0  0  0  0  0  0  0  0  0  0  0  # atno 17395 bound_to 11000

$$$$
