AV-unprocessed.smi:2091|AV-procd|sdf|8538|dock8
  -GOLD-   2272011263D 1   1.00000     0.00000
 Structure written by MMmdl.
 36 37  0  0  0  0  0  0  0  0  1 V2000
  151.6681  139.8242  158.4051 O   0  0  0  0  0  0  0  0  0  0  0  0
  151.8030  140.4705  157.3653 C   0  0  0  0  0  0  0  0  0  0  0  0
  151.9850  139.7556  156.0197 C   0  0  0  0  0  0  0  0  0  0  0  0
  150.7501  139.7256  155.2234 N   0  0  0  0  0  0  0  0  0  0  0  0
  149.7429  140.6519  155.4536 C   0  0  0  0  0  0  0  0  0  0  0  0
  148.5795  140.6756  154.7610 C   0  0  0  0  0  0  0  0  0  0  0  0
  148.3262  139.6971  153.7090 C   0  0  0  0  0  0  0  0  0  0  0  0
  147.3068  139.6392  153.0252 O   0  0  0  0  0  0  0  0  0  0  0  0
  149.3617  138.7803  153.5099 N   0  0  0  0  0  0  0  0  0  0  0  0
  150.5619  138.7488  154.2214 C   0  0  0  0  0  0  0  0  0  0  0  0
  151.4094  137.8935  153.9672 O   0  0  0  0  0  0  0  0  0  0  0  0
  151.7814  141.8123  157.3250 N   0  0  0  0  0  0  0  0  0  0  0  0
  151.6332  142.6982  158.4818 C   0  0  2  0  0  0  0  0  0  0  0  0
  151.8094  144.1499  157.9798 C   0  0  0  0  0  0  0  0  0  0  0  0
  151.1762  145.2079  158.8996 C   0  0  0  0  0  0  0  0  0  0  0  0
  151.8133  145.3213  160.2926 C   0  0  0  0  0  0  0  0  0  0  0  0
  151.6860  144.0410  161.1354 C   0  0  0  0  0  0  0  0  0  0  0  0
  152.6473  143.0225  160.7340 N   0  0  0  0  0  0  0  0  0  0  0  0
  152.7097  142.3932  159.5506 C   0  0  0  0  0  0  0  0  0  0  0  0
  153.6139  141.5898  159.3220 O   0  0  0  0  0  0  0  0  0  0  0  0
  149.2309  138.0817  152.7929 H   0  0  0  0  0  0  0  0  0  0  0  0
  152.7782  140.2660  155.4718 H   0  0  0  0  0  0  0  0  0  0  0  0
  152.3528  138.7396  156.1783 H   0  0  0  0  0  0  0  0  0  0  0  0
  149.8856  141.3938  156.2266 H   0  0  0  0  0  0  0  0  0  0  0  0
  147.8322  141.4223  154.9869 H   0  0  0  0  0  0  0  0  0  0  0  0
  151.9039  142.2579  156.4274 H   0  0  0  0  0  0  0  0  0  0  0  0
  150.6362  142.5645  158.9054 H   0  0  0  0  0  0  0  0  0  0  0  0
  152.8628  144.3796  157.8094 H   0  0  0  0  0  0  0  0  0  0  0  0
  151.3292  144.2493  157.0050 H   0  0  0  0  0  0  0  0  0  0  0  0
  151.2447  146.1792  158.4087 H   0  0  0  0  0  0  0  0  0  0  0  0
  150.1098  145.0047  159.0041 H   0  0  0  0  0  0  0  0  0  0  0  0
  152.8610  145.6136  160.2068 H   0  0  0  0  0  0  0  0  0  0  0  0
  151.3195  146.1354  160.8242 H   0  0  0  0  0  0  0  0  0  0  0  0
  151.8892  144.2786  162.1800 H   0  0  0  0  0  0  0  0  0  0  0  0
  150.6703  143.6444  161.1033 H   0  0  0  0  0  0  0  0  0  0  0  0
  153.3595  142.7921  161.4119 H   0  0  0  0  0  0  0  0  0  0  0  0
  1  2  2  0  0  0  0
  2  3  1  0  0  0  0
  2 12  1  0  0  0  0
  3  4  1  0  0  0  0
  3 22  1  0  0  0  0
  3 23  1  0  0  0  0
  4 10  1  0  0  0  0
  4  5  1  0  0  0  0
  5  6  2  0  0  0  0
  5 24  1  0  0  0  0
  6  7  1  0  0  0  0
  6 25  1  0  0  0  0
  7  8  2  0  0  0  0
  7  9  1  0  0  0  0
  9 21  1  0  0  0  0
  9 10  1  0  0  0  0
 10 11  2  0  0  0  0
 12 13  1  0  0  0  0
 12 26  1  0  0  0  0
 13 19  1  0  0  0  0
 13 14  1  0  0  0  0
 13 27  1  0  0  0  0
 14 15  1  0  0  0  0
 14 28  1  0  0  0  0
 14 29  1  0  0  0  0
 15 16  1  0  0  0  0
 15 30  1  0  0  0  0
 15 31  1  0  0  0  0
 16 17  1  0  0  0  0
 16 32  1  0  0  0  0
 16 33  1  0  0  0  0
 17 18  1  0  0  0  0
 17 34  1  0  0  0  0
 17 35  1  0  0  0  0
 18 19  1  0  0  0  0
 18 36  1  0  0  0  0
 19 20  2  0  0  0  0
M  END
> <s_m_source_file>
AV-unprocessed.smi

> <i_m_source_file_index>
2091

> <i_lp_mmshare_version>
43012

> <i_f3d_flags>
0

> <s_epik_input>
Tz1jMVtuSF1jKD1PKVtjSF1bY0hdbjFbQ0gyXUMoPU8pW05IXVtDQEBIXTJbQ0gyXVtDSDJdW0NIMl1bQ0gyXVtOSF1DMj1P

> <s_epik_cmdline>
J2VwaWtfcHl0aG9uJywgJy1waCcsICc3LjAnLCAnLXRuJywgJzgnLCAnLW1hJywgJzIwMCcsICctbWV0YWxfYmluZGluZycsICctaW1hZScsICc8aW5maWxlLm1hZT4nLCAnLW9tYWUnLCAnPG91dGZpbGUubWFlPic=

> <r_lp_tautomer_probability>
0.999537

> <r_epik_Ionization_Penalty>
0.00356328

> <r_epik_Ionization_Penalty_Charging>
0.00356323

> <r_epik_Ionization_Penalty_Neutral>
5.33217e-08

> <r_epik_State_Penalty>
0.00253125

> <r_epik_Charging_Adjusted_Penalty>
0.00609448

> <i_epik_Tot_Q>
0

> <i_epik_Tot_abs_Q>
0

> <r_epik_Metal_State_Penalty>
0.368636

> <b_epik_Metal_Only>
0

> <s_lp_Force_Field>
OPLS_2005

> <r_lp_Energy>
10.0871

> <b_lp_Chiralities_Consistent>
1

> <s_lp_Variant>
AV-unprocessed.smi:2091-1

> <Gold.Version>
5.8.1

> <Gold.Id.Protein>
6NUR|6NUR_protein|mol2

> <Gold.PLP.Fitness>
41.6595

> <Gold.PLP.PLP>
-39.8447

> <Gold.PLP.part.hbond>
-2.0000

> <Gold.PLP.part.metal>
0.0000

> <Gold.PLP.part.buried>
-3.7721

> <Gold.PLP.part.nonpolar>
-35.6402

> <Gold.PLP.part.repulsive>
1.6209

> <Gold.PLP.ligand.clash>
0.0000

> <Gold.PLP.ligand.torsion>
0.5934

> <Gold.PLP.Chemscore.Hbond>
1.0000

> <Gold.PLP.Chemscore.CHOScore>
0.0000

> <Gold.PLP.Chemscore.Metal>
0.0000

> <Gold.Chemscore.Hbonds>
donor molecule, donor type, donor heavy atom, donor atom, acceptor molecule, acceptor atom, score
      L1  H     9    21       P1  7948  0.94

> <Gold.PLP.Chemscore.Internal.Correction>
0.0015

> <Gold.Rescore>
     Score         DG    S(hbond)    S(metal)    S(lipo)     H(rot)  DE(clash)    DE(int)     intcor
     12.49     -14.50       1.67        0.00      70.57       1.88       0.47       1.54       ----

> <Gold.Chemscore.Fitness>
12.4883

> <Gold.Chemscore.DG>
-14.5011

> <Gold.Chemscore.ZeroCoef>
-5.4800

> <Gold.Chemscore.Hbond>
1.6733

> <Gold.Chemscore.Metal>
0.0000

> <Gold.Chemscore.Lipo>
70.5673

> <Gold.Chemscore.Internal_Hbond>
0.0000

> <Gold.Chemscore.DEClash>
0.4718

> <Gold.Chemscore.DEInternal>
1.5410

> <Gold.Chemscore.Rot>
1.8844

> <Gold.Chemscore.Internal.Correction>
   9.000000E+99

> <Gold.Chemscore.Hbonds>
donor molecule, donor type, donor heavy atom, donor atom, acceptor molecule, acceptor atom, score
      L1  H     9    21       P1  7948  0.86

> <Gold.Chemscore.Hbond.Weighted>
-5.5889

> <Gold.Chemscore.Metal.Weighted>
-0.0000

> <Gold.Chemscore.Lipo.Weighted>
-8.2564

> <Gold.Chemscore.Internal_Hbond.Weighted>
0.0000

> <Gold.Chemscore.DEClash.Weighted>
0.4718

> <Gold.Chemscore.DEInternal.Weighted>
1.5410

> <Gold.Chemscore.Rot.Weighted>
4.8242

> <Gold.Chemscore.Internal.Correction.Weighted>
   9.000000E+99

> <Gold.Protein.RotatedTorsions>
[ 6907 6896 6895 6894 ] final  -57.52 input  -60.11 | X-H torsion
[ 7974 7965 7964 7962 ] final   92.65 input  175.53 | X-H torsion
[ 8008 7997 7996 7995 ] final   94.72 input   59.86 | X-H torsion
[ 10167 10162 10161 10158 ] final    3.68 input  -65.29 | X-H torsion
[ 10718 10713 10712 10709 ] final  -14.59 input   66.30 | X-H torsion
[ 10763 10752 10751 10750 ] final   43.64 input  -60.55 | X-H torsion
[ 11005 11000 10999 10996 ] final  -75.17 input  -57.11 | X-H torsion

> <Gold.Protein.ActiveResidues>
 VAL166  LYS551  ARG553  GLY616  TRP617  ASP618  TYR619  PRO620  LYS621  CYS622 
 ASP623  PHE694  ASN695  SER759  ASP760  ASP761  ALA762  ILE779  LEU786  VAL792 
 PHE793  MET794  SER795  GLU796  ALA797  LYS798  CYS799  TRP800  GLU811  SER814 

> <Gold.Protein.RotatedAtoms>
  150.8079  134.7216  159.6661 H   0  0  0  0  0  0  0  0  0  0  0  0  # atno 6907 bound_to 6896
  152.4199  134.5971  159.9999 H   0  0  0  0  0  0  0  0  0  0  0  0  # atno 6908 bound_to 6896
  151.6189  133.3303  159.3119 H   0  0  0  0  0  0  0  0  0  0  0  0  # atno 6909 bound_to 6896
  145.4895  139.2277  143.2838 H   0  0  0  0  0  0  0  0  0  0  0  0  # atno 7974 bound_to 7965
  156.0611  140.3296  155.7462 H   0  0  0  0  0  0  0  0  0  0  0  0  # atno 8008 bound_to 7997
  155.5454  140.0605  157.2879 H   0  0  0  0  0  0  0  0  0  0  0  0  # atno 8009 bound_to 7997
  154.4482  140.1903  156.0621 H   0  0  0  0  0  0  0  0  0  0  0  0  # atno 8010 bound_to 7997
  140.6573  143.7393  150.7677 H   0  0  0  0  0  0  0  0  0  0  0  0  # atno 10167 bound_to 10162
  156.6138  130.4857  149.6191 H   0  0  0  0  0  0  0  0  0  0  0  0  # atno 10718 bound_to 10713
  152.9856  135.6095  154.3144 H   0  0  0  0  0  0  0  0  0  0  0  0  # atno 10763 bound_to 10752
  154.2857  135.2776  155.2679 H   0  0  0  0  0  0  0  0  0  0  0  0  # atno 10764 bound_to 10752
  154.4997  135.5870  153.6578 H   0  0  0  0  0  0  0  0  0  0  0  0  # atno 10765 bound_to 10752
  141.1643  133.6937  156.7476 H   0  0  0  0  0  0  0  0  0  0  0  0  # atno 11005 bound_to 11000
  146.2293  140.5688  142.8982 LP  0  0  0  0  0  0  0  0  0  0  0  0  # atno 17320 bound_to 7965
  144.7842  140.5902  143.6585 LP  0  0  0  0  0  0  0  0  0  0  0  0  # atno 17321 bound_to 7965
  140.1055  143.4747  152.2400 LP  0  0  0  0  0  0  0  0  0  0  0  0  # atno 17342 bound_to 10162
  139.5799  144.7505  151.3667 LP  0  0  0  0  0  0  0  0  0  0  0  0  # atno 17343 bound_to 10162
  156.2368  130.6827  151.1517 LP  0  0  0  0  0  0  0  0  0  0  0  0  # atno 17370 bound_to 10713
  157.7247  131.0658  150.5985 LP  0  0  0  0  0  0  0  0  0  0  0  0  # atno 17371 bound_to 10713
  140.2628  134.8453  157.3774 LP  0  0  0  0  0  0  0  0  0  0  0  0  # atno 17394 bound_to 11000
  140.1595  134.4747  155.7904 LP  0  0  0  0  0  0  0  0  0  0  0  0  # atno 17395 bound_to 11000

$$$$
