AV-unprocessed.smi:3308|AV-procd|sdf|12711|dock3
  -GOLD-   2272019 43D 1   1.00000     0.00000
 Structure written by MMmdl.
 41 42  0  0  0  0  0  0  0  0  2 V2000
  147.5684  141.9317  154.6111 C   0  0  0  0  0  0  0  0  0  0  0  0
  149.0031  141.3732  154.5372 C   0  0  1  0  0  0  0  0  0  0  0  0
  149.8488  141.9412  155.6138 N   0  3  0  0  0  0  0  0  0  0  0  0
  149.3920  141.6774  156.9957 C   0  0  0  0  0  0  0  0  0  0  0  0
  150.5483  141.2793  157.9238 C   0  0  0  0  0  0  0  0  0  0  0  0
  150.6478  140.1133  158.3090 O   0  0  0  0  0  0  0  0  0  0  0  0
  151.4262  142.2347  158.2933 N   0  0  0  0  0  0  0  0  0  0  0  0
  151.3348  143.6276  157.8596 C   0  0  0  0  0  0  0  0  0  0  0  0
  152.3494  144.3936  158.7087 C   0  0  0  0  0  0  0  0  0  0  0  0
  153.3796  143.3422  159.0973 C   0  0  0  0  0  0  0  0  0  0  0  0
  152.5799  142.0408  159.1717 C   0  0  0  0  0  0  0  0  0  0  0  0
  149.0262  139.8222  154.5704 C   0  0  1  0  0  0  0  0  0  0  0  0
  148.1308  139.1816  153.4928 C   0  0  0  0  0  0  0  0  0  0  0  0
  150.3771  139.2686  154.5521 N   0  0  0  0  0  0  0  0  0  0  0  0
  150.7745  138.0083  154.1529 C   0  0  0  0  0  0  0  0  0  0  0  0
  152.1269  137.9308  154.3240 C   0  0  0  0  0  0  0  0  0  0  0  0
  152.4756  139.2081  154.8436 C   0  0  0  0  0  0  0  0  0  0  0  0
  151.4278  140.0035  154.9838 N   0  0  0  0  0  0  0  0  0  0  0  0
  146.9306  141.4667  153.8588 H   0  0  0  0  0  0  0  0  0  0  0  0
  147.5426  143.0057  154.4286 H   0  0  0  0  0  0  0  0  0  0  0  0
  147.1151  141.7515  155.5865 H   0  0  0  0  0  0  0  0  0  0  0  0
  149.4349  141.6789  153.5830 H   0  0  0  0  0  0  0  0  0  0  0  0
  150.7928  141.5980  155.5039 H   0  0  0  0  0  0  0  0  0  0  0  0
  148.9073  142.5725  157.3877 H   0  0  0  0  0  0  0  0  0  0  0  0
  148.6565  140.8733  156.9914 H   0  0  0  0  0  0  0  0  0  0  0  0
  151.5972  143.6879  156.8024 H   0  0  0  0  0  0  0  0  0  0  0  0
  150.3291  144.0329  157.9829 H   0  0  0  0  0  0  0  0  0  0  0  0
  152.7880  145.2414  158.1815 H   0  0  0  0  0  0  0  0  0  0  0  0
  151.8610  144.7755  159.6063 H   0  0  0  0  0  0  0  0  0  0  0  0
  154.1329  143.2637  158.3121 H   0  0  0  0  0  0  0  0  0  0  0  0
  153.8931  143.5774  160.0301 H   0  0  0  0  0  0  0  0  0  0  0  0
  152.2283  141.8688  160.1900 H   0  0  0  0  0  0  0  0  0  0  0  0
  153.1938  141.1902  158.8731 H   0  0  0  0  0  0  0  0  0  0  0  0
  148.5946  139.5270  155.5282 H   0  0  0  0  0  0  0  0  0  0  0  0
  147.1033  139.5366  153.5767 H   0  0  0  0  0  0  0  0  0  0  0  0
  148.1109  138.0964  153.5985 H   0  0  0  0  0  0  0  0  0  0  0  0
  148.4769  139.4073  152.4839 H   0  0  0  0  0  0  0  0  0  0  0  0
  150.0696  137.2776  153.7843 H   0  0  0  0  0  0  0  0  0  0  0  0
  152.7697  137.0894  154.1107 H   0  0  0  0  0  0  0  0  0  0  0  0
  153.4514  139.5772  155.1235 H   0  0  0  0  0  0  0  0  0  0  0  0
  149.8669  142.9440  155.4925 H   0  0  0  0  0  0  0  0  0  0  0  0
  1  2  1  0  0  0  0
  1 19  1  0  0  0  0
  1 20  1  0  0  0  0
  1 21  1  0  0  0  0
  2  3  1  0  0  0  0
  2 12  1  0  0  0  0
  2 22  1  0  0  0  0
  3  4  1  0  0  0  0
  3 23  1  0  0  0  0
  3 41  1  0  0  0  0
  4  5  1  0  0  0  0
  4 24  1  0  0  0  0
  4 25  1  0  0  0  0
  5  6  2  0  0  0  0
  5  7  1  0  0  0  0
  7 11  1  0  0  0  0
  7  8  1  0  0  0  0
  8  9  1  0  0  0  0
  8 26  1  0  0  0  0
  8 27  1  0  0  0  0
  9 10  1  0  0  0  0
  9 28  1  0  0  0  0
  9 29  1  0  0  0  0
 10 11  1  0  0  0  0
 10 30  1  0  0  0  0
 10 31  1  0  0  0  0
 11 32  1  0  0  0  0
 11 33  1  0  0  0  0
 12 13  1  0  0  0  0
 12 14  1  0  0  0  0
 12 34  1  0  0  0  0
 13 35  1  0  0  0  0
 13 36  1  0  0  0  0
 13 37  1  0  0  0  0
 14 18  1  0  0  0  0
 14 15  1  0  0  0  0
 15 16  2  0  0  0  0
 15 38  1  0  0  0  0
 16 17  1  0  0  0  0
 16 39  1  0  0  0  0
 17 18  2  0  0  0  0
 17 40  1  0  0  0  0
M  CHG  1   3   1
M  END
> <s_m_source_file>
AV-unprocessed.smi

> <i_m_source_file_index>
3308

> <i_lp_mmshare_version>
43012

> <i_f3d_flags>
0

> <s_epik_input>
bjFbY0hdW2NIXVtjSF1uMVtDQEBIXShbQ0gzXSlbQ0BIXShbQ0gzXSlbTkhdW0NIMl1DKD1PKU4yW0NIMl1bQ0gyXVtDSDJdW0NIMl0y

> <s_epik_cmdline>
J2VwaWtfcHl0aG9uJywgJy1waCcsICc3LjAnLCAnLXRuJywgJzgnLCAnLW1hJywgJzIwMCcsICctbWV0YWxfYmluZGluZycsICctaW1hZScsICc8aW5maWxlLm1hZT4nLCAnLW9tYWUnLCAnPG91dGZpbGUubWFlPic=

> <r_lp_tautomer_probability>
1

> <r_epik_Ionization_Penalty>
0.141739

> <r_epik_Ionization_Penalty_Charging>
0.141731

> <r_epik_Ionization_Penalty_Neutral>
8.82171e-06

> <r_epik_State_Penalty>
0.131043

> <r_epik_Charging_Adjusted_Penalty>
0.272773

> <i_epik_Tot_Q>
1

> <i_epik_Tot_abs_Q>
1

> <r_epik_Metal_State_Penalty>
0.131385

> <b_epik_Metal_Only>
0

> <s_lp_Force_Field>
OPLS_2005

> <r_lp_Energy>
32.7398

> <b_lp_Chiralities_Consistent>
1

> <s_lp_Variant>
AV-unprocessed.smi:3308-4

> <Gold.Version>
5.8.1

> <Gold.Id.Protein>
6NUR|6NUR_protein|mol2

> <Gold.PLP.Fitness>
51.6387

> <Gold.PLP.PLP>
-42.8520

> <Gold.PLP.part.hbond>
-2.0000

> <Gold.PLP.part.metal>
0.0000

> <Gold.PLP.part.buried>
-2.1720

> <Gold.PLP.part.nonpolar>
-40.0093

> <Gold.PLP.part.repulsive>
0.2070

> <Gold.PLP.ligand.clash>
0.0000

> <Gold.PLP.ligand.torsion>
1.1683

> <Gold.PLP.Chemscore.Hbond>
2.6400

> <Gold.PLP.Chemscore.CHOScore>
1.0000

> <Gold.PLP.Chemscore.Metal>
0.0000

> <Gold.Chemscore.Hbonds>
donor molecule, donor type, donor heavy atom, donor atom, acceptor molecule, acceptor atom, score
      L1  H     3    41       P1  8028  1.93
      P1  H  7989  7998       L1    18  0.64
      L1  C    15    38       P1  7948  1.00
      L1  C    15    38       P1  7949  0.02

> <Gold.PLP.Chemscore.Internal.Correction>
0.2033

> <Gold.Rescore>
     Score         DG    S(hbond)    S(metal)    S(lipo)     H(rot)  DE(clash)    DE(int)     intcor
     14.06     -16.63       0.97        0.00     106.75       1.78       0.23       2.34       ----

> <Gold.Chemscore.Fitness>
14.0570

> <Gold.Chemscore.DG>
-16.6298

> <Gold.Chemscore.ZeroCoef>
-5.4800

> <Gold.Chemscore.Hbond>
0.9660

> <Gold.Chemscore.Metal>
0.0000

> <Gold.Chemscore.Lipo>
106.7477

> <Gold.Chemscore.Internal_Hbond>
0.0000

> <Gold.Chemscore.DEClash>
0.2319

> <Gold.Chemscore.DEInternal>
2.3408

> <Gold.Chemscore.Rot>
1.7836

> <Gold.Chemscore.Internal.Correction>
   9.000000E+99

> <Gold.Chemscore.Hbonds>
donor molecule, donor type, donor heavy atom, donor atom, acceptor molecule, acceptor atom, score
      L1  H     3    41       P1  8028  0.85
      P1  H  7989  7998       L1    18  0.01

> <Gold.Chemscore.Hbond.Weighted>
-3.2263

> <Gold.Chemscore.Metal.Weighted>
-0.0000

> <Gold.Chemscore.Lipo.Weighted>
-12.4895

> <Gold.Chemscore.Internal_Hbond.Weighted>
0.0000

> <Gold.Chemscore.DEClash.Weighted>
0.2319

> <Gold.Chemscore.DEInternal.Weighted>
2.3408

> <Gold.Chemscore.Rot.Weighted>
4.5660

> <Gold.Chemscore.Internal.Correction.Weighted>
   9.000000E+99

> <Gold.Protein.RotatedTorsions>
[ 6907 6896 6895 6894 ] final  -88.23 input  -60.11 | X-H torsion
[ 7974 7965 7964 7962 ] final -105.07 input  175.53 | X-H torsion
[ 8008 7997 7996 7995 ] final -129.15 input   59.86 | X-H torsion
[ 10167 10162 10161 10158 ] final  -29.10 input  -65.29 | X-H torsion
[ 10718 10713 10712 10709 ] final   41.38 input   66.30 | X-H torsion
[ 10763 10752 10751 10750 ] final -101.21 input  -60.55 | X-H torsion
[ 11005 11000 10999 10996 ] final   45.24 input  -57.11 | X-H torsion

> <Gold.Protein.ActiveResidues>
 VAL166  LYS551  ARG553  GLY616  TRP617  ASP618  TYR619  PRO620  LYS621  CYS622 
 ASP623  PHE694  ASN695  SER759  ASP760  ASP761  ALA762  ILE779  LEU786  VAL792 
 PHE793  MET794  SER795  GLU796  ALA797  LYS798  CYS799  TRP800  GLU811  SER814 

> <Gold.Protein.RotatedAtoms>
  150.6868  134.2774  159.4612 H   0  0  0  0  0  0  0  0  0  0  0  0  # atno 6907 bound_to 6896
  152.0691  134.9543  160.0584 H   0  0  0  0  0  0  0  0  0  0  0  0  # atno 6908 bound_to 6896
  152.0940  133.4180  159.4593 H   0  0  0  0  0  0  0  0  0  0  0  0  # atno 6909 bound_to 6896
  145.2351  140.9185  143.3182 H   0  0  0  0  0  0  0  0  0  0  0  0  # atno 7974 bound_to 7965
  155.2745  140.0441  157.3010 H   0  0  0  0  0  0  0  0  0  0  0  0  # atno 8008 bound_to 7997
  154.5633  140.2352  155.8270 H   0  0  0  0  0  0  0  0  0  0  0  0  # atno 8009 bound_to 7997
  156.2065  140.3011  155.9646 H   0  0  0  0  0  0  0  0  0  0  0  0  # atno 8010 bound_to 7997
  140.7264  143.3956  151.1354 H   0  0  0  0  0  0  0  0  0  0  0  0  # atno 10167 bound_to 10162
  157.3929  130.7817  149.7284 H   0  0  0  0  0  0  0  0  0  0  0  0  # atno 10718 bound_to 10713
  154.7640  135.4906  153.9518 H   0  0  0  0  0  0  0  0  0  0  0  0  # atno 10763 bound_to 10752
  153.1285  135.6747  153.9225 H   0  0  0  0  0  0  0  0  0  0  0  0  # atno 10764 bound_to 10752
  153.8935  135.3118  155.3426 H   0  0  0  0  0  0  0  0  0  0  0  0  # atno 10765 bound_to 10752
  140.1478  134.4501  155.8403 H   0  0  0  0  0  0  0  0  0  0  0  0  # atno 11005 bound_to 11000
  144.9641  139.3949  143.6341 LP  0  0  0  0  0  0  0  0  0  0  0  0  # atno 17320 bound_to 7965
  146.3343  139.8708  142.8840 LP  0  0  0  0  0  0  0  0  0  0  0  0  # atno 17321 bound_to 7965
  139.7568  143.8696  152.3090 LP  0  0  0  0  0  0  0  0  0  0  0  0  # atno 17342 bound_to 10162
  139.8568  144.7137  150.9148 LP  0  0  0  0  0  0  0  0  0  0  0  0  # atno 17343 bound_to 10162
  155.9803  130.4031  150.3537 LP  0  0  0  0  0  0  0  0  0  0  0  0  # atno 17370 bound_to 10713
  157.1655  131.0356  151.2820 LP  0  0  0  0  0  0  0  0  0  0  0  0  # atno 17371 bound_to 10713
  141.2195  133.6859  156.7365 LP  0  0  0  0  0  0  0  0  0  0  0  0  # atno 17394 bound_to 11000
  140.2642  134.8443  157.3787 LP  0  0  0  0  0  0  0  0  0  0  0  0  # atno 17395 bound_to 11000

$$$$
