AV-unprocessed.smi:1572|AV-procd|sdf|6329|dock2
  -GOLD-   22720 6543D 1   1.00000     0.00000
 Structure written by MMmdl.
 42 43  0  0  0  0  0  0  0  0  1 V2000
  152.4480  142.4764  159.5084 C   0  0  0  0  0  0  0  0  0  0  0  0
  151.9935  141.8067  158.2996 N   0  0  0  0  0  0  0  0  0  0  0  0
  151.2112  140.6131  158.6071 C   0  0  0  0  0  0  0  0  0  0  0  0
  150.7462  139.8983  157.3248 C   0  0  0  0  0  0  0  0  0  0  0  0
  149.9335  140.7793  156.4702 N   0  0  0  0  0  0  0  0  0  0  0  0
  149.3418  140.1175  155.2732 C   0  0  0  0  0  0  0  0  0  0  0  0
  148.6635  141.1148  154.3028 C   0  0  0  0  0  0  0  0  0  0  0  0
  150.4247  139.3600  154.4630 C   0  0  0  0  0  0  0  0  0  0  0  0
  148.2674  139.0635  155.6727 C   0  0  0  0  0  0  0  0  0  0  0  0
  147.9091  138.1750  154.5670 N   0  0  0  0  0  0  0  0  0  0  0  0
  146.6768  137.7233  154.2930 C   0  0  0  0  0  0  0  0  0  0  0  0
  145.6862  137.9905  154.9736 O   0  0  0  0  0  0  0  0  0  0  0  0
  146.6761  136.9599  153.1860 N   0  0  0  0  0  0  0  0  0  0  0  0
  145.5769  136.3075  152.5675 C   0  0  0  0  0  0  0  0  0  0  0  0
  144.4158  136.0516  153.1910 N   0  0  0  0  0  0  0  0  0  0  0  0
  143.5114  135.4032  152.3599 N   0  0  0  0  0  0  0  0  0  0  0  0
  144.0250  135.1964  151.1440 C   0  0  0  0  0  0  0  0  0  0  0  0
  145.6642  135.7725  150.8952 S   0  0  0  0  0  0  0  0  0  0  0  0
  150.7241  141.9871  156.1792 C   0  0  0  0  0  0  0  0  0  0  0  0
  151.1872  142.6927  157.4664 C   0  0  0  0  0  0  0  0  0  0  0  0
  153.0675  141.8099  160.1094 H   0  0  0  0  0  0  0  0  0  0  0  0
  151.6054  142.8017  160.1201 H   0  0  0  0  0  0  0  0  0  0  0  0
  153.0472  143.3533  159.2614 H   0  0  0  0  0  0  0  0  0  0  0  0
  151.8097  139.9252  159.2055 H   0  0  0  0  0  0  0  0  0  0  0  0
  150.3433  140.8793  159.2128 H   0  0  0  0  0  0  0  0  0  0  0  0
  151.6193  139.5379  156.7807 H   0  0  0  0  0  0  0  0  0  0  0  0
  150.1779  139.0208  157.6275 H   0  0  0  0  0  0  0  0  0  0  0  0
  148.2524  140.5969  153.4355 H   0  0  0  0  0  0  0  0  0  0  0  0
  149.3618  141.8589  153.9207 H   0  0  0  0  0  0  0  0  0  0  0  0
  147.8355  141.6469  154.7708 H   0  0  0  0  0  0  0  0  0  0  0  0
  149.9790  138.7229  153.6980 H   0  0  0  0  0  0  0  0  0  0  0  0
  151.0347  138.7208  155.1024 H   0  0  0  0  0  0  0  0  0  0  0  0
  151.0981  140.0380  153.9386 H   0  0  0  0  0  0  0  0  0  0  0  0
  148.6143  138.4434  156.4987 H   0  0  0  0  0  0  0  0  0  0  0  0
  147.3804  139.5625  156.0673 H   0  0  0  0  0  0  0  0  0  0  0  0
  148.6592  137.9109  153.9454 H   0  0  0  0  0  0  0  0  0  0  0  0
  147.5665  136.8355  152.7277 H   0  0  0  0  0  0  0  0  0  0  0  0
  143.4341  134.7006  150.3882 H   0  0  0  0  0  0  0  0  0  0  0  0
  151.5979  141.7347  155.5780 H   0  0  0  0  0  0  0  0  0  0  0  0
  150.1416  142.7043  155.6046 H   0  0  0  0  0  0  0  0  0  0  0  0
  150.3181  143.0449  158.0242 H   0  0  0  0  0  0  0  0  0  0  0  0
  151.7676  143.5773  157.2020 H   0  0  0  0  0  0  0  0  0  0  0  0
  1  2  1  0  0  0  0
  1 21  1  0  0  0  0
  1 22  1  0  0  0  0
  1 23  1  0  0  0  0
  2 20  1  0  0  0  0
  2  3  1  0  0  0  0
  3  4  1  0  0  0  0
  3 24  1  0  0  0  0
  3 25  1  0  0  0  0
  4  5  1  0  0  0  0
  4 26  1  0  0  0  0
  4 27  1  0  0  0  0
  5  6  1  0  0  0  0
  5 19  1  0  0  0  0
  6  7  1  0  0  0  0
  6  8  1  0  0  0  0
  6  9  1  0  0  0  0
  7 28  1  0  0  0  0
  7 29  1  0  0  0  0
  7 30  1  0  0  0  0
  8 31  1  0  0  0  0
  8 32  1  0  0  0  0
  8 33  1  0  0  0  0
  9 10  1  0  0  0  0
  9 34  1  0  0  0  0
  9 35  1  0  0  0  0
 10 11  1  0  0  0  0
 10 36  1  0  0  0  0
 11 12  2  0  0  0  0
 11 13  1  0  0  0  0
 13 14  1  0  0  0  0
 13 37  1  0  0  0  0
 14 18  1  0  0  0  0
 14 15  2  0  0  0  0
 15 16  1  0  0  0  0
 16 17  2  0  0  0  0
 17 18  1  0  0  0  0
 17 38  1  0  0  0  0
 19 20  1  0  0  0  0
 19 39  1  0  0  0  0
 19 40  1  0  0  0  0
 20 41  1  0  0  0  0
 20 42  1  0  0  0  0
M  END
> <s_m_source_file>
AV-unprocessed.smi

> <i_m_source_file_index>
1572

> <i_lp_mmshare_version>
43012

> <i_f3d_flags>
0

> <s_epik_input>
W0NIM11OMVtDSDJdW0NIMl1OKFtDSDJdW0NIMl0xKUMoW0NIM10pKFtDSDNdKVtDSDJdW05IXUMoPU8pW05IXWMybm5bY0hdczI=

> <s_epik_cmdline>
J2VwaWtfcHl0aG9uJywgJy1waCcsICc3LjAnLCAnLXRuJywgJzgnLCAnLW1hJywgJzIwMCcsICctbWV0YWxfYmluZGluZycsICctaW1hZScsICc8aW5maWxlLm1hZT4nLCAnLW9tYWUnLCAnPG91dGZpbGUubWFlPic=

> <r_lp_tautomer_probability>
1

> <r_epik_Ionization_Penalty>
3.01909

> <r_epik_Ionization_Penalty_Charging>
0

> <r_epik_Ionization_Penalty_Neutral>
3.01909

> <r_epik_State_Penalty>
2.1369

> <r_epik_Charging_Adjusted_Penalty>
2.1369

> <i_epik_Tot_Q>
0

> <i_epik_Tot_abs_Q>
0

> <r_epik_Metal_State_Penalty>
2.47072

> <b_epik_Metal_Only>
0

> <s_lp_Force_Field>
OPLS_2005

> <r_lp_Energy>
48.823

> <b_lp_Chiralities_Consistent>
1

> <s_lp_Variant>
AV-unprocessed.smi:1572-3

> <Gold.Version>
5.8.1

> <Gold.Id.Protein>
6NUR|6NUR_protein|mol2

> <Gold.PLP.Fitness>
33.3141

> <Gold.PLP.PLP>
-28.3276

> <Gold.PLP.part.hbond>
-1.0000

> <Gold.PLP.part.metal>
0.0000

> <Gold.PLP.part.buried>
-5.1187

> <Gold.PLP.part.nonpolar>
-23.3300

> <Gold.PLP.part.repulsive>
0.3722

> <Gold.PLP.ligand.clash>
0.0000

> <Gold.PLP.ligand.torsion>
0.5523

> <Gold.PLP.Chemscore.Hbond>
1.0000

> <Gold.PLP.Chemscore.CHOScore>
1.0000

> <Gold.PLP.Chemscore.Metal>
0.0000

> <Gold.Chemscore.Hbonds>
donor molecule, donor type, donor heavy atom, donor atom, acceptor molecule, acceptor atom, score
      L1  H    13    37       P1  7948  1.00
      L1  C    17    38       P1 10186  0.90

> <Gold.PLP.Chemscore.Internal.Correction>
0.0912

> <Gold.Rescore>
     Score         DG    S(hbond)    S(metal)    S(lipo)     H(rot)  DE(clash)    DE(int)     intcor
     11.62     -13.23       1.00        0.00      73.99       1.66       0.03       1.58       ----

> <Gold.Chemscore.Fitness>
11.6249

> <Gold.Chemscore.DG>
-13.2299

> <Gold.Chemscore.ZeroCoef>
-5.4800

> <Gold.Chemscore.Hbond>
0.9998

> <Gold.Chemscore.Metal>
0.0000

> <Gold.Chemscore.Lipo>
73.9945

> <Gold.Chemscore.Internal_Hbond>
0.0000

> <Gold.Chemscore.DEClash>
0.0278

> <Gold.Chemscore.DEInternal>
1.5772

> <Gold.Chemscore.Rot>
1.6590

> <Gold.Chemscore.Internal.Correction>
   9.000000E+99

> <Gold.Chemscore.Hbonds>
donor molecule, donor type, donor heavy atom, donor atom, acceptor molecule, acceptor atom, score
      L1  H    13    37       P1  7948  1.00

> <Gold.Chemscore.Hbond.Weighted>
-3.3395

> <Gold.Chemscore.Metal.Weighted>
-0.0000

> <Gold.Chemscore.Lipo.Weighted>
-8.6574

> <Gold.Chemscore.Internal_Hbond.Weighted>
0.0000

> <Gold.Chemscore.DEClash.Weighted>
0.0278

> <Gold.Chemscore.DEInternal.Weighted>
1.5772

> <Gold.Chemscore.Rot.Weighted>
4.2469

> <Gold.Chemscore.Internal.Correction.Weighted>
   9.000000E+99

> <Gold.Protein.RotatedTorsions>
[ 6907 6896 6895 6894 ] final -101.91 input  -60.11 | X-H torsion
[ 7974 7965 7964 7962 ] final -104.71 input  175.53 | X-H torsion
[ 8008 7997 7996 7995 ] final -109.56 input   59.86 | X-H torsion
[ 10167 10162 10161 10158 ] final   31.41 input  -65.29 | X-H torsion
[ 10718 10713 10712 10709 ] final   85.74 input   66.30 | X-H torsion
[ 10763 10752 10751 10750 ] final   84.68 input  -60.55 | X-H torsion
[ 11005 11000 10999 10996 ] final -134.86 input  -57.11 | X-H torsion

> <Gold.Protein.ActiveResidues>
 VAL166  LYS551  ARG553  GLY616  TRP617  ASP618  TYR619  PRO620  LYS621  CYS622 
 ASP623  PHE694  ASN695  SER759  ASP760  ASP761  ALA762  ILE779  LEU786  VAL792 
 PHE793  MET794  SER795  GLU796  ALA797  LYS798  CYS799  TRP800  GLU811  SER814 

> <Gold.Protein.RotatedAtoms>
  150.7174  134.0661  159.3848 H   0  0  0  0  0  0  0  0  0  0  0  0  # atno 6907 bound_to 6896
  151.8643  135.0511  160.0482 H   0  0  0  0  0  0  0  0  0  0  0  0  # atno 6908 bound_to 6896
  152.2693  133.5332  159.5466 H   0  0  0  0  0  0  0  0  0  0  0  0  # atno 6909 bound_to 6896
  145.2397  140.9200  143.3157 H   0  0  0  0  0  0  0  0  0  0  0  0  # atno 7974 bound_to 7965
  154.9612  140.0399  157.2190 H   0  0  0  0  0  0  0  0  0  0  0  0  # atno 8008 bound_to 7997
  154.7888  140.2831  155.5985 H   0  0  0  0  0  0  0  0  0  0  0  0  # atno 8009 bound_to 7997
  156.2947  140.2577  156.2730 H   0  0  0  0  0  0  0  0  0  0  0  0  # atno 8010 bound_to 7997
  140.4591  144.0933  150.6208 H   0  0  0  0  0  0  0  0  0  0  0  0  # atno 10167 bound_to 10162
  157.6919  131.0187  150.2867 H   0  0  0  0  0  0  0  0  0  0  0  0  # atno 10718 bound_to 10713
  153.1404  135.4645  154.9487 H   0  0  0  0  0  0  0  0  0  0  0  0  # atno 10763 bound_to 10752
  154.7742  135.3168  154.8129 H   0  0  0  0  0  0  0  0  0  0  0  0  # atno 10764 bound_to 10752
  153.8653  135.6909  153.4833 H   0  0  0  0  0  0  0  0  0  0  0  0  # atno 10765 bound_to 10752
  140.8951  134.1762  157.4500 H   0  0  0  0  0  0  0  0  0  0  0  0  # atno 11005 bound_to 11000
  144.9601  139.3989  143.6360 LP  0  0  0  0  0  0  0  0  0  0  0  0  # atno 17320 bound_to 7965
  146.3332  139.8649  142.8850 LP  0  0  0  0  0  0  0  0  0  0  0  0  # atno 17321 bound_to 7965
  140.4115  143.2654  151.9827 LP  0  0  0  0  0  0  0  0  0  0  0  0  # atno 17342 bound_to 10162
  139.4804  144.5911  151.7770 LP  0  0  0  0  0  0  0  0  0  0  0  0  # atno 17343 bound_to 10162
  156.3405  130.3814  149.7413 LP  0  0  0  0  0  0  0  0  0  0  0  0  # atno 17370 bound_to 10713
  156.4924  130.8091  151.3100 LP  0  0  0  0  0  0  0  0  0  0  0  0  # atno 17371 bound_to 10713
  139.8734  134.9875  156.5370 LP  0  0  0  0  0  0  0  0  0  0  0  0  # atno 17394 bound_to 11000
  140.8299  133.8287  155.8974 LP  0  0  0  0  0  0  0  0  0  0  0  0  # atno 17395 bound_to 11000

$$$$
