AV-unprocessed.smi:814|AV-procd|sdf|3822|dock3
  -GOLD-   22720 1263D 1   1.00000     0.00000
 Structure written by MMmdl.
 37 38  0  0  0  0  0  0  0  0  2 V2000
  147.5615  141.6924  154.9221 C   0  0  0  0  0  0  0  0  0  0  0  0
  147.5726  140.5614  153.9914 N   0  0  0  0  0  0  0  0  0  0  0  0
  146.7887  140.4122  152.8761 C   0  0  0  0  0  0  0  0  0  0  0  0
  147.1330  139.2116  152.3117 C   0  0  0  0  0  0  0  0  0  0  0  0
  148.1120  138.6778  153.1053 N   0  3  0  0  0  0  0  0  0  0  0  0
  148.3841  139.4994  154.1259 C   0  0  0  0  0  0  0  0  0  0  0  0
  149.3891  139.2478  155.2055 C   0  0  0  0  0  0  0  0  0  0  0  0
  150.6220  140.1599  155.0959 C   0  0  0  0  0  0  0  0  0  0  0  0
  150.7004  141.0852  156.2194 N   0  0  0  0  0  0  0  0  0  0  0  0
  151.6662  141.0724  157.1517 C   0  0  0  0  0  0  0  0  0  0  0  0
  152.5983  140.2674  157.1419 O   0  0  0  0  0  0  0  0  0  0  0  0
  151.5629  142.1232  158.2649 C   0  0  1  0  0  0  0  0  0  0  0  0
  152.7016  141.9541  159.2974 C   0  0  0  0  0  0  0  0  0  0  0  0
  152.7807  143.1254  160.2609 C   0  0  0  0  0  0  0  0  0  0  0  0
  152.1792  144.3067  160.0391 C   0  0  0  0  0  0  0  0  0  0  0  0
  151.3562  144.6056  158.7985 C   0  0  0  0  0  0  0  0  0  0  0  0
  151.5649  143.5547  157.6914 C   0  0  0  0  0  0  0  0  0  0  0  0
  146.7910  142.4038  154.6234 H   0  0  0  0  0  0  0  0  0  0  0  0
  148.5337  142.1856  154.9035 H   0  0  0  0  0  0  0  0  0  0  0  0
  147.3484  141.3335  155.9292 H   0  0  0  0  0  0  0  0  0  0  0  0
  146.0616  141.1522  152.5738 H   0  0  0  0  0  0  0  0  0  0  0  0
  146.7640  138.7103  151.4287 H   0  0  0  0  0  0  0  0  0  0  0  0
  148.8812  139.3978  156.1590 H   0  0  0  0  0  0  0  0  0  0  0  0
  149.6639  138.1941  155.1515 H   0  0  0  0  0  0  0  0  0  0  0  0
  151.5368  139.5674  155.0451 H   0  0  0  0  0  0  0  0  0  0  0  0
  150.5783  140.7387  154.1727 H   0  0  0  0  0  0  0  0  0  0  0  0
  149.9729  141.7814  156.2963 H   0  0  0  0  0  0  0  0  0  0  0  0
  150.6129  141.9784  158.7831 H   0  0  0  0  0  0  0  0  0  0  0  0
  152.5452  141.0410  159.8727 H   0  0  0  0  0  0  0  0  0  0  0  0
  153.6717  141.8579  158.8077 H   0  0  0  0  0  0  0  0  0  0  0  0
  153.3667  142.9808  161.1566 H   0  0  0  0  0  0  0  0  0  0  0  0
  152.2624  145.0973  160.7704 H   0  0  0  0  0  0  0  0  0  0  0  0
  150.3066  144.6410  159.0910 H   0  0  0  0  0  0  0  0  0  0  0  0
  151.6157  145.5960  158.4238 H   0  0  0  0  0  0  0  0  0  0  0  0
  152.5173  143.7470  157.1943 H   0  0  0  0  0  0  0  0  0  0  0  0
  150.7927  143.6680  156.9292 H   0  0  0  0  0  0  0  0  0  0  0  0
  148.5684  137.7888  152.9443 H   0  0  0  0  0  0  0  0  0  0  0  0
  1  2  1  0  0  0  0
  1 18  1  0  0  0  0
  1 19  1  0  0  0  0
  1 20  1  0  0  0  0
  2  6  1  0  0  0  0
  2  3  1  0  0  0  0
  3  4  2  0  0  0  0
  3 21  1  0  0  0  0
  4  5  1  0  0  0  0
  4 22  1  0  0  0  0
  5  6  2  0  0  0  0
  5 37  1  0  0  0  0
  6  7  1  0  0  0  0
  7  8  1  0  0  0  0
  7 23  1  0  0  0  0
  7 24  1  0  0  0  0
  8  9  1  0  0  0  0
  8 25  1  0  0  0  0
  8 26  1  0  0  0  0
  9 10  1  0  0  0  0
  9 27  1  0  0  0  0
 10 11  2  0  0  0  0
 10 12  1  0  0  0  0
 12 17  1  0  0  0  0
 12 13  1  0  0  0  0
 12 28  1  0  0  0  0
 13 14  1  0  0  0  0
 13 29  1  0  0  0  0
 13 30  1  0  0  0  0
 14 15  2  0  0  0  0
 14 31  1  0  0  0  0
 15 16  1  0  0  0  0
 15 32  1  0  0  0  0
 16 17  1  0  0  0  0
 16 33  1  0  0  0  0
 16 34  1  0  0  0  0
 17 35  1  0  0  0  0
 17 36  1  0  0  0  0
M  CHG  1   5   1
M  END
> <s_m_source_file>
AV-unprocessed.smi

> <i_m_source_file_index>
814

> <i_lp_mmshare_version>
43012

> <i_f3d_flags>
0

> <s_epik_input>
W0NIM11uMVtjSF1bY0hdbmMxW0NIMl1bQ0gyXVtOSF1DKD1PKVtDQEBIXTJbQ0gyXVtDSF09W0NIXVtDSDJdW0NIMl0y

> <s_epik_cmdline>
J2VwaWtfcHl0aG9uJywgJy1waCcsICc3LjAnLCAnLXRuJywgJzgnLCAnLW1hJywgJzIwMCcsICctbWV0YWxfYmluZGluZycsICctaW1hZScsICc8aW5maWxlLm1hZT4nLCAnLW9tYWUnLCAnPG91dGZpbGUubWFlPic=

> <r_lp_tautomer_probability>
1

> <r_epik_Ionization_Penalty>
0.0819619

> <r_epik_Ionization_Penalty_Charging>
0

> <r_epik_Ionization_Penalty_Neutral>
0.0819619

> <r_epik_State_Penalty>
0.0726933

> <r_epik_Charging_Adjusted_Penalty>
0.0726933

> <i_epik_Tot_Q>
1

> <i_epik_Tot_abs_Q>
1

> <r_epik_Metal_State_Penalty>
0.411758

> <b_epik_Metal_Only>
0

> <s_lp_Force_Field>
OPLS_2005

> <r_lp_Energy>
9.72317

> <b_lp_Chiralities_Consistent>
1

> <s_lp_Variant>
AV-unprocessed.smi:814-2

> <Gold.Version>
5.8.1

> <Gold.Id.Protein>
6NUR|6NUR_protein|mol2

> <Gold.PLP.Fitness>
47.2383

> <Gold.PLP.PLP>
-37.9852

> <Gold.PLP.part.hbond>
-3.0000

> <Gold.PLP.part.metal>
0.0000

> <Gold.PLP.part.buried>
-0.1321

> <Gold.PLP.part.nonpolar>
-35.3388

> <Gold.PLP.part.repulsive>
0.1357

> <Gold.PLP.ligand.clash>
0.0000

> <Gold.PLP.ligand.torsion>
0.5031

> <Gold.PLP.Chemscore.Hbond>
2.9840

> <Gold.PLP.Chemscore.CHOScore>
0.4293

> <Gold.PLP.Chemscore.Metal>
0.0000

> <Gold.Chemscore.Hbonds>
donor molecule, donor type, donor heavy atom, donor atom, acceptor molecule, acceptor atom, score
      L1  H     5    37       P1  7948  2.00
      P1  H  7997  8010       L1    11  0.94
      L1  C     3    21       P1 10175  0.53

> <Gold.PLP.Chemscore.Internal.Correction>
0.0195

> <Gold.Rescore>
     Score         DG    S(hbond)    S(metal)    S(lipo)     H(rot)  DE(clash)    DE(int)     intcor
     17.79     -19.30       1.89        0.00     100.43       1.65       0.93       0.58       ----

> <Gold.Chemscore.Fitness>
17.7884

> <Gold.Chemscore.DG>
-19.3005

> <Gold.Chemscore.ZeroCoef>
-5.4800

> <Gold.Chemscore.Hbond>
1.8860

> <Gold.Chemscore.Metal>
0.0000

> <Gold.Chemscore.Lipo>
100.4259

> <Gold.Chemscore.Internal_Hbond>
0.0000

> <Gold.Chemscore.DEClash>
0.9305

> <Gold.Chemscore.DEInternal>
0.5816

> <Gold.Chemscore.Rot>
1.6518

> <Gold.Chemscore.Internal.Correction>
   9.000000E+99

> <Gold.Chemscore.Hbonds>
donor molecule, donor type, donor heavy atom, donor atom, acceptor molecule, acceptor atom, score
      L1  H     5    37       P1  7948  0.96
      P1  H  7997  8010       L1    11  0.91

> <Gold.Chemscore.Hbond.Weighted>
-6.2993

> <Gold.Chemscore.Metal.Weighted>
-0.0000

> <Gold.Chemscore.Lipo.Weighted>
-11.7498

> <Gold.Chemscore.Internal_Hbond.Weighted>
0.0000

> <Gold.Chemscore.DEClash.Weighted>
0.9305

> <Gold.Chemscore.DEInternal.Weighted>
0.5816

> <Gold.Chemscore.Rot.Weighted>
4.2287

> <Gold.Chemscore.Internal.Correction.Weighted>
   9.000000E+99

> <Gold.Protein.RotatedTorsions>
[ 6907 6896 6895 6894 ] final  133.96 input  -60.11 | X-H torsion
[ 7974 7965 7964 7962 ] final  -89.86 input  175.53 | X-H torsion
[ 8008 7997 7996 7995 ] final   51.28 input   59.86 | X-H torsion
[ 10167 10162 10161 10158 ] final  -35.97 input  -65.29 | X-H torsion
[ 10718 10713 10712 10709 ] final  -37.23 input   66.30 | X-H torsion
[ 10763 10752 10751 10750 ] final  130.86 input  -60.55 | X-H torsion
[ 11005 11000 10999 10996 ] final   16.32 input  -57.11 | X-H torsion

> <Gold.Protein.ActiveResidues>
 VAL166  LYS551  ARG553  GLY616  TRP617  ASP618  TYR619  PRO620  LYS621  CYS622 
 ASP623  PHE694  ASN695  SER759  ASP760  ASP761  ALA762  ILE779  LEU786  VAL792 
 PHE793  MET794  SER795  GLU796  ALA797  LYS798  CYS799  TRP800  GLU811  SER814 

> <Gold.Protein.RotatedAtoms>
  152.3164  133.5806  159.5714 H   0  0  0  0  0  0  0  0  0  0  0  0  # atno 6907 bound_to 6896
  150.7348  134.0077  159.3668 H   0  0  0  0  0  0  0  0  0  0  0  0  # atno 6908 bound_to 6896
  151.7965  135.0721  160.0445 H   0  0  0  0  0  0  0  0  0  0  0  0  # atno 6909 bound_to 6896
  145.4341  140.9557  143.2111 H   0  0  0  0  0  0  0  0  0  0  0  0  # atno 7974 bound_to 7965
  155.4327  140.3451  155.4282 H   0  0  0  0  0  0  0  0  0  0  0  0  # atno 8008 bound_to 7997
  156.1327  140.1519  156.9072 H   0  0  0  0  0  0  0  0  0  0  0  0  # atno 8009 bound_to 7997
  154.4907  140.0842  156.7568 H   0  0  0  0  0  0  0  0  0  0  0  0  # atno 8010 bound_to 7997
  140.7153  143.3441  151.2295 H   0  0  0  0  0  0  0  0  0  0  0  0  # atno 10167 bound_to 10162
  156.3176  130.4261  149.7990 H   0  0  0  0  0  0  0  0  0  0  0  0  # atno 10718 bound_to 10713
  153.7649  135.3190  155.3343 H   0  0  0  0  0  0  0  0  0  0  0  0  # atno 10763 bound_to 10752
  154.8217  135.4598  154.0801 H   0  0  0  0  0  0  0  0  0  0  0  0  # atno 10764 bound_to 10752
  153.2043  135.6927  153.8275 H   0  0  0  0  0  0  0  0  0  0  0  0  # atno 10765 bound_to 10752
  140.4485  134.1249  155.7699 H   0  0  0  0  0  0  0  0  0  0  0  0  # atno 11005 bound_to 11000
  144.8163  139.5870  143.7007 LP  0  0  0  0  0  0  0  0  0  0  0  0  # atno 17320 bound_to 7965
  146.2591  139.6370  142.9374 LP  0  0  0  0  0  0  0  0  0  0  0  0  # atno 17321 bound_to 7965
  139.6955  143.9619  152.2881 LP  0  0  0  0  0  0  0  0  0  0  0  0  # atno 17342 bound_to 10162
  139.9295  144.6750  150.8377 LP  0  0  0  0  0  0  0  0  0  0  0  0  # atno 17343 bound_to 10162
  156.5310  130.8258  151.3237 LP  0  0  0  0  0  0  0  0  0  0  0  0  # atno 17370 bound_to 10713
  157.7405  130.9851  150.2381 LP  0  0  0  0  0  0  0  0  0  0  0  0  # atno 17371 bound_to 10713
  141.1675  133.8675  157.1672 LP  0  0  0  0  0  0  0  0  0  0  0  0  # atno 17394 bound_to 11000
  140.0023  135.0023  157.0216 LP  0  0  0  0  0  0  0  0  0  0  0  0  # atno 17395 bound_to 11000

$$$$
