AV-unprocessed.smi:11|AV-procd|sdf|57|dock4
  -GOLD-   2262015173D 1   1.00000     0.00000
 Structure written by MMmdl.
 34 36  0  0  0  0  0  0  0  0  2 V2000
  152.7926  137.1264  157.2275 C   0  0  0  0  0  0  0  0  0  0  0  0
  153.8910  137.6911  158.1435 C   0  0  0  0  0  0  0  0  0  0  0  0
  153.4315  138.0695  159.5737 C   0  0  1  0  0  0  0  0  0  0  0  0
  152.9087  136.9147  160.2002 O   0  0  0  0  0  0  0  0  0  0  0  0
  154.5290  138.7188  160.4310 C   0  0  0  0  0  0  0  0  0  0  0  0
  154.4545  140.1922  160.0350 C   0  0  0  0  0  0  0  0  0  0  0  0
  153.0460  140.4272  159.7504 N   0  0  0  0  0  0  0  0  0  0  0  0
  152.6104  141.6138  159.1271 C   0  0  0  0  0  0  0  0  0  0  0  0
  153.2589  142.7702  159.4366 N   0  0  0  0  0  0  0  0  0  0  0  0
  152.9256  143.9512  158.8970 C   0  0  0  0  0  0  0  0  0  0  0  0
  151.9276  144.0883  158.0188 N   0  3  0  0  0  0  0  0  0  0  0  0
  151.2431  142.9632  157.6916 C   0  0  0  0  0  0  0  0  0  0  0  0
  150.1754  142.8263  156.8294 N   0  0  0  0  0  0  0  0  0  0  0  0
  149.7651  141.5050  156.7911 C   0  0  0  0  0  0  0  0  0  0  0  0
  150.5626  140.7648  157.6275 C   0  0  0  0  0  0  0  0  0  0  0  0
  151.5216  141.6715  158.2090 C   0  0  0  0  0  0  0  0  0  0  0  0
  152.3510  139.1654  159.5327 C   0  0  0  0  0  0  0  0  0  0  0  0
  149.7317  143.5601  156.2953 H   0  0  0  0  0  0  0  0  0  0  0  0
  153.1895  136.9355  156.2304 H   0  0  0  0  0  0  0  0  0  0  0  0
  151.9619  137.8239  157.1192 H   0  0  0  0  0  0  0  0  0  0  0  0
  152.3948  136.1839  157.6015 H   0  0  0  0  0  0  0  0  0  0  0  0
  154.7049  136.9672  158.1985 H   0  0  0  0  0  0  0  0  0  0  0  0
  154.3151  138.5736  157.6624 H   0  0  0  0  0  0  0  0  0  0  0  0
  153.2838  136.8450  161.0649 H   0  0  0  0  0  0  0  0  0  0  0  0
  154.2782  138.6259  161.4892 H   0  0  0  0  0  0  0  0  0  0  0  0
  155.5222  138.2930  160.2961 H   0  0  0  0  0  0  0  0  0  0  0  0
  154.8170  140.8434  160.8309 H   0  0  0  0  0  0  0  0  0  0  0  0
  155.0520  140.3748  159.1407 H   0  0  0  0  0  0  0  0  0  0  0  0
  153.4677  144.8465  159.1643 H   0  0  0  0  0  0  0  0  0  0  0  0
  148.9344  141.1977  156.1721 H   0  0  0  0  0  0  0  0  0  0  0  0
  150.4869  139.7042  157.8158 H   0  0  0  0  0  0  0  0  0  0  0  0
  151.8037  139.1495  158.5894 H   0  0  0  0  0  0  0  0  0  0  0  0
  151.6320  139.0364  160.3428 H   0  0  0  0  0  0  0  0  0  0  0  0
  151.6821  144.9920  157.6146 H   0  0  0  0  0  0  0  0  0  0  0  0
  1  2  1  0  0  0  0
  1 19  1  0  0  0  0
  1 20  1  0  0  0  0
  1 21  1  0  0  0  0
  2  3  1  0  0  0  0
  2 22  1  0  0  0  0
  2 23  1  0  0  0  0
  3 17  1  0  0  0  0
  3  4  1  0  0  0  0
  3  5  1  0  0  0  0
  4 24  1  0  0  0  0
  5  6  1  0  0  0  0
  5 25  1  0  0  0  0
  5 26  1  0  0  0  0
  6  7  1  0  0  0  0
  6 27  1  0  0  0  0
  6 28  1  0  0  0  0
  7  8  1  0  0  0  0
  7 17  1  0  0  0  0
  8 16  1  0  0  0  0
  8  9  2  0  0  0  0
  9 10  1  0  0  0  0
 10 11  2  0  0  0  0
 10 29  1  0  0  0  0
 11 12  1  0  0  0  0
 11 34  1  0  0  0  0
 12 16  2  0  0  0  0
 12 13  1  0  0  0  0
 13 18  1  0  0  0  0
 13 14  1  0  0  0  0
 14 15  2  0  0  0  0
 14 30  1  0  0  0  0
 15 16  1  0  0  0  0
 15 31  1  0  0  0  0
 17 32  1  0  0  0  0
 17 33  1  0  0  0  0
M  CHG  1  11   1
M  END
> <s_m_source_file>
AV-unprocessed.smi

> <i_m_source_file_index>
11

> <i_lp_mmshare_version>
43012

> <i_f3d_flags>
0

> <s_epik_input>
W0NIM11bQ0gyXVtDQEBdMShbT0hdKVtDSDJdW0NIMl1OKFtDSDJdMSljKG5bY0hdbjIpYyhjMjMpW2NIXVtjSF1bbkhdMw==

> <s_epik_cmdline>
J2VwaWtfcHl0aG9uJywgJy1waCcsICc3LjAnLCAnLXRuJywgJzgnLCAnLW1hJywgJzIwMCcsICctbWV0YWxfYmluZGluZycsICctaW1hZScsICc8aW5maWxlLm1hZT4nLCAnLW9tYWUnLCAnPG91dGZpbGUubWFlPic=

> <r_lp_tautomer_probability>
1.75997e-05

> <r_epik_Ionization_Penalty>
1.53257

> <r_epik_Ionization_Penalty_Charging>
1.53255

> <r_epik_Ionization_Penalty_Neutral>
1.78556e-05

> <r_epik_State_Penalty>
1.6253

> <r_epik_Charging_Adjusted_Penalty>
3.15785

> <i_epik_Tot_Q>
1

> <i_epik_Tot_abs_Q>
1

> <r_epik_Metal_State_Penalty>
1.66891

> <b_epik_Metal_Only>
0

> <s_lp_Force_Field>
OPLS_2005

> <r_lp_Energy>
33.1489

> <b_lp_Chiralities_Consistent>
1

> <s_lp_Variant>
AV-unprocessed.smi:11-3

> <Gold.Version>
5.8.1

> <Gold.Id.Protein>
6NUR|6NUR_protein|mol2

> <Gold.PLP.Fitness>
36.7035

> <Gold.PLP.PLP>
-29.0825

> <Gold.PLP.part.hbond>
-1.7518

> <Gold.PLP.part.metal>
0.0000

> <Gold.PLP.part.buried>
-6.7548

> <Gold.PLP.part.nonpolar>
-21.4847

> <Gold.PLP.part.repulsive>
0.0944

> <Gold.PLP.ligand.clash>
0.0000

> <Gold.PLP.ligand.torsion>
0.2586

> <Gold.PLP.Chemscore.Hbond>
2.6338

> <Gold.PLP.Chemscore.CHOScore>
0.0000

> <Gold.PLP.Chemscore.Metal>
0.0000

> <Gold.Chemscore.Hbonds>
donor molecule, donor type, donor heavy atom, donor atom, acceptor molecule, acceptor atom, score
      L1  H    13    18       P1  8028  2.00
      P1  H  6896  6907       L1     4  0.93

> <Gold.PLP.Chemscore.Internal.Correction>
0.2371

> <Gold.Rescore>
     Score         DG    S(hbond)    S(metal)    S(lipo)     H(rot)  DE(clash)    DE(int)     intcor
     13.22     -13.54       1.78        0.00      49.56       1.44       0.19       0.13       ----

> <Gold.Chemscore.Fitness>
13.2189

> <Gold.Chemscore.DG>
-13.5380

> <Gold.Chemscore.ZeroCoef>
-5.4800

> <Gold.Chemscore.Hbond>
1.7796

> <Gold.Chemscore.Metal>
0.0000

> <Gold.Chemscore.Lipo>
49.5597

> <Gold.Chemscore.Internal_Hbond>
0.0000

> <Gold.Chemscore.DEClash>
0.1932

> <Gold.Chemscore.DEInternal>
0.1259

> <Gold.Chemscore.Rot>
1.4392

> <Gold.Chemscore.Internal.Correction>
   9.000000E+99

> <Gold.Chemscore.Hbonds>
donor molecule, donor type, donor heavy atom, donor atom, acceptor molecule, acceptor atom, score
      L1  H    13    18       P1  8028  0.97
      P1  H  6896  6907       L1     4  0.23

> <Gold.Chemscore.Hbond.Weighted>
-5.9440

> <Gold.Chemscore.Metal.Weighted>
-0.0000

> <Gold.Chemscore.Lipo.Weighted>
-5.7985

> <Gold.Chemscore.Internal_Hbond.Weighted>
0.0000

> <Gold.Chemscore.DEClash.Weighted>
0.1932

> <Gold.Chemscore.DEInternal.Weighted>
0.1259

> <Gold.Chemscore.Rot.Weighted>
3.6844

> <Gold.Chemscore.Internal.Correction.Weighted>
   9.000000E+99

> <Gold.Protein.RotatedTorsions>
[ 6907 6896 6895 6894 ] final   27.12 input  -60.11 | X-H torsion
[ 7974 7965 7964 7962 ] final   49.54 input  175.53 | X-H torsion
[ 8008 7997 7996 7995 ] final   88.39 input   59.86 | X-H torsion
[ 10167 10162 10161 10158 ] final  -16.77 input  -65.29 | X-H torsion
[ 10718 10713 10712 10709 ] final  173.41 input   66.30 | X-H torsion
[ 10763 10752 10751 10750 ] final  170.73 input  -60.55 | X-H torsion
[ 11005 11000 10999 10996 ] final  116.66 input  -57.11 | X-H torsion

> <Gold.Protein.ActiveResidues>
 VAL166  LYS551  ARG553  GLY616  TRP617  ASP618  TYR619  PRO620  LYS621  CYS622 
 ASP623  PHE694  ASN695  SER759  ASP760  ASP761  ALA762  ILE779  LEU786  VAL792 
 PHE793  MET794  SER795  GLU796  ALA797  LYS798  CYS799  TRP800  GLU811  SER814 

> <Gold.Protein.RotatedAtoms>
  151.9975  134.9946  160.0563 H   0  0  0  0  0  0  0  0  0  0  0  0  # atno 6907 bound_to 6896
  152.1550  133.4541  159.4841 H   0  0  0  0  0  0  0  0  0  0  0  0  # atno 6908 bound_to 6896
  150.6880  134.2059  159.4383 H   0  0  0  0  0  0  0  0  0  0  0  0  # atno 6909 bound_to 6896
  146.0098  139.4531  142.9963 H   0  0  0  0  0  0  0  0  0  0  0  0  # atno 7974 bound_to 7965
  155.9872  140.3372  155.6718 H   0  0  0  0  0  0  0  0  0  0  0  0  # atno 8008 bound_to 7997
  155.6470  140.0701  157.2618 H   0  0  0  0  0  0  0  0  0  0  0  0  # atno 8009 bound_to 7997
  154.4208  140.1732  156.1621 H   0  0  0  0  0  0  0  0  0  0  0  0  # atno 8010 bound_to 7997
  140.7238  143.5083  150.9782 H   0  0  0  0  0  0  0  0  0  0  0  0  # atno 10167 bound_to 10162
  156.9647  131.0071  151.2919 H   0  0  0  0  0  0  0  0  0  0  0  0  # atno 10718 bound_to 10713
  154.4018  135.2755  155.2091 H   0  0  0  0  0  0  0  0  0  0  0  0  # atno 10763 bound_to 10752
  154.4114  135.6021  153.5958 H   0  0  0  0  0  0  0  0  0  0  0  0  # atno 10764 bound_to 10752
  152.9831  135.5950  154.4287 H   0  0  0  0  0  0  0  0  0  0  0  0  # atno 10765 bound_to 10752
  139.9049  134.9601  156.7233 H   0  0  0  0  0  0  0  0  0  0  0  0  # atno 11005 bound_to 11000
  145.7359  141.0026  143.1327 LP  0  0  0  0  0  0  0  0  0  0  0  0  # atno 17320 bound_to 7965
  144.6949  139.9040  143.7460 LP  0  0  0  0  0  0  0  0  0  0  0  0  # atno 17321 bound_to 7965
  139.8795  143.7089  152.3158 LP  0  0  0  0  0  0  0  0  0  0  0  0  # atno 17342 bound_to 10162
  139.7367  144.7569  151.0717 LP  0  0  0  0  0  0  0  0  0  0  0  0  # atno 17343 bound_to 10162
  157.5634  130.8261  149.8295 LP  0  0  0  0  0  0  0  0  0  0  0  0  # atno 17370 bound_to 10713
  156.0308  130.3765  150.1694 LP  0  0  0  0  0  0  0  0  0  0  0  0  # atno 17371 bound_to 10713
  140.6983  133.9328  155.8008 LP  0  0  0  0  0  0  0  0  0  0  0  0  # atno 17394 bound_to 11000
  141.0390  134.0648  157.3924 LP  0  0  0  0  0  0  0  0  0  0  0  0  # atno 17395 bound_to 11000

$$$$
