AV-unprocessed.smi:265|AV-procd|sdf|2026|dock5
  -GOLD-   2262021233D 1   1.00000     0.00000
 Structure written by MMmdl.
 52 56  0  0  0  0  0  0  0  0  1 V2000
  151.4762  134.4833  156.8912 C   0  0  0  0  0  0  0  0  0  0  0  0
  150.7336  133.9925  155.6394 C   0  0  1  0  0  0  0  0  0  0  0  0
  150.0017  132.8024  155.9205 O   0  0  0  0  0  0  0  0  0  0  0  0
  148.8029  132.7687  155.1509 C   0  0  0  0  0  0  0  0  0  0  0  0
  148.8785  133.9708  154.2141 C   0  0  0  0  0  0  0  0  0  0  0  0
  149.7153  134.9633  155.0117 C   0  0  2  0  0  0  0  0  0  0  0  0
  150.3628  135.8408  154.1102 O   0  0  0  0  0  0  0  0  0  0  0  0
  148.9010  135.7834  156.0502 C   0  0  0  0  0  0  0  0  0  0  0  0
  149.6466  136.8702  156.6649 N   0  0  0  0  0  0  0  0  0  0  0  0
  150.1031  136.9264  157.9623 C   0  0  0  0  0  0  0  0  0  0  0  0
  150.7508  138.0144  158.2779 N   0  0  0  0  0  0  0  0  0  0  0  0
  150.7591  138.7579  157.1034 C   0  0  0  0  0  0  0  0  0  0  0  0
  151.2876  140.0284  156.7382 C   0  0  0  0  0  0  0  0  0  0  0  0
  151.9783  140.8113  157.6058 N   0  0  0  0  0  0  0  0  0  0  0  0
  152.4242  140.2069  158.8610 C   0  0  0  0  0  0  0  0  0  0  0  0
  153.5072  141.0705  159.5257 C   0  0  0  0  0  0  0  0  0  0  0  0
  153.0505  142.5281  159.6996 C   0  0  2  0  0  0  0  0  0  0  0  0
  152.0080  142.6060  160.6633 O   0  0  0  0  0  0  0  0  0  0  0  0
  151.6491  143.9426  161.0176 C   0  0  0  0  0  0  0  0  0  0  0  0
  151.4180  144.8346  159.7834 C   0  0  0  0  0  0  0  0  0  0  0  0
  150.8318  145.9076  159.9038 O   0  0  0  0  0  0  0  0  0  0  0  0
  151.9096  144.4222  158.6039 N   0  0  0  0  0  0  0  0  0  0  0  0
  152.5072  143.1107  158.3767 C   0  0  2  0  0  0  0  0  0  0  0  0
  151.4656  142.1743  157.7312 C   0  0  0  0  0  0  0  0  0  0  0  0
  151.0806  140.4472  155.4606 N   0  0  0  0  0  0  0  0  0  0  0  0
  150.4148  139.6759  154.5962 C   0  0  0  0  0  0  0  0  0  0  0  0
  149.8759  138.4719  154.7960 N   0  0  0  0  0  0  0  0  0  0  0  0
  150.0684  138.0508  156.0787 C   0  0  0  0  0  0  0  0  0  0  0  0
  153.8992  143.1177  160.0519 H   0  0  0  0  0  0  0  0  0  0  0  0
  153.3382  143.2372  157.6818 H   0  0  0  0  0  0  0  0  0  0  0  0
  152.0089  135.4134  156.6916 H   0  0  0  0  0  0  0  0  0  0  0  0
  152.2094  133.7455  157.2171 H   0  0  0  0  0  0  0  0  0  0  0  0
  150.7952  134.6541  157.7249 H   0  0  0  0  0  0  0  0  0  0  0  0
  151.4730  133.7213  154.8829 H   0  0  0  0  0  0  0  0  0  0  0  0
  148.7048  131.8278  154.6094 H   0  0  0  0  0  0  0  0  0  0  0  0
  147.9516  132.8607  155.8260 H   0  0  0  0  0  0  0  0  0  0  0  0
  149.4090  133.6749  153.3071 H   0  0  0  0  0  0  0  0  0  0  0  0
  147.9007  134.3385  153.9064 H   0  0  0  0  0  0  0  0  0  0  0  0
  149.7111  136.2235  153.5427 H   0  0  0  0  0  0  0  0  0  0  0  0
  148.0111  136.2084  155.5846 H   0  0  0  0  0  0  0  0  0  0  0  0
  148.5423  135.1343  156.8498 H   0  0  0  0  0  0  0  0  0  0  0  0
  149.9309  136.1331  158.6753 H   0  0  0  0  0  0  0  0  0  0  0  0
  151.5708  140.0973  159.5317 H   0  0  0  0  0  0  0  0  0  0  0  0
  152.8218  139.2075  158.6786 H   0  0  0  0  0  0  0  0  0  0  0  0
  153.7870  140.6460  160.4902 H   0  0  0  0  0  0  0  0  0  0  0  0
  154.4059  141.0498  158.9080 H   0  0  0  0  0  0  0  0  0  0  0  0
  150.7464  143.9180  161.6282 H   0  0  0  0  0  0  0  0  0  0  0  0
  152.4401  144.3809  161.6273 H   0  0  0  0  0  0  0  0  0  0  0  0
  151.7921  145.0228  157.8008 H   0  0  0  0  0  0  0  0  0  0  0  0
  151.1673  142.5794  156.7647 H   0  0  0  0  0  0  0  0  0  0  0  0
  150.5624  142.1419  158.3426 H   0  0  0  0  0  0  0  0  0  0  0  0
  150.2969  140.0817  153.6023 H   0  0  0  0  0  0  0  0  0  0  0  0
  1  2  1  0  0  0  0
  1 31  1  0  0  0  0
  1 32  1  0  0  0  0
  1 33  1  0  0  0  0
  2  6  1  0  0  0  0
  2  3  1  0  0  0  0
  2 34  1  0  0  0  0
  3  4  1  0  0  0  0
  4  5  1  0  0  0  0
  4 35  1  0  0  0  0
  4 36  1  0  0  0  0
  5  6  1  0  0  0  0
  5 37  1  0  0  0  0
  5 38  1  0  0  0  0
  6  7  1  0  0  0  0
  6  8  1  0  0  0  0
  7 39  1  0  0  0  0
  8  9  1  0  0  0  0
  8 40  1  0  0  0  0
  8 41  1  0  0  0  0
  9 28  1  0  0  0  0
  9 10  1  0  0  0  0
 10 11  2  0  0  0  0
 10 42  1  0  0  0  0
 11 12  1  0  0  0  0
 12 28  2  0  0  0  0
 12 13  1  0  0  0  0
 13 14  1  0  0  0  0
 13 25  2  0  0  0  0
 14 24  1  0  0  0  0
 14 15  1  0  0  0  0
 15 16  1  0  0  0  0
 15 43  1  0  0  0  0
 15 44  1  0  0  0  0
 16 17  1  0  0  0  0
 16 45  1  0  0  0  0
 16 46  1  0  0  0  0
 17 29  1  0  0  0  0
 17 23  1  0  0  0  0
 17 18  1  0  0  0  0
 18 19  1  0  0  0  0
 19 20  1  0  0  0  0
 19 47  1  0  0  0  0
 19 48  1  0  0  0  0
 20 21  2  0  0  0  0
 20 22  1  0  0  0  0
 22 23  1  0  0  0  0
 22 49  1  0  0  0  0
 23 30  1  0  0  0  0
 23 24  1  0  0  0  0
 24 50  1  0  0  0  0
 24 51  1  0  0  0  0
 25 26  1  0  0  0  0
 26 27  2  0  0  0  0
 26 52  1  0  0  0  0
 27 28  1  0  0  0  0
M  END
> <s_m_source_file>
AV-unprocessed.smi

> <i_m_source_file_index>
265

> <i_lp_mmshare_version>
43012

> <i_f3d_flags>
0

> <s_epik_input>
W0NIMl0xW0NIMl1PW0NAQEhdKFtDSDNdKVtDQEBdMShbT0hdKVtDSDJdbihbY0hdbjIpYyhjMjMpbltjSF1uYzNOKFtDSDJdW0NIMl00KVtDSDJdW0NAQEhdKFtDQEhdNDUpW05IXUMoPU8pW0NIMl1PNQ==

> <s_epik_cmdline>
J2VwaWtfcHl0aG9uJywgJy1waCcsICc3LjAnLCAnLXRuJywgJzgnLCAnLW1hJywgJzIwMCcsICctbWV0YWxfYmluZGluZycsICctaW1hZScsICc8aW5maWxlLm1hZT4nLCAnLW9tYWUnLCAnPG91dGZpbGUubWFlPic=

> <r_lp_tautomer_probability>
1

> <r_epik_Ionization_Penalty>
0.00221504

> <r_epik_Ionization_Penalty_Charging>
0

> <r_epik_Ionization_Penalty_Neutral>
0.00221504

> <r_epik_State_Penalty>
-0

> <r_epik_Charging_Adjusted_Penalty>
0

> <i_epik_Tot_Q>
0

> <i_epik_Tot_abs_Q>
0

> <r_epik_Metal_State_Penalty>
-0

> <b_epik_Metal_Only>
0

> <s_lp_Force_Field>
OPLS_2005

> <r_lp_Energy>
44.4274

> <b_lp_Chiralities_Consistent>
1

> <s_lp_Variant>
AV-unprocessed.smi:265-12

> <Gold.Version>
5.8.1

> <Gold.Id.Protein>
6NUR|6NUR_protein|mol2

> <Gold.PLP.Fitness>
42.7196

> <Gold.PLP.PLP>
-38.3411

> <Gold.PLP.part.hbond>
-5.3685

> <Gold.PLP.part.metal>
0.0000

> <Gold.PLP.part.buried>
-2.0042

> <Gold.PLP.part.nonpolar>
-30.8581

> <Gold.PLP.part.repulsive>
0.5107

> <Gold.PLP.ligand.clash>
0.8580

> <Gold.PLP.ligand.torsion>
0.4095

> <Gold.PLP.Chemscore.Hbond>
0.8960

> <Gold.PLP.Chemscore.CHOScore>
0.9993

> <Gold.PLP.Chemscore.Metal>
0.0000

> <Gold.Chemscore.Hbonds>
donor molecule, donor type, donor heavy atom, donor atom, acceptor molecule, acceptor atom, score
      L1  H     7    39       P1  7948  0.90
      L1  C    26    52       P1  7957  1.00

> <Gold.PLP.Chemscore.Internal.Correction>
0.3697

> <Gold.Rescore>
     Score         DG    S(hbond)    S(metal)    S(lipo)     H(rot)  DE(clash)    DE(int)     intcor
      4.41     -11.29       0.48        0.00      85.06       2.25       0.61       6.27       ----

> <Gold.Chemscore.Fitness>
4.4069

> <Gold.Chemscore.DG>
-11.2884

> <Gold.Chemscore.ZeroCoef>
-5.4800

> <Gold.Chemscore.Hbond>
0.4803

> <Gold.Chemscore.Metal>
0.0000

> <Gold.Chemscore.Lipo>
85.0595

> <Gold.Chemscore.Internal_Hbond>
0.0000

> <Gold.Chemscore.DEClash>
0.6092

> <Gold.Chemscore.DEInternal>
6.2723

> <Gold.Chemscore.Rot>
2.2453

> <Gold.Chemscore.Internal.Correction>
   9.000000E+99

> <Gold.Chemscore.Hbonds>
donor molecule, donor type, donor heavy atom, donor atom, acceptor molecule, acceptor atom, score
      L1  H     7    39       P1  7948  0.26

> <Gold.Chemscore.Hbond.Weighted>
-1.6044

> <Gold.Chemscore.Metal.Weighted>
-0.0000

> <Gold.Chemscore.Lipo.Weighted>
-9.9520

> <Gold.Chemscore.Internal_Hbond.Weighted>
0.0000

> <Gold.Chemscore.DEClash.Weighted>
0.6092

> <Gold.Chemscore.DEInternal.Weighted>
6.2723

> <Gold.Chemscore.Rot.Weighted>
5.7479

> <Gold.Chemscore.Internal.Correction.Weighted>
   9.000000E+99

> <Gold.Protein.RotatedTorsions>
[ 6907 6896 6895 6894 ] final -176.96 input  -60.11 | X-H torsion
[ 7974 7965 7964 7962 ] final  -34.93 input  175.53 | X-H torsion
[ 8008 7997 7996 7995 ] final   66.88 input   59.86 | X-H torsion
[ 10167 10162 10161 10158 ] final  -57.85 input  -65.29 | X-H torsion
[ 10718 10713 10712 10709 ] final  -94.69 input   66.30 | X-H torsion
[ 10763 10752 10751 10750 ] final -121.80 input  -60.55 | X-H torsion
[ 11005 11000 10999 10996 ] final  -39.47 input  -57.11 | X-H torsion

> <Gold.Protein.ActiveResidues>
 VAL166  LYS551  ARG553  GLY616  TRP617  ASP618  TYR619  PRO620  LYS621  CYS622 
 ASP623  PHE694  ASN695  SER759  ASP760  ASP761  ALA762  ILE779  LEU786  VAL792 
 PHE793  MET794  SER795  GLU796  ALA797  LYS798  CYS799  TRP800  GLU811  SER814 

> <Gold.Protein.RotatedAtoms>
  151.6133  133.3345  159.3071 H   0  0  0  0  0  0  0  0  0  0  0  0  # atno 6907 bound_to 6896
  150.8145  134.7322  159.6729 H   0  0  0  0  0  0  0  0  0  0  0  0  # atno 6908 bound_to 6896
  152.4241  134.5906  160.0024 H   0  0  0  0  0  0  0  0  0  0  0  0  # atno 6909 bound_to 6896
  146.0789  140.6098  142.8918 H   0  0  0  0  0  0  0  0  0  0  0  0  # atno 7974 bound_to 7965
  155.6842  140.3496  155.4867 H   0  0  0  0  0  0  0  0  0  0  0  0  # atno 8008 bound_to 7997
  155.9580  140.1132  157.0942 H   0  0  0  0  0  0  0  0  0  0  0  0  # atno 8009 bound_to 7997
  154.4136  140.1181  156.5128 H   0  0  0  0  0  0  0  0  0  0  0  0  # atno 8010 bound_to 7997
  140.6233  143.2428  151.5427 H   0  0  0  0  0  0  0  0  0  0  0  0  # atno 10167 bound_to 10162
  156.0031  130.5078  150.5965 H   0  0  0  0  0  0  0  0  0  0  0  0  # atno 10718 bound_to 10713
  154.8676  135.4155  154.2679 H   0  0  0  0  0  0  0  0  0  0  0  0  # atno 10763 bound_to 10752
  153.3594  135.7002  153.6730 H   0  0  0  0  0  0  0  0  0  0  0  0  # atno 10764 bound_to 10752
  153.5636  135.3605  155.2782 H   0  0  0  0  0  0  0  0  0  0  0  0  # atno 10765 bound_to 10752
  141.0104  133.6911  156.2191 H   0  0  0  0  0  0  0  0  0  0  0  0  # atno 11005 bound_to 11000
  144.7280  140.4583  143.6959 LP  0  0  0  0  0  0  0  0  0  0  0  0  # atno 17320 bound_to 7965
  145.6255  139.1529  143.2998 LP  0  0  0  0  0  0  0  0  0  0  0  0  # atno 17321 bound_to 7965
  139.5457  144.2527  152.1438 LP  0  0  0  0  0  0  0  0  0  0  0  0  # atno 17342 bound_to 10162
  140.1752  144.4898  150.6558 LP  0  0  0  0  0  0  0  0  0  0  0  0  # atno 17343 bound_to 10162
  157.3821  131.0782  151.1468 LP  0  0  0  0  0  0  0  0  0  0  0  0  # atno 17370 bound_to 10713
  157.2187  130.6471  149.5802 LP  0  0  0  0  0  0  0  0  0  0  0  0  # atno 17371 bound_to 10713
  140.6742  134.4835  157.5588 LP  0  0  0  0  0  0  0  0  0  0  0  0  # atno 17394 bound_to 11000
  139.9087  134.8393  156.1609 LP  0  0  0  0  0  0  0  0  0  0  0  0  # atno 17395 bound_to 11000

$$$$
