AV-unprocessed.smi:2023|AV-procd|sdf|8189|dock5
  -GOLD-   2272010443D 1   1.00000     0.00000
 Structure written by MMmdl.
 35 36  0  0  0  0  0  0  0  0  1 V2000
  152.3961  136.9345  159.9828 O   0  0  0  0  0  0  0  0  0  0  0  0
  153.8198  137.3038  159.9913 S   0  0  0  0  0  0  0  0  0  0  0  0
  154.6724  137.0564  158.8187 O   0  0  0  0  0  0  0  0  0  0  0  0
  153.9659  138.9714  160.4100 N   0  0  0  0  0  0  0  0  0  0  0  0
  153.0910  139.9500  159.7614 C   0  0  0  0  0  0  0  0  0  0  0  0
  153.4349  141.3803  160.2103 C   0  0  0  0  0  0  0  0  0  0  0  0
  152.5599  142.4378  159.5618 C   0  0  0  0  0  0  0  0  0  0  0  0
  152.7355  143.8053  159.8580 C   0  0  0  0  0  0  0  0  0  0  0  0
  151.8822  144.7465  159.2513 C   0  0  0  0  0  0  0  0  0  0  0  0
  150.8895  144.2784  158.3675 C   0  0  0  0  0  0  0  0  0  0  0  0
  150.7160  142.9725  158.0709 N   0  0  0  0  0  0  0  0  0  0  0  0
  151.5366  142.0763  158.6601 C   0  0  0  0  0  0  0  0  0  0  0  0
  154.5604  136.5923  161.3845 N   0  0  0  0  0  0  0  0  0  0  0  0
  154.7648  135.1346  161.3470 C   0  0  0  0  0  0  0  0  0  0  0  0
  155.6136  134.6590  162.5374 C   0  0  0  0  0  0  0  0  0  0  0  0
  155.0367  135.1007  163.7561 O   0  0  0  0  0  0  0  0  0  0  0  0
  155.0071  136.5173  163.8298 C   0  0  0  0  0  0  0  0  0  0  0  0
  154.1297  137.0887  162.7045 C   0  0  0  0  0  0  0  0  0  0  0  0
  154.9381  139.2762  160.4527 H   0  0  0  0  0  0  0  0  0  0  0  0
  153.2089  139.8594  158.6815 H   0  0  0  0  0  0  0  0  0  0  0  0
  152.0485  139.7194  159.9848 H   0  0  0  0  0  0  0  0  0  0  0  0
  153.3532  141.4590  161.2952 H   0  0  0  0  0  0  0  0  0  0  0  0
  154.4761  141.5972  159.9688 H   0  0  0  0  0  0  0  0  0  0  0  0
  153.5037  144.1282  160.5450 H   0  0  0  0  0  0  0  0  0  0  0  0
  151.9841  145.8012  159.4596 H   0  0  0  0  0  0  0  0  0  0  0  0
  150.2173  144.9722  157.8847 H   0  0  0  0  0  0  0  0  0  0  0  0
  151.3662  141.0393  158.4108 H   0  0  0  0  0  0  0  0  0  0  0  0
  153.7917  134.6425  161.3602 H   0  0  0  0  0  0  0  0  0  0  0  0
  155.2519  134.8552  160.4127 H   0  0  0  0  0  0  0  0  0  0  0  0
  155.6659  133.5701  162.5470 H   0  0  0  0  0  0  0  0  0  0  0  0
  156.6387  135.0234  162.4525 H   0  0  0  0  0  0  0  0  0  0  0  0
  154.6066  136.8112  164.8000 H   0  0  0  0  0  0  0  0  0  0  0  0
  156.0203  136.9182  163.7719 H   0  0  0  0  0  0  0  0  0  0  0  0
  154.1723  138.1768  162.7275 H   0  0  0  0  0  0  0  0  0  0  0  0
  153.0879  136.8076  162.8643 H   0  0  0  0  0  0  0  0  0  0  0  0
  1  2  2  0  0  0  0
  2  3  2  0  0  0  0
  2  4  1  0  0  0  0
  2 13  1  0  0  0  0
  4  5  1  0  0  0  0
  4 19  1  0  0  0  0
  5  6  1  0  0  0  0
  5 20  1  0  0  0  0
  5 21  1  0  0  0  0
  6  7  1  0  0  0  0
  6 22  1  0  0  0  0
  6 23  1  0  0  0  0
  7 12  1  0  0  0  0
  7  8  2  0  0  0  0
  8  9  1  0  0  0  0
  8 24  1  0  0  0  0
  9 10  2  0  0  0  0
  9 25  1  0  0  0  0
 10 11  1  0  0  0  0
 10 26  1  0  0  0  0
 11 12  2  0  0  0  0
 12 27  1  0  0  0  0
 13 18  1  0  0  0  0
 13 14  1  0  0  0  0
 14 15  1  0  0  0  0
 14 28  1  0  0  0  0
 14 29  1  0  0  0  0
 15 16  1  0  0  0  0
 15 30  1  0  0  0  0
 15 31  1  0  0  0  0
 16 17  1  0  0  0  0
 17 18  1  0  0  0  0
 17 32  1  0  0  0  0
 17 33  1  0  0  0  0
 18 34  1  0  0  0  0
 18 35  1  0  0  0  0
M  END
> <s_m_source_file>
AV-unprocessed.smi

> <i_m_source_file_index>
2023

> <i_lp_mmshare_version>
43012

> <i_f3d_flags>
0

> <s_epik_input>
W0NIMl0xW0NIMl1PW0NIMl1bQ0gyXU4xUyg9TykoPU8pW05IXVtDSDJdW0NIMl1jMltjSF1bY0hdW2NIXW5bY0hdMg==

> <s_epik_cmdline>
J2VwaWtfcHl0aG9uJywgJy1waCcsICc3LjAnLCAnLXRuJywgJzgnLCAnLW1hJywgJzIwMCcsICctbWV0YWxfYmluZGluZycsICctaW1hZScsICc8aW5maWxlLm1hZT4nLCAnLW9tYWUnLCAnPG91dGZpbGUubWFlPic=

> <r_epik_Ionization_Penalty>
0.0861056

> <r_epik_Ionization_Penalty_Charging>
0

> <r_epik_Ionization_Penalty_Neutral>
0.0861056

> <r_epik_State_Penalty>
0.0574425

> <r_epik_Charging_Adjusted_Penalty>
0.0574425

> <i_epik_Tot_Q>
0

> <i_epik_Tot_abs_Q>
0

> <r_epik_Metal_State_Penalty>
0.317425

> <b_epik_Metal_Only>
0

> <s_lp_Force_Field>
OPLS_2005

> <r_lp_Energy>
8.68862

> <b_lp_Chiralities_Consistent>
1

> <s_lp_Variant>
AV-unprocessed.smi:2023-1

> <Gold.Version>
5.8.1

> <Gold.Id.Protein>
6NUR|6NUR_protein|mol2

> <Gold.PLP.Fitness>
44.0775

> <Gold.PLP.PLP>
-38.7841

> <Gold.PLP.part.hbond>
-1.0000

> <Gold.PLP.part.metal>
0.0000

> <Gold.PLP.part.buried>
-5.6290

> <Gold.PLP.part.nonpolar>
-32.6132

> <Gold.PLP.part.repulsive>
0.1734

> <Gold.PLP.ligand.clash>
0.0000

> <Gold.PLP.ligand.torsion>
0.7340

> <Gold.PLP.Chemscore.Hbond>
1.0000

> <Gold.PLP.Chemscore.CHOScore>
1.0000

> <Gold.PLP.Chemscore.Metal>
0.0000

> <Gold.Chemscore.Hbonds>
donor molecule, donor type, donor heavy atom, donor atom, acceptor molecule, acceptor atom, score
      P1  H  6896  6907       L1     1  1.00
      L1  C    10    26       P1  8028  0.51
      L1  C    10    26       P1  8029  0.47

> <Gold.PLP.Chemscore.Internal.Correction>
0.7614

> <Gold.Rescore>
     Score         DG    S(hbond)    S(metal)    S(lipo)     H(rot)  DE(clash)    DE(int)     intcor
     16.25     -17.12       0.99        0.00     111.44       1.84       0.05       0.82       ----

> <Gold.Chemscore.Fitness>
16.2536

> <Gold.Chemscore.DG>
-17.1229

> <Gold.Chemscore.ZeroCoef>
-5.4800

> <Gold.Chemscore.Hbond>
0.9910

> <Gold.Chemscore.Metal>
0.0000

> <Gold.Chemscore.Lipo>
111.4411

> <Gold.Chemscore.Internal_Hbond>
0.0000

> <Gold.Chemscore.DEClash>
0.0475

> <Gold.Chemscore.DEInternal>
0.8218

> <Gold.Chemscore.Rot>
1.8382

> <Gold.Chemscore.Internal.Correction>
   9.000000E+99

> <Gold.Chemscore.Hbonds>
donor molecule, donor type, donor heavy atom, donor atom, acceptor molecule, acceptor atom, score
      P1  H  6896  6907       L1     1  0.97

> <Gold.Chemscore.Hbond.Weighted>
-3.3099

> <Gold.Chemscore.Metal.Weighted>
-0.0000

> <Gold.Chemscore.Lipo.Weighted>
-13.0386

> <Gold.Chemscore.Internal_Hbond.Weighted>
0.0000

> <Gold.Chemscore.DEClash.Weighted>
0.0475

> <Gold.Chemscore.DEInternal.Weighted>
0.8218

> <Gold.Chemscore.Rot.Weighted>
4.7057

> <Gold.Chemscore.Internal.Correction.Weighted>
   9.000000E+99

> <Gold.Protein.RotatedTorsions>
[ 6907 6896 6895 6894 ] final   20.33 input  -60.11 | X-H torsion
[ 7974 7965 7964 7962 ] final  130.43 input  175.53 | X-H torsion
[ 8008 7997 7996 7995 ] final   71.47 input   59.86 | X-H torsion
[ 10167 10162 10161 10158 ] final -157.82 input  -65.29 | X-H torsion
[ 10718 10713 10712 10709 ] final -160.53 input   66.30 | X-H torsion
[ 10763 10752 10751 10750 ] final  -79.21 input  -60.55 | X-H torsion
[ 11005 11000 10999 10996 ] final  170.57 input  -57.11 | X-H torsion

> <Gold.Protein.ActiveResidues>
 VAL166  LYS551  ARG553  GLY616  TRP617  ASP618  TYR619  PRO620  LYS621  CYS622 
 ASP623  PHE694  ASN695  SER759  ASP760  ASP761  ALA762  ILE779  LEU786  VAL792 
 PHE793  MET794  SER795  GLU796  ALA797  LYS798  CYS799  TRP800  GLU811  SER814 

> <Gold.Protein.RotatedAtoms>
  151.8947  135.0402  160.0500 H   0  0  0  0  0  0  0  0  0  0  0  0  # atno 6907 bound_to 6896
  152.2407  133.5129  159.5277 H   0  0  0  0  0  0  0  0  0  0  0  0  # atno 6908 bound_to 6896
  150.7053  134.1009  159.4008 H   0  0  0  0  0  0  0  0  0  0  0  0  # atno 6909 bound_to 6896
  145.0180  139.4158  143.5211 H   0  0  0  0  0  0  0  0  0  0  0  0  # atno 7974 bound_to 7965
  155.7544  140.3488  155.5166 H   0  0  0  0  0  0  0  0  0  0  0  0  # atno 8008 bound_to 7997
  155.8974  140.1028  157.1396 H   0  0  0  0  0  0  0  0  0  0  0  0  # atno 8009 bound_to 7997
  154.4040  140.1293  156.4379 H   0  0  0  0  0  0  0  0  0  0  0  0  # atno 8010 bound_to 7997
  139.6740  143.9695  152.2300 H   0  0  0  0  0  0  0  0  0  0  0  0  # atno 10167 bound_to 10162
  156.5834  130.8739  151.2871 H   0  0  0  0  0  0  0  0  0  0  0  0  # atno 10718 bound_to 10713
  154.5357  135.5703  153.6796 H   0  0  0  0  0  0  0  0  0  0  0  0  # atno 10763 bound_to 10752
  152.9950  135.6215  154.2569 H   0  0  0  0  0  0  0  0  0  0  0  0  # atno 10764 bound_to 10752
  154.2498  135.2859  155.2801 H   0  0  0  0  0  0  0  0  0  0  0  0  # atno 10765 bound_to 10752
  140.3098  134.7526  157.3982 H   0  0  0  0  0  0  0  0  0  0  0  0  # atno 11005 bound_to 11000
  146.3481  139.9662  142.8711 LP  0  0  0  0  0  0  0  0  0  0  0  0  # atno 17320 bound_to 7965
  145.1934  140.9822  143.4198 LP  0  0  0  0  0  0  0  0  0  0  0  0  # atno 17321 bound_to 7965
  139.9467  144.6647  150.8212 LP  0  0  0  0  0  0  0  0  0  0  0  0  # atno 17342 bound_to 10162
  140.7629  143.3209  151.2625 LP  0  0  0  0  0  0  0  0  0  0  0  0  # atno 17343 bound_to 10162
  157.7321  130.9710  150.1911 LP  0  0  0  0  0  0  0  0  0  0  0  0  # atno 17370 bound_to 10713
  156.2611  130.3711  149.8129 LP  0  0  0  0  0  0  0  0  0  0  0  0  # atno 17371 bound_to 10713
  140.1035  134.5441  155.8331 LP  0  0  0  0  0  0  0  0  0  0  0  0  # atno 17394 bound_to 11000
  141.2110  133.6702  156.6554 LP  0  0  0  0  0  0  0  0  0  0  0  0  # atno 17395 bound_to 11000

$$$$
