AV-unprocessed.smi:54|AV-procd|sdf|544|dock3
  -GOLD-   2262016433D 1   1.00000     0.00000
 Structure written by MMmdl.
 44 46  0  0  0  0  0  0  0  0  1 V2000
  149.3644  137.8504  157.2942 C   0  0  0  0  0  0  0  0  0  0  0  0
  150.3551  137.4308  156.1969 C   0  0  0  0  0  0  0  0  0  0  0  0
  150.4235  138.4801  155.0752 C   0  0  0  0  0  0  0  0  0  0  0  0
  149.9821  136.0551  155.6328 C   0  0  0  0  0  0  0  0  0  0  0  0
  150.7481  135.0924  155.6959 O   0  0  0  0  0  0  0  0  0  0  0  0
  148.6723  135.9714  155.0123 N   0  0  0  0  0  0  0  0  0  0  0  0
  148.1063  134.8815  154.4447 C   0  0  0  0  0  0  0  0  0  0  0  0
  147.0795  134.9535  153.6093 N   0  0  0  0  0  0  0  0  0  0  0  0
  146.6531  133.7462  153.1296 C   0  0  0  0  0  0  0  0  0  0  0  0
  147.1840  132.5085  153.4255 C   0  0  0  0  0  0  0  0  0  0  0  0
  146.4836  131.5140  152.7516 N   0  0  0  0  0  0  0  0  0  0  0  0
  145.5708  132.1649  152.0851 C   0  0  0  0  0  0  0  0  0  0  0  0
  145.6052  133.5287  152.2617 N   0  0  0  0  0  0  0  0  0  0  0  0
  144.7321  134.5882  151.6708 C   0  0  1  0  0  0  0  0  0  0  0  0
  144.2794  135.4062  152.7125 O   0  0  0  0  0  0  0  0  0  0  0  0
  144.7510  136.7384  152.5331 C   0  0  1  0  0  0  0  0  0  0  0  0
  144.9536  137.4491  153.8841 C   0  0  0  0  0  0  0  0  0  0  0  0
  145.3957  138.7819  153.7310 O   0  0  0  0  0  0  0  0  0  0  0  0
  145.9687  136.6179  151.6147 C   0  0  2  0  0  0  0  0  0  0  0  0
  146.2472  137.8028  150.8937 O   0  0  0  0  0  0  0  0  0  0  0  0
  145.5627  135.4592  150.7137 C   0  0  2  0  0  0  0  0  0  0  0  0
  144.7878  135.8603  149.5980 O   0  0  0  0  0  0  0  0  0  0  0  0
  148.3021  132.4153  154.3196 C   0  0  0  0  0  0  0  0  0  0  0  0
  148.9002  131.4076  154.6905 O   0  0  0  0  0  0  0  0  0  0  0  0
  148.7083  133.6713  154.7894 N   0  0  0  0  0  0  0  0  0  0  0  0
  143.9177  134.0381  151.1972 H   0  0  0  0  0  0  0  0  0  0  0  0
  143.9567  137.2564  151.9926 H   0  0  0  0  0  0  0  0  0  0  0  0
  146.8533  136.3284  152.1829 H   0  0  0  0  0  0  0  0  0  0  0  0
  146.4307  134.9154  150.3380 H   0  0  0  0  0  0  0  0  0  0  0  0
  149.3213  137.1095  158.0937 H   0  0  0  0  0  0  0  0  0  0  0  0
  148.3553  137.9731  156.8984 H   0  0  0  0  0  0  0  0  0  0  0  0
  149.6604  138.7982  157.7445 H   0  0  0  0  0  0  0  0  0  0  0  0
  151.3465  137.3562  156.6462 H   0  0  0  0  0  0  0  0  0  0  0  0
  151.1112  138.1740  154.2858 H   0  0  0  0  0  0  0  0  0  0  0  0
  150.7743  139.4381  155.4599 H   0  0  0  0  0  0  0  0  0  0  0  0
  149.4460  138.6460  154.6202 H   0  0  0  0  0  0  0  0  0  0  0  0
  148.1471  136.8322  154.9681 H   0  0  0  0  0  0  0  0  0  0  0  0
  144.8550  131.6652  151.4496 H   0  0  0  0  0  0  0  0  0  0  0  0
  144.0082  137.4765  154.4263 H   0  0  0  0  0  0  0  0  0  0  0  0
  145.6603  136.8984  154.5050 H   0  0  0  0  0  0  0  0  0  0  0  0
  144.6748  139.3030  153.4115 H   0  0  0  0  0  0  0  0  0  0  0  0
  145.4293  138.2464  150.7264 H   0  0  0  0  0  0  0  0  0  0  0  0
  145.2620  135.6384  148.8108 H   0  0  0  0  0  0  0  0  0  0  0  0
  149.4908  133.6822  155.4266 H   0  0  0  0  0  0  0  0  0  0  0  0
  1  2  1  0  0  0  0
  1 30  1  0  0  0  0
  1 31  1  0  0  0  0
  1 32  1  0  0  0  0
  2  3  1  0  0  0  0
  2  4  1  0  0  0  0
  2 33  1  0  0  0  0
  3 34  1  0  0  0  0
  3 35  1  0  0  0  0
  3 36  1  0  0  0  0
  4  5  2  0  0  0  0
  4  6  1  0  0  0  0
  6 37  1  0  0  0  0
  6  7  1  0  0  0  0
  7 25  1  0  0  0  0
  7  8  2  0  0  0  0
  8  9  1  0  0  0  0
  9 13  1  0  0  0  0
  9 10  2  0  0  0  0
 10 11  1  0  0  0  0
 10 23  1  0  0  0  0
 11 12  2  0  0  0  0
 12 13  1  0  0  0  0
 12 38  1  0  0  0  0
 13 14  1  0  0  0  0
 14 26  1  0  0  0  0
 14 21  1  0  0  0  0
 14 15  1  0  0  0  0
 15 16  1  0  0  0  0
 16 27  1  0  0  0  0
 16 17  1  0  0  0  0
 16 19  1  0  0  0  0
 17 18  1  0  0  0  0
 17 39  1  0  0  0  0
 17 40  1  0  0  0  0
 18 41  1  0  0  0  0
 19 28  1  0  0  0  0
 19 20  1  0  0  0  0
 19 21  1  0  0  0  0
 20 42  1  0  0  0  0
 21 29  1  0  0  0  0
 21 22  1  0  0  0  0
 22 43  1  0  0  0  0
 23 24  2  0  0  0  0
 23 25  1  0  0  0  0
 25 44  1  0  0  0  0
M  END
> <s_m_source_file>
AV-unprocessed.smi

> <i_m_source_file_index>
54

> <i_lp_mmshare_version>
43012

> <i_f3d_flags>
0

> <s_epik_input>
W0NIM11bQ0hdKFtDSDNdKUMoPU8pW05IXWMobjEpW25IXWMoPU8pYyhjMTIpbltjSF1uMltDQEBIXTNPW0NASF0oW0NIMl1bT0hdKVtDQEBIXShbT0hdKVtDQEhdM1tPSF0=

> <s_epik_cmdline>
J2VwaWtfcHl0aG9uJywgJy1waCcsICc3LjAnLCAnLXRuJywgJzgnLCAnLW1hJywgJzIwMCcsICctbWV0YWxfYmluZGluZycsICctaW1hZScsICc8aW5maWxlLm1hZT4nLCAnLW9tYWUnLCAnPG91dGZpbGUubWFlPic=

> <r_lp_tautomer_probability>
0.85571

> <r_epik_Ionization_Penalty>
0.0316551

> <r_epik_Ionization_Penalty_Charging>
0.0316043

> <r_epik_Ionization_Penalty_Neutral>
5.07097e-05

> <r_epik_State_Penalty>
3.15494e-07

> <r_epik_Charging_Adjusted_Penalty>
0.0316047

> <i_epik_Tot_Q>
0

> <i_epik_Tot_abs_Q>
0

> <r_epik_Metal_State_Penalty>
0.421206

> <b_epik_Metal_Only>
0

> <s_epik_Chemistry_Notes>
This compound contains an acetal/aminal-like group ( X-CH(R)-Y where X, Y are N, S, or O) that may be acid/base labile, releasing an aldehyde.

> <s_lp_Force_Field>
OPLS_2005

> <r_lp_Energy>
44.5551

> <b_lp_Chiralities_Consistent>
1

> <s_lp_Variant>
AV-unprocessed.smi:54-16

> <Gold.Version>
5.8.1

> <Gold.Id.Protein>
6NUR|6NUR_protein|mol2

> <Gold.PLP.Fitness>
42.0664

> <Gold.PLP.PLP>
-28.0513

> <Gold.PLP.part.hbond>
-7.3018

> <Gold.PLP.part.metal>
0.0000

> <Gold.PLP.part.buried>
-1.9818

> <Gold.PLP.part.nonpolar>
-21.5706

> <Gold.PLP.part.repulsive>
3.4620

> <Gold.PLP.ligand.clash>
0.0000

> <Gold.PLP.ligand.torsion>
0.2148

> <Gold.PLP.Chemscore.Hbond>
4.7976

> <Gold.PLP.Chemscore.CHOScore>
0.0000

> <Gold.PLP.Chemscore.Metal>
0.0000

> <Gold.Chemscore.Hbonds>
donor molecule, donor type, donor heavy atom, donor atom, acceptor molecule, acceptor atom, score
      L1  H    18    41       P1 10175  1.00
      L1  H    20    42       P1 10171  1.00
      L1  H    22    43       P1  7921  1.00
      P1  H  7954  7966       L1    20  0.68

> <Gold.PLP.Chemscore.Internal.Correction>
0.0518

> <Gold.Rescore>
     Score         DG    S(hbond)    S(metal)    S(lipo)     H(rot)  DE(clash)    DE(int)     intcor
      8.81     -14.33       4.28        0.00      41.94       4.05       2.89       2.64       ----

> <Gold.Chemscore.Fitness>
8.8076

> <Gold.Chemscore.DG>
-14.3296

> <Gold.Chemscore.ZeroCoef>
-5.4800

> <Gold.Chemscore.Hbond>
4.2840

> <Gold.Chemscore.Metal>
0.0000

> <Gold.Chemscore.Lipo>
41.9417

> <Gold.Chemscore.Internal_Hbond>
0.0000

> <Gold.Chemscore.DEClash>
2.8859

> <Gold.Chemscore.DEInternal>
2.6361

> <Gold.Chemscore.Rot>
4.0493

> <Gold.Chemscore.Internal.Correction>
   9.000000E+99

> <Gold.Chemscore.Hbonds>
donor molecule, donor type, donor heavy atom, donor atom, acceptor molecule, acceptor atom, score
      L1  H    18    41       P1 10175  1.00
      L1  H    20    42       P1 10171  0.98
      L1  H    22    43       P1  7921  1.00
      P1  H  7954  7966       L1    20  0.60
      P1  H 10752 10765       L1     5  0.04

> <Gold.Chemscore.Hbond.Weighted>
-14.3086

> <Gold.Chemscore.Metal.Weighted>
-0.0000

> <Gold.Chemscore.Lipo.Weighted>
-4.9072

> <Gold.Chemscore.Internal_Hbond.Weighted>
0.0000

> <Gold.Chemscore.DEClash.Weighted>
2.8859

> <Gold.Chemscore.DEInternal.Weighted>
2.6361

> <Gold.Chemscore.Rot.Weighted>
10.3662

> <Gold.Chemscore.Internal.Correction.Weighted>
   9.000000E+99

> <Gold.Protein.RotatedTorsions>
[ 6907 6896 6895 6894 ] final  157.56 input  -60.11 | X-H torsion
[ 7974 7965 7964 7962 ] final  -91.01 input  175.53 | X-H torsion
[ 8008 7997 7996 7995 ] final  -45.48 input   59.86 | X-H torsion
[ 10167 10162 10161 10158 ] final    6.73 input  -65.29 | X-H torsion
[ 10718 10713 10712 10709 ] final   66.16 input   66.30 | X-H torsion
[ 10763 10752 10751 10750 ] final -172.42 input  -60.55 | X-H torsion
[ 11005 11000 10999 10996 ] final  112.01 input  -57.11 | X-H torsion

> <Gold.Protein.ActiveResidues>
 VAL166  LYS551  ARG553  GLY616  TRP617  ASP618  TYR619  PRO620  LYS621  CYS622 
 ASP623  PHE694  ASN695  SER759  ASP760  ASP761  ALA762  ILE779  LEU786  VAL792 
 PHE793  MET794  SER795  GLU796  ALA797  LYS798  CYS799  TRP800  GLU811  SER814 

> <Gold.Protein.RotatedAtoms>
  152.0133  133.3869  159.4228 H   0  0  0  0  0  0  0  0  0  0  0  0  # atno 6907 bound_to 6896
  150.6897  134.3707  159.5000 H   0  0  0  0  0  0  0  0  0  0  0  0  # atno 6908 bound_to 6896
  152.1470  134.9017  160.0601 H   0  0  0  0  0  0  0  0  0  0  0  0  # atno 6909 bound_to 6896
  145.4188  140.9550  143.2192 H   0  0  0  0  0  0  0  0  0  0  0  0  # atno 7974 bound_to 7965
  154.4001  140.1395  156.3854 H   0  0  0  0  0  0  0  0  0  0  0  0  # atno 8008 bound_to 7997
  155.7964  140.3477  155.5357 H   0  0  0  0  0  0  0  0  0  0  0  0  # atno 8009 bound_to 7997
  155.8527  140.0944  157.1654 H   0  0  0  0  0  0  0  0  0  0  0  0  # atno 8010 bound_to 7997
  140.6411  143.7771  150.7430 H   0  0  0  0  0  0  0  0  0  0  0  0  # atno 10167 bound_to 10162
  157.6152  130.9253  150.0072 H   0  0  0  0  0  0  0  0  0  0  0  0  # atno 10718 bound_to 10713
  154.6194  135.2873  155.0343 H   0  0  0  0  0  0  0  0  0  0  0  0  # atno 10763 bound_to 10752
  154.1543  135.6498  153.4974 H   0  0  0  0  0  0  0  0  0  0  0  0  # atno 10764 bound_to 10752
  153.0229  135.5363  154.6978 H   0  0  0  0  0  0  0  0  0  0  0  0  # atno 10765 bound_to 10752
  139.8917  134.9520  156.6520 H   0  0  0  0  0  0  0  0  0  0  0  0  # atno 11005 bound_to 11000
  144.8259  139.5711  143.6966 LP  0  0  0  0  0  0  0  0  0  0  0  0  # atno 17320 bound_to 7965
  146.2667  139.6536  142.9324 LP  0  0  0  0  0  0  0  0  0  0  0  0  # atno 17321 bound_to 7965
  140.1403  143.4447  152.2198 LP  0  0  0  0  0  0  0  0  0  0  0  0  # atno 17342 bound_to 10162
  139.5621  144.7412  151.4126 LP  0  0  0  0  0  0  0  0  0  0  0  0  # atno 17343 bound_to 10162
  156.1271  130.3644  149.9792 LP  0  0  0  0  0  0  0  0  0  0  0  0  # atno 17370 bound_to 10713
  156.7861  130.9239  151.3646 LP  0  0  0  0  0  0  0  0  0  0  0  0  # atno 17371 bound_to 10713
  140.7513  133.8895  155.8349 LP  0  0  0  0  0  0  0  0  0  0  0  0  # atno 17394 bound_to 11000
  140.9998  134.1165  157.4328 LP  0  0  0  0  0  0  0  0  0  0  0  0  # atno 17395 bound_to 11000

$$$$
