AV-unprocessed.smi:1930|AV-procd|sdf|7810|dock4
  -GOLD-   22720 9553D 1   1.00000     0.00000
 Structure written by MMmdl.
 42 43  0  0  0  0  0  0  0  0  2 V2000
  153.6691  134.1859  165.2351 C   0  0  0  0  0  0  0  0  0  0  0  0
  154.7857  134.7320  163.8794 S   0  0  0  0  0  0  0  0  0  0  0  0
  156.1551  134.8042  164.4114 O   0  0  0  0  0  0  0  0  0  0  0  0
  154.5064  133.9090  162.6926 O   0  0  0  0  0  0  0  0  0  0  0  0
  154.2593  136.3544  163.5392 N   0  0  0  0  0  0  0  0  0  0  0  0
  154.0635  136.7723  162.1320 C   0  0  0  0  0  0  0  0  0  0  0  0
  155.2100  137.6801  161.6452 C   0  0  0  0  0  0  0  0  0  0  0  0
  155.3463  138.8105  162.5737 N   0  0  0  0  0  0  0  0  0  0  0  0
  154.9531  140.0899  162.3574 C   0  0  0  0  0  0  0  0  0  0  0  0
  155.1193  140.9946  163.1761 O   0  0  0  0  0  0  0  0  0  0  0  0
  154.4068  140.3120  161.1500 N   0  0  0  0  0  0  0  0  0  0  0  0
  153.9333  141.6035  160.6597 C   0  0  0  0  0  0  0  0  0  0  0  0
  152.6121  141.5047  159.8706 C   0  0  0  0  0  0  0  0  0  0  0  0
  152.0841  142.8476  159.3961 C   0  0  0  0  0  0  0  0  0  0  0  0
  152.5307  144.0470  159.9933 C   0  0  0  0  0  0  0  0  0  0  0  0
  152.0192  145.2793  159.5362 C   0  0  0  0  0  0  0  0  0  0  0  0
  151.0722  145.2845  158.4916 C   0  0  0  0  0  0  0  0  0  0  0  0
  150.6688  144.1170  157.9438 N   0  3  0  0  0  0  0  0  0  0  0  0
  151.1354  142.9168  158.3522 C   0  0  0  0  0  0  0  0  0  0  0  0
  155.7515  138.3269  163.8952 C   0  0  0  0  0  0  0  0  0  0  0  0
  154.6266  137.4449  164.4713 C   0  0  0  0  0  0  0  0  0  0  0  0
  153.9243  133.1649  165.5180 H   0  0  0  0  0  0  0  0  0  0  0  0
  152.6351  134.2121  164.8953 H   0  0  0  0  0  0  0  0  0  0  0  0
  153.7941  134.8353  166.1003 H   0  0  0  0  0  0  0  0  0  0  0  0
  153.9710  135.9006  161.4848 H   0  0  0  0  0  0  0  0  0  0  0  0
  153.1171  137.3094  162.0614 H   0  0  0  0  0  0  0  0  0  0  0  0
  156.1479  137.1253  161.6169 H   0  0  0  0  0  0  0  0  0  0  0  0
  155.0263  137.9774  160.6130 H   0  0  0  0  0  0  0  0  0  0  0  0
  154.3078  139.5245  160.5261 H   0  0  0  0  0  0  0  0  0  0  0  0
  153.7875  142.2443  161.5299 H   0  0  0  0  0  0  0  0  0  0  0  0
  154.7043  142.0810  160.0528 H   0  0  0  0  0  0  0  0  0  0  0  0
  152.7499  140.8542  159.0062 H   0  0  0  0  0  0  0  0  0  0  0  0
  151.8506  141.0240  160.4862 H   0  0  0  0  0  0  0  0  0  0  0  0
  153.2558  144.0237  160.7938 H   0  0  0  0  0  0  0  0  0  0  0  0
  152.3494  146.2071  159.9802 H   0  0  0  0  0  0  0  0  0  0  0  0
  150.6290  146.1797  158.0803 H   0  0  0  0  0  0  0  0  0  0  0  0
  150.7348  142.0545  157.8388 H   0  0  0  0  0  0  0  0  0  0  0  0
  156.6777  137.7593  163.8057 H   0  0  0  0  0  0  0  0  0  0  0  0
  155.9753  139.1395  164.5879 H   0  0  0  0  0  0  0  0  0  0  0  0
  153.7406  138.0550  164.6517 H   0  0  0  0  0  0  0  0  0  0  0  0
  154.9216  137.0382  165.4381 H   0  0  0  0  0  0  0  0  0  0  0  0
  149.9843  144.1432  157.1876 H   0  0  0  0  0  0  0  0  0  0  0  0
  1  2  1  0  0  0  0
  1 22  1  0  0  0  0
  1 23  1  0  0  0  0
  1 24  1  0  0  0  0
  2  3  2  0  0  0  0
  2  4  2  0  0  0  0
  2  5  1  0  0  0  0
  5 21  1  0  0  0  0
  5  6  1  0  0  0  0
  6  7  1  0  0  0  0
  6 25  1  0  0  0  0
  6 26  1  0  0  0  0
  7  8  1  0  0  0  0
  7 27  1  0  0  0  0
  7 28  1  0  0  0  0
  8  9  1  0  0  0  0
  8 20  1  0  0  0  0
  9 10  2  0  0  0  0
  9 11  1  0  0  0  0
 11 12  1  0  0  0  0
 11 29  1  0  0  0  0
 12 13  1  0  0  0  0
 12 30  1  0  0  0  0
 12 31  1  0  0  0  0
 13 14  1  0  0  0  0
 13 32  1  0  0  0  0
 13 33  1  0  0  0  0
 14 19  1  0  0  0  0
 14 15  2  0  0  0  0
 15 16  1  0  0  0  0
 15 34  1  0  0  0  0
 16 17  2  0  0  0  0
 16 35  1  0  0  0  0
 17 18  1  0  0  0  0
 17 36  1  0  0  0  0
 18 19  2  0  0  0  0
 18 42  1  0  0  0  0
 19 37  1  0  0  0  0
 20 21  1  0  0  0  0
 20 38  1  0  0  0  0
 20 39  1  0  0  0  0
 21 40  1  0  0  0  0
 21 41  1  0  0  0  0
M  CHG  1  18   1
M  END
> <s_m_source_file>
AV-unprocessed.smi

> <i_m_source_file_index>
1930

> <i_lp_mmshare_version>
43012

> <i_f3d_flags>
0

> <s_epik_input>
W0NIM11TKD1PKSg9TylOMVtDSDJdW0NIMl1OKFtDSDJdW0NIMl0xKUMoPU8pW05IXVtDSDJdW0NIMl1jMltjSF1bY0hdW2NIXW5bY0hdMg==

> <s_epik_cmdline>
J2VwaWtfcHl0aG9uJywgJy1waCcsICc3LjAnLCAnLXRuJywgJzgnLCAnLW1hJywgJzIwMCcsICctbWV0YWxfYmluZGluZycsICctaW1hZScsICc8aW5maWxlLm1hZT4nLCAnLW9tYWUnLCAnPG91dGZpbGUubWFlPic=

> <r_epik_Ionization_Penalty>
2.21237

> <r_epik_Ionization_Penalty_Charging>
2.21233

> <r_epik_Ionization_Penalty_Neutral>
3.86464e-05

> <r_epik_State_Penalty>
2.35665

> <r_epik_Charging_Adjusted_Penalty>
4.56898

> <i_epik_Tot_Q>
1

> <i_epik_Tot_abs_Q>
1

> <r_epik_Metal_State_Penalty>
2.37073

> <b_epik_Metal_Only>
0

> <s_lp_Force_Field>
OPLS_2005

> <r_lp_Energy>
33.224

> <b_lp_Chiralities_Consistent>
1

> <s_lp_Variant>
AV-unprocessed.smi:1930-2

> <Gold.Version>
5.8.1

> <Gold.Id.Protein>
6NUR|6NUR_protein|mol2

> <Gold.PLP.Fitness>
50.2645

> <Gold.PLP.PLP>
-45.1440

> <Gold.PLP.part.hbond>
-2.0070

> <Gold.PLP.part.metal>
0.0000

> <Gold.PLP.part.buried>
-5.0129

> <Gold.PLP.part.nonpolar>
-37.2577

> <Gold.PLP.part.repulsive>
0.1035

> <Gold.PLP.ligand.clash>
0.0000

> <Gold.PLP.ligand.torsion>
1.5056

> <Gold.PLP.Chemscore.Hbond>
2.0000

> <Gold.PLP.Chemscore.CHOScore>
0.0000

> <Gold.PLP.Chemscore.Metal>
0.0000

> <Gold.Chemscore.Hbonds>
donor molecule, donor type, donor heavy atom, donor atom, acceptor molecule, acceptor atom, score
      L1  H    18    42       P1  8028  2.00

> <Gold.PLP.Chemscore.Internal.Correction>
2.1316

> <Gold.Rescore>
     Score         DG    S(hbond)    S(metal)    S(lipo)     H(rot)  DE(clash)    DE(int)     intcor
     16.40     -17.96       0.95        0.00     111.59       1.47       0.04       1.52       ----

> <Gold.Chemscore.Fitness>
16.3987

> <Gold.Chemscore.DG>
-17.9572

> <Gold.Chemscore.ZeroCoef>
-5.4800

> <Gold.Chemscore.Hbond>
0.9544

> <Gold.Chemscore.Metal>
0.0000

> <Gold.Chemscore.Lipo>
111.5915

> <Gold.Chemscore.Internal_Hbond>
0.0000

> <Gold.Chemscore.DEClash>
0.0383

> <Gold.Chemscore.DEInternal>
1.5203

> <Gold.Chemscore.Rot>
1.4714

> <Gold.Chemscore.Internal.Correction>
   9.000000E+99

> <Gold.Chemscore.Hbonds>
donor molecule, donor type, donor heavy atom, donor atom, acceptor molecule, acceptor atom, score
      L1  H    18    42       P1  8028  0.74

> <Gold.Chemscore.Hbond.Weighted>
-3.1877

> <Gold.Chemscore.Metal.Weighted>
-0.0000

> <Gold.Chemscore.Lipo.Weighted>
-13.0562

> <Gold.Chemscore.Internal_Hbond.Weighted>
0.0000

> <Gold.Chemscore.DEClash.Weighted>
0.0383

> <Gold.Chemscore.DEInternal.Weighted>
1.5203

> <Gold.Chemscore.Rot.Weighted>
3.7667

> <Gold.Chemscore.Internal.Correction.Weighted>
   9.000000E+99

> <Gold.Protein.RotatedTorsions>
[ 6907 6896 6895 6894 ] final   32.70 input  -60.11 | X-H torsion
[ 7974 7965 7964 7962 ] final -125.48 input  175.53 | X-H torsion
[ 8008 7997 7996 7995 ] final   19.02 input   59.86 | X-H torsion
[ 10167 10162 10161 10158 ] final   97.91 input  -65.29 | X-H torsion
[ 10718 10713 10712 10709 ] final  154.76 input   66.30 | X-H torsion
[ 10763 10752 10751 10750 ] final   97.04 input  -60.55 | X-H torsion
[ 11005 11000 10999 10996 ] final -110.52 input  -57.11 | X-H torsion

> <Gold.Protein.ActiveResidues>
 VAL166  LYS551  ARG553  GLY616  TRP617  ASP618  TYR619  PRO620  LYS621  CYS622 
 ASP623  PHE694  ASN695  SER759  ASP760  ASP761  ALA762  ILE779  LEU786  VAL792 
 PHE793  MET794  SER795  GLU796  ALA797  LYS798  CYS799  TRP800  GLU811  SER814 

> <Gold.Protein.RotatedAtoms>
  152.0782  134.9489  160.0573 H   0  0  0  0  0  0  0  0  0  0  0  0  # atno 6907 bound_to 6896
  152.0788  133.4137  159.4500 H   0  0  0  0  0  0  0  0  0  0  0  0  # atno 6908 bound_to 6896
  150.6836  134.2926  159.4716 H   0  0  0  0  0  0  0  0  0  0  0  0  # atno 6909 bound_to 6896
  144.9972  140.7787  143.4518 H   0  0  0  0  0  0  0  0  0  0  0  0  # atno 7974 bound_to 7965
  154.9146  140.3019  155.5248 H   0  0  0  0  0  0  0  0  0  0  0  0  # atno 8008 bound_to 7997
  156.3013  140.2383  156.4125 H   0  0  0  0  0  0  0  0  0  0  0  0  # atno 8009 bound_to 7997
  154.8391  140.0414  157.1518 H   0  0  0  0  0  0  0  0  0  0  0  0  # atno 8010 bound_to 7997
  139.7757  144.6906  151.0093 H   0  0  0  0  0  0  0  0  0  0  0  0  # atno 10167 bound_to 10162
  157.2273  131.0731  151.1875 H   0  0  0  0  0  0  0  0  0  0  0  0  # atno 10718 bound_to 10713
  153.2721  135.4197  155.0997 H   0  0  0  0  0  0  0  0  0  0  0  0  # atno 10763 bound_to 10752
  154.8459  135.3474  154.6230 H   0  0  0  0  0  0  0  0  0  0  0  0  # atno 10764 bound_to 10752
  153.6650  135.7046  153.5223 H   0  0  0  0  0  0  0  0  0  0  0  0  # atno 10765 bound_to 10752
  141.0787  133.9257  157.2335 H   0  0  0  0  0  0  0  0  0  0  0  0  # atno 11005 bound_to 11000
  145.2203  139.2162  143.5096 LP  0  0  0  0  0  0  0  0  0  0  0  0  # atno 17320 bound_to 7965
  146.3444  140.2060  142.8589 LP  0  0  0  0  0  0  0  0  0  0  0  0  # atno 17321 bound_to 7965
  140.7816  143.4538  151.0374 LP  0  0  0  0  0  0  0  0  0  0  0  0  # atno 17342 bound_to 10162
  139.8221  143.7806  152.3177 LP  0  0  0  0  0  0  0  0  0  0  0  0  # atno 17343 bound_to 10162
  157.3514  130.7084  149.6443 LP  0  0  0  0  0  0  0  0  0  0  0  0  # atno 17370 bound_to 10713
  155.9678  130.4251  150.4640 LP  0  0  0  0  0  0  0  0  0  0  0  0  # atno 17371 bound_to 10713
  139.9600  135.0156  156.9234 LP  0  0  0  0  0  0  0  0  0  0  0  0  # atno 17394 bound_to 11000
  140.5517  134.0621  155.7371 LP  0  0  0  0  0  0  0  0  0  0  0  0  # atno 17395 bound_to 11000

$$$$
