AV-unprocessed.smi:278|AV-procd|sdf|2088|dock5
  -GOLD-   2262021363D 1   1.00000     0.00000
 Structure written by MMmdl.
 50 54  0  0  0  0  0  0  0  0  1 V2000
  149.7782  144.4265  159.8905 O   0  0  0  0  0  0  0  0  0  0  0  0
  151.1978  144.8129  159.8878 S   0  0  0  0  0  0  0  0  0  0  0  0
  151.5952  146.2151  160.0858 O   0  0  0  0  0  0  0  0  0  0  0  0
  152.1064  143.7609  161.0858 C   0  0  0  0  0  0  0  0  0  0  0  0
  153.2376  143.0883  160.2963 C   0  0  0  0  0  0  0  0  0  0  0  0
  152.8024  142.9264  158.8282 C   0  0  1  0  0  0  0  0  0  0  0  0
  151.7899  141.7985  158.6020 C   0  0  0  0  0  0  0  0  0  0  0  0
  150.9867  142.2222  157.4626 N   0  0  0  0  0  0  0  0  0  0  0  0
  149.8554  141.5514  157.1196 C   0  0  0  0  0  0  0  0  0  0  0  0
  148.7470  141.6926  157.8953 N   0  0  0  0  0  0  0  0  0  0  0  0
  147.6117  141.0622  157.5822 C   0  0  0  0  0  0  0  0  0  0  0  0
  147.3667  140.2473  156.5554 N   0  0  0  0  0  0  0  0  0  0  0  0
  148.4771  140.0831  155.7821 C   0  0  0  0  0  0  0  0  0  0  0  0
  149.7513  140.6857  155.9902 C   0  0  0  0  0  0  0  0  0  0  0  0
  150.6328  140.2634  154.9997 N   0  0  0  0  0  0  0  0  0  0  0  0
  149.9193  139.4736  154.2450 C   0  0  0  0  0  0  0  0  0  0  0  0
  148.6109  139.3164  154.6389 N   0  0  0  0  0  0  0  0  0  0  0  0
  147.5932  138.5134  153.9847 C   0  0  0  0  0  0  0  0  0  0  0  0
  146.1866  138.7709  154.5611 C   0  0  1  0  0  0  0  0  0  0  0  0
  145.7119  140.0155  154.0833 O   0  0  0  0  0  0  0  0  0  0  0  0
  145.1828  137.6699  154.1727 C   0  0  2  0  0  0  0  0  0  0  0  0
  145.0041  137.4818  152.6642 C   0  0  0  0  0  0  0  0  0  0  0  0
  143.6224  136.8749  152.5919 C   0  0  0  0  0  0  0  0  0  0  0  0
  142.8898  137.6521  153.6803 C   0  0  0  0  0  0  0  0  0  0  0  0
  143.8777  137.9947  154.6490 O   0  0  0  0  0  0  0  0  0  0  0  0
  151.0533  143.6704  157.3092 C   0  0  0  0  0  0  0  0  0  0  0  0
  152.0358  144.1700  158.3769 C   0  0  1  0  0  0  0  0  0  0  0  0
  153.6650  142.7647  158.1801 H   0  0  0  0  0  0  0  0  0  0  0  0
  152.6989  144.9497  158.0015 H   0  0  0  0  0  0  0  0  0  0  0  0
  152.4682  144.3640  161.9187 H   0  0  0  0  0  0  0  0  0  0  0  0
  151.4099  143.0177  161.4747 H   0  0  0  0  0  0  0  0  0  0  0  0
  154.1151  143.7352  160.3268 H   0  0  0  0  0  0  0  0  0  0  0  0
  153.5315  142.1377  160.7424 H   0  0  0  0  0  0  0  0  0  0  0  0
  152.2880  140.8483  158.4058 H   0  0  0  0  0  0  0  0  0  0  0  0
  151.1456  141.6712  159.4731 H   0  0  0  0  0  0  0  0  0  0  0  0
  146.7798  141.2386  158.2482 H   0  0  0  0  0  0  0  0  0  0  0  0
  150.3282  138.9872  153.3712 H   0  0  0  0  0  0  0  0  0  0  0  0
  147.6135  138.7259  152.9149 H   0  0  0  0  0  0  0  0  0  0  0  0
  147.8653  137.4635  154.0995 H   0  0  0  0  0  0  0  0  0  0  0  0
  146.2481  138.8306  155.6486 H   0  0  0  0  0  0  0  0  0  0  0  0
  144.9916  139.8530  153.4934 H   0  0  0  0  0  0  0  0  0  0  0  0
  145.4713  136.7173  154.6205 H   0  0  0  0  0  0  0  0  0  0  0  0
  145.0150  138.4446  152.1506 H   0  0  0  0  0  0  0  0  0  0  0  0
  145.7726  136.8488  152.2199 H   0  0  0  0  0  0  0  0  0  0  0  0
  143.1589  136.9731  151.6100 H   0  0  0  0  0  0  0  0  0  0  0  0
  143.6651  135.8154  152.8478 H   0  0  0  0  0  0  0  0  0  0  0  0
  142.4716  138.5737  153.2737 H   0  0  0  0  0  0  0  0  0  0  0  0
  142.0765  137.0786  154.1255 H   0  0  0  0  0  0  0  0  0  0  0  0
  151.4380  143.8921  156.3134 H   0  0  0  0  0  0  0  0  0  0  0  0
  150.0779  144.1481  157.4016 H   0  0  0  0  0  0  0  0  0  0  0  0
  1  2  2  0  0  0  0
  2 27  1  0  0  0  0
  2  3  2  0  0  0  0
  2  4  1  0  0  0  0
  4  5  1  0  0  0  0
  4 30  1  0  0  0  0
  4 31  1  0  0  0  0
  5  6  1  0  0  0  0
  5 32  1  0  0  0  0
  5 33  1  0  0  0  0
  6 28  1  0  0  0  0
  6 27  1  0  0  0  0
  6  7  1  0  0  0  0
  7  8  1  0  0  0  0
  7 34  1  0  0  0  0
  7 35  1  0  0  0  0
  8  9  1  0  0  0  0
  8 26  1  0  0  0  0
  9 14  1  0  0  0  0
  9 10  2  0  0  0  0
 10 11  1  0  0  0  0
 11 12  2  0  0  0  0
 11 36  1  0  0  0  0
 12 13  1  0  0  0  0
 13 17  1  0  0  0  0
 13 14  2  0  0  0  0
 14 15  1  0  0  0  0
 15 16  2  0  0  0  0
 16 17  1  0  0  0  0
 16 37  1  0  0  0  0
 17 18  1  0  0  0  0
 18 19  1  0  0  0  0
 18 38  1  0  0  0  0
 18 39  1  0  0  0  0
 19 20  1  0  0  0  0
 19 21  1  0  0  0  0
 19 40  1  0  0  0  0
 20 41  1  0  0  0  0
 21 25  1  0  0  0  0
 21 22  1  0  0  0  0
 21 42  1  0  0  0  0
 22 23  1  0  0  0  0
 22 43  1  0  0  0  0
 22 44  1  0  0  0  0
 23 24  1  0  0  0  0
 23 45  1  0  0  0  0
 23 46  1  0  0  0  0
 24 25  1  0  0  0  0
 24 47  1  0  0  0  0
 24 48  1  0  0  0  0
 26 27  1  0  0  0  0
 26 49  1  0  0  0  0
 26 50  1  0  0  0  0
 27 29  1  0  0  0  0
M  END
> <s_m_source_file>
AV-unprocessed.smi

> <i_m_source_file_index>
278

> <i_lp_mmshare_version>
43012

> <i_f3d_flags>
0

> <s_epik_input>
W0NIMl0xW0NIMl1TKD1PKSg9TylbQ0BASF0oW0NAQEhdMTIpW0NIMl1OKFtDSDJdMiljKG5bY0hdbjMpYyhjMzQpbltjSF1uNFtDSDJdW0NASF0oW09IXSlbQ0BASF01W0NIMl1bQ0gyXVtDSDJdTzU=

> <s_epik_cmdline>
J2VwaWtfcHl0aG9uJywgJy1waCcsICc3LjAnLCAnLXRuJywgJzgnLCAnLW1hJywgJzIwMCcsICctbWV0YWxfYmluZGluZycsICctaW1hZScsICc8aW5maWxlLm1hZT4nLCAnLW9tYWUnLCAnPG91dGZpbGUubWFlPic=

> <r_lp_tautomer_probability>
1

> <r_epik_Ionization_Penalty>
0.000636766

> <r_epik_Ionization_Penalty_Charging>
0

> <r_epik_Ionization_Penalty_Neutral>
0.000636766

> <r_epik_State_Penalty>
0.000329976

> <r_epik_Charging_Adjusted_Penalty>
0.000329976

> <i_epik_Tot_Q>
0

> <i_epik_Tot_abs_Q>
0

> <r_epik_Metal_State_Penalty>
-0

> <b_epik_Metal_Only>
0

> <s_lp_Force_Field>
OPLS_2005

> <r_lp_Energy>
48.1975

> <b_lp_Chiralities_Consistent>
1

> <s_lp_Variant>
AV-unprocessed.smi:278-2

> <Gold.Version>
5.8.1

> <Gold.Id.Protein>
6NUR|6NUR_protein|mol2

> <Gold.PLP.Fitness>
47.1093

> <Gold.PLP.PLP>
-43.1684

> <Gold.PLP.part.hbond>
-4.0000

> <Gold.PLP.part.metal>
0.0000

> <Gold.PLP.part.buried>
-2.3708

> <Gold.PLP.part.nonpolar>
-37.3014

> <Gold.PLP.part.repulsive>
0.6775

> <Gold.PLP.ligand.clash>
0.0850

> <Gold.PLP.ligand.torsion>
1.5847

> <Gold.PLP.Chemscore.Hbond>
1.5920

> <Gold.PLP.Chemscore.CHOScore>
0.7079

> <Gold.PLP.Chemscore.Metal>
0.0000

> <Gold.Chemscore.Hbonds>
donor molecule, donor type, donor heavy atom, donor atom, acceptor molecule, acceptor atom, score
      L1  H    20    41       P1 10175  0.99
      P1  H  7989  7998       L1    15  0.60
      L1  C    16    37       P1  7957  0.69

> <Gold.PLP.Chemscore.Internal.Correction>
0.2955

> <Gold.Rescore>
     Score         DG    S(hbond)    S(metal)    S(lipo)     H(rot)  DE(clash)    DE(int)     intcor
     10.97     -14.14       1.09        0.00      89.75       2.13       0.15       3.01       ----

> <Gold.Chemscore.Fitness>
10.9735

> <Gold.Chemscore.DG>
-14.1415

> <Gold.Chemscore.ZeroCoef>
-5.4800

> <Gold.Chemscore.Hbond>
1.0853

> <Gold.Chemscore.Metal>
0.0000

> <Gold.Chemscore.Lipo>
89.7549

> <Gold.Chemscore.Internal_Hbond>
0.0000

> <Gold.Chemscore.DEClash>
0.1547

> <Gold.Chemscore.DEInternal>
3.0133

> <Gold.Chemscore.Rot>
2.1346

> <Gold.Chemscore.Internal.Correction>
   9.000000E+99

> <Gold.Chemscore.Hbonds>
donor molecule, donor type, donor heavy atom, donor atom, acceptor molecule, acceptor atom, score
      L1  H    20    41       P1 10175  0.93
      P1  H  7989  7998       L1    15  0.04

> <Gold.Chemscore.Hbond.Weighted>
-3.6249

> <Gold.Chemscore.Metal.Weighted>
-0.0000

> <Gold.Chemscore.Lipo.Weighted>
-10.5013

> <Gold.Chemscore.Internal_Hbond.Weighted>
0.0000

> <Gold.Chemscore.DEClash.Weighted>
0.1547

> <Gold.Chemscore.DEInternal.Weighted>
3.0133

> <Gold.Chemscore.Rot.Weighted>
5.4646

> <Gold.Chemscore.Internal.Correction.Weighted>
   9.000000E+99

> <Gold.Protein.RotatedTorsions>
[ 6907 6896 6895 6894 ] final   -3.24 input  -60.11 | X-H torsion
[ 7974 7965 7964 7962 ] final  171.80 input  175.53 | X-H torsion
[ 8008 7997 7996 7995 ] final -165.27 input   59.86 | X-H torsion
[ 10167 10162 10161 10158 ] final   27.25 input  -65.29 | X-H torsion
[ 10718 10713 10712 10709 ] final    6.28 input   66.30 | X-H torsion
[ 10763 10752 10751 10750 ] final -165.87 input  -60.55 | X-H torsion
[ 11005 11000 10999 10996 ] final  119.94 input  -57.11 | X-H torsion

> <Gold.Protein.ActiveResidues>
 VAL166  LYS551  ARG553  GLY616  TRP617  ASP618  TYR619  PRO620  LYS621  CYS622 
 ASP623  PHE694  ASN695  SER759  ASP760  ASP761  ALA762  ILE779  LEU786  VAL792 
 PHE793  MET794  SER795  GLU796  ALA797  LYS798  CYS799  TRP800  GLU811  SER814 

> <Gold.Protein.RotatedAtoms>
  151.5170  135.1066  159.9868 H   0  0  0  0  0  0  0  0  0  0  0  0  # atno 6907 bound_to 6896
  152.4637  133.7872  159.6893 H   0  0  0  0  0  0  0  0  0  0  0  0  # atno 6908 bound_to 6896
  150.8610  133.7579  159.3017 H   0  0  0  0  0  0  0  0  0  0  0  0  # atno 6909 bound_to 6896
  144.7285  139.9404  143.6428 H   0  0  0  0  0  0  0  0  0  0  0  0  # atno 7974 bound_to 7965
  155.8474  140.0958  157.1696 H   0  0  0  0  0  0  0  0  0  0  0  0  # atno 8008 bound_to 7997
  154.3984  140.1389  156.3864 H   0  0  0  0  0  0  0  0  0  0  0  0  # atno 8009 bound_to 7997
  155.7998  140.3453  155.5399 H   0  0  0  0  0  0  0  0  0  0  0  0  # atno 8010 bound_to 7997
  140.4954  144.0400  150.6312 H   0  0  0  0  0  0  0  0  0  0  0  0  # atno 10167 bound_to 10162
  156.9199  130.5787  149.5647 H   0  0  0  0  0  0  0  0  0  0  0  0  # atno 10718 bound_to 10713
  154.6890  135.2967  154.9507 H   0  0  0  0  0  0  0  0  0  0  0  0  # atno 10763 bound_to 10752
  154.0477  135.6649  153.4801 H   0  0  0  0  0  0  0  0  0  0  0  0  # atno 10764 bound_to 10752
  153.0598  135.5122  154.7972 H   0  0  0  0  0  0  0  0  0  0  0  0  # atno 10765 bound_to 10752
  139.9166  134.9632  156.7732 H   0  0  0  0  0  0  0  0  0  0  0  0  # atno 11005 bound_to 11000
  146.0789  139.3777  143.0476 LP  0  0  0  0  0  0  0  0  0  0  0  0  # atno 17320 bound_to 7965
  145.7867  140.9832  143.1070 LP  0  0  0  0  0  0  0  0  0  0  0  0  # atno 17321 bound_to 7965
  140.3681  143.2870  152.0309 LP  0  0  0  0  0  0  0  0  0  0  0  0  # atno 17342 bound_to 10162
  139.4860  144.6251  151.7179 LP  0  0  0  0  0  0  0  0  0  0  0  0  # atno 17343 bound_to 10162
  156.0496  130.5567  150.8959 LP  0  0  0  0  0  0  0  0  0  0  0  0  # atno 17370 bound_to 10713
  157.5914  131.0944  150.9112 LP  0  0  0  0  0  0  0  0  0  0  0  0  # atno 17371 bound_to 10713
  140.6604  133.9650  155.7802 LP  0  0  0  0  0  0  0  0  0  0  0  0  # atno 17394 bound_to 11000
  141.0647  134.0294  157.3610 LP  0  0  0  0  0  0  0  0  0  0  0  0  # atno 17395 bound_to 11000

$$$$
