AV-unprocessed.smi:2055|AV-procd|sdf|8335|dock6
  -GOLD-   2272011 03D 1   1.00000     0.00000
 Structure written by MMmdl.
 43 44  0  0  0  0  0  0  0  0  1 V2000
  146.2018  137.8887  150.3661 C   0  0  0  0  0  0  0  0  0  0  0  0
  146.1915  138.0138  151.8974 C   0  0  1  0  0  0  0  0  0  0  0  0
  145.9128  136.6664  152.5936 C   0  0  0  0  0  0  0  0  0  0  0  0
  144.6476  136.1664  152.2164 O   0  0  0  0  0  0  0  0  0  0  0  0
  147.4739  138.5535  152.3403 N   0  0  0  0  0  0  0  0  0  0  0  0
  147.6372  139.6775  153.0521 C   0  0  0  0  0  0  0  0  0  0  0  0
  146.7159  140.4157  153.4009 O   0  0  0  0  0  0  0  0  0  0  0  0
  148.9243  139.8856  153.3623 N   0  0  0  0  0  0  0  0  0  0  0  0
  149.4159  140.9848  154.1880 C   0  0  0  0  0  0  0  0  0  0  0  0
  150.5032  140.6097  155.1898 C   0  0  0  0  0  0  0  0  0  0  0  0
  151.1790  139.3830  155.0443 C   0  0  0  0  0  0  0  0  0  0  0  0
  152.1758  139.0492  155.9787 C   0  0  0  0  0  0  0  0  0  0  0  0
  152.5204  139.8478  157.0098 N   0  0  0  0  0  0  0  0  0  0  0  0
  151.8813  141.0317  157.1665 C   0  0  0  0  0  0  0  0  0  0  0  0
  152.3006  141.8367  158.2489 N   0  0  0  0  0  0  0  0  0  0  0  0
  151.9016  143.2411  158.2791 C   0  0  0  0  0  0  0  0  0  0  0  0
  152.7364  144.0148  159.3132 C   0  0  0  0  0  0  0  0  0  0  0  0
  152.6369  143.3799  160.5832 O   0  0  0  0  0  0  0  0  0  0  0  0
  153.1529  142.0533  160.5512 C   0  0  0  0  0  0  0  0  0  0  0  0
  152.3389  141.1993  159.5639 C   0  0  0  0  0  0  0  0  0  0  0  0
  150.8565  141.4426  156.2767 C   0  0  0  0  0  0  0  0  0  0  0  0
  145.2432  137.5278  149.9926 H   0  0  0  0  0  0  0  0  0  0  0  0
  146.9723  137.1947  150.0290 H   0  0  0  0  0  0  0  0  0  0  0  0
  146.3927  138.8533  149.8950 H   0  0  0  0  0  0  0  0  0  0  0  0
  145.4080  138.7229  152.1726 H   0  0  0  0  0  0  0  0  0  0  0  0
  146.6833  135.9330  152.3539 H   0  0  0  0  0  0  0  0  0  0  0  0
  145.9093  136.7848  153.6777 H   0  0  0  0  0  0  0  0  0  0  0  0
  144.6021  135.2531  152.4549 H   0  0  0  0  0  0  0  0  0  0  0  0
  148.2959  138.0172  152.1048 H   0  0  0  0  0  0  0  0  0  0  0  0
  149.6095  139.2225  153.0312 H   0  0  0  0  0  0  0  0  0  0  0  0
  149.8156  141.7512  153.5239 H   0  0  0  0  0  0  0  0  0  0  0  0
  148.5799  141.4435  154.7190 H   0  0  0  0  0  0  0  0  0  0  0  0
  150.9409  138.7103  154.2334 H   0  0  0  0  0  0  0  0  0  0  0  0
  152.7125  138.1159  155.8957 H   0  0  0  0  0  0  0  0  0  0  0  0
  152.0427  143.6967  157.2983 H   0  0  0  0  0  0  0  0  0  0  0  0
  150.8415  143.3092  158.5266 H   0  0  0  0  0  0  0  0  0  0  0  0
  153.7814  144.0727  159.0042 H   0  0  0  0  0  0  0  0  0  0  0  0
  152.3733  145.0390  159.3975 H   0  0  0  0  0  0  0  0  0  0  0  0
  154.2079  142.0687  160.2726 H   0  0  0  0  0  0  0  0  0  0  0  0
  153.0950  141.6258  161.5522 H   0  0  0  0  0  0  0  0  0  0  0  0
  151.3169  141.0821  159.9260 H   0  0  0  0  0  0  0  0  0  0  0  0
  152.7762  140.2021  159.5167 H   0  0  0  0  0  0  0  0  0  0  0  0
  150.3410  142.3791  156.4202 H   0  0  0  0  0  0  0  0  0  0  0  0
  1  2  1  0  0  0  0
  1 22  1  0  0  0  0
  1 23  1  0  0  0  0
  1 24  1  0  0  0  0
  2  3  1  0  0  0  0
  2  5  1  0  0  0  0
  2 25  1  0  0  0  0
  3  4  1  0  0  0  0
  3 26  1  0  0  0  0
  3 27  1  0  0  0  0
  4 28  1  0  0  0  0
  5  6  1  0  0  0  0
  5 29  1  0  0  0  0
  6  7  2  0  0  0  0
  6  8  1  0  0  0  0
  8  9  1  0  0  0  0
  8 30  1  0  0  0  0
  9 10  1  0  0  0  0
  9 31  1  0  0  0  0
  9 32  1  0  0  0  0
 10 21  1  0  0  0  0
 10 11  2  0  0  0  0
 11 12  1  0  0  0  0
 11 33  1  0  0  0  0
 12 13  2  0  0  0  0
 12 34  1  0  0  0  0
 13 14  1  0  0  0  0
 14 15  1  0  0  0  0
 14 21  2  0  0  0  0
 15 20  1  0  0  0  0
 15 16  1  0  0  0  0
 16 17  1  0  0  0  0
 16 35  1  0  0  0  0
 16 36  1  0  0  0  0
 17 18  1  0  0  0  0
 17 37  1  0  0  0  0
 17 38  1  0  0  0  0
 18 19  1  0  0  0  0
 19 20  1  0  0  0  0
 19 39  1  0  0  0  0
 19 40  1  0  0  0  0
 20 41  1  0  0  0  0
 20 42  1  0  0  0  0
 21 43  1  0  0  0  0
M  END
> <s_m_source_file>
AV-unprocessed.smi

> <i_m_source_file_index>
2055

> <i_lp_mmshare_version>
43012

> <i_f3d_flags>
0

> <s_epik_input>
W09IXVtDSDJdW0NAQEhdKFtDSDNdKVtOSF1DKD1PKVtOSF1bQ0gyXWMxW2NIXVtjSF1uYyhbY0hdMSlOMltDSDJdW0NIMl1PW0NIMl1bQ0gyXTI=

> <s_epik_cmdline>
J2VwaWtfcHl0aG9uJywgJy1waCcsICc3LjAnLCAnLXRuJywgJzgnLCAnLW1hJywgJzIwMCcsICctbWV0YWxfYmluZGluZycsICctaW1hZScsICc8aW5maWxlLm1hZT4nLCAnLW9tYWUnLCAnPG91dGZpbGUubWFlPic=

> <r_lp_tautomer_probability>
1

> <r_epik_Ionization_Penalty>
0.0122173

> <r_epik_Ionization_Penalty_Charging>
0

> <r_epik_Ionization_Penalty_Neutral>
0.0122173

> <r_epik_State_Penalty>
0.00940497

> <r_epik_Charging_Adjusted_Penalty>
0.00940497

> <i_epik_Tot_Q>
0

> <i_epik_Tot_abs_Q>
0

> <r_epik_Metal_State_Penalty>
0.00921475

> <b_epik_Metal_Only>
0

> <s_lp_Force_Field>
OPLS_2005

> <r_lp_Energy>
11.6971

> <b_lp_Chiralities_Consistent>
1

> <s_lp_Variant>
AV-unprocessed.smi:2055-2

> <Gold.Version>
5.8.1

> <Gold.Id.Protein>
6NUR|6NUR_protein|mol2

> <Gold.PLP.Fitness>
44.0836

> <Gold.PLP.PLP>
-38.7516

> <Gold.PLP.part.hbond>
-3.3724

> <Gold.PLP.part.metal>
0.0000

> <Gold.PLP.part.buried>
1.4604

> <Gold.PLP.part.nonpolar>
-37.3283

> <Gold.PLP.part.repulsive>
0.4106

> <Gold.PLP.ligand.clash>
0.0000

> <Gold.PLP.ligand.torsion>
0.5979

> <Gold.PLP.Chemscore.Hbond>
1.9920

> <Gold.PLP.Chemscore.CHOScore>
0.0000

> <Gold.PLP.Chemscore.Metal>
0.0000

> <Gold.Chemscore.Hbonds>
donor molecule, donor type, donor heavy atom, donor atom, acceptor molecule, acceptor atom, score
      L1  H     5    29       P1  7948  0.90
      P1  H  7997  8010       L1    13  0.95

> <Gold.PLP.Chemscore.Internal.Correction>
0.5519

> <Gold.Rescore>
     Score         DG    S(hbond)    S(metal)    S(lipo)     H(rot)  DE(clash)    DE(int)     intcor
     13.38     -15.73       1.63        0.00     100.32       2.70       1.81       0.55       ----

> <Gold.Chemscore.Fitness>
13.3754

> <Gold.Chemscore.DG>
-15.7302

> <Gold.Chemscore.ZeroCoef>
-5.4800

> <Gold.Chemscore.Hbond>
1.6265

> <Gold.Chemscore.Metal>
0.0000

> <Gold.Chemscore.Lipo>
100.3207

> <Gold.Chemscore.Internal_Hbond>
0.0000

> <Gold.Chemscore.DEClash>
1.8073

> <Gold.Chemscore.DEInternal>
0.5475

> <Gold.Chemscore.Rot>
2.7031

> <Gold.Chemscore.Internal.Correction>
   9.000000E+99

> <Gold.Chemscore.Hbonds>
donor molecule, donor type, donor heavy atom, donor atom, acceptor molecule, acceptor atom, score
      L1  H     5    29       P1  7948  0.88
      L1  H     8    30       P1  7957  0.01
      P1  H  7997  8010       L1    13  0.17

> <Gold.Chemscore.Hbond.Weighted>
-5.4326

> <Gold.Chemscore.Metal.Weighted>
-0.0000

> <Gold.Chemscore.Lipo.Weighted>
-11.7375

> <Gold.Chemscore.Internal_Hbond.Weighted>
0.0000

> <Gold.Chemscore.DEClash.Weighted>
1.8073

> <Gold.Chemscore.DEInternal.Weighted>
0.5475

> <Gold.Chemscore.Rot.Weighted>
6.9199

> <Gold.Chemscore.Internal.Correction.Weighted>
   9.000000E+99

> <Gold.Protein.RotatedTorsions>
[ 6907 6896 6895 6894 ] final  -54.97 input  -60.11 | X-H torsion
[ 7974 7965 7964 7962 ] final  -79.10 input  175.53 | X-H torsion
[ 8008 7997 7996 7995 ] final   62.37 input   59.86 | X-H torsion
[ 10167 10162 10161 10158 ] final -136.62 input  -65.29 | X-H torsion
[ 10718 10713 10712 10709 ] final    8.56 input   66.30 | X-H torsion
[ 10763 10752 10751 10750 ] final   71.56 input  -60.55 | X-H torsion
[ 11005 11000 10999 10996 ] final   95.32 input  -57.11 | X-H torsion

> <Gold.Protein.ActiveResidues>
 VAL166  LYS551  ARG553  GLY616  TRP617  ASP618  TYR619  PRO620  LYS621  CYS622 
 ASP623  PHE694  ASN695  SER759  ASP760  ASP761  ALA762  ILE779  LEU786  VAL792 
 PHE793  MET794  SER795  GLU796  ALA797  LYS798  CYS799  TRP800  GLU811  SER814 

> <Gold.Protein.RotatedAtoms>
  150.8291  134.7537  159.6838 H   0  0  0  0  0  0  0  0  0  0  0  0  # atno 6907 bound_to 6896
  152.4398  134.5610  159.9904 H   0  0  0  0  0  0  0  0  0  0  0  0  # atno 6908 bound_to 6896
  151.5775  133.3344  159.3037 H   0  0  0  0  0  0  0  0  0  0  0  0  # atno 6909 bound_to 6896
  145.5777  140.9454  143.1361 H   0  0  0  0  0  0  0  0  0  0  0  0  # atno 7974 bound_to 7965
  155.6132  140.3495  155.4629 H   0  0  0  0  0  0  0  0  0  0  0  0  # atno 8008 bound_to 7997
  156.0137  140.1239  157.0452 H   0  0  0  0  0  0  0  0  0  0  0  0  # atno 8009 bound_to 7997
  154.4290  140.1076  156.5852 H   0  0  0  0  0  0  0  0  0  0  0  0  # atno 8010 bound_to 7997
  139.8660  143.7017  152.2645 H   0  0  0  0  0  0  0  0  0  0  0  0  # atno 10167 bound_to 10162
  156.9534  130.5905  149.5658 H   0  0  0  0  0  0  0  0  0  0  0  0  # atno 10718 bound_to 10713
  153.0406  135.5132  154.7612 H   0  0  0  0  0  0  0  0  0  0  0  0  # atno 10763 bound_to 10752
  154.6553  135.2931  154.9938 H   0  0  0  0  0  0  0  0  0  0  0  0  # atno 10764 bound_to 10752
  154.0808  135.6664  153.4890 H   0  0  0  0  0  0  0  0  0  0  0  0  # atno 10765 bound_to 10752
  139.8790  134.8892  156.3994 H   0  0  0  0  0  0  0  0  0  0  0  0  # atno 11005 bound_to 11000
  144.7408  139.7454  143.7311 LP  0  0  0  0  0  0  0  0  0  0  0  0  # atno 17320 bound_to 7965
  146.1739  139.4901  142.9910 LP  0  0  0  0  0  0  0  0  0  0  0  0  # atno 17321 bound_to 7965
  139.7329  144.7578  151.0773 LP  0  0  0  0  0  0  0  0  0  0  0  0  # atno 17342 bound_to 10162
  140.7768  143.5066  150.9704 LP  0  0  0  0  0  0  0  0  0  0  0  0  # atno 17343 bound_to 10162
  156.0353  130.5441  150.8638 LP  0  0  0  0  0  0  0  0  0  0  0  0  # atno 17370 bound_to 10713
  157.5707  131.0946  150.9422 LP  0  0  0  0  0  0  0  0  0  0  0  0  # atno 17371 bound_to 10713
  140.9277  133.7600  155.9986 LP  0  0  0  0  0  0  0  0  0  0  0  0  # atno 17394 bound_to 11000
  140.8366  134.3116  157.5329 LP  0  0  0  0  0  0  0  0  0  0  0  0  # atno 17395 bound_to 11000

$$$$
