AV-unprocessed.smi:755|AV-procd|sdf|3611|dock10
  -GOLD-   22720 1 03D 1   1.00000     0.00000
 Structure written by MMmdl.
 33 34  0  0  0  0  0  0  0  0  1 V2000
  150.1569  140.1736  154.3377 O   0  0  0  0  0  0  0  0  0  0  0  0
  149.2617  140.9125  154.7467 C   0  0  0  0  0  0  0  0  0  0  0  0
  147.8008  140.5960  154.4197 C   0  0  0  0  0  0  0  0  0  0  0  0
  146.9762  141.7917  154.4488 N   0  0  0  0  0  0  0  0  0  0  0  0
  146.6247  142.6118  153.3933 C   0  0  0  0  0  0  0  0  0  0  0  0
  145.8494  143.5901  153.9367 C   0  0  0  0  0  0  0  0  0  0  0  0
  145.1152  144.9087  153.1022 Cl  0  0  0  0  0  0  0  0  0  0  0  0
  145.7652  143.3108  155.3243 C   0  0  0  0  0  0  0  0  0  0  0  0
  146.4518  142.2186  155.6271 N   0  0  0  0  0  0  0  0  0  0  0  0
  149.4883  142.0062  155.4919 N   0  0  0  0  0  0  0  0  0  0  0  0
  150.8006  142.4680  155.9385 C   0  0  0  0  0  0  0  0  0  0  0  0
  151.1727  141.9656  157.3454 C   0  0  0  0  0  0  0  0  0  0  0  0
  150.9755  140.7878  157.6502 O   0  0  0  0  0  0  0  0  0  0  0  0
  151.6978  142.8507  158.2178 N   0  0  0  0  0  0  0  0  0  0  0  0
  152.1056  142.5577  159.5916 C   0  0  0  0  0  0  0  0  0  0  0  0
  152.8482  143.8029  160.0776 C   0  0  0  0  0  0  0  0  0  0  0  0
  152.2838  144.9308  159.2249 C   0  0  0  0  0  0  0  0  0  0  0  0
  151.9372  144.2565  157.8974 C   0  0  0  0  0  0  0  0  0  0  0  0
  147.7284  140.1477  153.4278 H   0  0  0  0  0  0  0  0  0  0  0  0
  147.4140  139.8651  155.1315 H   0  0  0  0  0  0  0  0  0  0  0  0
  146.9496  142.4315  152.3791 H   0  0  0  0  0  0  0  0  0  0  0  0
  145.2436  143.8487  156.1021 H   0  0  0  0  0  0  0  0  0  0  0  0
  148.6898  142.5497  155.7867 H   0  0  0  0  0  0  0  0  0  0  0  0
  151.5647  142.1699  155.2187 H   0  0  0  0  0  0  0  0  0  0  0  0
  150.7861  143.5579  155.9493 H   0  0  0  0  0  0  0  0  0  0  0  0
  151.2155  142.3860  160.1985 H   0  0  0  0  0  0  0  0  0  0  0  0
  152.7402  141.6728  159.6574 H   0  0  0  0  0  0  0  0  0  0  0  0
  152.7256  143.9780  161.1468 H   0  0  0  0  0  0  0  0  0  0  0  0
  153.9149  143.6944  159.8768 H   0  0  0  0  0  0  0  0  0  0  0  0
  151.3744  145.3168  159.6876 H   0  0  0  0  0  0  0  0  0  0  0  0
  152.9788  145.7630  159.1084 H   0  0  0  0  0  0  0  0  0  0  0  0
  152.7768  144.3227  157.2038 H   0  0  0  0  0  0  0  0  0  0  0  0
  151.0713  144.7261  157.4277 H   0  0  0  0  0  0  0  0  0  0  0  0
  1  2  2  0  0  0  0
  2  3  1  0  0  0  0
  2 10  1  0  0  0  0
  3  4  1  0  0  0  0
  3 19  1  0  0  0  0
  3 20  1  0  0  0  0
  4  9  1  0  0  0  0
  4  5  1  0  0  0  0
  5  6  2  0  0  0  0
  5 21  1  0  0  0  0
  6  7  1  0  0  0  0
  6  8  1  0  0  0  0
  8  9  2  0  0  0  0
  8 22  1  0  0  0  0
 10 11  1  0  0  0  0
 10 23  1  0  0  0  0
 11 12  1  0  0  0  0
 11 24  1  0  0  0  0
 11 25  1  0  0  0  0
 12 13  2  0  0  0  0
 12 14  1  0  0  0  0
 14 18  1  0  0  0  0
 14 15  1  0  0  0  0
 15 16  1  0  0  0  0
 15 26  1  0  0  0  0
 15 27  1  0  0  0  0
 16 17  1  0  0  0  0
 16 28  1  0  0  0  0
 16 29  1  0  0  0  0
 17 18  1  0  0  0  0
 17 30  1  0  0  0  0
 17 31  1  0  0  0  0
 18 32  1  0  0  0  0
 18 33  1  0  0  0  0
M  END
> <s_m_source_file>
AV-unprocessed.smi

> <i_m_source_file_index>
755

> <i_lp_mmshare_version>
43012

> <i_f3d_flags>
0

> <s_epik_input>
bjFbY0hdYyhDbClbY0hdbjFbQ0gyXUMoPU8pW05IXVtDSDJdQyg9TylOMltDSDJdW0NIMl1bQ0gyXVtDSDJdMg==

> <s_epik_cmdline>
J2VwaWtfcHl0aG9uJywgJy1waCcsICc3LjAnLCAnLXRuJywgJzgnLCAnLW1hJywgJzIwMCcsICctbWV0YWxfYmluZGluZycsICctaW1hZScsICc8aW5maWxlLm1hZT4nLCAnLW9tYWUnLCAnPG91dGZpbGUubWFlPic=

> <r_lp_tautomer_probability>
1

> <r_epik_Ionization_Penalty>
4.35059e-07

> <r_epik_Ionization_Penalty_Charging>
0

> <r_epik_Ionization_Penalty_Neutral>
4.35059e-07

> <r_epik_State_Penalty>
-0

> <r_epik_Charging_Adjusted_Penalty>
0

> <i_epik_Tot_Q>
0

> <i_epik_Tot_abs_Q>
0

> <r_epik_Metal_State_Penalty>
-0

> <b_epik_Metal_Only>
0

> <s_lp_Force_Field>
OPLS_2005

> <r_lp_Energy>
27.1331

> <b_lp_Chiralities_Consistent>
1

> <s_lp_Variant>
AV-unprocessed.smi:755-1

> <Gold.Version>
5.8.1

> <Gold.Id.Protein>
6NUR|6NUR_protein|mol2

> <Gold.PLP.Fitness>
43.2521

> <Gold.PLP.PLP>
-41.9456

> <Gold.PLP.part.hbond>
-2.0000

> <Gold.PLP.part.metal>
0.0000

> <Gold.PLP.part.buried>
-6.3982

> <Gold.PLP.part.nonpolar>
-34.3189

> <Gold.PLP.part.repulsive>
0.4140

> <Gold.PLP.ligand.clash>
0.0000

> <Gold.PLP.ligand.torsion>
1.0728

> <Gold.PLP.Chemscore.Hbond>
1.1498

> <Gold.PLP.Chemscore.CHOScore>
0.0000

> <Gold.PLP.Chemscore.Metal>
0.0000

> <Gold.Chemscore.Hbonds>
donor molecule, donor type, donor heavy atom, donor atom, acceptor molecule, acceptor atom, score
      L1  H    10    23       P1  8028  0.21
      P1  H  7989  7998       L1     1  1.00

> <Gold.PLP.Chemscore.Internal.Correction>
0.0027

> <Gold.Rescore>
     Score         DG    S(hbond)    S(metal)    S(lipo)     H(rot)  DE(clash)    DE(int)     intcor
     12.22     -14.62       0.99        0.00      89.36       1.80       1.34       1.06       ----

> <Gold.Chemscore.Fitness>
12.2201

> <Gold.Chemscore.DG>
-14.6250

> <Gold.Chemscore.ZeroCoef>
-5.4800

> <Gold.Chemscore.Hbond>
0.9864

> <Gold.Chemscore.Metal>
0.0000

> <Gold.Chemscore.Lipo>
89.3619

> <Gold.Chemscore.Internal_Hbond>
0.0000

> <Gold.Chemscore.DEClash>
1.3409

> <Gold.Chemscore.DEInternal>
1.0640

> <Gold.Chemscore.Rot>
1.7988

> <Gold.Chemscore.Internal.Correction>
   9.000000E+99

> <Gold.Chemscore.Hbonds>
donor molecule, donor type, donor heavy atom, donor atom, acceptor molecule, acceptor atom, score
      L1  H    10    23       P1  8028  0.21
      P1  H  7989  7998       L1     1  0.93

> <Gold.Chemscore.Hbond.Weighted>
-3.2944

> <Gold.Chemscore.Metal.Weighted>
-0.0000

> <Gold.Chemscore.Lipo.Weighted>
-10.4553

> <Gold.Chemscore.Internal_Hbond.Weighted>
0.0000

> <Gold.Chemscore.DEClash.Weighted>
1.3409

> <Gold.Chemscore.DEInternal.Weighted>
1.0640

> <Gold.Chemscore.Rot.Weighted>
4.6048

> <Gold.Chemscore.Internal.Correction.Weighted>
   9.000000E+99

> <Gold.Protein.RotatedTorsions>
[ 6907 6896 6895 6894 ] final  -84.28 input  -60.11 | X-H torsion
[ 7974 7965 7964 7962 ] final   30.85 input  175.53 | X-H torsion
[ 8008 7997 7996 7995 ] final   70.88 input   59.86 | X-H torsion
[ 10167 10162 10161 10158 ] final -146.61 input  -65.29 | X-H torsion
[ 10718 10713 10712 10709 ] final  124.40 input   66.30 | X-H torsion
[ 10763 10752 10751 10750 ] final   70.35 input  -60.55 | X-H torsion
[ 11005 11000 10999 10996 ] final  144.15 input  -57.11 | X-H torsion

> <Gold.Protein.ActiveResidues>
 VAL166  LYS551  ARG553  GLY616  TRP617  ASP618  TYR619  PRO620  LYS621  CYS622 
 ASP623  PHE694  ASN695  SER759  ASP760  ASP761  ALA762  ILE779  LEU786  VAL792 
 PHE793  MET794  SER795  GLU796  ALA797  LYS798  CYS799  TRP800  GLU811  SER814 

> <Gold.Protein.RotatedAtoms>
  150.6878  134.3382  159.4856 H   0  0  0  0  0  0  0  0  0  0  0  0  # atno 6907 bound_to 6896
  152.1238  134.9183  160.0571 H   0  0  0  0  0  0  0  0  0  0  0  0  # atno 6908 bound_to 6896
  152.0378  133.3930  159.4361 H   0  0  0  0  0  0  0  0  0  0  0  0  # atno 6909 bound_to 6896
  146.1587  139.6734  142.9049 H   0  0  0  0  0  0  0  0  0  0  0  0  # atno 7974 bound_to 7965
  155.7454  140.3489  155.5124 H   0  0  0  0  0  0  0  0  0  0  0  0  # atno 8008 bound_to 7997
  155.9054  140.1041  157.1340 H   0  0  0  0  0  0  0  0  0  0  0  0  # atno 8009 bound_to 7997
  154.4049  140.1278  156.4477 H   0  0  0  0  0  0  0  0  0  0  0  0  # atno 8010 bound_to 7997
  139.7698  143.8255  152.2622 H   0  0  0  0  0  0  0  0  0  0  0  0  # atno 10167 bound_to 10162
  157.5588  131.1090  150.8575 H   0  0  0  0  0  0  0  0  0  0  0  0  # atno 10718 bound_to 10713
  153.0337  135.5177  154.7428 H   0  0  0  0  0  0  0  0  0  0  0  0  # atno 10763 bound_to 10752
  154.6422  135.2914  155.0092 H   0  0  0  0  0  0  0  0  0  0  0  0  # atno 10764 bound_to 10752
  154.1005  135.6637  153.4920 H   0  0  0  0  0  0  0  0  0  0  0  0  # atno 10765 bound_to 10752
  140.0609  134.9205  157.1183 H   0  0  0  0  0  0  0  0  0  0  0  0  # atno 11005 bound_to 11000
  145.4644  141.0434  143.2733 LP  0  0  0  0  0  0  0  0  0  0  0  0  # atno 17320 bound_to 7965
  144.7997  139.6165  143.7077 LP  0  0  0  0  0  0  0  0  0  0  0  0  # atno 17321 bound_to 7965
  139.8286  144.7264  150.9480 LP  0  0  0  0  0  0  0  0  0  0  0  0  # atno 17342 bound_to 10162
  140.7813  143.4091  151.1021 LP  0  0  0  0  0  0  0  0  0  0  0  0  # atno 17343 bound_to 10162
  156.9078  130.5270  149.5281 LP  0  0  0  0  0  0  0  0  0  0  0  0  # atno 17370 bound_to 10713
  156.0643  130.5690  150.9257 LP  0  0  0  0  0  0  0  0  0  0  0  0  # atno 17371 bound_to 10713
  140.3771  134.2327  155.7173 LP  0  0  0  0  0  0  0  0  0  0  0  0  # atno 17394 bound_to 11000
  141.1973  133.8063  157.0635 LP  0  0  0  0  0  0  0  0  0  0  0  0  # atno 17395 bound_to 11000

$$$$
