AV-unprocessed.smi:1644|AV-procd|sdf|6587|dock9
  -GOLD-   22720 7283D 1   1.00000     0.00000
 Structure written by MMmdl.
 49 51  0  0  0  0  0  0  0  0  1 V2000
  154.2134  132.3308  164.3980 C   0  0  0  0  0  0  0  0  0  0  0  0
  153.9020  133.7676  164.8294 C   0  0  0  0  0  0  0  0  0  0  0  0
  154.3631  134.8069  163.7874 C   0  0  0  0  0  0  0  0  0  0  0  0
  153.9140  136.2630  164.0466 C   0  0  1  0  0  0  0  0  0  0  0  0
  154.4096  136.8014  165.2961 N   0  0  0  0  0  0  0  0  0  0  0  0
  155.1273  137.9188  165.1240 C   0  0  0  0  0  0  0  0  0  0  0  0
  155.6631  138.5580  166.0279 O   0  0  0  0  0  0  0  0  0  0  0  0
  155.1554  138.2118  163.8091 N   0  0  0  0  0  0  0  0  0  0  0  0
  155.8470  139.3716  163.2278 C   0  0  0  0  0  0  0  0  0  0  0  0
  154.9401  140.2914  162.3698 C   0  0  1  0  0  0  0  0  0  0  0  0
  155.1830  141.6247  162.7663 O   0  0  0  0  0  0  0  0  0  0  0  0
  155.1444  140.2209  160.8386 C   0  0  0  0  0  0  0  0  0  0  0  0
  153.9241  140.3571  160.0623 N   0  0  0  0  0  0  0  0  0  0  0  0
  153.3408  139.4037  159.3100 C   0  0  0  0  0  0  0  0  0  0  0  0
  152.2154  139.7267  158.6801 N   0  0  0  0  0  0  0  0  0  0  0  0
  152.0615  141.0513  159.0480 C   0  0  0  0  0  0  0  0  0  0  0  0
  151.0469  141.9775  158.7228 C   0  0  0  0  0  0  0  0  0  0  0  0
  151.0862  143.2994  159.2196 C   0  0  0  0  0  0  0  0  0  0  0  0
  149.9692  144.2601  158.8525 C   0  0  0  0  0  0  0  0  0  0  0  0
  152.1592  143.7147  160.0477 C   0  0  0  0  0  0  0  0  0  0  0  0
  152.2234  145.1297  160.5947 C   0  0  0  0  0  0  0  0  0  0  0  0
  153.1840  142.8037  160.3771 C   0  0  0  0  0  0  0  0  0  0  0  0
  153.1247  141.4845  159.8936 C   0  0  0  0  0  0  0  0  0  0  0  0
  154.5082  137.2821  163.0923 C   0  0  0  0  0  0  0  0  0  0  0  0
  154.3870  137.2293  161.8686 O   0  0  0  0  0  0  0  0  0  0  0  0
  153.8649  131.6176  165.1453 H   0  0  0  0  0  0  0  0  0  0  0  0
  155.2858  132.1816  164.2703 H   0  0  0  0  0  0  0  0  0  0  0  0
  153.7252  132.0883  163.4538 H   0  0  0  0  0  0  0  0  0  0  0  0
  152.8286  133.8595  164.9975 H   0  0  0  0  0  0  0  0  0  0  0  0
  154.3824  133.9579  165.7895 H   0  0  0  0  0  0  0  0  0  0  0  0
  155.4511  134.7815  163.7134 H   0  0  0  0  0  0  0  0  0  0  0  0
  153.9955  134.5043  162.8062 H   0  0  0  0  0  0  0  0  0  0  0  0
  152.8262  136.3396  164.0238 H   0  0  0  0  0  0  0  0  0  0  0  0
  154.2316  136.3682  166.1906 H   0  0  0  0  0  0  0  0  0  0  0  0
  156.2509  139.9428  164.0656 H   0  0  0  0  0  0  0  0  0  0  0  0
  156.7163  139.0668  162.6428 H   0  0  0  0  0  0  0  0  0  0  0  0
  153.8937  140.1051  162.6039 H   0  0  0  0  0  0  0  0  0  0  0  0
  155.6181  141.6138  163.6052 H   0  0  0  0  0  0  0  0  0  0  0  0
  155.8296  141.0068  160.5181 H   0  0  0  0  0  0  0  0  0  0  0  0
  155.6159  139.2732  160.5734 H   0  0  0  0  0  0  0  0  0  0  0  0
  153.7543  138.4084  159.2368 H   0  0  0  0  0  0  0  0  0  0  0  0
  150.2323  141.6611  158.0883 H   0  0  0  0  0  0  0  0  0  0  0  0
  150.3684  145.1274  158.3265 H   0  0  0  0  0  0  0  0  0  0  0  0
  149.4528  144.6051  159.7484 H   0  0  0  0  0  0  0  0  0  0  0  0
  149.2322  143.7855  158.2040 H   0  0  0  0  0  0  0  0  0  0  0  0
  153.0962  145.2702  161.2325 H   0  0  0  0  0  0  0  0  0  0  0  0
  151.3369  145.3503  161.1894 H   0  0  0  0  0  0  0  0  0  0  0  0
  152.2838  145.8513  159.7801 H   0  0  0  0  0  0  0  0  0  0  0  0
  154.0033  143.1118  161.0088 H   0  0  0  0  0  0  0  0  0  0  0  0
  1  2  1  0  0  0  0
  1 26  1  0  0  0  0
  1 27  1  0  0  0  0
  1 28  1  0  0  0  0
  2  3  1  0  0  0  0
  2 29  1  0  0  0  0
  2 30  1  0  0  0  0
  3  4  1  0  0  0  0
  3 31  1  0  0  0  0
  3 32  1  0  0  0  0
  4 24  1  0  0  0  0
  4  5  1  0  0  0  0
  4 33  1  0  0  0  0
  5  6  1  0  0  0  0
  5 34  1  0  0  0  0
  6  7  2  0  0  0  0
  6  8  1  0  0  0  0
  8  9  1  0  0  0  0
  8 24  1  0  0  0  0
  9 10  1  0  0  0  0
  9 35  1  0  0  0  0
  9 36  1  0  0  0  0
 10 11  1  0  0  0  0
 10 12  1  0  0  0  0
 10 37  1  0  0  0  0
 11 38  1  0  0  0  0
 12 13  1  0  0  0  0
 12 39  1  0  0  0  0
 12 40  1  0  0  0  0
 13 23  1  0  0  0  0
 13 14  1  0  0  0  0
 14 15  2  0  0  0  0
 14 41  1  0  0  0  0
 15 16  1  0  0  0  0
 16 23  2  0  0  0  0
 16 17  1  0  0  0  0
 17 18  2  0  0  0  0
 17 42  1  0  0  0  0
 18 19  1  0  0  0  0
 18 20  1  0  0  0  0
 19 43  1  0  0  0  0
 19 44  1  0  0  0  0
 19 45  1  0  0  0  0
 20 21  1  0  0  0  0
 20 22  2  0  0  0  0
 21 46  1  0  0  0  0
 21 47  1  0  0  0  0
 21 48  1  0  0  0  0
 22 23  1  0  0  0  0
 22 49  1  0  0  0  0
 24 25  2  0  0  0  0
M  END
> <s_m_source_file>
AV-unprocessed.smi

> <i_m_source_file_index>
1644

> <i_lp_mmshare_version>
43012

> <i_f3d_flags>
0

> <s_epik_input>
W0NIM11bQ0gyXVtDSDJdW0NAQEhdMVtOSF1DKD1PKU4oQzE9TylbQ0gyXVtDQEhdKFtPSF0pW0NIMl1uKFtjSF1uMiljKGMyMylbY0hdYyhbQ0gzXSljKFtjSF0zKVtDSDNd

> <s_epik_cmdline>
J2VwaWtfcHl0aG9uJywgJy1waCcsICc3LjAnLCAnLXRuJywgJzgnLCAnLW1hJywgJzIwMCcsICctbWV0YWxfYmluZGluZycsICctaW1hZScsICc8aW5maWxlLm1hZT4nLCAnLW9tYWUnLCAnPG91dGZpbGUubWFlPic=

> <r_lp_tautomer_probability>
1

> <r_epik_Ionization_Penalty>
0.10693

> <r_epik_Ionization_Penalty_Charging>
0

> <r_epik_Ionization_Penalty_Neutral>
0.10693

> <r_epik_State_Penalty>
0.096713

> <r_epik_Charging_Adjusted_Penalty>
0.096713

> <i_epik_Tot_Q>
0

> <i_epik_Tot_abs_Q>
0

> <r_epik_Metal_State_Penalty>
0.102757

> <b_epik_Metal_Only>
0

> <s_lp_Force_Field>
OPLS_2005

> <r_lp_Energy>
20.3603

> <b_lp_Chiralities_Consistent>
1

> <s_lp_Variant>
AV-unprocessed.smi:1644-4

> <Gold.Version>
5.8.1

> <Gold.Id.Protein>
6NUR|6NUR_protein|mol2

> <Gold.PLP.Fitness>
49.1285

> <Gold.PLP.PLP>
-51.5509

> <Gold.PLP.part.hbond>
-1.0366

> <Gold.PLP.part.metal>
0.0000

> <Gold.PLP.part.buried>
-5.0593

> <Gold.PLP.part.nonpolar>
-44.8745

> <Gold.PLP.part.repulsive>
0.3069

> <Gold.PLP.ligand.clash>
0.0000

> <Gold.PLP.ligand.torsion>
1.2607

> <Gold.PLP.Chemscore.Hbond>
0.0000

> <Gold.PLP.Chemscore.CHOScore>
0.0000

> <Gold.PLP.Chemscore.Metal>
0.0000

> <Gold.PLP.Chemscore.Internal.Correction>
0.0989

> <Gold.Rescore>
     Score         DG    S(hbond)    S(metal)    S(lipo)     H(rot)  DE(clash)    DE(int)     intcor
      9.11     -13.75       0.00        0.00     130.24       2.72       3.41       1.23       ----

> <Gold.Chemscore.Fitness>
9.1124

> <Gold.Chemscore.DG>
-13.7514

> <Gold.Chemscore.ZeroCoef>
-5.4800

> <Gold.Chemscore.Hbond>
0.0000

> <Gold.Chemscore.Metal>
0.0000

> <Gold.Chemscore.Lipo>
130.2365

> <Gold.Chemscore.Internal_Hbond>
0.0000

> <Gold.Chemscore.DEClash>
3.4120

> <Gold.Chemscore.DEInternal>
1.2270

> <Gold.Chemscore.Rot>
2.7212

> <Gold.Chemscore.Internal.Correction>
   9.000000E+99

> <Gold.Chemscore.Hbond.Weighted>
-0.0000

> <Gold.Chemscore.Metal.Weighted>
-0.0000

> <Gold.Chemscore.Lipo.Weighted>
-15.2377

> <Gold.Chemscore.Internal_Hbond.Weighted>
0.0000

> <Gold.Chemscore.DEClash.Weighted>
3.4120

> <Gold.Chemscore.DEInternal.Weighted>
1.2270

> <Gold.Chemscore.Rot.Weighted>
6.9663

> <Gold.Chemscore.Internal.Correction.Weighted>
   9.000000E+99

> <Gold.Protein.RotatedTorsions>
[ 6907 6896 6895 6894 ] final  122.74 input  -60.11 | X-H torsion
[ 7974 7965 7964 7962 ] final   25.08 input  175.53 | X-H torsion
[ 8008 7997 7996 7995 ] final  -71.25 input   59.86 | X-H torsion
[ 10167 10162 10161 10158 ] final   64.38 input  -65.29 | X-H torsion
[ 10718 10713 10712 10709 ] final  -70.92 input   66.30 | X-H torsion
[ 10763 10752 10751 10750 ] final  172.14 input  -60.55 | X-H torsion
[ 11005 11000 10999 10996 ] final   88.47 input  -57.11 | X-H torsion

> <Gold.Protein.ActiveResidues>
 VAL166  LYS551  ARG553  GLY616  TRP617  ASP618  TYR619  PRO620  LYS621  CYS622 
 ASP623  PHE694  ASN695  SER759  ASP760  ASP761  ALA762  ILE779  LEU786  VAL792 
 PHE793  MET794  SER795  GLU796  ALA797  LYS798  CYS799  TRP800  GLU811  SER814 

> <Gold.Protein.RotatedAtoms>
  152.4218  133.7129  159.6488 H   0  0  0  0  0  0  0  0  0  0  0  0  # atno 6907 bound_to 6896
  150.8094  133.8439  159.3195 H   0  0  0  0  0  0  0  0  0  0  0  0  # atno 6908 bound_to 6896
  151.6153  135.1039  160.0141 H   0  0  0  0  0  0  0  0  0  0  0  0  # atno 6909 bound_to 6896
  146.1906  139.7515  142.8834 H   0  0  0  0  0  0  0  0  0  0  0  0  # atno 7974 bound_to 7965
  154.5073  140.0819  156.7920 H   0  0  0  0  0  0  0  0  0  0  0  0  # atno 8008 bound_to 7997
  155.3864  140.3430  155.4231 H   0  0  0  0  0  0  0  0  0  0  0  0  # atno 8009 bound_to 7997
  156.1531  140.1565  156.8724 H   0  0  0  0  0  0  0  0  0  0  0  0  # atno 8010 bound_to 7997
  140.1228  144.4715  150.6910 H   0  0  0  0  0  0  0  0  0  0  0  0  # atno 10167 bound_to 10162
  156.0386  130.4341  150.2367 H   0  0  0  0  0  0  0  0  0  0  0  0  # atno 10718 bound_to 10713
  154.4218  135.2758  155.1970 H   0  0  0  0  0  0  0  0  0  0  0  0  # atno 10763 bound_to 10752
  154.3913  135.6065  153.5848 H   0  0  0  0  0  0  0  0  0  0  0  0  # atno 10764 bound_to 10752
  152.9833  135.5904  154.4516 H   0  0  0  0  0  0  0  0  0  0  0  0  # atno 10765 bound_to 10752
  139.8896  134.8489  156.3004 H   0  0  0  0  0  0  0  0  0  0  0  0  # atno 11005 bound_to 11000
  145.3804  141.0357  143.3181 LP  0  0  0  0  0  0  0  0  0  0  0  0  # atno 17320 bound_to 7965
  144.8480  139.5367  143.6870 LP  0  0  0  0  0  0  0  0  0  0  0  0  # atno 17321 bound_to 7965
  140.6862  143.2351  151.5254 LP  0  0  0  0  0  0  0  0  0  0  0  0  # atno 17342 bound_to 10162
  139.5559  144.2276  152.1612 LP  0  0  0  0  0  0  0  0  0  0  0  0  # atno 17343 bound_to 10162
  157.0464  131.0050  151.3267 LP  0  0  0  0  0  0  0  0  0  0  0  0  # atno 17370 bound_to 10713
  157.5172  130.7975  149.7769 LP  0  0  0  0  0  0  0  0  0  0  0  0  # atno 17371 bound_to 10713
  140.9917  133.7205  156.0824 LP  0  0  0  0  0  0  0  0  0  0  0  0  # atno 17394 bound_to 11000
  140.7616  134.3932  157.5524 LP  0  0  0  0  0  0  0  0  0  0  0  0  # atno 17395 bound_to 11000

$$$$
