AV-unprocessed.smi:2198|AV-procd|sdf|8913|dock3
  -GOLD-   2272012133D 1   1.00000     0.00000
 Structure written by MMmdl.
 43 44  0  0  0  0  0  0  0  0  1 V2000
  146.3689  137.8914  152.6024 C   0  0  0  0  0  0  0  0  0  0  0  0
  147.1569  139.0334  153.2084 C   0  0  0  0  0  0  0  0  0  0  0  0
  146.6536  140.1919  153.4824 N   0  0  0  0  0  0  0  0  0  0  0  0
  147.4831  141.1711  154.0466 C   0  0  0  0  0  0  0  0  0  0  0  0
  146.8162  142.5044  154.3394 C   0  0  0  0  0  0  0  0  0  0  0  0
  148.8010  140.9281  154.3095 C   0  0  0  0  0  0  0  0  0  0  0  0
  149.7308  141.9729  154.9233 C   0  0  0  0  0  0  0  0  0  0  0  0
  150.1806  141.6830  156.3561 C   0  0  0  0  0  0  0  0  0  0  0  0
  150.3797  140.5227  156.7148 O   0  0  0  0  0  0  0  0  0  0  0  0
  150.3451  142.7450  157.1596 N   0  0  0  0  0  0  0  0  0  0  0  0
  150.7882  142.6929  158.5491 C   0  0  2  0  0  0  0  0  0  0  0  0
  150.9122  144.1143  159.1320 C   0  0  0  0  0  0  0  0  0  0  0  0
  151.4512  144.0821  160.5700 C   0  0  0  0  0  0  0  0  0  0  0  0
  152.7920  143.3349  160.6474 C   0  0  0  0  0  0  0  0  0  0  0  0
  152.6796  141.9092  160.0740 C   0  0  2  0  0  0  0  0  0  0  0  0
  154.0231  141.1692  160.1450 C   0  0  0  0  0  0  0  0  0  0  0  0
  152.1338  141.9478  158.6331 C   0  0  0  0  0  0  0  0  0  0  0  0
  149.3657  139.6024  153.9896 C   0  0  0  0  0  0  0  0  0  0  0  0
  150.5370  139.2782  154.1785 O   0  0  0  0  0  0  0  0  0  0  0  0
  148.4936  138.7215  153.4507 N   0  0  0  0  0  0  0  0  0  0  0  0
  148.8327  137.8005  153.2141 H   0  0  0  0  0  0  0  0  0  0  0  0
  145.9594  138.1881  151.6365 H   0  0  0  0  0  0  0  0  0  0  0  0
  145.5408  137.6185  153.2571 H   0  0  0  0  0  0  0  0  0  0  0  0
  146.9905  137.0074  152.4525 H   0  0  0  0  0  0  0  0  0  0  0  0
  146.8884  142.7481  155.3994 H   0  0  0  0  0  0  0  0  0  0  0  0
  145.7579  142.4840  154.0758 H   0  0  0  0  0  0  0  0  0  0  0  0
  147.2854  143.3032  153.7650 H   0  0  0  0  0  0  0  0  0  0  0  0
  150.6070  142.0792  154.2831 H   0  0  0  0  0  0  0  0  0  0  0  0
  149.2634  142.9580  154.9090 H   0  0  0  0  0  0  0  0  0  0  0  0
  150.1581  143.6602  156.7762 H   0  0  0  0  0  0  0  0  0  0  0  0
  150.0563  142.1337  159.1354 H   0  0  0  0  0  0  0  0  0  0  0  0
  151.5789  144.7129  158.5094 H   0  0  0  0  0  0  0  0  0  0  0  0
  149.9432  144.6146  159.1169 H   0  0  0  0  0  0  0  0  0  0  0  0
  151.5703  145.0991  160.9449 H   0  0  0  0  0  0  0  0  0  0  0  0
  150.7235  143.5962  161.2211 H   0  0  0  0  0  0  0  0  0  0  0  0
  153.5517  143.8946  160.0999 H   0  0  0  0  0  0  0  0  0  0  0  0
  153.1266  143.2943  161.6847 H   0  0  0  0  0  0  0  0  0  0  0  0
  151.9675  141.3556  160.6879 H   0  0  0  0  0  0  0  0  0  0  0  0
  154.7863  141.6755  159.5531 H   0  0  0  0  0  0  0  0  0  0  0  0
  153.9307  140.1502  159.7678 H   0  0  0  0  0  0  0  0  0  0  0  0
  154.3844  141.1081  161.1719 H   0  0  0  0  0  0  0  0  0  0  0  0
  152.0126  140.9303  158.2586 H   0  0  0  0  0  0  0  0  0  0  0  0
  152.8629  142.4311  157.9809 H   0  0  0  0  0  0  0  0  0  0  0  0
  1  2  1  0  0  0  0
  1 22  1  0  0  0  0
  1 23  1  0  0  0  0
  1 24  1  0  0  0  0
  2 20  1  0  0  0  0
  2  3  2  0  0  0  0
  3  4  1  0  0  0  0
  4  5  1  0  0  0  0
  4  6  2  0  0  0  0
  5 25  1  0  0  0  0
  5 26  1  0  0  0  0
  5 27  1  0  0  0  0
  6  7  1  0  0  0  0
  6 18  1  0  0  0  0
  7  8  1  0  0  0  0
  7 28  1  0  0  0  0
  7 29  1  0  0  0  0
  8  9  2  0  0  0  0
  8 10  1  0  0  0  0
 10 11  1  0  0  0  0
 10 30  1  0  0  0  0
 11 17  1  0  0  0  0
 11 12  1  0  0  0  0
 11 31  1  0  0  0  0
 12 13  1  0  0  0  0
 12 32  1  0  0  0  0
 12 33  1  0  0  0  0
 13 14  1  0  0  0  0
 13 34  1  0  0  0  0
 13 35  1  0  0  0  0
 14 15  1  0  0  0  0
 14 36  1  0  0  0  0
 14 37  1  0  0  0  0
 15 16  1  0  0  0  0
 15 17  1  0  0  0  0
 15 38  1  0  0  0  0
 16 39  1  0  0  0  0
 16 40  1  0  0  0  0
 16 41  1  0  0  0  0
 17 42  1  0  0  0  0
 17 43  1  0  0  0  0
 18 19  2  0  0  0  0
 18 20  1  0  0  0  0
 20 21  1  0  0  0  0
M  END
> <s_m_source_file>
AV-unprocessed.smi

> <i_m_source_file_index>
2198

> <i_lp_mmshare_version>
43012

> <i_f3d_flags>
0

> <s_epik_input>
W0NIM11jMW5jKFtDSDNdKWMoYyg9TylbbkhdMSlbQ0gyXUMoPU8pW05IXVtDQEBIXTJbQ0gyXVtDSDJdW0NIMl1bQ0BASF0oW0NIM10pW0NIMl0y

> <s_epik_cmdline>
J2VwaWtfcHl0aG9uJywgJy1waCcsICc3LjAnLCAnLXRuJywgJzgnLCAnLW1hJywgJzIwMCcsICctbWV0YWxfYmluZGluZycsICctaW1hZScsICc8aW5maWxlLm1hZT4nLCAnLW9tYWUnLCAnPG91dGZpbGUubWFlPic=

> <r_lp_tautomer_probability>
0.839158

> <r_epik_Ionization_Penalty>
0.000372587

> <r_epik_Ionization_Penalty_Charging>
0.000337977

> <r_epik_Ionization_Penalty_Neutral>
3.46101e-05

> <r_epik_State_Penalty>
0.09125

> <r_epik_Charging_Adjusted_Penalty>
0.091588

> <i_epik_Tot_Q>
0

> <i_epik_Tot_abs_Q>
0

> <r_epik_Metal_State_Penalty>
0.25197

> <b_epik_Metal_Only>
0

> <s_lp_Force_Field>
OPLS_2005

> <r_lp_Energy>
10.3768

> <b_lp_Chiralities_Consistent>
1

> <s_lp_Variant>
AV-unprocessed.smi:2198-3

> <Gold.Version>
5.8.1

> <Gold.Id.Protein>
6NUR|6NUR_protein|mol2

> <Gold.PLP.Fitness>
47.7425

> <Gold.PLP.PLP>
-39.9513

> <Gold.PLP.part.hbond>
-4.0000

> <Gold.PLP.part.metal>
0.0000

> <Gold.PLP.part.buried>
1.0241

> <Gold.PLP.part.nonpolar>
-37.4085

> <Gold.PLP.part.repulsive>
0.4490

> <Gold.PLP.ligand.clash>
0.0000

> <Gold.PLP.ligand.torsion>
0.4493

> <Gold.PLP.Chemscore.Hbond>
2.8955

> <Gold.PLP.Chemscore.CHOScore>
0.0000

> <Gold.PLP.Chemscore.Metal>
0.0000

> <Gold.Chemscore.Hbonds>
donor molecule, donor type, donor heavy atom, donor atom, acceptor molecule, acceptor atom, score
      L1  H    10    30       P1  8028  0.91
      L1  H    20    21       P1  7948  0.93
      P1  H  7989  7998       L1    19  0.98

> <Gold.PLP.Chemscore.Internal.Correction>
0.0033

> <Gold.Rescore>
     Score         DG    S(hbond)    S(metal)    S(lipo)     H(rot)  DE(clash)    DE(int)     intcor
     18.49     -23.08       2.65        0.00     107.06       1.48       2.03       2.56       ----

> <Gold.Chemscore.Fitness>
18.4880

> <Gold.Chemscore.DG>
-23.0753

> <Gold.Chemscore.ZeroCoef>
-5.4800

> <Gold.Chemscore.Hbond>
2.6521

> <Gold.Chemscore.Metal>
0.0000

> <Gold.Chemscore.Lipo>
107.0628

> <Gold.Chemscore.Internal_Hbond>
0.0000

> <Gold.Chemscore.DEClash>
2.0314

> <Gold.Chemscore.DEInternal>
2.5560

> <Gold.Chemscore.Rot>
1.4801

> <Gold.Chemscore.Internal.Correction>
   9.000000E+99

> <Gold.Chemscore.Hbonds>
donor molecule, donor type, donor heavy atom, donor atom, acceptor molecule, acceptor atom, score
      L1  H    10    30       P1  8028  0.86
      L1  H    20    21       P1  7948  0.84
      P1  H  7989  7998       L1    19  0.46

> <Gold.Chemscore.Hbond.Weighted>
-8.8581

> <Gold.Chemscore.Metal.Weighted>
-0.0000

> <Gold.Chemscore.Lipo.Weighted>
-12.5264

> <Gold.Chemscore.Internal_Hbond.Weighted>
0.0000

> <Gold.Chemscore.DEClash.Weighted>
2.0314

> <Gold.Chemscore.DEInternal.Weighted>
2.5560

> <Gold.Chemscore.Rot.Weighted>
3.7891

> <Gold.Chemscore.Internal.Correction.Weighted>
   9.000000E+99

> <Gold.Protein.RotatedTorsions>
[ 6907 6896 6895 6894 ] final -143.37 input  -60.11 | X-H torsion
[ 7974 7965 7964 7962 ] final    9.43 input  175.53 | X-H torsion
[ 8008 7997 7996 7995 ] final  -57.71 input   59.86 | X-H torsion
[ 10167 10162 10161 10158 ] final  167.51 input  -65.29 | X-H torsion
[ 10718 10713 10712 10709 ] final  -78.92 input   66.30 | X-H torsion
[ 10763 10752 10751 10750 ] final   89.10 input  -60.55 | X-H torsion
[ 11005 11000 10999 10996 ] final  -19.42 input  -57.11 | X-H torsion

> <Gold.Protein.ActiveResidues>
 VAL166  LYS551  ARG553  GLY616  TRP617  ASP618  TYR619  PRO620  LYS621  CYS622 
 ASP623  PHE694  ASN695  SER759  ASP760  ASP761  ALA762  ILE779  LEU786  VAL792 
 PHE793  MET794  SER795  GLU796  ALA797  LYS798  CYS799  TRP800  GLU811  SER814 

> <Gold.Protein.RotatedAtoms>
  151.0996  133.5254  159.2610 H   0  0  0  0  0  0  0  0  0  0  0  0  # atno 6907 bound_to 6896
  151.2090  135.0473  159.8913 H   0  0  0  0  0  0  0  0  0  0  0  0  # atno 6908 bound_to 6896
  152.5442  134.0814  159.8290 H   0  0  0  0  0  0  0  0  0  0  0  0  # atno 6909 bound_to 6896
  146.2403  139.9784  142.8439 H   0  0  0  0  0  0  0  0  0  0  0  0  # atno 7974 bound_to 7965
  154.4279  140.1100  156.5842 H   0  0  0  0  0  0  0  0  0  0  0  0  # atno 8008 bound_to 7997
  155.6081  140.3494  155.4595 H   0  0  0  0  0  0  0  0  0  0  0  0  # atno 8009 bound_to 7997
  156.0121  140.1221  157.0433 H   0  0  0  0  0  0  0  0  0  0  0  0  # atno 8010 bound_to 7997
  139.4947  144.3914  151.9513 H   0  0  0  0  0  0  0  0  0  0  0  0  # atno 10167 bound_to 10162
  156.0105  130.4531  150.3570 H   0  0  0  0  0  0  0  0  0  0  0  0  # atno 10718 bound_to 10713
  153.1836  135.4483  155.0059 H   0  0  0  0  0  0  0  0  0  0  0  0  # atno 10763 bound_to 10752
  154.8046  135.3269  154.7467 H   0  0  0  0  0  0  0  0  0  0  0  0  # atno 10764 bound_to 10752
  153.7929  135.6969  153.4923 H   0  0  0  0  0  0  0  0  0  0  0  0  # atno 10765 bound_to 10752
  140.8364  133.7958  155.9814 H   0  0  0  0  0  0  0  0  0  0  0  0  # atno 11005 bound_to 11000
  145.1615  140.9675  143.4374 LP  0  0  0  0  0  0  0  0  0  0  0  0  # atno 17320 bound_to 7965
  145.0112  139.3508  143.6119 LP  0  0  0  0  0  0  0  0  0  0  0  0  # atno 17321 bound_to 7965
  140.3352  144.3269  150.5979 LP  0  0  0  0  0  0  0  0  0  0  0  0  # atno 17342 bound_to 10162
  140.5612  143.2192  151.7762 LP  0  0  0  0  0  0  0  0  0  0  0  0  # atno 17343 bound_to 10162
  157.1660  131.0357  151.2818 LP  0  0  0  0  0  0  0  0  0  0  0  0  # atno 17370 bound_to 10713
  157.4270  130.7469  149.6959 LP  0  0  0  0  0  0  0  0  0  0  0  0  # atno 17371 bound_to 10713
  140.8942  134.2458  157.5078 LP  0  0  0  0  0  0  0  0  0  0  0  0  # atno 17394 bound_to 11000
  139.8704  134.9676  156.4602 LP  0  0  0  0  0  0  0  0  0  0  0  0  # atno 17395 bound_to 11000

$$$$
