AV-unprocessed.smi:1641|AV-procd|sdf|6558|dock10
  -GOLD-   22720 7243D 1   1.00000     0.00000
 Structure written by MMmdl.
 41 42  0  0  0  0  0  0  0  0  1 V2000
  141.9484  146.7949  160.0265 C   0  0  0  0  0  0  0  0  0  0  0  0
  143.0997  145.8947  159.7342 C   0  0  0  0  0  0  0  0  0  0  0  0
  143.4015  144.8374  160.4976 N   0  0  0  0  0  0  0  0  0  0  0  0
  144.5117  144.1491  160.0282 N   0  0  0  0  0  0  0  0  0  0  0  0
  145.0165  144.7109  158.9211 C   0  0  0  0  0  0  0  0  0  0  0  0
  146.1529  144.2132  158.2304 N   0  0  0  0  0  0  0  0  0  0  0  0
  146.7228  142.9995  158.3297 C   0  0  0  0  0  0  0  0  0  0  0  0
  146.3231  142.0832  159.0485 O   0  0  0  0  0  0  0  0  0  0  0  0
  147.7985  142.9038  157.5343 N   0  0  0  0  0  0  0  0  0  0  0  0
  148.6621  141.7325  157.4168 C   0  0  0  0  0  0  0  0  0  0  0  0
  150.1096  142.1255  157.0595 C   0  0  0  0  0  0  0  0  0  0  0  0
  150.8788  142.7401  158.1409 N   0  0  0  0  0  0  0  0  0  0  0  0
  151.6630  141.7700  158.8986 C   0  0  0  0  0  0  0  0  0  0  0  0
  152.4220  142.4346  160.0608 C   0  0  1  0  0  0  0  0  0  0  0  0
  153.3151  141.4402  160.8094 C   0  0  0  0  0  0  0  0  0  0  0  0
  153.2485  143.4809  159.5519 O   0  0  0  0  0  0  0  0  0  0  0  0
  152.5725  144.4619  158.7629 C   0  0  2  0  0  0  0  0  0  0  0  0
  151.7205  145.4036  159.6313 C   0  0  0  0  0  0  0  0  0  0  0  0
  151.7700  143.7785  157.6380 C   0  0  0  0  0  0  0  0  0  0  0  0
  144.1723  146.1445  158.3620 S   0  0  0  0  0  0  0  0  0  0  0  0
  141.0968  146.2164  160.3861 H   0  0  0  0  0  0  0  0  0  0  0  0
  141.6485  147.3301  159.1253 H   0  0  0  0  0  0  0  0  0  0  0  0
  142.2277  147.5212  160.7897 H   0  0  0  0  0  0  0  0  0  0  0  0
  146.5831  144.8581  157.5844 H   0  0  0  0  0  0  0  0  0  0  0  0
  148.0493  143.7074  156.9773 H   0  0  0  0  0  0  0  0  0  0  0  0
  148.6149  141.1140  158.3134 H   0  0  0  0  0  0  0  0  0  0  0  0
  148.2581  141.1157  156.6138 H   0  0  0  0  0  0  0  0  0  0  0  0
  150.6402  141.2452  156.6940 H   0  0  0  0  0  0  0  0  0  0  0  0
  150.0660  142.8149  156.2150 H   0  0  0  0  0  0  0  0  0  0  0  0
  151.0173  140.9937  159.3067 H   0  0  0  0  0  0  0  0  0  0  0  0
  152.3709  141.2693  158.2361 H   0  0  0  0  0  0  0  0  0  0  0  0
  151.7058  142.8509  160.7700 H   0  0  0  0  0  0  0  0  0  0  0  0
  152.7253  140.6276  161.2344 H   0  0  0  0  0  0  0  0  0  0  0  0
  153.8433  141.9303  161.6278 H   0  0  0  0  0  0  0  0  0  0  0  0
  154.0608  141.0020  160.1454 H   0  0  0  0  0  0  0  0  0  0  0  0
  153.3491  145.0709  158.2992 H   0  0  0  0  0  0  0  0  0  0  0  0
  151.3031  146.2118  159.0308 H   0  0  0  0  0  0  0  0  0  0  0  0
  152.3218  145.8549  160.4206 H   0  0  0  0  0  0  0  0  0  0  0  0
  150.8853  144.8851  160.1022 H   0  0  0  0  0  0  0  0  0  0  0  0
  152.4666  143.3414  156.9207 H   0  0  0  0  0  0  0  0  0  0  0  0
  151.1985  144.5297  157.0915 H   0  0  0  0  0  0  0  0  0  0  0  0
  1  2  1  0  0  0  0
  1 21  1  0  0  0  0
  1 22  1  0  0  0  0
  1 23  1  0  0  0  0
  2 20  1  0  0  0  0
  2  3  2  0  0  0  0
  3  4  1  0  0  0  0
  4  5  2  0  0  0  0
  5  6  1  0  0  0  0
  5 20  1  0  0  0  0
  6  7  1  0  0  0  0
  6 24  1  0  0  0  0
  7  8  2  0  0  0  0
  7  9  1  0  0  0  0
  9 10  1  0  0  0  0
  9 25  1  0  0  0  0
 10 11  1  0  0  0  0
 10 26  1  0  0  0  0
 10 27  1  0  0  0  0
 11 12  1  0  0  0  0
 11 28  1  0  0  0  0
 11 29  1  0  0  0  0
 12 19  1  0  0  0  0
 12 13  1  0  0  0  0
 13 14  1  0  0  0  0
 13 30  1  0  0  0  0
 13 31  1  0  0  0  0
 14 15  1  0  0  0  0
 14 16  1  0  0  0  0
 14 32  1  0  0  0  0
 15 33  1  0  0  0  0
 15 34  1  0  0  0  0
 15 35  1  0  0  0  0
 16 17  1  0  0  0  0
 17 18  1  0  0  0  0
 17 19  1  0  0  0  0
 17 36  1  0  0  0  0
 18 37  1  0  0  0  0
 18 38  1  0  0  0  0
 18 39  1  0  0  0  0
 19 40  1  0  0  0  0
 19 41  1  0  0  0  0
M  END
> <s_m_source_file>
AV-unprocessed.smi

> <i_m_source_file_index>
1641

> <i_lp_mmshare_version>
43012

> <i_f3d_flags>
0

> <s_epik_input>
W0NIM11jMW5uYyhzMSlbTkhdQyg9TylbTkhdW0NIMl1bQ0gyXU4yW0NIMl1bQ0BASF0oW0NIM10pT1tDQEBIXShbQ0gzXSlbQ0gyXTI=

> <s_epik_cmdline>
J2VwaWtfcHl0aG9uJywgJy1waCcsICc3LjAnLCAnLXRuJywgJzgnLCAnLW1hJywgJzIwMCcsICctbWV0YWxfYmluZGluZycsICctaW1hZScsICc8aW5maWxlLm1hZT4nLCAnLW9tYWUnLCAnPG91dGZpbGUubWFlPic=

> <r_lp_tautomer_probability>
1

> <r_epik_Ionization_Penalty>
0.221104

> <r_epik_Ionization_Penalty_Charging>
0

> <r_epik_Ionization_Penalty_Neutral>
0.221104

> <r_epik_State_Penalty>
0.209349

> <r_epik_Charging_Adjusted_Penalty>
0.209349

> <i_epik_Tot_Q>
0

> <i_epik_Tot_abs_Q>
0

> <r_epik_Metal_State_Penalty>
0.560954

> <b_epik_Metal_Only>
0

> <s_lp_Force_Field>
OPLS_2005

> <r_lp_Energy>
25.2137

> <b_lp_Chiralities_Consistent>
1

> <s_lp_Variant>
AV-unprocessed.smi:1641-3

> <Gold.Version>
5.8.1

> <Gold.Id.Protein>
6NUR|6NUR_protein|mol2

> <Gold.PLP.Fitness>
40.5735

> <Gold.PLP.PLP>
-35.6853

> <Gold.PLP.part.hbond>
-3.4570

> <Gold.PLP.part.metal>
0.0000

> <Gold.PLP.part.buried>
-4.8980

> <Gold.PLP.part.nonpolar>
-29.0509

> <Gold.PLP.part.repulsive>
0.2846

> <Gold.PLP.ligand.clash>
0.0000

> <Gold.PLP.ligand.torsion>
0.7571

> <Gold.PLP.Chemscore.Hbond>
2.1300

> <Gold.PLP.Chemscore.CHOScore>
0.0000

> <Gold.PLP.Chemscore.Metal>
0.0000

> <Gold.Chemscore.Hbonds>
donor molecule, donor type, donor heavy atom, donor atom, acceptor molecule, acceptor atom, score
      L1  H     6    24       P1  8029  0.88
      L1  H     9    25       P1  8028  0.20
      P1  H  6934  6946       L1     8  0.69

> <Gold.PLP.Chemscore.Internal.Correction>
0.0124

> <Gold.Rescore>
     Score         DG    S(hbond)    S(metal)    S(lipo)     H(rot)  DE(clash)    DE(int)     intcor
     16.51     -18.45       1.76        0.00      95.47       1.60       0.02       1.92       ----

> <Gold.Chemscore.Fitness>
16.5050

> <Gold.Chemscore.DG>
-18.4457

> <Gold.Chemscore.ZeroCoef>
-5.4800

> <Gold.Chemscore.Hbond>
1.7622

> <Gold.Chemscore.Metal>
0.0000

> <Gold.Chemscore.Lipo>
95.4675

> <Gold.Chemscore.Internal_Hbond>
0.0000

> <Gold.Chemscore.DEClash>
0.0183

> <Gold.Chemscore.DEInternal>
1.9224

> <Gold.Chemscore.Rot>
1.5975

> <Gold.Chemscore.Internal.Correction>
   9.000000E+99

> <Gold.Chemscore.Hbonds>
donor molecule, donor type, donor heavy atom, donor atom, acceptor molecule, acceptor atom, score
      L1  H     6    24       P1  8029  0.17
      P1  H  6934  6946       L1     8  0.67

> <Gold.Chemscore.Hbond.Weighted>
-5.8856

> <Gold.Chemscore.Metal.Weighted>
-0.0000

> <Gold.Chemscore.Lipo.Weighted>
-11.1697

> <Gold.Chemscore.Internal_Hbond.Weighted>
0.0000

> <Gold.Chemscore.DEClash.Weighted>
0.0183

> <Gold.Chemscore.DEInternal.Weighted>
1.9224

> <Gold.Chemscore.Rot.Weighted>
4.0896

> <Gold.Chemscore.Internal.Correction.Weighted>
   9.000000E+99

> <Gold.Protein.RotatedTorsions>
[ 6907 6896 6895 6894 ] final -151.85 input  -60.11 | X-H torsion
[ 7974 7965 7964 7962 ] final  -20.39 input  175.53 | X-H torsion
[ 8008 7997 7996 7995 ] final  -67.33 input   59.86 | X-H torsion
[ 10167 10162 10161 10158 ] final -176.60 input  -65.29 | X-H torsion
[ 10718 10713 10712 10709 ] final -132.81 input   66.30 | X-H torsion
[ 10763 10752 10751 10750 ] final  120.30 input  -60.55 | X-H torsion
[ 11005 11000 10999 10996 ] final  -69.37 input  -57.11 | X-H torsion

> <Gold.Protein.ActiveResidues>
 VAL166  LYS551  ARG553  GLY616  TRP617  ASP618  TYR619  PRO620  LYS621  CYS622 
 ASP623  PHE694  ASN695  SER759  ASP760  ASP761  ALA762  ILE779  LEU786  VAL792 
 PHE793  MET794  SER795  GLU796  ALA797  LYS798  CYS799  TRP800  GLU811  SER814 

> <Gold.Protein.RotatedAtoms>
  151.2192  133.4512  159.2600 H   0  0  0  0  0  0  0  0  0  0  0  0  # atno 6907 bound_to 6896
  151.0901  134.9911  159.8409 H   0  0  0  0  0  0  0  0  0  0  0  0  # atno 6908 bound_to 6896
  152.5434  134.2126  159.8809 H   0  0  0  0  0  0  0  0  0  0  0  0  # atno 6909 bound_to 6896
  146.1790  140.4196  142.8502 H   0  0  0  0  0  0  0  0  0  0  0  0  # atno 7974 bound_to 7965
  154.4793  140.0895  156.7338 H   0  0  0  0  0  0  0  0  0  0  0  0  # atno 8008 bound_to 7997
  155.4513  140.3457  155.4283 H   0  0  0  0  0  0  0  0  0  0  0  0  # atno 8009 bound_to 7997
  156.1166  140.1462  156.9252 H   0  0  0  0  0  0  0  0  0  0  0  0  # atno 8010 bound_to 7997
  139.5521  144.2081  152.1096 H   0  0  0  0  0  0  0  0  0  0  0  0  # atno 10167 bound_to 10162
  156.2384  130.7080  151.0931 H   0  0  0  0  0  0  0  0  0  0  0  0  # atno 10718 bound_to 10713
  153.5964  135.3456  155.2929 H   0  0  0  0  0  0  0  0  0  0  0  0  # atno 10763 bound_to 10752
  154.8644  135.4217  154.2460 H   0  0  0  0  0  0  0  0  0  0  0  0  # atno 10764 bound_to 10752
  153.3279  135.7042  153.7044 H   0  0  0  0  0  0  0  0  0  0  0  0  # atno 10765 bound_to 10752
  141.1552  133.6763  156.6589 H   0  0  0  0  0  0  0  0  0  0  0  0  # atno 11005 bound_to 11000
  144.8284  140.6666  143.6307 LP  0  0  0  0  0  0  0  0  0  0  0  0  # atno 17320 bound_to 7965
  145.4129  139.1577  143.4116 LP  0  0  0  0  0  0  0  0  0  0  0  0  # atno 17321 bound_to 7965
  140.1579  144.5054  150.6649 LP  0  0  0  0  0  0  0  0  0  0  0  0  # atno 17342 bound_to 10162
  140.6786  143.2316  151.5442 LP  0  0  0  0  0  0  0  0  0  0  0  0  # atno 17343 bound_to 10162
  157.7164  131.0707  150.6309 LP  0  0  0  0  0  0  0  0  0  0  0  0  # atno 17370 bound_to 10713
  156.6380  130.4450  149.5762 LP  0  0  0  0  0  0  0  0  0  0  0  0  # atno 17371 bound_to 10713
  140.3262  134.7966  157.4291 LP  0  0  0  0  0  0  0  0  0  0  0  0  # atno 17394 bound_to 11000
  140.1055  134.5416  155.8314 LP  0  0  0  0  0  0  0  0  0  0  0  0  # atno 17395 bound_to 11000

$$$$
