AV-unprocessed.smi:1788|AV-procd|sdf|7212|dock6
  -GOLD-   22720 8453D 1   1.00000     0.00000
 Structure written by MMmdl.
 55 57  0  0  0  0  0  0  0  0  2 V2000
  148.4711  133.2882  152.8791 C   0  0  0  0  0  0  0  0  0  0  0  0
  146.9422  133.1327  152.9545 C   0  0  2  0  0  0  0  0  0  0  0  0
  146.3377  132.5752  151.6529 C   0  0  0  0  0  0  0  0  0  0  0  0
  146.3154  133.6424  150.5505 C   0  0  0  0  0  0  0  0  0  0  0  0
  145.6036  134.9147  151.0339 C   0  0  0  0  0  0  0  0  0  0  0  0
  146.2338  135.4467  152.2695 N   0  3  1  0  0  0  0  0  0  0  0  0
  145.6545  136.7540  152.6761 C   0  0  0  0  0  0  0  0  0  0  0  0
  146.1308  137.9339  151.8062 C   0  0  0  0  0  0  0  0  0  0  0  0
  147.4356  138.4349  152.2325 N   0  0  0  0  0  0  0  0  0  0  0  0
  147.6698  139.1322  153.3532 C   0  0  0  0  0  0  0  0  0  0  0  0
  146.7860  139.4566  154.1445 O   0  0  0  0  0  0  0  0  0  0  0  0
  148.9801  139.3880  153.5042 N   0  0  0  0  0  0  0  0  0  0  0  0
  149.6270  140.0553  154.5791 C   0  0  0  0  0  0  0  0  0  0  0  0
  150.9221  139.6346  154.9374 C   0  0  0  0  0  0  0  0  0  0  0  0
  151.5939  140.2900  155.9865 C   0  0  0  0  0  0  0  0  0  0  0  0
  150.9569  141.3653  156.6495 C   0  0  0  0  0  0  0  0  0  0  0  0
  151.6143  142.0429  157.7000 N   0  0  0  0  0  0  0  0  0  0  0  0
  150.9938  143.2951  158.1267 C   0  0  0  0  0  0  0  0  0  0  0  0
  151.9412  144.0766  159.0538 C   0  0  0  0  0  0  0  0  0  0  0  0
  152.3350  143.2546  160.1473 O   0  0  0  0  0  0  0  0  0  0  0  0
  153.0400  142.0976  159.7109 C   0  0  0  0  0  0  0  0  0  0  0  0
  152.1290  141.2446  158.8118 C   0  0  0  0  0  0  0  0  0  0  0  0
  149.7121  141.7732  156.2998 N   0  0  0  0  0  0  0  0  0  0  0  0
  149.0709  141.1430  155.2933 C   0  0  0  0  0  0  0  0  0  0  0  0
  146.2332  134.4414  153.3670 C   0  0  0  0  0  0  0  0  0  0  0  0
  148.7707  134.0432  152.1521 H   0  0  0  0  0  0  0  0  0  0  0  0
  148.9472  132.3486  152.5974 H   0  0  0  0  0  0  0  0  0  0  0  0
  148.8812  133.5808  153.8461 H   0  0  0  0  0  0  0  0  0  0  0  0
  146.7506  132.3987  153.7385 H   0  0  0  0  0  0  0  0  0  0  0  0
  146.8888  131.6954  151.3190 H   0  0  0  0  0  0  0  0  0  0  0  0
  145.3173  132.2407  151.8451 H   0  0  0  0  0  0  0  0  0  0  0  0
  147.3333  133.8835  150.2424 H   0  0  0  0  0  0  0  0  0  0  0  0
  145.8131  133.2501  149.6658 H   0  0  0  0  0  0  0  0  0  0  0  0
  145.6471  135.6657  150.2439 H   0  0  0  0  0  0  0  0  0  0  0  0
  144.5480  134.7102  151.2208 H   0  0  0  0  0  0  0  0  0  0  0  0
  144.5679  136.7038  152.5914 H   0  0  0  0  0  0  0  0  0  0  0  0
  145.8664  136.9441  153.7293 H   0  0  0  0  0  0  0  0  0  0  0  0
  146.2211  137.6035  150.7712 H   0  0  0  0  0  0  0  0  0  0  0  0
  145.3863  138.7314  151.7956 H   0  0  0  0  0  0  0  0  0  0  0  0
  148.2214  138.2206  151.6353 H   0  0  0  0  0  0  0  0  0  0  0  0
  149.5954  138.9952  152.8068 H   0  0  0  0  0  0  0  0  0  0  0  0
  151.3969  138.8127  154.4214 H   0  0  0  0  0  0  0  0  0  0  0  0
  152.5784  139.9538  156.2754 H   0  0  0  0  0  0  0  0  0  0  0  0
  150.7305  143.9257  157.2788 H   0  0  0  0  0  0  0  0  0  0  0  0
  150.0654  143.0655  158.6512 H   0  0  0  0  0  0  0  0  0  0  0  0
  152.8217  144.4212  158.5087 H   0  0  0  0  0  0  0  0  0  0  0  0
  151.4394  144.9637  159.4404 H   0  0  0  0  0  0  0  0  0  0  0  0
  153.9485  142.3895  159.1809 H   0  0  0  0  0  0  0  0  0  0  0  0
  153.3516  141.5223  160.5828 H   0  0  0  0  0  0  0  0  0  0  0  0
  151.2926  140.8542  159.3932 H   0  0  0  0  0  0  0  0  0  0  0  0
  152.6925  140.3903  158.4342 H   0  0  0  0  0  0  0  0  0  0  0  0
  148.0997  141.5477  155.0560 H   0  0  0  0  0  0  0  0  0  0  0  0
  145.2007  134.2246  153.6461 H   0  0  0  0  0  0  0  0  0  0  0  0
  146.7129  134.8495  154.2564 H   0  0  0  0  0  0  0  0  0  0  0  0
  147.2008  135.6244  152.0378 H   0  0  0  0  0  0  0  0  0  0  0  0
  1  2  1  0  0  0  0
  1 26  1  0  0  0  0
  1 27  1  0  0  0  0
  1 28  1  0  0  0  0
  2 25  1  0  0  0  0
  2  3  1  0  0  0  0
  2 29  1  0  0  0  0
  3  4  1  0  0  0  0
  3 30  1  0  0  0  0
  3 31  1  0  0  0  0
  4  5  1  0  0  0  0
  4 32  1  0  0  0  0
  4 33  1  0  0  0  0
  5  6  1  0  0  0  0
  5 34  1  0  0  0  0
  5 35  1  0  0  0  0
  6  7  1  0  0  0  0
  6 25  1  0  0  0  0
  6 55  1  0  0  0  0
  7  8  1  0  0  0  0
  7 36  1  0  0  0  0
  7 37  1  0  0  0  0
  8  9  1  0  0  0  0
  8 38  1  0  0  0  0
  8 39  1  0  0  0  0
  9 10  1  0  0  0  0
  9 40  1  0  0  0  0
 10 11  2  0  0  0  0
 10 12  1  0  0  0  0
 12 13  1  0  0  0  0
 12 41  1  0  0  0  0
 13 24  1  0  0  0  0
 13 14  2  0  0  0  0
 14 15  1  0  0  0  0
 14 42  1  0  0  0  0
 15 16  2  0  0  0  0
 15 43  1  0  0  0  0
 16 17  1  0  0  0  0
 16 23  1  0  0  0  0
 17 22  1  0  0  0  0
 17 18  1  0  0  0  0
 18 19  1  0  0  0  0
 18 44  1  0  0  0  0
 18 45  1  0  0  0  0
 19 20  1  0  0  0  0
 19 46  1  0  0  0  0
 19 47  1  0  0  0  0
 20 21  1  0  0  0  0
 21 22  1  0  0  0  0
 21 48  1  0  0  0  0
 21 49  1  0  0  0  0
 22 50  1  0  0  0  0
 22 51  1  0  0  0  0
 23 24  2  0  0  0  0
 24 52  1  0  0  0  0
 25 53  1  0  0  0  0
 25 54  1  0  0  0  0
M  CHG  1   6   1
M  END
> <s_m_source_file>
AV-unprocessed.smi

> <i_m_source_file_index>
1788

> <i_lp_mmshare_version>
43012

> <i_f3d_flags>
0

> <s_epik_input>
W0NIM11bQ0BASF0xW0NIMl1bQ0gyXVtDSDJdTihbQ0gyXTEpW0NIMl1bQ0gyXVtOSF1DKD1PKVtOSF1jMltjSF1bY0hdYyhuW2NIXTIpTjNbQ0gyXVtDSDJdT1tDSDJdW0NIMl0z

> <s_epik_cmdline>
J2VwaWtfcHl0aG9uJywgJy1waCcsICc3LjAnLCAnLXRuJywgJzgnLCAnLW1hJywgJzIwMCcsICctbWV0YWxfYmluZGluZycsICctaW1hZScsICc8aW5maWxlLm1hZT4nLCAnLW9tYWUnLCAnPG91dGZpbGUubWFlPic=

> <r_lp_tautomer_probability>
1

> <r_epik_Ionization_Penalty>
0.00340126

> <r_epik_Ionization_Penalty_Charging>
0.00171832

> <r_epik_Ionization_Penalty_Neutral>
0.00168294

> <r_epik_State_Penalty>
-0

> <r_epik_Charging_Adjusted_Penalty>
0.00171832

> <i_epik_Tot_Q>
1

> <i_epik_Tot_abs_Q>
1

> <r_epik_Metal_State_Penalty>
-0

> <b_epik_Metal_Only>
0

> <s_lp_Force_Field>
OPLS_2005

> <r_lp_Energy>
41.5568

> <b_lp_Chiralities_Consistent>
1

> <s_lp_Variant>
AV-unprocessed.smi:1788-3

> <Gold.Version>
5.8.1

> <Gold.Id.Protein>
6NUR|6NUR_protein|mol2

> <Gold.PLP.Fitness>
54.4977

> <Gold.PLP.PLP>
-47.9782

> <Gold.PLP.part.hbond>
-3.9736

> <Gold.PLP.part.metal>
0.0000

> <Gold.PLP.part.buried>
-2.7313

> <Gold.PLP.part.nonpolar>
-41.8930

> <Gold.PLP.part.repulsive>
0.5805

> <Gold.PLP.ligand.clash>
0.0000

> <Gold.PLP.ligand.torsion>
0.7633

> <Gold.PLP.Chemscore.Hbond>
2.5600

> <Gold.PLP.Chemscore.CHOScore>
0.0000

> <Gold.PLP.Chemscore.Metal>
0.0000

> <Gold.Chemscore.Hbonds>
donor molecule, donor type, donor heavy atom, donor atom, acceptor molecule, acceptor atom, score
      L1  H     6    55       P1  7948  2.00
      L1  H     9    40       P1  7948  0.26
      L1  H    12    41       P1  7957  0.27

> <Gold.PLP.Chemscore.Internal.Correction>
0.3662

> <Gold.Rescore>
     Score         DG    S(hbond)    S(metal)    S(lipo)     H(rot)  DE(clash)    DE(int)     intcor
     18.07     -19.94       1.58        0.00     113.38       1.60       0.33       1.54       ----

> <Gold.Chemscore.Fitness>
18.0723

> <Gold.Chemscore.DG>
-19.9447

> <Gold.Chemscore.ZeroCoef>
-5.4800

> <Gold.Chemscore.Hbond>
1.5835

> <Gold.Chemscore.Metal>
0.0000

> <Gold.Chemscore.Lipo>
113.3811

> <Gold.Chemscore.Internal_Hbond>
0.0000

> <Gold.Chemscore.DEClash>
0.3334

> <Gold.Chemscore.DEInternal>
1.5390

> <Gold.Chemscore.Rot>
1.5976

> <Gold.Chemscore.Internal.Correction>
   9.000000E+99

> <Gold.Chemscore.Hbonds>
donor molecule, donor type, donor heavy atom, donor atom, acceptor molecule, acceptor atom, score
      L1  H     6    55       P1  7948  1.00
      L1  H     9    40       P1  7948  0.25
      L1  H    12    41       P1  7957  0.25

> <Gold.Chemscore.Hbond.Weighted>
-5.2890

> <Gold.Chemscore.Metal.Weighted>
-0.0000

> <Gold.Chemscore.Lipo.Weighted>
-13.2656

> <Gold.Chemscore.Internal_Hbond.Weighted>
0.0000

> <Gold.Chemscore.DEClash.Weighted>
0.3334

> <Gold.Chemscore.DEInternal.Weighted>
1.5390

> <Gold.Chemscore.Rot.Weighted>
4.0899

> <Gold.Chemscore.Internal.Correction.Weighted>
   9.000000E+99

> <Gold.Protein.RotatedTorsions>
[ 6907 6896 6895 6894 ] final -116.21 input  -60.11 | X-H torsion
[ 7974 7965 7964 7962 ] final   99.41 input  175.53 | X-H torsion
[ 8008 7997 7996 7995 ] final   65.79 input   59.86 | X-H torsion
[ 10167 10162 10161 10158 ] final  -93.79 input  -65.29 | X-H torsion
[ 10718 10713 10712 10709 ] final   56.03 input   66.30 | X-H torsion
[ 10763 10752 10751 10750 ] final  141.49 input  -60.55 | X-H torsion
[ 11005 11000 10999 10996 ] final  102.01 input  -57.11 | X-H torsion

> <Gold.Protein.ActiveResidues>
 VAL166  LYS551  ARG553  GLY616  TRP617  ASP618  TYR619  PRO620  LYS621  CYS622 
 ASP623  PHE694  ASN695  SER759  ASP760  ASP761  ALA762  ILE779  LEU786  VAL792 
 PHE793  MET794  SER795  GLU796  ALA797  LYS798  CYS799  TRP800  GLU811  SER814 

> <Gold.Protein.RotatedAtoms>
  150.8038  133.8549  159.3215 H   0  0  0  0  0  0  0  0  0  0  0  0  # atno 6907 bound_to 6896
  151.6353  135.1017  160.0140 H   0  0  0  0  0  0  0  0  0  0  0  0  # atno 6908 bound_to 6896
  152.4127  133.6949  159.6447 H   0  0  0  0  0  0  0  0  0  0  0  0  # atno 6909 bound_to 6896
  145.3992  139.2350  143.3309 H   0  0  0  0  0  0  0  0  0  0  0  0  # atno 7974 bound_to 7965
  155.6673  140.3497  155.4805 H   0  0  0  0  0  0  0  0  0  0  0  0  # atno 8008 bound_to 7997
  155.9718  140.1157  157.0828 H   0  0  0  0  0  0  0  0  0  0  0  0  # atno 8009 bound_to 7997
  154.4168  140.1155  156.5303 H   0  0  0  0  0  0  0  0  0  0  0  0  # atno 8010 bound_to 7997
  140.3211  143.3049  152.0046 H   0  0  0  0  0  0  0  0  0  0  0  0  # atno 10167 bound_to 10162
  157.5396  130.8688  149.8803 H   0  0  0  0  0  0  0  0  0  0  0  0  # atno 10718 bound_to 10713
  153.9401  135.2981  155.3443 H   0  0  0  0  0  0  0  0  0  0  0  0  # atno 10763 bound_to 10752
  154.7481  135.4993  153.9243 H   0  0  0  0  0  0  0  0  0  0  0  0  # atno 10764 bound_to 10752
  153.1047  135.6743  153.9715 H   0  0  0  0  0  0  0  0  0  0  0  0  # atno 10765 bound_to 10752
  139.8775  134.9206  156.4993 H   0  0  0  0  0  0  0  0  0  0  0  0  # atno 11005 bound_to 11000
  146.2760  140.4687  142.8795 LP  0  0  0  0  0  0  0  0  0  0  0  0  # atno 17320 bound_to 7965
  144.8385  140.6821  143.6244 LP  0  0  0  0  0  0  0  0  0  0  0  0  # atno 17321 bound_to 7965
  139.4874  144.6310  151.7069 LP  0  0  0  0  0  0  0  0  0  0  0  0  # atno 17342 bound_to 10162
  140.5483  144.0467  150.6116 LP  0  0  0  0  0  0  0  0  0  0  0  0  # atno 17343 bound_to 10162
  156.0486  130.3722  150.1256 LP  0  0  0  0  0  0  0  0  0  0  0  0  # atno 17370 bound_to 10713
  156.9437  130.9752  151.3511 LP  0  0  0  0  0  0  0  0  0  0  0  0  # atno 17371 bound_to 10713
  140.8601  133.8066  155.9256 LP  0  0  0  0  0  0  0  0  0  0  0  0  # atno 17394 bound_to 11000
  140.9058  134.2322  157.5015 LP  0  0  0  0  0  0  0  0  0  0  0  0  # atno 17395 bound_to 11000

$$$$
