AV-unprocessed.smi:2126|AV-procd|sdf|8675|dock1
  -GOLD-   2272011423D 1   1.00000     0.00000
 Structure written by MMmdl.
 40 42  0  0  0  0  0  0  0  0  1 V2000
  144.0496  146.3763  153.8385 C   0  0  0  0  0  0  0  0  0  0  0  0
  144.8259  145.3935  153.1693 O   0  0  0  0  0  0  0  0  0  0  0  0
  145.3930  144.3903  153.9254 C   0  0  0  0  0  0  0  0  0  0  0  0
  145.2330  144.2601  155.3268 C   0  0  0  0  0  0  0  0  0  0  0  0
  145.8522  143.2015  156.0189 C   0  0  0  0  0  0  0  0  0  0  0  0
  146.6394  142.2518  155.3384 C   0  0  0  0  0  0  0  0  0  0  0  0
  147.2067  141.2487  156.0949 O   0  0  0  0  0  0  0  0  0  0  0  0
  148.1969  140.4282  155.4887 C   0  0  0  0  0  0  0  0  0  0  0  0
  149.3748  141.3071  155.0433 C   0  0  2  0  0  0  0  0  0  0  0  0
  149.8121  140.8558  153.7764 O   0  0  0  0  0  0  0  0  0  0  0  0
  150.5464  141.2753  156.0444 C   0  0  0  0  0  0  0  0  0  0  0  0
  150.2933  142.0852  157.2229 N   0  0  0  0  0  0  0  0  0  0  0  0
  149.2239  142.0163  158.0388 C   0  0  0  0  0  0  0  0  0  0  0  0
  149.1878  142.8571  159.0686 N   0  0  0  0  0  0  0  0  0  0  0  0
  150.3731  143.5530  158.9031 C   0  0  0  0  0  0  0  0  0  0  0  0
  150.9382  144.5979  159.6689 C   0  0  0  0  0  0  0  0  0  0  0  0
  152.1761  145.1648  159.3006 C   0  0  0  0  0  0  0  0  0  0  0  0
  152.8667  144.6978  158.1634 C   0  0  0  0  0  0  0  0  0  0  0  0
  152.3237  143.6577  157.3847 C   0  0  0  0  0  0  0  0  0  0  0  0
  151.0888  143.0940  157.7561 C   0  0  0  0  0  0  0  0  0  0  0  0
  146.7992  142.3824  153.9369 C   0  0  0  0  0  0  0  0  0  0  0  0
  146.1806  143.4410  153.2448 C   0  0  0  0  0  0  0  0  0  0  0  0
  143.6795  147.0985  153.1111 H   0  0  0  0  0  0  0  0  0  0  0  0
  144.6438  146.9227  154.5722 H   0  0  0  0  0  0  0  0  0  0  0  0
  143.1841  145.9321  154.3322 H   0  0  0  0  0  0  0  0  0  0  0  0
  144.6398  144.9600  155.8954 H   0  0  0  0  0  0  0  0  0  0  0  0
  145.7204  143.1183  157.0878 H   0  0  0  0  0  0  0  0  0  0  0  0
  148.5448  139.6624  156.1843 H   0  0  0  0  0  0  0  0  0  0  0  0
  147.7657  139.9262  154.6207 H   0  0  0  0  0  0  0  0  0  0  0  0
  149.0265  142.3337  154.9225 H   0  0  0  0  0  0  0  0  0  0  0  0
  149.3203  140.0815  153.5482 H   0  0  0  0  0  0  0  0  0  0  0  0
  150.7377  140.2518  156.3695 H   0  0  0  0  0  0  0  0  0  0  0  0
  151.4644  141.6255  155.5709 H   0  0  0  0  0  0  0  0  0  0  0  0
  148.4250  141.3099  157.8650 H   0  0  0  0  0  0  0  0  0  0  0  0
  150.4177  144.9651  160.5410 H   0  0  0  0  0  0  0  0  0  0  0  0
  152.5977  145.9631  159.8933 H   0  0  0  0  0  0  0  0  0  0  0  0
  153.8134  145.1396  157.8889 H   0  0  0  0  0  0  0  0  0  0  0  0
  152.8482  143.2993  156.5114 H   0  0  0  0  0  0  0  0  0  0  0  0
  147.3926  141.6838  153.3674 H   0  0  0  0  0  0  0  0  0  0  0  0
  146.3137  143.5252  152.1762 H   0  0  0  0  0  0  0  0  0  0  0  0
  1  2  1  0  0  0  0
  1 23  1  0  0  0  0
  1 24  1  0  0  0  0
  1 25  1  0  0  0  0
  2  3  1  0  0  0  0
  3 22  1  0  0  0  0
  3  4  2  0  0  0  0
  4  5  1  0  0  0  0
  4 26  1  0  0  0  0
  5  6  2  0  0  0  0
  5 27  1  0  0  0  0
  6  7  1  0  0  0  0
  6 21  1  0  0  0  0
  7  8  1  0  0  0  0
  8  9  1  0  0  0  0
  8 28  1  0  0  0  0
  8 29  1  0  0  0  0
  9 10  1  0  0  0  0
  9 11  1  0  0  0  0
  9 30  1  0  0  0  0
 10 31  1  0  0  0  0
 11 12  1  0  0  0  0
 11 32  1  0  0  0  0
 11 33  1  0  0  0  0
 12 20  1  0  0  0  0
 12 13  1  0  0  0  0
 13 14  2  0  0  0  0
 13 34  1  0  0  0  0
 14 15  1  0  0  0  0
 15 20  2  0  0  0  0
 15 16  1  0  0  0  0
 16 17  2  0  0  0  0
 16 35  1  0  0  0  0
 17 18  1  0  0  0  0
 17 36  1  0  0  0  0
 18 19  2  0  0  0  0
 18 37  1  0  0  0  0
 19 20  1  0  0  0  0
 19 38  1  0  0  0  0
 21 22  2  0  0  0  0
 21 39  1  0  0  0  0
 22 40  1  0  0  0  0
M  END
> <s_m_source_file>
AV-unprocessed.smi

> <i_m_source_file_index>
2126

> <i_lp_mmshare_version>
43012

> <i_f3d_flags>
0

> <s_epik_input>
W0NIM11PYzFbY0hdW2NIXWMoW2NIXVtjSF0xKU9bQ0gyXVtDQEhdKFtPSF0pW0NIMl1uKFtjSF1uMiljKGMyMylbY0hdW2NIXVtjSF1bY0hdMw==

> <s_epik_cmdline>
J2VwaWtfcHl0aG9uJywgJy1waCcsICc3LjAnLCAnLXRuJywgJzgnLCAnLW1hJywgJzIwMCcsICctbWV0YWxfYmluZGluZycsICctaW1hZScsICc8aW5maWxlLm1hZT4nLCAnLW9tYWUnLCAnPG91dGZpbGUubWFlPic=

> <r_lp_tautomer_probability>
1

> <r_epik_Ionization_Penalty>
0.0608933

> <r_epik_Ionization_Penalty_Charging>
0

> <r_epik_Ionization_Penalty_Neutral>
0.0608933

> <r_epik_State_Penalty>
0.0528196

> <r_epik_Charging_Adjusted_Penalty>
0.0528196

> <i_epik_Tot_Q>
0

> <i_epik_Tot_abs_Q>
0

> <r_epik_Metal_State_Penalty>
5.52429e-05

> <b_epik_Metal_Only>
0

> <s_lp_Force_Field>
OPLS_2005

> <r_lp_Energy>
18.1491

> <b_lp_Chiralities_Consistent>
1

> <s_lp_Variant>
AV-unprocessed.smi:2126-1

> <Gold.Version>
5.8.1

> <Gold.Id.Protein>
6NUR|6NUR_protein|mol2

> <Gold.PLP.Fitness>
51.5107

> <Gold.PLP.PLP>
-48.9689

> <Gold.PLP.part.hbond>
-3.7559

> <Gold.PLP.part.metal>
0.0000

> <Gold.PLP.part.buried>
-8.2265

> <Gold.PLP.part.nonpolar>
-37.2348

> <Gold.PLP.part.repulsive>
0.2647

> <Gold.PLP.ligand.clash>
0.0000

> <Gold.PLP.ligand.torsion>
0.8693

> <Gold.PLP.Chemscore.Hbond>
1.3406

> <Gold.PLP.Chemscore.CHOScore>
0.0000

> <Gold.PLP.Chemscore.Metal>
0.0000

> <Gold.Chemscore.Hbonds>
donor molecule, donor type, donor heavy atom, donor atom, acceptor molecule, acceptor atom, score
      P1  H  7989  7998       L1    10  0.43
      P1  H  8011  8017       L1    10  0.76

> <Gold.PLP.Chemscore.Internal.Correction>
0.2586

> <Gold.Rescore>
     Score         DG    S(hbond)    S(metal)    S(lipo)     H(rot)  DE(clash)    DE(int)     intcor
     14.22     -18.01       1.15        0.00     129.11       2.51       1.52       2.27       ----

> <Gold.Chemscore.Fitness>
14.2158

> <Gold.Chemscore.DG>
-18.0051

> <Gold.Chemscore.ZeroCoef>
-5.4800

> <Gold.Chemscore.Hbond>
1.1500

> <Gold.Chemscore.Metal>
0.0000

> <Gold.Chemscore.Lipo>
129.1057

> <Gold.Chemscore.Internal_Hbond>
0.0000

> <Gold.Chemscore.DEClash>
1.5184

> <Gold.Chemscore.DEInternal>
2.2708

> <Gold.Chemscore.Rot>
2.5083

> <Gold.Chemscore.Internal.Correction>
   9.000000E+99

> <Gold.Chemscore.Hbonds>
donor molecule, donor type, donor heavy atom, donor atom, acceptor molecule, acceptor atom, score
      L1  H    10    31       P1  7957  0.01
      P1  H  7989  7998       L1    10  0.40
      P1  H  8011  8017       L1    10  0.54

> <Gold.Chemscore.Hbond.Weighted>
-3.8409

> <Gold.Chemscore.Metal.Weighted>
-0.0000

> <Gold.Chemscore.Lipo.Weighted>
-15.1054

> <Gold.Chemscore.Internal_Hbond.Weighted>
0.0000

> <Gold.Chemscore.DEClash.Weighted>
1.5184

> <Gold.Chemscore.DEInternal.Weighted>
2.2708

> <Gold.Chemscore.Rot.Weighted>
6.4212

> <Gold.Chemscore.Internal.Correction.Weighted>
   9.000000E+99

> <Gold.Protein.RotatedTorsions>
[ 6907 6896 6895 6894 ] final -154.19 input  -60.11 | X-H torsion
[ 7974 7965 7964 7962 ] final  111.95 input  175.53 | X-H torsion
[ 8008 7997 7996 7995 ] final   90.12 input   59.86 | X-H torsion
[ 10167 10162 10161 10158 ] final  -93.10 input  -65.29 | X-H torsion
[ 10718 10713 10712 10709 ] final   79.78 input   66.30 | X-H torsion
[ 10763 10752 10751 10750 ] final  163.21 input  -60.55 | X-H torsion
[ 11005 11000 10999 10996 ] final   54.76 input  -57.11 | X-H torsion

> <Gold.Protein.ActiveResidues>
 VAL166  LYS551  ARG553  GLY616  TRP617  ASP618  TYR619  PRO620  LYS621  CYS622 
 ASP623  PHE694  ASN695  SER759  ASP760  ASP761  ALA762  ILE779  LEU786  VAL792 
 PHE793  MET794  SER795  GLU796  ALA797  LYS798  CYS799  TRP800  GLU811  SER814 

> <Gold.Protein.RotatedAtoms>
  151.2538  133.4337  159.2612 H   0  0  0  0  0  0  0  0  0  0  0  0  # atno 6907 bound_to 6896
  151.0593  134.9726  159.8262 H   0  0  0  0  0  0  0  0  0  0  0  0  # atno 6908 bound_to 6896
  152.5396  134.2488  159.8943 H   0  0  0  0  0  0  0  0  0  0  0  0  # atno 6909 bound_to 6896
  145.2357  139.2800  143.4144 H   0  0  0  0  0  0  0  0  0  0  0  0  # atno 7974 bound_to 7965
  156.0082  140.3353  155.6914 H   0  0  0  0  0  0  0  0  0  0  0  0  # atno 8008 bound_to 7997
  155.6195  140.0673  157.2700 H   0  0  0  0  0  0  0  0  0  0  0  0  # atno 8009 bound_to 7997
  154.4272  140.1779  156.1344 H   0  0  0  0  0  0  0  0  0  0  0  0  # atno 8010 bound_to 7997
  140.3281  143.3010  151.9972 H   0  0  0  0  0  0  0  0  0  0  0  0  # atno 10167 bound_to 10162
  157.6787  130.9930  150.1983 H   0  0  0  0  0  0  0  0  0  0  0  0  # atno 10718 bound_to 10713
  154.2903  135.2761  155.2658 H   0  0  0  0  0  0  0  0  0  0  0  0  # atno 10763 bound_to 10752
  154.5140  135.5775  153.6630 H   0  0  0  0  0  0  0  0  0  0  0  0  # atno 10764 bound_to 10752
  152.9915  135.6188  154.3067 H   0  0  0  0  0  0  0  0  0  0  0  0  # atno 10765 bound_to 10752
  140.0661  134.5535  155.9098 H   0  0  0  0  0  0  0  0  0  0  0  0  # atno 11005 bound_to 11000
  146.3341  140.2706  142.8605 LP  0  0  0  0  0  0  0  0  0  0  0  0  # atno 17320 bound_to 7965
  144.9635  140.8299  143.5499 LP  0  0  0  0  0  0  0  0  0  0  0  0  # atno 17321 bound_to 7965
  139.4861  144.6257  151.7168 LP  0  0  0  0  0  0  0  0  0  0  0  0  # atno 17342 bound_to 10162
  140.5422  144.0560  150.6093 LP  0  0  0  0  0  0  0  0  0  0  0  0  # atno 17343 bound_to 10162
  156.2679  130.3718  149.8062 LP  0  0  0  0  0  0  0  0  0  0  0  0  # atno 17370 bound_to 10713
  156.5788  130.8456  151.3377 LP  0  0  0  0  0  0  0  0  0  0  0  0  # atno 17371 bound_to 10713
  141.1993  133.6606  156.5837 LP  0  0  0  0  0  0  0  0  0  0  0  0  # atno 17394 bound_to 11000
  140.3697  134.7616  157.4590 LP  0  0  0  0  0  0  0  0  0  0  0  0  # atno 17395 bound_to 11000

$$$$
