AV-unprocessed.smi:1145|AV-procd|sdf|4882|dock1
  -GOLD-   22720 3453D 1   1.00000     0.00000
 Structure written by MMmdl.
 36 37  0  0  0  0  0  0  0  0  1 V2000
  144.8534  134.5289  153.3536 C   0  0  0  0  0  0  0  0  0  0  0  0
  145.1539  135.7660  152.4952 C   0  0  2  0  0  0  0  0  0  0  0  0
  145.5704  135.3825  151.0624 C   0  0  0  0  0  0  0  0  0  0  0  0
  145.3305  133.9778  150.7786 N   0  0  0  0  0  0  0  0  0  0  0  0
  144.1223  133.3240  150.6591 C   0  0  0  0  0  0  0  0  0  0  0  0
  144.3942  132.0156  150.3788 C   0  0  0  0  0  0  0  0  0  0  0  0
  145.8159  131.9657  150.3446 C   0  0  0  0  0  0  0  0  0  0  0  0
  146.3735  133.1415  150.5841 N   0  0  0  0  0  0  0  0  0  0  0  0
  146.2082  136.5570  153.1266 N   0  0  0  0  0  0  0  0  0  0  0  0
  146.0960  137.2285  154.2826 C   0  0  0  0  0  0  0  0  0  0  0  0
  145.0808  137.2127  154.9798 O   0  0  0  0  0  0  0  0  0  0  0  0
  147.3184  138.0500  154.7125 C   0  0  2  0  0  0  0  0  0  0  0  0
  147.6635  139.1239  153.6678 C   0  0  0  0  0  0  0  0  0  0  0  0
  148.8551  139.9779  154.1293 C   0  0  0  0  0  0  0  0  0  0  0  0
  150.0259  139.1468  154.6750 C   0  0  0  0  0  0  0  0  0  0  0  0
  151.1392  139.6588  154.7677 O   0  0  0  0  0  0  0  0  0  0  0  0
  149.7978  137.8832  155.0747 N   0  0  0  0  0  0  0  0  0  0  0  0
  148.5451  137.1401  154.9346 C   0  0  0  0  0  0  0  0  0  0  0  0
  144.0508  133.9345  152.9163 H   0  0  0  0  0  0  0  0  0  0  0  0
  144.5391  134.8149  154.3581 H   0  0  0  0  0  0  0  0  0  0  0  0
  145.7302  133.8875  153.4485 H   0  0  0  0  0  0  0  0  0  0  0  0
  144.2372  136.3548  152.4277 H   0  0  0  0  0  0  0  0  0  0  0  0
  145.0419  135.9940  150.3289 H   0  0  0  0  0  0  0  0  0  0  0  0
  146.6342  135.5741  150.9180 H   0  0  0  0  0  0  0  0  0  0  0  0
  143.1810  133.8399  150.7790 H   0  0  0  0  0  0  0  0  0  0  0  0
  143.6855  131.2159  150.2208 H   0  0  0  0  0  0  0  0  0  0  0  0
  146.4544  131.1155  150.1548 H   0  0  0  0  0  0  0  0  0  0  0  0
  147.0801  136.6312  152.6226 H   0  0  0  0  0  0  0  0  0  0  0  0
  147.0871  138.5541  155.6531 H   0  0  0  0  0  0  0  0  0  0  0  0
  147.9031  138.6576  152.7103 H   0  0  0  0  0  0  0  0  0  0  0  0
  146.8020  139.7688  153.4887 H   0  0  0  0  0  0  0  0  0  0  0  0
  149.2051  140.6049  153.3086 H   0  0  0  0  0  0  0  0  0  0  0  0
  148.5330  140.6533  154.9225 H   0  0  0  0  0  0  0  0  0  0  0  0
  150.5803  137.3726  155.4577 H   0  0  0  0  0  0  0  0  0  0  0  0
  148.4008  136.5285  155.8262 H   0  0  0  0  0  0  0  0  0  0  0  0
  148.6695  136.4489  154.0995 H   0  0  0  0  0  0  0  0  0  0  0  0
  1  2  1  0  0  0  0
  1 19  1  0  0  0  0
  1 20  1  0  0  0  0
  1 21  1  0  0  0  0
  2  3  1  0  0  0  0
  2  9  1  0  0  0  0
  2 22  1  0  0  0  0
  3  4  1  0  0  0  0
  3 23  1  0  0  0  0
  3 24  1  0  0  0  0
  4  8  1  0  0  0  0
  4  5  1  0  0  0  0
  5  6  2  0  0  0  0
  5 25  1  0  0  0  0
  6  7  1  0  0  0  0
  6 26  1  0  0  0  0
  7  8  2  0  0  0  0
  7 27  1  0  0  0  0
  9 10  1  0  0  0  0
  9 28  1  0  0  0  0
 10 11  2  0  0  0  0
 10 12  1  0  0  0  0
 12 18  1  0  0  0  0
 12 13  1  0  0  0  0
 12 29  1  0  0  0  0
 13 14  1  0  0  0  0
 13 30  1  0  0  0  0
 13 31  1  0  0  0  0
 14 15  1  0  0  0  0
 14 32  1  0  0  0  0
 14 33  1  0  0  0  0
 15 16  2  0  0  0  0
 15 17  1  0  0  0  0
 17 18  1  0  0  0  0
 17 34  1  0  0  0  0
 18 35  1  0  0  0  0
 18 36  1  0  0  0  0
M  END
> <s_m_source_file>
AV-unprocessed.smi

> <i_m_source_file_index>
1145

> <i_lp_mmshare_version>
43012

> <i_f3d_flags>
0

> <s_epik_input>
bjFbY0hdW2NIXVtjSF1uMVtDSDJdW0NAQEhdKFtDSDNdKVtOSF1DKD1PKVtDQEBIXTJbQ0gyXVtDSDJdQyg9TylbTkhdW0NIMl0y

> <s_epik_cmdline>
J2VwaWtfcHl0aG9uJywgJy1waCcsICc3LjAnLCAnLXRuJywgJzgnLCAnLW1hJywgJzIwMCcsICctbWV0YWxfYmluZGluZycsICctaW1hZScsICc8aW5maWxlLm1hZT4nLCAnLW9tYWUnLCAnPG91dGZpbGUubWFlPic=

> <r_lp_tautomer_probability>
1

> <r_epik_Ionization_Penalty>
0.000314064

> <r_epik_Ionization_Penalty_Charging>
0

> <r_epik_Ionization_Penalty_Neutral>
0.000314064

> <r_epik_State_Penalty>
-0

> <r_epik_Charging_Adjusted_Penalty>
0

> <i_epik_Tot_Q>
0

> <i_epik_Tot_abs_Q>
0

> <r_epik_Metal_State_Penalty>
-0

> <b_epik_Metal_Only>
0

> <s_lp_Force_Field>
OPLS_2005

> <r_lp_Energy>
12.6815

> <b_lp_Chiralities_Consistent>
1

> <s_lp_Variant>
AV-unprocessed.smi:1145-1

> <Gold.Version>
5.8.1

> <Gold.Id.Protein>
6NUR|6NUR_protein|mol2

> <Gold.PLP.Fitness>
36.3373

> <Gold.PLP.PLP>
-25.9359

> <Gold.PLP.part.hbond>
-2.0000

> <Gold.PLP.part.metal>
0.0000

> <Gold.PLP.part.buried>
-2.7841

> <Gold.PLP.part.nonpolar>
-21.5547

> <Gold.PLP.part.repulsive>
0.3308

> <Gold.PLP.ligand.clash>
0.0000

> <Gold.PLP.ligand.torsion>
0.8191

> <Gold.PLP.Chemscore.Hbond>
2.0000

> <Gold.PLP.Chemscore.CHOScore>
2.0000

> <Gold.PLP.Chemscore.Metal>
0.0000

> <Gold.Chemscore.Hbonds>
donor molecule, donor type, donor heavy atom, donor atom, acceptor molecule, acceptor atom, score
      L1  H     9    28       P1  7948  0.94
      P1  H  7989  7998       L1    16  1.00
      L1  C     5    25       P1 10186  0.93
      L1  C     7    27       P1 10747  1.00

> <Gold.PLP.Chemscore.Internal.Correction>
0.0396

> <Gold.Rescore>
     Score         DG    S(hbond)    S(metal)    S(lipo)     H(rot)  DE(clash)    DE(int)     intcor
     13.64     -14.57       1.96        0.00      61.05       1.80       0.14       0.78       ----

> <Gold.Chemscore.Fitness>
13.6429

> <Gold.Chemscore.DG>
-14.5684

> <Gold.Chemscore.ZeroCoef>
-5.4800

> <Gold.Chemscore.Hbond>
1.9606

> <Gold.Chemscore.Metal>
0.0000

> <Gold.Chemscore.Lipo>
61.0540

> <Gold.Chemscore.Internal_Hbond>
0.0000

> <Gold.Chemscore.DEClash>
0.1420

> <Gold.Chemscore.DEInternal>
0.7834

> <Gold.Chemscore.Rot>
1.7982

> <Gold.Chemscore.Internal.Correction>
   9.000000E+99

> <Gold.Chemscore.Hbonds>
donor molecule, donor type, donor heavy atom, donor atom, acceptor molecule, acceptor atom, score
      L1  H     9    28       P1  7948  0.90
      P1  H  7989  7998       L1    16  0.96

> <Gold.Chemscore.Hbond.Weighted>
-6.5485

> <Gold.Chemscore.Metal.Weighted>
-0.0000

> <Gold.Chemscore.Lipo.Weighted>
-7.1433

> <Gold.Chemscore.Internal_Hbond.Weighted>
0.0000

> <Gold.Chemscore.DEClash.Weighted>
0.1420

> <Gold.Chemscore.DEInternal.Weighted>
0.7834

> <Gold.Chemscore.Rot.Weighted>
4.6035

> <Gold.Chemscore.Internal.Correction.Weighted>
   9.000000E+99

> <Gold.Protein.RotatedTorsions>
[ 6907 6896 6895 6894 ] final -124.19 input  -60.11 | X-H torsion
[ 7974 7965 7964 7962 ] final -125.56 input  175.53 | X-H torsion
[ 8008 7997 7996 7995 ] final  -39.92 input   59.86 | X-H torsion
[ 10167 10162 10161 10158 ] final   86.50 input  -65.29 | X-H torsion
[ 10718 10713 10712 10709 ] final   14.35 input   66.30 | X-H torsion
[ 10763 10752 10751 10750 ] final -152.37 input  -60.55 | X-H torsion
[ 11005 11000 10999 10996 ] final  -10.00 input  -57.11 | X-H torsion

> <Gold.Protein.ActiveResidues>
 VAL166  LYS551  ARG553  GLY616  TRP617  ASP618  TYR619  PRO620  LYS621  CYS622 
 ASP623  PHE694  ASN695  SER759  ASP760  ASP761  ALA762  ILE779  LEU786  VAL792 
 PHE793  MET794  SER795  GLU796  ALA797  LYS798  CYS799  TRP800  GLU811  SER814 

> <Gold.Protein.RotatedAtoms>
  150.8744  133.7459  159.2950 H   0  0  0  0  0  0  0  0  0  0  0  0  # atno 6907 bound_to 6896
  151.5061  135.1062  159.9851 H   0  0  0  0  0  0  0  0  0  0  0  0  # atno 6908 bound_to 6896
  152.4717  133.8001  159.7004 H   0  0  0  0  0  0  0  0  0  0  0  0  # atno 6909 bound_to 6896
  144.9963  140.7779  143.4523 H   0  0  0  0  0  0  0  0  0  0  0  0  # atno 7974 bound_to 7965
  154.4017  140.1539  156.2942 H   0  0  0  0  0  0  0  0  0  0  0  0  # atno 8008 bound_to 7997
  155.8758  140.3446  155.5831 H   0  0  0  0  0  0  0  0  0  0  0  0  # atno 8009 bound_to 7997
  155.7723  140.0832  157.2092 H   0  0  0  0  0  0  0  0  0  0  0  0  # atno 8010 bound_to 7997
  139.8869  144.6408  150.8781 H   0  0  0  0  0  0  0  0  0  0  0  0  # atno 10167 bound_to 10162
  157.0378  130.6219  149.5746 H   0  0  0  0  0  0  0  0  0  0  0  0  # atno 10718 bound_to 10713
  154.7998  135.3238  154.7578 H   0  0  0  0  0  0  0  0  0  0  0  0  # atno 10763 bound_to 10752
  153.8248  135.6884  153.4826 H   0  0  0  0  0  0  0  0  0  0  0  0  # atno 10764 bound_to 10752
  153.1709  135.4624  154.9843 H   0  0  0  0  0  0  0  0  0  0  0  0  # atno 10765 bound_to 10752
  140.7401  133.8677  155.8961 H   0  0  0  0  0  0  0  0  0  0  0  0  # atno 11005 bound_to 11000
  145.2215  139.2157  143.5090 LP  0  0  0  0  0  0  0  0  0  0  0  0  # atno 17320 bound_to 7965
  146.3442  140.2074  142.8589 LP  0  0  0  0  0  0  0  0  0  0  0  0  # atno 17321 bound_to 7965
  140.7734  143.3541  151.1956 LP  0  0  0  0  0  0  0  0  0  0  0  0  # atno 17342 bound_to 10162
  139.7145  143.9323  152.2961 LP  0  0  0  0  0  0  0  0  0  0  0  0  # atno 17343 bound_to 10162
  156.0048  130.5133  150.7791 LP  0  0  0  0  0  0  0  0  0  0  0  0  # atno 17370 bound_to 10713
  157.5128  131.0926  151.0177 LP  0  0  0  0  0  0  0  0  0  0  0  0  # atno 17371 bound_to 10713
  140.9844  134.1362  157.4465 LP  0  0  0  0  0  0  0  0  0  0  0  0  # atno 17394 bound_to 11000
  139.8808  135.0021  156.6105 LP  0  0  0  0  0  0  0  0  0  0  0  0  # atno 17395 bound_to 11000

$$$$
