AV-unprocessed.smi:3354|AV-procd|sdf|12961|dock4
  -GOLD-   2272019403D 1   1.00000     0.00000
 Structure written by MMmdl.
 38 40  0  0  0  0  0  0  0  0  1 V2000
  146.1748  131.5367  152.0808 C   0  0  0  0  0  0  0  0  0  0  0  0
  144.9560  131.3799  151.1925 C   0  0  2  0  0  0  0  0  0  0  0  0
  144.9587  131.9132  149.7787 C   0  0  0  0  0  0  0  0  0  0  0  0
  144.0651  132.5505  150.8245 C   0  0  2  0  0  0  0  0  0  0  0  0
  144.3579  133.8576  151.3366 N   0  0  0  0  0  0  0  0  0  0  0  0
  145.4655  134.6574  150.8313 C   0  0  0  0  0  0  0  0  0  0  0  0
  145.1884  136.0938  151.3089 C   0  0  2  0  0  0  0  0  0  0  0  0
  146.3966  136.7130  151.8470 N   0  0  0  0  0  0  0  0  0  0  0  0
  146.4390  137.9106  152.4467 C   0  0  0  0  0  0  0  0  0  0  0  0
  145.4480  138.6226  152.6077 O   0  0  0  0  0  0  0  0  0  0  0  0
  147.6837  138.2055  152.8587 N   0  0  0  0  0  0  0  0  0  0  0  0
  148.1383  139.3754  153.5248 C   0  0  0  0  0  0  0  0  0  0  0  0
  147.3861  140.5698  153.6378 C   0  0  0  0  0  0  0  0  0  0  0  0
  147.9551  141.6704  154.3070 C   0  0  0  0  0  0  0  0  0  0  0  0
  149.2556  141.5399  154.8317 C   0  0  0  0  0  0  0  0  0  0  0  0
  149.9890  140.4124  154.7198 N   0  0  0  0  0  0  0  0  0  0  0  0
  149.4373  139.3616  154.0758 C   0  0  0  0  0  0  0  0  0  0  0  0
  144.0740  135.9657  152.3591 C   0  0  0  0  0  0  0  0  0  0  0  0
  143.5612  134.5507  152.1578 C   0  0  0  0  0  0  0  0  0  0  0  0
  142.5308  134.1359  152.6865 O   0  0  0  0  0  0  0  0  0  0  0  0
  146.7205  132.4502  151.8458 H   0  0  0  0  0  0  0  0  0  0  0  0
  146.8476  130.6903  151.9425 H   0  0  0  0  0  0  0  0  0  0  0  0
  145.8713  131.5718  153.1272 H   0  0  0  0  0  0  0  0  0  0  0  0
  144.4378  130.4351  151.3438 H   0  0  0  0  0  0  0  0  0  0  0  0
  145.8503  132.4418  149.4487 H   0  0  0  0  0  0  0  0  0  0  0  0
  144.4782  131.3040  149.0158 H   0  0  0  0  0  0  0  0  0  0  0  0
  143.0050  132.3224  150.7249 H   0  0  0  0  0  0  0  0  0  0  0  0
  146.3996  134.2692  151.2402 H   0  0  0  0  0  0  0  0  0  0  0  0
  145.5262  134.6073  149.7433 H   0  0  0  0  0  0  0  0  0  0  0  0
  144.8199  136.6793  150.4641 H   0  0  0  0  0  0  0  0  0  0  0  0
  147.2559  136.1903  151.7603 H   0  0  0  0  0  0  0  0  0  0  0  0
  148.3769  137.4822  152.7334 H   0  0  0  0  0  0  0  0  0  0  0  0
  146.3982  140.6690  153.2157 H   0  0  0  0  0  0  0  0  0  0  0  0
  147.4084  142.5960  154.4114 H   0  0  0  0  0  0  0  0  0  0  0  0
  149.7211  142.3654  155.3497 H   0  0  0  0  0  0  0  0  0  0  0  0
  150.0539  138.4773  154.0032 H   0  0  0  0  0  0  0  0  0  0  0  0
  144.4507  136.0637  153.3781 H   0  0  0  0  0  0  0  0  0  0  0  0
  143.2835  136.7017  152.2087 H   0  0  0  0  0  0  0  0  0  0  0  0
  1  2  1  0  0  0  0
  1 21  1  0  0  0  0
  1 22  1  0  0  0  0
  1 23  1  0  0  0  0
  2  4  1  0  0  0  0
  2  3  1  0  0  0  0
  2 24  1  0  0  0  0
  3  4  1  0  0  0  0
  3 25  1  0  0  0  0
  3 26  1  0  0  0  0
  4  5  1  0  0  0  0
  4 27  1  0  0  0  0
  5 19  1  0  0  0  0
  5  6  1  0  0  0  0
  6  7  1  0  0  0  0
  6 28  1  0  0  0  0
  6 29  1  0  0  0  0
  7  8  1  0  0  0  0
  7 18  1  0  0  0  0
  7 30  1  0  0  0  0
  8  9  1  0  0  0  0
  8 31  1  0  0  0  0
  9 10  2  0  0  0  0
  9 11  1  0  0  0  0
 11 12  1  0  0  0  0
 11 32  1  0  0  0  0
 12 17  1  0  0  0  0
 12 13  2  0  0  0  0
 13 14  1  0  0  0  0
 13 33  1  0  0  0  0
 14 15  2  0  0  0  0
 14 34  1  0  0  0  0
 15 16  1  0  0  0  0
 15 35  1  0  0  0  0
 16 17  2  0  0  0  0
 17 36  1  0  0  0  0
 18 19  1  0  0  0  0
 18 37  1  0  0  0  0
 18 38  1  0  0  0  0
 19 20  2  0  0  0  0
M  END
> <s_m_source_file>
AV-unprocessed.smi

> <i_m_source_file_index>
3354

> <i_lp_mmshare_version>
43012

> <i_f3d_flags>
0

> <s_epik_input>
W0NIM11bQ0BASF0xW0NIMl1bQ0BIXTFOMltDSDJdW0NASF0oW0NIMl1DMj1PKVtOSF1DKD1PKVtOSF1jM1tjSF1bY0hdW2NIXW5bY0hdMw==

> <s_epik_cmdline>
J2VwaWtfcHl0aG9uJywgJy1waCcsICc3LjAnLCAnLXRuJywgJzgnLCAnLW1hJywgJzIwMCcsICctbWV0YWxfYmluZGluZycsICctaW1hZScsICc8aW5maWxlLm1hZT4nLCAnLW9tYWUnLCAnPG91dGZpbGUubWFlPic=

> <r_epik_Ionization_Penalty>
0.00456191

> <r_epik_Ionization_Penalty_Charging>
0

> <r_epik_Ionization_Penalty_Neutral>
0.00456191

> <r_epik_State_Penalty>
0.00327094

> <r_epik_Charging_Adjusted_Penalty>
0.00327094

> <i_epik_Tot_Q>
0

> <i_epik_Tot_abs_Q>
0

> <r_epik_Metal_State_Penalty>
-0

> <b_epik_Metal_Only>
0

> <s_lp_Force_Field>
OPLS_2005

> <r_lp_Energy>
41.6225

> <b_lp_Chiralities_Consistent>
1

> <s_lp_Variant>
AV-unprocessed.smi:3354-7

> <Gold.Version>
5.8.1

> <Gold.Id.Protein>
6NUR|6NUR_protein|mol2

> <Gold.PLP.Fitness>
46.5129

> <Gold.PLP.PLP>
-35.1770

> <Gold.PLP.part.hbond>
-3.8440

> <Gold.PLP.part.metal>
0.0000

> <Gold.PLP.part.buried>
0.5485

> <Gold.PLP.part.nonpolar>
-36.7555

> <Gold.PLP.part.repulsive>
4.5034

> <Gold.PLP.ligand.clash>
0.0000

> <Gold.PLP.ligand.torsion>
0.1832

> <Gold.PLP.Chemscore.Hbond>
2.8320

> <Gold.PLP.Chemscore.CHOScore>
1.0000

> <Gold.PLP.Chemscore.Metal>
0.0000

> <Gold.Chemscore.Hbonds>
donor molecule, donor type, donor heavy atom, donor atom, acceptor molecule, acceptor atom, score
      L1  H     8    31       P1  7948  0.94
      L1  H    11    32       P1  7948  0.98
      P1  H  7989  7998       L1    16  0.80
      L1  C    15    35       P1  8028  0.98

> <Gold.PLP.Chemscore.Internal.Correction>
0.2062

> <Gold.Rescore>
     Score         DG    S(hbond)    S(metal)    S(lipo)     H(rot)  DE(clash)    DE(int)     intcor
     14.30     -18.78       1.95        0.00      85.01       1.24       1.81       2.67       ----

> <Gold.Chemscore.Fitness>
14.3002

> <Gold.Chemscore.DG>
-18.7788

> <Gold.Chemscore.ZeroCoef>
-5.4800

> <Gold.Chemscore.Hbond>
1.9512

> <Gold.Chemscore.Metal>
0.0000

> <Gold.Chemscore.Lipo>
85.0101

> <Gold.Chemscore.Internal_Hbond>
0.0000

> <Gold.Chemscore.DEClash>
1.8088

> <Gold.Chemscore.DEInternal>
2.6698

> <Gold.Chemscore.Rot>
1.2361

> <Gold.Chemscore.Internal.Correction>
   9.000000E+99

> <Gold.Chemscore.Hbonds>
donor molecule, donor type, donor heavy atom, donor atom, acceptor molecule, acceptor atom, score
      L1  H     8    31       P1  7948  0.91
      L1  H    11    32       P1  7948  0.93
      P1  H  7989  7998       L1    16  0.14

> <Gold.Chemscore.Hbond.Weighted>
-6.5170

> <Gold.Chemscore.Metal.Weighted>
-0.0000

> <Gold.Chemscore.Lipo.Weighted>
-9.9462

> <Gold.Chemscore.Internal_Hbond.Weighted>
0.0000

> <Gold.Chemscore.DEClash.Weighted>
1.8088

> <Gold.Chemscore.DEInternal.Weighted>
2.6698

> <Gold.Chemscore.Rot.Weighted>
3.1643

> <Gold.Chemscore.Internal.Correction.Weighted>
   9.000000E+99

> <Gold.Protein.RotatedTorsions>
[ 6907 6896 6895 6894 ] final  106.88 input  -60.11 | X-H torsion
[ 7974 7965 7964 7962 ] final   34.08 input  175.53 | X-H torsion
[ 8008 7997 7996 7995 ] final   94.78 input   59.86 | X-H torsion
[ 10167 10162 10161 10158 ] final  126.79 input  -65.29 | X-H torsion
[ 10718 10713 10712 10709 ] final  -89.96 input   66.30 | X-H torsion
[ 10763 10752 10751 10750 ] final  -74.08 input  -60.55 | X-H torsion
[ 11005 11000 10999 10996 ] final -142.35 input  -57.11 | X-H torsion

> <Gold.Protein.ActiveResidues>
 VAL166  LYS551  ARG553  GLY616  TRP617  ASP618  TYR619  PRO620  LYS621  CYS622 
 ASP623  PHE694  ASN695  SER759  ASP760  ASP761  ALA762  ILE779  LEU786  VAL792 
 PHE793  MET794  SER795  GLU796  ALA797  LYS798  CYS799  TRP800  GLU811  SER814 

> <Gold.Protein.RotatedAtoms>
  152.5177  133.9317  159.7583 H   0  0  0  0  0  0  0  0  0  0  0  0  # atno 6907 bound_to 6896
  150.9666  133.6380  159.2752 H   0  0  0  0  0  0  0  0  0  0  0  0  # atno 6908 bound_to 6896
  151.3606  135.0909  159.9486 H   0  0  0  0  0  0  0  0  0  0  0  0  # atno 6909 bound_to 6896
  146.1377  139.6314  142.9184 H   0  0  0  0  0  0  0  0  0  0  0  0  # atno 7974 bound_to 7965
  156.0617  140.3295  155.7469 H   0  0  0  0  0  0  0  0  0  0  0  0  # atno 8008 bound_to 7997
  155.5445  140.0604  157.2880 H   0  0  0  0  0  0  0  0  0  0  0  0  # atno 8009 bound_to 7997
  154.4484  140.1905  156.0612 H   0  0  0  0  0  0  0  0  0  0  0  0  # atno 8010 bound_to 7997
  139.5612  144.6883  151.4038 H   0  0  0  0  0  0  0  0  0  0  0  0  # atno 10167 bound_to 10162
  155.9986  130.4891  150.5250 H   0  0  0  0  0  0  0  0  0  0  0  0  # atno 10718 bound_to 10713
  154.4682  135.5876  153.6303 H   0  0  0  0  0  0  0  0  0  0  0  0  # atno 10763 bound_to 10752
  152.9831  135.6060  154.3400 H   0  0  0  0  0  0  0  0  0  0  0  0  # atno 10764 bound_to 10752
  154.3279  135.2843  155.2465 H   0  0  0  0  0  0  0  0  0  0  0  0  # atno 10765 bound_to 10752
  140.8233  134.2604  157.4890 H   0  0  0  0  0  0  0  0  0  0  0  0  # atno 11005 bound_to 11000
  145.5118  141.0435  143.2483 LP  0  0  0  0  0  0  0  0  0  0  0  0  # atno 17320 bound_to 7965
  144.7758  139.6634  143.7175 LP  0  0  0  0  0  0  0  0  0  0  0  0  # atno 17321 bound_to 7965
  140.6892  143.7902  150.7230 LP  0  0  0  0  0  0  0  0  0  0  0  0  # atno 17342 bound_to 10162
  140.1379  143.4467  152.2212 LP  0  0  0  0  0  0  0  0  0  0  0  0  # atno 17343 bound_to 10162
  157.3206  131.0681  151.1934 LP  0  0  0  0  0  0  0  0  0  0  0  0  # atno 17370 bound_to 10713
  157.2849  130.6768  149.6084 LP  0  0  0  0  0  0  0  0  0  0  0  0  # atno 17371 bound_to 10713
  139.8707  134.9547  156.4184 LP  0  0  0  0  0  0  0  0  0  0  0  0  # atno 17394 bound_to 11000
  140.9075  133.7735  155.9753 LP  0  0  0  0  0  0  0  0  0  0  0  0  # atno 17395 bound_to 11000

$$$$
