AV-unprocessed.smi:1741|AV-procd|sdf|7019|dock9
  -GOLD-   22720 8233D 1   1.00000     0.00000
 Structure written by MMmdl.
 38 39  0  0  0  0  0  0  0  0  1 V2000
  150.7679  141.3661  157.8990 C   0  0  0  0  0  0  0  0  0  0  0  0
  151.2315  141.5006  156.4439 C   0  0  0  0  0  0  0  0  0  0  0  0
  151.3688  140.2066  155.8049 N   0  0  0  0  0  0  0  0  0  0  0  0
  150.3773  139.2949  155.5008 C   0  0  0  0  0  0  0  0  0  0  0  0
  151.0083  138.2458  154.9031 C   0  0  0  0  0  0  0  0  0  0  0  0
  150.3612  137.0807  154.4209 N   0  0  0  0  0  0  0  0  0  0  0  0
  150.2281  135.9042  155.0540 C   0  0  0  0  0  0  0  0  0  0  0  0
  150.6282  135.6653  156.1932 O   0  0  0  0  0  0  0  0  0  0  0  0
  149.5967  135.0083  154.2821 N   0  0  0  0  0  0  0  0  0  0  0  0
  149.3004  133.6243  154.6476 C   0  0  1  0  0  0  0  0  0  0  0  0
  148.4889  133.6041  155.9520 C   0  0  0  0  0  0  0  0  0  0  0  0
  148.5590  132.9257  153.4912 C   0  0  1  0  0  0  0  0  0  0  0  0
  148.0663  131.5126  153.8148 C   0  0  0  0  0  0  0  0  0  0  0  0
  146.9121  131.3598  152.8521 C   0  0  0  0  0  0  0  0  0  0  0  0
  146.3010  132.7565  152.8827 C   0  0  0  0  0  0  0  0  0  0  0  0
  147.3813  133.6502  153.1392 O   0  0  0  0  0  0  0  0  0  0  0  0
  152.3898  138.5880  154.8741 C   0  0  0  0  0  0  0  0  0  0  0  0
  152.5960  139.7764  155.4215 N   0  0  0  0  0  0  0  0  0  0  0  0
  150.6752  142.3454  158.3686 H   0  0  0  0  0  0  0  0  0  0  0  0
  151.4768  140.7806  158.4855 H   0  0  0  0  0  0  0  0  0  0  0  0
  149.7961  140.8750  157.9597 H   0  0  0  0  0  0  0  0  0  0  0  0
  150.5228  142.1028  155.8733 H   0  0  0  0  0  0  0  0  0  0  0  0
  152.1920  142.0150  156.3995 H   0  0  0  0  0  0  0  0  0  0  0  0
  149.3364  139.4710  155.7289 H   0  0  0  0  0  0  0  0  0  0  0  0
  149.9725  137.1448  153.4916 H   0  0  0  0  0  0  0  0  0  0  0  0
  149.3034  135.3020  153.3622 H   0  0  0  0  0  0  0  0  0  0  0  0
  150.2312  133.0806  154.8192 H   0  0  0  0  0  0  0  0  0  0  0  0
  148.2713  132.5824  156.2641 H   0  0  0  0  0  0  0  0  0  0  0  0
  147.5385  134.1262  155.8372 H   0  0  0  0  0  0  0  0  0  0  0  0
  149.0375  134.0837  156.7633 H   0  0  0  0  0  0  0  0  0  0  0  0
  149.1958  132.8826  152.6057 H   0  0  0  0  0  0  0  0  0  0  0  0
  148.8357  130.7516  153.6828 H   0  0  0  0  0  0  0  0  0  0  0  0
  147.7033  131.4568  154.8424 H   0  0  0  0  0  0  0  0  0  0  0  0
  147.2851  131.1327  151.8526 H   0  0  0  0  0  0  0  0  0  0  0  0
  146.2086  130.5791  153.1423 H   0  0  0  0  0  0  0  0  0  0  0  0
  145.7876  133.0063  151.9539 H   0  0  0  0  0  0  0  0  0  0  0  0
  145.5829  132.8396  153.6993 H   0  0  0  0  0  0  0  0  0  0  0  0
  153.2343  138.0385  154.4855 H   0  0  0  0  0  0  0  0  0  0  0  0
  1  2  1  0  0  0  0
  1 19  1  0  0  0  0
  1 20  1  0  0  0  0
  1 21  1  0  0  0  0
  2  3  1  0  0  0  0
  2 22  1  0  0  0  0
  2 23  1  0  0  0  0
  3 18  1  0  0  0  0
  3  4  1  0  0  0  0
  4  5  2  0  0  0  0
  4 24  1  0  0  0  0
  5  6  1  0  0  0  0
  5 17  1  0  0  0  0
  6  7  1  0  0  0  0
  6 25  1  0  0  0  0
  7  8  2  0  0  0  0
  7  9  1  0  0  0  0
  9 10  1  0  0  0  0
  9 26  1  0  0  0  0
 10 11  1  0  0  0  0
 10 12  1  0  0  0  0
 10 27  1  0  0  0  0
 11 28  1  0  0  0  0
 11 29  1  0  0  0  0
 11 30  1  0  0  0  0
 12 16  1  0  0  0  0
 12 13  1  0  0  0  0
 12 31  1  0  0  0  0
 13 14  1  0  0  0  0
 13 32  1  0  0  0  0
 13 33  1  0  0  0  0
 14 15  1  0  0  0  0
 14 34  1  0  0  0  0
 14 35  1  0  0  0  0
 15 16  1  0  0  0  0
 15 36  1  0  0  0  0
 15 37  1  0  0  0  0
 17 18  2  0  0  0  0
 17 38  1  0  0  0  0
M  END
> <s_m_source_file>
AV-unprocessed.smi

> <i_m_source_file_index>
1741

> <i_lp_mmshare_version>
43012

> <i_f3d_flags>
0

> <s_epik_input>
W0NIM11bQ0gyXW4xW2NIXWMoW2NIXW4xKVtOSF1DKD1PKVtOSF1bQ0BIXShbQ0gzXSlbQ0BASF0yW0NIMl1bQ0gyXVtDSDJdTzI=

> <s_epik_cmdline>
J2VwaWtfcHl0aG9uJywgJy1waCcsICc3LjAnLCAnLXRuJywgJzgnLCAnLW1hJywgJzIwMCcsICctbWV0YWxfYmluZGluZycsICctaW1hZScsICc8aW5maWxlLm1hZT4nLCAnLW9tYWUnLCAnPG91dGZpbGUubWFlPic=

> <r_lp_tautomer_probability>
1

> <r_epik_Ionization_Penalty>
0.000179292

> <r_epik_Ionization_Penalty_Charging>
0

> <r_epik_Ionization_Penalty_Neutral>
0.000179292

> <r_epik_State_Penalty>
-0

> <r_epik_Charging_Adjusted_Penalty>
0

> <i_epik_Tot_Q>
0

> <i_epik_Tot_abs_Q>
0

> <r_epik_Metal_State_Penalty>
-0

> <b_epik_Metal_Only>
0

> <s_lp_Force_Field>
OPLS_2005

> <r_lp_Energy>
21.0752

> <b_lp_Chiralities_Consistent>
1

> <s_lp_Variant>
AV-unprocessed.smi:1741-4

> <Gold.Version>
5.8.1

> <Gold.Id.Protein>
6NUR|6NUR_protein|mol2

> <Gold.PLP.Fitness>
38.3957

> <Gold.PLP.PLP>
-31.8721

> <Gold.PLP.part.hbond>
-4.8043

> <Gold.PLP.part.metal>
0.0000

> <Gold.PLP.part.buried>
-2.5197

> <Gold.PLP.part.nonpolar>
-24.7788

> <Gold.PLP.part.repulsive>
0.2845

> <Gold.PLP.ligand.clash>
0.0000

> <Gold.PLP.ligand.torsion>
0.8226

> <Gold.PLP.Chemscore.Hbond>
2.7183

> <Gold.PLP.Chemscore.CHOScore>
0.0000

> <Gold.PLP.Chemscore.Metal>
0.0000

> <Gold.Chemscore.Hbonds>
donor molecule, donor type, donor heavy atom, donor atom, acceptor molecule, acceptor atom, score
      L1  H     6    25       P1  7948  0.85
      L1  H     9    26       P1  7948  0.85
      P1  H  7997  8008       L1    18  1.00

> <Gold.PLP.Chemscore.Internal.Correction>
0.0140

> <Gold.Rescore>
     Score         DG    S(hbond)    S(metal)    S(lipo)     H(rot)  DE(clash)    DE(int)     intcor
     14.80     -16.80       2.36        0.00      59.67       1.38       0.26       1.74       ----

> <Gold.Chemscore.Fitness>
14.8021

> <Gold.Chemscore.DG>
-16.8034

> <Gold.Chemscore.ZeroCoef>
-5.4800

> <Gold.Chemscore.Hbond>
2.3568

> <Gold.Chemscore.Metal>
0.0000

> <Gold.Chemscore.Lipo>
59.6728

> <Gold.Chemscore.Internal_Hbond>
0.0000

> <Gold.Chemscore.DEClash>
0.2568

> <Gold.Chemscore.DEInternal>
1.7445

> <Gold.Chemscore.Rot>
1.3790

> <Gold.Chemscore.Internal.Correction>
   9.000000E+99

> <Gold.Chemscore.Hbonds>
donor molecule, donor type, donor heavy atom, donor atom, acceptor molecule, acceptor atom, score
      L1  H     6    25       P1  7948  0.28
      L1  H     9    26       P1  7948  0.15
      P1  H  7997  8008       L1    18  0.93

> <Gold.Chemscore.Hbond.Weighted>
-7.8718

> <Gold.Chemscore.Metal.Weighted>
-0.0000

> <Gold.Chemscore.Lipo.Weighted>
-6.9817

> <Gold.Chemscore.Internal_Hbond.Weighted>
0.0000

> <Gold.Chemscore.DEClash.Weighted>
0.2568

> <Gold.Chemscore.DEInternal.Weighted>
1.7445

> <Gold.Chemscore.Rot.Weighted>
3.5302

> <Gold.Chemscore.Internal.Correction.Weighted>
   9.000000E+99

> <Gold.Protein.RotatedTorsions>
[ 6907 6896 6895 6894 ] final   17.70 input  -60.11 | X-H torsion
[ 7974 7965 7964 7962 ] final  147.56 input  175.53 | X-H torsion
[ 8008 7997 7996 7995 ] final  -18.05 input   59.86 | X-H torsion
[ 10167 10162 10161 10158 ] final  147.54 input  -65.29 | X-H torsion
[ 10718 10713 10712 10709 ] final  170.58 input   66.30 | X-H torsion
[ 10763 10752 10751 10750 ] final  160.86 input  -60.55 | X-H torsion
[ 11005 11000 10999 10996 ] final   33.77 input  -57.11 | X-H torsion

> <Gold.Protein.ActiveResidues>
 VAL166  LYS551  ARG553  GLY616  TRP617  ASP618  TYR619  PRO620  LYS621  CYS622 
 ASP623  PHE694  ASN695  SER759  ASP760  ASP761  ALA762  ILE779  LEU786  VAL792 
 PHE793  MET794  SER795  GLU796  ALA797  LYS798  CYS799  TRP800  GLU811  SER814 

> <Gold.Protein.RotatedAtoms>
  151.8537  135.0549  160.0461 H   0  0  0  0  0  0  0  0  0  0  0  0  # atno 6907 bound_to 6896
  152.2717  133.5384  159.5451 H   0  0  0  0  0  0  0  0  0  0  0  0  # atno 6908 bound_to 6896
  150.7154  134.0605  159.3872 H   0  0  0  0  0  0  0  0  0  0  0  0  # atno 6909 bound_to 6896
  144.8582  139.6044  143.5943 H   0  0  0  0  0  0  0  0  0  0  0  0  # atno 7974 bound_to 7965
  154.4933  140.2126  155.9500 H   0  0  0  0  0  0  0  0  0  0  0  0  # atno 8008 bound_to 7997
  156.1336  140.3192  155.8355 H   0  0  0  0  0  0  0  0  0  0  0  0  # atno 8009 bound_to 7997
  155.4251  140.0499  157.3013 H   0  0  0  0  0  0  0  0  0  0  0  0  # atno 8010 bound_to 7997
  139.4888  144.5747  151.6987 H   0  0  0  0  0  0  0  0  0  0  0  0  # atno 10167 bound_to 10162
  157.0060  131.0190  151.2817 H   0  0  0  0  0  0  0  0  0  0  0  0  # atno 10718 bound_to 10713
  154.2539  135.2770  155.2805 H   0  0  0  0  0  0  0  0  0  0  0  0  # atno 10763 bound_to 10752
  154.5441  135.5694  153.6868 H   0  0  0  0  0  0  0  0  0  0  0  0  # atno 10764 bound_to 10752
  152.9975  135.6258  154.2687 H   0  0  0  0  0  0  0  0  0  0  0  0  # atno 10765 bound_to 10752
  140.2597  134.3206  155.7862 H   0  0  0  0  0  0  0  0  0  0  0  0  # atno 11005 bound_to 11000
  146.2839  139.6952  142.9209 LP  0  0  0  0  0  0  0  0  0  0  0  0  # atno 17320 bound_to 7965
  145.4365  141.0419  143.2881 LP  0  0  0  0  0  0  0  0  0  0  0  0  # atno 17321 bound_to 7965
  140.5342  144.0683  150.6064 LP  0  0  0  0  0  0  0  0  0  0  0  0  # atno 17342 bound_to 10162
  140.3683  143.2869  152.0307 LP  0  0  0  0  0  0  0  0  0  0  0  0  # atno 17343 bound_to 10162
  157.5355  130.8086  149.7967 LP  0  0  0  0  0  0  0  0  0  0  0  0  # atno 17370 bound_to 10713
  156.0153  130.3816  150.2130 LP  0  0  0  0  0  0  0  0  0  0  0  0  # atno 17371 bound_to 10713
  141.2192  133.7402  156.9167 LP  0  0  0  0  0  0  0  0  0  0  0  0  # atno 17394 bound_to 11000
  140.1477  134.9251  157.2551 LP  0  0  0  0  0  0  0  0  0  0  0  0  # atno 17395 bound_to 11000

$$$$
