AV-unprocessed.smi:2008|AV-procd|sdf|8143|dock4
  -GOLD-   2272010383D 1   1.00000     0.00000
 Structure written by MMmdl.
 46 47  0  0  0  0  0  0  0  0  2 V2000
  151.2296  142.5551  157.8798 C   0  0  0  0  0  0  0  0  0  0  0  0
  150.3745  142.4546  156.7460 O   0  0  0  0  0  0  0  0  0  0  0  0
  150.1700  141.2090  156.1886 C   0  0  0  0  0  0  0  0  0  0  0  0
  150.6055  140.0724  156.8969 C   0  0  0  0  0  0  0  0  0  0  0  0
  150.3992  138.8007  156.3302 C   0  0  0  0  0  0  0  0  0  0  0  0
  149.7656  138.6966  155.0748 C   0  0  0  0  0  0  0  0  0  0  0  0
  149.5822  137.3904  154.5400 N   0  0  0  0  0  0  0  0  0  0  0  0
  149.6515  136.1955  155.1531 C   0  0  0  0  0  0  0  0  0  0  0  0
  149.9305  136.0080  156.3364 O   0  0  0  0  0  0  0  0  0  0  0  0
  149.3780  135.1979  154.3001 N   0  0  0  0  0  0  0  0  0  0  0  0
  149.3466  133.7835  154.6547 C   0  0  0  0  0  0  0  0  0  0  0  0
  148.4077  132.9866  153.7269 C   0  0  0  0  0  0  0  0  0  0  0  0
  147.5057  133.8486  152.9153 N   0  3  2  0  0  0  0  0  0  0  0  0
  146.4991  134.5491  153.7586 C   0  0  0  0  0  0  0  0  0  0  0  0
  145.7215  135.6000  152.9506 C   0  0  0  0  0  0  0  0  0  0  0  0
  145.0576  134.9692  151.7220 C   0  0  0  0  0  0  0  0  0  0  0  0
  146.1115  134.2387  150.8786 C   0  0  0  0  0  0  0  0  0  0  0  0
  146.9069  133.2038  151.7036 C   0  0  2  0  0  0  0  0  0  0  0  0
  146.0719  131.9445  152.0204 C   0  0  0  0  0  0  0  0  0  0  0  0
  149.3650  139.9004  154.4425 C   0  0  0  0  0  0  0  0  0  0  0  0
  149.5597  141.1228  154.9813 N   0  0  0  0  0  0  0  0  0  0  0  0
  151.2839  143.5957  158.1994 H   0  0  0  0  0  0  0  0  0  0  0  0
  152.2437  142.2278  157.6459 H   0  0  0  0  0  0  0  0  0  0  0  0
  150.8495  141.9710  158.7192 H   0  0  0  0  0  0  0  0  0  0  0  0
  151.0902  140.1742  157.8568 H   0  0  0  0  0  0  0  0  0  0  0  0
  150.7271  137.9162  156.8569 H   0  0  0  0  0  0  0  0  0  0  0  0
  149.3531  137.3636  153.5573 H   0  0  0  0  0  0  0  0  0  0  0  0
  149.1587  135.4354  153.3433 H   0  0  0  0  0  0  0  0  0  0  0  0
  150.3561  133.3691  154.6298 H   0  0  0  0  0  0  0  0  0  0  0  0
  149.0090  133.7271  155.6889 H   0  0  0  0  0  0  0  0  0  0  0  0
  148.9796  132.3202  153.0808 H   0  0  0  0  0  0  0  0  0  0  0  0
  147.7843  132.3391  154.3448 H   0  0  0  0  0  0  0  0  0  0  0  0
  145.8134  133.8263  154.2020 H   0  0  0  0  0  0  0  0  0  0  0  0
  147.0004  135.0480  154.5889 H   0  0  0  0  0  0  0  0  0  0  0  0
  144.9669  136.0719  153.5809 H   0  0  0  0  0  0  0  0  0  0  0  0
  146.3996  136.3935  152.6339 H   0  0  0  0  0  0  0  0  0  0  0  0
  144.2774  134.2747  152.0350 H   0  0  0  0  0  0  0  0  0  0  0  0
  144.5660  135.7380  151.1248 H   0  0  0  0  0  0  0  0  0  0  0  0
  145.6377  133.7582  150.0218 H   0  0  0  0  0  0  0  0  0  0  0  0
  146.8040  134.9736  150.4652 H   0  0  0  0  0  0  0  0  0  0  0  0
  147.7251  132.8858  151.0587 H   0  0  0  0  0  0  0  0  0  0  0  0
  145.6438  131.5287  151.1078 H   0  0  0  0  0  0  0  0  0  0  0  0
  145.2454  132.1539  152.6989 H   0  0  0  0  0  0  0  0  0  0  0  0
  146.6785  131.1570  152.4664 H   0  0  0  0  0  0  0  0  0  0  0  0
  148.8765  139.9192  153.4824 H   0  0  0  0  0  0  0  0  0  0  0  0
  148.0991  134.5835  152.5572 H   0  0  0  0  0  0  0  0  0  0  0  0
  1  2  1  0  0  0  0
  1 22  1  0  0  0  0
  1 23  1  0  0  0  0
  1 24  1  0  0  0  0
  2  3  1  0  0  0  0
  3 21  1  0  0  0  0
  3  4  2  0  0  0  0
  4  5  1  0  0  0  0
  4 25  1  0  0  0  0
  5  6  2  0  0  0  0
  5 26  1  0  0  0  0
  6  7  1  0  0  0  0
  6 20  1  0  0  0  0
  7  8  1  0  0  0  0
  7 27  1  0  0  0  0
  8  9  2  0  0  0  0
  8 10  1  0  0  0  0
 10 11  1  0  0  0  0
 10 28  1  0  0  0  0
 11 12  1  0  0  0  0
 11 29  1  0  0  0  0
 11 30  1  0  0  0  0
 12 13  1  0  0  0  0
 12 31  1  0  0  0  0
 12 32  1  0  0  0  0
 13 18  1  0  0  0  0
 13 14  1  0  0  0  0
 13 46  1  0  0  0  0
 14 15  1  0  0  0  0
 14 33  1  0  0  0  0
 14 34  1  0  0  0  0
 15 16  1  0  0  0  0
 15 35  1  0  0  0  0
 15 36  1  0  0  0  0
 16 17  1  0  0  0  0
 16 37  1  0  0  0  0
 16 38  1  0  0  0  0
 17 18  1  0  0  0  0
 17 39  1  0  0  0  0
 17 40  1  0  0  0  0
 18 19  1  0  0  0  0
 18 41  1  0  0  0  0
 19 42  1  0  0  0  0
 19 43  1  0  0  0  0
 19 44  1  0  0  0  0
 20 21  2  0  0  0  0
 20 45  1  0  0  0  0
M  CHG  1  13   1
M  END
> <s_m_source_file>
AV-unprocessed.smi

> <i_m_source_file_index>
2008

> <i_lp_mmshare_version>
43012

> <i_f3d_flags>
0

> <s_epik_input>
W0NIM11PYzFbY0hdW2NIXWMoW2NIXW4xKVtOSF1DKD1PKVtOSF1bQ0gyXVtDSDJdTjJbQ0gyXVtDSDJdW0NIMl1bQ0gyXVtDQEhdMltDSDNd

> <s_epik_cmdline>
J2VwaWtfcHl0aG9uJywgJy1waCcsICc3LjAnLCAnLXRuJywgJzgnLCAnLW1hJywgJzIwMCcsICctbWV0YWxfYmluZGluZycsICctaW1hZScsICc8aW5maWxlLm1hZT4nLCAnLW9tYWUnLCAnPG91dGZpbGUubWFlPic=

> <r_lp_tautomer_probability>
1

> <r_epik_Ionization_Penalty>
0.00219526

> <r_epik_Ionization_Penalty_Charging>
0.00211816

> <r_epik_Ionization_Penalty_Neutral>
7.71003e-05

> <r_epik_State_Penalty>
0.00145254

> <r_epik_Charging_Adjusted_Penalty>
0.0035707

> <i_epik_Tot_Q>
1

> <i_epik_Tot_abs_Q>
1

> <r_epik_Metal_State_Penalty>
-0

> <b_epik_Metal_Only>
0

> <s_lp_Force_Field>
OPLS_2005

> <r_lp_Energy>
23.262

> <b_lp_Chiralities_Consistent>
1

> <s_lp_Variant>
AV-unprocessed.smi:2008-3

> <Gold.Version>
5.8.1

> <Gold.Id.Protein>
6NUR|6NUR_protein|mol2

> <Gold.PLP.Fitness>
44.4835

> <Gold.PLP.PLP>
-31.5374

> <Gold.PLP.part.hbond>
-4.0837

> <Gold.PLP.part.metal>
0.0000

> <Gold.PLP.part.buried>
-3.4313

> <Gold.PLP.part.nonpolar>
-24.2229

> <Gold.PLP.part.repulsive>
0.3165

> <Gold.PLP.ligand.clash>
0.2822

> <Gold.PLP.ligand.torsion>
0.7939

> <Gold.PLP.Chemscore.Hbond>
3.9198

> <Gold.PLP.Chemscore.CHOScore>
1.0000

> <Gold.PLP.Chemscore.Metal>
0.0000

> <Gold.Chemscore.Hbonds>
donor molecule, donor type, donor heavy atom, donor atom, acceptor molecule, acceptor atom, score
      L1  H     7    27       P1  7948  0.92
      L1  H    10    28       P1  7948  1.00
      L1  H    13    46       P1  7948  2.00
      L1  C    20    45       P1  7957  1.00

> <Gold.PLP.Chemscore.Internal.Correction>
0.0568

> <Gold.Rescore>
     Score         DG    S(hbond)    S(metal)    S(lipo)     H(rot)  DE(clash)    DE(int)     intcor
     14.49     -16.73       2.46        0.00      63.46       1.71       0.04       2.20       ----

> <Gold.Chemscore.Fitness>
14.4938

> <Gold.Chemscore.DG>
-16.7270

> <Gold.Chemscore.ZeroCoef>
-5.4800

> <Gold.Chemscore.Hbond>
2.4555

> <Gold.Chemscore.Metal>
0.0000

> <Gold.Chemscore.Lipo>
63.4629

> <Gold.Chemscore.Internal_Hbond>
0.0000

> <Gold.Chemscore.DEClash>
0.0354

> <Gold.Chemscore.DEInternal>
2.1978

> <Gold.Chemscore.Rot>
1.7107

> <Gold.Chemscore.Internal.Correction>
   9.000000E+99

> <Gold.Chemscore.Hbonds>
donor molecule, donor type, donor heavy atom, donor atom, acceptor molecule, acceptor atom, score
      L1  H     7    27       P1  7948  0.82
      L1  H    10    28       P1  7948  0.40
      L1  H    13    46       P1  7948  0.44

> <Gold.Chemscore.Hbond.Weighted>
-8.2013

> <Gold.Chemscore.Metal.Weighted>
-0.0000

> <Gold.Chemscore.Lipo.Weighted>
-7.4252

> <Gold.Chemscore.Internal_Hbond.Weighted>
0.0000

> <Gold.Chemscore.DEClash.Weighted>
0.0354

> <Gold.Chemscore.DEInternal.Weighted>
2.1978

> <Gold.Chemscore.Rot.Weighted>
4.3794

> <Gold.Chemscore.Internal.Correction.Weighted>
   9.000000E+99

> <Gold.Protein.RotatedTorsions>
[ 6907 6896 6895 6894 ] final   30.54 input  -60.11 | X-H torsion
[ 7974 7965 7964 7962 ] final   28.51 input  175.53 | X-H torsion
[ 8008 7997 7996 7995 ] final  168.21 input   59.86 | X-H torsion
[ 10167 10162 10161 10158 ] final  -99.95 input  -65.29 | X-H torsion
[ 10718 10713 10712 10709 ] final  -55.18 input   66.30 | X-H torsion
[ 10763 10752 10751 10750 ] final   78.27 input  -60.55 | X-H torsion
[ 11005 11000 10999 10996 ] final  -45.03 input  -57.11 | X-H torsion

> <Gold.Protein.ActiveResidues>
 VAL166  LYS551  ARG553  GLY616  TRP617  ASP618  TYR619  PRO620  LYS621  CYS622 
 ASP623  PHE694  ASN695  SER759  ASP760  ASP761  ALA762  ILE779  LEU786  VAL792 
 PHE793  MET794  SER795  GLU796  ALA797  LYS798  CYS799  TRP800  GLU811  SER814 

> <Gold.Protein.RotatedAtoms>
  152.0474  134.9674  160.0574 H   0  0  0  0  0  0  0  0  0  0  0  0  # atno 6907 bound_to 6896
  152.1089  133.4285  159.4630 H   0  0  0  0  0  0  0  0  0  0  0  0  # atno 6908 bound_to 6896
  150.6842  134.2591  159.4585 H   0  0  0  0  0  0  0  0  0  0  0  0  # atno 6909 bound_to 6896
  146.1724  139.7046  142.8958 H   0  0  0  0  0  0  0  0  0  0  0  0  # atno 7974 bound_to 7965
  156.1566  140.1596  156.8682 H   0  0  0  0  0  0  0  0  0  0  0  0  # atno 8008 bound_to 7997
  154.5121  140.0798  156.8046 H   0  0  0  0  0  0  0  0  0  0  0  0  # atno 8009 bound_to 7997
  155.3790  140.3404  155.4248 H   0  0  0  0  0  0  0  0  0  0  0  0  # atno 8010 bound_to 7997
  140.2571  143.3433  152.0661 H   0  0  0  0  0  0  0  0  0  0  0  0  # atno 10167 bound_to 10162
  156.1389  130.4155  150.0137 H   0  0  0  0  0  0  0  0  0  0  0  0  # atno 10718 bound_to 10713
  153.0861  135.4883  154.8600 H   0  0  0  0  0  0  0  0  0  0  0  0  # atno 10763 bound_to 10752
  154.7212  135.3040  154.9046 H   0  0  0  0  0  0  0  0  0  0  0  0  # atno 10764 bound_to 10752
  153.9709  135.6801  153.4800 H   0  0  0  0  0  0  0  0  0  0  0  0  # atno 10765 bound_to 10752
  141.0489  133.6750  156.2956 H   0  0  0  0  0  0  0  0  0  0  0  0  # atno 11005 bound_to 11000
  145.4303  141.0414  143.2914 LP  0  0  0  0  0  0  0  0  0  0  0  0  # atno 17320 bound_to 7965
  144.8184  139.5835  143.6998 LP  0  0  0  0  0  0  0  0  0  0  0  0  # atno 17321 bound_to 7965
  139.5028  144.6742  151.6168 LP  0  0  0  0  0  0  0  0  0  0  0  0  # atno 17342 bound_to 10162
  140.5995  143.9635  150.6377 LP  0  0  0  0  0  0  0  0  0  0  0  0  # atno 17343 bound_to 10162
  156.8028  130.9297  151.3645 LP  0  0  0  0  0  0  0  0  0  0  0  0  # atno 17370 bound_to 10713
  157.6558  130.8923  149.9725 LP  0  0  0  0  0  0  0  0  0  0  0  0  # atno 17371 bound_to 10713
  140.6093  134.5474  157.5531 LP  0  0  0  0  0  0  0  0  0  0  0  0  # atno 17394 bound_to 11000
  139.9334  134.7921  156.0868 LP  0  0  0  0  0  0  0  0  0  0  0  0  # atno 17395 bound_to 11000

$$$$
