AV-unprocessed.smi:1362|AV-procd|sdf|5558|dock6
  -GOLD-   22720 5153D 1   1.00000     0.00000
 Structure written by MMmdl.
 39 39  0  0  0  0  0  0  0  0  1 V2000
  150.3250  136.2467  154.8878 C   0  0  0  0  0  0  0  0  0  0  0  0
  150.2925  137.7401  155.1343 C   0  0  0  0  0  0  0  0  0  0  0  0
  149.4028  138.5337  154.6352 N   0  0  0  0  0  0  0  0  0  0  0  0
  149.4772  139.9014  154.9335 C   0  0  0  0  0  0  0  0  0  0  0  0
  148.3992  140.7696  154.3070 C   0  0  0  0  0  0  0  0  0  0  0  0
  150.4602  140.4069  155.7350 C   0  0  0  0  0  0  0  0  0  0  0  0
  150.5686  141.8930  156.0741 C   0  0  0  0  0  0  0  0  0  0  0  0
  150.5607  142.2400  157.5649 C   0  0  0  0  0  0  0  0  0  0  0  0
  149.6444  141.8538  158.2908 O   0  0  0  0  0  0  0  0  0  0  0  0
  151.6006  142.9631  158.0075 N   0  0  0  0  0  0  0  0  0  0  0  0
  151.8375  143.3561  159.3959 C   0  0  2  0  0  0  0  0  0  0  0  0
  151.9978  144.8867  159.4606 C   0  0  0  0  0  0  0  0  0  0  0  0
  153.0574  142.5845  159.9652 C   0  0  0  0  0  0  0  0  0  0  0  0
  153.0389  141.0933  159.5740 C   0  0  0  0  0  0  0  0  0  0  0  0
  153.1719  142.7112  161.4953 C   0  0  0  0  0  0  0  0  0  0  0  0
  151.4703  139.4913  156.3001 C   0  0  0  0  0  0  0  0  0  0  0  0
  152.3985  139.8390  157.0287 O   0  0  0  0  0  0  0  0  0  0  0  0
  151.3208  138.1917  155.9598 N   0  0  0  0  0  0  0  0  0  0  0  0
  151.9881  137.5253  156.3207 H   0  0  0  0  0  0  0  0  0  0  0  0
  150.4435  136.0454  153.8228 H   0  0  0  0  0  0  0  0  0  0  0  0
  149.3928  135.7907  155.2219 H   0  0  0  0  0  0  0  0  0  0  0  0
  151.1491  135.7683  155.4192 H   0  0  0  0  0  0  0  0  0  0  0  0
  147.7818  141.2286  155.0790 H   0  0  0  0  0  0  0  0  0  0  0  0
  147.7447  140.1838  153.6605 H   0  0  0  0  0  0  0  0  0  0  0  0
  148.8427  141.5593  153.7003 H   0  0  0  0  0  0  0  0  0  0  0  0
  151.4885  142.2773  155.6320 H   0  0  0  0  0  0  0  0  0  0  0  0
  149.7717  142.4583  155.5901 H   0  0  0  0  0  0  0  0  0  0  0  0
  152.3013  143.2389  157.3347 H   0  0  0  0  0  0  0  0  0  0  0  0
  150.9641  143.0810  159.9905 H   0  0  0  0  0  0  0  0  0  0  0  0
  152.0501  145.2443  160.4885 H   0  0  0  0  0  0  0  0  0  0  0  0
  151.1499  145.3917  158.9969 H   0  0  0  0  0  0  0  0  0  0  0  0
  152.9005  145.2141  158.9439 H   0  0  0  0  0  0  0  0  0  0  0  0
  153.9618  143.0182  159.5357 H   0  0  0  0  0  0  0  0  0  0  0  0
  152.1346  140.6017  159.9342 H   0  0  0  0  0  0  0  0  0  0  0  0
  153.8937  140.5659  159.9986 H   0  0  0  0  0  0  0  0  0  0  0  0
  153.0859  140.9528  158.4940 H   0  0  0  0  0  0  0  0  0  0  0  0
  152.2683  142.3559  161.9915 H   0  0  0  0  0  0  0  0  0  0  0  0
  153.3434  143.7414  161.8058 H   0  0  0  0  0  0  0  0  0  0  0  0
  154.0095  142.1258  161.8754 H   0  0  0  0  0  0  0  0  0  0  0  0
  1  2  1  0  0  0  0
  1 20  1  0  0  0  0
  1 21  1  0  0  0  0
  1 22  1  0  0  0  0
  2 18  1  0  0  0  0
  2  3  2  0  0  0  0
  3  4  1  0  0  0  0
  4  5  1  0  0  0  0
  4  6  2  0  0  0  0
  5 23  1  0  0  0  0
  5 24  1  0  0  0  0
  5 25  1  0  0  0  0
  6  7  1  0  0  0  0
  6 16  1  0  0  0  0
  7  8  1  0  0  0  0
  7 26  1  0  0  0  0
  7 27  1  0  0  0  0
  8  9  2  0  0  0  0
  8 10  1  0  0  0  0
 10 11  1  0  0  0  0
 10 28  1  0  0  0  0
 11 12  1  0  0  0  0
 11 13  1  0  0  0  0
 11 29  1  0  0  0  0
 12 30  1  0  0  0  0
 12 31  1  0  0  0  0
 12 32  1  0  0  0  0
 13 14  1  0  0  0  0
 13 15  1  0  0  0  0
 13 33  1  0  0  0  0
 14 34  1  0  0  0  0
 14 35  1  0  0  0  0
 14 36  1  0  0  0  0
 15 37  1  0  0  0  0
 15 38  1  0  0  0  0
 15 39  1  0  0  0  0
 16 17  2  0  0  0  0
 16 18  1  0  0  0  0
 18 19  1  0  0  0  0
M  END
> <s_m_source_file>
AV-unprocessed.smi

> <i_m_source_file_index>
1362

> <i_lp_mmshare_version>
43012

> <i_f3d_flags>
0

> <s_epik_input>
W0NIM11jMW5jKFtDSDNdKWMoYyg9TylbbkhdMSlbQ0gyXUMoPU8pW05IXVtDQEhdKFtDSDNdKVtDSF0oW0NIM10pW0NIM10=

> <s_epik_cmdline>
J2VwaWtfcHl0aG9uJywgJy1waCcsICc3LjAnLCAnLXRuJywgJzgnLCAnLW1hJywgJzIwMCcsICctbWV0YWxfYmluZGluZycsICctaW1hZScsICc8aW5maWxlLm1hZT4nLCAnLW9tYWUnLCAnPG91dGZpbGUubWFlPic=

> <r_lp_tautomer_probability>
0.839158

> <r_epik_Ionization_Penalty>
0.000388977

> <r_epik_Ionization_Penalty_Charging>
0.000356458

> <r_epik_Ionization_Penalty_Neutral>
3.25191e-05

> <r_epik_State_Penalty>
0.0469868

> <r_epik_Charging_Adjusted_Penalty>
0.0473433

> <i_epik_Tot_Q>
0

> <i_epik_Tot_abs_Q>
0

> <r_epik_Metal_State_Penalty>
0.223288

> <b_epik_Metal_Only>
0

> <s_lp_Force_Field>
OPLS_2005

> <r_lp_Energy>
7.29912

> <b_lp_Chiralities_Consistent>
1

> <s_lp_Variant>
AV-unprocessed.smi:1362-1

> <Gold.Version>
5.8.1

> <Gold.Id.Protein>
6NUR|6NUR_protein|mol2

> <Gold.PLP.Fitness>
41.3894

> <Gold.PLP.PLP>
-38.9090

> <Gold.PLP.part.hbond>
-1.0000

> <Gold.PLP.part.metal>
0.0000

> <Gold.PLP.part.buried>
-3.8569

> <Gold.PLP.part.nonpolar>
-33.3250

> <Gold.PLP.part.repulsive>
0.4042

> <Gold.PLP.ligand.clash>
0.0000

> <Gold.PLP.ligand.torsion>
0.2783

> <Gold.PLP.Chemscore.Hbond>
1.0000

> <Gold.PLP.Chemscore.CHOScore>
0.0000

> <Gold.PLP.Chemscore.Metal>
0.0000

> <Gold.Chemscore.Hbonds>
donor molecule, donor type, donor heavy atom, donor atom, acceptor molecule, acceptor atom, score
      P1  H  7997  8010       L1    17  1.00

> <Gold.PLP.Chemscore.Internal.Correction>
0.0369

> <Gold.Rescore>
     Score         DG    S(hbond)    S(metal)    S(lipo)     H(rot)  DE(clash)    DE(int)     intcor
     14.98     -15.17       1.00        0.00      91.32       1.69       0.02       0.17       ----

> <Gold.Chemscore.Fitness>
14.9805

> <Gold.Chemscore.DG>
-15.1702

> <Gold.Chemscore.ZeroCoef>
-5.4800

> <Gold.Chemscore.Hbond>
0.9988

> <Gold.Chemscore.Metal>
0.0000

> <Gold.Chemscore.Lipo>
91.3226

> <Gold.Chemscore.Internal_Hbond>
0.0000

> <Gold.Chemscore.DEClash>
0.0230

> <Gold.Chemscore.DEInternal>
0.1667

> <Gold.Chemscore.Rot>
1.6916

> <Gold.Chemscore.Internal.Correction>
   9.000000E+99

> <Gold.Chemscore.Hbonds>
donor molecule, donor type, donor heavy atom, donor atom, acceptor molecule, acceptor atom, score
      P1  H  7997  8010       L1    17  0.93

> <Gold.Chemscore.Hbond.Weighted>
-3.3360

> <Gold.Chemscore.Metal.Weighted>
-0.0000

> <Gold.Chemscore.Lipo.Weighted>
-10.6847

> <Gold.Chemscore.Internal_Hbond.Weighted>
0.0000

> <Gold.Chemscore.DEClash.Weighted>
0.0230

> <Gold.Chemscore.DEInternal.Weighted>
0.1667

> <Gold.Chemscore.Rot.Weighted>
4.3305

> <Gold.Chemscore.Internal.Correction.Weighted>
   9.000000E+99

> <Gold.Protein.RotatedTorsions>
[ 6907 6896 6895 6894 ] final  172.30 input  -60.11 | X-H torsion
[ 7974 7965 7964 7962 ] final   17.62 input  175.53 | X-H torsion
[ 8008 7997 7996 7995 ] final   62.41 input   59.86 | X-H torsion
[ 10167 10162 10161 10158 ] final   85.46 input  -65.29 | X-H torsion
[ 10718 10713 10712 10709 ] final -127.49 input   66.30 | X-H torsion
[ 10763 10752 10751 10750 ] final   -6.82 input  -60.55 | X-H torsion
[ 11005 11000 10999 10996 ] final   85.41 input  -57.11 | X-H torsion

> <Gold.Protein.ActiveResidues>
 VAL166  LYS551  ARG553  GLY616  TRP617  ASP618  TYR619  PRO620  LYS621  CYS622 
 ASP623  PHE694  ASN695  SER759  ASP760  ASP761  ALA762  ILE779  LEU786  VAL792 
 PHE793  MET794  SER795  GLU796  ALA797  LYS798  CYS799  TRP800  GLU811  SER814 

> <Gold.Protein.RotatedAtoms>
  151.7864  133.3355  159.3486 H   0  0  0  0  0  0  0  0  0  0  0  0  # atno 6907 bound_to 6896
  150.7407  134.5883  159.5983 H   0  0  0  0  0  0  0  0  0  0  0  0  # atno 6908 bound_to 6896
  152.3240  134.7345  160.0358 H   0  0  0  0  0  0  0  0  0  0  0  0  # atno 6909 bound_to 6896
  146.2212  139.8575  142.8611 H   0  0  0  0  0  0  0  0  0  0  0  0  # atno 7974 bound_to 7965
  155.6139  140.3495  155.4631 H   0  0  0  0  0  0  0  0  0  0  0  0  # atno 8008 bound_to 7997
  156.0133  140.1238  157.0456 H   0  0  0  0  0  0  0  0  0  0  0  0  # atno 8009 bound_to 7997
  154.4288  140.1077  156.5846 H   0  0  0  0  0  0  0  0  0  0  0  0  # atno 8010 bound_to 7997
  139.8975  144.6349  150.8673 H   0  0  0  0  0  0  0  0  0  0  0  0  # atno 10167 bound_to 10162
  156.1861  130.6764  151.0367 H   0  0  0  0  0  0  0  0  0  0  0  0  # atno 10718 bound_to 10713
  153.4176  135.7009  153.6316 H   0  0  0  0  0  0  0  0  0  0  0  0  # atno 10763 bound_to 10752
  153.4783  135.3699  155.2429 H   0  0  0  0  0  0  0  0  0  0  0  0  # atno 10764 bound_to 10752
  154.8720  135.4060  154.3539 H   0  0  0  0  0  0  0  0  0  0  0  0  # atno 10765 bound_to 10752
  139.8972  134.8285  156.2579 H   0  0  0  0  0  0  0  0  0  0  0  0  # atno 11005 bound_to 11000
  145.2738  141.0117  143.3756 LP  0  0  0  0  0  0  0  0  0  0  0  0  # atno 17320 bound_to 7965
  144.9203  139.4420  143.6544 LP  0  0  0  0  0  0  0  0  0  0  0  0  # atno 17321 bound_to 7965
  140.7714  143.3462  151.2106 LP  0  0  0  0  0  0  0  0  0  0  0  0  # atno 17342 bound_to 10162
  139.7055  143.9463  152.2924 LP  0  0  0  0  0  0  0  0  0  0  0  0  # atno 17343 bound_to 10162
  157.6900  131.0813  150.7135 LP  0  0  0  0  0  0  0  0  0  0  0  0  # atno 17370 bound_to 10713
  156.7192  130.4675  149.5527 LP  0  0  0  0  0  0  0  0  0  0  0  0  # atno 17371 bound_to 10713
  141.0182  133.7056  156.1223 LP  0  0  0  0  0  0  0  0  0  0  0  0  # atno 17394 bound_to 11000
  140.7272  134.4294  157.5569 LP  0  0  0  0  0  0  0  0  0  0  0  0  # atno 17395 bound_to 11000

$$$$
