AV-unprocessed.smi:2440|AV-procd|sdf|9618|dock1
  -GOLD-   2272013253D 1   1.00000     0.00000
 Structure written by MMmdl.
 53 55  0  0  0  0  0  0  0  0  3 V2000
  147.9164  132.9731  152.3234 C   0  0  0  0  0  0  0  0  0  0  0  0
  146.5521  132.9646  151.6556 C   0  0  0  0  0  0  0  0  0  0  0  0
  145.9754  131.7356  151.2668 C   0  0  0  0  0  0  0  0  0  0  0  0
  144.7650  131.7128  150.6701 N   0  3  0  0  0  0  0  0  0  0  0  0
  144.0571  132.8322  150.4126 C   0  0  0  0  0  0  0  0  0  0  0  0
  144.5764  134.0905  150.7754 C   0  0  0  0  0  0  0  0  0  0  0  0
  145.8379  134.1675  151.4198 C   0  0  0  0  0  0  0  0  0  0  0  0
  146.4373  135.4031  151.7956 N   0  0  0  0  0  0  0  0  0  0  0  0
  145.8474  136.4931  152.3160 C   0  0  0  0  0  0  0  0  0  0  0  0
  144.6501  136.5903  152.5840 O   0  0  0  0  0  0  0  0  0  0  0  0
  146.7395  137.4714  152.5308 N   0  0  0  0  0  0  0  0  0  0  0  0
  146.4442  138.7877  153.0920 C   0  0  2  0  0  0  0  0  0  0  0  0
  147.5125  139.8008  152.6413 C   0  0  0  0  0  0  0  0  0  0  0  0
  147.3210  141.1570  153.3476 C   0  0  0  0  0  0  0  0  0  0  0  0
  147.3557  141.0169  154.8321 N   0  3  2  0  0  0  0  0  0  0  0  0
  148.7049  140.7140  155.4248 C   0  0  0  0  0  0  0  0  0  0  0  0
  148.7132  140.9026  156.9663 C   0  0  0  0  0  0  0  0  0  0  0  0
  150.0965  140.6651  157.5922 C   0  0  0  0  0  0  0  0  0  0  0  0
  151.1592  141.5666  156.9578 C   0  0  0  0  0  0  0  0  0  0  0  0
  151.2026  141.3473  155.4430 C   0  0  0  0  0  0  0  0  0  0  0  0
  149.8270  141.5885  154.8015 C   0  0  0  0  0  0  0  0  0  0  0  0
  146.2514  140.1080  155.2569 C   0  0  0  0  0  0  0  0  0  0  0  0
  146.3857  138.7063  154.6291 C   0  0  0  0  0  0  0  0  0  0  0  0
  148.3137  131.9628  152.4259 H   0  0  0  0  0  0  0  0  0  0  0  0
  147.8498  133.4109  153.3198 H   0  0  0  0  0  0  0  0  0  0  0  0
  148.6266  133.5559  151.7360 H   0  0  0  0  0  0  0  0  0  0  0  0
  146.4438  130.7728  151.4120 H   0  0  0  0  0  0  0  0  0  0  0  0
  143.1055  132.6901  149.9214 H   0  0  0  0  0  0  0  0  0  0  0  0
  144.0027  134.9741  150.5406 H   0  0  0  0  0  0  0  0  0  0  0  0
  147.4436  135.4358  151.7208 H   0  0  0  0  0  0  0  0  0  0  0  0
  147.7025  137.2924  152.2857 H   0  0  0  0  0  0  0  0  0  0  0  0
  145.4765  139.1467  152.7363 H   0  0  0  0  0  0  0  0  0  0  0  0
  148.5120  139.4138  152.8426 H   0  0  0  0  0  0  0  0  0  0  0  0
  147.4542  139.9401  151.5609 H   0  0  0  0  0  0  0  0  0  0  0  0
  148.0321  141.8950  152.9830 H   0  0  0  0  0  0  0  0  0  0  0  0
  146.3471  141.5623  153.0693 H   0  0  0  0  0  0  0  0  0  0  0  0
  148.9498  139.6722  155.2180 H   0  0  0  0  0  0  0  0  0  0  0  0
  148.3709  141.9077  157.2162 H   0  0  0  0  0  0  0  0  0  0  0  0
  148.0294  140.2090  157.4521 H   0  0  0  0  0  0  0  0  0  0  0  0
  150.0531  140.8456  158.6668 H   0  0  0  0  0  0  0  0  0  0  0  0
  150.3808  139.6194  157.4667 H   0  0  0  0  0  0  0  0  0  0  0  0
  150.9376  142.6122  157.1756 H   0  0  0  0  0  0  0  0  0  0  0  0
  152.1364  141.3574  157.3940 H   0  0  0  0  0  0  0  0  0  0  0  0
  151.9421  142.0116  154.9948 H   0  0  0  0  0  0  0  0  0  0  0  0
  151.5329  140.3298  155.2295 H   0  0  0  0  0  0  0  0  0  0  0  0
  149.9407  141.3819  153.7386 H   0  0  0  0  0  0  0  0  0  0  0  0
  149.5655  142.6437  154.8917 H   0  0  0  0  0  0  0  0  0  0  0  0
  146.1584  140.0443  156.3385 H   0  0  0  0  0  0  0  0  0  0  0  0
  145.3083  140.5488  154.9301 H   0  0  0  0  0  0  0  0  0  0  0  0
  145.5396  138.0883  154.9323 H   0  0  0  0  0  0  0  0  0  0  0  0
  147.2756  138.2090  155.0165 H   0  0  0  0  0  0  0  0  0  0  0  0
  147.1132  141.9281  155.1948 H   0  0  0  0  0  0  0  0  0  0  0  0
  144.3709  130.8118  150.3976 H   0  0  0  0  0  0  0  0  0  0  0  0
  1  2  1  0  0  0  0
  1 24  1  0  0  0  0
  1 25  1  0  0  0  0
  1 26  1  0  0  0  0
  2  7  1  0  0  0  0
  2  3  2  0  0  0  0
  3  4  1  0  0  0  0
  3 27  1  0  0  0  0
  4  5  2  0  0  0  0
  4 53  1  0  0  0  0
  5  6  1  0  0  0  0
  5 28  1  0  0  0  0
  6  7  2  0  0  0  0
  6 29  1  0  0  0  0
  7  8  1  0  0  0  0
  8  9  1  0  0  0  0
  8 30  1  0  0  0  0
  9 10  2  0  0  0  0
  9 11  1  0  0  0  0
 11 12  1  0  0  0  0
 11 31  1  0  0  0  0
 12 23  1  0  0  0  0
 12 13  1  0  0  0  0
 12 32  1  0  0  0  0
 13 14  1  0  0  0  0
 13 33  1  0  0  0  0
 13 34  1  0  0  0  0
 14 15  1  0  0  0  0
 14 35  1  0  0  0  0
 14 36  1  0  0  0  0
 15 16  1  0  0  0  0
 15 22  1  0  0  0  0
 15 52  1  0  0  0  0
 16 21  1  0  0  0  0
 16 17  1  0  0  0  0
 16 37  1  0  0  0  0
 17 18  1  0  0  0  0
 17 38  1  0  0  0  0
 17 39  1  0  0  0  0
 18 19  1  0  0  0  0
 18 40  1  0  0  0  0
 18 41  1  0  0  0  0
 19 20  1  0  0  0  0
 19 42  1  0  0  0  0
 19 43  1  0  0  0  0
 20 21  1  0  0  0  0
 20 44  1  0  0  0  0
 20 45  1  0  0  0  0
 21 46  1  0  0  0  0
 21 47  1  0  0  0  0
 22 23  1  0  0  0  0
 22 48  1  0  0  0  0
 22 49  1  0  0  0  0
 23 50  1  0  0  0  0
 23 51  1  0  0  0  0
M  CHG  1   4   1
M  CHG  1  15   1
M  END
> <s_m_source_file>
AV-unprocessed.smi

> <i_m_source_file_index>
2440

> <i_lp_mmshare_version>
43012

> <i_f3d_flags>
0

> <s_epik_input>
W0NIM11jMVtjSF1uW2NIXVtjSF1jMVtOSF1DKD1PKVtOSF1bQ0hdMltDSDJdW0NIMl1OKFtDSDJdW0NIMl0yKVtDSF0zW0NIMl1bQ0gyXVtDSDJdW0NIMl1bQ0gyXTM=

> <s_epik_cmdline>
J2VwaWtfcHl0aG9uJywgJy1waCcsICc3LjAnLCAnLXRuJywgJzgnLCAnLW1hJywgJzIwMCcsICctbWV0YWxfYmluZGluZycsICctaW1hZScsICc8aW5maWxlLm1hZT4nLCAnLW9tYWUnLCAnPG91dGZpbGUubWFlPic=

> <r_epik_Ionization_Penalty>
0.799454

> <r_epik_Ionization_Penalty_Charging>
0.799436

> <r_epik_Ionization_Penalty_Neutral>
1.84398e-05

> <r_epik_State_Penalty>
0.81805

> <r_epik_Charging_Adjusted_Penalty>
1.61749

> <i_epik_Tot_Q>
2

> <i_epik_Tot_abs_Q>
2

> <r_epik_Metal_State_Penalty>
0.955144

> <b_epik_Metal_Only>
0

> <s_lp_Force_Field>
OPLS_2005

> <r_lp_Energy>
43.248

> <b_lp_Chiralities_Consistent>
1

> <s_lp_Variant>
AV-unprocessed.smi:2440-4

> <Gold.Version>
5.8.1

> <Gold.Id.Protein>
6NUR|6NUR_protein|mol2

> <Gold.PLP.Fitness>
39.8694

> <Gold.PLP.PLP>
-35.2962

> <Gold.PLP.part.hbond>
-2.0000

> <Gold.PLP.part.metal>
0.0000

> <Gold.PLP.part.buried>
-1.6133

> <Gold.PLP.part.nonpolar>
-31.6825

> <Gold.PLP.part.repulsive>
0.4079

> <Gold.PLP.ligand.clash>
0.0000

> <Gold.PLP.ligand.torsion>
0.7407

> <Gold.PLP.Chemscore.Hbond>
2.0000

> <Gold.PLP.Chemscore.CHOScore>
0.0000

> <Gold.PLP.Chemscore.Metal>
0.0000

> <Gold.Chemscore.Hbonds>
donor molecule, donor type, donor heavy atom, donor atom, acceptor molecule, acceptor atom, score
      L1  H     8    30       P1  7948  1.00
      L1  H    11    31       P1  7948  1.00

> <Gold.PLP.Chemscore.Internal.Correction>
0.0545

> <Gold.Rescore>
     Score         DG    S(hbond)    S(metal)    S(lipo)     H(rot)  DE(clash)    DE(int)     intcor
     17.41     -20.18       1.92        0.00      96.74       1.18       1.59       1.19       ----

> <Gold.Chemscore.Fitness>
17.4119

> <Gold.Chemscore.DG>
-20.1840

> <Gold.Chemscore.ZeroCoef>
-5.4800

> <Gold.Chemscore.Hbond>
1.9217

> <Gold.Chemscore.Metal>
0.0000

> <Gold.Chemscore.Lipo>
96.7371

> <Gold.Chemscore.Internal_Hbond>
0.0000

> <Gold.Chemscore.DEClash>
1.5850

> <Gold.Chemscore.DEInternal>
1.1871

> <Gold.Chemscore.Rot>
1.1846

> <Gold.Chemscore.Internal.Correction>
   9.000000E+99

> <Gold.Chemscore.Hbonds>
donor molecule, donor type, donor heavy atom, donor atom, acceptor molecule, acceptor atom, score
      L1  H     8    30       P1  7948  0.95
      L1  H    11    31       P1  7948  0.96

> <Gold.Chemscore.Hbond.Weighted>
-6.4183

> <Gold.Chemscore.Metal.Weighted>
-0.0000

> <Gold.Chemscore.Lipo.Weighted>
-11.3182

> <Gold.Chemscore.Internal_Hbond.Weighted>
0.0000

> <Gold.Chemscore.DEClash.Weighted>
1.5850

> <Gold.Chemscore.DEInternal.Weighted>
1.1871

> <Gold.Chemscore.Rot.Weighted>
3.0326

> <Gold.Chemscore.Internal.Correction.Weighted>
   9.000000E+99

> <Gold.Protein.RotatedTorsions>
[ 6907 6896 6895 6894 ] final  130.96 input  -60.11 | X-H torsion
[ 7974 7965 7964 7962 ] final  135.20 input  175.53 | X-H torsion
[ 8008 7997 7996 7995 ] final   83.81 input   59.86 | X-H torsion
[ 10167 10162 10161 10158 ] final  178.50 input  -65.29 | X-H torsion
[ 10718 10713 10712 10709 ] final  -56.91 input   66.30 | X-H torsion
[ 10763 10752 10751 10750 ] final   10.13 input  -60.55 | X-H torsion
[ 11005 11000 10999 10996 ] final  -83.57 input  -57.11 | X-H torsion

> <Gold.Protein.ActiveResidues>
 VAL166  LYS551  ARG553  GLY616  TRP617  ASP618  TYR619  PRO620  LYS621  CYS622 
 ASP623  PHE694  ASN695  SER759  ASP760  ASP761  ALA762  ILE779  LEU786  VAL792 
 PHE793  MET794  SER795  GLU796  ALA797  LYS798  CYS799  TRP800  GLU811  SER814 

> <Gold.Protein.RotatedAtoms>
  152.3474  133.6138  159.5919 H   0  0  0  0  0  0  0  0  0  0  0  0  # atno 6907 bound_to 6896
  150.7516  133.9628  159.3530 H   0  0  0  0  0  0  0  0  0  0  0  0  # atno 6908 bound_to 6896
  151.7484  135.0839  160.0378 H   0  0  0  0  0  0  0  0  0  0  0  0  # atno 6909 bound_to 6896
  144.9687  139.4629  143.5444 H   0  0  0  0  0  0  0  0  0  0  0  0  # atno 7974 bound_to 7965
  155.9288  140.3416  155.6232 H   0  0  0  0  0  0  0  0  0  0  0  0  # atno 8008 bound_to 7997
  155.7183  140.0780  157.2360 H   0  0  0  0  0  0  0  0  0  0  0  0  # atno 8009 bound_to 7997
  154.4081  140.1610  156.2361 H   0  0  0  0  0  0  0  0  0  0  0  0  # atno 8010 bound_to 7997
  139.5296  144.2672  152.0658 H   0  0  0  0  0  0  0  0  0  0  0  0  # atno 10167 bound_to 10162
  156.1252  130.4163  150.0369 H   0  0  0  0  0  0  0  0  0  0  0  0  # atno 10718 bound_to 10713
  153.2065  135.6863  153.8167 H   0  0  0  0  0  0  0  0  0  0  0  0  # atno 10763 bound_to 10752
  153.7414  135.3237  155.3306 H   0  0  0  0  0  0  0  0  0  0  0  0  # atno 10764 bound_to 10752
  154.8199  135.4659  154.0854 H   0  0  0  0  0  0  0  0  0  0  0  0  # atno 10765 bound_to 10752
  141.1657  133.7301  156.8740 H   0  0  0  0  0  0  0  0  0  0  0  0  # atno 11005 bound_to 11000
  146.3375  139.8885  142.8813 LP  0  0  0  0  0  0  0  0  0  0  0  0  # atno 17320 bound_to 7965
  145.2591  141.0071  143.3837 LP  0  0  0  0  0  0  0  0  0  0  0  0  # atno 17321 bound_to 7965
  140.2134  144.4540  150.6375 LP  0  0  0  0  0  0  0  0  0  0  0  0  # atno 17342 bound_to 10162
  140.6466  143.2215  151.6173 LP  0  0  0  0  0  0  0  0  0  0  0  0  # atno 17343 bound_to 10162
  156.8296  130.9387  151.3638 LP  0  0  0  0  0  0  0  0  0  0  0  0  # atno 17370 bound_to 10713
  157.6434  130.8824  149.9491 LP  0  0  0  0  0  0  0  0  0  0  0  0  # atno 17371 bound_to 10713
  140.1761  134.9066  157.2893 LP  0  0  0  0  0  0  0  0  0  0  0  0  # atno 17394 bound_to 11000
  140.2447  134.3754  155.7466 LP  0  0  0  0  0  0  0  0  0  0  0  0  # atno 17395 bound_to 11000

$$$$
