AV-unprocessed.smi:1467|AV-procd|sdf|5955|dock6
  -GOLD-   22720 6 43D 1   1.00000     0.00000
 Structure written by MMmdl.
 40 41  0  0  0  0  0  0  0  0  1 V2000
  153.4374  142.6636  162.4255 C   0  0  0  0  0  0  0  0  0  0  0  0
  152.6631  142.8369  161.1172 C   0  0  0  0  0  0  0  0  0  0  0  0
  151.6630  143.5547  161.1273 O   0  0  0  0  0  0  0  0  0  0  0  0
  153.0964  142.2012  160.0028 N   0  0  0  0  0  0  0  0  0  0  0  0
  152.4386  142.2148  158.6926 C   0  0  0  0  0  0  0  0  0  0  0  0
  151.9724  140.7859  158.3517 C   0  0  0  0  0  0  0  0  0  0  0  0
  153.1175  139.8664  158.3353 N   0  0  0  0  0  0  0  0  0  0  0  0
  152.6947  138.4992  158.0364 C   0  0  0  0  0  0  0  0  0  0  0  0
  152.2981  138.3200  156.5577 C   0  0  0  0  0  0  0  0  0  0  0  0
  150.8502  138.3549  156.3921 N   0  0  0  0  0  0  0  0  0  0  0  0
  150.1914  139.1971  155.5834 C   0  0  0  0  0  0  0  0  0  0  0  0
  150.7484  140.0424  154.8829 O   0  0  0  0  0  0  0  0  0  0  0  0
  148.8650  138.9958  155.6439 N   0  0  0  0  0  0  0  0  0  0  0  0
  147.8581  139.6994  154.9367 C   0  0  0  0  0  0  0  0  0  0  0  0
  147.9939  140.6990  153.9289 C   0  0  0  0  0  0  0  0  0  0  0  0
  146.8093  141.1190  153.5075 N   0  0  0  0  0  0  0  0  0  0  0  0
  145.9227  140.4012  154.2334 N   0  0  0  0  0  0  0  0  0  0  0  0
  146.5181  139.5254  155.1142 C   0  0  0  0  0  0  0  0  0  0  0  0
  153.7838  139.8822  159.6416 C   0  0  0  0  0  0  0  0  0  0  0  0
  154.2574  141.3074  159.9860 C   0  0  0  0  0  0  0  0  0  0  0  0
  144.9262  140.5189  154.1166 H   0  0  0  0  0  0  0  0  0  0  0  0
  154.4602  143.0260  162.3201 H   0  0  0  0  0  0  0  0  0  0  0  0
  153.4606  141.6155  162.7251 H   0  0  0  0  0  0  0  0  0  0  0  0
  152.9654  143.2290  163.2296 H   0  0  0  0  0  0  0  0  0  0  0  0
  151.5880  142.8924  158.6391 H   0  0  0  0  0  0  0  0  0  0  0  0
  153.1446  142.5696  157.9403 H   0  0  0  0  0  0  0  0  0  0  0  0
  151.2304  140.4495  159.0777 H   0  0  0  0  0  0  0  0  0  0  0  0
  151.4838  140.8014  157.3785 H   0  0  0  0  0  0  0  0  0  0  0  0
  153.5246  137.8219  158.2445 H   0  0  0  0  0  0  0  0  0  0  0  0
  151.8793  138.2054  158.6995 H   0  0  0  0  0  0  0  0  0  0  0  0
  152.7459  139.0841  155.9219 H   0  0  0  0  0  0  0  0  0  0  0  0
  152.6568  137.3583  156.1899 H   0  0  0  0  0  0  0  0  0  0  0  0
  150.3135  137.6915  156.9316 H   0  0  0  0  0  0  0  0  0  0  0  0
  148.5422  138.2650  156.2609 H   0  0  0  0  0  0  0  0  0  0  0  0
  148.8836  141.1290  153.4935 H   0  0  0  0  0  0  0  0  0  0  0  0
  145.9529  138.8773  155.7679 H   0  0  0  0  0  0  0  0  0  0  0  0
  153.1060  139.5142  160.4138 H   0  0  0  0  0  0  0  0  0  0  0  0
  154.6431  139.2108  159.6222 H   0  0  0  0  0  0  0  0  0  0  0  0
  154.9761  141.6588  159.2442 H   0  0  0  0  0  0  0  0  0  0  0  0
  154.7915  141.2927  160.9368 H   0  0  0  0  0  0  0  0  0  0  0  0
  1  2  1  0  0  0  0
  1 22  1  0  0  0  0
  1 23  1  0  0  0  0
  1 24  1  0  0  0  0
  2  3  2  0  0  0  0
  2  4  1  0  0  0  0
  4 20  1  0  0  0  0
  4  5  1  0  0  0  0
  5  6  1  0  0  0  0
  5 25  1  0  0  0  0
  5 26  1  0  0  0  0
  6  7  1  0  0  0  0
  6 27  1  0  0  0  0
  6 28  1  0  0  0  0
  7  8  1  0  0  0  0
  7 19  1  0  0  0  0
  8  9  1  0  0  0  0
  8 29  1  0  0  0  0
  8 30  1  0  0  0  0
  9 10  1  0  0  0  0
  9 31  1  0  0  0  0
  9 32  1  0  0  0  0
 10 11  1  0  0  0  0
 10 33  1  0  0  0  0
 11 12  2  0  0  0  0
 11 13  1  0  0  0  0
 13 14  1  0  0  0  0
 13 34  1  0  0  0  0
 14 18  2  0  0  0  0
 14 15  1  0  0  0  0
 15 16  2  0  0  0  0
 15 35  1  0  0  0  0
 16 17  1  0  0  0  0
 17 21  1  0  0  0  0
 17 18  1  0  0  0  0
 18 36  1  0  0  0  0
 19 20  1  0  0  0  0
 19 37  1  0  0  0  0
 19 38  1  0  0  0  0
 20 39  1  0  0  0  0
 20 40  1  0  0  0  0
M  END
> <s_m_source_file>
AV-unprocessed.smi

> <i_m_source_file_index>
1467

> <i_lp_mmshare_version>
43012

> <i_f3d_flags>
0

> <s_epik_input>
W0NIM11DKD1PKU4xW0NIMl1bQ0gyXU4oW0NIMl1bQ0gyXTEpW0NIMl1bQ0gyXVtOSF1DKD1PKVtOSF1jMltjSF1uW25IXVtjSF0y

> <s_epik_cmdline>
J2VwaWtfcHl0aG9uJywgJy1waCcsICc3LjAnLCAnLXRuJywgJzgnLCAnLW1hJywgJzIwMCcsICctbWV0YWxfYmluZGluZycsICctaW1hZScsICc8aW5maWxlLm1hZT4nLCAnLW9tYWUnLCAnPG91dGZpbGUubWFlPic=

> <r_lp_tautomer_probability>
0.5

> <r_epik_Ionization_Penalty>
0.251012

> <r_epik_Ionization_Penalty_Charging>
0

> <r_epik_Ionization_Penalty_Neutral>
0.251012

> <r_epik_State_Penalty>
0.242297

> <r_epik_Charging_Adjusted_Penalty>
0.242297

> <i_epik_Tot_Q>
0

> <i_epik_Tot_abs_Q>
0

> <r_epik_Metal_State_Penalty>
0.242296

> <b_epik_Metal_Only>
0

> <s_lp_Force_Field>
OPLS_2005

> <r_lp_Energy>
35.2163

> <b_lp_Chiralities_Consistent>
1

> <s_lp_Variant>
AV-unprocessed.smi:1467-1

> <Gold.Version>
5.8.1

> <Gold.Id.Protein>
6NUR|6NUR_protein|mol2

> <Gold.PLP.Fitness>
43.4843

> <Gold.PLP.PLP>
-33.8442

> <Gold.PLP.part.hbond>
-3.7880

> <Gold.PLP.part.metal>
0.0000

> <Gold.PLP.part.buried>
-4.0032

> <Gold.PLP.part.nonpolar>
-26.2032

> <Gold.PLP.part.repulsive>
0.4347

> <Gold.PLP.ligand.clash>
0.0000

> <Gold.PLP.ligand.torsion>
0.3873

> <Gold.PLP.Chemscore.Hbond>
2.9100

> <Gold.PLP.Chemscore.CHOScore>
0.5587

> <Gold.PLP.Chemscore.Metal>
0.0000

> <Gold.Chemscore.Hbonds>
donor molecule, donor type, donor heavy atom, donor atom, acceptor molecule, acceptor atom, score
      L1  H    17    21       P1 10175  0.65
      P1  H  7989  7998       L1    12  1.00
      P1  H  7997  8009       L1     7  1.00
      L1  C    15    35       P1  7957  0.45

> <Gold.PLP.Chemscore.Internal.Correction>
0.0087

> <Gold.Rescore>
     Score         DG    S(hbond)    S(metal)    S(lipo)     H(rot)  DE(clash)    DE(int)     intcor
     15.22     -16.73       2.27        0.00      68.91       1.72       0.04       1.48       ----

> <Gold.Chemscore.Fitness>
15.2170

> <Gold.Chemscore.DG>
-16.7325

> <Gold.Chemscore.ZeroCoef>
-5.4800

> <Gold.Chemscore.Hbond>
2.2708

> <Gold.Chemscore.Metal>
0.0000

> <Gold.Chemscore.Lipo>
68.9111

> <Gold.Chemscore.Internal_Hbond>
0.0000

> <Gold.Chemscore.DEClash>
0.0381

> <Gold.Chemscore.DEInternal>
1.4774

> <Gold.Chemscore.Rot>
1.7167

> <Gold.Chemscore.Internal.Correction>
   9.000000E+99

> <Gold.Chemscore.Hbonds>
donor molecule, donor type, donor heavy atom, donor atom, acceptor molecule, acceptor atom, score
      L1  H    17    21       P1 10175  0.61
      P1  H  7989  7998       L1    12  1.00
      P1  H  7997  8009       L1     7  0.08

> <Gold.Chemscore.Hbond.Weighted>
-7.5846

> <Gold.Chemscore.Metal.Weighted>
-0.0000

> <Gold.Chemscore.Lipo.Weighted>
-8.0626

> <Gold.Chemscore.Internal_Hbond.Weighted>
0.0000

> <Gold.Chemscore.DEClash.Weighted>
0.0381

> <Gold.Chemscore.DEInternal.Weighted>
1.4774

> <Gold.Chemscore.Rot.Weighted>
4.3947

> <Gold.Chemscore.Internal.Correction.Weighted>
   9.000000E+99

> <Gold.Protein.RotatedTorsions>
[ 6907 6896 6895 6894 ] final  -41.16 input  -60.11 | X-H torsion
[ 7974 7965 7964 7962 ] final  -52.25 input  175.53 | X-H torsion
[ 8008 7997 7996 7995 ] final  149.07 input   59.86 | X-H torsion
[ 10167 10162 10161 10158 ] final   92.14 input  -65.29 | X-H torsion
[ 10718 10713 10712 10709 ] final -147.30 input   66.30 | X-H torsion
[ 10763 10752 10751 10750 ] final   -3.27 input  -60.55 | X-H torsion
[ 11005 11000 10999 10996 ] final  163.44 input  -57.11 | X-H torsion

> <Gold.Protein.ActiveResidues>
 VAL166  LYS551  ARG553  GLY616  TRP617  ASP618  TYR619  PRO620  LYS621  CYS622 
 ASP623  PHE694  ASN695  SER759  ASP760  ASP761  ALA762  ILE779  LEU786  VAL792 
 PHE793  MET794  SER795  GLU796  ALA797  LYS798  CYS799  TRP800  GLU811  SER814 

> <Gold.Protein.RotatedAtoms>
  150.9700  134.9075  159.7782 H   0  0  0  0  0  0  0  0  0  0  0  0  # atno 6907 bound_to 6896
  152.5187  134.3554  159.9276 H   0  0  0  0  0  0  0  0  0  0  0  0  # atno 6908 bound_to 6896
  151.3563  133.3865  159.2720 H   0  0  0  0  0  0  0  0  0  0  0  0  # atno 6909 bound_to 6896
  145.9101  140.7923  142.9700 H   0  0  0  0  0  0  0  0  0  0  0  0  # atno 7974 bound_to 7965
  156.2768  140.2111  156.5799 H   0  0  0  0  0  0  0  0  0  0  0  0  # atno 8008 bound_to 7997
  154.7067  140.0516  157.0534 H   0  0  0  0  0  0  0  0  0  0  0  0  # atno 8009 bound_to 7997
  155.0661  140.3172  155.4648 H   0  0  0  0  0  0  0  0  0  0  0  0  # atno 8010 bound_to 7997
  139.8306  144.6689  150.9405 H   0  0  0  0  0  0  0  0  0  0  0  0  # atno 10167 bound_to 10162
  156.4058  130.7956  151.2170 H   0  0  0  0  0  0  0  0  0  0  0  0  # atno 10718 bound_to 10713
  153.3692  135.6994  153.6651 H   0  0  0  0  0  0  0  0  0  0  0  0  # atno 10763 bound_to 10752
  153.5309  135.3592  155.2675 H   0  0  0  0  0  0  0  0  0  0  0  0  # atno 10764 bound_to 10752
  154.8679  135.4180  154.2966 H   0  0  0  0  0  0  0  0  0  0  0  0  # atno 10765 bound_to 10752
  140.2358  134.8089  157.3362 H   0  0  0  0  0  0  0  0  0  0  0  0  # atno 11005 bound_to 11000
  144.6742  140.1812  143.7405 LP  0  0  0  0  0  0  0  0  0  0  0  0  # atno 17320 bound_to 7965
  145.8683  139.2258  143.1676 LP  0  0  0  0  0  0  0  0  0  0  0  0  # atno 17321 bound_to 7965
  140.7807  143.4005  151.1157 LP  0  0  0  0  0  0  0  0  0  0  0  0  # atno 17342 bound_to 10162
  139.7659  143.8566  152.3110 LP  0  0  0  0  0  0  0  0  0  0  0  0  # atno 17343 bound_to 10162
  157.7505  131.0273  150.3998 LP  0  0  0  0  0  0  0  0  0  0  0  0  # atno 17370 bound_to 10713
  156.4287  130.3967  149.6775 LP  0  0  0  0  0  0  0  0  0  0  0  0  # atno 17371 bound_to 10713
  140.1704  134.4616  155.7835 LP  0  0  0  0  0  0  0  0  0  0  0  0  # atno 17394 bound_to 11000
  141.2214  133.6939  156.7697 LP  0  0  0  0  0  0  0  0  0  0  0  0  # atno 17395 bound_to 11000

$$$$
