AV-unprocessed.smi:365|AV-procd|sdf|2427|dock3
  -GOLD-   2262022363D 1   1.00000     0.00000
 Structure written by MMmdl.
 53 54  0  0  0  0  0  0  0  0  1 V2000
  149.0965  135.5957  155.1107 C   0  0  0  0  0  0  0  0  0  0  0  0
  147.6221  135.9897  154.9235 C   0  0  2  0  0  0  0  0  0  0  0  0
  147.1746  135.4761  153.6305 N   0  0  0  0  0  0  0  0  0  0  0  0
  146.0175  134.8281  153.4065 C   0  0  0  0  0  0  0  0  0  0  0  0
  145.2208  134.5797  154.3131 O   0  0  0  0  0  0  0  0  0  0  0  0
  145.6867  134.3975  151.9572 C   0  0  0  0  0  0  0  0  0  0  0  0
  145.5991  135.6631  151.0804 C   0  0  0  0  0  0  0  0  0  0  0  0
  144.3192  133.6829  151.9495 C   0  0  0  0  0  0  0  0  0  0  0  0
  146.7512  133.4441  151.3639 C   0  0  0  0  0  0  0  0  0  0  0  0
  147.5192  137.5227  154.9480 C   0  0  0  0  0  0  0  0  0  0  0  0
  146.9165  138.0963  155.8569 O   0  0  0  0  0  0  0  0  0  0  0  0
  148.1192  138.1722  153.9393 N   0  0  0  0  0  0  0  0  0  0  0  0
  148.1812  139.6234  153.7984 C   0  0  0  0  0  0  0  0  0  0  0  0
  148.9928  140.3359  154.8735 C   0  0  0  0  0  0  0  0  0  0  0  0
  150.3849  140.1391  154.9463 C   0  0  0  0  0  0  0  0  0  0  0  0
  151.1221  140.7923  155.9524 C   0  0  0  0  0  0  0  0  0  0  0  0
  150.4452  141.6315  156.8746 C   0  0  0  0  0  0  0  0  0  0  0  0
  151.1247  142.3209  157.9067 N   0  0  0  0  0  0  0  0  0  0  0  0
  152.0465  141.5331  158.7266 C   0  0  0  0  0  0  0  0  0  0  0  0
  152.4453  142.3069  159.9946 C   0  0  0  0  0  0  0  0  0  0  0  0
  152.9666  143.5817  159.6375 O   0  0  0  0  0  0  0  0  0  0  0  0
  151.9933  144.3744  158.9683 C   0  0  0  0  0  0  0  0  0  0  0  0
  151.5732  143.6890  157.6570 C   0  0  0  0  0  0  0  0  0  0  0  0
  149.1043  141.8151  156.7993 N   0  0  0  0  0  0  0  0  0  0  0  0
  148.4026  141.1865  155.8335 C   0  0  0  0  0  0  0  0  0  0  0  0
  149.4865  135.9623  156.0610 H   0  0  0  0  0  0  0  0  0  0  0  0
  149.7291  135.9929  154.3154 H   0  0  0  0  0  0  0  0  0  0  0  0
  149.2112  134.5112  155.1107 H   0  0  0  0  0  0  0  0  0  0  0  0
  147.0232  135.5535  155.7256 H   0  0  0  0  0  0  0  0  0  0  0  0
  147.7759  135.6532  152.8392 H   0  0  0  0  0  0  0  0  0  0  0  0
  145.3528  135.4115  150.0483 H   0  0  0  0  0  0  0  0  0  0  0  0
  146.5463  136.2047  151.0668 H   0  0  0  0  0  0  0  0  0  0  0  0
  144.8321  136.3526  151.4365 H   0  0  0  0  0  0  0  0  0  0  0  0
  143.5178  134.3329  152.3040 H   0  0  0  0  0  0  0  0  0  0  0  0
  144.3283  132.7955  152.5841 H   0  0  0  0  0  0  0  0  0  0  0  0
  144.0491  133.3605  150.9434 H   0  0  0  0  0  0  0  0  0  0  0  0
  146.4872  133.1466  150.3485 H   0  0  0  0  0  0  0  0  0  0  0  0
  146.8473  132.5292  151.9507 H   0  0  0  0  0  0  0  0  0  0  0  0
  147.7341  133.9150  151.3122 H   0  0  0  0  0  0  0  0  0  0  0  0
  148.5904  137.6236  153.2347 H   0  0  0  0  0  0  0  0  0  0  0  0
  148.6285  139.8485  152.8301 H   0  0  0  0  0  0  0  0  0  0  0  0
  147.1700  140.0333  153.7728 H   0  0  0  0  0  0  0  0  0  0  0  0
  150.8862  139.4932  154.2401 H   0  0  0  0  0  0  0  0  0  0  0  0
  152.1871  140.6248  155.9974 H   0  0  0  0  0  0  0  0  0  0  0  0
  151.6078  140.5820  159.0279 H   0  0  0  0  0  0  0  0  0  0  0  0
  152.9331  141.3032  158.1346 H   0  0  0  0  0  0  0  0  0  0  0  0
  151.5907  142.4244  160.6631 H   0  0  0  0  0  0  0  0  0  0  0  0
  153.2059  141.7545  160.5464 H   0  0  0  0  0  0  0  0  0  0  0  0
  151.1306  144.5350  159.6168 H   0  0  0  0  0  0  0  0  0  0  0  0
  152.4185  145.3556  158.7576 H   0  0  0  0  0  0  0  0  0  0  0  0
  152.4096  143.6712  156.9573 H   0  0  0  0  0  0  0  0  0  0  0  0
  150.7732  144.2745  157.2035 H   0  0  0  0  0  0  0  0  0  0  0  0
  147.3387  141.3715  155.8396 H   0  0  0  0  0  0  0  0  0  0  0  0
  1  2  1  0  0  0  0
  1 26  1  0  0  0  0
  1 27  1  0  0  0  0
  1 28  1  0  0  0  0
  2  3  1  0  0  0  0
  2 10  1  0  0  0  0
  2 29  1  0  0  0  0
  3  4  1  0  0  0  0
  3 30  1  0  0  0  0
  4  5  2  0  0  0  0
  4  6  1  0  0  0  0
  6  7  1  0  0  0  0
  6  8  1  0  0  0  0
  6  9  1  0  0  0  0
  7 31  1  0  0  0  0
  7 32  1  0  0  0  0
  7 33  1  0  0  0  0
  8 34  1  0  0  0  0
  8 35  1  0  0  0  0
  8 36  1  0  0  0  0
  9 37  1  0  0  0  0
  9 38  1  0  0  0  0
  9 39  1  0  0  0  0
 10 11  2  0  0  0  0
 10 12  1  0  0  0  0
 12 13  1  0  0  0  0
 12 40  1  0  0  0  0
 13 14  1  0  0  0  0
 13 41  1  0  0  0  0
 13 42  1  0  0  0  0
 14 25  1  0  0  0  0
 14 15  2  0  0  0  0
 15 16  1  0  0  0  0
 15 43  1  0  0  0  0
 16 17  2  0  0  0  0
 16 44  1  0  0  0  0
 17 18  1  0  0  0  0
 17 24  1  0  0  0  0
 18 23  1  0  0  0  0
 18 19  1  0  0  0  0
 19 20  1  0  0  0  0
 19 45  1  0  0  0  0
 19 46  1  0  0  0  0
 20 21  1  0  0  0  0
 20 47  1  0  0  0  0
 20 48  1  0  0  0  0
 21 22  1  0  0  0  0
 22 23  1  0  0  0  0
 22 49  1  0  0  0  0
 22 50  1  0  0  0  0
 23 51  1  0  0  0  0
 23 52  1  0  0  0  0
 24 25  2  0  0  0  0
 25 53  1  0  0  0  0
M  END
> <s_m_source_file>
AV-unprocessed.smi

> <i_m_source_file_index>
365

> <i_lp_mmshare_version>
43012

> <i_f3d_flags>
0

> <s_epik_input>
W0NIM11DKFtDSDNdKShbQ0gzXSlDKD1PKVtOSF1bQ0BASF0oW0NIM10pQyg9TylbTkhdW0NIMl1jMVtjSF1bY0hdYyhuW2NIXTEpTjJbQ0gyXVtDSDJdT1tDSDJdW0NIMl0y

> <s_epik_cmdline>
J2VwaWtfcHl0aG9uJywgJy1waCcsICc3LjAnLCAnLXRuJywgJzgnLCAnLW1hJywgJzIwMCcsICctbWV0YWxfYmluZGluZycsICctaW1hZScsICc8aW5maWxlLm1hZT4nLCAnLW9tYWUnLCAnPG91dGZpbGUubWFlPic=

> <r_lp_tautomer_probability>
1

> <r_epik_Ionization_Penalty>
0.00484327

> <r_epik_Ionization_Penalty_Charging>
0

> <r_epik_Ionization_Penalty_Neutral>
0.00484327

> <r_epik_State_Penalty>
0.0035131

> <r_epik_Charging_Adjusted_Penalty>
0.0035131

> <i_epik_Tot_Q>
0

> <i_epik_Tot_abs_Q>
0

> <r_epik_Metal_State_Penalty>
-0

> <b_epik_Metal_Only>
0

> <s_lp_Force_Field>
OPLS_2005

> <r_lp_Energy>
21.7768

> <b_lp_Chiralities_Consistent>
1

> <s_lp_Variant>
AV-unprocessed.smi:365-1

> <Gold.Version>
5.8.1

> <Gold.Id.Protein>
6NUR|6NUR_protein|mol2

> <Gold.PLP.Fitness>
45.0077

> <Gold.PLP.PLP>
-40.0278

> <Gold.PLP.part.hbond>
-2.0000

> <Gold.PLP.part.metal>
0.0000

> <Gold.PLP.part.buried>
-3.3990

> <Gold.PLP.part.nonpolar>
-35.6248

> <Gold.PLP.part.repulsive>
0.2688

> <Gold.PLP.ligand.clash>
0.0000

> <Gold.PLP.ligand.torsion>
0.7862

> <Gold.PLP.Chemscore.Hbond>
2.0000

> <Gold.PLP.Chemscore.CHOScore>
0.0000

> <Gold.PLP.Chemscore.Metal>
0.0000

> <Gold.Chemscore.Hbonds>
donor molecule, donor type, donor heavy atom, donor atom, acceptor molecule, acceptor atom, score
      L1  H     3    30       P1  7948  1.00
      L1  H    12    40       P1  7948  1.00

> <Gold.PLP.Chemscore.Internal.Correction>
0.5523

> <Gold.Rescore>
     Score         DG    S(hbond)    S(metal)    S(lipo)     H(rot)  DE(clash)    DE(int)     intcor
     17.57     -18.47       1.97        0.00      99.32       2.04       0.10       0.80       ----

> <Gold.Chemscore.Fitness>
17.5658

> <Gold.Chemscore.DG>
-18.4686

> <Gold.Chemscore.ZeroCoef>
-5.4800

> <Gold.Chemscore.Hbond>
1.9707

> <Gold.Chemscore.Metal>
0.0000

> <Gold.Chemscore.Lipo>
99.3198

> <Gold.Chemscore.Internal_Hbond>
0.0000

> <Gold.Chemscore.DEClash>
0.0987

> <Gold.Chemscore.DEInternal>
0.8041

> <Gold.Chemscore.Rot>
2.0367

> <Gold.Chemscore.Internal.Correction>
   9.000000E+99

> <Gold.Chemscore.Hbonds>
donor molecule, donor type, donor heavy atom, donor atom, acceptor molecule, acceptor atom, score
      L1  H     3    30       P1  7948  0.99
      L1  H    12    40       P1  7948  0.98

> <Gold.Chemscore.Hbond.Weighted>
-6.5822

> <Gold.Chemscore.Metal.Weighted>
-0.0000

> <Gold.Chemscore.Lipo.Weighted>
-11.6204

> <Gold.Chemscore.Internal_Hbond.Weighted>
0.0000

> <Gold.Chemscore.DEClash.Weighted>
0.0987

> <Gold.Chemscore.DEInternal.Weighted>
0.8041

> <Gold.Chemscore.Rot.Weighted>
5.2140

> <Gold.Chemscore.Internal.Correction.Weighted>
   9.000000E+99

> <Gold.Protein.RotatedTorsions>
[ 6907 6896 6895 6894 ] final  -54.96 input  -60.11 | X-H torsion
[ 7974 7965 7964 7962 ] final  165.75 input  175.53 | X-H torsion
[ 8008 7997 7996 7995 ] final  -86.34 input   59.86 | X-H torsion
[ 10167 10162 10161 10158 ] final  -73.79 input  -65.29 | X-H torsion
[ 10718 10713 10712 10709 ] final -126.87 input   66.30 | X-H torsion
[ 10763 10752 10751 10750 ] final  -12.07 input  -60.55 | X-H torsion
[ 11005 11000 10999 10996 ] final   33.56 input  -57.11 | X-H torsion

> <Gold.Protein.ActiveResidues>
 VAL166  LYS551  ARG553  GLY616  TRP617  ASP618  TYR619  PRO620  LYS621  CYS622 
 ASP623  PHE694  ASN695  SER759  ASP760  ASP761  ALA762  ILE779  LEU786  VAL792 
 PHE793  MET794  SER795  GLU796  ALA797  LYS798  CYS799  TRP800  GLU811  SER814 

> <Gold.Protein.RotatedAtoms>
  150.8293  134.7539  159.6839 H   0  0  0  0  0  0  0  0  0  0  0  0  # atno 6907 bound_to 6896
  152.4400  134.5607  159.9903 H   0  0  0  0  0  0  0  0  0  0  0  0  # atno 6908 bound_to 6896
  151.5772  133.3345  159.3037 H   0  0  0  0  0  0  0  0  0  0  0  0  # atno 6909 bound_to 6896
  144.7490  139.8516  143.6372 H   0  0  0  0  0  0  0  0  0  0  0  0  # atno 7974 bound_to 7965
  154.6508  140.0580  156.9953 H   0  0  0  0  0  0  0  0  0  0  0  0  # atno 8008 bound_to 7997
  155.1375  140.3262  155.4441 H   0  0  0  0  0  0  0  0  0  0  0  0  # atno 8009 bound_to 7997
  156.2575  140.1970  156.6492 H   0  0  0  0  0  0  0  0  0  0  0  0  # atno 8010 bound_to 7997
  140.5081  143.2349  151.7640 H   0  0  0  0  0  0  0  0  0  0  0  0  # atno 10167 bound_to 10162
  156.1804  130.6728  151.0297 H   0  0  0  0  0  0  0  0  0  0  0  0  # atno 10718 bound_to 10713
  153.4931  135.7017  153.5873 H   0  0  0  0  0  0  0  0  0  0  0  0  # atno 10763 bound_to 10752
  153.4037  135.3865  155.2005 H   0  0  0  0  0  0  0  0  0  0  0  0  # atno 10764 bound_to 10752
  154.8715  135.3887  154.4393 H   0  0  0  0  0  0  0  0  0  0  0  0  # atno 10765 bound_to 10752
  140.2619  134.3182  155.7855 H   0  0  0  0  0  0  0  0  0  0  0  0  # atno 11005 bound_to 11000
  146.1412  139.4469  143.0108 LP  0  0  0  0  0  0  0  0  0  0  0  0  # atno 17320 bound_to 7965
  145.7015  141.0134  143.1501 LP  0  0  0  0  0  0  0  0  0  0  0  0  # atno 17321 bound_to 7965
  139.4889  144.4430  151.9743 LP  0  0  0  0  0  0  0  0  0  0  0  0  # atno 17342 bound_to 10162
  140.3521  144.3076  150.5947 LP  0  0  0  0  0  0  0  0  0  0  0  0  # atno 17343 bound_to 10162
  157.6864  131.0823  150.7230 LP  0  0  0  0  0  0  0  0  0  0  0  0  # atno 17370 bound_to 10713
  156.7287  130.4703  149.5505 LP  0  0  0  0  0  0  0  0  0  0  0  0  # atno 17371 bound_to 10713
  141.2189  133.7414  156.9200 LP  0  0  0  0  0  0  0  0  0  0  0  0  # atno 17394 bound_to 11000
  140.1456  134.9264  157.2525 LP  0  0  0  0  0  0  0  0  0  0  0  0  # atno 17395 bound_to 11000

$$$$
