AV-unprocessed.smi:1586|AV-procd|sdf|6376|dock8
  -GOLD-   22720 7 03D 1   1.00000     0.00000
 Structure written by MMmdl.
 47 48  0  0  0  0  0  0  0  0  2 V2000
  145.1879  131.3345  151.5348 C   0  0  0  0  0  0  0  0  0  0  0  0
  145.6154  132.3355  152.6179 C   0  0  0  0  0  0  0  0  0  0  0  0
  146.8397  133.0516  152.2514 N   0  0  0  0  0  0  0  0  0  0  0  0
  146.7496  133.8596  151.0345 C   0  0  0  0  0  0  0  0  0  0  0  0
  145.8243  135.0821  151.2054 C   0  0  0  0  0  0  0  0  0  0  0  0
  146.2659  135.9559  152.3297 N   0  3  0  0  0  0  0  0  0  0  0  0
  145.4137  137.1768  152.5281 C   0  0  1  0  0  0  0  0  0  0  0  0
  144.1408  136.8522  153.3492 C   0  0  0  0  0  0  0  0  0  0  0  0
  146.1945  138.3425  153.1931 C   0  0  0  0  0  0  0  0  0  0  0  0
  147.6304  138.0862  153.2514 N   0  0  0  0  0  0  0  0  0  0  0  0
  148.4450  138.5106  154.2273 C   0  0  0  0  0  0  0  0  0  0  0  0
  148.0588  139.1603  155.1993 O   0  0  0  0  0  0  0  0  0  0  0  0
  149.7150  138.1354  153.9996 N   0  0  0  0  0  0  0  0  0  0  0  0
  150.8570  138.4231  154.7897 C   0  0  0  0  0  0  0  0  0  0  0  0
  151.5421  137.3897  155.4823 C   0  0  0  0  0  0  0  0  0  0  0  0
  152.5592  138.0578  156.1036 C   0  0  0  0  0  0  0  0  0  0  0  0
  153.6690  137.6140  156.9940 C   0  0  0  0  0  0  0  0  0  0  0  0
  152.4999  139.3864  155.8143 O   0  0  0  0  0  0  0  0  0  0  0  0
  151.4052  139.6146  154.9719 N   0  0  0  0  0  0  0  0  0  0  0  0
  146.4183  135.1316  153.5628 C   0  0  0  0  0  0  0  0  0  0  0  0
  147.3312  133.9103  153.3271 C   0  0  0  0  0  0  0  0  0  0  0  0
  144.3549  130.7260  151.8873 H   0  0  0  0  0  0  0  0  0  0  0  0
  146.0032  130.6578  151.2763 H   0  0  0  0  0  0  0  0  0  0  0  0
  144.8575  131.8330  150.6240 H   0  0  0  0  0  0  0  0  0  0  0  0
  144.7975  133.0199  152.8397 H   0  0  0  0  0  0  0  0  0  0  0  0
  145.8072  131.7771  153.5351 H   0  0  0  0  0  0  0  0  0  0  0  0
  147.7525  134.2006  150.7732 H   0  0  0  0  0  0  0  0  0  0  0  0
  146.4181  133.2486  150.1956 H   0  0  0  0  0  0  0  0  0  0  0  0
  145.8651  135.6241  150.2627 H   0  0  0  0  0  0  0  0  0  0  0  0
  144.7873  134.7767  151.3495 H   0  0  0  0  0  0  0  0  0  0  0  0
  145.0953  137.5162  151.5408 H   0  0  0  0  0  0  0  0  0  0  0  0
  143.5513  137.7417  153.5686 H   0  0  0  0  0  0  0  0  0  0  0  0
  144.3940  136.3874  154.3027 H   0  0  0  0  0  0  0  0  0  0  0  0
  143.4613  136.1880  152.8172 H   0  0  0  0  0  0  0  0  0  0  0  0
  145.9930  139.2715  152.6562 H   0  0  0  0  0  0  0  0  0  0  0  0
  145.8877  138.4923  154.2273 H   0  0  0  0  0  0  0  0  0  0  0  0
  148.0321  137.5542  152.4930 H   0  0  0  0  0  0  0  0  0  0  0  0
  149.8872  137.5953  153.1646 H   0  0  0  0  0  0  0  0  0  0  0  0
  151.3270  136.3320  155.5185 H   0  0  0  0  0  0  0  0  0  0  0  0
  153.4722  136.6196  157.3950 H   0  0  0  0  0  0  0  0  0  0  0  0
  153.7907  138.2985  157.8337 H   0  0  0  0  0  0  0  0  0  0  0  0
  154.6112  137.5776  156.4470 H   0  0  0  0  0  0  0  0  0  0  0  0
  146.8828  135.7128  154.3568 H   0  0  0  0  0  0  0  0  0  0  0  0
  145.4389  134.8245  153.9319 H   0  0  0  0  0  0  0  0  0  0  0  0
  147.4281  133.3284  154.2444 H   0  0  0  0  0  0  0  0  0  0  0  0
  148.3370  134.2488  153.0742 H   0  0  0  0  0  0  0  0  0  0  0  0
  147.1902  136.2832  152.0874 H   0  0  0  0  0  0  0  0  0  0  0  0
  1  2  1  0  0  0  0
  1 22  1  0  0  0  0
  1 23  1  0  0  0  0
  1 24  1  0  0  0  0
  2  3  1  0  0  0  0
  2 25  1  0  0  0  0
  2 26  1  0  0  0  0
  3 21  1  0  0  0  0
  3  4  1  0  0  0  0
  4  5  1  0  0  0  0
  4 27  1  0  0  0  0
  4 28  1  0  0  0  0
  5  6  1  0  0  0  0
  5 29  1  0  0  0  0
  5 30  1  0  0  0  0
  6  7  1  0  0  0  0
  6 20  1  0  0  0  0
  6 47  1  0  0  0  0
  7  8  1  0  0  0  0
  7  9  1  0  0  0  0
  7 31  1  0  0  0  0
  8 32  1  0  0  0  0
  8 33  1  0  0  0  0
  8 34  1  0  0  0  0
  9 10  1  0  0  0  0
  9 35  1  0  0  0  0
  9 36  1  0  0  0  0
 10 11  1  0  0  0  0
 10 37  1  0  0  0  0
 11 12  2  0  0  0  0
 11 13  1  0  0  0  0
 13 14  1  0  0  0  0
 13 38  1  0  0  0  0
 14 19  2  0  0  0  0
 14 15  1  0  0  0  0
 15 16  2  0  0  0  0
 15 39  1  0  0  0  0
 16 17  1  0  0  0  0
 16 18  1  0  0  0  0
 17 40  1  0  0  0  0
 17 41  1  0  0  0  0
 17 42  1  0  0  0  0
 18 19  1  0  0  0  0
 20 21  1  0  0  0  0
 20 43  1  0  0  0  0
 20 44  1  0  0  0  0
 21 45  1  0  0  0  0
 21 46  1  0  0  0  0
M  CHG  1   6   1
M  END
> <s_m_source_file>
AV-unprocessed.smi

> <i_m_source_file_index>
1586

> <i_lp_mmshare_version>
43012

> <i_f3d_flags>
0

> <s_epik_input>
W0NIM11bQ0gyXU4xW0NIMl1bQ0gyXU4oW0NIMl1bQ0gyXTEpW0NASF0oW0NIM10pW0NIMl1bTkhdQyg9TylbTkhdYzJbY0hdYyhbQ0gzXSlvbjI=

> <s_epik_cmdline>
J2VwaWtfcHl0aG9uJywgJy1waCcsICc3LjAnLCAnLXRuJywgJzgnLCAnLW1hJywgJzIwMCcsICctbWV0YWxfYmluZGluZycsICctaW1hZScsICc8aW5maWxlLm1hZT4nLCAnLW9tYWUnLCAnPG91dGZpbGUubWFlPic=

> <r_epik_Ionization_Penalty>
0.153363

> <r_epik_Ionization_Penalty_Charging>
0.151842

> <r_epik_Ionization_Penalty_Neutral>
0.00152029

> <r_epik_State_Penalty>
0.985235

> <r_epik_Charging_Adjusted_Penalty>
1.13708

> <i_epik_Tot_Q>
1

> <i_epik_Tot_abs_Q>
1

> <r_epik_Metal_State_Penalty>
0.996168

> <b_epik_Metal_Only>
0

> <s_lp_Force_Field>
OPLS_2005

> <r_lp_Energy>
21.483

> <b_lp_Chiralities_Consistent>
1

> <s_lp_Variant>
AV-unprocessed.smi:1586-4

> <Gold.Version>
5.8.1

> <Gold.Id.Protein>
6NUR|6NUR_protein|mol2

> <Gold.PLP.Fitness>
43.1509

> <Gold.PLP.PLP>
-29.3359

> <Gold.PLP.part.hbond>
-5.4073

> <Gold.PLP.part.metal>
0.0000

> <Gold.PLP.part.buried>
-3.9113

> <Gold.PLP.part.nonpolar>
-19.7918

> <Gold.PLP.part.repulsive>
0.3758

> <Gold.PLP.ligand.clash>
0.0000

> <Gold.PLP.ligand.torsion>
1.9228

> <Gold.PLP.Chemscore.Hbond>
5.8640

> <Gold.PLP.Chemscore.CHOScore>
0.0000

> <Gold.PLP.Chemscore.Metal>
0.0000

> <Gold.Chemscore.Hbonds>
donor molecule, donor type, donor heavy atom, donor atom, acceptor molecule, acceptor atom, score
      L1  H     6    47       P1  7948  2.00
      L1  H    10    37       P1  7948  1.00
      L1  H    13    38       P1  7948  0.80
      P1  H  7989  7998       L1    19  1.00
      P1  H  7997  8009       L1    18  0.94

> <Gold.PLP.Chemscore.Internal.Correction>
0.0686

> <Gold.Rescore>
     Score         DG    S(hbond)    S(metal)    S(lipo)     H(rot)  DE(clash)    DE(int)     intcor
     19.67     -21.92       4.21        0.00      58.97       1.76       0.06       2.19       ----

> <Gold.Chemscore.Fitness>
19.6685

> <Gold.Chemscore.DG>
-21.9184

> <Gold.Chemscore.ZeroCoef>
-5.4800

> <Gold.Chemscore.Hbond>
4.2077

> <Gold.Chemscore.Metal>
0.0000

> <Gold.Chemscore.Lipo>
58.9708

> <Gold.Chemscore.Internal_Hbond>
0.0000

> <Gold.Chemscore.DEClash>
0.0614

> <Gold.Chemscore.DEInternal>
2.1885

> <Gold.Chemscore.Rot>
1.7637

> <Gold.Chemscore.Internal.Correction>
   9.000000E+99

> <Gold.Chemscore.Hbonds>
donor molecule, donor type, donor heavy atom, donor atom, acceptor molecule, acceptor atom, score
      L1  H     6    47       P1  7948  0.99
      L1  H    10    37       P1  7948  0.98
      L1  H    13    38       P1  7948  0.34
      P1  H  7989  7998       L1    19  0.92
      P1  H  7997  8009       L1    18  0.59

> <Gold.Chemscore.Hbond.Weighted>
-14.0538

> <Gold.Chemscore.Metal.Weighted>
-0.0000

> <Gold.Chemscore.Lipo.Weighted>
-6.8996

> <Gold.Chemscore.Internal_Hbond.Weighted>
0.0000

> <Gold.Chemscore.DEClash.Weighted>
0.0614

> <Gold.Chemscore.DEInternal.Weighted>
2.1885

> <Gold.Chemscore.Rot.Weighted>
4.5150

> <Gold.Chemscore.Internal.Correction.Weighted>
   9.000000E+99

> <Gold.Protein.RotatedTorsions>
[ 6907 6896 6895 6894 ] final   88.40 input  -60.11 | X-H torsion
[ 7974 7965 7964 7962 ] final    6.38 input  175.53 | X-H torsion
[ 8008 7997 7996 7995 ] final -145.06 input   59.86 | X-H torsion
[ 10167 10162 10161 10158 ] final  -56.38 input  -65.29 | X-H torsion
[ 10718 10713 10712 10709 ] final -179.59 input   66.30 | X-H torsion
[ 10763 10752 10751 10750 ] final  176.06 input  -60.55 | X-H torsion
[ 11005 11000 10999 10996 ] final   84.43 input  -57.11 | X-H torsion

> <Gold.Protein.ActiveResidues>
 VAL166  LYS551  ARG553  GLY616  TRP617  ASP618  TYR619  PRO620  LYS621  CYS622 
 ASP623  PHE694  ASN695  SER759  ASP760  ASP761  ALA762  ILE779  LEU786  VAL792 
 PHE793  MET794  SER795  GLU796  ALA797  LYS798  CYS799  TRP800  GLU811  SER814 

> <Gold.Protein.RotatedAtoms>
  152.5424  134.2127  159.8756 H   0  0  0  0  0  0  0  0  0  0  0  0  # atno 6907 bound_to 6896
  151.2109  133.4550  159.2606 H   0  0  0  0  0  0  0  0  0  0  0  0  # atno 6908 bound_to 6896
  151.0898  134.9922  159.8453 H   0  0  0  0  0  0  0  0  0  0  0  0  # atno 6909 bound_to 6896
  146.2435  140.0242  142.8395 H   0  0  0  0  0  0  0  0  0  0  0  0  # atno 7974 bound_to 7965
  155.5370  140.0604  157.2877 H   0  0  0  0  0  0  0  0  0  0  0  0  # atno 8008 bound_to 7997
  154.4465  140.1926  156.0597 H   0  0  0  0  0  0  0  0  0  0  0  0  # atno 8009 bound_to 7997
  156.0611  140.3272  155.7467 H   0  0  0  0  0  0  0  0  0  0  0  0  # atno 8010 bound_to 7997
  140.6320  143.2464  151.5216 H   0  0  0  0  0  0  0  0  0  0  0  0  # atno 10167 bound_to 10162
  156.8614  130.9753  151.3083 H   0  0  0  0  0  0  0  0  0  0  0  0  # atno 10718 bound_to 10713
  154.4760  135.2773  155.1607 H   0  0  0  0  0  0  0  0  0  0  0  0  # atno 10763 bound_to 10752
  154.3336  135.6185  153.5567 H   0  0  0  0  0  0  0  0  0  0  0  0  # atno 10764 bound_to 10752
  152.9869  135.5771  154.5151 H   0  0  0  0  0  0  0  0  0  0  0  0  # atno 10765 bound_to 10752
  139.9000  134.8216  156.2444 H   0  0  0  0  0  0  0  0  0  0  0  0  # atno 11005 bound_to 11000
  145.1214  140.9464  143.4598 LP  0  0  0  0  0  0  0  0  0  0  0  0  # atno 17320 bound_to 7965
  145.0478  139.3207  143.5944 LP  0  0  0  0  0  0  0  0  0  0  0  0  # atno 17321 bound_to 7965
  139.5533  144.2338  152.1569 LP  0  0  0  0  0  0  0  0  0  0  0  0  # atno 17342 bound_to 10162
  140.1585  144.5048  150.6646 LP  0  0  0  0  0  0  0  0  0  0  0  0  # atno 17343 bound_to 10162
  157.6248  130.8683  149.9170 LP  0  0  0  0  0  0  0  0  0  0  0  0  # atno 17370 bound_to 10713
  156.0775  130.3677  150.0648 LP  0  0  0  0  0  0  0  0  0  0  0  0  # atno 17371 bound_to 10713
  141.0264  133.7013  156.1355 LP  0  0  0  0  0  0  0  0  0  0  0  0  # atno 17394 bound_to 11000
  140.7160  134.4410  157.5578 LP  0  0  0  0  0  0  0  0  0  0  0  0  # atno 17395 bound_to 11000

$$$$
