AV-unprocessed.smi:1954|AV-procd|sdf|7897|dock5
  -GOLD-   2272010 53D 1   1.00000     0.00000
 Structure written by MMmdl.
 45 47  0  0  0  0  0  0  0  0  2 V2000
  144.8028  135.7967  153.5040 O   0  0  0  0  0  0  0  0  0  0  0  0
  145.9012  135.8530  152.9514 C   0  0  0  0  0  0  0  0  0  0  0  0
  146.8268  136.7776  153.2446 N   0  0  0  0  0  0  0  0  0  0  0  0
  146.6908  137.8456  154.2352 C   0  0  0  0  0  0  0  0  0  0  0  0
  147.9360  138.7853  154.3078 C   0  0  2  0  0  0  0  0  0  0  0  0
  149.1752  137.9262  154.3793 N   0  3  0  0  0  0  0  0  0  0  0  0
  150.4585  138.6832  154.3896 C   0  0  0  0  0  0  0  0  0  0  0  0
  151.6522  137.7304  154.2266 C   0  0  0  0  0  0  0  0  0  0  0  0
  151.6349  136.7805  155.2822 O   0  0  0  0  0  0  0  0  0  0  0  0
  150.4639  135.9776  155.2429 C   0  0  0  0  0  0  0  0  0  0  0  0
  149.2092  136.8536  155.4102 C   0  0  0  0  0  0  0  0  0  0  0  0
  147.7818  139.7679  155.5037 C   0  0  0  0  0  0  0  0  0  0  0  0
  146.6767  140.7724  155.1657 C   0  0  0  0  0  0  0  0  0  0  0  0
  146.7773  141.0878  153.3877 S   0  0  0  0  0  0  0  0  0  0  0  0
  147.9507  139.7365  153.0876 C   0  0  0  0  0  0  0  0  0  0  0  0
  146.3352  135.0177  151.9919 N   0  0  0  0  0  0  0  0  0  0  0  0
  145.6562  133.9219  151.3947 C   0  0  0  0  0  0  0  0  0  0  0  0
  144.2381  133.8692  151.3694 C   0  0  0  0  0  0  0  0  0  0  0  0
  143.5991  132.7816  150.7429 C   0  0  0  0  0  0  0  0  0  0  0  0
  144.3873  131.7818  150.1468 C   0  0  0  0  0  0  0  0  0  0  0  0
  145.7857  131.9206  150.2016 C   0  0  0  0  0  0  0  0  0  0  0  0
  146.4018  132.9617  150.8010 N   0  0  0  0  0  0  0  0  0  0  0  0
  147.7041  136.7378  152.7460 H   0  0  0  0  0  0  0  0  0  0  0  0
  145.7786  138.4117  154.0456 H   0  0  0  0  0  0  0  0  0  0  0  0
  146.5105  137.3618  155.1945 H   0  0  0  0  0  0  0  0  0  0  0  0
  150.4823  139.4197  153.5878 H   0  0  0  0  0  0  0  0  0  0  0  0
  150.5695  139.2285  155.3275 H   0  0  0  0  0  0  0  0  0  0  0  0
  151.6275  137.2267  153.2589 H   0  0  0  0  0  0  0  0  0  0  0  0
  152.5870  138.2896  154.2712 H   0  0  0  0  0  0  0  0  0  0  0  0
  150.4243  135.4227  154.3036 H   0  0  0  0  0  0  0  0  0  0  0  0
  150.5151  135.2398  156.0438 H   0  0  0  0  0  0  0  0  0  0  0  0
  149.1831  137.2955  156.4072 H   0  0  0  0  0  0  0  0  0  0  0  0
  148.3489  136.1924  155.3144 H   0  0  0  0  0  0  0  0  0  0  0  0
  147.5945  139.2641  156.4523 H   0  0  0  0  0  0  0  0  0  0  0  0
  148.6841  140.3645  155.6355 H   0  0  0  0  0  0  0  0  0  0  0  0
  145.6940  140.3608  155.3960 H   0  0  0  0  0  0  0  0  0  0  0  0
  146.7830  141.6992  155.7299 H   0  0  0  0  0  0  0  0  0  0  0  0
  148.9343  140.1941  152.9743 H   0  0  0  0  0  0  0  0  0  0  0  0
  147.7142  139.2302  152.1513 H   0  0  0  0  0  0  0  0  0  0  0  0
  147.2991  135.1260  151.7122 H   0  0  0  0  0  0  0  0  0  0  0  0
  143.6296  134.6465  151.8053 H   0  0  0  0  0  0  0  0  0  0  0  0
  142.5215  132.7200  150.7149 H   0  0  0  0  0  0  0  0  0  0  0  0
  143.9323  130.9342  149.6558 H   0  0  0  0  0  0  0  0  0  0  0  0
  146.4274  131.1788  149.7496 H   0  0  0  0  0  0  0  0  0  0  0  0
  149.1741  137.4237  153.5028 H   0  0  0  0  0  0  0  0  0  0  0  0
  1  2  2  0  0  0  0
  2  3  1  0  0  0  0
  2 16  1  0  0  0  0
  3  4  1  0  0  0  0
  3 23  1  0  0  0  0
  4  5  1  0  0  0  0
  4 24  1  0  0  0  0
  4 25  1  0  0  0  0
  5 15  1  0  0  0  0
  5  6  1  0  0  0  0
  5 12  1  0  0  0  0
  6 11  1  0  0  0  0
  6  7  1  0  0  0  0
  6 45  1  0  0  0  0
  7  8  1  0  0  0  0
  7 26  1  0  0  0  0
  7 27  1  0  0  0  0
  8  9  1  0  0  0  0
  8 28  1  0  0  0  0
  8 29  1  0  0  0  0
  9 10  1  0  0  0  0
 10 11  1  0  0  0  0
 10 30  1  0  0  0  0
 10 31  1  0  0  0  0
 11 32  1  0  0  0  0
 11 33  1  0  0  0  0
 12 13  1  0  0  0  0
 12 34  1  0  0  0  0
 12 35  1  0  0  0  0
 13 14  1  0  0  0  0
 13 36  1  0  0  0  0
 13 37  1  0  0  0  0
 14 15  1  0  0  0  0
 15 38  1  0  0  0  0
 15 39  1  0  0  0  0
 16 17  1  0  0  0  0
 16 40  1  0  0  0  0
 17 22  1  0  0  0  0
 17 18  2  0  0  0  0
 18 19  1  0  0  0  0
 18 41  1  0  0  0  0
 19 20  2  0  0  0  0
 19 42  1  0  0  0  0
 20 21  1  0  0  0  0
 20 43  1  0  0  0  0
 21 22  2  0  0  0  0
 21 44  1  0  0  0  0
M  CHG  1   6   1
M  END
> <s_m_source_file>
AV-unprocessed.smi

> <i_m_source_file_index>
1954

> <i_lp_mmshare_version>
43012

> <i_f3d_flags>
0

> <s_epik_input>
bjFbY0hdW2NIXVtjSF1bY0hdYzFbTkhdQyg9TylbTkhdW0NIMl1bQ0BdMihbQ0gyXVtDSDJdU1tDSDJdMilOM1tDSDJdW0NIMl1PW0NIMl1bQ0gyXTM=

> <s_epik_cmdline>
J2VwaWtfcHl0aG9uJywgJy1waCcsICc3LjAnLCAnLXRuJywgJzgnLCAnLW1hJywgJzIwMCcsICctbWV0YWxfYmluZGluZycsICctaW1hZScsICc8aW5maWxlLm1hZT4nLCAnLW9tYWUnLCAnPG91dGZpbGUubWFlPic=

> <r_epik_Ionization_Penalty>
2.03222

> <r_epik_Ionization_Penalty_Charging>
2.03219

> <r_epik_Ionization_Penalty_Neutral>
3.25833e-05

> <r_epik_State_Penalty>
2.16328

> <r_epik_Charging_Adjusted_Penalty>
4.19546

> <i_epik_Tot_Q>
1

> <i_epik_Tot_abs_Q>
1

> <r_epik_Metal_State_Penalty>
2.16328

> <b_epik_Metal_Only>
0

> <s_lp_Force_Field>
OPLS_2005

> <r_lp_Energy>
46.5202

> <b_lp_Chiralities_Consistent>
1

> <s_lp_Variant>
AV-unprocessed.smi:1954-4

> <Gold.Version>
5.8.1

> <Gold.Id.Protein>
6NUR|6NUR_protein|mol2

> <Gold.PLP.Fitness>
47.6413

> <Gold.PLP.PLP>
-30.4244

> <Gold.PLP.part.hbond>
-3.9964

> <Gold.PLP.part.metal>
0.0000

> <Gold.PLP.part.buried>
-1.2746

> <Gold.PLP.part.nonpolar>
-27.4461

> <Gold.PLP.part.repulsive>
0.3759

> <Gold.PLP.ligand.clash>
0.0000

> <Gold.PLP.ligand.torsion>
0.2972

> <Gold.PLP.Chemscore.Hbond>
4.9600

> <Gold.PLP.Chemscore.CHOScore>
0.9328

> <Gold.PLP.Chemscore.Metal>
0.0000

> <Gold.Chemscore.Hbonds>
donor molecule, donor type, donor heavy atom, donor atom, acceptor molecule, acceptor atom, score
      L1  H     3    23       P1  7948  1.00
      L1  H     6    45       P1  7948  2.00
      L1  H    16    40       P1  7948  0.96
      P1  H 10752 10763       L1     9  1.00
      L1  C    21    44       P1 10747  0.76

> <Gold.PLP.Chemscore.Internal.Correction>
0.1328

> <Gold.Rescore>
     Score         DG    S(hbond)    S(metal)    S(lipo)     H(rot)  DE(clash)    DE(int)     intcor
     19.26     -22.54       3.18        0.00      88.61       1.54       1.75       1.53       ----

> <Gold.Chemscore.Fitness>
19.2630

> <Gold.Chemscore.DG>
-22.5427

> <Gold.Chemscore.ZeroCoef>
-5.4800

> <Gold.Chemscore.Hbond>
3.1815

> <Gold.Chemscore.Metal>
0.0000

> <Gold.Chemscore.Lipo>
88.6106

> <Gold.Chemscore.Internal_Hbond>
0.0000

> <Gold.Chemscore.DEClash>
1.7490

> <Gold.Chemscore.DEInternal>
1.5308

> <Gold.Chemscore.Rot>
1.5355

> <Gold.Chemscore.Internal.Correction>
   9.000000E+99

> <Gold.Chemscore.Hbonds>
donor molecule, donor type, donor heavy atom, donor atom, acceptor molecule, acceptor atom, score
      L1  H     3    23       P1  7948  0.99
      L1  H     6    45       P1  7948  0.94
      L1  H    16    40       P1  7948  0.83
      P1  H 10752 10763       L1     9  0.18

> <Gold.Chemscore.Hbond.Weighted>
-10.6262

> <Gold.Chemscore.Metal.Weighted>
-0.0000

> <Gold.Chemscore.Lipo.Weighted>
-10.3674

> <Gold.Chemscore.Internal_Hbond.Weighted>
0.0000

> <Gold.Chemscore.DEClash.Weighted>
1.7490

> <Gold.Chemscore.DEInternal.Weighted>
1.5308

> <Gold.Chemscore.Rot.Weighted>
3.9309

> <Gold.Chemscore.Internal.Correction.Weighted>
   9.000000E+99

> <Gold.Protein.RotatedTorsions>
[ 6907 6896 6895 6894 ] final  -57.11 input  -60.11 | X-H torsion
[ 7974 7965 7964 7962 ] final   24.66 input  175.53 | X-H torsion
[ 8008 7997 7996 7995 ] final   18.74 input   59.86 | X-H torsion
[ 10167 10162 10161 10158 ] final  112.99 input  -65.29 | X-H torsion
[ 10718 10713 10712 10709 ] final  -74.31 input   66.30 | X-H torsion
[ 10763 10752 10751 10750 ] final   75.11 input  -60.55 | X-H torsion
[ 11005 11000 10999 10996 ] final -109.30 input  -57.11 | X-H torsion

> <Gold.Protein.ActiveResidues>
 VAL166  LYS551  ARG553  GLY616  TRP617  ASP618  TYR619  PRO620  LYS621  CYS622 
 ASP623  PHE694  ASN695  SER759  ASP760  ASP761  ALA762  ILE779  LEU786  VAL792 
 PHE793  MET794  SER795  GLU796  ALA797  LYS798  CYS799  TRP800  GLU811  SER814 

> <Gold.Protein.RotatedAtoms>
  150.8112  134.7268  159.6689 H   0  0  0  0  0  0  0  0  0  0  0  0  # atno 6907 bound_to 6896
  152.4232  134.5913  159.9985 H   0  0  0  0  0  0  0  0  0  0  0  0  # atno 6908 bound_to 6896
  151.6122  133.3309  159.3106 H   0  0  0  0  0  0  0  0  0  0  0  0  # atno 6909 bound_to 6896
  146.1926  139.7573  142.8820 H   0  0  0  0  0  0  0  0  0  0  0  0  # atno 7974 bound_to 7965
  154.9104  140.3013  155.5269 H   0  0  0  0  0  0  0  0  0  0  0  0  # atno 8008 bound_to 7997
  156.3015  140.2390  156.4078 H   0  0  0  0  0  0  0  0  0  0  0  0  # atno 8009 bound_to 7997
  154.8431  140.0413  157.1543 H   0  0  0  0  0  0  0  0  0  0  0  0  # atno 8010 bound_to 7997
  139.6494  144.7128  151.2077 H   0  0  0  0  0  0  0  0  0  0  0  0  # atno 10167 bound_to 10162
  156.0247  130.4414  150.2872 H   0  0  0  0  0  0  0  0  0  0  0  0  # atno 10718 bound_to 10713
  153.0632  135.5001  154.8141 H   0  0  0  0  0  0  0  0  0  0  0  0  # atno 10763 bound_to 10752
  154.6914  135.2985  154.9476 H   0  0  0  0  0  0  0  0  0  0  0  0  # atno 10764 bound_to 10752
  154.0230  135.6739  153.4827 H   0  0  0  0  0  0  0  0  0  0  0  0  # atno 10765 bound_to 10752
  141.0855  133.9146  157.2194 H   0  0  0  0  0  0  0  0  0  0  0  0  # atno 11005 bound_to 11000
  145.3743  141.0348  143.3213 LP  0  0  0  0  0  0  0  0  0  0  0  0  # atno 17320 bound_to 7965
  144.8517  139.5311  143.6853 LP  0  0  0  0  0  0  0  0  0  0  0  0  # atno 17321 bound_to 7965
  140.7530  143.6175  150.8545 LP  0  0  0  0  0  0  0  0  0  0  0  0  # atno 17342 bound_to 10162
  139.9821  143.5939  152.2939 LP  0  0  0  0  0  0  0  0  0  0  0  0  # atno 17343 bound_to 10162
  157.0976  131.0187  151.3098 LP  0  0  0  0  0  0  0  0  0  0  0  0  # atno 17370 bound_to 10713
  157.4805  130.7762  149.7409 LP  0  0  0  0  0  0  0  0  0  0  0  0  # atno 17371 bound_to 10713
  139.9673  135.0138  156.9421 LP  0  0  0  0  0  0  0  0  0  0  0  0  # atno 17394 bound_to 11000
  140.5372  134.0755  155.7331 LP  0  0  0  0  0  0  0  0  0  0  0  0  # atno 17395 bound_to 11000

$$$$
