AV-unprocessed.smi:1769|AV-procd|sdf|7151|dock7
  -GOLD-   22720 8393D 1   1.00000     0.00000
 Structure written by MMmdl.
 41 42  0  0  0  0  0  0  0  0  1 V2000
  153.4287  141.8589  161.9122 C   0  0  0  0  0  0  0  0  0  0  0  0
  152.7350  143.1108  161.3705 C   0  0  0  0  0  0  0  0  0  0  0  0
  152.4323  143.9962  162.1706 O   0  0  0  0  0  0  0  0  0  0  0  0
  152.4817  143.2057  160.0429 N   0  0  0  0  0  0  0  0  0  0  0  0
  151.7526  144.3032  159.3943 C   0  0  0  0  0  0  0  0  0  0  0  0
  150.3759  143.7809  158.9464 C   0  0  0  0  0  0  0  0  0  0  0  0
  150.5254  142.5562  158.0233 C   0  0  0  0  0  0  0  0  0  0  0  0
  151.4491  141.4789  158.6405 C   0  0  1  0  0  0  0  0  0  0  0  0
  151.7043  140.3351  157.6500 C   0  0  0  0  0  0  0  0  0  0  0  0
  152.8561  140.0191  157.3497 O   0  0  0  0  0  0  0  0  0  0  0  0
  150.6204  139.7236  157.1478 N   0  0  0  0  0  0  0  0  0  0  0  0
  150.6491  138.6269  156.1878 C   0  0  0  0  0  0  0  0  0  0  0  0
  150.7271  139.1453  154.7429 C   0  0  0  0  0  0  0  0  0  0  0  0
  149.4219  139.7699  154.2916 C   0  0  0  0  0  0  0  0  0  0  0  0
  149.1932  141.1531  154.4420 C   0  0  0  0  0  0  0  0  0  0  0  0
  147.9673  141.6889  154.0028 C   0  0  0  0  0  0  0  0  0  0  0  0
  147.0210  140.8166  153.4288 C   0  0  0  0  0  0  0  0  0  0  0  0
  147.2296  139.4907  153.2790 N   0  0  0  0  0  0  0  0  0  0  0  0
  148.4073  138.9845  153.7041 C   0  0  0  0  0  0  0  0  0  0  0  0
  152.7785  142.1209  159.0986 C   0  0  0  0  0  0  0  0  0  0  0  0
  154.4000  141.7177  161.4369 H   0  0  0  0  0  0  0  0  0  0  0  0
  152.8163  140.9733  161.7399 H   0  0  0  0  0  0  0  0  0  0  0  0
  153.5941  141.9454  162.9869 H   0  0  0  0  0  0  0  0  0  0  0  0
  151.6295  145.1813  160.0263 H   0  0  0  0  0  0  0  0  0  0  0  0
  152.3198  144.6469  158.5281 H   0  0  0  0  0  0  0  0  0  0  0  0
  149.7867  143.5093  159.8232 H   0  0  0  0  0  0  0  0  0  0  0  0
  149.8238  144.5687  158.4334 H   0  0  0  0  0  0  0  0  0  0  0  0
  149.5427  142.1344  157.8089 H   0  0  0  0  0  0  0  0  0  0  0  0
  150.9310  142.8896  157.0666 H   0  0  0  0  0  0  0  0  0  0  0  0
  150.9505  141.0682  159.5207 H   0  0  0  0  0  0  0  0  0  0  0  0
  149.7114  140.0430  157.4497 H   0  0  0  0  0  0  0  0  0  0  0  0
  151.4883  137.9627  156.4024 H   0  0  0  0  0  0  0  0  0  0  0  0
  149.7432  138.0350  156.3223 H   0  0  0  0  0  0  0  0  0  0  0  0
  151.5249  139.8836  154.6519 H   0  0  0  0  0  0  0  0  0  0  0  0
  150.9812  138.3322  154.0614 H   0  0  0  0  0  0  0  0  0  0  0  0
  149.9431  141.7930  154.8839 H   0  0  0  0  0  0  0  0  0  0  0  0
  147.7574  142.7435  154.1024 H   0  0  0  0  0  0  0  0  0  0  0  0
  146.0712  141.1942  153.0800 H   0  0  0  0  0  0  0  0  0  0  0  0
  148.5445  137.9217  153.5682 H   0  0  0  0  0  0  0  0  0  0  0  0
  153.3218  142.5316  158.2456 H   0  0  0  0  0  0  0  0  0  0  0  0
  153.4364  141.3634  159.5279 H   0  0  0  0  0  0  0  0  0  0  0  0
  1  2  1  0  0  0  0
  1 21  1  0  0  0  0
  1 22  1  0  0  0  0
  1 23  1  0  0  0  0
  2  3  2  0  0  0  0
  2  4  1  0  0  0  0
  4 20  1  0  0  0  0
  4  5  1  0  0  0  0
  5  6  1  0  0  0  0
  5 24  1  0  0  0  0
  5 25  1  0  0  0  0
  6  7  1  0  0  0  0
  6 26  1  0  0  0  0
  6 27  1  0  0  0  0
  7  8  1  0  0  0  0
  7 28  1  0  0  0  0
  7 29  1  0  0  0  0
  8  9  1  0  0  0  0
  8 20  1  0  0  0  0
  8 30  1  0  0  0  0
  9 10  2  0  0  0  0
  9 11  1  0  0  0  0
 11 12  1  0  0  0  0
 11 31  1  0  0  0  0
 12 13  1  0  0  0  0
 12 32  1  0  0  0  0
 12 33  1  0  0  0  0
 13 14  1  0  0  0  0
 13 34  1  0  0  0  0
 13 35  1  0  0  0  0
 14 19  1  0  0  0  0
 14 15  2  0  0  0  0
 15 16  1  0  0  0  0
 15 36  1  0  0  0  0
 16 17  2  0  0  0  0
 16 37  1  0  0  0  0
 17 18  1  0  0  0  0
 17 38  1  0  0  0  0
 18 19  2  0  0  0  0
 19 39  1  0  0  0  0
 20 40  1  0  0  0  0
 20 41  1  0  0  0  0
M  END
> <s_m_source_file>
AV-unprocessed.smi

> <i_m_source_file_index>
1769

> <i_lp_mmshare_version>
43012

> <i_f3d_flags>
0

> <s_epik_input>
W0NIM11DKD1PKU4xW0NIMl1bQ0gyXVtDSDJdW0NASF0oW0NIMl0xKUMoPU8pW05IXVtDSDJdW0NIMl1jMltjSF1bY0hdW2NIXW5bY0hdMg==

> <s_epik_cmdline>
J2VwaWtfcHl0aG9uJywgJy1waCcsICc3LjAnLCAnLXRuJywgJzgnLCAnLW1hJywgJzIwMCcsICctbWV0YWxfYmluZGluZycsICctaW1hZScsICc8aW5maWxlLm1hZT4nLCAnLW9tYWUnLCAnPG91dGZpbGUubWFlPic=

> <r_epik_Ionization_Penalty>
0.0134099

> <r_epik_Ionization_Penalty_Charging>
0

> <r_epik_Ionization_Penalty_Neutral>
0.0134099

> <r_epik_State_Penalty>
0.010434

> <r_epik_Charging_Adjusted_Penalty>
0.010434

> <i_epik_Tot_Q>
0

> <i_epik_Tot_abs_Q>
0

> <r_epik_Metal_State_Penalty>
0.0102025

> <b_epik_Metal_Only>
0

> <s_lp_Force_Field>
OPLS_2005

> <r_lp_Energy>
22.5889

> <b_lp_Chiralities_Consistent>
1

> <s_lp_Variant>
AV-unprocessed.smi:1769-1

> <Gold.Version>
5.8.1

> <Gold.Id.Protein>
6NUR|6NUR_protein|mol2

> <Gold.PLP.Fitness>
51.6008

> <Gold.PLP.PLP>
-43.8459

> <Gold.PLP.part.hbond>
-1.0000

> <Gold.PLP.part.metal>
0.0000

> <Gold.PLP.part.buried>
-4.0026

> <Gold.PLP.part.nonpolar>
-38.9315

> <Gold.PLP.part.repulsive>
0.3992

> <Gold.PLP.ligand.clash>
0.0000

> <Gold.PLP.ligand.torsion>
0.6179

> <Gold.PLP.Chemscore.Hbond>
1.0000

> <Gold.PLP.Chemscore.CHOScore>
1.9887

> <Gold.PLP.Chemscore.Metal>
0.0000

> <Gold.Chemscore.Hbonds>
donor molecule, donor type, donor heavy atom, donor atom, acceptor molecule, acceptor atom, score
      P1  H  7997  8009       L1    10  1.00
      L1  C    17    38       P1 10175  0.91
      L1  C    19    39       P1  7948  1.00

> <Gold.PLP.Chemscore.Internal.Correction>
0.0245

> <Gold.Rescore>
     Score         DG    S(hbond)    S(metal)    S(lipo)     H(rot)  DE(clash)    DE(int)     intcor
     16.15     -16.85       0.99        0.00     102.04       1.52       0.09       0.60       ----

> <Gold.Chemscore.Fitness>
16.1509

> <Gold.Chemscore.DG>
-16.8453

> <Gold.Chemscore.ZeroCoef>
-5.4800

> <Gold.Chemscore.Hbond>
0.9937

> <Gold.Chemscore.Metal>
0.0000

> <Gold.Chemscore.Lipo>
102.0414

> <Gold.Chemscore.Internal_Hbond>
0.0000

> <Gold.Chemscore.DEClash>
0.0898

> <Gold.Chemscore.DEInternal>
0.6047

> <Gold.Chemscore.Rot>
1.5205

> <Gold.Chemscore.Internal.Correction>
   9.000000E+99

> <Gold.Chemscore.Hbonds>
donor molecule, donor type, donor heavy atom, donor atom, acceptor molecule, acceptor atom, score
      P1  H  7997  8009       L1    10  0.97

> <Gold.Chemscore.Hbond.Weighted>
-3.3190

> <Gold.Chemscore.Metal.Weighted>
-0.0000

> <Gold.Chemscore.Lipo.Weighted>
-11.9388

> <Gold.Chemscore.Internal_Hbond.Weighted>
0.0000

> <Gold.Chemscore.DEClash.Weighted>
0.0898

> <Gold.Chemscore.DEInternal.Weighted>
0.6047

> <Gold.Chemscore.Rot.Weighted>
3.8926

> <Gold.Chemscore.Internal.Correction.Weighted>
   9.000000E+99

> <Gold.Protein.RotatedTorsions>
[ 6907 6896 6895 6894 ] final -125.62 input  -60.11 | X-H torsion
[ 7974 7965 7964 7962 ] final  -46.02 input  175.53 | X-H torsion
[ 8008 7997 7996 7995 ] final -177.49 input   59.86 | X-H torsion
[ 10167 10162 10161 10158 ] final  161.72 input  -65.29 | X-H torsion
[ 10718 10713 10712 10709 ] final  -93.50 input   66.30 | X-H torsion
[ 10763 10752 10751 10750 ] final  -90.07 input  -60.55 | X-H torsion
[ 11005 11000 10999 10996 ] final  137.47 input  -57.11 | X-H torsion

> <Gold.Protein.ActiveResidues>
 VAL166  LYS551  ARG553  GLY616  TRP617  ASP618  TYR619  PRO620  LYS621  CYS622 
 ASP623  PHE694  ASN695  SER759  ASP760  ASP761  ALA762  ILE779  LEU786  VAL792 
 PHE793  MET794  SER795  GLU796  ALA797  LYS798  CYS799  TRP800  GLU811  SER814 

> <Gold.Protein.RotatedAtoms>
  150.8886  133.7273  159.2910 H   0  0  0  0  0  0  0  0  0  0  0  0  # atno 6907 bound_to 6896
  151.4831  135.1052  159.9793 H   0  0  0  0  0  0  0  0  0  0  0  0  # atno 6908 bound_to 6896
  152.4806  133.8198  159.7103 H   0  0  0  0  0  0  0  0  0  0  0  0  # atno 6909 bound_to 6896
  145.9762  140.7332  142.9386 H   0  0  0  0  0  0  0  0  0  0  0  0  # atno 7974 bound_to 7965
  156.0076  140.1234  157.0486 H   0  0  0  0  0  0  0  0  0  0  0  0  # atno 8008 bound_to 7997
  154.4264  140.1094  156.5853 H   0  0  0  0  0  0  0  0  0  0  0  0  # atno 8009 bound_to 7997
  155.6125  140.3471  155.4629 H   0  0  0  0  0  0  0  0  0  0  0  0  # atno 8010 bound_to 7997
  139.4852  144.4509  151.8831 H   0  0  0  0  0  0  0  0  0  0  0  0  # atno 10167 bound_to 10162
  156.0014  130.5029  150.5786 H   0  0  0  0  0  0  0  0  0  0  0  0  # atno 10718 bound_to 10713
  154.6619  135.5318  153.8029 H   0  0  0  0  0  0  0  0  0  0  0  0  # atno 10763 bound_to 10752
  153.0447  135.6508  154.0858 H   0  0  0  0  0  0  0  0  0  0  0  0  # atno 10764 bound_to 10752
  154.0766  135.2950  155.3278 H   0  0  0  0  0  0  0  0  0  0  0  0  # atno 10765 bound_to 10752
  140.0116  134.9436  157.0289 H   0  0  0  0  0  0  0  0  0  0  0  0  # atno 11005 bound_to 11000
  144.6849  140.2831  143.7289 LP  0  0  0  0  0  0  0  0  0  0  0  0  # atno 17320 bound_to 7965
  145.7835  139.1900  143.2144 LP  0  0  0  0  0  0  0  0  0  0  0  0  # atno 17321 bound_to 7965
  140.3965  144.2548  150.5896 LP  0  0  0  0  0  0  0  0  0  0  0  0  # atno 17342 bound_to 10162
  140.5097  143.2294  151.8554 LP  0  0  0  0  0  0  0  0  0  0  0  0  # atno 17343 bound_to 10162
  157.3670  131.0759  151.1590 LP  0  0  0  0  0  0  0  0  0  0  0  0  # atno 17370 bound_to 10713
  157.2356  130.6545  149.5868 LP  0  0  0  0  0  0  0  0  0  0  0  0  # atno 17371 bound_to 10713
  140.4544  134.1548  155.7185 LP  0  0  0  0  0  0  0  0  0  0  0  0  # atno 17394 bound_to 11000
  141.1715  133.8600  157.1557 LP  0  0  0  0  0  0  0  0  0  0  0  0  # atno 17395 bound_to 11000

$$$$
