AV-unprocessed.smi:844|AV-procd|sdf|3926|dock4
  -GOLD-   22720 1383D 1   1.00000     0.00000
 Structure written by MMmdl.
 33 35  0  0  0  0  0  0  0  0  2 V2000
  150.0140  139.9335  157.5888 O   0  0  0  0  0  0  0  0  0  0  0  0
  151.2966  140.4968  157.4057 C   0  0  1  0  0  0  0  0  0  0  0  0
  151.5209  140.6912  155.8924 C   0  0  0  0  0  0  0  0  0  0  0  0
  150.6158  139.8705  155.0780 N   0  0  0  0  0  0  0  0  0  0  0  0
  150.7243  138.5709  154.6891 C   0  0  0  0  0  0  0  0  0  0  0  0
  149.6147  138.2665  153.9604 N   0  3  0  0  0  0  0  0  0  0  0  0
  148.7878  139.3890  153.8788 C   0  0  0  0  0  0  0  0  0  0  0  0
  147.5592  139.5735  153.2523 C   0  0  0  0  0  0  0  0  0  0  0  0
  146.9783  140.8542  153.3633 C   0  0  0  0  0  0  0  0  0  0  0  0
  147.6157  141.8915  154.0751 C   0  0  0  0  0  0  0  0  0  0  0  0
  148.8609  141.6930  154.7071 C   0  0  0  0  0  0  0  0  0  0  0  0
  149.4273  140.4242  154.5924 C   0  0  0  0  0  0  0  0  0  0  0  0
  151.4780  141.7947  158.1853 C   0  0  0  0  0  0  0  0  0  0  0  0
  150.7316  142.9435  157.8400 C   0  0  0  0  0  0  0  0  0  0  0  0
  150.9113  144.1486  158.5458 C   0  0  0  0  0  0  0  0  0  0  0  0
  151.8411  144.2150  159.6005 C   0  0  0  0  0  0  0  0  0  0  0  0
  152.0169  145.3745  160.2771 F   0  0  0  0  0  0  0  0  0  0  0  0
  152.5915  143.0758  159.9479 C   0  0  0  0  0  0  0  0  0  0  0  0
  152.4135  141.8694  159.2432 C   0  0  0  0  0  0  0  0  0  0  0  0
  153.1551  140.7872  159.5824 F   0  0  0  0  0  0  0  0  0  0  0  0
  149.9621  139.5833  158.4651 H   0  0  0  0  0  0  0  0  0  0  0  0
  152.0031  139.7567  157.7812 H   0  0  0  0  0  0  0  0  0  0  0  0
  151.3814  141.7346  155.6060 H   0  0  0  0  0  0  0  0  0  0  0  0
  152.5437  140.4283  155.6182 H   0  0  0  0  0  0  0  0  0  0  0  0
  151.5379  137.9002  154.9254 H   0  0  0  0  0  0  0  0  0  0  0  0
  147.0681  138.7809  152.7070 H   0  0  0  0  0  0  0  0  0  0  0  0
  146.0245  141.0450  152.8930 H   0  0  0  0  0  0  0  0  0  0  0  0
  147.1401  142.8595  154.1380 H   0  0  0  0  0  0  0  0  0  0  0  0
  149.3415  142.4926  155.2515 H   0  0  0  0  0  0  0  0  0  0  0  0
  150.0202  142.9064  157.0277 H   0  0  0  0  0  0  0  0  0  0  0  0
  150.3370  145.0227  158.2764 H   0  0  0  0  0  0  0  0  0  0  0  0
  153.3075  143.1281  160.7549 H   0  0  0  0  0  0  0  0  0  0  0  0
  149.4374  137.3582  153.5506 H   0  0  0  0  0  0  0  0  0  0  0  0
  1  2  1  0  0  0  0
  1 21  1  0  0  0  0
  2  3  1  0  0  0  0
  2 13  1  0  0  0  0
  2 22  1  0  0  0  0
  3  4  1  0  0  0  0
  3 23  1  0  0  0  0
  3 24  1  0  0  0  0
  4 12  1  0  0  0  0
  4  5  1  0  0  0  0
  5  6  2  0  0  0  0
  5 25  1  0  0  0  0
  6  7  1  0  0  0  0
  6 33  1  0  0  0  0
  7 12  2  0  0  0  0
  7  8  1  0  0  0  0
  8  9  2  0  0  0  0
  8 26  1  0  0  0  0
  9 10  1  0  0  0  0
  9 27  1  0  0  0  0
 10 11  2  0  0  0  0
 10 28  1  0  0  0  0
 11 12  1  0  0  0  0
 11 29  1  0  0  0  0
 13 19  1  0  0  0  0
 13 14  2  0  0  0  0
 14 15  1  0  0  0  0
 14 30  1  0  0  0  0
 15 16  2  0  0  0  0
 15 31  1  0  0  0  0
 16 17  1  0  0  0  0
 16 18  1  0  0  0  0
 18 19  2  0  0  0  0
 18 32  1  0  0  0  0
 19 20  1  0  0  0  0
M  CHG  1   6   1
M  END
> <s_m_source_file>
AV-unprocessed.smi

> <i_m_source_file_index>
844

> <i_lp_mmshare_version>
43012

> <i_f3d_flags>
0

> <s_epik_input>
RmMxW2NIXWMoRilbY0hdW2NIXWMxW0NASF0oW09IXSlbQ0gyXW4oW2NIXW4yKWMoYzIzKVtjSF1bY0hdW2NIXVtjSF0z

> <s_epik_cmdline>
J2VwaWtfcHl0aG9uJywgJy1waCcsICc3LjAnLCAnLXRuJywgJzgnLCAnLW1hJywgJzIwMCcsICctbWV0YWxfYmluZGluZycsICctaW1hZScsICc8aW5maWxlLm1hZT4nLCAnLW9tYWUnLCAnPG91dGZpbGUubWFlPic=

> <r_epik_Ionization_Penalty>
1.3029

> <r_epik_Ionization_Penalty_Charging>
1.3029

> <r_epik_Ionization_Penalty_Neutral>
1.79538e-06

> <r_epik_State_Penalty>
1.377

> <r_epik_Charging_Adjusted_Penalty>
2.6799

> <i_epik_Tot_Q>
1

> <i_epik_Tot_abs_Q>
1

> <r_epik_Metal_State_Penalty>
5.40879

> <b_epik_Metal_Only>
0

> <s_lp_Force_Field>
OPLS_2005

> <r_lp_Energy>
17.7817

> <b_lp_Chiralities_Consistent>
1

> <s_lp_Variant>
AV-unprocessed.smi:844-4

> <Gold.Version>
5.8.1

> <Gold.Id.Protein>
6NUR|6NUR_protein|mol2

> <Gold.PLP.Fitness>
51.8353

> <Gold.PLP.PLP>
-47.8392

> <Gold.PLP.part.hbond>
-1.1051

> <Gold.PLP.part.metal>
0.0000

> <Gold.PLP.part.buried>
-0.2784

> <Gold.PLP.part.nonpolar>
-46.0147

> <Gold.PLP.part.repulsive>
0.0403

> <Gold.PLP.ligand.clash>
0.0000

> <Gold.PLP.ligand.torsion>
0.9369

> <Gold.PLP.Chemscore.Hbond>
1.9520

> <Gold.PLP.Chemscore.CHOScore>
0.0000

> <Gold.PLP.Chemscore.Metal>
0.0000

> <Gold.Chemscore.Hbonds>
donor molecule, donor type, donor heavy atom, donor atom, acceptor molecule, acceptor atom, score
      L1  H     6    33       P1  7948  1.78

> <Gold.PLP.Chemscore.Internal.Correction>
0.0138

> <Gold.Rescore>
     Score         DG    S(hbond)    S(metal)    S(lipo)     H(rot)  DE(clash)    DE(int)     intcor
     14.48     -15.70       0.97        0.00     104.64       2.06       0.30       0.92       ----

> <Gold.Chemscore.Fitness>
14.4797

> <Gold.Chemscore.DG>
-15.7022

> <Gold.Chemscore.ZeroCoef>
-5.4800

> <Gold.Chemscore.Hbond>
0.9736

> <Gold.Chemscore.Metal>
0.0000

> <Gold.Chemscore.Lipo>
104.6435

> <Gold.Chemscore.Internal_Hbond>
0.0000

> <Gold.Chemscore.DEClash>
0.3050

> <Gold.Chemscore.DEInternal>
0.9175

> <Gold.Chemscore.Rot>
2.0597

> <Gold.Chemscore.Internal.Correction>
   9.000000E+99

> <Gold.Chemscore.Hbonds>
donor molecule, donor type, donor heavy atom, donor atom, acceptor molecule, acceptor atom, score
      L1  H     6    33       P1  7948  0.77

> <Gold.Chemscore.Hbond.Weighted>
-3.2517

> <Gold.Chemscore.Metal.Weighted>
-0.0000

> <Gold.Chemscore.Lipo.Weighted>
-12.2433

> <Gold.Chemscore.Internal_Hbond.Weighted>
0.0000

> <Gold.Chemscore.DEClash.Weighted>
0.3050

> <Gold.Chemscore.DEInternal.Weighted>
0.9175

> <Gold.Chemscore.Rot.Weighted>
5.2728

> <Gold.Chemscore.Internal.Correction.Weighted>
   9.000000E+99

> <Gold.Protein.RotatedTorsions>
[ 6907 6896 6895 6894 ] final  177.23 input  -60.11 | X-H torsion
[ 7974 7965 7964 7962 ] final -143.50 input  175.53 | X-H torsion
[ 8008 7997 7996 7995 ] final   57.87 input   59.86 | X-H torsion
[ 10167 10162 10161 10158 ] final -115.89 input  -65.29 | X-H torsion
[ 10718 10713 10712 10709 ] final  -33.57 input   66.30 | X-H torsion
[ 10763 10752 10751 10750 ] final  -48.36 input  -60.55 | X-H torsion
[ 11005 11000 10999 10996 ] final -173.63 input  -57.11 | X-H torsion

> <Gold.Protein.ActiveResidues>
 VAL166  LYS551  ARG553  GLY616  TRP617  ASP618  TYR619  PRO620  LYS621  CYS622 
 ASP623  PHE694  ASN695  SER759  ASP760  ASP761  ALA762  ILE779  LEU786  VAL792 
 PHE793  MET794  SER795  GLU796  ALA797  LYS798  CYS799  TRP800  GLU811  SER814 

> <Gold.Protein.RotatedAtoms>
  151.7073  133.3312  159.3281 H   0  0  0  0  0  0  0  0  0  0  0  0  # atno 6907 bound_to 6896
  150.7709  134.6563  159.6324 H   0  0  0  0  0  0  0  0  0  0  0  0  # atno 6908 bound_to 6896
  152.3733  134.6704  160.0220 H   0  0  0  0  0  0  0  0  0  0  0  0  # atno 6909 bound_to 6896
  144.8365  140.5827  143.5480 H   0  0  0  0  0  0  0  0  0  0  0  0  # atno 7974 bound_to 7965
  155.5409  140.3484  155.4446 H   0  0  0  0  0  0  0  0  0  0  0  0  # atno 8008 bound_to 7997
  156.0652  140.1349  156.9920 H   0  0  0  0  0  0  0  0  0  0  0  0  # atno 8009 bound_to 7997
  154.4499  140.0977  156.6561 H   0  0  0  0  0  0  0  0  0  0  0  0  # atno 8010 bound_to 7997
  140.0852  143.4750  152.1902 H   0  0  0  0  0  0  0  0  0  0  0  0  # atno 10167 bound_to 10162
  156.3611  130.4324  149.7623 H   0  0  0  0  0  0  0  0  0  0  0  0  # atno 10718 bound_to 10713
  154.0766  135.6597  153.4832 H   0  0  0  0  0  0  0  0  0  0  0  0  # atno 10763 bound_to 10752
  153.0371  135.5170  154.7515 H   0  0  0  0  0  0  0  0  0  0  0  0  # atno 10764 bound_to 10752
  154.6597  135.3013  154.9850 H   0  0  0  0  0  0  0  0  0  0  0  0  # atno 10765 bound_to 10752
  140.4835  134.6052  157.4928 H   0  0  0  0  0  0  0  0  0  0  0  0  # atno 11005 bound_to 11000
  145.4784  139.1497  143.3775 LP  0  0  0  0  0  0  0  0  0  0  0  0  # atno 17320 bound_to 7965
  146.2663  140.4919  142.8833 LP  0  0  0  0  0  0  0  0  0  0  0  0  # atno 17321 bound_to 7965
  139.5756  144.7486  151.3773 LP  0  0  0  0  0  0  0  0  0  0  0  0  # atno 17342 bound_to 10162
  140.7057  143.7520  150.7478 LP  0  0  0  0  0  0  0  0  0  0  0  0  # atno 17343 bound_to 10162
  156.4787  130.8030  151.3046 LP  0  0  0  0  0  0  0  0  0  0  0  0  # atno 17370 bound_to 10713
  157.7473  131.0013  150.2957 LP  0  0  0  0  0  0  0  0  0  0  0  0  # atno 17371 bound_to 10713
  139.9812  134.7135  155.9857 LP  0  0  0  0  0  0  0  0  0  0  0  0  # atno 17394 bound_to 11000
  141.1519  133.6547  156.4041 LP  0  0  0  0  0  0  0  0  0  0  0  0  # atno 17395 bound_to 11000

$$$$
