AV-unprocessed.smi:848|AV-procd|sdf|3939|dock8
  -GOLD-   22720 1403D 1   1.00000     0.00000
 Structure written by MMmdl.
 46 48  0  0  0  0  0  0  0  0  1 V2000
  151.9546  145.2781  158.8676 C   0  0  0  0  0  0  0  0  0  0  0  0
  152.0211  143.7648  158.8907 C   0  0  0  0  0  0  0  0  0  0  0  0
  152.7912  143.1014  159.8666 C   0  0  0  0  0  0  0  0  0  0  0  0
  152.8499  141.6945  159.8831 C   0  0  0  0  0  0  0  0  0  0  0  0
  153.6813  140.9873  160.9336 C   0  0  0  0  0  0  0  0  0  0  0  0
  152.1322  140.9533  158.9225 C   0  0  0  0  0  0  0  0  0  0  0  0
  151.3546  141.6011  157.9409 C   0  0  0  0  0  0  0  0  0  0  0  0
  150.6835  140.7962  157.0454 O   0  0  0  0  0  0  0  0  0  0  0  0
  149.9207  141.4171  156.0195 C   0  0  0  0  0  0  0  0  0  0  0  0
  149.3928  140.3331  155.0660 C   0  0  2  0  0  0  0  0  0  0  0  0
  150.3512  140.1244  154.0470 O   0  0  0  0  0  0  0  0  0  0  0  0
  148.0489  140.7391  154.4259 C   0  0  0  0  0  0  0  0  0  0  0  0
  147.0495  139.6798  154.4806 N   0  0  0  0  0  0  0  0  0  0  0  0
  146.4697  139.0235  153.4439 C   0  0  0  0  0  0  0  0  0  0  0  0
  146.8318  139.3365  152.0192 C   0  0  0  0  0  0  0  0  0  0  0  0
  147.5220  138.2944  151.3588 O   0  0  0  0  0  0  0  0  0  0  0  0
  145.5770  138.0891  153.7802 N   0  0  0  0  0  0  0  0  0  0  0  0
  145.5805  138.1438  155.1598 C   0  0  0  0  0  0  0  0  0  0  0  0
  144.8451  137.3997  156.1099 C   0  0  0  0  0  0  0  0  0  0  0  0
  145.0219  137.6313  157.4898 C   0  0  0  0  0  0  0  0  0  0  0  0
  145.9348  138.6076  157.9382 C   0  0  0  0  0  0  0  0  0  0  0  0
  146.6761  139.3614  157.0082 C   0  0  0  0  0  0  0  0  0  0  0  0
  146.4951  139.1269  155.6316 C   0  0  0  0  0  0  0  0  0  0  0  0
  151.3061  143.0180  157.9322 C   0  0  0  0  0  0  0  0  0  0  0  0
  152.6687  145.7191  159.5636 H   0  0  0  0  0  0  0  0  0  0  0  0
  150.9553  145.6151  159.1438 H   0  0  0  0  0  0  0  0  0  0  0  0
  152.1799  145.6527  157.8687 H   0  0  0  0  0  0  0  0  0  0  0  0
  153.3391  143.6700  160.6042 H   0  0  0  0  0  0  0  0  0  0  0  0
  153.7534  139.9184  160.7308 H   0  0  0  0  0  0  0  0  0  0  0  0
  153.2346  141.1193  161.9191 H   0  0  0  0  0  0  0  0  0  0  0  0
  154.6917  141.3967  160.9562 H   0  0  0  0  0  0  0  0  0  0  0  0
  152.1749  139.8738  158.9346 H   0  0  0  0  0  0  0  0  0  0  0  0
  149.0757  141.9291  156.4829 H   0  0  0  0  0  0  0  0  0  0  0  0
  150.5050  142.1620  155.4759 H   0  0  0  0  0  0  0  0  0  0  0  0
  149.2615  139.4004  155.6152 H   0  0  0  0  0  0  0  0  0  0  0  0
  149.8972  139.9527  153.2362 H   0  0  0  0  0  0  0  0  0  0  0  0
  147.6471  141.6250  154.9182 H   0  0  0  0  0  0  0  0  0  0  0  0
  148.1981  141.0201  153.3825 H   0  0  0  0  0  0  0  0  0  0  0  0
  145.9260  139.5565  151.4554 H   0  0  0  0  0  0  0  0  0  0  0  0
  147.4554  140.2304  151.9996 H   0  0  0  0  0  0  0  0  0  0  0  0
  147.3218  137.4790  151.7917 H   0  0  0  0  0  0  0  0  0  0  0  0
  144.1440  136.6492  155.7760 H   0  0  0  0  0  0  0  0  0  0  0  0
  144.4545  137.0568  158.2071 H   0  0  0  0  0  0  0  0  0  0  0  0
  146.0648  138.7781  158.9969 H   0  0  0  0  0  0  0  0  0  0  0  0
  147.3734  140.1116  157.3495 H   0  0  0  0  0  0  0  0  0  0  0  0
  150.7243  143.5554  157.1989 H   0  0  0  0  0  0  0  0  0  0  0  0
  1  2  1  0  0  0  0
  1 25  1  0  0  0  0
  1 26  1  0  0  0  0
  1 27  1  0  0  0  0
  2 24  1  0  0  0  0
  2  3  2  0  0  0  0
  3  4  1  0  0  0  0
  3 28  1  0  0  0  0
  4  5  1  0  0  0  0
  4  6  2  0  0  0  0
  5 29  1  0  0  0  0
  5 30  1  0  0  0  0
  5 31  1  0  0  0  0
  6  7  1  0  0  0  0
  6 32  1  0  0  0  0
  7  8  1  0  0  0  0
  7 24  2  0  0  0  0
  8  9  1  0  0  0  0
  9 10  1  0  0  0  0
  9 33  1  0  0  0  0
  9 34  1  0  0  0  0
 10 11  1  0  0  0  0
 10 12  1  0  0  0  0
 10 35  1  0  0  0  0
 11 36  1  0  0  0  0
 12 13  1  0  0  0  0
 12 37  1  0  0  0  0
 12 38  1  0  0  0  0
 13 23  1  0  0  0  0
 13 14  1  0  0  0  0
 14 15  1  0  0  0  0
 14 17  2  0  0  0  0
 15 16  1  0  0  0  0
 15 39  1  0  0  0  0
 15 40  1  0  0  0  0
 16 41  1  0  0  0  0
 17 18  1  0  0  0  0
 18 23  2  0  0  0  0
 18 19  1  0  0  0  0
 19 20  2  0  0  0  0
 19 42  1  0  0  0  0
 20 21  1  0  0  0  0
 20 43  1  0  0  0  0
 21 22  2  0  0  0  0
 21 44  1  0  0  0  0
 22 23  1  0  0  0  0
 22 45  1  0  0  0  0
 24 46  1  0  0  0  0
M  END
> <s_m_source_file>
AV-unprocessed.smi

> <i_m_source_file_index>
848

> <i_lp_mmshare_version>
43012

> <i_f3d_flags>
0

> <s_epik_input>
W0NIM11jMVtjSF1jKFtDSDNdKVtjSF1jKFtjSF0xKU9bQ0gyXVtDQEhdKFtPSF0pW0NIMl1uKGMobjIpW0NIMl1bT0hdKWMoYzIzKVtjSF1bY0hdW2NIXVtjSF0z

> <s_epik_cmdline>
J2VwaWtfcHl0aG9uJywgJy1waCcsICc3LjAnLCAnLXRuJywgJzgnLCAnLW1hJywgJzIwMCcsICctbWV0YWxfYmluZGluZycsICctaW1hZScsICc8aW5maWxlLm1hZT4nLCAnLW9tYWUnLCAnPG91dGZpbGUubWFlPic=

> <r_lp_tautomer_probability>
1

> <r_epik_Ionization_Penalty>
0.0554234

> <r_epik_Ionization_Penalty_Charging>
0

> <r_epik_Ionization_Penalty_Neutral>
0.0554234

> <r_epik_State_Penalty>
0.0476717

> <r_epik_Charging_Adjusted_Penalty>
0.0476717

> <i_epik_Tot_Q>
0

> <i_epik_Tot_abs_Q>
0

> <r_epik_Metal_State_Penalty>
4.96399e-05

> <b_epik_Metal_Only>
0

> <s_lp_Force_Field>
OPLS_2005

> <r_lp_Energy>
17.4445

> <b_lp_Chiralities_Consistent>
1

> <s_lp_Variant>
AV-unprocessed.smi:848-1

> <Gold.Version>
5.8.1

> <Gold.Id.Protein>
6NUR|6NUR_protein|mol2

> <Gold.PLP.Fitness>
50.5744

> <Gold.PLP.PLP>
-43.0937

> <Gold.PLP.part.hbond>
-4.6730

> <Gold.PLP.part.metal>
0.0000

> <Gold.PLP.part.buried>
-4.4491

> <Gold.PLP.part.nonpolar>
-34.6001

> <Gold.PLP.part.repulsive>
0.1593

> <Gold.PLP.ligand.clash>
0.0000

> <Gold.PLP.ligand.torsion>
1.1186

> <Gold.PLP.Chemscore.Hbond>
3.2237

> <Gold.PLP.Chemscore.CHOScore>
0.0000

> <Gold.PLP.Chemscore.Metal>
0.0000

> <Gold.Chemscore.Hbonds>
donor molecule, donor type, donor heavy atom, donor atom, acceptor molecule, acceptor atom, score
      L1  H    11    36       P1  7957  0.84
      L1  H    16    41       P1  7948  0.21
      P1  H  7954  7966       L1    16  1.00
      P1  H  7989  7998       L1    11  0.95

> <Gold.PLP.Chemscore.Internal.Correction>
0.0467

> <Gold.Rescore>
     Score         DG    S(hbond)    S(metal)    S(lipo)     H(rot)  DE(clash)    DE(int)     intcor
     18.80     -20.14       2.70        0.00     112.97       2.96       0.02       1.33       ----

> <Gold.Chemscore.Fitness>
18.7968

> <Gold.Chemscore.DG>
-20.1434

> <Gold.Chemscore.ZeroCoef>
-5.4800

> <Gold.Chemscore.Hbond>
2.6988

> <Gold.Chemscore.Metal>
0.0000

> <Gold.Chemscore.Lipo>
112.9662

> <Gold.Chemscore.Internal_Hbond>
0.0000

> <Gold.Chemscore.DEClash>
0.0182

> <Gold.Chemscore.DEInternal>
1.3284

> <Gold.Chemscore.Rot>
2.9561

> <Gold.Chemscore.Internal.Correction>
   9.000000E+99

> <Gold.Chemscore.Hbonds>
donor molecule, donor type, donor heavy atom, donor atom, acceptor molecule, acceptor atom, score
      L1  H    11    36       P1  7957  0.81
      L1  H    16    41       P1  7948  0.21
      P1  H  7954  7966       L1    16  0.54
      P1  H  7989  7998       L1    11  0.20

> <Gold.Chemscore.Hbond.Weighted>
-9.0140

> <Gold.Chemscore.Metal.Weighted>
-0.0000

> <Gold.Chemscore.Lipo.Weighted>
-13.2170

> <Gold.Chemscore.Internal_Hbond.Weighted>
0.0000

> <Gold.Chemscore.DEClash.Weighted>
0.0182

> <Gold.Chemscore.DEInternal.Weighted>
1.3284

> <Gold.Chemscore.Rot.Weighted>
7.5677

> <Gold.Chemscore.Internal.Correction.Weighted>
   9.000000E+99

> <Gold.Protein.RotatedTorsions>
[ 6907 6896 6895 6894 ] final   -1.98 input  -60.11 | X-H torsion
[ 7974 7965 7964 7962 ] final -171.11 input  175.53 | X-H torsion
[ 8008 7997 7996 7995 ] final  104.20 input   59.86 | X-H torsion
[ 10167 10162 10161 10158 ] final  100.20 input  -65.29 | X-H torsion
[ 10718 10713 10712 10709 ] final  101.29 input   66.30 | X-H torsion
[ 10763 10752 10751 10750 ] final  -89.53 input  -60.55 | X-H torsion
[ 11005 11000 10999 10996 ] final  174.00 input  -57.11 | X-H torsion

> <Gold.Protein.ActiveResidues>
 VAL166  LYS551  ARG553  GLY616  TRP617  ASP618  TYR619  PRO620  LYS621  CYS622 
 ASP623  PHE694  ASN695  SER759  ASP760  ASP761  ALA762  ILE779  LEU786  VAL792 
 PHE793  MET794  SER795  GLU796  ALA797  LYS798  CYS799  TRP800  GLU811  SER814 

> <Gold.Protein.RotatedAtoms>
  151.5372  135.1068  159.9917 H   0  0  0  0  0  0  0  0  0  0  0  0  # atno 6907 bound_to 6896
  152.4552  133.7704  159.6806 H   0  0  0  0  0  0  0  0  0  0  0  0  # atno 6908 bound_to 6896
  150.8493  133.7747  159.3056 H   0  0  0  0  0  0  0  0  0  0  0  0  # atno 6909 bound_to 6896
  144.7161  140.1971  143.6342 H   0  0  0  0  0  0  0  0  0  0  0  0  # atno 7974 bound_to 7965
  156.1552  140.3152  155.8714 H   0  0  0  0  0  0  0  0  0  0  0  0  # atno 8008 bound_to 7997
  155.3892  140.0492  157.3058 H   0  0  0  0  0  0  0  0  0  0  0  0  # atno 8009 bound_to 7997
  154.5095  140.2159  155.9196 H   0  0  0  0  0  0  0  0  0  0  0  0  # atno 8010 bound_to 7997
  139.7549  144.6973  151.0378 H   0  0  0  0  0  0  0  0  0  0  0  0  # atno 10167 bound_to 10162
  157.6833  131.0722  150.5230 H   0  0  0  0  0  0  0  0  0  0  0  0  # atno 10718 bound_to 10713
  154.6562  135.5337  153.7962 H   0  0  0  0  0  0  0  0  0  0  0  0  # atno 10763 bound_to 10752
  153.0415  135.6494  154.0941 H   0  0  0  0  0  0  0  0  0  0  0  0  # atno 10764 bound_to 10752
  154.0854  135.2944  155.3262 H   0  0  0  0  0  0  0  0  0  0  0  0  # atno 10765 bound_to 10752
  140.3466  134.7231  157.4239 H   0  0  0  0  0  0  0  0  0  0  0  0  # atno 11005 bound_to 11000
  145.8714  139.2274  143.1658 LP  0  0  0  0  0  0  0  0  0  0  0  0  # atno 17320 bound_to 7965
  146.0081  140.8460  142.9985 LP  0  0  0  0  0  0  0  0  0  0  0  0  # atno 17321 bound_to 7965
  140.7801  143.4765  151.0075 LP  0  0  0  0  0  0  0  0  0  0  0  0  # atno 17342 bound_to 10162
  139.8452  143.7510  152.3179 LP  0  0  0  0  0  0  0  0  0  0  0  0  # atno 17343 bound_to 10162
  156.5543  130.4239  149.6093 LP  0  0  0  0  0  0  0  0  0  0  0  0  # atno 17370 bound_to 10713
  156.2876  130.7106  151.1946 LP  0  0  0  0  0  0  0  0  0  0  0  0  # atno 17371 bound_to 10713
  140.0737  134.5827  155.8614 LP  0  0  0  0  0  0  0  0  0  0  0  0  # atno 17394 bound_to 11000
  141.2024  133.6624  156.6003 LP  0  0  0  0  0  0  0  0  0  0  0  0  # atno 17395 bound_to 11000

$$$$
