AV-unprocessed.smi:3162|AV-procd|sdf|12069|dock10
  -GOLD-   2272017503D 1   1.00000     0.00000
 Structure written by MMmdl.
 36 36  0  0  0  0  0  0  0  0  1 V2000
  153.7885  138.5806  154.2398 C   0  0  0  0  0  0  0  0  0  0  0  0
  152.8056  138.8218  155.3968 C   0  0  0  0  0  0  0  0  0  0  0  0
  151.3429  139.0505  154.9553 C   0  0  2  0  0  0  0  0  0  0  0  0
  150.5506  139.5070  156.1135 N   0  0  0  0  0  0  0  0  0  0  0  0
  150.7712  140.8892  156.5355 C   0  0  1  0  0  0  0  0  0  0  0  0
  149.9415  141.8368  155.6481 C   0  0  0  0  0  0  0  0  0  0  0  0
  150.3895  140.9860  158.0269 C   0  0  0  0  0  0  0  0  0  0  0  0
  150.9935  142.1270  158.6915 N   0  0  0  0  0  0  0  0  0  0  0  0
  150.8295  143.4677  158.4145 C   0  0  0  0  0  0  0  0  0  0  0  0
  151.5918  144.1680  159.3063 C   0  0  0  0  0  0  0  0  0  0  0  0
  151.7668  145.6541  159.4300 C   0  0  0  0  0  0  0  0  0  0  0  0
  152.1901  143.1494  160.1013 C   0  0  0  0  0  0  0  0  0  0  0  0
  151.8288  141.9308  159.7338 N   0  0  0  0  0  0  0  0  0  0  0  0
  150.7475  137.8021  154.2778 C   0  0  0  0  0  0  0  0  0  0  0  0
  149.5823  137.9488  153.6416 N   0  0  0  0  0  0  0  0  0  0  0  0
  151.3233  136.7176  154.3443 O   0  0  0  0  0  0  0  0  0  0  0  0
  154.8102  138.5034  154.6122 H   0  0  0  0  0  0  0  0  0  0  0  0
  153.7593  139.4000  153.5212 H   0  0  0  0  0  0  0  0  0  0  0  0
  153.5658  137.6565  153.7062 H   0  0  0  0  0  0  0  0  0  0  0  0
  152.8612  137.9880  156.0982 H   0  0  0  0  0  0  0  0  0  0  0  0
  153.1473  139.6972  155.9507 H   0  0  0  0  0  0  0  0  0  0  0  0
  151.3491  139.8622  154.2250 H   0  0  0  0  0  0  0  0  0  0  0  0
  149.5637  139.3280  155.9938 H   0  0  0  0  0  0  0  0  0  0  0  0
  151.8274  141.1478  156.4471 H   0  0  0  0  0  0  0  0  0  0  0  0
  150.1125  142.8797  155.9152 H   0  0  0  0  0  0  0  0  0  0  0  0
  148.8737  141.6407  155.7495 H   0  0  0  0  0  0  0  0  0  0  0  0
  150.1978  141.7337  154.5942 H   0  0  0  0  0  0  0  0  0  0  0  0
  149.3065  141.0587  158.1387 H   0  0  0  0  0  0  0  0  0  0  0  0
  150.6965  140.0827  158.5569 H   0  0  0  0  0  0  0  0  0  0  0  0
  150.1922  143.8089  157.6119 H   0  0  0  0  0  0  0  0  0  0  0  0
  151.9347  145.9564  160.4640 H   0  0  0  0  0  0  0  0  0  0  0  0
  150.8894  146.1962  159.0767 H   0  0  0  0  0  0  0  0  0  0  0  0
  152.6189  146.0073  158.8491 H   0  0  0  0  0  0  0  0  0  0  0  0
  152.8715  143.2595  160.9321 H   0  0  0  0  0  0  0  0  0  0  0  0
  149.1571  137.1576  153.1805 H   0  0  0  0  0  0  0  0  0  0  0  0
  149.1325  138.8525  153.6216 H   0  0  0  0  0  0  0  0  0  0  0  0
  1  2  1  0  0  0  0
  1 17  1  0  0  0  0
  1 18  1  0  0  0  0
  1 19  1  0  0  0  0
  2  3  1  0  0  0  0
  2 20  1  0  0  0  0
  2 21  1  0  0  0  0
  3  4  1  0  0  0  0
  3 14  1  0  0  0  0
  3 22  1  0  0  0  0
  4  5  1  0  0  0  0
  4 23  1  0  0  0  0
  5  6  1  0  0  0  0
  5  7  1  0  0  0  0
  5 24  1  0  0  0  0
  6 25  1  0  0  0  0
  6 26  1  0  0  0  0
  6 27  1  0  0  0  0
  7  8  1  0  0  0  0
  7 28  1  0  0  0  0
  7 29  1  0  0  0  0
  8 13  1  0  0  0  0
  8  9  1  0  0  0  0
  9 10  2  0  0  0  0
  9 30  1  0  0  0  0
 10 11  1  0  0  0  0
 10 12  1  0  0  0  0
 11 31  1  0  0  0  0
 11 32  1  0  0  0  0
 11 33  1  0  0  0  0
 12 13  2  0  0  0  0
 12 34  1  0  0  0  0
 14 15  1  0  0  0  0
 14 16  2  0  0  0  0
 15 35  1  0  0  0  0
 15 36  1  0  0  0  0
M  END
> <s_m_source_file>
AV-unprocessed.smi

> <i_m_source_file_index>
3162

> <i_lp_mmshare_version>
43012

> <i_f3d_flags>
0

> <s_epik_input>
W0NIM11bQ0gyXVtDQEBIXShDKD1PKVtOSDJdKVtOSF1bQ0BIXShbQ0gzXSlbQ0gyXW4xW2NIXWMoW0NIM10pW2NIXW4x

> <s_epik_cmdline>
J2VwaWtfcHl0aG9uJywgJy1waCcsICc3LjAnLCAnLXRuJywgJzgnLCAnLW1hJywgJzIwMCcsICctbWV0YWxfYmluZGluZycsICctaW1hZScsICc8aW5maWxlLm1hZT4nLCAnLW9tYWUnLCAnPG91dGZpbGUubWFlPic=

> <r_lp_tautomer_probability>
1

> <r_epik_Ionization_Penalty>
1.04167

> <r_epik_Ionization_Penalty_Charging>
0

> <r_epik_Ionization_Penalty_Neutral>
1.04167

> <r_epik_State_Penalty>
1.09367

> <r_epik_Charging_Adjusted_Penalty>
1.09367

> <i_epik_Tot_Q>
0

> <i_epik_Tot_abs_Q>
0

> <r_epik_Metal_State_Penalty>
1.09362

> <b_epik_Metal_Only>
0

> <s_lp_Force_Field>
OPLS_2005

> <r_lp_Energy>
3.23366

> <b_lp_Chiralities_Consistent>
1

> <s_lp_Variant>
AV-unprocessed.smi:3162-7

> <Gold.Version>
5.8.1

> <Gold.Id.Protein>
6NUR|6NUR_protein|mol2

> <Gold.PLP.Fitness>
41.3724

> <Gold.PLP.PLP>
-33.9088

> <Gold.PLP.part.hbond>
-2.7962

> <Gold.PLP.part.metal>
0.0000

> <Gold.PLP.part.buried>
-0.9419

> <Gold.PLP.part.nonpolar>
-31.0227

> <Gold.PLP.part.repulsive>
1.1191

> <Gold.PLP.ligand.clash>
0.0000

> <Gold.PLP.ligand.torsion>
0.8152

> <Gold.PLP.Chemscore.Hbond>
2.0000

> <Gold.PLP.Chemscore.CHOScore>
0.9953

> <Gold.PLP.Chemscore.Metal>
0.0000

> <Gold.Chemscore.Hbonds>
donor molecule, donor type, donor heavy atom, donor atom, acceptor molecule, acceptor atom, score
      L1  H    15    35       P1  7948  0.98
      P1  H 10752 10764       L1    16  1.00
      L1  C     9    30       P1  8028  1.00

> <Gold.PLP.Chemscore.Internal.Correction>
0.1082

> <Gold.Rescore>
     Score         DG    S(hbond)    S(metal)    S(lipo)     H(rot)  DE(clash)    DE(int)     intcor
     15.10     -16.14       1.90        0.00      90.07       2.43       0.09       0.95       ----

> <Gold.Chemscore.Fitness>
15.0973

> <Gold.Chemscore.DG>
-16.1368

> <Gold.Chemscore.ZeroCoef>
-5.4800

> <Gold.Chemscore.Hbond>
1.9003

> <Gold.Chemscore.Metal>
0.0000

> <Gold.Chemscore.Lipo>
90.0656

> <Gold.Chemscore.Internal_Hbond>
0.0000

> <Gold.Chemscore.DEClash>
0.0926

> <Gold.Chemscore.DEInternal>
0.9468

> <Gold.Chemscore.Rot>
2.4328

> <Gold.Chemscore.Internal.Correction>
   9.000000E+99

> <Gold.Chemscore.Hbonds>
donor molecule, donor type, donor heavy atom, donor atom, acceptor molecule, acceptor atom, score
      L1  H    15    35       P1  7948  0.92
      P1  H 10752 10764       L1    16  0.97

> <Gold.Chemscore.Hbond.Weighted>
-6.3470

> <Gold.Chemscore.Metal.Weighted>
-0.0000

> <Gold.Chemscore.Lipo.Weighted>
-10.5377

> <Gold.Chemscore.Internal_Hbond.Weighted>
0.0000

> <Gold.Chemscore.DEClash.Weighted>
0.0926

> <Gold.Chemscore.DEInternal.Weighted>
0.9468

> <Gold.Chemscore.Rot.Weighted>
6.2279

> <Gold.Chemscore.Internal.Correction.Weighted>
   9.000000E+99

> <Gold.Protein.RotatedTorsions>
[ 6907 6896 6895 6894 ] final  -27.99 input  -60.11 | X-H torsion
[ 7974 7965 7964 7962 ] final  -83.09 input  175.53 | X-H torsion
[ 8008 7997 7996 7995 ] final  147.19 input   59.86 | X-H torsion
[ 10167 10162 10161 10158 ] final  -87.85 input  -65.29 | X-H torsion
[ 10718 10713 10712 10709 ] final  -68.17 input   66.30 | X-H torsion
[ 10763 10752 10751 10750 ] final  -90.28 input  -60.55 | X-H torsion
[ 11005 11000 10999 10996 ] final  -24.06 input  -57.11 | X-H torsion

> <Gold.Protein.ActiveResidues>
 VAL166  LYS551  ARG553  GLY616  TRP617  ASP618  TYR619  PRO620  LYS621  CYS622 
 ASP623  PHE694  ASN695  SER759  ASP760  ASP761  ALA762  ILE779  LEU786  VAL792 
 PHE793  MET794  SER795  GLU796  ALA797  LYS798  CYS799  TRP800  GLU811  SER814 

> <Gold.Protein.RotatedAtoms>
  151.1392  135.0170  159.8617 H   0  0  0  0  0  0  0  0  0  0  0  0  # atno 6907 bound_to 6896
  152.5452  134.1519  159.8532 H   0  0  0  0  0  0  0  0  0  0  0  0  # atno 6908 bound_to 6896
  151.1593  133.4810  159.2627 H   0  0  0  0  0  0  0  0  0  0  0  0  # atno 6909 bound_to 6896
  145.5246  140.9528  143.1636 H   0  0  0  0  0  0  0  0  0  0  0  0  # atno 7974 bound_to 7965
  156.2832  140.2162  156.5498 H   0  0  0  0  0  0  0  0  0  0  0  0  # atno 8008 bound_to 7997
  154.7300  140.0496  157.0740 H   0  0  0  0  0  0  0  0  0  0  0  0  # atno 8009 bound_to 7997
  155.0366  140.3141  155.4742 H   0  0  0  0  0  0  0  0  0  0  0  0  # atno 8010 bound_to 7997
  140.3804  143.2751  151.9390 H   0  0  0  0  0  0  0  0  0  0  0  0  # atno 10167 bound_to 10162
  156.0519  130.4290  150.1961 H   0  0  0  0  0  0  0  0  0  0  0  0  # atno 10718 bound_to 10713
  154.6641  135.5310  153.8055 H   0  0  0  0  0  0  0  0  0  0  0  0  # atno 10763 bound_to 10752
  153.0460  135.6513  154.0826 H   0  0  0  0  0  0  0  0  0  0  0  0  # atno 10764 bound_to 10752
  154.0732  135.2952  155.3284 H   0  0  0  0  0  0  0  0  0  0  0  0  # atno 10765 bound_to 10752
  140.8810  133.7654  156.0302 H   0  0  0  0  0  0  0  0  0  0  0  0  # atno 11005 bound_to 11000
  144.7658  139.6849  143.7215 LP  0  0  0  0  0  0  0  0  0  0  0  0  # atno 17320 bound_to 7965
  146.2084  139.5424  142.9697 LP  0  0  0  0  0  0  0  0  0  0  0  0  # atno 17321 bound_to 7965
  139.4796  144.5823  151.7911 LP  0  0  0  0  0  0  0  0  0  0  0  0  # atno 17342 bound_to 10162
  140.4943  144.1264  150.5957 LP  0  0  0  0  0  0  0  0  0  0  0  0  # atno 17343 bound_to 10162
  157.0043  130.9932  151.3382 LP  0  0  0  0  0  0  0  0  0  0  0  0  # atno 17370 bound_to 10713
  157.5453  130.8147  149.8078 LP  0  0  0  0  0  0  0  0  0  0  0  0  # atno 17371 bound_to 10713
  140.8461  134.3009  157.5294 LP  0  0  0  0  0  0  0  0  0  0  0  0  # atno 17394 bound_to 11000
  139.8720  134.9442  156.3876 LP  0  0  0  0  0  0  0  0  0  0  0  0  # atno 17395 bound_to 11000

$$$$
