AV-unprocessed.smi:2108|AV-procd|sdf|8605|dock6
  -GOLD-   2272011343D 1   1.00000     0.00000
 Structure written by MMmdl.
 34 35  0  0  0  0  0  0  0  0  2 V2000
  153.2913  137.4316  156.5619 O   0  0  0  0  0  0  0  0  0  0  0  0
  152.4291  138.1394  157.5226 S   0  0  0  0  0  0  0  0  0  0  0  0
  151.8676  137.3639  158.6410 O   0  0  0  0  0  0  0  0  0  0  0  0
  153.0293  139.5804  157.9586 N   0  5  0  0  0  0  0  0  0  0  0  0
  152.5678  140.1885  159.1939 C   0  0  0  0  0  0  0  0  0  0  0  0
  153.4203  141.4350  159.5143 C   0  0  0  0  0  0  0  0  0  0  0  0
  152.6650  142.7553  159.3980 C   0  0  0  0  0  0  0  0  0  0  0  0
  152.6059  143.6500  160.4912 C   0  0  0  0  0  0  0  0  0  0  0  0
  151.9044  144.8610  160.3355 C   0  0  0  0  0  0  0  0  0  0  0  0
  151.2941  145.1377  159.0973 C   0  0  0  0  0  0  0  0  0  0  0  0
  151.4139  144.1867  158.0648 C   0  0  0  0  0  0  0  0  0  0  0  0
  152.0843  143.0232  158.2027 N   0  0  0  0  0  0  0  0  0  0  0  0
  151.0661  138.7279  156.6207 N   0  0  0  0  0  0  0  0  0  0  0  0
  151.3259  139.3278  155.2961 C   0  0  0  0  0  0  0  0  0  0  0  0
  150.0159  139.5748  154.5312 C   0  0  0  0  0  0  0  0  0  0  0  0
  149.1290  140.3541  155.3186 O   0  0  0  0  0  0  0  0  0  0  0  0
  148.7732  139.6781  156.5144 C   0  0  0  0  0  0  0  0  0  0  0  0
  150.0209  139.4362  157.3792 C   0  0  0  0  0  0  0  0  0  0  0  0
  151.5201  140.4833  159.1252 H   0  0  0  0  0  0  0  0  0  0  0  0
  152.6290  139.4900  160.0292 H   0  0  0  0  0  0  0  0  0  0  0  0
  153.8251  141.3550  160.5243 H   0  0  0  0  0  0  0  0  0  0  0  0
  154.2836  141.4714  158.8477 H   0  0  0  0  0  0  0  0  0  0  0  0
  153.0840  143.4101  161.4298 H   0  0  0  0  0  0  0  0  0  0  0  0
  151.8360  145.5654  161.1512 H   0  0  0  0  0  0  0  0  0  0  0  0
  150.7485  146.0567  158.9420 H   0  0  0  0  0  0  0  0  0  0  0  0
  150.9604  144.3665  157.1015 H   0  0  0  0  0  0  0  0  0  0  0  0
  151.8590  140.2689  155.4356 H   0  0  0  0  0  0  0  0  0  0  0  0
  151.9742  138.6824  154.7043 H   0  0  0  0  0  0  0  0  0  0  0  0
  150.2214  140.1071  153.6023 H   0  0  0  0  0  0  0  0  0  0  0  0
  149.5447  138.6298  154.2560 H   0  0  0  0  0  0  0  0  0  0  0  0
  148.0525  140.2857  157.0617 H   0  0  0  0  0  0  0  0  0  0  0  0
  148.2767  138.7353  156.2788 H   0  0  0  0  0  0  0  0  0  0  0  0
  149.7435  138.8575  158.2600 H   0  0  0  0  0  0  0  0  0  0  0  0
  150.4252  140.3855  157.7324 H   0  0  0  0  0  0  0  0  0  0  0  0
  1  2  2  0  0  0  0
  2  3  2  0  0  0  0
  2  4  1  0  0  0  0
  2 13  1  0  0  0  0
  4  5  1  0  0  0  0
  5  6  1  0  0  0  0
  5 19  1  0  0  0  0
  5 20  1  0  0  0  0
  6  7  1  0  0  0  0
  6 21  1  0  0  0  0
  6 22  1  0  0  0  0
  7 12  1  0  0  0  0
  7  8  2  0  0  0  0
  8  9  1  0  0  0  0
  8 23  1  0  0  0  0
  9 10  2  0  0  0  0
  9 24  1  0  0  0  0
 10 11  1  0  0  0  0
 10 25  1  0  0  0  0
 11 12  2  0  0  0  0
 11 26  1  0  0  0  0
 13 18  1  0  0  0  0
 13 14  1  0  0  0  0
 14 15  1  0  0  0  0
 14 27  1  0  0  0  0
 14 28  1  0  0  0  0
 15 16  1  0  0  0  0
 15 29  1  0  0  0  0
 15 30  1  0  0  0  0
 16 17  1  0  0  0  0
 17 18  1  0  0  0  0
 17 31  1  0  0  0  0
 17 32  1  0  0  0  0
 18 33  1  0  0  0  0
 18 34  1  0  0  0  0
M  CHG  1   4  -1
M  END
> <s_m_source_file>
AV-unprocessed.smi

> <i_m_source_file_index>
2108

> <i_lp_mmshare_version>
43012

> <i_f3d_flags>
0

> <s_epik_input>
W0NIMl0xW0NIMl1PW0NIMl1bQ0gyXU4xUyg9TykoPU8pW05IXVtDSDJdW0NIMl1jMltjSF1bY0hdW2NIXVtjSF1uMg==

> <s_epik_cmdline>
J2VwaWtfcHl0aG9uJywgJy1waCcsICc3LjAnLCAnLXRuJywgJzgnLCAnLW1hJywgJzIwMCcsICctbWV0YWxfYmluZGluZycsICctaW1hZScsICc8aW5maWxlLm1hZT4nLCAnLW9tYWUnLCAnPG91dGZpbGUubWFlPic=

> <r_epik_Ionization_Penalty>
1.27779

> <r_epik_Ionization_Penalty_Charging>
1.20871

> <r_epik_Ionization_Penalty_Neutral>
0.0690773

> <r_epik_State_Penalty>
1.64557

> <r_epik_Charging_Adjusted_Penalty>
2.85428

> <i_epik_Tot_Q>
-1

> <i_epik_Tot_abs_Q>
1

> <r_epik_Metal_State_Penalty>
0.643506

> <b_epik_Metal_Only>
0

> <s_lp_Force_Field>
OPLS_2005

> <r_lp_Energy>
7.47044

> <b_lp_Chiralities_Consistent>
1

> <s_lp_Variant>
AV-unprocessed.smi:2108-2

> <Gold.Version>
5.8.1

> <Gold.Id.Protein>
6NUR|6NUR_protein|mol2

> <Gold.PLP.Fitness>
43.1652

> <Gold.PLP.PLP>
-34.7656

> <Gold.PLP.part.hbond>
-1.5995

> <Gold.PLP.part.metal>
0.0000

> <Gold.PLP.part.buried>
-3.8436

> <Gold.PLP.part.nonpolar>
-29.2063

> <Gold.PLP.part.repulsive>
0.1079

> <Gold.PLP.ligand.clash>
0.0000

> <Gold.PLP.ligand.torsion>
1.1892

> <Gold.PLP.Chemscore.Hbond>
2.0853

> <Gold.PLP.Chemscore.CHOScore>
1.0000

> <Gold.PLP.Chemscore.Metal>
0.0000

> <Gold.Chemscore.Hbonds>
donor molecule, donor type, donor heavy atom, donor atom, acceptor molecule, acceptor atom, score
      P1  H  7997  8009       L1     4  2.00
      P1  H 10752 10764       L1     1  0.07
      L1  C    11    26       P1  8028  1.00

> <Gold.PLP.Chemscore.Internal.Correction>
1.5221

> <Gold.Rescore>
     Score         DG    S(hbond)    S(metal)    S(lipo)     H(rot)  DE(clash)    DE(int)     intcor
     16.52     -17.88       1.55        0.00      95.99       1.56       0.17       1.19       ----

> <Gold.Chemscore.Fitness>
16.5185

> <Gold.Chemscore.DG>
-17.8815

> <Gold.Chemscore.ZeroCoef>
-5.4800

> <Gold.Chemscore.Hbond>
1.5486

> <Gold.Chemscore.Metal>
0.0000

> <Gold.Chemscore.Lipo>
95.9876

> <Gold.Chemscore.Internal_Hbond>
0.0000

> <Gold.Chemscore.DEClash>
0.1739

> <Gold.Chemscore.DEInternal>
1.1891

> <Gold.Chemscore.Rot>
1.5630

> <Gold.Chemscore.Internal.Correction>
   9.000000E+99

> <Gold.Chemscore.Hbonds>
donor molecule, donor type, donor heavy atom, donor atom, acceptor molecule, acceptor atom, score
      P1  H  7997  8009       L1     4  0.85
      P1  H 10752 10764       L1     1  0.09

> <Gold.Chemscore.Hbond.Weighted>
-5.1722

> <Gold.Chemscore.Metal.Weighted>
-0.0000

> <Gold.Chemscore.Lipo.Weighted>
-11.2306

> <Gold.Chemscore.Internal_Hbond.Weighted>
0.0000

> <Gold.Chemscore.DEClash.Weighted>
0.1739

> <Gold.Chemscore.DEInternal.Weighted>
1.1891

> <Gold.Chemscore.Rot.Weighted>
4.0013

> <Gold.Chemscore.Internal.Correction.Weighted>
   9.000000E+99

> <Gold.Protein.RotatedTorsions>
[ 6907 6896 6895 6894 ] final  -51.03 input  -60.11 | X-H torsion
[ 7974 7965 7964 7962 ] final   41.57 input  175.53 | X-H torsion
[ 8008 7997 7996 7995 ] final  157.85 input   59.86 | X-H torsion
[ 10167 10162 10161 10158 ] final   66.33 input  -65.29 | X-H torsion
[ 10718 10713 10712 10709 ] final -120.31 input   66.30 | X-H torsion
[ 10763 10752 10751 10750 ] final   -5.10 input  -60.55 | X-H torsion
[ 11005 11000 10999 10996 ] final  -39.43 input  -57.11 | X-H torsion

> <Gold.Protein.ActiveResidues>
 VAL166  LYS551  ARG553  GLY616  TRP617  ASP618  TYR619  PRO620  LYS621  CYS622 
 ASP623  PHE694  ASN695  SER759  ASP760  ASP761  ALA762  ILE779  LEU786  VAL792 
 PHE793  MET794  SER795  GLU796  ALA797  LYS798  CYS799  TRP800  GLU811  SER814 

> <Gold.Protein.RotatedAtoms>
  150.8650  134.8011  159.7111 H   0  0  0  0  0  0  0  0  0  0  0  0  # atno 6907 bound_to 6896
  152.4675  134.5038  159.9742 H   0  0  0  0  0  0  0  0  0  0  0  0  # atno 6908 bound_to 6896
  151.5136  133.3442  159.2924 H   0  0  0  0  0  0  0  0  0  0  0  0  # atno 6909 bound_to 6896
  146.0812  139.5400  142.9535 H   0  0  0  0  0  0  0  0  0  0  0  0  # atno 7974 bound_to 7965
  156.2339  140.1874  156.7171 H   0  0  0  0  0  0  0  0  0  0  0  0  # atno 8008 bound_to 7997
  154.6071  140.0627  156.9473 H   0  0  0  0  0  0  0  0  0  0  0  0  # atno 8009 bound_to 7997
  155.2077  140.3297  155.4336 H   0  0  0  0  0  0  0  0  0  0  0  0  # atno 8010 bound_to 7997
  140.1016  144.4898  150.7034 H   0  0  0  0  0  0  0  0  0  0  0  0  # atno 10167 bound_to 10162
  156.1248  130.6351  150.9524 H   0  0  0  0  0  0  0  0  0  0  0  0  # atno 10718 bound_to 10713
  153.3940  135.7003  153.6474 H   0  0  0  0  0  0  0  0  0  0  0  0  # atno 10763 bound_to 10752
  153.5035  135.3647  155.2552 H   0  0  0  0  0  0  0  0  0  0  0  0  # atno 10764 bound_to 10752
  154.8705  135.4117  154.3262 H   0  0  0  0  0  0  0  0  0  0  0  0  # atno 10765 bound_to 10752
  141.0101  133.6912  156.2186 H   0  0  0  0  0  0  0  0  0  0  0  0  # atno 11005 bound_to 11000
  145.6213  141.0322  143.1913 LP  0  0  0  0  0  0  0  0  0  0  0  0  # atno 17320 bound_to 7965
  144.7295  139.7770  143.7352 LP  0  0  0  0  0  0  0  0  0  0  0  0  # atno 17321 bound_to 7965
  140.6975  143.2413  151.4960 LP  0  0  0  0  0  0  0  0  0  0  0  0  # atno 17342 bound_to 10162
  139.5668  144.2023  152.1777 LP  0  0  0  0  0  0  0  0  0  0  0  0  # atno 17343 bound_to 10162
  157.6430  131.0908  150.8212 LP  0  0  0  0  0  0  0  0  0  0  0  0  # atno 17370 bound_to 10713
  156.8304  130.5014  149.5332 LP  0  0  0  0  0  0  0  0  0  0  0  0  # atno 17371 bound_to 10713
  140.6747  134.4830  157.5588 LP  0  0  0  0  0  0  0  0  0  0  0  0  # atno 17394 bound_to 11000
  139.9085  134.8396  156.1615 LP  0  0  0  0  0  0  0  0  0  0  0  0  # atno 17395 bound_to 11000

$$$$
