AV-unprocessed.smi:212|AV-procd|sdf|1632|dock2
  -GOLD-   2262019583D 1   1.00000     0.00000
 Structure written by MMmdl.
 65 68  0  0  0  0  0  0  0  0  2 V2000
  147.4577  133.7870  158.7926 C   0  0  0  0  0  0  0  0  0  0  0  0
  148.1273  133.6230  157.4143 C   0  0  1  0  0  0  0  0  0  0  0  0
  147.1020  133.5767  156.2636 C   0  0  0  0  0  0  0  0  0  0  0  0
  147.7779  133.3388  154.9609 N   0  3  1  0  0  0  0  0  0  0  0  0
  146.8296  133.1684  153.8276 C   0  0  0  0  0  0  0  0  0  0  0  0
  147.3373  132.1708  152.7587 C   0  0  0  0  0  0  0  0  0  0  0  0
  147.6187  130.8041  153.4057 C   0  0  0  0  0  0  0  0  0  0  0  0
  146.3480  132.0121  151.5892 C   0  0  0  0  0  0  0  0  0  0  0  0
  148.5704  132.6262  152.2386 O   0  0  0  0  0  0  0  0  0  0  0  0
  148.8352  134.3455  154.6855 C   0  0  0  0  0  0  0  0  0  0  0  0
  149.8410  134.4473  155.8509 C   0  0  0  0  0  0  0  0  0  0  0  0
  149.1778  134.6095  157.1421 N   0  0  0  0  0  0  0  0  0  0  0  0
  148.9522  135.8918  157.5151 C   0  0  0  0  0  0  0  0  0  0  0  0
  147.6822  136.3596  157.6318 N   0  0  0  0  0  0  0  0  0  0  0  0
  147.4683  137.6229  158.0126 C   0  0  0  0  0  0  0  0  0  0  0  0
  148.3626  138.5654  158.3191 N   0  0  0  0  0  0  0  0  0  0  0  0
  149.6379  138.0956  158.2007 C   0  0  0  0  0  0  0  0  0  0  0  0
  150.0176  136.7830  157.8064 C   0  0  0  0  0  0  0  0  0  0  0  0
  151.4015  136.6666  157.7977 N   0  0  0  0  0  0  0  0  0  0  0  0
  151.8189  137.8488  158.1620 C   0  0  0  0  0  0  0  0  0  0  0  0
  150.8271  138.7678  158.4206 N   0  0  0  0  0  0  0  0  0  0  0  0
  151.0120  140.1455  158.8395 C   0  0  0  0  0  0  0  0  0  0  0  0
  151.9508  140.9653  157.9152 C   0  0  1  0  0  0  0  0  0  0  0  0
  151.2059  141.5645  156.6945 C   0  0  0  0  0  0  0  0  0  0  0  0
  150.0782  142.3227  157.0825 O   0  0  0  0  0  0  0  0  0  0  0  0
  152.6678  142.0763  158.7261 C   0  0  1  0  0  0  0  0  0  0  0  0
  151.7444  143.0187  159.4809 C   0  0  0  0  0  0  0  0  0  0  0  0
  152.6891  143.6407  160.4998 C   0  0  0  0  0  0  0  0  0  0  0  0
  153.5670  142.5877  160.8721 O   0  0  0  0  0  0  0  0  0  0  0  0
  153.5554  141.5709  159.8735 C   0  0  0  0  0  0  0  0  0  0  0  0
  146.7683  132.9652  158.9880 H   0  0  0  0  0  0  0  0  0  0  0  0
  146.8866  134.7134  158.8615 H   0  0  0  0  0  0  0  0  0  0  0  0
  148.1990  133.7877  159.5924 H   0  0  0  0  0  0  0  0  0  0  0  0
  148.6332  132.6567  157.4341 H   0  0  0  0  0  0  0  0  0  0  0  0
  146.3805  132.7833  156.4555 H   0  0  0  0  0  0  0  0  0  0  0  0
  146.5346  134.5072  156.2178 H   0  0  0  0  0  0  0  0  0  0  0  0
  145.8474  132.8725  154.2004 H   0  0  0  0  0  0  0  0  0  0  0  0
  146.6728  134.1311  153.3380 H   0  0  0  0  0  0  0  0  0  0  0  0
  146.7099  130.3728  153.8271 H   0  0  0  0  0  0  0  0  0  0  0  0
  148.3472  130.8875  154.2133 H   0  0  0  0  0  0  0  0  0  0  0  0
  148.0128  130.0909  152.6803 H   0  0  0  0  0  0  0  0  0  0  0  0
  145.3749  131.6688  151.9415 H   0  0  0  0  0  0  0  0  0  0  0  0
  146.7085  131.2836  150.8618 H   0  0  0  0  0  0  0  0  0  0  0  0
  146.1937  132.9508  151.0563 H   0  0  0  0  0  0  0  0  0  0  0  0
  148.9143  131.9667  151.6546 H   0  0  0  0  0  0  0  0  0  0  0  0
  149.3702  134.0736  153.7749 H   0  0  0  0  0  0  0  0  0  0  0  0
  148.3691  135.3127  154.4957 H   0  0  0  0  0  0  0  0  0  0  0  0
  150.4418  133.5383  155.8952 H   0  0  0  0  0  0  0  0  0  0  0  0
  150.5392  135.2676  155.6767 H   0  0  0  0  0  0  0  0  0  0  0  0
  146.4326  137.9216  158.0833 H   0  0  0  0  0  0  0  0  0  0  0  0
  152.8690  138.0876  158.2490 H   0  0  0  0  0  0  0  0  0  0  0  0
  150.0337  140.6243  158.8995 H   0  0  0  0  0  0  0  0  0  0  0  0
  151.4020  140.1195  159.8569 H   0  0  0  0  0  0  0  0  0  0  0  0
  152.7237  140.2930  157.5385 H   0  0  0  0  0  0  0  0  0  0  0  0
  151.8759  142.1831  156.0962 H   0  0  0  0  0  0  0  0  0  0  0  0
  150.8324  140.7828  156.0349 H   0  0  0  0  0  0  0  0  0  0  0  0
  149.8470  142.9013  156.3719 H   0  0  0  0  0  0  0  0  0  0  0  0
  153.2837  142.6734  158.0512 H   0  0  0  0  0  0  0  0  0  0  0  0
  151.2753  143.7683  158.8430 H   0  0  0  0  0  0  0  0  0  0  0  0
  150.9584  142.4600  159.9914 H   0  0  0  0  0  0  0  0  0  0  0  0
  153.2729  144.4389  160.0399 H   0  0  0  0  0  0  0  0  0  0  0  0
  152.1669  144.0537  161.3628 H   0  0  0  0  0  0  0  0  0  0  0  0
  153.1425  140.6647  160.3187 H   0  0  0  0  0  0  0  0  0  0  0  0
  154.5699  141.3491  159.5416 H   0  0  0  0  0  0  0  0  0  0  0  0
  148.2604  132.4562  155.0510 H   0  0  0  0  0  0  0  0  0  0  0  0
  1  2  1  0  0  0  0
  1 31  1  0  0  0  0
  1 32  1  0  0  0  0
  1 33  1  0  0  0  0
  2 12  1  0  0  0  0
  2  3  1  0  0  0  0
  2 34  1  0  0  0  0
  3  4  1  0  0  0  0
  3 35  1  0  0  0  0
  3 36  1  0  0  0  0
  4  5  1  0  0  0  0
  4 10  1  0  0  0  0
  4 65  1  0  0  0  0
  5  6  1  0  0  0  0
  5 37  1  0  0  0  0
  5 38  1  0  0  0  0
  6  7  1  0  0  0  0
  6  8  1  0  0  0  0
  6  9  1  0  0  0  0
  7 39  1  0  0  0  0
  7 40  1  0  0  0  0
  7 41  1  0  0  0  0
  8 42  1  0  0  0  0
  8 43  1  0  0  0  0
  8 44  1  0  0  0  0
  9 45  1  0  0  0  0
 10 11  1  0  0  0  0
 10 46  1  0  0  0  0
 10 47  1  0  0  0  0
 11 12  1  0  0  0  0
 11 48  1  0  0  0  0
 11 49  1  0  0  0  0
 12 13  1  0  0  0  0
 13 18  1  0  0  0  0
 13 14  2  0  0  0  0
 14 15  1  0  0  0  0
 15 16  2  0  0  0  0
 15 50  1  0  0  0  0
 16 17  1  0  0  0  0
 17 21  1  0  0  0  0
 17 18  2  0  0  0  0
 18 19  1  0  0  0  0
 19 20  2  0  0  0  0
 20 21  1  0  0  0  0
 20 51  1  0  0  0  0
 21 22  1  0  0  0  0
 22 23  1  0  0  0  0
 22 52  1  0  0  0  0
 22 53  1  0  0  0  0
 23 24  1  0  0  0  0
 23 26  1  0  0  0  0
 23 54  1  0  0  0  0
 24 25  1  0  0  0  0
 24 55  1  0  0  0  0
 24 56  1  0  0  0  0
 25 57  1  0  0  0  0
 26 30  1  0  0  0  0
 26 27  1  0  0  0  0
 26 58  1  0  0  0  0
 27 28  1  0  0  0  0
 27 59  1  0  0  0  0
 27 60  1  0  0  0  0
 28 29  1  0  0  0  0
 28 61  1  0  0  0  0
 28 62  1  0  0  0  0
 29 30  1  0  0  0  0
 30 63  1  0  0  0  0
 30 64  1  0  0  0  0
M  CHG  1   4   1
M  END
> <s_m_source_file>
AV-unprocessed.smi

> <i_m_source_file_index>
212

> <i_lp_mmshare_version>
43012

> <i_f3d_flags>
0

> <s_epik_input>
W0NIM11bQ0BASF0xW0NIMl1OKFtDSDJdQyhbQ0gzXSkoW0NIM10pW09IXSlbQ0gyXVtDSDJdTjFjKG5bY0hdbjIpYyhjMjMpbltjSF1uM1tDSDJdW0NASF0oW0NIMl1bT0hdKVtDQEBIXTRbQ0gyXVtDSDJdT1tDSDJdNA==

> <s_epik_cmdline>
J2VwaWtfcHl0aG9uJywgJy1waCcsICc3LjAnLCAnLXRuJywgJzgnLCAnLW1hJywgJzIwMCcsICctbWV0YWxfYmluZGluZycsICctaW1hZScsICc8aW5maWxlLm1hZT4nLCAnLW9tYWUnLCAnPG91dGZpbGUubWFlPic=

> <r_lp_tautomer_probability>
1

> <r_epik_Ionization_Penalty>
0.00182193

> <r_epik_Ionization_Penalty_Charging>
0.00173996

> <r_epik_Ionization_Penalty_Neutral>
8.19718e-05

> <r_epik_State_Penalty>
-0

> <r_epik_Charging_Adjusted_Penalty>
0.00173996

> <i_epik_Tot_Q>
1

> <i_epik_Tot_abs_Q>
1

> <r_epik_Metal_State_Penalty>
-0

> <b_epik_Metal_Only>
0

> <s_lp_Force_Field>
OPLS_2005

> <r_lp_Energy>
59.0262

> <b_lp_Chiralities_Consistent>
1

> <s_lp_Variant>
AV-unprocessed.smi:212-16

> <Gold.Version>
5.8.1

> <Gold.Id.Protein>
6NUR|6NUR_protein|mol2

> <Gold.PLP.Fitness>
41.5671

> <Gold.PLP.PLP>
-36.7491

> <Gold.PLP.part.hbond>
-2.8969

> <Gold.PLP.part.metal>
0.0000

> <Gold.PLP.part.buried>
-6.1148

> <Gold.PLP.part.nonpolar>
-27.7935

> <Gold.PLP.part.repulsive>
0.0040

> <Gold.PLP.ligand.clash>
0.0000

> <Gold.PLP.ligand.torsion>
1.1827

> <Gold.PLP.Chemscore.Hbond>
2.0000

> <Gold.PLP.Chemscore.CHOScore>
0.0000

> <Gold.PLP.Chemscore.Metal>
0.0000

> <Gold.Chemscore.Hbonds>
donor molecule, donor type, donor heavy atom, donor atom, acceptor molecule, acceptor atom, score
      L1  H     9    45       P1 10747  1.00
      L1  H    25    57       P1  8028  0.63

> <Gold.PLP.Chemscore.Internal.Correction>
1.1834

> <Gold.Rescore>
     Score         DG    S(hbond)    S(metal)    S(lipo)     H(rot)  DE(clash)    DE(int)     intcor
     11.26     -14.10       1.99        0.00      97.33       3.68       0.04       2.80       ----

> <Gold.Chemscore.Fitness>
11.2621

> <Gold.Chemscore.DG>
-14.0983

> <Gold.Chemscore.ZeroCoef>
-5.4800

> <Gold.Chemscore.Hbond>
1.9923

> <Gold.Chemscore.Metal>
0.0000

> <Gold.Chemscore.Lipo>
97.3320

> <Gold.Chemscore.Internal_Hbond>
0.0000

> <Gold.Chemscore.DEClash>
0.0389

> <Gold.Chemscore.DEInternal>
2.7974

> <Gold.Chemscore.Rot>
3.6812

> <Gold.Chemscore.Internal.Correction>
   9.000000E+99

> <Gold.Chemscore.Hbonds>
donor molecule, donor type, donor heavy atom, donor atom, acceptor molecule, acceptor atom, score
      L1  H     9    45       P1 10747  0.94
      L1  H    25    57       P1  8028  0.59

> <Gold.Chemscore.Hbond.Weighted>
-6.6544

> <Gold.Chemscore.Metal.Weighted>
-0.0000

> <Gold.Chemscore.Lipo.Weighted>
-11.3878

> <Gold.Chemscore.Internal_Hbond.Weighted>
0.0000

> <Gold.Chemscore.DEClash.Weighted>
0.0389

> <Gold.Chemscore.DEInternal.Weighted>
2.7974

> <Gold.Chemscore.Rot.Weighted>
9.4239

> <Gold.Chemscore.Internal.Correction.Weighted>
   9.000000E+99

> <Gold.Protein.RotatedTorsions>
[ 6907 6896 6895 6894 ] final   75.47 input  -60.11 | X-H torsion
[ 7974 7965 7964 7962 ] final  -19.77 input  175.53 | X-H torsion
[ 8008 7997 7996 7995 ] final   86.53 input   59.86 | X-H torsion
[ 10167 10162 10161 10158 ] final -146.55 input  -65.29 | X-H torsion
[ 10718 10713 10712 10709 ] final  105.08 input   66.30 | X-H torsion
[ 10763 10752 10751 10750 ] final -169.08 input  -60.55 | X-H torsion
[ 11005 11000 10999 10996 ] final  -79.78 input  -57.11 | X-H torsion

> <Gold.Protein.ActiveResidues>
 VAL166  LYS551  ARG553  GLY616  TRP617  ASP618  TYR619  PRO620  LYS621  CYS622 
 ASP623  PHE694  ASN695  SER759  ASP760  ASP761  ALA762  ILE779  LEU786  VAL792 
 PHE793  MET794  SER795  GLU796  ALA797  LYS798  CYS799  TRP800  GLU811  SER814 

> <Gold.Protein.RotatedAtoms>
  152.5027  134.4116  159.9450 H   0  0  0  0  0  0  0  0  0  0  0  0  # atno 6907 bound_to 6896
  151.4084  133.3729  159.2748 H   0  0  0  0  0  0  0  0  0  0  0  0  # atno 6908 bound_to 6896
  150.9309  134.8746  159.7610 H   0  0  0  0  0  0  0  0  0  0  0  0  # atno 6909 bound_to 6896
  146.1824  140.4109  142.8489 H   0  0  0  0  0  0  0  0  0  0  0  0  # atno 7974 bound_to 7965
  155.9640  140.3391  155.6515 H   0  0  0  0  0  0  0  0  0  0  0  0  # atno 8008 bound_to 7997
  155.6762  140.0732  157.2520 H   0  0  0  0  0  0  0  0  0  0  0  0  # atno 8009 bound_to 7997
  154.4150  140.1682  156.1920 H   0  0  0  0  0  0  0  0  0  0  0  0  # atno 8010 bound_to 7997
  139.7703  143.8248  152.2623 H   0  0  0  0  0  0  0  0  0  0  0  0  # atno 10167 bound_to 10162
  157.6718  131.0819  150.5802 H   0  0  0  0  0  0  0  0  0  0  0  0  # atno 10718 bound_to 10713
  154.6561  135.2918  154.9926 H   0  0  0  0  0  0  0  0  0  0  0  0  # atno 10763 bound_to 10752
  154.1002  135.6578  153.4871 H   0  0  0  0  0  0  0  0  0  0  0  0  # atno 10764 bound_to 10752
  153.0403  135.5240  154.7491 H   0  0  0  0  0  0  0  0  0  0  0  0  # atno 10765 bound_to 10752
  141.1667  133.7121  156.8174 H   0  0  0  0  0  0  0  0  0  0  0  0  # atno 11005 bound_to 11000
  144.8337  140.6748  143.6274 LP  0  0  0  0  0  0  0  0  0  0  0  0  # atno 17320 bound_to 7965
  145.4039  139.1592  143.4163 LP  0  0  0  0  0  0  0  0  0  0  0  0  # atno 17321 bound_to 7965
  139.8280  144.7266  150.9487 LP  0  0  0  0  0  0  0  0  0  0  0  0  # atno 17342 bound_to 10162
  140.7813  143.4096  151.1014 LP  0  0  0  0  0  0  0  0  0  0  0  0  # atno 17343 bound_to 10162
  156.6103  130.4378  149.5862 LP  0  0  0  0  0  0  0  0  0  0  0  0  # atno 17370 bound_to 10713
  156.2436  130.6865  151.1579 LP  0  0  0  0  0  0  0  0  0  0  0  0  # atno 17371 bound_to 10713
  140.2144  134.8804  157.3309 LP  0  0  0  0  0  0  0  0  0  0  0  0  # atno 17394 bound_to 11000
  140.2053  134.4204  155.7641 LP  0  0  0  0  0  0  0  0  0  0  0  0  # atno 17395 bound_to 11000

$$$$
