AV-unprocessed.smi:927|AV-procd|sdf|4188|dock6
  -GOLD-   22720 2 93D 1   1.00000     0.00000
 Structure written by MMmdl.
 21 21  0  0  0  0  0  0  0  0  2 V2000
  147.3895  138.4671  151.6972 N   0  3  0  0  0  0  0  0  0  0  0  0
  146.6415  138.7337  152.9387 C   0  0  0  0  0  0  0  0  0  0  0  0
  147.3799  138.1972  154.1781 C   0  0  1  0  0  0  0  0  0  0  0  0
  147.6548  136.8232  153.9847 O   0  0  0  0  0  0  0  0  0  0  0  0
  148.6477  138.9916  154.4503 C   0  0  0  0  0  0  0  0  0  0  0  0
  149.9128  138.3650  154.4703 C   0  0  0  0  0  0  0  0  0  0  0  0
  151.0524  139.1545  154.7233 C   0  0  0  0  0  0  0  0  0  0  0  0
  150.9974  140.4851  154.9453 N   0  0  0  0  0  0  0  0  0  0  0  0
  149.7857  141.0800  154.9225 C   0  0  0  0  0  0  0  0  0  0  0  0
  148.5854  140.3823  154.6794 C   0  0  0  0  0  0  0  0  0  0  0  0
  147.9136  137.6096  151.7953 H   0  0  0  0  0  0  0  0  0  0  0  0
  148.0228  139.2318  151.5124 H   0  0  0  0  0  0  0  0  0  0  0  0
  146.4673  139.8070  153.0260 H   0  0  0  0  0  0  0  0  0  0  0  0
  145.6638  138.2583  152.8512 H   0  0  0  0  0  0  0  0  0  0  0  0
  146.7285  138.2788  155.0496 H   0  0  0  0  0  0  0  0  0  0  0  0
  147.8781  136.6873  153.0758 H   0  0  0  0  0  0  0  0  0  0  0  0
  150.0130  137.3036  154.2958 H   0  0  0  0  0  0  0  0  0  0  0  0
  152.0342  138.7051  154.7461 H   0  0  0  0  0  0  0  0  0  0  0  0
  149.7716  142.1449  155.1021 H   0  0  0  0  0  0  0  0  0  0  0  0
  147.6420  140.9083  154.6709 H   0  0  0  0  0  0  0  0  0  0  0  0
  146.7376  138.3786  150.9305 H   0  0  0  0  0  0  0  0  0  0  0  0
  1  2  1  0  0  0  0
  1 11  1  0  0  0  0
  1 12  1  0  0  0  0
  1 21  1  0  0  0  0
  2  3  1  0  0  0  0
  2 13  1  0  0  0  0
  2 14  1  0  0  0  0
  3  4  1  0  0  0  0
  3  5  1  0  0  0  0
  3 15  1  0  0  0  0
  4 16  1  0  0  0  0
  5 10  1  0  0  0  0
  5  6  2  0  0  0  0
  6  7  1  0  0  0  0
  6 17  1  0  0  0  0
  7  8  2  0  0  0  0
  7 18  1  0  0  0  0
  8  9  1  0  0  0  0
  9 10  2  0  0  0  0
  9 19  1  0  0  0  0
 10 20  1  0  0  0  0
M  CHG  1   1   1
M  END
> <s_m_source_file>
AV-unprocessed.smi

> <i_m_source_file_index>
927

> <i_lp_mmshare_version>
43012

> <i_f3d_flags>
0

> <s_epik_input>
W05IMl1bQ0gyXVtDQEhdKFtPSF0pYzFbY0hdW2NIXW5bY0hdW2NIXTE=

> <s_epik_cmdline>
J2VwaWtfcHl0aG9uJywgJy1waCcsICc3LjAnLCAnLXRuJywgJzgnLCAnLW1hJywgJzIwMCcsICctbWV0YWxfYmluZGluZycsICctaW1hZScsICc8aW5maWxlLm1hZT4nLCAnLW9tYWUnLCAnPG91dGZpbGUubWFlPic=

> <r_epik_Ionization_Penalty>
0.0159363

> <r_epik_Ionization_Penalty_Charging>
0.0140431

> <r_epik_Ionization_Penalty_Neutral>
0.00189321

> <r_epik_State_Penalty>
0.0109628

> <r_epik_Charging_Adjusted_Penalty>
0.0250059

> <i_epik_Tot_Q>
1

> <i_epik_Tot_abs_Q>
1

> <r_epik_Metal_State_Penalty>
0.0113463

> <b_epik_Metal_Only>
0

> <s_lp_Force_Field>
OPLS_2005

> <r_lp_Energy>
4.52461

> <b_lp_Chiralities_Consistent>
1

> <s_lp_Variant>
AV-unprocessed.smi:927-2

> <Gold.Version>
5.8.1

> <Gold.Id.Protein>
6NUR|6NUR_protein|mol2

> <Gold.PLP.Fitness>
34.3738

> <Gold.PLP.PLP>
-18.9900

> <Gold.PLP.part.hbond>
-4.0000

> <Gold.PLP.part.metal>
0.0000

> <Gold.PLP.part.buried>
-1.4848

> <Gold.PLP.part.nonpolar>
-13.6083

> <Gold.PLP.part.repulsive>
1.0306

> <Gold.PLP.ligand.clash>
0.0000

> <Gold.PLP.ligand.torsion>
0.0294

> <Gold.PLP.Chemscore.Hbond>
4.7500

> <Gold.PLP.Chemscore.CHOScore>
0.3954

> <Gold.PLP.Chemscore.Metal>
0.0000

> <Gold.Chemscore.Hbonds>
donor molecule, donor type, donor heavy atom, donor atom, acceptor molecule, acceptor atom, score
      L1  H     1    11       P1  7948  2.00
      L1  H     1    12       P1  7957  1.00
      L1  H     4    16       P1  7948  1.00
      P1  H  7989  7998       L1     8  0.75
      L1  C     9    19       P1  8028  0.39

> <Gold.PLP.Chemscore.Internal.Correction>
0.0065

> <Gold.Rescore>
     Score         DG    S(hbond)    S(metal)    S(lipo)     H(rot)  DE(clash)    DE(int)     intcor
     15.19     -15.40       2.98        0.00      41.19       1.90       0.20       0.01       ----

> <Gold.Chemscore.Fitness>
15.1938

> <Gold.Chemscore.DG>
-15.4049

> <Gold.Chemscore.ZeroCoef>
-5.4800

> <Gold.Chemscore.Hbond>
2.9835

> <Gold.Chemscore.Metal>
0.0000

> <Gold.Chemscore.Lipo>
41.1903

> <Gold.Chemscore.Internal_Hbond>
0.0000

> <Gold.Chemscore.DEClash>
0.1991

> <Gold.Chemscore.DEInternal>
0.0121

> <Gold.Chemscore.Rot>
1.8981

> <Gold.Chemscore.Internal.Correction>
   9.000000E+99

> <Gold.Chemscore.Hbonds>
donor molecule, donor type, donor heavy atom, donor atom, acceptor molecule, acceptor atom, score
      L1  H     1    11       P1  7948  1.00
      L1  H     1    12       P1  7957  0.92
      L1  H     4    16       P1  7948  0.96
      P1  H  7989  7998       L1     8  0.04

> <Gold.Chemscore.Hbond.Weighted>
-9.9648

> <Gold.Chemscore.Metal.Weighted>
-0.0000

> <Gold.Chemscore.Lipo.Weighted>
-4.8193

> <Gold.Chemscore.Internal_Hbond.Weighted>
0.0000

> <Gold.Chemscore.DEClash.Weighted>
0.1991

> <Gold.Chemscore.DEInternal.Weighted>
0.0121

> <Gold.Chemscore.Rot.Weighted>
4.8592

> <Gold.Chemscore.Internal.Correction.Weighted>
   9.000000E+99

> <Gold.Protein.RotatedTorsions>
[ 6907 6896 6895 6894 ] final -151.28 input  -60.11 | X-H torsion
[ 7974 7965 7964 7962 ] final  -34.35 input  175.53 | X-H torsion
[ 8008 7997 7996 7995 ] final -142.33 input   59.86 | X-H torsion
[ 10167 10162 10161 10158 ] final   -7.06 input  -65.29 | X-H torsion
[ 10718 10713 10712 10709 ] final -146.15 input   66.30 | X-H torsion
[ 10763 10752 10751 10750 ] final  -33.28 input  -60.55 | X-H torsion
[ 11005 11000 10999 10996 ] final  140.32 input  -57.11 | X-H torsion

> <Gold.Protein.ActiveResidues>
 VAL166  LYS551  ARG553  GLY616  TRP617  ASP618  TYR619  PRO620  LYS621  CYS622 
 ASP623  PHE694  ASN695  SER759  ASP760  ASP761  ALA762  ILE779  LEU786  VAL792 
 PHE793  MET794  SER795  GLU796  ALA797  LYS798  CYS799  TRP800  GLU811  SER814 

> <Gold.Protein.RotatedAtoms>
  151.2109  133.4557  159.2597 H   0  0  0  0  0  0  0  0  0  0  0  0  # atno 6907 bound_to 6896
  151.0978  134.9954  159.8444 H   0  0  0  0  0  0  0  0  0  0  0  0  # atno 6908 bound_to 6896
  152.5440  134.2038  159.8775 H   0  0  0  0  0  0  0  0  0  0  0  0  # atno 6909 bound_to 6896
  146.0836  140.6028  142.8897 H   0  0  0  0  0  0  0  0  0  0  0  0  # atno 7974 bound_to 7965
  155.4924  140.0569  157.2951 H   0  0  0  0  0  0  0  0  0  0  0  0  # atno 8008 bound_to 7997
  154.4618  140.2000  156.0176 H   0  0  0  0  0  0  0  0  0  0  0  0  # atno 8009 bound_to 7997
  156.0903  140.3234  155.7812 H   0  0  0  0  0  0  0  0  0  0  0  0  # atno 8010 bound_to 7997
  140.7017  143.6123  150.8692 H   0  0  0  0  0  0  0  0  0  0  0  0  # atno 10167 bound_to 10162
  156.3914  130.7887  151.2090 H   0  0  0  0  0  0  0  0  0  0  0  0  # atno 10718 bound_to 10713
  153.8276  135.6869  153.4819 H   0  0  0  0  0  0  0  0  0  0  0  0  # atno 10763 bound_to 10752
  153.1531  135.4610  154.9663 H   0  0  0  0  0  0  0  0  0  0  0  0  # atno 10764 bound_to 10752
  154.7901  135.3298  154.7742 H   0  0  0  0  0  0  0  0  0  0  0  0  # atno 10765 bound_to 10752
  140.0319  134.9348  157.0678 H   0  0  0  0  0  0  0  0  0  0  0  0  # atno 11005 bound_to 11000
  144.7310  140.4672  143.6938 LP  0  0  0  0  0  0  0  0  0  0  0  0  # atno 17320 bound_to 7965
  145.6171  139.1520  143.3043 LP  0  0  0  0  0  0  0  0  0  0  0  0  # atno 17321 bound_to 7965
  139.9846  143.5914  152.2931 LP  0  0  0  0  0  0  0  0  0  0  0  0  # atno 17342 bound_to 10162
  139.6547  144.7662  151.2079 LP  0  0  0  0  0  0  0  0  0  0  0  0  # atno 17343 bound_to 10162
  157.7499  131.0314  150.4182 LP  0  0  0  0  0  0  0  0  0  0  0  0  # atno 17370 bound_to 10713
  156.4444  130.3998  149.6676 LP  0  0  0  0  0  0  0  0  0  0  0  0  # atno 17371 bound_to 10713
  140.4212  134.1879  155.7164 LP  0  0  0  0  0  0  0  0  0  0  0  0  # atno 17394 bound_to 11000
  141.1836  133.8362  157.1170 LP  0  0  0  0  0  0  0  0  0  0  0  0  # atno 17395 bound_to 11000

$$$$
