AV-unprocessed.smi:3101|AV-procd|sdf|11809|dock3
  -GOLD-   2272017183D 1   1.00000     0.00000
 Structure written by MMmdl.
 28 29  0  0  0  0  0  0  0  0  1 V2000
  151.3717  136.7893  156.0324 C   0  0  0  0  0  0  0  0  0  0  0  0
  150.8243  137.8555  155.0674 C   0  0  1  0  0  0  0  0  0  0  0  0
  149.4008  138.3041  155.3566 C   0  0  0  0  0  0  0  0  0  0  0  0
  149.3361  139.7027  154.7339 C   0  0  0  0  0  0  0  0  0  0  0  0
  150.6701  140.0463  154.3548 O   0  0  0  0  0  0  0  0  0  0  0  0
  151.6073  139.1776  154.9829 C   0  0  1  0  0  0  0  0  0  0  0  0
  152.0531  139.8005  156.3222 C   0  0  0  0  0  0  0  0  0  0  0  0
  152.8432  139.2065  157.0571 O   0  0  0  0  0  0  0  0  0  0  0  0
  151.5074  140.9968  156.6090 N   0  0  0  0  0  0  0  0  0  0  0  0
  151.7375  141.8172  157.7446 C   0  0  0  0  0  0  0  0  0  0  0  0
  151.3317  143.1671  157.6200 C   0  0  0  0  0  0  0  0  0  0  0  0
  151.4886  144.0710  158.6126 N   0  0  0  0  0  0  0  0  0  0  0  0
  152.0610  143.6244  159.7507 C   0  0  0  0  0  0  0  0  0  0  0  0
  152.4722  142.2839  159.8930 C   0  0  0  0  0  0  0  0  0  0  0  0
  152.3119  141.3857  158.8969 N   0  0  0  0  0  0  0  0  0  0  0  0
  151.3348  137.1172  157.0712 H   0  0  0  0  0  0  0  0  0  0  0  0
  152.4072  136.5449  155.7954 H   0  0  0  0  0  0  0  0  0  0  0  0
  150.7905  135.8699  155.9609 H   0  0  0  0  0  0  0  0  0  0  0  0
  150.8320  137.4220  154.0660 H   0  0  0  0  0  0  0  0  0  0  0  0
  148.6596  137.6246  154.9347 H   0  0  0  0  0  0  0  0  0  0  0  0
  149.2203  138.3642  156.4306 H   0  0  0  0  0  0  0  0  0  0  0  0
  148.6954  139.7200  153.8519 H   0  0  0  0  0  0  0  0  0  0  0  0
  148.9472  140.4309  155.4463 H   0  0  0  0  0  0  0  0  0  0  0  0
  152.4768  139.0589  154.3345 H   0  0  0  0  0  0  0  0  0  0  0  0
  150.8538  141.3633  155.9322 H   0  0  0  0  0  0  0  0  0  0  0  0
  150.8736  143.5296  156.7112 H   0  0  0  0  0  0  0  0  0  0  0  0
  152.1921  144.3380  160.5506 H   0  0  0  0  0  0  0  0  0  0  0  0
  152.9297  141.9319  160.8056 H   0  0  0  0  0  0  0  0  0  0  0  0
  1  2  1  0  0  0  0
  1 16  1  0  0  0  0
  1 17  1  0  0  0  0
  1 18  1  0  0  0  0
  2  6  1  0  0  0  0
  2  3  1  0  0  0  0
  2 19  1  0  0  0  0
  3  4  1  0  0  0  0
  3 20  1  0  0  0  0
  3 21  1  0  0  0  0
  4  5  1  0  0  0  0
  4 22  1  0  0  0  0
  4 23  1  0  0  0  0
  5  6  1  0  0  0  0
  6  7  1  0  0  0  0
  6 24  1  0  0  0  0
  7  8  2  0  0  0  0
  7  9  1  0  0  0  0
  9 10  1  0  0  0  0
  9 25  1  0  0  0  0
 10 15  1  0  0  0  0
 10 11  2  0  0  0  0
 11 12  1  0  0  0  0
 11 26  1  0  0  0  0
 12 13  2  0  0  0  0
 13 14  1  0  0  0  0
 13 27  1  0  0  0  0
 14 15  2  0  0  0  0
 14 28  1  0  0  0  0
M  END
> <s_m_source_file>
AV-unprocessed.smi

> <i_m_source_file_index>
3101

> <i_lp_mmshare_version>
43012

> <i_f3d_flags>
0

> <s_epik_input>
W0NIM11bQ0BASF0xW0NIMl1bQ0gyXU9bQ0BIXTFDKD1PKVtOSF1jMltjSF1uW2NIXVtjSF1uMg==

> <s_epik_cmdline>
J2VwaWtfcHl0aG9uJywgJy1waCcsICc3LjAnLCAnLXRuJywgJzgnLCAnLW1hJywgJzIwMCcsICctbWV0YWxfYmluZGluZycsICctaW1hZScsICc8aW5maWxlLm1hZT4nLCAnLW9tYWUnLCAnPG91dGZpbGUubWFlPic=

> <r_lp_tautomer_probability>
1

> <r_epik_Ionization_Penalty>
2.83174e-06

> <r_epik_Ionization_Penalty_Charging>
0

> <r_epik_Ionization_Penalty_Neutral>
2.83174e-06

> <r_epik_State_Penalty>
-0

> <r_epik_Charging_Adjusted_Penalty>
0

> <i_epik_Tot_Q>
0

> <i_epik_Tot_abs_Q>
0

> <r_epik_Metal_State_Penalty>
-0

> <b_epik_Metal_Only>
0

> <s_lp_Force_Field>
OPLS_2005

> <r_lp_Energy>
27.517

> <b_lp_Chiralities_Consistent>
1

> <s_lp_Variant>
AV-unprocessed.smi:3101-2

> <Gold.Version>
5.8.1

> <Gold.Id.Protein>
6NUR|6NUR_protein|mol2

> <Gold.PLP.Fitness>
35.0165

> <Gold.PLP.PLP>
-26.1480

> <Gold.PLP.part.hbond>
-1.9684

> <Gold.PLP.part.metal>
0.0000

> <Gold.PLP.part.buried>
-4.1804

> <Gold.PLP.part.nonpolar>
-20.6700

> <Gold.PLP.part.repulsive>
0.3308

> <Gold.PLP.ligand.clash>
0.0000

> <Gold.PLP.ligand.torsion>
0.0782

> <Gold.PLP.Chemscore.Hbond>
2.0000

> <Gold.PLP.Chemscore.CHOScore>
1.0000

> <Gold.PLP.Chemscore.Metal>
0.0000

> <Gold.Chemscore.Hbonds>
donor molecule, donor type, donor heavy atom, donor atom, acceptor molecule, acceptor atom, score
      P1  H  7989  7998       L1     5  0.99
      P1  H  7997  8010       L1     8  1.00
      L1  C    11    26       P1  8028  1.00

> <Gold.PLP.Chemscore.Internal.Correction>
0.0249

> <Gold.Rescore>
     Score         DG    S(hbond)    S(metal)    S(lipo)     H(rot)  DE(clash)    DE(int)     intcor
     13.12     -15.39       1.69        0.00      58.45       1.00       0.15       2.12       ----

> <Gold.Chemscore.Fitness>
13.1228

> <Gold.Chemscore.DG>
-15.3879

> <Gold.Chemscore.ZeroCoef>
-5.4800

> <Gold.Chemscore.Hbond>
1.6854

> <Gold.Chemscore.Metal>
0.0000

> <Gold.Chemscore.Lipo>
58.4495

> <Gold.Chemscore.Internal_Hbond>
0.0000

> <Gold.Chemscore.DEClash>
0.1473

> <Gold.Chemscore.DEInternal>
2.1178

> <Gold.Chemscore.Rot>
1.0000

> <Gold.Chemscore.Internal.Correction>
   9.000000E+99

> <Gold.Chemscore.Hbonds>
donor molecule, donor type, donor heavy atom, donor atom, acceptor molecule, acceptor atom, score
      P1  H  7989  7998       L1     5  0.24
      P1  H  7997  8010       L1     8  0.45

> <Gold.Chemscore.Hbond.Weighted>
-5.6293

> <Gold.Chemscore.Metal.Weighted>
-0.0000

> <Gold.Chemscore.Lipo.Weighted>
-6.8386

> <Gold.Chemscore.Internal_Hbond.Weighted>
0.0000

> <Gold.Chemscore.DEClash.Weighted>
0.1473

> <Gold.Chemscore.DEInternal.Weighted>
2.1178

> <Gold.Chemscore.Rot.Weighted>
2.5600

> <Gold.Chemscore.Internal.Correction.Weighted>
   9.000000E+99

> <Gold.Protein.RotatedTorsions>
[ 6907 6896 6895 6894 ] final   24.02 input  -60.11 | X-H torsion
[ 7974 7965 7964 7962 ] final  -29.22 input  175.53 | X-H torsion
[ 8008 7997 7996 7995 ] final   50.17 input   59.86 | X-H torsion
[ 10167 10162 10161 10158 ] final  107.20 input  -65.29 | X-H torsion
[ 10718 10713 10712 10709 ] final   88.43 input   66.30 | X-H torsion
[ 10763 10752 10751 10750 ] final  146.43 input  -60.55 | X-H torsion
[ 11005 11000 10999 10996 ] final  -56.74 input  -57.11 | X-H torsion

> <Gold.Protein.ActiveResidues>
 VAL166  LYS551  ARG553  GLY616  TRP617  ASP618  TYR619  PRO620  LYS621  CYS622 
 ASP623  PHE694  ASN695  SER759  ASP760  ASP761  ALA762  ILE779  LEU786  VAL792 
 PHE793  MET794  SER795  GLU796  ALA797  LYS798  CYS799  TRP800  GLU811  SER814 

> <Gold.Protein.RotatedAtoms>
  151.9512  135.0168  160.0541 H   0  0  0  0  0  0  0  0  0  0  0  0  # atno 6907 bound_to 6896
  152.1951  133.4796  159.5037 H   0  0  0  0  0  0  0  0  0  0  0  0  # atno 6908 bound_to 6896
  150.6943  134.1580  159.4208 H   0  0  0  0  0  0  0  0  0  0  0  0  # atno 6909 bound_to 6896
  146.1232  140.5384  142.8726 H   0  0  0  0  0  0  0  0  0  0  0  0  # atno 7974 bound_to 7965
  155.4143  140.3443  155.4266 H   0  0  0  0  0  0  0  0  0  0  0  0  # atno 8008 bound_to 7997
  156.1430  140.1548  156.8922 H   0  0  0  0  0  0  0  0  0  0  0  0  # atno 8009 bound_to 7997
  154.4987  140.0820  156.7732 H   0  0  0  0  0  0  0  0  0  0  0  0  # atno 8010 bound_to 7997
  139.6946  144.7103  151.1288 H   0  0  0  0  0  0  0  0  0  0  0  0  # atno 10167 bound_to 10162
  157.6949  131.0294  150.3273 H   0  0  0  0  0  0  0  0  0  0  0  0  # atno 10718 bound_to 10713
  154.0217  135.2905  155.3380 H   0  0  0  0  0  0  0  0  0  0  0  0  # atno 10763 bound_to 10752
  154.7042  135.5176  153.8574 H   0  0  0  0  0  0  0  0  0  0  0  0  # atno 10764 bound_to 10752
  153.0678  135.6637  154.0438 H   0  0  0  0  0  0  0  0  0  0  0  0  # atno 10765 bound_to 10752
  141.1134  133.6610  156.4664 H   0  0  0  0  0  0  0  0  0  0  0  0  # atno 11005 bound_to 11000
  144.7617  140.5438  143.6731 LP  0  0  0  0  0  0  0  0  0  0  0  0  # atno 17320 bound_to 7965
  145.5421  139.1475  143.3441 LP  0  0  0  0  0  0  0  0  0  0  0  0  # atno 17321 bound_to 7965
  140.7693  143.5509  150.9205 LP  0  0  0  0  0  0  0  0  0  0  0  0  # atno 17342 bound_to 10162
  139.9188  143.6630  152.3101 LP  0  0  0  0  0  0  0  0  0  0  0  0  # atno 17343 bound_to 10162
  156.3752  130.3870  149.7144 LP  0  0  0  0  0  0  0  0  0  0  0  0  # atno 17370 bound_to 10713
  156.4545  130.7922  151.2944 LP  0  0  0  0  0  0  0  0  0  0  0  0  # atno 17371 bound_to 10713
  140.4714  134.6750  157.5131 LP  0  0  0  0  0  0  0  0  0  0  0  0  # atno 17394 bound_to 11000
  140.0040  134.6792  155.9484 LP  0  0  0  0  0  0  0  0  0  0  0  0  # atno 17395 bound_to 11000

$$$$
