AV-unprocessed.smi:2734|AV-procd|sdf|10539|dock5
  -GOLD-   2272014583D 1   1.00000     0.00000
 Structure written by MMmdl.
 41 43  0  0  0  0  0  0  0  0  2 V2000
  152.0920  142.2185  159.7832 C   0  0  0  0  0  0  0  0  0  0  0  0
  151.7092  141.5522  158.4727 C   0  0  0  0  0  0  0  0  0  0  0  0
  150.8121  142.2242  157.6119 C   0  0  0  0  0  0  0  0  0  0  0  0
  150.4838  141.5916  156.4188 C   0  0  0  0  0  0  0  0  0  0  0  0
  149.6449  141.9854  155.3737 N   0  3  0  0  0  0  0  0  0  0  0  0
  149.6435  141.0266  154.4063 C   0  0  0  0  0  0  0  0  0  0  0  0
  150.4690  140.0271  154.8195 N   0  0  0  0  0  0  0  0  0  0  0  0
  150.8328  138.7682  154.1564 C   0  0  0  0  0  0  0  0  0  0  0  0
  150.6576  137.5401  155.0709 C   0  0  2  0  0  0  0  0  0  0  0  0
  151.3320  136.4322  154.5052 O   0  0  0  0  0  0  0  0  0  0  0  0
  149.1771  137.1830  155.2765 C   0  0  0  0  0  0  0  0  0  0  0  0
  148.9698  135.7271  156.3475 S   0  0  0  0  0  0  0  0  0  0  0  0
  149.7900  136.3024  157.8023 C   0  0  0  0  0  0  0  0  0  0  0  0
  151.1018  136.3797  157.9954 N   0  0  0  0  0  0  0  0  0  0  0  0
  151.2227  136.8852  159.2759 N   0  0  0  0  0  0  0  0  0  0  0  0
  150.0557  137.0946  159.8122 N   0  0  0  0  0  0  0  0  0  0  0  0
  149.1338  136.7295  158.8885 N   0  0  0  0  0  0  0  0  0  0  0  0
  147.7148  136.8370  159.1632 C   0  0  0  0  0  0  0  0  0  0  0  0
  151.0142  140.3347  156.0697 C   0  0  0  0  0  0  0  0  0  0  0  0
  151.8976  139.6574  156.9063 C   0  0  0  0  0  0  0  0  0  0  0  0
  152.2434  140.2839  158.1252 C   0  0  0  0  0  0  0  0  0  0  0  0
  153.2061  139.5697  159.0586 C   0  0  0  0  0  0  0  0  0  0  0  0
  151.6456  143.2094  159.8726 H   0  0  0  0  0  0  0  0  0  0  0  0
  153.1737  142.3342  159.8543 H   0  0  0  0  0  0  0  0  0  0  0  0
  151.7505  141.6213  160.6289 H   0  0  0  0  0  0  0  0  0  0  0  0
  150.4008  143.1891  157.8703 H   0  0  0  0  0  0  0  0  0  0  0  0
  149.0932  141.0562  153.4768 H   0  0  0  0  0  0  0  0  0  0  0  0
  150.2352  138.6707  153.2492 H   0  0  0  0  0  0  0  0  0  0  0  0
  151.8717  138.8560  153.8349 H   0  0  0  0  0  0  0  0  0  0  0  0
  151.1096  137.7483  156.0414 H   0  0  0  0  0  0  0  0  0  0  0  0
  151.1797  136.4344  153.5721 H   0  0  0  0  0  0  0  0  0  0  0  0
  148.6600  138.0241  155.7396 H   0  0  0  0  0  0  0  0  0  0  0  0
  148.6955  136.9987  154.3151 H   0  0  0  0  0  0  0  0  0  0  0  0
  147.2433  135.8615  159.0419 H   0  0  0  0  0  0  0  0  0  0  0  0
  147.2602  137.5422  158.4672 H   0  0  0  0  0  0  0  0  0  0  0  0
  147.5469  137.1865  160.1828 H   0  0  0  0  0  0  0  0  0  0  0  0
  152.3059  138.6941  156.6387 H   0  0  0  0  0  0  0  0  0  0  0  0
  153.4574  138.5756  158.6877 H   0  0  0  0  0  0  0  0  0  0  0  0
  152.7671  139.4517  160.0496 H   0  0  0  0  0  0  0  0  0  0  0  0
  154.1334  140.1351  159.1547 H   0  0  0  0  0  0  0  0  0  0  0  0
  149.1141  142.8453  155.3197 H   0  0  0  0  0  0  0  0  0  0  0  0
  1  2  1  0  0  0  0
  1 23  1  0  0  0  0
  1 24  1  0  0  0  0
  1 25  1  0  0  0  0
  2 21  1  0  0  0  0
  2  3  2  0  0  0  0
  3  4  1  0  0  0  0
  3 26  1  0  0  0  0
  4 19  2  0  0  0  0
  4  5  1  0  0  0  0
  5  6  2  0  0  0  0
  5 41  1  0  0  0  0
  6  7  1  0  0  0  0
  6 27  1  0  0  0  0
  7  8  1  0  0  0  0
  7 19  1  0  0  0  0
  8  9  1  0  0  0  0
  8 28  1  0  0  0  0
  8 29  1  0  0  0  0
  9 10  1  0  0  0  0
  9 11  1  0  0  0  0
  9 30  1  0  0  0  0
 10 31  1  0  0  0  0
 11 12  1  0  0  0  0
 11 32  1  0  0  0  0
 11 33  1  0  0  0  0
 12 13  1  0  0  0  0
 13 17  1  0  0  0  0
 13 14  2  0  0  0  0
 14 15  1  0  0  0  0
 15 16  2  0  0  0  0
 16 17  1  0  0  0  0
 17 18  1  0  0  0  0
 18 34  1  0  0  0  0
 18 35  1  0  0  0  0
 18 36  1  0  0  0  0
 19 20  1  0  0  0  0
 20 21  2  0  0  0  0
 20 37  1  0  0  0  0
 21 22  1  0  0  0  0
 22 38  1  0  0  0  0
 22 39  1  0  0  0  0
 22 40  1  0  0  0  0
M  CHG  1   5   1
M  END
> <s_m_source_file>
AV-unprocessed.smi

> <i_m_source_file_index>
2734

> <i_lp_mmshare_version>
43012

> <i_f3d_flags>
0

> <s_epik_input>
W0NIM11jKFtjSF0xKWMoW0NIM10pW2NIXWMoYzEyKW4oW2NIXW4yKVtDSDJdW0NASF0oW09IXSlbQ0gyXVNjM25ubm4zW0NIM10=

> <s_epik_cmdline>
J2VwaWtfcHl0aG9uJywgJy1waCcsICc3LjAnLCAnLXRuJywgJzgnLCAnLW1hJywgJzIwMCcsICctbWV0YWxfYmluZGluZycsICctaW1hZScsICc8aW5maWxlLm1hZT4nLCAnLW9tYWUnLCAnPG91dGZpbGUubWFlPic=

> <r_lp_tautomer_probability>
1

> <r_epik_Ionization_Penalty>
1.07429

> <r_epik_Ionization_Penalty_Charging>
1.07429

> <r_epik_Ionization_Penalty_Neutral>
3.30514e-06

> <r_epik_State_Penalty>
1.12915

> <r_epik_Charging_Adjusted_Penalty>
2.20344

> <i_epik_Tot_Q>
1

> <i_epik_Tot_abs_Q>
1

> <r_epik_Metal_State_Penalty>
1.22002

> <b_epik_Metal_Only>
0

> <s_lp_Force_Field>
OPLS_2005

> <r_lp_Energy>
14.6731

> <b_lp_Chiralities_Consistent>
1

> <s_lp_Variant>
AV-unprocessed.smi:2734-3

> <Gold.Version>
5.8.1

> <Gold.Id.Protein>
6NUR|6NUR_protein|mol2

> <Gold.PLP.Fitness>
52.7467

> <Gold.PLP.PLP>
-37.9010

> <Gold.PLP.part.hbond>
-6.0908

> <Gold.PLP.part.metal>
0.0000

> <Gold.PLP.part.buried>
-2.2292

> <Gold.PLP.part.nonpolar>
-29.2196

> <Gold.PLP.part.repulsive>
0.1820

> <Gold.PLP.ligand.clash>
0.0000

> <Gold.PLP.ligand.torsion>
0.4054

> <Gold.PLP.Chemscore.Hbond>
4.4655

> <Gold.PLP.Chemscore.CHOScore>
0.7347

> <Gold.PLP.Chemscore.Metal>
0.0000

> <Gold.Chemscore.Hbonds>
donor molecule, donor type, donor heavy atom, donor atom, acceptor molecule, acceptor atom, score
      L1  H     5    41       P1  8028  2.00
      L1  H    10    31       P1  7949  0.76
      P1  H  6896  6909       L1    15  0.60
      P1  H 10752 10764       L1    10  0.90
      L1  C     6    27       P1  7957  0.89

> <Gold.PLP.Chemscore.Internal.Correction>
0.0558

> <Gold.Rescore>
     Score         DG    S(hbond)    S(metal)    S(lipo)     H(rot)  DE(clash)    DE(int)     intcor
     12.89     -14.40       2.15        0.00      78.63       2.92       0.35       1.16       ----

> <Gold.Chemscore.Fitness>
12.8901

> <Gold.Chemscore.DG>
-14.3997

> <Gold.Chemscore.ZeroCoef>
-5.4800

> <Gold.Chemscore.Hbond>
2.1514

> <Gold.Chemscore.Metal>
0.0000

> <Gold.Chemscore.Lipo>
78.6324

> <Gold.Chemscore.Internal_Hbond>
0.0000

> <Gold.Chemscore.DEClash>
0.3454

> <Gold.Chemscore.DEInternal>
1.1641

> <Gold.Chemscore.Rot>
2.9164

> <Gold.Chemscore.Internal.Correction>
   9.000000E+99

> <Gold.Chemscore.Hbonds>
donor molecule, donor type, donor heavy atom, donor atom, acceptor molecule, acceptor atom, score
      L1  H     5    41       P1  8028  0.97
      L1  H    10    31       P1  7949  0.33
      P1  H  6896  6909       L1    15  0.01
      P1  H 10752 10764       L1    10  0.18

> <Gold.Chemscore.Hbond.Weighted>
-7.1856

> <Gold.Chemscore.Metal.Weighted>
-0.0000

> <Gold.Chemscore.Lipo.Weighted>
-9.2000

> <Gold.Chemscore.Internal_Hbond.Weighted>
0.0000

> <Gold.Chemscore.DEClash.Weighted>
0.3454

> <Gold.Chemscore.DEInternal.Weighted>
1.1641

> <Gold.Chemscore.Rot.Weighted>
7.4660

> <Gold.Chemscore.Internal.Correction.Weighted>
   9.000000E+99

> <Gold.Protein.RotatedTorsions>
[ 6907 6896 6895 6894 ] final  123.91 input  -60.11 | X-H torsion
[ 7974 7965 7964 7962 ] final -148.41 input  175.53 | X-H torsion
[ 8008 7997 7996 7995 ] final   92.91 input   59.86 | X-H torsion
[ 10167 10162 10161 10158 ] final  159.87 input  -65.29 | X-H torsion
[ 10718 10713 10712 10709 ] final  -19.69 input   66.30 | X-H torsion
[ 10763 10752 10751 10750 ] final  -63.84 input  -60.55 | X-H torsion
[ 11005 11000 10999 10996 ] final   84.59 input  -57.11 | X-H torsion

> <Gold.Protein.ActiveResidues>
 VAL166  LYS551  ARG553  GLY616  TRP617  ASP618  TYR619  PRO620  LYS621  CYS622 
 ASP623  PHE694  ASN695  SER759  ASP760  ASP761  ALA762  ILE779  LEU786  VAL792 
 PHE793  MET794  SER795  GLU796  ALA797  LYS798  CYS799  TRP800  GLU811  SER814 

> <Gold.Protein.RotatedAtoms>
  152.4122  133.6981  159.6407 H   0  0  0  0  0  0  0  0  0  0  0  0  # atno 6907 bound_to 6896
  150.8001  133.8604  159.3239 H   0  0  0  0  0  0  0  0  0  0  0  0  # atno 6908 bound_to 6896
  151.6343  135.1021  160.0180 H   0  0  0  0  0  0  0  0  0  0  0  0  # atno 6909 bound_to 6896
  144.8031  140.5200  143.5693 H   0  0  0  0  0  0  0  0  0  0  0  0  # atno 7974 bound_to 7965
  156.0408  140.3319  155.7241 H   0  0  0  0  0  0  0  0  0  0  0  0  # atno 8008 bound_to 7997
  155.5747  140.0631  157.2815 H   0  0  0  0  0  0  0  0  0  0  0  0  # atno 8009 bound_to 7997
  154.4392  140.1854  156.0903 H   0  0  0  0  0  0  0  0  0  0  0  0  # atno 8010 bound_to 7997
  139.4835  144.4689  151.8604 H   0  0  0  0  0  0  0  0  0  0  0  0  # atno 10167 bound_to 10162
  156.5422  130.4681  149.6493 H   0  0  0  0  0  0  0  0  0  0  0  0  # atno 10718 bound_to 10713
  154.3211  135.6196  153.5508 H   0  0  0  0  0  0  0  0  0  0  0  0  # atno 10763 bound_to 10752
  152.9820  135.5724  154.5069 H   0  0  0  0  0  0  0  0  0  0  0  0  # atno 10764 bound_to 10752
  154.4737  135.2860  155.1600 H   0  0  0  0  0  0  0  0  0  0  0  0  # atno 10765 bound_to 10752
  139.8996  134.8227  156.2465 H   0  0  0  0  0  0  0  0  0  0  0  0  # atno 11005 bound_to 11000
  145.5504  139.1476  143.3397 LP  0  0  0  0  0  0  0  0  0  0  0  0  # atno 17320 bound_to 7965
  146.2317  140.5642  142.8972 LP  0  0  0  0  0  0  0  0  0  0  0  0  # atno 17321 bound_to 7965
  140.4156  144.2311  150.5888 LP  0  0  0  0  0  0  0  0  0  0  0  0  # atno 17342 bound_to 10162
  140.4924  143.2343  151.8799 LP  0  0  0  0  0  0  0  0  0  0  0  0  # atno 17343 bound_to 10162
  156.2961  130.7151  151.2012 LP  0  0  0  0  0  0  0  0  0  0  0  0  # atno 17370 bound_to 10713
  157.7403  131.0518  150.5174 LP  0  0  0  0  0  0  0  0  0  0  0  0  # atno 17371 bound_to 10713
  141.0251  133.7019  156.1334 LP  0  0  0  0  0  0  0  0  0  0  0  0  # atno 17394 bound_to 11000
  140.7178  134.4392  157.5577 LP  0  0  0  0  0  0  0  0  0  0  0  0  # atno 17395 bound_to 11000

$$$$
