AV-unprocessed.smi:2789|AV-procd|sdf|10762|dock4
  -GOLD-   2272015193D 1   1.00000     0.00000
 Structure written by MMmdl.
 35 36  0  0  0  0  0  0  0  0  1 V2000
  153.1433  141.2965  160.3848 C   0  0  0  0  0  0  0  0  0  0  0  0
  151.8673  141.7839  160.0012 O   0  0  0  0  0  0  0  0  0  0  0  0
  151.9197  142.8849  159.1041 C   0  0  2  0  0  0  0  0  0  0  0  0
  152.8208  144.0127  159.6251 C   0  0  0  0  0  0  0  0  0  0  0  0
  152.2022  145.2856  159.0593 C   0  0  0  0  0  0  0  0  0  0  0  0
  150.6984  145.0296  159.1426 C   0  0  0  0  0  0  0  0  0  0  0  0
  150.5168  143.5108  158.9477 C   0  0  1  0  0  0  0  0  0  0  0  0
  149.9624  143.2107  157.6297 N   0  0  0  0  0  0  0  0  0  0  0  0
  149.7620  141.9791  157.1400 C   0  0  0  0  0  0  0  0  0  0  0  0
  150.0197  140.9508  157.7662 O   0  0  0  0  0  0  0  0  0  0  0  0
  149.2471  142.0294  155.8992 N   0  0  0  0  0  0  0  0  0  0  0  0
  148.9132  141.0007  155.0751 C   0  0  0  0  0  0  0  0  0  0  0  0
  149.5192  139.7825  154.9296 C   0  0  0  0  0  0  0  0  0  0  0  0
  148.7194  139.1580  153.9302 C   0  0  0  0  0  0  0  0  0  0  0  0
  147.7219  139.9246  153.5081 N   0  0  0  0  0  0  0  0  0  0  0  0
  147.8390  141.0700  154.2150 N   0  0  0  0  0  0  0  0  0  0  0  0
  146.8961  142.1516  154.0061 C   0  0  0  0  0  0  0  0  0  0  0  0
  153.0209  140.4424  161.0508 H   0  0  0  0  0  0  0  0  0  0  0  0
  153.7203  142.0532  160.9170 H   0  0  0  0  0  0  0  0  0  0  0  0
  153.7159  140.9650  159.5178 H   0  0  0  0  0  0  0  0  0  0  0  0
  152.2866  142.5574  158.1288 H   0  0  0  0  0  0  0  0  0  0  0  0
  152.7806  144.0475  160.7148 H   0  0  0  0  0  0  0  0  0  0  0  0
  153.8640  143.8878  159.3341 H   0  0  0  0  0  0  0  0  0  0  0  0
  152.5072  146.1801  159.6030 H   0  0  0  0  0  0  0  0  0  0  0  0
  152.4990  145.4085  158.0168 H   0  0  0  0  0  0  0  0  0  0  0  0
  150.3430  145.3066  160.1360 H   0  0  0  0  0  0  0  0  0  0  0  0
  150.1401  145.6329  158.4255 H   0  0  0  0  0  0  0  0  0  0  0  0
  149.8486  143.1266  159.7214 H   0  0  0  0  0  0  0  0  0  0  0  0
  149.7224  144.0003  157.0487 H   0  0  0  0  0  0  0  0  0  0  0  0
  149.0818  142.9517  155.5240 H   0  0  0  0  0  0  0  0  0  0  0  0
  150.3851  139.3864  155.4381 H   0  0  0  0  0  0  0  0  0  0  0  0
  148.8336  138.1740  153.4997 H   0  0  0  0  0  0  0  0  0  0  0  0
  146.3247  142.3195  154.9191 H   0  0  0  0  0  0  0  0  0  0  0  0
  146.2065  141.9100  153.1962 H   0  0  0  0  0  0  0  0  0  0  0  0
  147.4352  143.0638  153.7490 H   0  0  0  0  0  0  0  0  0  0  0  0
  1  2  1  0  0  0  0
  1 18  1  0  0  0  0
  1 19  1  0  0  0  0
  1 20  1  0  0  0  0
  2  3  1  0  0  0  0
  3  7  1  0  0  0  0
  3  4  1  0  0  0  0
  3 21  1  0  0  0  0
  4  5  1  0  0  0  0
  4 22  1  0  0  0  0
  4 23  1  0  0  0  0
  5  6  1  0  0  0  0
  5 24  1  0  0  0  0
  5 25  1  0  0  0  0
  6  7  1  0  0  0  0
  6 26  1  0  0  0  0
  6 27  1  0  0  0  0
  7  8  1  0  0  0  0
  7 28  1  0  0  0  0
  8  9  1  0  0  0  0
  8 29  1  0  0  0  0
  9 10  2  0  0  0  0
  9 11  1  0  0  0  0
 11 12  1  0  0  0  0
 11 30  1  0  0  0  0
 12 16  1  0  0  0  0
 12 13  2  0  0  0  0
 13 14  1  0  0  0  0
 13 31  1  0  0  0  0
 14 15  2  0  0  0  0
 14 32  1  0  0  0  0
 15 16  1  0  0  0  0
 16 17  1  0  0  0  0
 17 33  1  0  0  0  0
 17 34  1  0  0  0  0
 17 35  1  0  0  0  0
M  END
> <s_m_source_file>
AV-unprocessed.smi

> <i_m_source_file_index>
2789

> <i_lp_mmshare_version>
43012

> <i_f3d_flags>
0

> <s_epik_input>
W0NIM11PW0NAQEhdMVtDSDJdW0NIMl1bQ0gyXVtDQEhdMVtOSF1DKD1PKVtOSF1jMltjSF1bY0hdbm4yW0NIM10=

> <s_epik_cmdline>
J2VwaWtfcHl0aG9uJywgJy1waCcsICc3LjAnLCAnLXRuJywgJzgnLCAnLW1hJywgJzIwMCcsICctbWV0YWxfYmluZGluZycsICctaW1hZScsICc8aW5maWxlLm1hZT4nLCAnLW9tYWUnLCAnPG91dGZpbGUubWFlPic=

> <r_lp_tautomer_probability>
1

> <r_epik_Ionization_Penalty>
4.40608e-05

> <r_epik_Ionization_Penalty_Charging>
0

> <r_epik_Ionization_Penalty_Neutral>
4.40608e-05

> <r_epik_State_Penalty>
-0

> <r_epik_Charging_Adjusted_Penalty>
0

> <i_epik_Tot_Q>
0

> <i_epik_Tot_abs_Q>
0

> <r_epik_Metal_State_Penalty>
-0

> <b_epik_Metal_Only>
0

> <s_lp_Force_Field>
OPLS_2005

> <r_lp_Energy>
20.8704

> <b_lp_Chiralities_Consistent>
1

> <s_lp_Variant>
AV-unprocessed.smi:2789-1

> <Gold.Version>
5.8.1

> <Gold.Id.Protein>
6NUR|6NUR_protein|mol2

> <Gold.PLP.Fitness>
44.2415

> <Gold.PLP.PLP>
-35.8288

> <Gold.PLP.part.hbond>
-2.3297

> <Gold.PLP.part.metal>
0.0000

> <Gold.PLP.part.buried>
-5.1890

> <Gold.PLP.part.nonpolar>
-28.9776

> <Gold.PLP.part.repulsive>
1.0669

> <Gold.PLP.ligand.clash>
0.0000

> <Gold.PLP.ligand.torsion>
0.2964

> <Gold.PLP.Chemscore.Hbond>
2.0000

> <Gold.PLP.Chemscore.CHOScore>
1.0000

> <Gold.PLP.Chemscore.Metal>
0.0000

> <Gold.Chemscore.Hbonds>
donor molecule, donor type, donor heavy atom, donor atom, acceptor molecule, acceptor atom, score
      L1  H     8    29       P1  8028  1.00
      L1  H    11    30       P1  8028  1.00
      L1  C    14    32       P1  7948  1.00

> <Gold.PLP.Chemscore.Internal.Correction>
0.0056

> <Gold.Rescore>
     Score         DG    S(hbond)    S(metal)    S(lipo)     H(rot)  DE(clash)    DE(int)     intcor
     17.89     -18.19       1.85        0.00      83.69       1.27       0.00       0.30       ----

> <Gold.Chemscore.Fitness>
17.8895

> <Gold.Chemscore.DG>
-18.1893

> <Gold.Chemscore.ZeroCoef>
-5.4800

> <Gold.Chemscore.Hbond>
1.8479

> <Gold.Chemscore.Metal>
0.0000

> <Gold.Chemscore.Lipo>
83.6903

> <Gold.Chemscore.Internal_Hbond>
0.0000

> <Gold.Chemscore.DEClash>
0.0029

> <Gold.Chemscore.DEInternal>
0.2969

> <Gold.Chemscore.Rot>
1.2712

> <Gold.Chemscore.Internal.Correction>
   9.000000E+99

> <Gold.Chemscore.Hbonds>
donor molecule, donor type, donor heavy atom, donor atom, acceptor molecule, acceptor atom, score
      L1  H     8    29       P1  8028  0.76
      L1  H    11    30       P1  8028  0.98

> <Gold.Chemscore.Hbond.Weighted>
-6.1719

> <Gold.Chemscore.Metal.Weighted>
-0.0000

> <Gold.Chemscore.Lipo.Weighted>
-9.7918

> <Gold.Chemscore.Internal_Hbond.Weighted>
0.0000

> <Gold.Chemscore.DEClash.Weighted>
0.0029

> <Gold.Chemscore.DEInternal.Weighted>
0.2969

> <Gold.Chemscore.Rot.Weighted>
3.2544

> <Gold.Chemscore.Internal.Correction.Weighted>
   9.000000E+99

> <Gold.Protein.RotatedTorsions>
[ 6907 6896 6895 6894 ] final  162.62 input  -60.11 | X-H torsion
[ 7974 7965 7964 7962 ] final   80.23 input  175.53 | X-H torsion
[ 8008 7997 7996 7995 ] final   15.47 input   59.86 | X-H torsion
[ 10167 10162 10161 10158 ] final  -72.02 input  -65.29 | X-H torsion
[ 10718 10713 10712 10709 ] final -107.05 input   66.30 | X-H torsion
[ 10763 10752 10751 10750 ] final  -81.56 input  -60.55 | X-H torsion
[ 11005 11000 10999 10996 ] final  -86.62 input  -57.11 | X-H torsion

> <Gold.Protein.ActiveResidues>
 VAL166  LYS551  ARG553  GLY616  TRP617  ASP618  TYR619  PRO620  LYS621  CYS622 
 ASP623  PHE694  ASN695  SER759  ASP760  ASP761  ALA762  ILE779  LEU786  VAL792 
 PHE793  MET794  SER795  GLU796  ALA797  LYS798  CYS799  TRP800  GLU811  SER814 

> <Gold.Protein.RotatedAtoms>
  151.9376  133.3629  159.3953 H   0  0  0  0  0  0  0  0  0  0  0  0  # atno 6907 bound_to 6896
  150.7004  134.4472  159.5329 H   0  0  0  0  0  0  0  0  0  0  0  0  # atno 6908 bound_to 6896
  152.2124  134.8489  160.0546 H   0  0  0  0  0  0  0  0  0  0  0  0  # atno 6909 bound_to 6896
  145.6539  139.2454  143.1961 H   0  0  0  0  0  0  0  0  0  0  0  0  # atno 7974 bound_to 7965
  154.8632  140.2947  155.5526 H   0  0  0  0  0  0  0  0  0  0  0  0  # atno 8008 bound_to 7997
  156.3020  140.2474  156.3542 H   0  0  0  0  0  0  0  0  0  0  0  0  # atno 8009 bound_to 7997
  154.8896  140.0395  157.1820 H   0  0  0  0  0  0  0  0  0  0  0  0  # atno 8010 bound_to 7997
  140.5226  143.2330  151.7404 H   0  0  0  0  0  0  0  0  0  0  0  0  # atno 10167 bound_to 10162
  156.0418  130.5643  150.7766 H   0  0  0  0  0  0  0  0  0  0  0  0  # atno 10718 bound_to 10713
  154.5650  135.5622  153.7042 H   0  0  0  0  0  0  0  0  0  0  0  0  # atno 10763 bound_to 10752
  153.0030  135.6283  154.2192 H   0  0  0  0  0  0  0  0  0  0  0  0  # atno 10764 bound_to 10752
  154.2131  135.2873  155.2931 H   0  0  0  0  0  0  0  0  0  0  0  0  # atno 10765 bound_to 10752
  141.1627  133.7465  156.9188 H   0  0  0  0  0  0  0  0  0  0  0  0  # atno 11005 bound_to 11000
  146.1181  140.7344  142.9471 LP  0  0  0  0  0  0  0  0  0  0  0  0  # atno 17320 bound_to 7965
  144.7113  140.4047  143.7079 LP  0  0  0  0  0  0  0  0  0  0  0  0  # atno 17321 bound_to 7965
  139.4928  144.4233  151.9954 LP  0  0  0  0  0  0  0  0  0  0  0  0  # atno 17342 bound_to 10162
  140.3330  144.3293  150.5983 LP  0  0  0  0  0  0  0  0  0  0  0  0  # atno 17343 bound_to 10162
  157.5245  131.0933  151.0035 LP  0  0  0  0  0  0  0  0  0  0  0  0  # atno 17370 bound_to 10713
  157.0357  130.5729  149.5349 LP  0  0  0  0  0  0  0  0  0  0  0  0  # atno 17371 bound_to 10713
  140.1466  134.9258  157.2537 LP  0  0  0  0  0  0  0  0  0  0  0  0  # atno 17394 bound_to 11000
  140.2773  134.3390  155.7354 LP  0  0  0  0  0  0  0  0  0  0  0  0  # atno 17395 bound_to 11000

$$$$
