AV-unprocessed.smi:268|AV-procd|sdf|2041|dock1
  -GOLD-   2262021253D 1   1.00000     0.00000
 Structure written by MMmdl.
 50 53  0  0  0  0  0  0  0  0  1 V2000
  151.6311  144.6985  160.2636 C   0  0  0  0  0  0  0  0  0  0  0  0
  150.5968  144.9466  159.1577 C   0  0  0  0  0  0  0  0  0  0  0  0
  150.3250  143.7789  158.3940 O   0  0  0  0  0  0  0  0  0  0  0  0
  151.4784  143.0671  157.9688 C   0  0  2  0  0  0  0  0  0  0  0  0
  151.2004  141.9301  156.9746 C   0  0  0  0  0  0  0  0  0  0  0  0
  152.1977  141.0776  157.7785 C   0  0  2  0  0  0  0  0  0  0  0  0
  151.7838  139.6849  157.9661 N   0  0  0  0  0  0  0  0  0  0  0  0
  152.2495  139.0051  159.1708 C   0  0  0  0  0  0  0  0  0  0  0  0
  151.7426  138.8724  156.8774 C   0  0  0  0  0  0  0  0  0  0  0  0
  152.4812  139.1718  155.7747 N   0  0  0  0  0  0  0  0  0  0  0  0
  152.4546  138.3720  154.7049 C   0  0  0  0  0  0  0  0  0  0  0  0
  151.7710  137.2403  154.5264 N   0  0  0  0  0  0  0  0  0  0  0  0
  151.0290  136.9325  155.6283 C   0  0  0  0  0  0  0  0  0  0  0  0
  150.9598  137.6837  156.8355 C   0  0  0  0  0  0  0  0  0  0  0  0
  150.0972  137.0602  157.7295 N   0  0  0  0  0  0  0  0  0  0  0  0
  149.6826  136.0015  157.0888 C   0  0  0  0  0  0  0  0  0  0  0  0
  150.1845  135.8518  155.8156 N   0  0  0  0  0  0  0  0  0  0  0  0
  149.8907  134.7760  154.8811 C   0  0  0  0  0  0  0  0  0  0  0  0
  150.1270  133.3678  155.4584 C   0  0  0  0  0  0  0  0  0  0  0  0
  149.9956  132.3372  154.3182 C   0  0  0  0  0  0  0  0  0  0  0  0
  150.1895  131.0094  154.7630 O   0  0  0  0  0  0  0  0  0  0  0  0
  151.3687  133.2383  156.3523 C   0  0  0  0  0  0  0  0  0  0  0  0
  150.5999  132.6875  157.4444 O   0  0  0  0  0  0  0  0  0  0  0  0
  149.3778  133.0351  156.7568 C   0  0  0  0  0  0  0  0  0  0  0  0
  151.8709  141.9798  158.9778 C   0  0  0  0  0  0  0  0  0  0  0  0
  151.9042  145.6345  160.7510 H   0  0  0  0  0  0  0  0  0  0  0  0
  152.5411  144.2571  159.8568 H   0  0  0  0  0  0  0  0  0  0  0  0
  151.2464  144.0324  161.0348 H   0  0  0  0  0  0  0  0  0  0  0  0
  149.6765  145.3640  159.5690 H   0  0  0  0  0  0  0  0  0  0  0  0
  150.9931  145.6956  158.4719 H   0  0  0  0  0  0  0  0  0  0  0  0
  152.3307  143.6926  157.6946 H   0  0  0  0  0  0  0  0  0  0  0  0
  150.1726  141.5645  157.0242 H   0  0  0  0  0  0  0  0  0  0  0  0
  151.5070  142.1362  155.9489 H   0  0  0  0  0  0  0  0  0  0  0  0
  153.2265  141.2039  157.4362 H   0  0  0  0  0  0  0  0  0  0  0  0
  151.3996  138.6259  159.7388 H   0  0  0  0  0  0  0  0  0  0  0  0
  152.8060  139.6840  159.8174 H   0  0  0  0  0  0  0  0  0  0  0  0
  152.9066  138.1664  158.9347 H   0  0  0  0  0  0  0  0  0  0  0  0
  153.0692  138.6837  153.8733 H   0  0  0  0  0  0  0  0  0  0  0  0
  148.9921  135.2988  157.5313 H   0  0  0  0  0  0  0  0  0  0  0  0
  148.8585  134.8819  154.5454 H   0  0  0  0  0  0  0  0  0  0  0  0
  150.5049  134.9340  153.9937 H   0  0  0  0  0  0  0  0  0  0  0  0
  149.0073  132.3795  153.8604 H   0  0  0  0  0  0  0  0  0  0  0  0
  150.7198  132.5383  153.5281 H   0  0  0  0  0  0  0  0  0  0  0  0
  149.6763  130.8765  155.5454 H   0  0  0  0  0  0  0  0  0  0  0  0
  152.1243  132.5463  155.9792 H   0  0  0  0  0  0  0  0  0  0  0  0
  151.8228  134.1932  156.6212 H   0  0  0  0  0  0  0  0  0  0  0  0
  148.8885  133.8915  157.2218 H   0  0  0  0  0  0  0  0  0  0  0  0
  148.6891  132.1938  156.6734 H   0  0  0  0  0  0  0  0  0  0  0  0
  152.7263  142.2301  159.6058 H   0  0  0  0  0  0  0  0  0  0  0  0
  151.0253  141.6259  159.5712 H   0  0  0  0  0  0  0  0  0  0  0  0
  1  2  1  0  0  0  0
  1 26  1  0  0  0  0
  1 27  1  0  0  0  0
  1 28  1  0  0  0  0
  2  3  1  0  0  0  0
  2 29  1  0  0  0  0
  2 30  1  0  0  0  0
  3  4  1  0  0  0  0
  4 25  1  0  0  0  0
  4  5  1  0  0  0  0
  4 31  1  0  0  0  0
  5  6  1  0  0  0  0
  5 32  1  0  0  0  0
  5 33  1  0  0  0  0
  6  7  1  0  0  0  0
  6 25  1  0  0  0  0
  6 34  1  0  0  0  0
  7  8  1  0  0  0  0
  7  9  1  0  0  0  0
  8 35  1  0  0  0  0
  8 36  1  0  0  0  0
  8 37  1  0  0  0  0
  9 14  1  0  0  0  0
  9 10  2  0  0  0  0
 10 11  1  0  0  0  0
 11 12  2  0  0  0  0
 11 38  1  0  0  0  0
 12 13  1  0  0  0  0
 13 17  1  0  0  0  0
 13 14  2  0  0  0  0
 14 15  1  0  0  0  0
 15 16  2  0  0  0  0
 16 17  1  0  0  0  0
 16 39  1  0  0  0  0
 17 18  1  0  0  0  0
 18 19  1  0  0  0  0
 18 40  1  0  0  0  0
 18 41  1  0  0  0  0
 19 24  1  0  0  0  0
 19 20  1  0  0  0  0
 19 22  1  0  0  0  0
 20 21  1  0  0  0  0
 20 42  1  0  0  0  0
 20 43  1  0  0  0  0
 21 44  1  0  0  0  0
 22 23  1  0  0  0  0
 22 45  1  0  0  0  0
 22 46  1  0  0  0  0
 23 24  1  0  0  0  0
 24 47  1  0  0  0  0
 24 48  1  0  0  0  0
 25 49  1  0  0  0  0
 25 50  1  0  0  0  0
M  END
> <s_m_source_file>
AV-unprocessed.smi

> <i_m_source_file_index>
268

> <i_lp_mmshare_version>
43012

> <i_f3d_flags>
0

> <s_epik_input>
W0NIM11bQ0gyXU9bQ0BASF0xW0NIMl1bQ0BIXShbQ0gyXTEpTihbQ0gzXSljKG5bY0hdbjIpYyhjMjMpbltjSF1uM1tDSDJdQzQoW0NIMl1bT0hdKVtDSDJdT1tDSDJdNA==

> <s_epik_cmdline>
J2VwaWtfcHl0aG9uJywgJy1waCcsICc3LjAnLCAnLXRuJywgJzgnLCAnLW1hJywgJzIwMCcsICctbWV0YWxfYmluZGluZycsICctaW1hZScsICc8aW5maWxlLm1hZT4nLCAnLW9tYWUnLCAnPG91dGZpbGUubWFlPic=

> <r_lp_tautomer_probability>
1

> <r_epik_Ionization_Penalty>
0.00205824

> <r_epik_Ionization_Penalty_Charging>
0

> <r_epik_Ionization_Penalty_Neutral>
0.00205824

> <r_epik_State_Penalty>
0.00125218

> <r_epik_Charging_Adjusted_Penalty>
0.00125218

> <i_epik_Tot_Q>
0

> <i_epik_Tot_abs_Q>
0

> <r_epik_Metal_State_Penalty>
-0

> <b_epik_Metal_Only>
0

> <s_lp_Force_Field>
OPLS_2005

> <r_lp_Energy>
41.5967

> <b_lp_Chiralities_Consistent>
1

> <s_lp_Variant>
AV-unprocessed.smi:268-2

> <Gold.Version>
5.8.1

> <Gold.Id.Protein>
6NUR|6NUR_protein|mol2

> <Gold.PLP.Fitness>
42.4319

> <Gold.PLP.PLP>
-37.0326

> <Gold.PLP.part.hbond>
-2.3740

> <Gold.PLP.part.metal>
0.0000

> <Gold.PLP.part.buried>
-8.8455

> <Gold.PLP.part.nonpolar>
-26.0687

> <Gold.PLP.part.repulsive>
0.3242

> <Gold.PLP.ligand.clash>
0.0000

> <Gold.PLP.ligand.torsion>
1.0769

> <Gold.PLP.Chemscore.Hbond>
1.9508

> <Gold.PLP.Chemscore.CHOScore>
0.0000

> <Gold.PLP.Chemscore.Metal>
0.0000

> <Gold.Chemscore.Hbonds>
donor molecule, donor type, donor heavy atom, donor atom, acceptor molecule, acceptor atom, score
      P1  H  6896  6908       L1    23  0.96
      P1  H 10752 10764       L1    12  1.00

> <Gold.PLP.Chemscore.Internal.Correction>
1.7008

> <Gold.Rescore>
     Score         DG    S(hbond)    S(metal)    S(lipo)     H(rot)  DE(clash)    DE(int)     intcor
     10.22     -13.02       1.51        0.00      90.30       3.15       0.05       2.75       ----

> <Gold.Chemscore.Fitness>
10.2197

> <Gold.Chemscore.DG>
-13.0175

> <Gold.Chemscore.ZeroCoef>
-5.4800

> <Gold.Chemscore.Hbond>
1.5110

> <Gold.Chemscore.Metal>
0.0000

> <Gold.Chemscore.Lipo>
90.3043

> <Gold.Chemscore.Internal_Hbond>
0.0000

> <Gold.Chemscore.DEClash>
0.0519

> <Gold.Chemscore.DEInternal>
2.7458

> <Gold.Chemscore.Rot>
3.1542

> <Gold.Chemscore.Internal.Correction>
   9.000000E+99

> <Gold.Chemscore.Hbonds>
donor molecule, donor type, donor heavy atom, donor atom, acceptor molecule, acceptor atom, score
      P1  H  6896  6908       L1    23  0.60
      P1  H 10752 10764       L1    12  0.20

> <Gold.Chemscore.Hbond.Weighted>
-5.0467

> <Gold.Chemscore.Metal.Weighted>
-0.0000

> <Gold.Chemscore.Lipo.Weighted>
-10.5656

> <Gold.Chemscore.Internal_Hbond.Weighted>
0.0000

> <Gold.Chemscore.DEClash.Weighted>
0.0519

> <Gold.Chemscore.DEInternal.Weighted>
2.7458

> <Gold.Chemscore.Rot.Weighted>
8.0748

> <Gold.Chemscore.Internal.Correction.Weighted>
   9.000000E+99

> <Gold.Protein.RotatedTorsions>
[ 6907 6896 6895 6894 ] final   75.00 input  -60.11 | X-H torsion
[ 7974 7965 7964 7962 ] final  103.68 input  175.53 | X-H torsion
[ 8008 7997 7996 7995 ] final  136.22 input   59.86 | X-H torsion
[ 10167 10162 10161 10158 ] final  129.77 input  -65.29 | X-H torsion
[ 10718 10713 10712 10709 ] final   59.78 input   66.30 | X-H torsion
[ 10763 10752 10751 10750 ] final  -68.84 input  -60.55 | X-H torsion
[ 11005 11000 10999 10996 ] final  -36.08 input  -57.11 | X-H torsion

> <Gold.Protein.ActiveResidues>
 VAL166  LYS551  ARG553  GLY616  TRP617  ASP618  TYR619  PRO620  LYS621  CYS622 
 ASP623  PHE694  ASN695  SER759  ASP760  ASP761  ALA762  ILE779  LEU786  VAL792 
 PHE793  MET794  SER795  GLU796  ALA797  LYS798  CYS799  TRP800  GLU811  SER814 

> <Gold.Protein.RotatedAtoms>
  152.5004  134.4187  159.9472 H   0  0  0  0  0  0  0  0  0  0  0  0  # atno 6907 bound_to 6896
  151.4158  133.3707  159.2757 H   0  0  0  0  0  0  0  0  0  0  0  0  # atno 6908 bound_to 6896
  150.9258  134.8697  159.7578 H   0  0  0  0  0  0  0  0  0  0  0  0  # atno 6909 bound_to 6896
  145.3427  139.2458  143.3601 H   0  0  0  0  0  0  0  0  0  0  0  0  # atno 7974 bound_to 7965
  156.3004  140.2450  156.3710 H   0  0  0  0  0  0  0  0  0  0  0  0  # atno 8008 bound_to 7997
  154.8789  140.0413  157.1789 H   0  0  0  0  0  0  0  0  0  0  0  0  # atno 8009 bound_to 7997
  154.8717  140.2936  155.5481 H   0  0  0  0  0  0  0  0  0  0  0  0  # atno 8010 bound_to 7997
  139.5462  144.6775  151.4467 H   0  0  0  0  0  0  0  0  0  0  0  0  # atno 10167 bound_to 10162
  157.5702  130.8901  149.9254 H   0  0  0  0  0  0  0  0  0  0  0  0  # atno 10718 bound_to 10713
  154.3948  135.6044  153.5863 H   0  0  0  0  0  0  0  0  0  0  0  0  # atno 10763 bound_to 10752
  152.9787  135.5892  154.4255 H   0  0  0  0  0  0  0  0  0  0  0  0  # atno 10764 bound_to 10752
  154.4044  135.2843  155.2054 H   0  0  0  0  0  0  0  0  0  0  0  0  # atno 10765 bound_to 10752
  140.9847  133.7037  156.1744 H   0  0  0  0  0  0  0  0  0  0  0  0  # atno 11005 bound_to 11000
  146.3001  140.4027  142.8707 LP  0  0  0  0  0  0  0  0  0  0  0  0  # atno 17320 bound_to 7965
  144.8778  140.7359  143.6006 LP  0  0  0  0  0  0  0  0  0  0  0  0  # atno 17321 bound_to 7965
  140.6710  143.8293  150.7000 LP  0  0  0  0  0  0  0  0  0  0  0  0  # atno 17342 bound_to 10162
  140.1717  143.4188  152.1996 LP  0  0  0  0  0  0  0  0  0  0  0  0  # atno 17343 bound_to 10162
  156.0748  130.3680  150.0701 LP  0  0  0  0  0  0  0  0  0  0  0  0  # atno 17370 bound_to 10713
  156.8855  130.9571  151.3594 LP  0  0  0  0  0  0  0  0  0  0  0  0  # atno 17371 bound_to 10713
  140.7133  134.4438  157.5580 LP  0  0  0  0  0  0  0  0  0  0  0  0  # atno 17394 bound_to 11000
  139.8965  134.8658  156.2084 LP  0  0  0  0  0  0  0  0  0  0  0  0  # atno 17395 bound_to 11000

$$$$
