AV-unprocessed.smi:1280|AV-procd|sdf|5357|dock7
  -GOLD-   22720 4493D 1   1.00000     0.00000
 Structure written by MMmdl.
 45 46  0  0  0  0  0  0  0  0  1 V2000
  156.2535  135.5562  158.9719 C   0  0  0  0  0  0  0  0  0  0  0  0
  154.5489  134.9597  158.6321 S   0  0  0  0  0  0  0  0  0  0  0  0
  154.3098  135.0327  157.1826 O   0  0  0  0  0  0  0  0  0  0  0  0
  154.3291  133.6985  159.3560 O   0  0  0  0  0  0  0  0  0  0  0  0
  153.5752  136.1655  159.3862 N   0  0  0  0  0  0  0  0  0  0  0  0
  154.0131  136.6850  160.6797 C   0  0  0  0  0  0  0  0  0  0  0  0
  153.4907  138.1122  160.8849 C   0  0  0  0  0  0  0  0  0  0  0  0
  154.3695  139.1599  160.1839 C   0  0  0  0  0  0  0  0  0  0  0  0
  153.7443  140.4760  160.1939 N   0  0  0  0  0  0  0  0  0  0  0  0
  152.5723  140.7804  159.6130 C   0  0  0  0  0  0  0  0  0  0  0  0
  151.8639  139.9523  159.0403 O   0  0  0  0  0  0  0  0  0  0  0  0
  152.1150  142.2084  159.7585 C   0  0  0  0  0  0  0  0  0  0  0  0
  152.6493  142.9809  160.8142 C   0  0  0  0  0  0  0  0  0  0  0  0
  152.2482  144.3192  160.9704 C   0  0  0  0  0  0  0  0  0  0  0  0
  151.3134  144.8424  160.0615 C   0  0  0  0  0  0  0  0  0  0  0  0
  150.7763  144.1184  159.0593 N   0  0  0  0  0  0  0  0  0  0  0  0
  151.1493  142.8237  158.9037 C   0  0  0  0  0  0  0  0  0  0  0  0
  150.4994  142.1066  157.8788 N   0  0  0  0  0  0  0  0  0  0  0  0
  149.0448  142.1198  157.9735 C   0  0  0  0  0  0  0  0  0  0  0  0
  148.4511  141.0765  157.0116 C   0  0  0  0  0  0  0  0  0  0  0  0
  148.9184  141.3230  155.6878 O   0  0  0  0  0  0  0  0  0  0  0  0
  150.3379  141.2365  155.5930 C   0  0  0  0  0  0  0  0  0  0  0  0
  150.9816  142.2875  156.5136 C   0  0  0  0  0  0  0  0  0  0  0  0
  156.9724  134.8629  158.5360 H   0  0  0  0  0  0  0  0  0  0  0  0
  156.4138  135.6141  160.0481 H   0  0  0  0  0  0  0  0  0  0  0  0
  156.3892  136.5428  158.5294 H   0  0  0  0  0  0  0  0  0  0  0  0
  153.3827  136.9293  158.7384 H   0  0  0  0  0  0  0  0  0  0  0  0
  153.6522  136.0270  161.4710 H   0  0  0  0  0  0  0  0  0  0  0  0
  155.1030  136.6729  160.7173 H   0  0  0  0  0  0  0  0  0  0  0  0
  152.4690  138.1797  160.5084 H   0  0  0  0  0  0  0  0  0  0  0  0
  153.4429  138.3336  161.9521 H   0  0  0  0  0  0  0  0  0  0  0  0
  155.3303  139.2405  160.6930 H   0  0  0  0  0  0  0  0  0  0  0  0
  154.5867  138.8555  159.1586 H   0  0  0  0  0  0  0  0  0  0  0  0
  154.2465  141.2169  160.6613 H   0  0  0  0  0  0  0  0  0  0  0  0
  153.3725  142.5588  161.4973 H   0  0  0  0  0  0  0  0  0  0  0  0
  152.6504  144.9299  161.7650 H   0  0  0  0  0  0  0  0  0  0  0  0
  150.9824  145.8671  160.1449 H   0  0  0  0  0  0  0  0  0  0  0  0
  148.7194  141.9131  158.9932 H   0  0  0  0  0  0  0  0  0  0  0  0
  148.6796  143.1156  157.7182 H   0  0  0  0  0  0  0  0  0  0  0  0
  148.7219  140.0657  157.3216 H   0  0  0  0  0  0  0  0  0  0  0  0
  147.3625  141.1323  157.0214 H   0  0  0  0  0  0  0  0  0  0  0  0
  150.6693  140.2314  155.8590 H   0  0  0  0  0  0  0  0  0  0  0  0
  150.6367  141.4086  154.5590 H   0  0  0  0  0  0  0  0  0  0  0  0
  150.7295  143.2893  156.1628 H   0  0  0  0  0  0  0  0  0  0  0  0
  152.0681  142.1952  156.4871 H   0  0  0  0  0  0  0  0  0  0  0  0
  1  2  1  0  0  0  0
  1 24  1  0  0  0  0
  1 25  1  0  0  0  0
  1 26  1  0  0  0  0
  2  3  2  0  0  0  0
  2  4  2  0  0  0  0
  2  5  1  0  0  0  0
  5  6  1  0  0  0  0
  5 27  1  0  0  0  0
  6  7  1  0  0  0  0
  6 28  1  0  0  0  0
  6 29  1  0  0  0  0
  7  8  1  0  0  0  0
  7 30  1  0  0  0  0
  7 31  1  0  0  0  0
  8  9  1  0  0  0  0
  8 32  1  0  0  0  0
  8 33  1  0  0  0  0
  9 10  1  0  0  0  0
  9 34  1  0  0  0  0
 10 11  2  0  0  0  0
 10 12  1  0  0  0  0
 12 17  1  0  0  0  0
 12 13  2  0  0  0  0
 13 14  1  0  0  0  0
 13 35  1  0  0  0  0
 14 15  2  0  0  0  0
 14 36  1  0  0  0  0
 15 16  1  0  0  0  0
 15 37  1  0  0  0  0
 16 17  2  0  0  0  0
 17 18  1  0  0  0  0
 18 23  1  0  0  0  0
 18 19  1  0  0  0  0
 19 20  1  0  0  0  0
 19 38  1  0  0  0  0
 19 39  1  0  0  0  0
 20 21  1  0  0  0  0
 20 40  1  0  0  0  0
 20 41  1  0  0  0  0
 21 22  1  0  0  0  0
 22 23  1  0  0  0  0
 22 42  1  0  0  0  0
 22 43  1  0  0  0  0
 23 44  1  0  0  0  0
 23 45  1  0  0  0  0
M  END
> <s_m_source_file>
AV-unprocessed.smi

> <i_m_source_file_index>
1280

> <i_lp_mmshare_version>
43012

> <i_f3d_flags>
0

> <s_epik_input>
W0NIM11TKD1PKSg9TylbTkhdW0NIMl1bQ0gyXVtDSDJdW05IXUMoPU8pYzFbY0hdW2NIXVtjSF1uYzFOMltDSDJdW0NIMl1PW0NIMl1bQ0gyXTI=

> <s_epik_cmdline>
J2VwaWtfcHl0aG9uJywgJy1waCcsICc3LjAnLCAnLXRuJywgJzgnLCAnLW1hJywgJzIwMCcsICctbWV0YWxfYmluZGluZycsICctaW1hZScsICc8aW5maWxlLm1hZT4nLCAnLW9tYWUnLCAnPG91dGZpbGUubWFlPic=

> <r_lp_tautomer_probability>
1

> <r_epik_Ionization_Penalty>
2.29251e-05

> <r_epik_Ionization_Penalty_Charging>
0

> <r_epik_Ionization_Penalty_Neutral>
2.29251e-05

> <r_epik_State_Penalty>
-0

> <r_epik_Charging_Adjusted_Penalty>
0

> <i_epik_Tot_Q>
0

> <i_epik_Tot_abs_Q>
0

> <r_epik_Metal_State_Penalty>
0.00766126

> <b_epik_Metal_Only>
0

> <s_lp_Force_Field>
OPLS_2005

> <r_lp_Energy>
17.2463

> <b_lp_Chiralities_Consistent>
1

> <s_lp_Variant>
AV-unprocessed.smi:1280-1

> <Gold.Version>
5.8.1

> <Gold.Id.Protein>
6NUR|6NUR_protein|mol2

> <Gold.PLP.Fitness>
39.9917

> <Gold.PLP.PLP>
-35.0267

> <Gold.PLP.part.hbond>
-3.0000

> <Gold.PLP.part.metal>
0.0000

> <Gold.PLP.part.buried>
-7.0762

> <Gold.PLP.part.nonpolar>
-25.9871

> <Gold.PLP.part.repulsive>
0.3473

> <Gold.PLP.ligand.clash>
0.0000

> <Gold.PLP.ligand.torsion>
1.2023

> <Gold.PLP.Chemscore.Hbond>
2.3138

> <Gold.PLP.Chemscore.CHOScore>
0.0000

> <Gold.PLP.Chemscore.Metal>
0.0000

> <Gold.Chemscore.Hbonds>
donor molecule, donor type, donor heavy atom, donor atom, acceptor molecule, acceptor atom, score
      P1  H  6896  6908       L1     5  0.60
      P1  H  6896  6909       L1     4  0.70
      P1  H 10752 10763       L1     3  1.00

> <Gold.PLP.Chemscore.Internal.Correction>
0.4283

> <Gold.Rescore>
     Score         DG    S(hbond)    S(metal)    S(lipo)     H(rot)  DE(clash)    DE(int)     intcor
     12.94     -15.32       1.94        0.00      85.16       2.58       0.02       2.37       ----

> <Gold.Chemscore.Fitness>
12.9369

> <Gold.Chemscore.DG>
-15.3205

> <Gold.Chemscore.ZeroCoef>
-5.4800

> <Gold.Chemscore.Hbond>
1.9432

> <Gold.Chemscore.Metal>
0.0000

> <Gold.Chemscore.Lipo>
85.1612

> <Gold.Chemscore.Internal_Hbond>
0.0000

> <Gold.Chemscore.DEClash>
0.0153

> <Gold.Chemscore.DEInternal>
2.3683

> <Gold.Chemscore.Rot>
2.5835

> <Gold.Chemscore.Internal.Correction>
   9.000000E+99

> <Gold.Chemscore.Hbonds>
donor molecule, donor type, donor heavy atom, donor atom, acceptor molecule, acceptor atom, score
      P1  H  6896  6908       L1     5  0.05
      P1  H  6896  6909       L1     4  0.33
      P1  H 10752 10763       L1     3  0.97

> <Gold.Chemscore.Hbond.Weighted>
-6.4904

> <Gold.Chemscore.Metal.Weighted>
-0.0000

> <Gold.Chemscore.Lipo.Weighted>
-9.9639

> <Gold.Chemscore.Internal_Hbond.Weighted>
0.0000

> <Gold.Chemscore.DEClash.Weighted>
0.0153

> <Gold.Chemscore.DEInternal.Weighted>
2.3683

> <Gold.Chemscore.Rot.Weighted>
6.6137

> <Gold.Chemscore.Internal.Correction.Weighted>
   9.000000E+99

> <Gold.Protein.RotatedTorsions>
[ 6907 6896 6895 6894 ] final -101.85 input  -60.11 | X-H torsion
[ 7974 7965 7964 7962 ] final  -11.60 input  175.53 | X-H torsion
[ 8008 7997 7996 7995 ] final  -66.97 input   59.86 | X-H torsion
[ 10167 10162 10161 10158 ] final -166.11 input  -65.29 | X-H torsion
[ 10718 10713 10712 10709 ] final  110.47 input   66.30 | X-H torsion
[ 10763 10752 10751 10750 ] final  163.91 input  -60.55 | X-H torsion
[ 11005 11000 10999 10996 ] final  109.41 input  -57.11 | X-H torsion

> <Gold.Protein.ActiveResidues>
 VAL166  LYS551  ARG553  GLY616  TRP617  ASP618  TYR619  PRO620  LYS621  CYS622 
 ASP623  PHE694  ASN695  SER759  ASP760  ASP761  ALA762  ILE779  LEU786  VAL792 
 PHE793  MET794  SER795  GLU796  ALA797  LYS798  CYS799  TRP800  GLU811  SER814 

> <Gold.Protein.RotatedAtoms>
  150.7171  134.0670  159.3850 H   0  0  0  0  0  0  0  0  0  0  0  0  # atno 6907 bound_to 6896
  151.8652  135.0507  160.0483 H   0  0  0  0  0  0  0  0  0  0  0  0  # atno 6908 bound_to 6896
  152.2686  133.5326  159.5462 H   0  0  0  0  0  0  0  0  0  0  0  0  # atno 6909 bound_to 6896
  146.2182  140.2935  142.8370 H   0  0  0  0  0  0  0  0  0  0  0  0  # atno 7974 bound_to 7965
  154.4769  140.0902  156.7284 H   0  0  0  0  0  0  0  0  0  0  0  0  # atno 8008 bound_to 7997
  155.4573  140.3459  155.4290 H   0  0  0  0  0  0  0  0  0  0  0  0  # atno 8009 bound_to 7997
  156.1130  140.1453  156.9300 H   0  0  0  0  0  0  0  0  0  0  0  0  # atno 8010 bound_to 7997
  139.6137  144.0763  152.1867 H   0  0  0  0  0  0  0  0  0  0  0  0  # atno 10167 bound_to 10162
  157.6493  131.0933  150.6606 H   0  0  0  0  0  0  0  0  0  0  0  0  # atno 10718 bound_to 10713
  154.3009  135.2759  155.2611 H   0  0  0  0  0  0  0  0  0  0  0  0  # atno 10763 bound_to 10752
  154.5049  135.5798  153.6563 H   0  0  0  0  0  0  0  0  0  0  0  0  # atno 10764 bound_to 10752
  152.9901  135.6167  154.3180 H   0  0  0  0  0  0  0  0  0  0  0  0  # atno 10765 bound_to 10752
  139.8861  134.9457  156.6121 H   0  0  0  0  0  0  0  0  0  0  0  0  # atno 11005 bound_to 11000
  144.9109  140.7756  143.5808 LP  0  0  0  0  0  0  0  0  0  0  0  0  # atno 17320 bound_to 7965
  145.2865  139.1899  143.4763 LP  0  0  0  0  0  0  0  0  0  0  0  0  # atno 17321 bound_to 7965
  140.0388  144.6023  150.7427 LP  0  0  0  0  0  0  0  0  0  0  0  0  # atno 17342 bound_to 10162
  140.7336  143.2719  151.3861 LP  0  0  0  0  0  0  0  0  0  0  0  0  # atno 17343 bound_to 10162
  156.6919  130.4597  149.5597 LP  0  0  0  0  0  0  0  0  0  0  0  0  # atno 17370 bound_to 10713
  156.1856  130.6527  151.1002 LP  0  0  0  0  0  0  0  0  0  0  0  0  # atno 17371 bound_to 10713
  140.7804  133.8665  155.8563 LP  0  0  0  0  0  0  0  0  0  0  0  0  # atno 17394 bound_to 11000
  140.9765  134.1462  157.4531 LP  0  0  0  0  0  0  0  0  0  0  0  0  # atno 17395 bound_to 11000

$$$$
