AV-unprocessed.smi:287|AV-procd|sdf|2193|dock6
  -GOLD-   2262021593D 1   1.00000     0.00000
 Structure written by MMmdl.
 55 58  0  0  0  0  0  0  0  0  1 V2000
  152.1474  144.3108  158.9222 C   0  0  0  0  0  0  0  0  0  0  0  0
  151.6406  143.0269  158.3606 C   0  0  0  0  0  0  0  0  0  0  0  0
  151.7149  141.7254  158.7636 C   0  0  0  0  0  0  0  0  0  0  0  0
  151.0338  140.9374  157.7880 C   0  0  0  0  0  0  0  0  0  0  0  0
  150.8577  139.4251  157.8207 C   0  0  1  0  0  0  0  0  0  0  0  0
  151.2970  138.8220  156.4763 C   0  0  0  0  0  0  0  0  0  0  0  0
  151.6682  138.7995  158.7966 O   0  0  0  0  0  0  0  0  0  0  0  0
  149.4061  139.0026  158.1433 C   0  0  0  0  0  0  0  0  0  0  0  0
  148.4116  139.8698  157.5246 N   0  0  0  0  0  0  0  0  0  0  0  0
  147.4664  139.3643  156.7055 C   0  0  0  0  0  0  0  0  0  0  0  0
  146.2960  140.0457  156.6756 N   0  0  0  0  0  0  0  0  0  0  0  0
  145.2975  139.6338  155.8894 C   0  0  0  0  0  0  0  0  0  0  0  0
  145.2615  138.5824  155.0688 N   0  0  0  0  0  0  0  0  0  0  0  0
  146.4346  137.8873  155.1000 C   0  0  0  0  0  0  0  0  0  0  0  0
  147.5814  138.2048  155.8820 C   0  0  0  0  0  0  0  0  0  0  0  0
  148.5751  137.2614  155.6372 N   0  0  0  0  0  0  0  0  0  0  0  0
  148.0455  136.4477  154.7639 C   0  0  0  0  0  0  0  0  0  0  0  0
  146.7579  136.7561  154.3861 N   0  0  0  0  0  0  0  0  0  0  0  0
  145.8675  136.0587  153.4105 C   0  0  2  0  0  0  0  0  0  0  0  0
  146.4916  134.8977  152.9804 O   0  0  0  0  0  0  0  0  0  0  0  0
  145.8501  134.4928  151.7797 C   0  0  2  0  0  0  0  0  0  0  0  0
  146.7955  133.5896  150.9736 C   0  0  0  0  0  0  0  0  0  0  0  0
  147.1420  132.4470  151.7270 O   0  0  0  0  0  0  0  0  0  0  0  0
  145.4616  135.8076  151.0711 C   0  0  1  0  0  0  0  0  0  0  0  0
  144.1184  135.7314  150.6356 O   0  0  0  0  0  0  0  0  0  0  0  0
  145.6051  136.8872  152.1455 C   0  0  2  0  0  0  0  0  0  0  0  0
  146.6644  137.7737  151.8309 O   0  0  0  0  0  0  0  0  0  0  0  0
  150.5777  141.8443  156.8616 C   0  0  0  0  0  0  0  0  0  0  0  0
  149.7826  141.7301  155.6028 C   0  0  0  0  0  0  0  0  0  0  0  0
  150.9453  143.1121  157.1989 O   0  0  0  0  0  0  0  0  0  0  0  0
  144.9589  135.8137  153.9634 H   0  0  0  0  0  0  0  0  0  0  0  0
  144.9593  133.9336  152.0750 H   0  0  0  0  0  0  0  0  0  0  0  0
  146.1052  136.0116  150.2136 H   0  0  0  0  0  0  0  0  0  0  0  0
  144.6974  137.4753  152.2895 H   0  0  0  0  0  0  0  0  0  0  0  0
  152.8500  144.1291  159.7357 H   0  0  0  0  0  0  0  0  0  0  0  0
  151.3264  144.9130  159.3117 H   0  0  0  0  0  0  0  0  0  0  0  0
  152.6613  144.8925  158.1566 H   0  0  0  0  0  0  0  0  0  0  0  0
  152.2093  141.3745  159.6573 H   0  0  0  0  0  0  0  0  0  0  0  0
  150.7014  139.2178  155.6526 H   0  0  0  0  0  0  0  0  0  0  0  0
  151.1851  137.7370  156.4680 H   0  0  0  0  0  0  0  0  0  0  0  0
  152.3426  139.0482  156.2626 H   0  0  0  0  0  0  0  0  0  0  0  0
  151.1090  138.4723  159.4845 H   0  0  0  0  0  0  0  0  0  0  0  0
  149.2439  137.9971  157.7528 H   0  0  0  0  0  0  0  0  0  0  0  0
  149.2493  138.9532  159.2215 H   0  0  0  0  0  0  0  0  0  0  0  0
  148.5534  140.8604  157.6600 H   0  0  0  0  0  0  0  0  0  0  0  0
  144.3997  140.2337  155.9217 H   0  0  0  0  0  0  0  0  0  0  0  0
  148.5862  135.6011  154.3657 H   0  0  0  0  0  0  0  0  0  0  0  0
  146.3409  133.2872  150.0297 H   0  0  0  0  0  0  0  0  0  0  0  0
  147.7123  134.1280  150.7319 H   0  0  0  0  0  0  0  0  0  0  0  0
  147.8941  132.0388  151.3259 H   0  0  0  0  0  0  0  0  0  0  0  0
  143.8628  136.5785  150.3031 H   0  0  0  0  0  0  0  0  0  0  0  0
  147.4293  137.2594  151.6207 H   0  0  0  0  0  0  0  0  0  0  0  0
  148.8453  141.2049  155.7855 H   0  0  0  0  0  0  0  0  0  0  0  0
  150.3383  141.1795  154.8438 H   0  0  0  0  0  0  0  0  0  0  0  0
  149.5421  142.7125  155.1958 H   0  0  0  0  0  0  0  0  0  0  0  0
  1  2  1  0  0  0  0
  1 35  1  0  0  0  0
  1 36  1  0  0  0  0
  1 37  1  0  0  0  0
  2 30  1  0  0  0  0
  2  3  2  0  0  0  0
  3  4  1  0  0  0  0
  3 38  1  0  0  0  0
  4  5  1  0  0  0  0
  4 28  2  0  0  0  0
  5  6  1  0  0  0  0
  5  7  1  0  0  0  0
  5  8  1  0  0  0  0
  6 39  1  0  0  0  0
  6 40  1  0  0  0  0
  6 41  1  0  0  0  0
  7 42  1  0  0  0  0
  8  9  1  0  0  0  0
  8 43  1  0  0  0  0
  8 44  1  0  0  0  0
  9 10  1  0  0  0  0
  9 45  1  0  0  0  0
 10 15  1  0  0  0  0
 10 11  2  0  0  0  0
 11 12  1  0  0  0  0
 12 13  2  0  0  0  0
 12 46  1  0  0  0  0
 13 14  1  0  0  0  0
 14 18  1  0  0  0  0
 14 15  2  0  0  0  0
 15 16  1  0  0  0  0
 16 17  2  0  0  0  0
 17 18  1  0  0  0  0
 17 47  1  0  0  0  0
 18 19  1  0  0  0  0
 19 31  1  0  0  0  0
 19 26  1  0  0  0  0
 19 20  1  0  0  0  0
 20 21  1  0  0  0  0
 21 32  1  0  0  0  0
 21 22  1  0  0  0  0
 21 24  1  0  0  0  0
 22 23  1  0  0  0  0
 22 48  1  0  0  0  0
 22 49  1  0  0  0  0
 23 50  1  0  0  0  0
 24 33  1  0  0  0  0
 24 25  1  0  0  0  0
 24 26  1  0  0  0  0
 25 51  1  0  0  0  0
 26 34  1  0  0  0  0
 26 27  1  0  0  0  0
 27 52  1  0  0  0  0
 28 29  1  0  0  0  0
 28 30  1  0  0  0  0
 29 53  1  0  0  0  0
 29 54  1  0  0  0  0
 29 55  1  0  0  0  0
M  END
> <s_m_source_file>
AV-unprocessed.smi

> <i_m_source_file_index>
287

> <i_lp_mmshare_version>
43012

> <i_f3d_flags>
0

> <s_epik_input>
W0NIM11jMVtjSF1jKGMobzEpW0NIM10pW0NAQF0oW0NIM10pKFtPSF0pW0NIMl1bTkhdYyhuW2NIXW4yKWMoYzIzKW5bY0hdbjNbQ0BASF00T1tDQEhdKFtDSDJdW09IXSlbQ0BASF0oW09IXSlbQ0BIXTRbT0hd

> <s_epik_cmdline>
J2VwaWtfcHl0aG9uJywgJy1waCcsICc3LjAnLCAnLXRuJywgJzgnLCAnLW1hJywgJzIwMCcsICctbWV0YWxfYmluZGluZycsICctaW1hZScsICc8aW5maWxlLm1hZT4nLCAnLW9tYWUnLCAnPG91dGZpbGUubWFlPic=

> <r_lp_tautomer_probability>
1

> <r_epik_Ionization_Penalty>
0.000992612

> <r_epik_Ionization_Penalty_Charging>
0

> <r_epik_Ionization_Penalty_Neutral>
0.000992612

> <r_epik_State_Penalty>
-0

> <r_epik_Charging_Adjusted_Penalty>
0

> <i_epik_Tot_Q>
0

> <i_epik_Tot_abs_Q>
0

> <r_epik_Metal_State_Penalty>
-0

> <b_epik_Metal_Only>
0

> <s_epik_Chemistry_Notes>
This compound contains an acetal/aminal-like group ( X-CH(R)-Y where X, Y are N, S, or O) that may be acid/base labile, releasing an aldehyde.

> <s_lp_Force_Field>
OPLS_2005

> <r_lp_Energy>
41.001

> <b_lp_Chiralities_Consistent>
1

> <s_lp_Variant>
AV-unprocessed.smi:287-17

> <Gold.Version>
5.8.1

> <Gold.Id.Protein>
6NUR|6NUR_protein|mol2

> <Gold.PLP.Fitness>
42.7056

> <Gold.PLP.PLP>
-34.2396

> <Gold.PLP.part.hbond>
-3.0000

> <Gold.PLP.part.metal>
0.0000

> <Gold.PLP.part.buried>
-6.3056

> <Gold.PLP.part.nonpolar>
-26.4896

> <Gold.PLP.part.repulsive>
1.4280

> <Gold.PLP.ligand.clash>
0.0000

> <Gold.PLP.ligand.torsion>
0.9101

> <Gold.PLP.Chemscore.Hbond>
3.0000

> <Gold.PLP.Chemscore.CHOScore>
0.4135

> <Gold.PLP.Chemscore.Metal>
0.0000

> <Gold.Chemscore.Hbonds>
donor molecule, donor type, donor heavy atom, donor atom, acceptor molecule, acceptor atom, score
      L1  H    23    50       P1 10747  1.00
      L1  H    25    51       P1 10171  0.96
      L1  H    27    52       P1  7948  1.00
      L1  C    17    47       P1  7948  0.41

> <Gold.PLP.Chemscore.Internal.Correction>
0.0458

> <Gold.Rescore>
     Score         DG    S(hbond)    S(metal)    S(lipo)     H(rot)  DE(clash)    DE(int)     intcor
     10.38     -12.18       2.96        0.00      87.91       5.27       0.52       1.28       ----

> <Gold.Chemscore.Fitness>
10.3817

> <Gold.Chemscore.DG>
-12.1777

> <Gold.Chemscore.ZeroCoef>
-5.4800

> <Gold.Chemscore.Hbond>
2.9630

> <Gold.Chemscore.Metal>
0.0000

> <Gold.Chemscore.Lipo>
87.9064

> <Gold.Chemscore.Internal_Hbond>
0.0000

> <Gold.Chemscore.DEClash>
0.5180

> <Gold.Chemscore.DEInternal>
1.2779

> <Gold.Chemscore.Rot>
5.2672

> <Gold.Chemscore.Internal.Correction>
   9.000000E+99

> <Gold.Chemscore.Hbonds>
donor molecule, donor type, donor heavy atom, donor atom, acceptor molecule, acceptor atom, score
      L1  H    23    50       P1 10747  0.99
      L1  H    25    51       P1 10171  0.91
      L1  H    27    52       P1  7948  1.00

> <Gold.Chemscore.Hbond.Weighted>
-9.8966

> <Gold.Chemscore.Metal.Weighted>
-0.0000

> <Gold.Chemscore.Lipo.Weighted>
-10.2851

> <Gold.Chemscore.Internal_Hbond.Weighted>
0.0000

> <Gold.Chemscore.DEClash.Weighted>
0.5180

> <Gold.Chemscore.DEInternal.Weighted>
1.2779

> <Gold.Chemscore.Rot.Weighted>
13.4839

> <Gold.Chemscore.Internal.Correction.Weighted>
   9.000000E+99

> <Gold.Protein.RotatedTorsions>
[ 6907 6896 6895 6894 ] final   27.06 input  -60.11 | X-H torsion
[ 7974 7965 7964 7962 ] final  162.34 input  175.53 | X-H torsion
[ 8008 7997 7996 7995 ] final  -87.00 input   59.86 | X-H torsion
[ 10167 10162 10161 10158 ] final  -90.60 input  -65.29 | X-H torsion
[ 10718 10713 10712 10709 ] final  148.59 input   66.30 | X-H torsion
[ 10763 10752 10751 10750 ] final  118.59 input  -60.55 | X-H torsion
[ 11005 11000 10999 10996 ] final -152.96 input  -57.11 | X-H torsion

> <Gold.Protein.ActiveResidues>
 VAL166  LYS551  ARG553  GLY616  TRP617  ASP618  TYR619  PRO620  LYS621  CYS622 
 ASP623  PHE694  ASN695  SER759  ASP760  ASP761  ALA762  ILE779  LEU786  VAL792 
 PHE793  MET794  SER795  GLU796  ALA797  LYS798  CYS799  TRP800  GLU811  SER814 

> <Gold.Protein.RotatedAtoms>
  151.9967  134.9950  160.0563 H   0  0  0  0  0  0  0  0  0  0  0  0  # atno 6907 bound_to 6896
  152.1557  133.4545  159.4844 H   0  0  0  0  0  0  0  0  0  0  0  0  # atno 6908 bound_to 6896
  150.6881  134.2051  159.4380 H   0  0  0  0  0  0  0  0  0  0  0  0  # atno 6909 bound_to 6896
  144.7641  139.8026  143.6321 H   0  0  0  0  0  0  0  0  0  0  0  0  # atno 7974 bound_to 7965
  154.6583  140.0571  157.0033 H   0  0  0  0  0  0  0  0  0  0  0  0  # atno 8008 bound_to 7997
  155.1267  140.3252  155.4465 H   0  0  0  0  0  0  0  0  0  0  0  0  # atno 8009 bound_to 7997
  156.2607  140.1988  156.6387 H   0  0  0  0  0  0  0  0  0  0  0  0  # atno 8010 bound_to 7997
  140.3533  143.2880  151.9701 H   0  0  0  0  0  0  0  0  0  0  0  0  # atno 10167 bound_to 10162
  157.3067  131.0880  151.1348 H   0  0  0  0  0  0  0  0  0  0  0  0  # atno 10718 bound_to 10713
  153.5700  135.3504  155.2834 H   0  0  0  0  0  0  0  0  0  0  0  0  # atno 10763 bound_to 10752
  154.8683  135.4157  154.2735 H   0  0  0  0  0  0  0  0  0  0  0  0  # atno 10764 bound_to 10752
  153.3499  135.7054  153.6867 H   0  0  0  0  0  0  0  0  0  0  0  0  # atno 10765 bound_to 10752
  140.7133  134.3808  157.5194 H   0  0  0  0  0  0  0  0  0  0  0  0  # atno 11005 bound_to 11000
  146.1733  139.4892  142.9914 LP  0  0  0  0  0  0  0  0  0  0  0  0  # atno 17320 bound_to 7965
  145.6525  141.0260  143.1753 LP  0  0  0  0  0  0  0  0  0  0  0  0  # atno 17321 bound_to 7965
  139.4823  144.6057  151.7525 LP  0  0  0  0  0  0  0  0  0  0  0  0  # atno 17342 bound_to 10162
  140.5198  144.0896  150.6019 LP  0  0  0  0  0  0  0  0  0  0  0  0  # atno 17343 bound_to 10162
  157.2686  130.6693  149.6008 LP  0  0  0  0  0  0  0  0  0  0  0  0  # atno 17370 bound_to 10713
  155.9675  130.4486  150.5626 LP  0  0  0  0  0  0  0  0  0  0  0  0  # atno 17371 bound_to 10713
  139.8866  134.8905  156.2575 LP  0  0  0  0  0  0  0  0  0  0  0  0  # atno 17394 bound_to 11000
  141.0066  133.7120  156.1044 LP  0  0  0  0  0  0  0  0  0  0  0  0  # atno 17395 bound_to 11000

$$$$
