AV-unprocessed.smi:15|AV-procd|sdf|84|dock6
  -GOLD-   2262015223D 1   1.00000     0.00000
 Structure written by MMmdl.
 53 56  0  0  0  0  0  0  0  0  1 V2000
  151.1879  139.6724  158.3682 C   0  0  0  0  0  0  0  0  0  0  0  0
  151.9216  140.4534  157.2705 C   0  0  0  0  0  0  0  0  0  0  0  0
  151.1245  141.5576  156.7371 N   0  0  0  0  0  0  0  0  0  0  0  0
  150.9601  142.7853  157.5184 C   0  0  0  0  0  0  0  0  0  0  0  0
  152.0016  142.9351  158.6454 C   0  0  1  0  0  0  0  0  0  0  0  0
  151.9461  144.2859  159.3559 C   0  0  0  0  0  0  0  0  0  0  0  0
  152.5145  143.9918  160.7370 C   0  0  0  0  0  0  0  0  0  0  0  0
  152.5061  142.4636  160.8268 C   0  0  0  0  0  0  0  0  0  0  0  0
  151.7326  142.0409  159.7149 O   0  0  0  0  0  0  0  0  0  0  0  0
  150.0383  141.2310  155.9967 C   0  0  0  0  0  0  0  0  0  0  0  0
  150.2476  140.5206  154.8594 N   0  0  0  0  0  0  0  0  0  0  0  0
  149.2212  140.2102  154.0627 C   0  0  0  0  0  0  0  0  0  0  0  0
  147.9313  140.5207  154.2039 N   0  0  0  0  0  0  0  0  0  0  0  0
  147.7179  141.2464  155.3389 C   0  0  0  0  0  0  0  0  0  0  0  0
  148.7026  141.6316  156.2917 C   0  0  0  0  0  0  0  0  0  0  0  0
  148.1083  142.3672  157.3111 N   0  0  0  0  0  0  0  0  0  0  0  0
  146.8473  142.4123  156.9802 C   0  0  0  0  0  0  0  0  0  0  0  0
  146.5290  141.7875  155.7959 N   0  0  0  0  0  0  0  0  0  0  0  0
  145.2157  141.7073  155.1764 C   0  0  0  0  0  0  0  0  0  0  0  0
  144.1344  140.9967  156.0326 C   0  0  1  0  0  0  0  0  0  0  0  0
  142.9475  141.0120  155.2577 O   0  0  0  0  0  0  0  0  0  0  0  0
  144.4504  139.5547  156.4049 C   0  0  0  0  0  0  0  0  0  0  0  0
  143.5052  139.2961  157.5738 C   0  0  0  0  0  0  0  0  0  0  0  0
  143.3824  140.5437  158.2472 O   0  0  0  0  0  0  0  0  0  0  0  0
  143.8702  141.6053  157.4283 C   0  0  2  0  0  0  0  0  0  0  0  0
  142.9339  142.8222  157.4800 C   0  0  0  0  0  0  0  0  0  0  0  0
  151.8374  138.9067  158.7922 H   0  0  0  0  0  0  0  0  0  0  0  0
  150.3006  139.1695  157.9848 H   0  0  0  0  0  0  0  0  0  0  0  0
  150.8794  140.3316  159.1801 H   0  0  0  0  0  0  0  0  0  0  0  0
  152.8499  140.8433  157.6906 H   0  0  0  0  0  0  0  0  0  0  0  0
  152.2037  139.7771  156.4637 H   0  0  0  0  0  0  0  0  0  0  0  0
  151.0420  143.6359  156.8429 H   0  0  0  0  0  0  0  0  0  0  0  0
  149.9517  142.8379  157.9314 H   0  0  0  0  0  0  0  0  0  0  0  0
  153.0128  142.7626  158.2735 H   0  0  0  0  0  0  0  0  0  0  0  0
  152.4999  145.0611  158.8259 H   0  0  0  0  0  0  0  0  0  0  0  0
  150.9115  144.6183  159.4517 H   0  0  0  0  0  0  0  0  0  0  0  0
  153.5281  144.3787  160.8461 H   0  0  0  0  0  0  0  0  0  0  0  0
  151.8965  144.4436  161.5135 H   0  0  0  0  0  0  0  0  0  0  0  0
  153.5175  142.0660  160.7310 H   0  0  0  0  0  0  0  0  0  0  0  0
  152.0829  142.0979  161.7625 H   0  0  0  0  0  0  0  0  0  0  0  0
  149.4705  139.6382  153.1813 H   0  0  0  0  0  0  0  0  0  0  0  0
  146.1124  142.9223  157.5861 H   0  0  0  0  0  0  0  0  0  0  0  0
  144.8938  142.7226  154.9405 H   0  0  0  0  0  0  0  0  0  0  0  0
  145.3271  141.1965  154.2189 H   0  0  0  0  0  0  0  0  0  0  0  0
  143.1666  140.7617  154.3732 H   0  0  0  0  0  0  0  0  0  0  0  0
  144.3185  138.8504  155.5828 H   0  0  0  0  0  0  0  0  0  0  0  0
  145.4743  139.4592  156.7645 H   0  0  0  0  0  0  0  0  0  0  0  0
  142.5211  138.9968  157.2112 H   0  0  0  0  0  0  0  0  0  0  0  0
  143.8704  138.5164  158.2425 H   0  0  0  0  0  0  0  0  0  0  0  0
  144.8185  141.8858  157.8848 H   0  0  0  0  0  0  0  0  0  0  0  0
  143.3042  143.6280  156.8461 H   0  0  0  0  0  0  0  0  0  0  0  0
  142.8608  143.2078  158.4969 H   0  0  0  0  0  0  0  0  0  0  0  0
  141.9250  142.5708  157.1524 H   0  0  0  0  0  0  0  0  0  0  0  0
  1  2  1  0  0  0  0
  1 27  1  0  0  0  0
  1 28  1  0  0  0  0
  1 29  1  0  0  0  0
  2  3  1  0  0  0  0
  2 30  1  0  0  0  0
  2 31  1  0  0  0  0
  3  4  1  0  0  0  0
  3 10  1  0  0  0  0
  4  5  1  0  0  0  0
  4 32  1  0  0  0  0
  4 33  1  0  0  0  0
  5  9  1  0  0  0  0
  5  6  1  0  0  0  0
  5 34  1  0  0  0  0
  6  7  1  0  0  0  0
  6 35  1  0  0  0  0
  6 36  1  0  0  0  0
  7  8  1  0  0  0  0
  7 37  1  0  0  0  0
  7 38  1  0  0  0  0
  8  9  1  0  0  0  0
  8 39  1  0  0  0  0
  8 40  1  0  0  0  0
 10 15  1  0  0  0  0
 10 11  2  0  0  0  0
 11 12  1  0  0  0  0
 12 13  2  0  0  0  0
 12 41  1  0  0  0  0
 13 14  1  0  0  0  0
 14 18  1  0  0  0  0
 14 15  2  0  0  0  0
 15 16  1  0  0  0  0
 16 17  2  0  0  0  0
 17 18  1  0  0  0  0
 17 42  1  0  0  0  0
 18 19  1  0  0  0  0
 19 20  1  0  0  0  0
 19 43  1  0  0  0  0
 19 44  1  0  0  0  0
 20 25  1  0  0  0  0
 20 21  1  0  0  0  0
 20 22  1  0  0  0  0
 21 45  1  0  0  0  0
 22 23  1  0  0  0  0
 22 46  1  0  0  0  0
 22 47  1  0  0  0  0
 23 24  1  0  0  0  0
 23 48  1  0  0  0  0
 23 49  1  0  0  0  0
 24 25  1  0  0  0  0
 25 26  1  0  0  0  0
 25 50  1  0  0  0  0
 26 51  1  0  0  0  0
 26 52  1  0  0  0  0
 26 53  1  0  0  0  0
M  END
> <s_m_source_file>
AV-unprocessed.smi

> <i_m_source_file_index>
15

> <i_lp_mmshare_version>
43012

> <i_f3d_flags>
0

> <s_epik_input>
TzFbQ0gyXVtDSDJdW0NIMl1bQ0BIXTFbQ0gyXU4oW0NIMl1bQ0gzXSljKG5bY0hdbjIpYyhjMjMpbltjSF1uM1tDSDJdW0NAQF00KFtPSF0pW0NIMl1bQ0gyXU9bQ0BIXTRbQ0gzXQ==

> <s_epik_cmdline>
J2VwaWtfcHl0aG9uJywgJy1waCcsICc3LjAnLCAnLXRuJywgJzgnLCAnLW1hJywgJzIwMCcsICctbWV0YWxfYmluZGluZycsICctaW1hZScsICc8aW5maWxlLm1hZT4nLCAnLW9tYWUnLCAnPG91dGZpbGUubWFlPic=

> <r_lp_tautomer_probability>
1

> <r_epik_Ionization_Penalty>
0.00360814

> <r_epik_Ionization_Penalty_Charging>
0

> <r_epik_Ionization_Penalty_Neutral>
0.00360814

> <r_epik_State_Penalty>
0.00237482

> <r_epik_Charging_Adjusted_Penalty>
0.00237482

> <i_epik_Tot_Q>
0

> <i_epik_Tot_abs_Q>
0

> <r_epik_Metal_State_Penalty>
-0

> <b_epik_Metal_Only>
0

> <s_lp_Force_Field>
OPLS_2005

> <r_lp_Energy>
47.1955

> <b_lp_Chiralities_Consistent>
1

> <s_lp_Variant>
AV-unprocessed.smi:15-6

> <Gold.Version>
5.8.1

> <Gold.Id.Protein>
6NUR|6NUR_protein|mol2

> <Gold.PLP.Fitness>
41.7546

> <Gold.PLP.PLP>
-34.1788

> <Gold.PLP.part.hbond>
-2.1164

> <Gold.PLP.part.metal>
0.0000

> <Gold.PLP.part.buried>
-3.9619

> <Gold.PLP.part.nonpolar>
-29.6950

> <Gold.PLP.part.repulsive>
0.9226

> <Gold.PLP.ligand.clash>
0.0000

> <Gold.PLP.ligand.torsion>
1.1296

> <Gold.PLP.Chemscore.Hbond>
1.9600

> <Gold.PLP.Chemscore.CHOScore>
1.0000

> <Gold.PLP.Chemscore.Metal>
0.0000

> <Gold.Chemscore.Hbonds>
donor molecule, donor type, donor heavy atom, donor atom, acceptor molecule, acceptor atom, score
      L1  H    21    45       P1 10175  1.00
      P1  H  7989  7998       L1    11  0.91
      L1  C    12    41       P1  7957  1.00

> <Gold.PLP.Chemscore.Internal.Correction>
0.9550

> <Gold.Rescore>
     Score         DG    S(hbond)    S(metal)    S(lipo)     H(rot)  DE(clash)    DE(int)     intcor
      6.82     -12.00       1.21        0.00      74.80       2.44       0.32       4.86       ----

> <Gold.Chemscore.Fitness>
6.8163

> <Gold.Chemscore.DG>
-12.0039

> <Gold.Chemscore.ZeroCoef>
-5.4800

> <Gold.Chemscore.Hbond>
1.2055

> <Gold.Chemscore.Metal>
0.0000

> <Gold.Chemscore.Lipo>
74.8026

> <Gold.Chemscore.Internal_Hbond>
0.0000

> <Gold.Chemscore.DEClash>
0.3247

> <Gold.Chemscore.DEInternal>
4.8629

> <Gold.Chemscore.Rot>
2.4431

> <Gold.Chemscore.Internal.Correction>
   9.000000E+99

> <Gold.Chemscore.Hbonds>
donor molecule, donor type, donor heavy atom, donor atom, acceptor molecule, acceptor atom, score
      L1  H    21    45       P1 10175  0.88
      P1  H  7989  7998       L1    11  0.19

> <Gold.Chemscore.Hbond.Weighted>
-4.0264

> <Gold.Chemscore.Metal.Weighted>
-0.0000

> <Gold.Chemscore.Lipo.Weighted>
-8.7519

> <Gold.Chemscore.Internal_Hbond.Weighted>
0.0000

> <Gold.Chemscore.DEClash.Weighted>
0.3247

> <Gold.Chemscore.DEInternal.Weighted>
4.8629

> <Gold.Chemscore.Rot.Weighted>
6.2544

> <Gold.Chemscore.Internal.Correction.Weighted>
   9.000000E+99

> <Gold.Protein.RotatedTorsions>
[ 6907 6896 6895 6894 ] final  176.96 input  -60.11 | X-H torsion
[ 7974 7965 7964 7962 ] final  -76.50 input  175.53 | X-H torsion
[ 8008 7997 7996 7995 ] final  112.78 input   59.86 | X-H torsion
[ 10167 10162 10161 10158 ] final   38.12 input  -65.29 | X-H torsion
[ 10718 10713 10712 10709 ] final  164.98 input   66.30 | X-H torsion
[ 10763 10752 10751 10750 ] final -165.32 input  -60.55 | X-H torsion
[ 11005 11000 10999 10996 ] final  -65.56 input  -57.11 | X-H torsion

> <Gold.Protein.ActiveResidues>
 VAL166  LYS551  ARG553  GLY616  TRP617  ASP618  TYR619  PRO620  LYS621  CYS622 
 ASP623  PHE694  ASN695  SER759  ASP760  ASP761  ALA762  ILE779  LEU786  VAL792 
 PHE793  MET794  SER795  GLU796  ALA797  LYS798  CYS799  TRP800  GLU811  SER814 

> <Gold.Protein.RotatedAtoms>
  151.7116  133.3312  159.3292 H   0  0  0  0  0  0  0  0  0  0  0  0  # atno 6907 bound_to 6896
  150.7691  134.6527  159.6306 H   0  0  0  0  0  0  0  0  0  0  0  0  # atno 6908 bound_to 6896
  152.3707  134.6740  160.0228 H   0  0  0  0  0  0  0  0  0  0  0  0  # atno 6909 bound_to 6896
  145.6120  140.9384  143.1184 H   0  0  0  0  0  0  0  0  0  0  0  0  # atno 7974 bound_to 7965
  156.2215  140.2992  155.9964 H   0  0  0  0  0  0  0  0  0  0  0  0  # atno 8008 bound_to 7997
  155.2469  140.0424  157.2999 H   0  0  0  0  0  0  0  0  0  0  0  0  # atno 8009 bound_to 7997
  154.5848  140.2385  155.8011 H   0  0  0  0  0  0  0  0  0  0  0  0  # atno 8010 bound_to 7997
  140.3967  144.1779  150.6132 H   0  0  0  0  0  0  0  0  0  0  0  0  # atno 10167 bound_to 10162
  157.0867  131.0407  151.2553 H   0  0  0  0  0  0  0  0  0  0  0  0  # atno 10718 bound_to 10713
  154.6943  135.2976  154.9434 H   0  0  0  0  0  0  0  0  0  0  0  0  # atno 10763 bound_to 10752
  154.0387  135.6660  153.4792 H   0  0  0  0  0  0  0  0  0  0  0  0  # atno 10764 bound_to 10752
  153.0634  135.5102  154.8052 H   0  0  0  0  0  0  0  0  0  0  0  0  # atno 10765 bound_to 10752
  141.1458  133.6684  156.6005 H   0  0  0  0  0  0  0  0  0  0  0  0  # atno 11005 bound_to 11000
  144.7266  139.7856  143.7362 LP  0  0  0  0  0  0  0  0  0  0  0  0  # atno 17320 bound_to 7965
  146.1497  139.4577  143.0056 LP  0  0  0  0  0  0  0  0  0  0  0  0  # atno 17321 bound_to 7965
  140.4783  143.2388  151.8991 LP  0  0  0  0  0  0  0  0  0  0  0  0  # atno 17342 bound_to 10162
  139.4786  144.5297  151.8685 LP  0  0  0  0  0  0  0  0  0  0  0  0  # atno 17343 bound_to 10162
  157.4755  130.7734  149.7364 LP  0  0  0  0  0  0  0  0  0  0  0  0  # atno 17370 bound_to 10713
  155.9909  130.3941  150.3009 LP  0  0  0  0  0  0  0  0  0  0  0  0  # atno 17371 bound_to 10713
  140.3692  134.7620  157.4587 LP  0  0  0  0  0  0  0  0  0  0  0  0  # atno 17394 bound_to 11000
  140.0724  134.5845  155.8628 LP  0  0  0  0  0  0  0  0  0  0  0  0  # atno 17395 bound_to 11000

$$$$
