AV-unprocessed.smi:1735|AV-procd|sdf|6988|dock1
  -GOLD-   22720 8203D 1   1.00000     0.00000
 Structure written by MMmdl.
 32 33  0  0  0  0  0  0  0  0  1 V2000
  147.5470  132.2760  153.9218 O   0  0  0  0  0  0  0  0  0  0  0  0
  147.8983  133.3027  153.3399 C   0  0  0  0  0  0  0  0  0  0  0  0
  149.0390  133.9717  153.5751 N   0  0  0  0  0  0  0  0  0  0  0  0
  150.0465  133.6504  154.5197 C   0  0  0  0  0  0  0  0  0  0  0  0
  150.7977  134.6045  155.2583 C   0  0  0  0  0  0  0  0  0  0  0  0
  151.6665  134.0149  156.0672 N   0  0  0  0  0  0  0  0  0  0  0  0
  151.4771  132.6935  155.8517 N   0  0  0  0  0  0  0  0  0  0  0  0
  150.5011  132.4243  154.9178 C   0  0  0  0  0  0  0  0  0  0  0  0
  147.1756  133.8952  152.3784 N   0  0  0  0  0  0  0  0  0  0  0  0
  145.8826  133.4283  151.8867 C   0  0  2  0  0  0  0  0  0  0  0  0
  146.0107  132.0213  151.2661 C   0  0  0  0  0  0  0  0  0  0  0  0
  144.6743  131.5449  150.6740 C   0  0  0  0  0  0  0  0  0  0  0  0
  144.1305  132.5534  149.6475 C   0  0  1  0  0  0  0  0  0  0  0  0
  142.8721  132.1177  149.1779 O   0  0  0  0  0  0  0  0  0  0  0  0
  143.9920  133.9543  150.2676 C   0  0  0  0  0  0  0  0  0  0  0  0
  145.3289  134.4320  150.8573 C   0  0  0  0  0  0  0  0  0  0  0  0
  152.0150  131.9949  156.3448 H   0  0  0  0  0  0  0  0  0  0  0  0
  149.2040  134.7996  153.0214 H   0  0  0  0  0  0  0  0  0  0  0  0
  150.7423  135.6829  155.2356 H   0  0  0  0  0  0  0  0  0  0  0  0
  150.2323  131.4172  154.6359 H   0  0  0  0  0  0  0  0  0  0  0  0
  147.5446  134.7352  151.9575 H   0  0  0  0  0  0  0  0  0  0  0  0
  145.1819  133.3816  152.7228 H   0  0  0  0  0  0  0  0  0  0  0  0
  146.7704  132.0303  150.4830 H   0  0  0  0  0  0  0  0  0  0  0  0
  146.3508  131.3069  152.0167 H   0  0  0  0  0  0  0  0  0  0  0  0
  144.8052  130.5678  150.2074 H   0  0  0  0  0  0  0  0  0  0  0  0
  143.9519  131.4095  151.4803 H   0  0  0  0  0  0  0  0  0  0  0  0
  144.8079  132.6017  148.7939 H   0  0  0  0  0  0  0  0  0  0  0  0
  142.2232  132.7631  149.4134 H   0  0  0  0  0  0  0  0  0  0  0  0
  143.6460  134.6649  149.5160 H   0  0  0  0  0  0  0  0  0  0  0  0
  143.2348  133.9408  151.0530 H   0  0  0  0  0  0  0  0  0  0  0  0
  145.1954  135.4095  151.3222 H   0  0  0  0  0  0  0  0  0  0  0  0
  146.0493  134.5697  150.0496 H   0  0  0  0  0  0  0  0  0  0  0  0
  1  2  2  0  0  0  0
  2  3  1  0  0  0  0
  2  9  1  0  0  0  0
  3  4  1  0  0  0  0
  3 18  1  0  0  0  0
  4  8  2  0  0  0  0
  4  5  1  0  0  0  0
  5  6  2  0  0  0  0
  5 19  1  0  0  0  0
  6  7  1  0  0  0  0
  7 17  1  0  0  0  0
  7  8  1  0  0  0  0
  8 20  1  0  0  0  0
  9 10  1  0  0  0  0
  9 21  1  0  0  0  0
 10 16  1  0  0  0  0
 10 11  1  0  0  0  0
 10 22  1  0  0  0  0
 11 12  1  0  0  0  0
 11 23  1  0  0  0  0
 11 24  1  0  0  0  0
 12 13  1  0  0  0  0
 12 25  1  0  0  0  0
 12 26  1  0  0  0  0
 13 14  1  0  0  0  0
 13 15  1  0  0  0  0
 13 27  1  0  0  0  0
 14 28  1  0  0  0  0
 15 16  1  0  0  0  0
 15 29  1  0  0  0  0
 15 30  1  0  0  0  0
 16 31  1  0  0  0  0
 16 32  1  0  0  0  0
M  END
> <s_m_source_file>
AV-unprocessed.smi

> <i_m_source_file_index>
1735

> <i_lp_mmshare_version>
43012

> <i_f3d_flags>
0

> <s_epik_input>
W2NIXTFbbkhdbltjSF1jMVtOSF1DKD1PKVtOSF1bQ0BASF0yW0NIMl1bQ0gyXVtDQEBIXShbT0hdKVtDSDJdW0NIMl0y

> <s_epik_cmdline>
J2VwaWtfcHl0aG9uJywgJy1waCcsICc3LjAnLCAnLXRuJywgJzgnLCAnLW1hJywgJzIwMCcsICctbWV0YWxfYmluZGluZycsICctaW1hZScsICc8aW5maWxlLm1hZT4nLCAnLW9tYWUnLCAnPG91dGZpbGUubWFlPic=

> <r_lp_tautomer_probability>
1

> <r_epik_Ionization_Penalty>
5.59555e-05

> <r_epik_Ionization_Penalty_Charging>
0

> <r_epik_Ionization_Penalty_Neutral>
5.59555e-05

> <r_epik_State_Penalty>
-0

> <r_epik_Charging_Adjusted_Penalty>
0

> <i_epik_Tot_Q>
0

> <i_epik_Tot_abs_Q>
0

> <r_epik_Metal_State_Penalty>
-0

> <b_epik_Metal_Only>
0

> <s_lp_Force_Field>
OPLS_2005

> <r_lp_Energy>
10.2998

> <b_lp_Chiralities_Consistent>
1

> <s_lp_Variant>
AV-unprocessed.smi:1735-1

> <Gold.Version>
5.8.1

> <Gold.Id.Protein>
6NUR|6NUR_protein|mol2

> <Gold.PLP.Fitness>
40.6540

> <Gold.PLP.PLP>
-30.1336

> <Gold.PLP.part.hbond>
-5.0000

> <Gold.PLP.part.metal>
0.0000

> <Gold.PLP.part.buried>
-4.8859

> <Gold.PLP.part.nonpolar>
-21.1946

> <Gold.PLP.part.repulsive>
0.1742

> <Gold.PLP.ligand.clash>
0.0000

> <Gold.PLP.ligand.torsion>
0.2670

> <Gold.PLP.Chemscore.Hbond>
3.6838

> <Gold.PLP.Chemscore.CHOScore>
0.0000

> <Gold.PLP.Chemscore.Metal>
0.0000

> <Gold.Chemscore.Hbonds>
donor molecule, donor type, donor heavy atom, donor atom, acceptor molecule, acceptor atom, score
      L1  H     3    18       P1  7948  0.45
      L1  H     9    21       P1  7948  1.00
      L1  H    14    28       P1 10186  0.94
      P1  H 10752 10764       L1     6  0.07
      P1  H 10785 10796       L1    14  0.96

> <Gold.PLP.Chemscore.Internal.Correction>
0.0032

> <Gold.Rescore>
     Score         DG    S(hbond)    S(metal)    S(lipo)     H(rot)  DE(clash)    DE(int)     intcor
     18.30     -18.68       3.04        0.00      59.16       1.51       0.07       0.31       ----

> <Gold.Chemscore.Fitness>
18.3007

> <Gold.Chemscore.DG>
-18.6802

> <Gold.Chemscore.ZeroCoef>
-5.4800

> <Gold.Chemscore.Hbond>
3.0399

> <Gold.Chemscore.Metal>
0.0000

> <Gold.Chemscore.Lipo>
59.1573

> <Gold.Chemscore.Internal_Hbond>
0.0000

> <Gold.Chemscore.DEClash>
0.0650

> <Gold.Chemscore.DEInternal>
0.3144

> <Gold.Chemscore.Rot>
1.5135

> <Gold.Chemscore.Internal.Correction>
   9.000000E+99

> <Gold.Chemscore.Hbonds>
donor molecule, donor type, donor heavy atom, donor atom, acceptor molecule, acceptor atom, score
      L1  H     3    18       P1  7948  0.02
      L1  H     9    21       P1  7948  0.64
      L1  H    14    28       P1 10186  0.90
      P1  H 10785 10796       L1    14  0.36

> <Gold.Chemscore.Hbond.Weighted>
-10.1533

> <Gold.Chemscore.Metal.Weighted>
-0.0000

> <Gold.Chemscore.Lipo.Weighted>
-6.9214

> <Gold.Chemscore.Internal_Hbond.Weighted>
0.0000

> <Gold.Chemscore.DEClash.Weighted>
0.0650

> <Gold.Chemscore.DEInternal.Weighted>
0.3144

> <Gold.Chemscore.Rot.Weighted>
3.8745

> <Gold.Chemscore.Internal.Correction.Weighted>
   9.000000E+99

> <Gold.Protein.RotatedTorsions>
[ 6907 6896 6895 6894 ] final -135.87 input  -60.11 | X-H torsion
[ 7974 7965 7964 7962 ] final  124.13 input  175.53 | X-H torsion
[ 8008 7997 7996 7995 ] final  -30.56 input   59.86 | X-H torsion
[ 10167 10162 10161 10158 ] final  -14.79 input  -65.29 | X-H torsion
[ 10718 10713 10712 10709 ] final  -82.35 input   66.30 | X-H torsion
[ 10763 10752 10751 10750 ] final  -11.53 input  -60.55 | X-H torsion
[ 11005 11000 10999 10996 ] final  -15.26 input  -57.11 | X-H torsion

> <Gold.Protein.ActiveResidues>
 VAL166  LYS551  ARG553  GLY616  TRP617  ASP618  TYR619  PRO620  LYS621  CYS622 
 ASP623  PHE694  ASN695  SER759  ASP760  ASP761  ALA762  ILE779  LEU786  VAL792 
 PHE793  MET794  SER795  GLU796  ALA797  LYS798  CYS799  TRP800  GLU811  SER814 

> <Gold.Protein.RotatedAtoms>
  151.0032  133.6036  159.2692 H   0  0  0  0  0  0  0  0  0  0  0  0  # atno 6907 bound_to 6896
  151.3215  135.0818  159.9317 H   0  0  0  0  0  0  0  0  0  0  0  0  # atno 6908 bound_to 6896
  152.5279  133.9678  159.7802 H   0  0  0  0  0  0  0  0  0  0  0  0  # atno 6909 bound_to 6896
  145.0879  139.3608  143.4875 H   0  0  0  0  0  0  0  0  0  0  0  0  # atno 7974 bound_to 7965
  154.4246  140.1788  156.1427 H   0  0  0  0  0  0  0  0  0  0  0  0  # atno 8008 bound_to 7997
  155.9978  140.3363  155.6791 H   0  0  0  0  0  0  0  0  0  0  0  0  # atno 8009 bound_to 7997
  155.6284  140.0667  157.2647 H   0  0  0  0  0  0  0  0  0  0  0  0  # atno 8010 bound_to 7997
  140.7207  143.5285  150.9548 H   0  0  0  0  0  0  0  0  0  0  0  0  # atno 10167 bound_to 10162
  156.0034  130.4631  150.4091 H   0  0  0  0  0  0  0  0  0  0  0  0  # atno 10718 bound_to 10713
  153.4851  135.7017  153.5916 H   0  0  0  0  0  0  0  0  0  0  0  0  # atno 10763 bound_to 10752
  153.4113  135.3848  155.2052 H   0  0  0  0  0  0  0  0  0  0  0  0  # atno 10764 bound_to 10752
  154.8720  135.3905  154.4305 H   0  0  0  0  0  0  0  0  0  0  0  0  # atno 10765 bound_to 10752
  140.7948  133.8259  155.9414 H   0  0  0  0  0  0  0  0  0  0  0  0  # atno 11005 bound_to 11000
  146.3531  140.0700  142.8624 LP  0  0  0  0  0  0  0  0  0  0  0  0  # atno 17320 bound_to 7965
  145.1100  140.9399  143.4662 LP  0  0  0  0  0  0  0  0  0  0  0  0  # atno 17321 bound_to 7965
  139.9005  143.6842  152.3132 LP  0  0  0  0  0  0  0  0  0  0  0  0  # atno 17342 bound_to 10162
  139.7190  144.7606  151.0987 LP  0  0  0  0  0  0  0  0  0  0  0  0  # atno 17343 bound_to 10162
  157.2155  131.0470  151.2575 LP  0  0  0  0  0  0  0  0  0  0  0  0  # atno 17370 bound_to 10713
  157.3849  130.7251  149.6656 LP  0  0  0  0  0  0  0  0  0  0  0  0  # atno 17371 bound_to 10713
  140.9353  134.1969  157.4835 LP  0  0  0  0  0  0  0  0  0  0  0  0  # atno 17394 bound_to 11000
  139.8727  134.9850  156.5262 LP  0  0  0  0  0  0  0  0  0  0  0  0  # atno 17395 bound_to 11000

$$$$
