AV-unprocessed.smi:1154|AV-procd|sdf|4901|dock1
  -GOLD-   22720 3473D 1   1.00000     0.00000
 Structure written by MMmdl.
 42 43  0  0  0  0  0  0  0  0  2 V2000
  150.9132  144.9188  158.7011 C   0  0  0  0  0  0  0  0  0  0  0  0
  151.9784  143.8837  159.0906 C   0  0  1  0  0  0  0  0  0  0  0  0
  152.1613  143.8122  160.6158 C   0  0  0  0  0  0  0  0  0  0  0  0
  153.2184  142.7586  160.9858 C   0  0  1  0  0  0  0  0  0  0  0  0
  153.3994  142.6566  162.5070 C   0  0  0  0  0  0  0  0  0  0  0  0
  152.8504  141.3953  160.3688 C   0  0  0  0  0  0  0  0  0  0  0  0
  152.6845  141.4927  158.8953 N   0  3  1  0  0  0  0  0  0  0  0  0
  152.4718  140.1640  158.2667 C   0  0  0  0  0  0  0  0  0  0  0  0
  152.0815  140.2721  156.7835 C   0  0  0  0  0  0  0  0  0  0  0  0
  151.7581  138.9588  156.2442 N   0  0  0  0  0  0  0  0  0  0  0  0
  151.1876  138.7521  155.0472 C   0  0  0  0  0  0  0  0  0  0  0  0
  150.8548  139.6666  154.2944 O   0  0  0  0  0  0  0  0  0  0  0  0
  150.9450  137.2974  154.6356 C   0  0  0  0  0  0  0  0  0  0  0  0
  151.3487  136.3683  155.6759 N   0  0  0  0  0  0  0  0  0  0  0  0
  150.6707  135.4029  156.2997 C   0  0  0  0  0  0  0  0  0  0  0  0
  151.4152  134.7898  157.2069 N   0  0  0  0  0  0  0  0  0  0  0  0
  152.6333  135.4410  157.1064 N   0  0  0  0  0  0  0  0  0  0  0  0
  152.6006  136.3773  156.1983 N   0  0  0  0  0  0  0  0  0  0  0  0
  151.6429  142.4890  158.5285 C   0  0  0  0  0  0  0  0  0  0  0  0
  149.9369  144.6590  159.1118 H   0  0  0  0  0  0  0  0  0  0  0  0
  150.8104  144.9885  157.6178 H   0  0  0  0  0  0  0  0  0  0  0  0
  151.1762  145.9105  159.0704 H   0  0  0  0  0  0  0  0  0  0  0  0
  152.9237  144.2062  158.6510 H   0  0  0  0  0  0  0  0  0  0  0  0
  152.4587  144.7886  161.0008 H   0  0  0  0  0  0  0  0  0  0  0  0
  151.2109  143.5663  161.0922 H   0  0  0  0  0  0  0  0  0  0  0  0
  154.1731  143.0745  160.5624 H   0  0  0  0  0  0  0  0  0  0  0  0
  152.4781  142.3388  162.9959 H   0  0  0  0  0  0  0  0  0  0  0  0
  153.6875  143.6180  162.9333 H   0  0  0  0  0  0  0  0  0  0  0  0
  154.1777  141.9373  162.7634 H   0  0  0  0  0  0  0  0  0  0  0  0
  153.6376  140.6760  160.5987 H   0  0  0  0  0  0  0  0  0  0  0  0
  151.9305  141.0113  160.8133 H   0  0  0  0  0  0  0  0  0  0  0  0
  153.3954  139.5862  158.3279 H   0  0  0  0  0  0  0  0  0  0  0  0
  151.7212  139.6050  158.8278 H   0  0  0  0  0  0  0  0  0  0  0  0
  151.2153  140.9197  156.6479 H   0  0  0  0  0  0  0  0  0  0  0  0
  152.9049  140.7090  156.2155 H   0  0  0  0  0  0  0  0  0  0  0  0
  151.9952  138.1548  156.8073 H   0  0  0  0  0  0  0  0  0  0  0  0
  149.8860  137.1506  154.4197 H   0  0  0  0  0  0  0  0  0  0  0  0
  151.4960  137.0660  153.7227 H   0  0  0  0  0  0  0  0  0  0  0  0
  149.6393  135.1561  156.0961 H   0  0  0  0  0  0  0  0  0  0  0  0
  150.6732  142.1543  158.9012 H   0  0  0  0  0  0  0  0  0  0  0  0
  151.5553  142.5585  157.4449 H   0  0  0  0  0  0  0  0  0  0  0  0
  153.5632  141.8396  158.5376 H   0  0  0  0  0  0  0  0  0  0  0  0
  1  2  1  0  0  0  0
  1 20  1  0  0  0  0
  1 21  1  0  0  0  0
  1 22  1  0  0  0  0
  2 19  1  0  0  0  0
  2  3  1  0  0  0  0
  2 23  1  0  0  0  0
  3  4  1  0  0  0  0
  3 24  1  0  0  0  0
  3 25  1  0  0  0  0
  4  5  1  0  0  0  0
  4  6  1  0  0  0  0
  4 26  1  0  0  0  0
  5 27  1  0  0  0  0
  5 28  1  0  0  0  0
  5 29  1  0  0  0  0
  6  7  1  0  0  0  0
  6 30  1  0  0  0  0
  6 31  1  0  0  0  0
  7  8  1  0  0  0  0
  7 19  1  0  0  0  0
  7 42  1  0  0  0  0
  8  9  1  0  0  0  0
  8 32  1  0  0  0  0
  8 33  1  0  0  0  0
  9 10  1  0  0  0  0
  9 34  1  0  0  0  0
  9 35  1  0  0  0  0
 10 11  1  0  0  0  0
 10 36  1  0  0  0  0
 11 12  2  0  0  0  0
 11 13  1  0  0  0  0
 13 14  1  0  0  0  0
 13 37  1  0  0  0  0
 13 38  1  0  0  0  0
 14 18  1  0  0  0  0
 14 15  1  0  0  0  0
 15 16  2  0  0  0  0
 15 39  1  0  0  0  0
 16 17  1  0  0  0  0
 17 18  2  0  0  0  0
 19 40  1  0  0  0  0
 19 41  1  0  0  0  0
M  CHG  1   7   1
M  END
> <s_m_source_file>
AV-unprocessed.smi

> <i_m_source_file_index>
1154

> <i_lp_mmshare_version>
43012

> <i_f3d_flags>
0

> <s_epik_input>
W0NIM11bQ0BASF0xW0NIMl1bQ0BASF0oW0NIM10pW0NIMl1OKFtDSDJdMSlbQ0gyXVtDSDJdW05IXUMoPU8pW0NIMl1uMltjSF1ubm4y

> <s_epik_cmdline>
J2VwaWtfcHl0aG9uJywgJy1waCcsICc3LjAnLCAnLXRuJywgJzgnLCAnLW1hJywgJzIwMCcsICctbWV0YWxfYmluZGluZycsICctaW1hZScsICc8aW5maWxlLm1hZT4nLCAnLW9tYWUnLCAnPG91dGZpbGUubWFlPic=

> <r_lp_tautomer_probability>
1

> <r_epik_Ionization_Penalty>
0.00217773

> <r_epik_Ionization_Penalty_Charging>
0.00217329

> <r_epik_Ionization_Penalty_Neutral>
4.43997e-06

> <r_epik_State_Penalty>
0.00149294

> <r_epik_Charging_Adjusted_Penalty>
0.00366623

> <i_epik_Tot_Q>
1

> <i_epik_Tot_abs_Q>
1

> <r_epik_Metal_State_Penalty>
-0

> <b_epik_Metal_Only>
0

> <s_lp_Force_Field>
OPLS_2005

> <r_lp_Energy>
19.913

> <b_lp_Chiralities_Consistent>
1

> <s_lp_Variant>
AV-unprocessed.smi:1154-2

> <Gold.Version>
5.8.1

> <Gold.Id.Protein>
6NUR|6NUR_protein|mol2

> <Gold.PLP.Fitness>
46.6390

> <Gold.PLP.PLP>
-40.0792

> <Gold.PLP.part.hbond>
-4.0000

> <Gold.PLP.part.metal>
0.0000

> <Gold.PLP.part.buried>
-6.2902

> <Gold.PLP.part.nonpolar>
-31.2010

> <Gold.PLP.part.repulsive>
0.3331

> <Gold.PLP.ligand.clash>
0.0000

> <Gold.PLP.ligand.torsion>
0.1721

> <Gold.PLP.Chemscore.Hbond>
2.2746

> <Gold.PLP.Chemscore.CHOScore>
0.0000

> <Gold.PLP.Chemscore.Metal>
0.0000

> <Gold.Chemscore.Hbonds>
donor molecule, donor type, donor heavy atom, donor atom, acceptor molecule, acceptor atom, score
      P1  H  6896  6907       L1    16  0.04
      P1  H  7989  7998       L1    12  1.00
      P1  H 10752 10763       L1    18  0.49

> <Gold.PLP.Chemscore.Internal.Correction>
0.0803

> <Gold.Rescore>
     Score         DG    S(hbond)    S(metal)    S(lipo)     H(rot)  DE(clash)    DE(int)     intcor
     17.00     -17.48       2.16        0.00      99.16       2.67       0.02       0.46       ----

> <Gold.Chemscore.Fitness>
16.9998

> <Gold.Chemscore.DG>
-17.4791

> <Gold.Chemscore.ZeroCoef>
-5.4800

> <Gold.Chemscore.Hbond>
2.1634

> <Gold.Chemscore.Metal>
0.0000

> <Gold.Chemscore.Lipo>
99.1630

> <Gold.Chemscore.Internal_Hbond>
0.0000

> <Gold.Chemscore.DEClash>
0.0202

> <Gold.Chemscore.DEInternal>
0.4591

> <Gold.Chemscore.Rot>
2.6674

> <Gold.Chemscore.Internal.Correction>
   9.000000E+99

> <Gold.Chemscore.Hbonds>
donor molecule, donor type, donor heavy atom, donor atom, acceptor molecule, acceptor atom, score
      P1  H  6896  6907       L1    16  0.03
      P1  H  7989  7998       L1    12  1.00

> <Gold.Chemscore.Hbond.Weighted>
-7.2256

> <Gold.Chemscore.Metal.Weighted>
-0.0000

> <Gold.Chemscore.Lipo.Weighted>
-11.6021

> <Gold.Chemscore.Internal_Hbond.Weighted>
0.0000

> <Gold.Chemscore.DEClash.Weighted>
0.0202

> <Gold.Chemscore.DEInternal.Weighted>
0.4591

> <Gold.Chemscore.Rot.Weighted>
6.8286

> <Gold.Chemscore.Internal.Correction.Weighted>
   9.000000E+99

> <Gold.Protein.RotatedTorsions>
[ 6907 6896 6895 6894 ] final -113.97 input  -60.11 | X-H torsion
[ 7974 7965 7964 7962 ] final   42.67 input  175.53 | X-H torsion
[ 8008 7997 7996 7995 ] final   67.37 input   59.86 | X-H torsion
[ 10167 10162 10161 10158 ] final  164.27 input  -65.29 | X-H torsion
[ 10718 10713 10712 10709 ] final  165.21 input   66.30 | X-H torsion
[ 10763 10752 10751 10750 ] final   93.67 input  -60.55 | X-H torsion
[ 11005 11000 10999 10996 ] final  151.71 input  -57.11 | X-H torsion

> <Gold.Protein.ActiveResidues>
 VAL166  LYS551  ARG553  GLY616  TRP617  ASP618  TYR619  PRO620  LYS621  CYS622 
 ASP623  PHE694  ASN695  SER759  ASP760  ASP761  ALA762  ILE779  LEU786  VAL792 
 PHE793  MET794  SER795  GLU796  ALA797  LYS798  CYS799  TRP800  GLU811  SER814 

> <Gold.Protein.RotatedAtoms>
  150.7868  133.8867  159.3301 H   0  0  0  0  0  0  0  0  0  0  0  0  # atno 6907 bound_to 6896
  151.6716  135.0973  160.0208 H   0  0  0  0  0  0  0  0  0  0  0  0  # atno 6908 bound_to 6896
  152.3934  133.6672  159.6291 H   0  0  0  0  0  0  0  0  0  0  0  0  # atno 6909 bound_to 6896
  146.0720  139.5273  142.9591 H   0  0  0  0  0  0  0  0  0  0  0  0  # atno 7974 bound_to 7965
  155.6918  140.3496  155.4897 H   0  0  0  0  0  0  0  0  0  0  0  0  # atno 8008 bound_to 7997
  155.9517  140.1120  157.0993 H   0  0  0  0  0  0  0  0  0  0  0  0  # atno 8009 bound_to 7997
  154.4123  140.1193  156.5048 H   0  0  0  0  0  0  0  0  0  0  0  0  # atno 8010 bound_to 7997
  139.4886  144.4252  151.9138 H   0  0  0  0  0  0  0  0  0  0  0  0  # atno 10167 bound_to 10162
  157.0833  131.0398  151.2566 H   0  0  0  0  0  0  0  0  0  0  0  0  # atno 10718 bound_to 10713
  153.2330  135.4317  155.0615 H   0  0  0  0  0  0  0  0  0  0  0  0  # atno 10763 bound_to 10752
  154.8305  135.3384  154.6760 H   0  0  0  0  0  0  0  0  0  0  0  0  # atno 10764 bound_to 10752
  153.7187  135.7018  153.5075 H   0  0  0  0  0  0  0  0  0  0  0  0  # atno 10765 bound_to 10752
  140.1243  134.8843  157.2116 H   0  0  0  0  0  0  0  0  0  0  0  0  # atno 11005 bound_to 11000
  145.6374  141.0291  143.1830 LP  0  0  0  0  0  0  0  0  0  0  0  0  # atno 17320 bound_to 7965
  144.7238  139.7943  143.7372 LP  0  0  0  0  0  0  0  0  0  0  0  0  # atno 17321 bound_to 7965
  140.3698  144.2870  150.5921 LP  0  0  0  0  0  0  0  0  0  0  0  0  # atno 17342 bound_to 10162
  140.5329  143.2239  151.8209 LP  0  0  0  0  0  0  0  0  0  0  0  0  # atno 17343 bound_to 10162
  157.4782  130.7749  149.7388 LP  0  0  0  0  0  0  0  0  0  0  0  0  # atno 17370 bound_to 10713
  155.9917  130.3935  150.2971 LP  0  0  0  0  0  0  0  0  0  0  0  0  # atno 17371 bound_to 10713
  140.2924  134.3225  155.7311 LP  0  0  0  0  0  0  0  0  0  0  0  0  # atno 17394 bound_to 11000
  141.2158  133.7543  156.9523 LP  0  0  0  0  0  0  0  0  0  0  0  0  # atno 17395 bound_to 11000

$$$$
