AV-unprocessed.smi:1667|AV-procd|sdf|6675|dock9
  -GOLD-   22720 7393D 1   1.00000     0.00000
 Structure written by MMmdl.
 45 47  0  0  0  0  0  0  0  0  1 V2000
  150.1868  134.6453  156.4808 C   0  0  0  0  0  0  0  0  0  0  0  0
  150.8564  135.9997  156.6876 C   0  0  0  0  0  0  0  0  0  0  0  0
  151.3504  136.2782  157.7795 O   0  0  0  0  0  0  0  0  0  0  0  0
  150.8612  136.8336  155.6368 N   0  0  0  0  0  0  0  0  0  0  0  0
  151.4086  138.1891  155.6325 C   0  0  1  0  0  0  0  0  0  0  0  0
  152.5975  138.3006  154.6657 C   0  0  0  0  0  0  0  0  0  0  0  0
  150.2984  139.1425  155.2672 C   0  0  0  0  0  0  0  0  0  0  0  0
  149.5671  138.9829  154.1601 N   0  0  0  0  0  0  0  0  0  0  0  0
  148.7245  140.0745  154.1841 C   0  0  0  0  0  0  0  0  0  0  0  0
  147.7128  140.4712  153.2806 C   0  0  0  0  0  0  0  0  0  0  0  0
  146.9757  141.6518  153.5078 C   0  0  0  0  0  0  0  0  0  0  0  0
  147.2418  142.4512  154.6377 C   0  0  0  0  0  0  0  0  0  0  0  0
  148.2457  142.0729  155.5496 C   0  0  0  0  0  0  0  0  0  0  0  0
  148.9753  140.8898  155.3224 C   0  0  0  0  0  0  0  0  0  0  0  0
  150.0016  140.2441  156.0088 N   0  0  0  0  0  0  0  0  0  0  0  0
  150.6182  140.7031  157.2517 C   0  0  0  0  0  0  0  0  0  0  0  0
  151.6141  141.8737  157.0695 C   0  0  1  0  0  0  0  0  0  0  0  0
  151.0782  142.8446  156.1923 O   0  0  0  0  0  0  0  0  0  0  0  0
  152.0878  142.4754  158.3868 C   0  0  0  0  0  0  0  0  0  0  0  0
  151.8782  143.8424  158.6789 C   0  0  0  0  0  0  0  0  0  0  0  0
  152.3241  144.3855  159.8992 C   0  0  0  0  0  0  0  0  0  0  0  0
  152.9834  143.5668  160.8355 C   0  0  0  0  0  0  0  0  0  0  0  0
  153.1905  142.2031  160.5535 C   0  0  0  0  0  0  0  0  0  0  0  0
  153.8178  141.4133  161.4566 F   0  0  0  0  0  0  0  0  0  0  0  0
  152.7437  141.6593  159.3334 C   0  0  0  0  0  0  0  0  0  0  0  0
  151.7559  138.4060  156.6408 H   0  0  0  0  0  0  0  0  0  0  0  0
  149.5762  134.6355  155.5771 H   0  0  0  0  0  0  0  0  0  0  0  0
  149.5420  134.4114  157.3284 H   0  0  0  0  0  0  0  0  0  0  0  0
  150.9403  133.8622  156.3961 H   0  0  0  0  0  0  0  0  0  0  0  0
  150.4335  136.5201  154.7772 H   0  0  0  0  0  0  0  0  0  0  0  0
  153.0062  139.3113  154.6677 H   0  0  0  0  0  0  0  0  0  0  0  0
  152.3021  138.0635  153.6432 H   0  0  0  0  0  0  0  0  0  0  0  0
  153.4024  137.6207  154.9465 H   0  0  0  0  0  0  0  0  0  0  0  0
  147.5048  139.8675  152.4097 H   0  0  0  0  0  0  0  0  0  0  0  0
  146.2045  141.9463  152.8110 H   0  0  0  0  0  0  0  0  0  0  0  0
  146.6746  143.3552  154.8047 H   0  0  0  0  0  0  0  0  0  0  0  0
  148.4499  142.6842  156.4157 H   0  0  0  0  0  0  0  0  0  0  0  0
  149.8438  140.9663  157.9711 H   0  0  0  0  0  0  0  0  0  0  0  0
  151.1392  139.8542  157.6963 H   0  0  0  0  0  0  0  0  0  0  0  0
  152.4943  141.4782  156.5611 H   0  0  0  0  0  0  0  0  0  0  0  0
  150.3252  143.2381  156.6060 H   0  0  0  0  0  0  0  0  0  0  0  0
  151.3676  144.4793  157.9713 H   0  0  0  0  0  0  0  0  0  0  0  0
  152.1578  145.4299  160.1184 H   0  0  0  0  0  0  0  0  0  0  0  0
  153.3230  143.9824  161.7728 H   0  0  0  0  0  0  0  0  0  0  0  0
  152.9059  140.6115  159.1273 H   0  0  0  0  0  0  0  0  0  0  0  0
  1  2  1  0  0  0  0
  1 27  1  0  0  0  0
  1 28  1  0  0  0  0
  1 29  1  0  0  0  0
  2  3  2  0  0  0  0
  2  4  1  0  0  0  0
  4  5  1  0  0  0  0
  4 30  1  0  0  0  0
  5 26  1  0  0  0  0
  5  6  1  0  0  0  0
  5  7  1  0  0  0  0
  6 31  1  0  0  0  0
  6 32  1  0  0  0  0
  6 33  1  0  0  0  0
  7 15  1  0  0  0  0
  7  8  2  0  0  0  0
  8  9  1  0  0  0  0
  9 14  2  0  0  0  0
  9 10  1  0  0  0  0
 10 11  2  0  0  0  0
 10 34  1  0  0  0  0
 11 12  1  0  0  0  0
 11 35  1  0  0  0  0
 12 13  2  0  0  0  0
 12 36  1  0  0  0  0
 13 14  1  0  0  0  0
 13 37  1  0  0  0  0
 14 15  1  0  0  0  0
 15 16  1  0  0  0  0
 16 17  1  0  0  0  0
 16 38  1  0  0  0  0
 16 39  1  0  0  0  0
 17 18  1  0  0  0  0
 17 19  1  0  0  0  0
 17 40  1  0  0  0  0
 18 41  1  0  0  0  0
 19 25  1  0  0  0  0
 19 20  2  0  0  0  0
 20 21  1  0  0  0  0
 20 42  1  0  0  0  0
 21 22  2  0  0  0  0
 21 43  1  0  0  0  0
 22 23  1  0  0  0  0
 22 44  1  0  0  0  0
 23 24  1  0  0  0  0
 23 25  2  0  0  0  0
 25 45  1  0  0  0  0
M  END
> <s_m_source_file>
AV-unprocessed.smi

> <i_m_source_file_index>
1667

> <i_lp_mmshare_version>
43012

> <i_f3d_flags>
0

> <s_epik_input>
W0NIM11DKD1PKVtOSF1bQ0BASF0oW0NIM10pYyhuMSluKGMoYzEyKVtjSF1bY0hdW2NIXVtjSF0yKVtDSDJdW0NASF0oW09IXSljM1tjSF1bY0hdW2NIXWMoRilbY0hdMw==

> <s_epik_cmdline>
J2VwaWtfcHl0aG9uJywgJy1waCcsICc3LjAnLCAnLXRuJywgJzgnLCAnLW1hJywgJzIwMCcsICctbWV0YWxfYmluZGluZycsICctaW1hZScsICc8aW5maWxlLm1hZT4nLCAnLW9tYWUnLCAnPG91dGZpbGUubWFlPic=

> <r_epik_Ionization_Penalty>
0.133011

> <r_epik_Ionization_Penalty_Charging>
0

> <r_epik_Ionization_Penalty_Neutral>
0.133011

> <r_epik_State_Penalty>
0.122384

> <r_epik_Charging_Adjusted_Penalty>
0.122384

> <i_epik_Tot_Q>
0

> <i_epik_Tot_abs_Q>
0

> <r_epik_Metal_State_Penalty>
0.0997374

> <b_epik_Metal_Only>
0

> <s_lp_Force_Field>
OPLS_2005

> <r_lp_Energy>
5.5788

> <b_lp_Chiralities_Consistent>
1

> <s_lp_Variant>
AV-unprocessed.smi:1667-3

> <Gold.Version>
5.8.1

> <Gold.Id.Protein>
6NUR|6NUR_protein|mol2

> <Gold.PLP.Fitness>
51.0006

> <Gold.PLP.PLP>
-50.8377

> <Gold.PLP.part.hbond>
-0.9326

> <Gold.PLP.part.metal>
0.0000

> <Gold.PLP.part.buried>
-1.9087

> <Gold.PLP.part.nonpolar>
-47.6841

> <Gold.PLP.part.repulsive>
0.4780

> <Gold.PLP.ligand.clash>
0.0000

> <Gold.PLP.ligand.torsion>
0.4938

> <Gold.PLP.Chemscore.Hbond>
0.3520

> <Gold.PLP.Chemscore.CHOScore>
0.0000

> <Gold.PLP.Chemscore.Metal>
0.0000

> <Gold.Chemscore.Hbonds>
donor molecule, donor type, donor heavy atom, donor atom, acceptor molecule, acceptor atom, score
      L1  H    18    41       P1  8028  0.21
      P1  H  6896  6908       L1     3  0.06

> <Gold.PLP.Chemscore.Internal.Correction>
0.0945

> <Gold.Rescore>
     Score         DG    S(hbond)    S(metal)    S(lipo)     H(rot)  DE(clash)    DE(int)     intcor
     15.87     -16.40       0.71        0.00     127.34       2.48       0.11       0.42       ----

> <Gold.Chemscore.Fitness>
15.8690

> <Gold.Chemscore.DG>
-16.3956

> <Gold.Chemscore.ZeroCoef>
-5.4800

> <Gold.Chemscore.Hbond>
0.7052

> <Gold.Chemscore.Metal>
0.0000

> <Gold.Chemscore.Lipo>
127.3400

> <Gold.Chemscore.Internal_Hbond>
0.0000

> <Gold.Chemscore.DEClash>
0.1082

> <Gold.Chemscore.DEInternal>
0.4184

> <Gold.Chemscore.Rot>
2.4760

> <Gold.Chemscore.Internal.Correction>
   9.000000E+99

> <Gold.Chemscore.Hbonds>
donor molecule, donor type, donor heavy atom, donor atom, acceptor molecule, acceptor atom, score
      L1  H    18    41       P1  8028  0.22
      P1  H  6896  6908       L1     3  0.07

> <Gold.Chemscore.Hbond.Weighted>
-2.3554

> <Gold.Chemscore.Metal.Weighted>
-0.0000

> <Gold.Chemscore.Lipo.Weighted>
-14.8988

> <Gold.Chemscore.Internal_Hbond.Weighted>
0.0000

> <Gold.Chemscore.DEClash.Weighted>
0.1082

> <Gold.Chemscore.DEInternal.Weighted>
0.4184

> <Gold.Chemscore.Rot.Weighted>
6.3385

> <Gold.Chemscore.Internal.Correction.Weighted>
   9.000000E+99

> <Gold.Protein.RotatedTorsions>
[ 6907 6896 6895 6894 ] final -155.62 input  -60.11 | X-H torsion
[ 7974 7965 7964 7962 ] final -139.31 input  175.53 | X-H torsion
[ 8008 7997 7996 7995 ] final   20.13 input   59.86 | X-H torsion
[ 10167 10162 10161 10158 ] final   23.74 input  -65.29 | X-H torsion
[ 10718 10713 10712 10709 ] final  129.79 input   66.30 | X-H torsion
[ 10763 10752 10751 10750 ] final  -14.24 input  -60.55 | X-H torsion
[ 11005 11000 10999 10996 ] final   83.26 input  -57.11 | X-H torsion

> <Gold.Protein.ActiveResidues>
 VAL166  LYS551  ARG553  GLY616  TRP617  ASP618  TYR619  PRO620  LYS621  CYS622 
 ASP623  PHE694  ASN695  SER759  ASP760  ASP761  ALA762  ILE779  LEU786  VAL792 
 PHE793  MET794  SER795  GLU796  ALA797  LYS798  CYS799  TRP800  GLU811  SER814 

> <Gold.Protein.RotatedAtoms>
  151.2752  133.4236  159.2623 H   0  0  0  0  0  0  0  0  0  0  0  0  # atno 6907 bound_to 6896
  151.0410  134.9607  159.8171 H   0  0  0  0  0  0  0  0  0  0  0  0  # atno 6908 bound_to 6896
  152.5365  134.2710  159.9024 H   0  0  0  0  0  0  0  0  0  0  0  0  # atno 6909 bound_to 6896
  144.8688  140.6334  143.5281 H   0  0  0  0  0  0  0  0  0  0  0  0  # atno 7974 bound_to 7965
  154.9310  140.3040  155.5168 H   0  0  0  0  0  0  0  0  0  0  0  0  # atno 8008 bound_to 7997
  156.3003  140.2354  156.4307 H   0  0  0  0  0  0  0  0  0  0  0  0  # atno 8009 bound_to 7997
  154.8237  140.0422  157.1417 H   0  0  0  0  0  0  0  0  0  0  0  0  # atno 8010 bound_to 7997
  140.5244  143.9948  150.6433 H   0  0  0  0  0  0  0  0  0  0  0  0  # atno 10167 bound_to 10162
  157.5121  131.1097  150.9277 H   0  0  0  0  0  0  0  0  0  0  0  0  # atno 10718 bound_to 10713
  153.5253  135.7015  153.5710 H   0  0  0  0  0  0  0  0  0  0  0  0  # atno 10763 bound_to 10752
  153.3741  135.3937  155.1810 H   0  0  0  0  0  0  0  0  0  0  0  0  # atno 10764 bound_to 10752
  154.8690  135.3819  154.4745 H   0  0  0  0  0  0  0  0  0  0  0  0  # atno 10765 bound_to 10752
  139.9036  134.8132  156.2286 H   0  0  0  0  0  0  0  0  0  0  0  0  # atno 11005 bound_to 11000
  145.4171  139.1570  143.4094 LP  0  0  0  0  0  0  0  0  0  0  0  0  # atno 17320 bound_to 7965
  146.2915  140.4279  142.8738 LP  0  0  0  0  0  0  0  0  0  0  0  0  # atno 17321 bound_to 7965
  140.3306  143.3080  152.0691 LP  0  0  0  0  0  0  0  0  0  0  0  0  # atno 17342 bound_to 10162
  139.4933  144.6512  151.6672 LP  0  0  0  0  0  0  0  0  0  0  0  0  # atno 17343 bound_to 10162
  156.9914  130.5565  149.5303 LP  0  0  0  0  0  0  0  0  0  0  0  0  # atno 17370 bound_to 10713
  156.0296  130.5388  150.8499 LP  0  0  0  0  0  0  0  0  0  0  0  0  # atno 17371 bound_to 10713
  141.0360  133.6963  156.1513 LP  0  0  0  0  0  0  0  0  0  0  0  0  # atno 17394 bound_to 11000
  140.7026  134.4547  157.5585 LP  0  0  0  0  0  0  0  0  0  0  0  0  # atno 17395 bound_to 11000

$$$$
