AV-unprocessed.smi:1700|AV-procd|sdf|6819|dock8
  -GOLD-   22720 7593D 1   1.00000     0.00000
 Structure written by MMmdl.
 34 35  0  0  0  0  0  0  0  0  1 V2000
  151.2079  137.7739  154.2784 C   0  0  0  0  0  0  0  0  0  0  0  0
  150.6489  139.1332  154.6669 C   0  0  0  0  0  0  0  0  0  0  0  0
  151.4462  140.0160  155.4260 C   0  0  0  0  0  0  0  0  0  0  0  0
  150.9280  141.2719  155.7851 C   0  0  0  0  0  0  0  0  0  0  0  0
  149.6257  141.5941  155.3669 C   0  0  0  0  0  0  0  0  0  0  0  0
  148.8568  140.7567  154.6415 N   0  0  0  0  0  0  0  0  0  0  0  0
  149.3417  139.5401  154.2865 C   0  0  0  0  0  0  0  0  0  0  0  0
  148.5850  138.6039  153.5261 N   0  0  0  0  0  0  0  0  0  0  0  0
  147.2488  138.4685  153.4550 C   0  0  0  0  0  0  0  0  0  0  0  0
  146.4270  139.1786  154.0354 O   0  0  0  0  0  0  0  0  0  0  0  0
  146.9069  137.4466  152.6572 N   0  0  0  0  0  0  0  0  0  0  0  0
  145.5379  137.0360  152.3666 C   0  0  0  0  0  0  0  0  0  0  0  0
  145.4984  135.8509  151.3880 C   0  0  2  0  0  0  0  0  0  0  0  0
  144.1145  135.2218  151.2421 C   0  0  0  0  0  0  0  0  0  0  0  0
  144.4640  133.8278  150.7743 C   0  0  0  0  0  0  0  0  0  0  0  0
  145.7167  133.5290  151.5933 C   0  0  0  0  0  0  0  0  0  0  0  0
  146.3320  134.7896  151.8490 O   0  0  0  0  0  0  0  0  0  0  0  0
  152.2185  137.6353  154.6637 H   0  0  0  0  0  0  0  0  0  0  0  0
  151.2462  137.6729  153.1934 H   0  0  0  0  0  0  0  0  0  0  0  0
  150.5838  136.9751  154.6800 H   0  0  0  0  0  0  0  0  0  0  0  0
  152.4441  139.7368  155.7315 H   0  0  0  0  0  0  0  0  0  0  0  0
  151.5130  141.9698  156.3659 H   0  0  0  0  0  0  0  0  0  0  0  0
  149.1889  142.5484  155.6216 H   0  0  0  0  0  0  0  0  0  0  0  0
  149.1288  137.9513  152.9816 H   0  0  0  0  0  0  0  0  0  0  0  0
  147.6436  136.9187  152.2124 H   0  0  0  0  0  0  0  0  0  0  0  0
  145.0523  136.7649  153.3042 H   0  0  0  0  0  0  0  0  0  0  0  0
  144.9767  137.8796  151.9610 H   0  0  0  0  0  0  0  0  0  0  0  0
  145.8526  136.1542  150.4013 H   0  0  0  0  0  0  0  0  0  0  0  0
  143.6065  135.1757  152.2066 H   0  0  0  0  0  0  0  0  0  0  0  0
  143.4746  135.7608  150.5427 H   0  0  0  0  0  0  0  0  0  0  0  0
  143.6639  133.1052  150.9372 H   0  0  0  0  0  0  0  0  0  0  0  0
  144.7038  133.8402  149.7102 H   0  0  0  0  0  0  0  0  0  0  0  0
  145.4485  133.0760  152.5483 H   0  0  0  0  0  0  0  0  0  0  0  0
  146.3970  132.8513  151.0767 H   0  0  0  0  0  0  0  0  0  0  0  0
  1  2  1  0  0  0  0
  1 18  1  0  0  0  0
  1 19  1  0  0  0  0
  1 20  1  0  0  0  0
  2  7  1  0  0  0  0
  2  3  2  0  0  0  0
  3  4  1  0  0  0  0
  3 21  1  0  0  0  0
  4  5  2  0  0  0  0
  4 22  1  0  0  0  0
  5  6  1  0  0  0  0
  5 23  1  0  0  0  0
  6  7  2  0  0  0  0
  7  8  1  0  0  0  0
  8  9  1  0  0  0  0
  8 24  1  0  0  0  0
  9 10  2  0  0  0  0
  9 11  1  0  0  0  0
 11 12  1  0  0  0  0
 11 25  1  0  0  0  0
 12 13  1  0  0  0  0
 12 26  1  0  0  0  0
 12 27  1  0  0  0  0
 13 17  1  0  0  0  0
 13 14  1  0  0  0  0
 13 28  1  0  0  0  0
 14 15  1  0  0  0  0
 14 29  1  0  0  0  0
 14 30  1  0  0  0  0
 15 16  1  0  0  0  0
 15 31  1  0  0  0  0
 15 32  1  0  0  0  0
 16 17  1  0  0  0  0
 16 33  1  0  0  0  0
 16 34  1  0  0  0  0
M  END
> <s_m_source_file>
AV-unprocessed.smi

> <i_m_source_file_index>
1700

> <i_lp_mmshare_version>
43012

> <i_f3d_flags>
0

> <s_epik_input>
W0NIM11jMVtjSF1bY0hdW2NIXW5jMVtOSF1DKD1PKVtOSF1bQ0gyXVtDQEBIXTJbQ0gyXVtDSDJdW0NIMl1PMg==

> <s_epik_cmdline>
J2VwaWtfcHl0aG9uJywgJy1waCcsICc3LjAnLCAnLXRuJywgJzgnLCAnLW1hJywgJzIwMCcsICctbWV0YWxfYmluZGluZycsICctaW1hZScsICc8aW5maWxlLm1hZT4nLCAnLW9tYWUnLCAnPG91dGZpbGUubWFlPic=

> <r_lp_tautomer_probability>
1

> <r_epik_Ionization_Penalty>
5.57253e-05

> <r_epik_Ionization_Penalty_Charging>
0

> <r_epik_Ionization_Penalty_Neutral>
5.57253e-05

> <r_epik_State_Penalty>
-0

> <r_epik_Charging_Adjusted_Penalty>
0

> <i_epik_Tot_Q>
0

> <i_epik_Tot_abs_Q>
0

> <r_epik_Metal_State_Penalty>
-0

> <b_epik_Metal_Only>
0

> <s_lp_Force_Field>
OPLS_2005

> <r_lp_Energy>
19.3296

> <b_lp_Chiralities_Consistent>
1

> <s_lp_Variant>
AV-unprocessed.smi:1700-1

> <Gold.Version>
5.8.1

> <Gold.Id.Protein>
6NUR|6NUR_protein|mol2

> <Gold.PLP.Fitness>
40.8695

> <Gold.PLP.PLP>
-32.6530

> <Gold.PLP.part.hbond>
-2.9484

> <Gold.PLP.part.metal>
0.0000

> <Gold.PLP.part.buried>
-3.7220

> <Gold.PLP.part.nonpolar>
-28.3394

> <Gold.PLP.part.repulsive>
1.5253

> <Gold.PLP.ligand.clash>
0.0000

> <Gold.PLP.ligand.torsion>
0.1995

> <Gold.PLP.Chemscore.Hbond>
1.8713

> <Gold.PLP.Chemscore.CHOScore>
1.0000

> <Gold.PLP.Chemscore.Metal>
0.0000

> <Gold.Chemscore.Hbonds>
donor molecule, donor type, donor heavy atom, donor atom, acceptor molecule, acceptor atom, score
      L1  H     8    24       P1  7948  0.86
      L1  H    11    25       P1  7948  0.94
      L1  C     5    23       P1  8028  1.00

> <Gold.PLP.Chemscore.Internal.Correction>
0.0016

> <Gold.Rescore>
     Score         DG    S(hbond)    S(metal)    S(lipo)     H(rot)  DE(clash)    DE(int)     intcor
     14.93     -16.30       1.95        0.00      63.94       1.23       0.04       1.34       ----

> <Gold.Chemscore.Fitness>
14.9276

> <Gold.Chemscore.DG>
-16.3019

> <Gold.Chemscore.ZeroCoef>
-5.4800

> <Gold.Chemscore.Hbond>
1.9458

> <Gold.Chemscore.Metal>
0.0000

> <Gold.Chemscore.Lipo>
63.9411

> <Gold.Chemscore.Internal_Hbond>
0.0000

> <Gold.Chemscore.DEClash>
0.0370

> <Gold.Chemscore.DEInternal>
1.3373

> <Gold.Chemscore.Rot>
1.2337

> <Gold.Chemscore.Internal.Correction>
   9.000000E+99

> <Gold.Chemscore.Hbonds>
donor molecule, donor type, donor heavy atom, donor atom, acceptor molecule, acceptor atom, score
      L1  H     8    24       P1  7948  0.79
      L1  H    11    25       P1  7948  0.90

> <Gold.Chemscore.Hbond.Weighted>
-6.4990

> <Gold.Chemscore.Metal.Weighted>
-0.0000

> <Gold.Chemscore.Lipo.Weighted>
-7.4811

> <Gold.Chemscore.Internal_Hbond.Weighted>
0.0000

> <Gold.Chemscore.DEClash.Weighted>
0.0370

> <Gold.Chemscore.DEInternal.Weighted>
1.3373

> <Gold.Chemscore.Rot.Weighted>
3.1582

> <Gold.Chemscore.Internal.Correction.Weighted>
   9.000000E+99

> <Gold.Protein.RotatedTorsions>
[ 6907 6896 6895 6894 ] final  135.69 input  -60.11 | X-H torsion
[ 7974 7965 7964 7962 ] final  -66.33 input  175.53 | X-H torsion
[ 8008 7997 7996 7995 ] final  170.11 input   59.86 | X-H torsion
[ 10167 10162 10161 10158 ] final  -58.59 input  -65.29 | X-H torsion
[ 10718 10713 10712 10709 ] final -131.94 input   66.30 | X-H torsion
[ 10763 10752 10751 10750 ] final   82.42 input  -60.55 | X-H torsion
[ 11005 11000 10999 10996 ] final   31.23 input  -57.11 | X-H torsion

> <Gold.Protein.ActiveResidues>
 VAL166  LYS551  ARG553  GLY616  TRP617  ASP618  TYR619  PRO620  LYS621  CYS622 
 ASP623  PHE694  ASN695  SER759  ASP760  ASP761  ALA762  ILE779  LEU786  VAL792 
 PHE793  MET794  SER795  GLU796  ALA797  LYS798  CYS799  TRP800  GLU811  SER814 

> <Gold.Protein.RotatedAtoms>
  152.2977  133.5623  159.5597 H   0  0  0  0  0  0  0  0  0  0  0  0  # atno 6907 bound_to 6896
  150.7263  134.0337  159.3751 H   0  0  0  0  0  0  0  0  0  0  0  0  # atno 6908 bound_to 6896
  151.8239  135.0643  160.0479 H   0  0  0  0  0  0  0  0  0  0  0  0  # atno 6909 bound_to 6896
  145.7431  140.8944  143.0519 H   0  0  0  0  0  0  0  0  0  0  0  0  # atno 7974 bound_to 7965
  156.1396  140.1546  156.8941 H   0  0  0  0  0  0  0  0  0  0  0  0  # atno 8008 bound_to 7997
  154.4976  140.0834  156.7768 H   0  0  0  0  0  0  0  0  0  0  0  0  # atno 8009 bound_to 7997
  155.4104  140.3418  155.4265 H   0  0  0  0  0  0  0  0  0  0  0  0  # atno 8010 bound_to 7997
  140.6188  143.2412  151.5533 H   0  0  0  0  0  0  0  0  0  0  0  0  # atno 10167 bound_to 10162
  156.2295  130.7029  151.0843 H   0  0  0  0  0  0  0  0  0  0  0  0  # atno 10718 bound_to 10713
  153.1201  135.4729  154.9181 H   0  0  0  0  0  0  0  0  0  0  0  0  # atno 10763 bound_to 10752
  154.7567  135.3120  154.8459 H   0  0  0  0  0  0  0  0  0  0  0  0  # atno 10764 bound_to 10752
  153.9026  135.6873  153.4808 H   0  0  0  0  0  0  0  0  0  0  0  0  # atno 10765 bound_to 10752
  140.2861  134.2917  155.7788 H   0  0  0  0  0  0  0  0  0  0  0  0  # atno 11005 bound_to 11000
  144.6866  139.9487  143.7477 LP  0  0  0  0  0  0  0  0  0  0  0  0  # atno 17320 bound_to 7965
  146.0429  139.3438  143.0686 LP  0  0  0  0  0  0  0  0  0  0  0  0  # atno 17321 bound_to 7965
  139.5420  144.2621  152.1370 LP  0  0  0  0  0  0  0  0  0  0  0  0  # atno 17342 bound_to 10162
  140.1836  144.4820  150.6515 LP  0  0  0  0  0  0  0  0  0  0  0  0  # atno 17343 bound_to 10162
  157.7126  131.0726  150.6444 LP  0  0  0  0  0  0  0  0  0  0  0  0  # atno 17370 bound_to 10713
  156.6511  130.4485  149.5719 LP  0  0  0  0  0  0  0  0  0  0  0  0  # atno 17371 bound_to 10713
  141.2154  133.7556  156.9554 LP  0  0  0  0  0  0  0  0  0  0  0  0  # atno 17394 bound_to 11000
  140.1238  134.9400  157.2241 LP  0  0  0  0  0  0  0  0  0  0  0  0  # atno 17395 bound_to 11000

$$$$
