AV-unprocessed.smi:37|AV-procd|sdf|328|dock1
  -GOLD-   2262016153D 1   1.00000     0.00000
 Structure written by MMmdl.
 43 44  0  0  0  0  0  0  0  0  2 V2000
  145.2033  131.4119  150.7207 C   0  0  0  0  0  0  0  0  0  0  0  0
  146.0803  132.6422  150.9919 C   0  0  0  0  0  0  0  0  0  0  0  0
  146.1690  132.9691  152.4808 C   0  0  0  0  0  0  0  0  0  0  0  0
  145.1589  133.1350  153.1648 O   0  0  0  0  0  0  0  0  0  0  0  0
  147.4348  133.0486  152.9142 O   0  0  0  0  0  0  0  0  0  0  0  0
  147.7031  133.3039  154.2830 C   0  0  0  0  0  0  0  0  0  0  0  0
  149.2189  133.3277  154.5196 C   0  0  1  0  0  0  0  0  0  0  0  0
  149.7101  134.6432  154.2883 O   0  0  0  0  0  0  0  0  0  0  0  0
  150.7438  134.8884  155.1838 C   0  0  1  0  0  0  0  0  0  0  0  0
  150.9223  136.3770  155.3699 N   0  0  0  0  0  0  0  0  0  0  0  0
  150.1057  137.2871  154.7181 C   0  0  0  0  0  0  0  0  0  0  0  0
  150.2608  138.6148  154.8953 C   0  0  0  0  0  0  0  0  0  0  0  0
  149.4499  139.4743  154.2546 F   0  0  0  0  0  0  0  0  0  0  0  0
  151.3088  139.1080  155.7870 C   0  0  0  0  0  0  0  0  0  0  0  0
  151.4475  140.3203  155.9415 O   0  0  0  0  0  0  0  0  0  0  0  0
  152.0965  138.1883  156.4167 N   0  5  0  0  0  0  0  0  0  0  0  0
  151.9406  136.8430  156.2437 C   0  0  0  0  0  0  0  0  0  0  0  0
  152.6397  136.0033  156.8111 O   0  0  0  0  0  0  0  0  0  0  0  0
  150.3573  134.1688  156.4805 C   0  0  1  0  0  0  0  0  0  0  0  0
  149.0585  135.2159  157.5784 Br  0  0  0  0  0  0  0  0  0  0  0  0
  149.6551  132.9275  155.9432 C   0  0  2  0  0  0  0  0  0  0  0  0
  150.5727  131.8434  155.8545 O   0  0  0  0  0  0  0  0  0  0  0  0
  151.4020  131.5673  156.8782 C   0  0  0  0  0  0  0  0  0  0  0  0
  151.3708  132.0869  157.9937 O   0  0  0  0  0  0  0  0  0  0  0  0
  152.4510  130.5173  156.5194 C   0  0  0  0  0  0  0  0  0  0  0  0
  152.2495  129.9509  155.1071 C   0  0  0  0  0  0  0  0  0  0  0  0
  145.1403  131.2136  149.6507 H   0  0  0  0  0  0  0  0  0  0  0  0
  144.1879  131.5601  151.0896 H   0  0  0  0  0  0  0  0  0  0  0  0
  145.6062  130.5172  151.1961 H   0  0  0  0  0  0  0  0  0  0  0  0
  147.0870  132.4744  150.6085 H   0  0  0  0  0  0  0  0  0  0  0  0
  145.6798  133.5072  150.4627 H   0  0  0  0  0  0  0  0  0  0  0  0
  147.2618  134.2590  154.5700 H   0  0  0  0  0  0  0  0  0  0  0  0
  147.2462  132.5315  154.9033 H   0  0  0  0  0  0  0  0  0  0  0  0
  149.6933  132.6707  153.7888 H   0  0  0  0  0  0  0  0  0  0  0  0
  151.6739  134.5190  154.7470 H   0  0  0  0  0  0  0  0  0  0  0  0
  149.3202  136.9427  154.0622 H   0  0  0  0  0  0  0  0  0  0  0  0
  151.2335  133.9635  157.0966 H   0  0  0  0  0  0  0  0  0  0  0  0
  148.7991  132.6506  156.5608 H   0  0  0  0  0  0  0  0  0  0  0  0
  153.4409  130.9654  156.6054 H   0  0  0  0  0  0  0  0  0  0  0  0
  152.4048  129.7100  157.2508 H   0  0  0  0  0  0  0  0  0  0  0  0
  152.9825  129.1715  154.8986 H   0  0  0  0  0  0  0  0  0  0  0  0
  152.3651  130.7232  154.3458 H   0  0  0  0  0  0  0  0  0  0  0  0
  151.2582  129.5109  154.9937 H   0  0  0  0  0  0  0  0  0  0  0  0
  1  2  1  0  0  0  0
  1 27  1  0  0  0  0
  1 28  1  0  0  0  0
  1 29  1  0  0  0  0
  2  3  1  0  0  0  0
  2 30  1  0  0  0  0
  2 31  1  0  0  0  0
  3  4  2  0  0  0  0
  3  5  1  0  0  0  0
  5  6  1  0  0  0  0
  6  7  1  0  0  0  0
  6 32  1  0  0  0  0
  6 33  1  0  0  0  0
  7 21  1  0  0  0  0
  7  8  1  0  0  0  0
  7 34  1  0  0  0  0
  8  9  1  0  0  0  0
  9 10  1  0  0  0  0
  9 19  1  0  0  0  0
  9 35  1  0  0  0  0
 10 17  1  0  0  0  0
 10 11  1  0  0  0  0
 11 12  2  0  0  0  0
 11 36  1  0  0  0  0
 12 13  1  0  0  0  0
 12 14  1  0  0  0  0
 14 15  2  0  0  0  0
 14 16  1  0  0  0  0
 16 17  1  0  0  0  0
 17 18  2  0  0  0  0
 19 20  1  0  0  0  0
 19 21  1  0  0  0  0
 19 37  1  0  0  0  0
 21 22  1  0  0  0  0
 21 38  1  0  0  0  0
 22 23  1  0  0  0  0
 23 24  2  0  0  0  0
 23 25  1  0  0  0  0
 25 26  1  0  0  0  0
 25 39  1  0  0  0  0
 25 40  1  0  0  0  0
 26 41  1  0  0  0  0
 26 42  1  0  0  0  0
 26 43  1  0  0  0  0
M  CHG  1  16  -1
M  END
> <s_m_source_file>
AV-unprocessed.smi

> <i_m_source_file_index>
37

> <i_lp_mmshare_version>
43012

> <i_f3d_flags>
0

> <s_epik_input>
W0NIM11bQ0gyXUMoPU8pT1tDSDJdW0NAQEhdMU9bQ0BASF0objJbY0hdYyhGKWMoPU8pW25IXWMyPU8pW0NAQEhdKEJyKVtDQEhdMU9DKD1PKVtDSDJdW0NIM10=

> <s_epik_cmdline>
J2VwaWtfcHl0aG9uJywgJy1waCcsICc3LjAnLCAnLXRuJywgJzgnLCAnLW1hJywgJzIwMCcsICctbWV0YWxfYmluZGluZycsICctaW1hZScsICc8aW5maWxlLm1hZT4nLCAnLW9tYWUnLCAnPG91dGZpbGUubWFlPic=

> <r_epik_Ionization_Penalty>
1.08158

> <r_epik_Ionization_Penalty_Charging>
9.05154e-09

> <r_epik_Ionization_Penalty_Neutral>
1.08158

> <r_epik_State_Penalty>
1.13706

> <r_epik_Charging_Adjusted_Penalty>
1.13706

> <i_epik_Tot_Q>
-1

> <i_epik_Tot_abs_Q>
1

> <r_epik_Metal_State_Penalty>
0.00343535

> <b_epik_Metal_Only>
0

> <s_epik_Chemistry_Notes>
This compound has an ester and may undergo hydrolysis at high or low pH. This compound contains an acetal/aminal-like group ( X-CH(R)-Y where X, Y are N, S, or O) that may be acid/base labile, releasing an aldehyde.

> <s_lp_Force_Field>
OPLS_2005

> <r_lp_Energy>
31.9934

> <b_lp_Chiralities_Consistent>
1

> <s_lp_Variant>
AV-unprocessed.smi:37-26

> <Gold.Version>
5.8.1

> <Gold.Id.Protein>
6NUR|6NUR_protein|mol2

> <Gold.PLP.Fitness>
40.4623

> <Gold.PLP.PLP>
-32.4315

> <Gold.PLP.part.hbond>
-2.0000

> <Gold.PLP.part.metal>
0.0000

> <Gold.PLP.part.buried>
-5.2777

> <Gold.PLP.part.nonpolar>
-27.1393

> <Gold.PLP.part.repulsive>
2.1974

> <Gold.PLP.ligand.clash>
0.0000

> <Gold.PLP.ligand.torsion>
0.5998

> <Gold.PLP.Chemscore.Hbond>
1.9913

> <Gold.PLP.Chemscore.CHOScore>
1.0000

> <Gold.PLP.Chemscore.Metal>
0.0000

> <Gold.Chemscore.Hbonds>
donor molecule, donor type, donor heavy atom, donor atom, acceptor molecule, acceptor atom, score
      P1  H  6896  6907       L1    24  1.00
      P1  H 10752 10765       L1    18  0.98
      L1  C    11    36       P1  7948  1.00

> <Gold.PLP.Chemscore.Internal.Correction>
0.2567

> <Gold.Rescore>
     Score         DG    S(hbond)    S(metal)    S(lipo)     H(rot)  DE(clash)    DE(int)     intcor
      7.29      -9.51       1.73        0.00      56.51       3.27       0.04       2.18       ----

> <Gold.Chemscore.Fitness>
7.2880

> <Gold.Chemscore.DG>
-9.5135

> <Gold.Chemscore.ZeroCoef>
-5.4800

> <Gold.Chemscore.Hbond>
1.7321

> <Gold.Chemscore.Metal>
0.0000

> <Gold.Chemscore.Lipo>
56.5096

> <Gold.Chemscore.Internal_Hbond>
0.0000

> <Gold.Chemscore.DEClash>
0.0407

> <Gold.Chemscore.DEInternal>
2.1848

> <Gold.Chemscore.Rot>
3.2669

> <Gold.Chemscore.Internal.Correction>
   9.000000E+99

> <Gold.Chemscore.Hbonds>
donor molecule, donor type, donor heavy atom, donor atom, acceptor molecule, acceptor atom, score
      P1  H  6896  6907       L1    24  1.00
      P1  H 10752 10765       L1    18  0.32

> <Gold.Chemscore.Hbond.Weighted>
-5.7852

> <Gold.Chemscore.Metal.Weighted>
-0.0000

> <Gold.Chemscore.Lipo.Weighted>
-6.6116

> <Gold.Chemscore.Internal_Hbond.Weighted>
0.0000

> <Gold.Chemscore.DEClash.Weighted>
0.0407

> <Gold.Chemscore.DEInternal.Weighted>
2.1848

> <Gold.Chemscore.Rot.Weighted>
8.3634

> <Gold.Chemscore.Internal.Correction.Weighted>
   9.000000E+99

> <Gold.Protein.RotatedTorsions>
[ 6907 6896 6895 6894 ] final -163.87 input  -60.11 | X-H torsion
[ 7974 7965 7964 7962 ] final -112.34 input  175.53 | X-H torsion
[ 8008 7997 7996 7995 ] final   76.14 input   59.86 | X-H torsion
[ 10167 10162 10161 10158 ] final  116.74 input  -65.29 | X-H torsion
[ 10718 10713 10712 10709 ] final -116.81 input   66.30 | X-H torsion
[ 10763 10752 10751 10750 ] final -108.65 input  -60.55 | X-H torsion
[ 11005 11000 10999 10996 ] final -106.56 input  -57.11 | X-H torsion

> <Gold.Protein.ActiveResidues>
 VAL166  LYS551  ARG553  GLY616  TRP617  ASP618  TYR619  PRO620  LYS621  CYS622 
 ASP623  PHE694  ASN695  SER759  ASP760  ASP761  ALA762  ILE779  LEU786  VAL792 
 PHE793  MET794  SER795  GLU796  ALA797  LYS798  CYS799  TRP800  GLU811  SER814 

> <Gold.Protein.RotatedAtoms>
  151.4029  133.3752  159.2734 H   0  0  0  0  0  0  0  0  0  0  0  0  # atno 6907 bound_to 6896
  150.9420  134.8830  159.7629 H   0  0  0  0  0  0  0  0  0  0  0  0  # atno 6908 bound_to 6896
  152.5075  134.3980  159.9459 H   0  0  0  0  0  0  0  0  0  0  0  0  # atno 6909 bound_to 6896
  145.1452  140.8799  143.3678 H   0  0  0  0  0  0  0  0  0  0  0  0  # atno 7974 bound_to 7965
  155.8230  140.3469  155.5526 H   0  0  0  0  0  0  0  0  0  0  0  0  # atno 8008 bound_to 7997
  155.8322  140.0929  157.1806 H   0  0  0  0  0  0  0  0  0  0  0  0  # atno 8009 bound_to 7997
  154.4004  140.1410  156.3615 H   0  0  0  0  0  0  0  0  0  0  0  0  # atno 8010 bound_to 7997
  139.6226  144.7103  151.2601 H   0  0  0  0  0  0  0  0  0  0  0  0  # atno 10167 bound_to 10162
  156.0989  130.6156  150.9083 H   0  0  0  0  0  0  0  0  0  0  0  0  # atno 10718 bound_to 10713
  154.8148  135.4630  154.0613 H   0  0  0  0  0  0  0  0  0  0  0  0  # atno 10763 bound_to 10752
  153.2015  135.6869  153.8232 H   0  0  0  0  0  0  0  0  0  0  0  0  # atno 10764 bound_to 10752
  153.7715  135.3269  155.3330 H   0  0  0  0  0  0  0  0  0  0  0  0  # atno 10765 bound_to 10752
  141.0998  133.8904  157.1870 H   0  0  0  0  0  0  0  0  0  0  0  0  # atno 11005 bound_to 11000
  145.0489  139.3198  143.5938 LP  0  0  0  0  0  0  0  0  0  0  0  0  # atno 17320 bound_to 7965
  146.3501  139.9890  142.8687 LP  0  0  0  0  0  0  0  0  0  0  0  0  # atno 17321 bound_to 7965
  140.7392  143.6626  150.8151 LP  0  0  0  0  0  0  0  0  0  0  0  0  # atno 17342 bound_to 10162
  140.0239  143.5513  152.2789 LP  0  0  0  0  0  0  0  0  0  0  0  0  # atno 17343 bound_to 10162
  157.6156  131.0933  150.8717 LP  0  0  0  0  0  0  0  0  0  0  0  0  # atno 17370 bound_to 10713
  156.8849  130.5192  149.5289 LP  0  0  0  0  0  0  0  0  0  0  0  0  # atno 17371 bound_to 10713
  139.9846  135.0086  156.9833 LP  0  0  0  0  0  0  0  0  0  0  0  0  # atno 17394 bound_to 11000
  140.5049  134.1060  155.7258 LP  0  0  0  0  0  0  0  0  0  0  0  0  # atno 17395 bound_to 11000

$$$$
