AV-unprocessed.smi:3128|AV-procd|sdf|11920|dock2
  -GOLD-   2272017303D 1   1.00000     0.00000
 Structure written by MMmdl.
 39 39  0  0  0  0  0  0  0  0  1 V2000
  152.4440  144.7082  161.0904 C   0  0  0  0  0  0  0  0  0  0  0  0
  152.4019  143.1915  161.3504 C   0  0  0  0  0  0  0  0  0  0  0  0
  153.1745  142.8737  162.6456 C   0  0  0  0  0  0  0  0  0  0  0  0
  152.9181  142.3695  160.1398 C   0  0  2  0  0  0  0  0  0  0  0  0
  152.9381  143.1711  158.8230 C   0  0  0  0  0  0  0  0  0  0  0  0
  152.0917  141.1786  159.9507 N   0  0  0  0  0  0  0  0  0  0  0  0
  152.5503  139.9264  159.7999 C   0  0  0  0  0  0  0  0  0  0  0  0
  153.7444  139.6312  159.8358 O   0  0  0  0  0  0  0  0  0  0  0  0
  151.5037  138.8383  159.5425 C   0  0  0  0  0  0  0  0  0  0  0  0
  151.5554  138.3127  158.1716 N   0  0  0  0  0  0  0  0  0  0  0  0
  151.4049  139.3427  157.1479 C   0  0  0  0  0  0  0  0  0  0  0  0
  150.6010  138.7891  155.9612 C   0  0  0  0  0  0  0  0  0  0  0  0
  149.6402  139.7600  155.4676 N   0  0  0  0  0  0  0  0  0  0  0  0
  148.7615  139.6380  154.4119 C   0  0  0  0  0  0  0  0  0  0  0  0
  148.0804  140.8172  154.3120 C   0  0  0  0  0  0  0  0  0  0  0  0
  148.6197  141.6091  155.3642 C   0  0  0  0  0  0  0  0  0  0  0  0
  149.5523  140.9736  156.0548 N   0  0  0  0  0  0  0  0  0  0  0  0
  153.4536  145.0401  160.8457 H   0  0  0  0  0  0  0  0  0  0  0  0
  152.1165  145.2655  161.9687 H   0  0  0  0  0  0  0  0  0  0  0  0
  151.7871  144.9991  160.2714 H   0  0  0  0  0  0  0  0  0  0  0  0
  151.3595  142.9200  161.5227 H   0  0  0  0  0  0  0  0  0  0  0  0
  154.2392  143.0796  162.5301 H   0  0  0  0  0  0  0  0  0  0  0  0
  153.0669  141.8299  162.9403 H   0  0  0  0  0  0  0  0  0  0  0  0
  152.8099  143.4764  163.4778 H   0  0  0  0  0  0  0  0  0  0  0  0
  153.9386  142.0518  160.3624 H   0  0  0  0  0  0  0  0  0  0  0  0
  153.6360  144.0063  158.8677 H   0  0  0  0  0  0  0  0  0  0  0  0
  151.9511  143.5689  158.5850 H   0  0  0  0  0  0  0  0  0  0  0  0
  153.2510  142.5472  157.9850 H   0  0  0  0  0  0  0  0  0  0  0  0
  151.0938  141.3233  159.9014 H   0  0  0  0  0  0  0  0  0  0  0  0
  151.6988  138.0180  160.2337 H   0  0  0  0  0  0  0  0  0  0  0  0
  150.4988  139.1999  159.7676 H   0  0  0  0  0  0  0  0  0  0  0  0
  150.8715  137.5858  158.0186 H   0  0  0  0  0  0  0  0  0  0  0  0
  150.8910  140.1966  157.5899 H   0  0  0  0  0  0  0  0  0  0  0  0
  152.3636  139.7103  156.7828 H   0  0  0  0  0  0  0  0  0  0  0  0
  151.2599  138.4910  155.1446 H   0  0  0  0  0  0  0  0  0  0  0  0
  150.0573  137.8941  156.2667 H   0  0  0  0  0  0  0  0  0  0  0  0
  148.7008  138.7350  153.8223 H   0  0  0  0  0  0  0  0  0  0  0  0
  147.3165  141.0761  153.5941 H   0  0  0  0  0  0  0  0  0  0  0  0
  148.3639  142.6204  155.6438 H   0  0  0  0  0  0  0  0  0  0  0  0
  1  2  1  0  0  0  0
  1 18  1  0  0  0  0
  1 19  1  0  0  0  0
  1 20  1  0  0  0  0
  2  3  1  0  0  0  0
  2  4  1  0  0  0  0
  2 21  1  0  0  0  0
  3 22  1  0  0  0  0
  3 23  1  0  0  0  0
  3 24  1  0  0  0  0
  4  5  1  0  0  0  0
  4  6  1  0  0  0  0
  4 25  1  0  0  0  0
  5 26  1  0  0  0  0
  5 27  1  0  0  0  0
  5 28  1  0  0  0  0
  6  7  1  0  0  0  0
  6 29  1  0  0  0  0
  7  8  2  0  0  0  0
  7  9  1  0  0  0  0
  9 10  1  0  0  0  0
  9 30  1  0  0  0  0
  9 31  1  0  0  0  0
 10 11  1  0  0  0  0
 10 32  1  0  0  0  0
 11 12  1  0  0  0  0
 11 33  1  0  0  0  0
 11 34  1  0  0  0  0
 12 13  1  0  0  0  0
 12 35  1  0  0  0  0
 12 36  1  0  0  0  0
 13 17  1  0  0  0  0
 13 14  1  0  0  0  0
 14 15  2  0  0  0  0
 14 37  1  0  0  0  0
 15 16  1  0  0  0  0
 15 38  1  0  0  0  0
 16 17  2  0  0  0  0
 16 39  1  0  0  0  0
M  END
> <s_m_source_file>
AV-unprocessed.smi

> <i_m_source_file_index>
3128

> <i_lp_mmshare_version>
43012

> <i_f3d_flags>
0

> <s_epik_input>
W0NIM11bQ0hdKFtDSDNdKVtDQEhdKFtDSDNdKVtOSF1DKD1PKVtDSDJdW05IXVtDSDJdW0NIMl1uMVtjSF1bY0hdW2NIXW4x

> <s_epik_cmdline>
J2VwaWtfcHl0aG9uJywgJy1waCcsICc3LjAnLCAnLXRuJywgJzgnLCAnLW1hJywgJzIwMCcsICctbWV0YWxfYmluZGluZycsICctaW1hZScsICc8aW5maWxlLm1hZT4nLCAnLW9tYWUnLCAnPG91dGZpbGUubWFlPic=

> <r_lp_tautomer_probability>
1

> <r_epik_Ionization_Penalty>
0.724947

> <r_epik_Ionization_Penalty_Charging>
0

> <r_epik_Ionization_Penalty_Neutral>
0.724947

> <r_epik_State_Penalty>
0.747959

> <r_epik_Charging_Adjusted_Penalty>
0.747959

> <i_epik_Tot_Q>
0

> <i_epik_Tot_abs_Q>
0

> <r_epik_Metal_State_Penalty>
0.746178

> <b_epik_Metal_Only>
0

> <s_lp_Force_Field>
OPLS_2005

> <r_lp_Energy>
7.88811

> <b_lp_Chiralities_Consistent>
1

> <s_lp_Variant>
AV-unprocessed.smi:3128-3

> <Gold.Version>
5.8.1

> <Gold.Id.Protein>
6NUR|6NUR_protein|mol2

> <Gold.PLP.Fitness>
42.0777

> <Gold.PLP.PLP>
-37.5688

> <Gold.PLP.part.hbond>
-1.0000

> <Gold.PLP.part.metal>
0.0000

> <Gold.PLP.part.buried>
1.1780

> <Gold.PLP.part.nonpolar>
-36.2158

> <Gold.PLP.part.repulsive>
0.1992

> <Gold.PLP.ligand.clash>
0.0000

> <Gold.PLP.ligand.torsion>
1.8737

> <Gold.PLP.Chemscore.Hbond>
1.0000

> <Gold.PLP.Chemscore.CHOScore>
1.6563

> <Gold.PLP.Chemscore.Metal>
0.0000

> <Gold.Chemscore.Hbonds>
donor molecule, donor type, donor heavy atom, donor atom, acceptor molecule, acceptor atom, score
      L1  C    16    39       P1  8028  1.00

> <Gold.PLP.Chemscore.Internal.Correction>
0.2875

> <Gold.Rescore>
     Score         DG    S(hbond)    S(metal)    S(lipo)     H(rot)  DE(clash)    DE(int)     intcor
     12.26     -14.17       0.85        0.00      97.01       2.15       0.19       1.71       ----

> <Gold.Chemscore.Fitness>
12.2632

> <Gold.Chemscore.DG>
-14.1657

> <Gold.Chemscore.ZeroCoef>
-5.4800

> <Gold.Chemscore.Hbond>
0.8491

> <Gold.Chemscore.Metal>
0.0000

> <Gold.Chemscore.Lipo>
97.0148

> <Gold.Chemscore.Internal_Hbond>
0.0000

> <Gold.Chemscore.DEClash>
0.1921

> <Gold.Chemscore.DEInternal>
1.7103

> <Gold.Chemscore.Rot>
2.1488

> <Gold.Chemscore.Internal.Correction>
   9.000000E+99

> <Gold.Chemscore.Hbond.Weighted>
-2.8360

> <Gold.Chemscore.Metal.Weighted>
-0.0000

> <Gold.Chemscore.Lipo.Weighted>
-11.3507

> <Gold.Chemscore.Internal_Hbond.Weighted>
0.0000

> <Gold.Chemscore.DEClash.Weighted>
0.1921

> <Gold.Chemscore.DEInternal.Weighted>
1.7103

> <Gold.Chemscore.Rot.Weighted>
5.5010

> <Gold.Chemscore.Internal.Correction.Weighted>
   9.000000E+99

> <Gold.Protein.RotatedTorsions>
[ 6907 6896 6895 6894 ] final   91.31 input  -60.11 | X-H torsion
[ 7974 7965 7964 7962 ] final   30.82 input  175.53 | X-H torsion
[ 8008 7997 7996 7995 ] final  119.54 input   59.86 | X-H torsion
[ 10167 10162 10161 10158 ] final    8.07 input  -65.29 | X-H torsion
[ 10718 10713 10712 10709 ] final  113.80 input   66.30 | X-H torsion
[ 10763 10752 10751 10750 ] final  116.40 input  -60.55 | X-H torsion
[ 11005 11000 10999 10996 ] final -137.58 input  -57.11 | X-H torsion

> <Gold.Protein.ActiveResidues>
 VAL166  LYS551  ARG553  GLY616  TRP617  ASP618  TYR619  PRO620  LYS621  CYS622 
 ASP623  PHE694  ASN695  SER759  ASP760  ASP761  ALA762  ILE779  LEU786  VAL792 
 PHE793  MET794  SER795  GLU796  ALA797  LYS798  CYS799  TRP800  GLU811  SER814 

> <Gold.Protein.RotatedAtoms>
  152.5449  134.1676  159.8583 H   0  0  0  0  0  0  0  0  0  0  0  0  # atno 6907 bound_to 6896
  151.1689  133.4790  159.2601 H   0  0  0  0  0  0  0  0  0  0  0  0  # atno 6908 bound_to 6896
  151.1295  135.0134  159.8631 H   0  0  0  0  0  0  0  0  0  0  0  0  # atno 6909 bound_to 6896
  146.1588  139.6738  142.9048 H   0  0  0  0  0  0  0  0  0  0  0  0  # atno 7974 bound_to 7965
  156.2600  140.2850  156.1008 H   0  0  0  0  0  0  0  0  0  0  0  0  # atno 8008 bound_to 7997
  155.1362  140.0394  157.2805 H   0  0  0  0  0  0  0  0  0  0  0  0  # atno 8009 bound_to 7997
  154.6563  140.2556  155.7164 H   0  0  0  0  0  0  0  0  0  0  0  0  # atno 8010 bound_to 7997
  140.6335  143.7939  150.7328 H   0  0  0  0  0  0  0  0  0  0  0  0  # atno 10167 bound_to 10162
  157.6317  131.0989  150.7094 H   0  0  0  0  0  0  0  0  0  0  0  0  # atno 10718 bound_to 10713
  153.5367  135.3567  155.2700 H   0  0  0  0  0  0  0  0  0  0  0  0  # atno 10763 bound_to 10752
  154.8721  135.4081  154.3090 H   0  0  0  0  0  0  0  0  0  0  0  0  # atno 10764 bound_to 10752
  153.3789  135.7067  153.6648 H   0  0  0  0  0  0  0  0  0  0  0  0  # atno 10765 bound_to 10752
  140.8697  134.2066  157.4658 H   0  0  0  0  0  0  0  0  0  0  0  0  # atno 11005 bound_to 11000
  145.4640  141.0434  143.2735 LP  0  0  0  0  0  0  0  0  0  0  0  0  # atno 17320 bound_to 7965
  144.7999  139.6161  143.7076 LP  0  0  0  0  0  0  0  0  0  0  0  0  # atno 17321 bound_to 7965
  140.1555  143.4320  152.2102 LP  0  0  0  0  0  0  0  0  0  0  0  0  # atno 17342 bound_to 10162
  139.5547  144.7364  151.4329 LP  0  0  0  0  0  0  0  0  0  0  0  0  # atno 17343 bound_to 10162
  156.7432  130.4745  149.5473 LP  0  0  0  0  0  0  0  0  0  0  0  0  # atno 17370 bound_to 10713
  156.1526  130.6320  151.0615 LP  0  0  0  0  0  0  0  0  0  0  0  0  # atno 17371 bound_to 10713
  139.8711  134.9768  156.4936 LP  0  0  0  0  0  0  0  0  0  0  0  0  # atno 17394 bound_to 11000
  140.8587  133.8076  155.9243 LP  0  0  0  0  0  0  0  0  0  0  0  0  # atno 17395 bound_to 11000

$$$$
