AV-unprocessed.smi:798|AV-procd|sdf|3770|dock7
  -GOLD-   22720 1203D 1   1.00000     0.00000
 Structure written by MMmdl.
 34 36  0  0  0  0  0  0  0  0  1 V2000
  149.4770  140.6226  157.5053 O   0  0  0  0  0  0  0  0  0  0  0  0
  149.7240  141.7305  157.0286 C   0  0  0  0  0  0  0  0  0  0  0  0
  149.3121  142.1714  155.8272 N   0  0  0  0  0  0  0  0  0  0  0  0
  148.4901  141.5081  154.8787 C   0  0  0  0  0  0  0  0  0  0  0  0
  148.6739  140.2354  154.4941 N   0  0  0  0  0  0  0  0  0  0  0  0
  147.7264  139.8329  153.5614 N   0  0  0  0  0  0  0  0  0  0  0  0
  146.8668  140.8163  153.2803 C   0  0  0  0  0  0  0  0  0  0  0  0
  147.1292  142.3300  154.1288 S   0  0  0  0  0  0  0  0  0  0  0  0
  150.4462  142.6651  157.6633 N   0  0  0  0  0  0  0  0  0  0  0  0
  151.0570  142.5158  158.9851 C   0  0  1  0  0  0  0  0  0  0  0  0
  152.5848  142.3454  158.8437 C   0  0  2  0  0  0  0  0  0  0  0  0
  153.1595  141.8154  160.1701 C   0  0  0  0  0  0  0  0  0  0  0  0
  153.0491  143.0419  161.0958 C   0  0  0  0  0  0  0  0  0  0  0  0
  152.4215  144.1097  160.1775 C   0  0  1  0  0  0  0  0  0  0  0  0
  153.0819  143.7863  158.8437 C   0  0  0  0  0  0  0  0  0  0  0  0
  150.9350  143.7579  159.9208 C   0  0  1  0  0  0  0  0  0  0  0  0
  150.1095  144.9464  159.3773 C   0  0  0  0  0  0  0  0  0  0  0  0
  148.7416  144.6050  159.3012 O   0  0  0  0  0  0  0  0  0  0  0  0
  149.6105  143.0992  155.5652 H   0  0  0  0  0  0  0  0  0  0  0  0
  146.0715  140.6489  152.5691 H   0  0  0  0  0  0  0  0  0  0  0  0
  150.5965  143.5467  157.1950 H   0  0  0  0  0  0  0  0  0  0  0  0
  150.6336  141.6329  159.4680 H   0  0  0  0  0  0  0  0  0  0  0  0
  152.8875  141.7529  157.9792 H   0  0  0  0  0  0  0  0  0  0  0  0
  152.6086  140.9542  160.5499 H   0  0  0  0  0  0  0  0  0  0  0  0
  154.2024  141.5190  160.0510 H   0  0  0  0  0  0  0  0  0  0  0  0
  152.4432  142.8447  161.9809 H   0  0  0  0  0  0  0  0  0  0  0  0
  154.0382  143.3542  161.4334 H   0  0  0  0  0  0  0  0  0  0  0  0
  152.5862  145.1270  160.5335 H   0  0  0  0  0  0  0  0  0  0  0  0
  154.1701  143.8682  158.8684 H   0  0  0  0  0  0  0  0  0  0  0  0
  152.7004  144.3795  158.0114 H   0  0  0  0  0  0  0  0  0  0  0  0
  150.4696  143.4453  160.8574 H   0  0  0  0  0  0  0  0  0  0  0  0
  150.2224  145.8331  160.0015 H   0  0  0  0  0  0  0  0  0  0  0  0
  150.4365  145.2104  158.3716 H   0  0  0  0  0  0  0  0  0  0  0  0
  148.3730  145.0120  158.5321 H   0  0  0  0  0  0  0  0  0  0  0  0
  1  2  2  0  0  0  0
  2  3  1  0  0  0  0
  2  9  1  0  0  0  0
  3  4  1  0  0  0  0
  3 19  1  0  0  0  0
  4  8  1  0  0  0  0
  4  5  2  0  0  0  0
  5  6  1  0  0  0  0
  6  7  2  0  0  0  0
  7  8  1  0  0  0  0
  7 20  1  0  0  0  0
  9 10  1  0  0  0  0
  9 21  1  0  0  0  0
 10 16  1  0  0  0  0
 10 11  1  0  0  0  0
 10 22  1  0  0  0  0
 11 15  1  0  0  0  0
 11 12  1  0  0  0  0
 11 23  1  0  0  0  0
 12 13  1  0  0  0  0
 12 24  1  0  0  0  0
 12 25  1  0  0  0  0
 13 14  1  0  0  0  0
 13 26  1  0  0  0  0
 13 27  1  0  0  0  0
 14 15  1  0  0  0  0
 14 16  1  0  0  0  0
 14 28  1  0  0  0  0
 15 29  1  0  0  0  0
 15 30  1  0  0  0  0
 16 17  1  0  0  0  0
 16 31  1  0  0  0  0
 17 18  1  0  0  0  0
 17 32  1  0  0  0  0
 17 33  1  0  0  0  0
 18 34  1  0  0  0  0
M  END
> <s_m_source_file>
AV-unprocessed.smi

> <i_m_source_file_index>
798

> <i_lp_mmshare_version>
43012

> <i_f3d_flags>
0

> <s_epik_input>
W0NIMl0xW0NIMl1bQ0BASF0oW0NIMl0yKVtDQEBIXShbQ0gyXVtPSF0pW0NAQEhdKFtDQEhdMTIpW05IXUMoPU8pW05IXWMzbm5bY0hdczM=

> <s_epik_cmdline>
J2VwaWtfcHl0aG9uJywgJy1waCcsICc3LjAnLCAnLXRuJywgJzgnLCAnLW1hJywgJzIwMCcsICctbWV0YWxfYmluZGluZycsICctaW1hZScsICc8aW5maWxlLm1hZT4nLCAnLW9tYWUnLCAnPG91dGZpbGUubWFlPic=

> <r_lp_tautomer_probability>
1

> <r_epik_Ionization_Penalty>
0.000329046

> <r_epik_Ionization_Penalty_Charging>
0

> <r_epik_Ionization_Penalty_Neutral>
0.000329046

> <r_epik_State_Penalty>
-0

> <r_epik_Charging_Adjusted_Penalty>
0

> <i_epik_Tot_Q>
0

> <i_epik_Tot_abs_Q>
0

> <r_epik_Metal_State_Penalty>
0.173433

> <b_epik_Metal_Only>
0

> <s_lp_Force_Field>
OPLS_2005

> <r_lp_Energy>
49.2939

> <b_lp_Chiralities_Consistent>
1

> <s_lp_Variant>
AV-unprocessed.smi:798-2

> <Gold.Version>
5.8.1

> <Gold.Id.Protein>
6NUR|6NUR_protein|mol2

> <Gold.PLP.Fitness>
42.3557

> <Gold.PLP.PLP>
-35.6237

> <Gold.PLP.part.hbond>
-2.1702

> <Gold.PLP.part.metal>
0.0000

> <Gold.PLP.part.buried>
-6.6947

> <Gold.PLP.part.nonpolar>
-28.7966

> <Gold.PLP.part.repulsive>
1.8506

> <Gold.PLP.ligand.clash>
0.0000

> <Gold.PLP.ligand.torsion>
0.6422

> <Gold.PLP.Chemscore.Hbond>
1.6720

> <Gold.PLP.Chemscore.CHOScore>
0.9956

> <Gold.PLP.Chemscore.Metal>
0.0000

> <Gold.Chemscore.Hbonds>
donor molecule, donor type, donor heavy atom, donor atom, acceptor molecule, acceptor atom, score
      L1  H     3    19       P1  8028  0.70
      L1  H    18    34       P1  8029  1.00
      L1  C     7    20       P1 10175  1.00

> <Gold.PLP.Chemscore.Internal.Correction>
0.0136

> <Gold.Rescore>
     Score         DG    S(hbond)    S(metal)    S(lipo)     H(rot)  DE(clash)    DE(int)     intcor
     17.48     -18.07       1.80        0.00      98.68       1.94       0.04       0.55       ----

> <Gold.Chemscore.Fitness>
17.4824

> <Gold.Chemscore.DG>
-18.0715

> <Gold.Chemscore.ZeroCoef>
-5.4800

> <Gold.Chemscore.Hbond>
1.8034

> <Gold.Chemscore.Metal>
0.0000

> <Gold.Chemscore.Lipo>
98.6779

> <Gold.Chemscore.Internal_Hbond>
0.0000

> <Gold.Chemscore.DEClash>
0.0374

> <Gold.Chemscore.DEInternal>
0.5518

> <Gold.Chemscore.Rot>
1.9442

> <Gold.Chemscore.Internal.Correction>
   9.000000E+99

> <Gold.Chemscore.Hbonds>
donor molecule, donor type, donor heavy atom, donor atom, acceptor molecule, acceptor atom, score
      L1  H     3    19       P1  8028  0.70
      L1  H    18    34       P1  8029  0.99

> <Gold.Chemscore.Hbond.Weighted>
-6.0233

> <Gold.Chemscore.Metal.Weighted>
-0.0000

> <Gold.Chemscore.Lipo.Weighted>
-11.5453

> <Gold.Chemscore.Internal_Hbond.Weighted>
0.0000

> <Gold.Chemscore.DEClash.Weighted>
0.0374

> <Gold.Chemscore.DEInternal.Weighted>
0.5518

> <Gold.Chemscore.Rot.Weighted>
4.9771

> <Gold.Chemscore.Internal.Correction.Weighted>
   9.000000E+99

> <Gold.Protein.RotatedTorsions>
[ 6907 6896 6895 6894 ] final -126.64 input  -60.11 | X-H torsion
[ 7974 7965 7964 7962 ] final   85.51 input  175.53 | X-H torsion
[ 8008 7997 7996 7995 ] final  156.39 input   59.86 | X-H torsion
[ 10167 10162 10161 10158 ] final   75.93 input  -65.29 | X-H torsion
[ 10718 10713 10712 10709 ] final  159.14 input   66.30 | X-H torsion
[ 10763 10752 10751 10750 ] final  -55.08 input  -60.55 | X-H torsion
[ 11005 11000 10999 10996 ] final  116.57 input  -57.11 | X-H torsion

> <Gold.Protein.ActiveResidues>
 VAL166  LYS551  ARG553  GLY616  TRP617  ASP618  TYR619  PRO620  LYS621  CYS622 
 ASP623  PHE694  ASN695  SER759  ASP760  ASP761  ALA762  ILE779  LEU786  VAL792 
 PHE793  MET794  SER795  GLU796  ALA797  LYS798  CYS799  TRP800  GLU811  SER814 

> <Gold.Protein.RotatedAtoms>
  150.8990  133.7143  159.2883 H   0  0  0  0  0  0  0  0  0  0  0  0  # atno 6907 bound_to 6896
  151.4668  135.1041  159.9750 H   0  0  0  0  0  0  0  0  0  0  0  0  # atno 6908 bound_to 6896
  152.4865  133.8340  159.7173 H   0  0  0  0  0  0  0  0  0  0  0  0  # atno 6909 bound_to 6896
  145.5846  139.2329  143.2334 H   0  0  0  0  0  0  0  0  0  0  0  0  # atno 7974 bound_to 7965
  156.2425  140.1914  156.6947 H   0  0  0  0  0  0  0  0  0  0  0  0  # atno 8008 bound_to 7997
  154.6225  140.0606  156.9660 H   0  0  0  0  0  0  0  0  0  0  0  0  # atno 8009 bound_to 7997
  155.1838  140.3278  155.4373 H   0  0  0  0  0  0  0  0  0  0  0  0  # atno 8010 bound_to 7997
  139.9977  144.5709  150.7763 H   0  0  0  0  0  0  0  0  0  0  0  0  # atno 10167 bound_to 10162
  157.1683  131.0604  151.2196 H   0  0  0  0  0  0  0  0  0  0  0  0  # atno 10718 bound_to 10713
  154.1851  135.6437  153.5044 H   0  0  0  0  0  0  0  0  0  0  0  0  # atno 10763 bound_to 10752
  153.0049  135.5415  154.6474 H   0  0  0  0  0  0  0  0  0  0  0  0  # atno 10764 bound_to 10752
  154.5848  135.2928  155.0669 H   0  0  0  0  0  0  0  0  0  0  0  0  # atno 10765 bound_to 10752
  139.9045  134.9599  156.7218 H   0  0  0  0  0  0  0  0  0  0  0  0  # atno 11005 bound_to 11000
  146.1691  140.6672  142.9241 LP  0  0  0  0  0  0  0  0  0  0  0  0  # atno 17320 bound_to 7965
  144.7378  140.4859  143.6891 LP  0  0  0  0  0  0  0  0  0  0  0  0  # atno 17321 bound_to 7965
  140.7431  143.2841  151.3514 LP  0  0  0  0  0  0  0  0  0  0  0  0  # atno 17342 bound_to 10162
  139.6294  144.0751  152.2463 LP  0  0  0  0  0  0  0  0  0  0  0  0  # atno 17343 bound_to 10162
  157.4068  130.7363  149.6808 LP  0  0  0  0  0  0  0  0  0  0  0  0  # atno 17370 bound_to 10713
  155.9742  130.4106  150.3938 LP  0  0  0  0  0  0  0  0  0  0  0  0  # atno 17371 bound_to 10713
  140.6994  133.9319  155.8015 LP  0  0  0  0  0  0  0  0  0  0  0  0  # atno 17394 bound_to 11000
  141.0383  134.0658  157.3933 LP  0  0  0  0  0  0  0  0  0  0  0  0  # atno 17395 bound_to 11000

$$$$
