AV-unprocessed.smi:227|AV-procd|sdf|1727|dock5
  -GOLD-   2262020213D 1   1.00000     0.00000
 Structure written by MMmdl.
 54 58  0  0  0  0  0  0  0  0  1 V2000
  146.2185  141.7332  153.9964 O   0  0  0  0  0  0  0  0  0  0  0  0
  147.3000  141.0903  154.6382 C   0  0  0  0  0  0  0  0  0  0  0  0
  147.3793  139.5926  154.2461 C   0  0  2  0  0  0  0  0  0  0  0  0
  146.0410  138.8648  154.5684 C   0  0  0  0  0  0  0  0  0  0  0  0
  145.6977  137.8004  153.6357 N   0  0  0  0  0  0  0  0  0  0  0  0
  146.3034  137.5299  152.4303 C   0  0  0  0  0  0  0  0  0  0  0  0
  145.8114  136.5144  151.7770 N   0  0  0  0  0  0  0  0  0  0  0  0
  144.7774  136.0492  152.5815 C   0  0  0  0  0  0  0  0  0  0  0  0
  143.8331  134.9832  152.4867 C   0  0  0  0  0  0  0  0  0  0  0  0
  143.7602  134.0961  151.4549 N   0  0  0  0  0  0  0  0  0  0  0  0
  144.6187  134.2141  150.2851 C   0  0  2  0  0  0  0  0  0  0  0  0
  144.0417  133.1418  149.3454 C   0  0  0  0  0  0  0  0  0  0  0  0
  143.6176  132.0589  150.3472 C   0  0  0  0  0  0  0  0  0  0  0  0
  144.0652  132.6883  151.6796 C   0  0  1  0  0  0  0  0  0  0  0  0
  145.6096  132.6802  151.8223 C   0  0  1  0  0  0  0  0  0  0  0  0
  146.3041  131.3155  151.6591 C   0  0  0  0  0  0  0  0  0  0  0  0
  147.6806  131.4395  151.9458 O   0  0  0  0  0  0  0  0  0  0  0  0
  146.0024  133.7478  150.7829 C   0  0  0  0  0  0  0  0  0  0  0  0
  142.9277  134.8675  153.4945 N   0  0  0  0  0  0  0  0  0  0  0  0
  142.9487  135.7098  154.5301 C   0  0  0  0  0  0  0  0  0  0  0  0
  143.7751  136.7309  154.7554 N   0  0  0  0  0  0  0  0  0  0  0  0
  144.6827  136.8646  153.7471 C   0  0  0  0  0  0  0  0  0  0  0  0
  148.6242  138.9011  154.8863 C   0  0  2  0  0  0  0  0  0  0  0  0
  149.2128  139.6275  156.0936 C   0  0  0  0  0  0  0  0  0  0  0  0
  150.1508  140.6649  155.4771 C   0  0  0  0  0  0  0  0  0  0  0  0
  150.4722  140.1770  154.1798 O   0  0  0  0  0  0  0  0  0  0  0  0
  149.8772  138.9002  153.9980 C   0  0  0  0  0  0  0  0  0  0  0  0
  145.4758  141.7239  154.5813 H   0  0  0  0  0  0  0  0  0  0  0  0
  148.1923  141.6351  154.3395 H   0  0  0  0  0  0  0  0  0  0  0  0
  147.2086  141.2134  155.7174 H   0  0  0  0  0  0  0  0  0  0  0  0
  147.5037  139.5515  153.1629 H   0  0  0  0  0  0  0  0  0  0  0  0
  146.0736  138.4385  155.5712 H   0  0  0  0  0  0  0  0  0  0  0  0
  145.2103  139.5678  154.6032 H   0  0  0  0  0  0  0  0  0  0  0  0
  147.1313  138.1075  152.0466 H   0  0  0  0  0  0  0  0  0  0  0  0
  144.6372  135.1904  149.8050 H   0  0  0  0  0  0  0  0  0  0  0  0
  143.1746  133.5222  148.8039 H   0  0  0  0  0  0  0  0  0  0  0  0
  144.7688  132.7851  148.6151 H   0  0  0  0  0  0  0  0  0  0  0  0
  142.5337  131.9361  150.3309 H   0  0  0  0  0  0  0  0  0  0  0  0
  144.0590  131.0841  150.1445 H   0  0  0  0  0  0  0  0  0  0  0  0
  143.5547  132.2424  152.5340 H   0  0  0  0  0  0  0  0  0  0  0  0
  145.8514  133.0581  152.8174 H   0  0  0  0  0  0  0  0  0  0  0  0
  145.8719  130.5853  152.3437 H   0  0  0  0  0  0  0  0  0  0  0  0
  146.1941  130.9240  150.6482 H   0  0  0  0  0  0  0  0  0  0  0  0
  148.1713  131.1391  151.1962 H   0  0  0  0  0  0  0  0  0  0  0  0
  146.6241  133.3604  149.9748 H   0  0  0  0  0  0  0  0  0  0  0  0
  146.5452  134.5647  151.2601 H   0  0  0  0  0  0  0  0  0  0  0  0
  142.1967  135.5399  155.2864 H   0  0  0  0  0  0  0  0  0  0  0  0
  148.3565  137.8811  155.1640 H   0  0  0  0  0  0  0  0  0  0  0  0
  148.4939  140.0715  156.7784 H   0  0  0  0  0  0  0  0  0  0  0  0
  149.8026  138.9198  156.6782 H   0  0  0  0  0  0  0  0  0  0  0  0
  149.6546  141.6306  155.3760 H   0  0  0  0  0  0  0  0  0  0  0  0
  151.0493  140.8065  156.0785 H   0  0  0  0  0  0  0  0  0  0  0  0
  150.5798  138.1441  154.3518 H   0  0  0  0  0  0  0  0  0  0  0  0
  149.7000  138.6957  152.9445 H   0  0  0  0  0  0  0  0  0  0  0  0
  1  2  1  0  0  0  0
  1 28  1  0  0  0  0
  2  3  1  0  0  0  0
  2 29  1  0  0  0  0
  2 30  1  0  0  0  0
  3  4  1  0  0  0  0
  3 23  1  0  0  0  0
  3 31  1  0  0  0  0
  4  5  1  0  0  0  0
  4 32  1  0  0  0  0
  4 33  1  0  0  0  0
  5 22  1  0  0  0  0
  5  6  1  0  0  0  0
  6  7  2  0  0  0  0
  6 34  1  0  0  0  0
  7  8  1  0  0  0  0
  8 22  2  0  0  0  0
  8  9  1  0  0  0  0
  9 10  1  0  0  0  0
  9 19  2  0  0  0  0
 10 14  1  0  0  0  0
 10 11  1  0  0  0  0
 11 18  1  0  0  0  0
 11 12  1  0  0  0  0
 11 35  1  0  0  0  0
 12 13  1  0  0  0  0
 12 36  1  0  0  0  0
 12 37  1  0  0  0  0
 13 14  1  0  0  0  0
 13 38  1  0  0  0  0
 13 39  1  0  0  0  0
 14 15  1  0  0  0  0
 14 40  1  0  0  0  0
 15 16  1  0  0  0  0
 15 18  1  0  0  0  0
 15 41  1  0  0  0  0
 16 17  1  0  0  0  0
 16 42  1  0  0  0  0
 16 43  1  0  0  0  0
 17 44  1  0  0  0  0
 18 45  1  0  0  0  0
 18 46  1  0  0  0  0
 19 20  1  0  0  0  0
 20 21  2  0  0  0  0
 20 47  1  0  0  0  0
 21 22  1  0  0  0  0
 23 27  1  0  0  0  0
 23 24  1  0  0  0  0
 23 48  1  0  0  0  0
 24 25  1  0  0  0  0
 24 49  1  0  0  0  0
 24 50  1  0  0  0  0
 25 26  1  0  0  0  0
 25 51  1  0  0  0  0
 25 52  1  0  0  0  0
 26 27  1  0  0  0  0
 27 53  1  0  0  0  0
 27 54  1  0  0  0  0
M  END
> <s_m_source_file>
AV-unprocessed.smi

> <i_m_source_file_index>
227

> <i_lp_mmshare_version>
43012

> <i_f3d_flags>
0

> <s_epik_input>
W0NIMl0xT1tDSDJdW0NIMl1bQ0BIXTFbQ0BIXShbQ0gyXVtPSF0pW0NIMl1uKFtjSF1uMiljKGMyMyluW2NIXW5jM04oW0NASF00NSlbQ0BASF0oW0NIMl1bQ0gyXTQpW0NASF0oW0NIMl01KVtDSDJdW09IXQ==

> <s_epik_cmdline>
J2VwaWtfcHl0aG9uJywgJy1waCcsICc3LjAnLCAnLXRuJywgJzgnLCAnLW1hJywgJzIwMCcsICctbWV0YWxfYmluZGluZycsICctaW1hZScsICc8aW5maWxlLm1hZT4nLCAnLW9tYWUnLCAnPG91dGZpbGUubWFlPic=

> <r_lp_tautomer_probability>
1

> <r_epik_Ionization_Penalty>
0.0055791

> <r_epik_Ionization_Penalty_Charging>
0

> <r_epik_Ionization_Penalty_Neutral>
0.0055791

> <r_epik_State_Penalty>
0.00401299

> <r_epik_Charging_Adjusted_Penalty>
0.00401299

> <i_epik_Tot_Q>
0

> <i_epik_Tot_abs_Q>
0

> <r_epik_Metal_State_Penalty>
-0

> <b_epik_Metal_Only>
0

> <s_lp_Force_Field>
OPLS_2005

> <r_lp_Energy>
89.6374

> <b_lp_Chiralities_Consistent>
1

> <s_lp_Variant>
AV-unprocessed.smi:227-1

> <Gold.Version>
5.8.1

> <Gold.Id.Protein>
6NUR|6NUR_protein|mol2

> <Gold.PLP.Fitness>
41.8361

> <Gold.PLP.PLP>
-36.7088

> <Gold.PLP.part.hbond>
-2.8098

> <Gold.PLP.part.metal>
0.0000

> <Gold.PLP.part.buried>
-5.2327

> <Gold.PLP.part.nonpolar>
-30.5494

> <Gold.PLP.part.repulsive>
0.7334

> <Gold.PLP.ligand.clash>
0.0000

> <Gold.PLP.ligand.torsion>
1.6617

> <Gold.PLP.Chemscore.Hbond>
2.0000

> <Gold.PLP.Chemscore.CHOScore>
0.7520

> <Gold.PLP.Chemscore.Metal>
0.0000

> <Gold.Chemscore.Hbonds>
donor molecule, donor type, donor heavy atom, donor atom, acceptor molecule, acceptor atom, score
      L1  H    17    44       P1 10747  0.31
      P1  H  7989  7998       L1    26  0.94
      L1  C     6    34       P1  7948  0.35
      L1  C    20    47       P1 11000  0.30

> <Gold.PLP.Chemscore.Internal.Correction>
0.1948

> <Gold.Rescore>
     Score         DG    S(hbond)    S(metal)    S(lipo)     H(rot)  DE(clash)    DE(int)     intcor
      7.97     -13.20       1.98        0.00      88.39       3.61       0.37       4.86       ----

> <Gold.Chemscore.Fitness>
7.9676

> <Gold.Chemscore.DG>
-13.1967

> <Gold.Chemscore.ZeroCoef>
-5.4800

> <Gold.Chemscore.Hbond>
1.9789

> <Gold.Chemscore.Metal>
0.0000

> <Gold.Chemscore.Lipo>
88.3879

> <Gold.Chemscore.Internal_Hbond>
0.0000

> <Gold.Chemscore.DEClash>
0.3657

> <Gold.Chemscore.DEInternal>
4.8634

> <Gold.Chemscore.Rot>
3.6071

> <Gold.Chemscore.Internal.Correction>
   9.000000E+99

> <Gold.Chemscore.Hbonds>
donor molecule, donor type, donor heavy atom, donor atom, acceptor molecule, acceptor atom, score
      L1  H    17    44       P1 10747  0.31
      P1  H  7989  7998       L1    26  0.82

> <Gold.Chemscore.Hbond.Weighted>
-6.6095

> <Gold.Chemscore.Metal.Weighted>
-0.0000

> <Gold.Chemscore.Lipo.Weighted>
-10.3414

> <Gold.Chemscore.Internal_Hbond.Weighted>
0.0000

> <Gold.Chemscore.DEClash.Weighted>
0.3657

> <Gold.Chemscore.DEInternal.Weighted>
4.8634

> <Gold.Chemscore.Rot.Weighted>
9.2342

> <Gold.Chemscore.Internal.Correction.Weighted>
   9.000000E+99

> <Gold.Protein.RotatedTorsions>
[ 6907 6896 6895 6894 ] final  -11.25 input  -60.11 | X-H torsion
[ 7974 7965 7964 7962 ] final    1.10 input  175.53 | X-H torsion
[ 8008 7997 7996 7995 ] final   75.04 input   59.86 | X-H torsion
[ 10167 10162 10161 10158 ] final  -33.92 input  -65.29 | X-H torsion
[ 10718 10713 10712 10709 ] final  118.20 input   66.30 | X-H torsion
[ 10763 10752 10751 10750 ] final  161.82 input  -60.55 | X-H torsion
[ 11005 11000 10999 10996 ] final -154.52 input  -57.11 | X-H torsion

> <Gold.Protein.ActiveResidues>
 VAL166  LYS551  ARG553  GLY616  TRP617  ASP618  TYR619  PRO620  LYS621  CYS622 
 ASP623  PHE694  ASN695  SER759  ASP760  ASP761  ALA762  ILE779  LEU786  VAL792 
 PHE793  MET794  SER795  GLU796  ALA797  LYS798  CYS799  TRP800  GLU811  SER814 

> <Gold.Protein.RotatedAtoms>
  151.3892  135.0953  159.9520 H   0  0  0  0  0  0  0  0  0  0  0  0  # atno 6907 bound_to 6896
  152.5085  133.8996  159.7445 H   0  0  0  0  0  0  0  0  0  0  0  0  # atno 6908 bound_to 6896
  150.9446  133.6562  159.2812 H   0  0  0  0  0  0  0  0  0  0  0  0  # atno 6909 bound_to 6896
  146.2438  140.1037  142.8346 H   0  0  0  0  0  0  0  0  0  0  0  0  # atno 7974 bound_to 7965
  155.8071  140.3474  155.5436 H   0  0  0  0  0  0  0  0  0  0  0  0  # atno 8008 bound_to 7997
  155.8479  140.0951  157.1714 H   0  0  0  0  0  0  0  0  0  0  0  0  # atno 8009 bound_to 7997
  154.4007  140.1382  156.3795 H   0  0  0  0  0  0  0  0  0  0  0  0  # atno 8010 bound_to 7997
  140.7195  143.3585  151.2011 H   0  0  0  0  0  0  0  0  0  0  0  0  # atno 10167 bound_to 10162
  157.6046  131.1045  150.7722 H   0  0  0  0  0  0  0  0  0  0  0  0  # atno 10718 bound_to 10713
  154.2689  135.2766  155.2746 H   0  0  0  0  0  0  0  0  0  0  0  0  # atno 10763 bound_to 10752
  154.5319  135.5727  153.6769 H   0  0  0  0  0  0  0  0  0  0  0  0  # atno 10764 bound_to 10752
  152.9948  135.6230  154.2843 H   0  0  0  0  0  0  0  0  0  0  0  0  # atno 10765 bound_to 10752
  140.6965  134.3984  157.5214 H   0  0  0  0  0  0  0  0  0  0  0  0  # atno 11005 bound_to 11000
  145.0546  140.9043  143.4975 LP  0  0  0  0  0  0  0  0  0  0  0  0  # atno 17320 bound_to 7965
  145.1142  139.2737  143.5622 LP  0  0  0  0  0  0  0  0  0  0  0  0  # atno 17321 bound_to 7965
  139.7131  143.9343  152.2956 LP  0  0  0  0  0  0  0  0  0  0  0  0  # atno 17342 bound_to 10162
  139.9075  144.6876  150.8598 LP  0  0  0  0  0  0  0  0  0  0  0  0  # atno 17343 bound_to 10162
  156.8113  130.4953  149.5355 LP  0  0  0  0  0  0  0  0  0  0  0  0  # atno 17370 bound_to 10713
  156.1129  130.6053  151.0075 LP  0  0  0  0  0  0  0  0  0  0  0  0  # atno 17371 bound_to 10713
  139.8909  134.8794  156.2348 LP  0  0  0  0  0  0  0  0  0  0  0  0  # atno 17394 bound_to 11000
  141.0199  133.7047  156.1250 LP  0  0  0  0  0  0  0  0  0  0  0  0  # atno 17395 bound_to 11000

$$$$
