AV-unprocessed.smi:1591|AV-procd|sdf|6400|dock3
  -GOLD-   22720 7 33D 1   1.00000     0.00000
 Structure written by MMmdl.
 51 54  0  0  0  0  0  0  0  0  2 V2000
  146.3350  132.9792  156.0887 C   0  0  0  0  0  0  0  0  0  0  0  0
  147.5501  133.6220  155.4011 C   0  0  0  0  0  0  0  0  0  0  0  0
  147.2984  135.0634  154.8879 C   0  0  1  0  0  0  0  0  0  0  0  0
  148.5817  135.6675  154.5196 N   0  0  0  0  0  0  0  0  0  0  0  0
  149.6053  135.9311  155.3471 C   0  0  0  0  0  0  0  0  0  0  0  0
  149.5705  135.7356  156.5616 O   0  0  0  0  0  0  0  0  0  0  0  0
  150.8634  136.5089  154.6931 C   0  0  0  0  0  0  0  0  0  0  0  0
  151.0692  137.9107  155.0868 N   0  0  0  0  0  0  0  0  0  0  0  0
  150.0569  138.8277  154.7522 C   0  0  0  0  0  0  0  0  0  0  0  0
  150.1571  140.1376  155.0466 C   0  0  0  0  0  0  0  0  0  0  0  0
  151.3575  140.6003  155.7310 C   0  0  0  0  0  0  0  0  0  0  0  0
  151.4665  141.7932  156.0078 O   0  0  0  0  0  0  0  0  0  0  0  0
  152.3127  139.6732  156.0338 N   0  5  0  0  0  0  0  0  0  0  0  0
  152.1972  138.3433  155.7275 C   0  0  0  0  0  0  0  0  0  0  0  0
  153.0728  137.5254  156.0097 O   0  0  0  0  0  0  0  0  0  0  0  0
  146.2741  135.1879  153.7107 C   0  0  0  0  0  0  0  0  0  0  0  0
  146.6998  134.2447  152.5447 C   0  0  0  0  0  0  0  0  0  0  0  0
  145.7216  134.3513  151.3569 C   0  0  1  0  0  0  0  0  0  0  0  0
  144.3060  133.9534  151.8215 C   0  0  0  0  0  0  0  0  0  0  0  0
  143.8564  134.9057  152.9483 C   0  0  2  0  0  0  0  0  0  0  0  0
  143.8394  136.3556  152.4218 C   0  0  0  0  0  0  0  0  0  0  0  0
  145.2581  136.7428  151.9558 C   0  0  2  0  0  0  0  0  0  0  0  0
  145.7104  135.7978  150.8259 C   0  0  0  0  0  0  0  0  0  0  0  0
  146.2360  136.6381  153.1457 C   0  0  0  0  0  0  0  0  0  0  0  0
  144.8304  134.7966  154.1420 C   0  0  0  0  0  0  0  0  0  0  0  0
  146.5428  131.9408  156.3473 H   0  0  0  0  0  0  0  0  0  0  0  0
  145.4620  132.9903  155.4354 H   0  0  0  0  0  0  0  0  0  0  0  0
  146.0704  133.4963  157.0114 H   0  0  0  0  0  0  0  0  0  0  0  0
  148.3898  133.6069  156.0956 H   0  0  0  0  0  0  0  0  0  0  0  0
  147.8266  132.9729  154.5722 H   0  0  0  0  0  0  0  0  0  0  0  0
  146.8740  135.6157  155.7282 H   0  0  0  0  0  0  0  0  0  0  0  0
  148.7142  135.8725  153.5401 H   0  0  0  0  0  0  0  0  0  0  0  0
  151.7314  135.9054  154.9647 H   0  0  0  0  0  0  0  0  0  0  0  0
  150.7807  136.4132  153.6093 H   0  0  0  0  0  0  0  0  0  0  0  0
  149.2051  138.4046  154.2401 H   0  0  0  0  0  0  0  0  0  0  0  0
  149.3710  140.8285  154.7799 H   0  0  0  0  0  0  0  0  0  0  0  0
  147.7102  134.4890  152.2134 H   0  0  0  0  0  0  0  0  0  0  0  0
  146.7349  133.2059  152.8744 H   0  0  0  0  0  0  0  0  0  0  0  0
  146.0436  133.6780  150.5619 H   0  0  0  0  0  0  0  0  0  0  0  0
  143.6068  133.9989  150.9857 H   0  0  0  0  0  0  0  0  0  0  0  0
  144.2994  132.9210  152.1736 H   0  0  0  0  0  0  0  0  0  0  0  0
  142.8537  134.6290  153.2756 H   0  0  0  0  0  0  0  0  0  0  0  0
  143.1318  136.4498  151.5972 H   0  0  0  0  0  0  0  0  0  0  0  0
  143.4971  137.0374  153.2013 H   0  0  0  0  0  0  0  0  0  0  0  0
  145.2487  137.7683  151.5853 H   0  0  0  0  0  0  0  0  0  0  0  0
  146.7025  136.0794  150.4713 H   0  0  0  0  0  0  0  0  0  0  0  0
  145.0402  135.8823  149.9694 H   0  0  0  0  0  0  0  0  0  0  0  0
  145.9151  137.3470  153.9081 H   0  0  0  0  0  0  0  0  0  0  0  0
  147.2343  136.9501  152.8357 H   0  0  0  0  0  0  0  0  0  0  0  0
  144.8050  133.7799  154.5354 H   0  0  0  0  0  0  0  0  0  0  0  0
  144.4812  135.4432  154.9472 H   0  0  0  0  0  0  0  0  0  0  0  0
  1  2  1  0  0  0  0
  1 26  1  0  0  0  0
  1 27  1  0  0  0  0
  1 28  1  0  0  0  0
  2  3  1  0  0  0  0
  2 29  1  0  0  0  0
  2 30  1  0  0  0  0
  3  4  1  0  0  0  0
  3 16  1  0  0  0  0
  3 31  1  0  0  0  0
  4  5  1  0  0  0  0
  4 32  1  0  0  0  0
  5  6  2  0  0  0  0
  5  7  1  0  0  0  0
  7  8  1  0  0  0  0
  7 33  1  0  0  0  0
  7 34  1  0  0  0  0
  8 14  1  0  0  0  0
  8  9  1  0  0  0  0
  9 10  2  0  0  0  0
  9 35  1  0  0  0  0
 10 11  1  0  0  0  0
 10 36  1  0  0  0  0
 11 12  2  0  0  0  0
 11 13  1  0  0  0  0
 13 14  1  0  0  0  0
 14 15  2  0  0  0  0
 16 24  1  0  0  0  0
 16 25  1  0  0  0  0
 16 17  1  0  0  0  0
 17 18  1  0  0  0  0
 17 37  1  0  0  0  0
 17 38  1  0  0  0  0
 18 23  1  0  0  0  0
 18 19  1  0  0  0  0
 18 39  1  0  0  0  0
 19 20  1  0  0  0  0
 19 40  1  0  0  0  0
 19 41  1  0  0  0  0
 20 21  1  0  0  0  0
 20 25  1  0  0  0  0
 20 42  1  0  0  0  0
 21 22  1  0  0  0  0
 21 43  1  0  0  0  0
 21 44  1  0  0  0  0
 22 23  1  0  0  0  0
 22 24  1  0  0  0  0
 22 45  1  0  0  0  0
 23 46  1  0  0  0  0
 23 47  1  0  0  0  0
 24 48  1  0  0  0  0
 24 49  1  0  0  0  0
 25 50  1  0  0  0  0
 25 51  1  0  0  0  0
M  CHG  1  13  -1
M  END
> <s_m_source_file>
AV-unprocessed.smi

> <i_m_source_file_index>
1591

> <i_lp_mmshare_version>
43012

> <i_f3d_flags>
0

> <s_epik_input>
W0NIMl0xW0NASF0oW0NIMl0yKVtDSDJdW0NASF0oW0NIMl0zKVtDSDJdW0NAQEhdMVtDSDJdQzIzW0NASF0oW0NIMl1bQ0gzXSlbTkhdQyg9TylbQ0gyXW40W2NIXVtjSF1jKD1PKVtuSF1jND1P

> <s_epik_cmdline>
J2VwaWtfcHl0aG9uJywgJy1waCcsICc3LjAnLCAnLXRuJywgJzgnLCAnLW1hJywgJzIwMCcsICctbWV0YWxfYmluZGluZycsICctaW1hZScsICc8aW5maWxlLm1hZT4nLCAnLW9tYWUnLCAnPG91dGZpbGUubWFlPic=

> <r_lp_tautomer_probability>
0.999537

> <r_epik_Ionization_Penalty>
3.13902

> <r_epik_Ionization_Penalty_Charging>
2.97334e-08

> <r_epik_Ionization_Penalty_Neutral>
3.13902

> <r_epik_State_Penalty>
3.13814

> <r_epik_Charging_Adjusted_Penalty>
3.13814

> <i_epik_Tot_Q>
-1

> <i_epik_Tot_abs_Q>
1

> <r_epik_Metal_State_Penalty>
0.465244

> <b_epik_Metal_Only>
1

> <s_lp_Force_Field>
OPLS_2005

> <r_lp_Energy>
49.2124

> <b_lp_Chiralities_Consistent>
1

> <s_lp_Variant>
AV-unprocessed.smi:1591-4

> <Gold.Version>
5.8.1

> <Gold.Id.Protein>
6NUR|6NUR_protein|mol2

> <Gold.PLP.Fitness>
40.0353

> <Gold.PLP.PLP>
-30.0449

> <Gold.PLP.part.hbond>
-2.9681

> <Gold.PLP.part.metal>
0.0000

> <Gold.PLP.part.buried>
1.8036

> <Gold.PLP.part.nonpolar>
-28.0018

> <Gold.PLP.part.repulsive>
0.0543

> <Gold.PLP.ligand.clash>
0.0000

> <Gold.PLP.ligand.torsion>
0.3125

> <Gold.PLP.Chemscore.Hbond>
3.4960

> <Gold.PLP.Chemscore.CHOScore>
0.0000

> <Gold.PLP.Chemscore.Metal>
0.0000

> <Gold.Chemscore.Hbonds>
donor molecule, donor type, donor heavy atom, donor atom, acceptor molecule, acceptor atom, score
      L1  H     4    32       P1  7948  1.00
      P1  H  7997  8009       L1    13  1.72
      P1  H 10752 10765       L1    15  0.27

> <Gold.PLP.Chemscore.Internal.Correction>
0.1274

> <Gold.Rescore>
     Score         DG    S(hbond)    S(metal)    S(lipo)     H(rot)  DE(clash)    DE(int)     intcor
     13.16     -15.03       2.27        0.00      60.16       1.99       1.12       0.75       ----

> <Gold.Chemscore.Fitness>
13.1565

> <Gold.Chemscore.DG>
-15.0268

> <Gold.Chemscore.ZeroCoef>
-5.4800

> <Gold.Chemscore.Hbond>
2.2728

> <Gold.Chemscore.Metal>
0.0000

> <Gold.Chemscore.Lipo>
60.1649

> <Gold.Chemscore.Internal_Hbond>
0.0000

> <Gold.Chemscore.DEClash>
1.1188

> <Gold.Chemscore.DEInternal>
0.7515

> <Gold.Chemscore.Rot>
1.9858

> <Gold.Chemscore.Internal.Correction>
   9.000000E+99

> <Gold.Chemscore.Hbonds>
donor molecule, donor type, donor heavy atom, donor atom, acceptor molecule, acceptor atom, score
      L1  H     4    32       P1  7948  1.00
      P1  H  7997  8009       L1    13  0.58
      P1  H 10752 10765       L1    15  0.26

> <Gold.Chemscore.Hbond.Weighted>
-7.5911

> <Gold.Chemscore.Metal.Weighted>
-0.0000

> <Gold.Chemscore.Lipo.Weighted>
-7.0393

> <Gold.Chemscore.Internal_Hbond.Weighted>
0.0000

> <Gold.Chemscore.DEClash.Weighted>
1.1188

> <Gold.Chemscore.DEInternal.Weighted>
0.7515

> <Gold.Chemscore.Rot.Weighted>
5.0836

> <Gold.Chemscore.Internal.Correction.Weighted>
   9.000000E+99

> <Gold.Protein.RotatedTorsions>
[ 6907 6896 6895 6894 ] final  113.41 input  -60.11 | X-H torsion
[ 7974 7965 7964 7962 ] final   70.69 input  175.53 | X-H torsion
[ 8008 7997 7996 7995 ] final -160.44 input   59.86 | X-H torsion
[ 10167 10162 10161 10158 ] final  -41.25 input  -65.29 | X-H torsion
[ 10718 10713 10712 10709 ] final   86.19 input   66.30 | X-H torsion
[ 10763 10752 10751 10750 ] final -144.92 input  -60.55 | X-H torsion
[ 11005 11000 10999 10996 ] final  -29.83 input  -57.11 | X-H torsion

> <Gold.Protein.ActiveResidues>
 VAL166  LYS551  ARG553  GLY616  TRP617  ASP618  TYR619  PRO620  LYS621  CYS622 
 ASP623  PHE694  ASN695  SER759  ASP760  ASP761  ALA762  ILE779  LEU786  VAL792 
 PHE793  MET794  SER795  GLU796  ALA797  LYS798  CYS799  TRP800  GLU811  SER814 

> <Gold.Protein.RotatedAtoms>
  152.4862  133.8379  159.7137 H   0  0  0  0  0  0  0  0  0  0  0  0  # atno 6907 bound_to 6896
  150.8951  133.7182  159.2900 H   0  0  0  0  0  0  0  0  0  0  0  0  # atno 6908 bound_to 6896
  151.4642  135.1044  159.9785 H   0  0  0  0  0  0  0  0  0  0  0  0  # atno 6909 bound_to 6896
  145.7750  139.2861  143.1299 H   0  0  0  0  0  0  0  0  0  0  0  0  # atno 7974 bound_to 7965
  155.7775  140.0860  157.2076 H   0  0  0  0  0  0  0  0  0  0  0  0  # atno 8008 bound_to 7997
  154.3992  140.1514  156.3071 H   0  0  0  0  0  0  0  0  0  0  0  0  # atno 8009 bound_to 7997
  155.8686  140.3426  155.5808 H   0  0  0  0  0  0  0  0  0  0  0  0  # atno 8010 bound_to 7997
  140.7009  143.3106  151.3039 H   0  0  0  0  0  0  0  0  0  0  0  0  # atno 10167 bound_to 10162
  157.6925  131.0205  150.2935 H   0  0  0  0  0  0  0  0  0  0  0  0  # atno 10718 bound_to 10713
  154.8407  135.3427  154.6423 H   0  0  0  0  0  0  0  0  0  0  0  0  # atno 10763 bound_to 10752
  153.7034  135.6968  153.5061 H   0  0  0  0  0  0  0  0  0  0  0  0  # atno 10764 bound_to 10752
  153.2506  135.4355  155.0747 H   0  0  0  0  0  0  0  0  0  0  0  0  # atno 10765 bound_to 10752
  140.9330  133.7326  156.0964 H   0  0  0  0  0  0  0  0  0  0  0  0  # atno 11005 bound_to 11000
  146.0131  140.8417  142.9961 LP  0  0  0  0  0  0  0  0  0  0  0  0  # atno 17320 bound_to 7965
  144.6806  140.2519  143.7330 LP  0  0  0  0  0  0  0  0  0  0  0  0  # atno 17321 bound_to 7965
  139.6527  144.0333  152.2637 LP  0  0  0  0  0  0  0  0  0  0  0  0  # atno 17342 bound_to 10162
  139.9875  144.6385  150.7845 LP  0  0  0  0  0  0  0  0  0  0  0  0  # atno 17343 bound_to 10162
  156.3463  130.3823  149.7367 LP  0  0  0  0  0  0  0  0  0  0  0  0  # atno 17370 bound_to 10713
  156.4859  130.8062  151.3075 LP  0  0  0  0  0  0  0  0  0  0  0  0  # atno 17371 bound_to 10713
  140.7837  134.3696  157.5481 LP  0  0  0  0  0  0  0  0  0  0  0  0  # atno 17394 bound_to 11000
  139.8801  134.9097  156.2998 LP  0  0  0  0  0  0  0  0  0  0  0  0  # atno 17395 bound_to 11000

$$$$
