AV-unprocessed.smi:434|AV-procd|sdf|2552|dock8
  -GOLD-   2262022523D 1   1.00000     0.00000
 Structure written by MMmdl.
 39 41  0  0  0  0  0  0  0  0  1 V2000
  152.4250  138.2182  156.6385 C   0  0  0  0  0  0  0  0  0  0  0  0
  152.4805  139.3750  157.5852 C   0  0  0  0  0  0  0  0  0  0  0  0
  153.4930  139.5514  158.4342 N   0  0  0  0  0  0  0  0  0  0  0  0
  153.1321  140.7070  159.1001 C   0  0  0  0  0  0  0  0  0  0  0  0
  153.7924  141.4202  160.1264 C   0  0  0  0  0  0  0  0  0  0  0  0
  153.2221  142.5946  160.6601 C   0  0  0  0  0  0  0  0  0  0  0  0
  151.9865  143.0716  160.1767 C   0  0  0  0  0  0  0  0  0  0  0  0
  151.3122  142.3768  159.1545 C   0  0  0  0  0  0  0  0  0  0  0  0
  151.8856  141.2053  158.6245 C   0  0  0  0  0  0  0  0  0  0  0  0
  151.4980  140.3079  157.6336 N   0  0  0  0  0  0  0  0  0  0  0  0
  150.2853  140.3732  156.8283 C   0  0  0  0  0  0  0  0  0  0  0  0
  150.3918  141.3885  155.6726 C   0  0  2  0  0  0  0  0  0  0  0  0
  150.5986  142.6806  156.2093 O   0  0  0  0  0  0  0  0  0  0  0  0
  149.1181  141.4173  154.8133 C   0  0  0  0  0  0  0  0  0  0  0  0
  148.0038  141.6783  155.6503 O   0  0  0  0  0  0  0  0  0  0  0  0
  146.7833  141.2188  155.0972 C   0  0  0  0  0  0  0  0  0  0  0  0
  146.0042  142.4333  154.7216 C   0  0  0  0  0  0  0  0  0  0  0  0
  145.9145  143.1781  153.5780 C   0  0  0  0  0  0  0  0  0  0  0  0
  144.9888  144.2229  153.8515 C   0  0  0  0  0  0  0  0  0  0  0  0
  144.5828  144.0376  155.1424 C   0  0  0  0  0  0  0  0  0  0  0  0
  145.1929  142.9499  155.6878 O   0  0  0  0  0  0  0  0  0  0  0  0
  153.3336  137.6196  156.7127 H   0  0  0  0  0  0  0  0  0  0  0  0
  152.3313  138.5697  155.6114 H   0  0  0  0  0  0  0  0  0  0  0  0
  151.5736  137.5793  156.8737 H   0  0  0  0  0  0  0  0  0  0  0  0
  154.7396  141.0636  160.5029 H   0  0  0  0  0  0  0  0  0  0  0  0
  153.7354  143.1323  161.4439 H   0  0  0  0  0  0  0  0  0  0  0  0
  151.5569  143.9725  160.5905 H   0  0  0  0  0  0  0  0  0  0  0  0
  150.3672  142.7419  158.7801 H   0  0  0  0  0  0  0  0  0  0  0  0
  150.0707  139.3775  156.4394 H   0  0  0  0  0  0  0  0  0  0  0  0
  149.4479  140.6278  157.4796 H   0  0  0  0  0  0  0  0  0  0  0  0
  151.2455  141.1288  155.0460 H   0  0  0  0  0  0  0  0  0  0  0  0
  149.8140  143.1900  156.0743 H   0  0  0  0  0  0  0  0  0  0  0  0
  149.1861  142.2218  154.0791 H   0  0  0  0  0  0  0  0  0  0  0  0
  148.9942  140.4849  154.2593 H   0  0  0  0  0  0  0  0  0  0  0  0
  146.9655  140.5975  154.2191 H   0  0  0  0  0  0  0  0  0  0  0  0
  146.2313  140.6225  155.8251 H   0  0  0  0  0  0  0  0  0  0  0  0
  146.4481  142.9923  152.6577 H   0  0  0  0  0  0  0  0  0  0  0  0
  144.6614  145.0097  153.1882 H   0  0  0  0  0  0  0  0  0  0  0  0
  143.8998  144.5598  155.7962 H   0  0  0  0  0  0  0  0  0  0  0  0
  1  2  1  0  0  0  0
  1 22  1  0  0  0  0
  1 23  1  0  0  0  0
  1 24  1  0  0  0  0
  2 10  1  0  0  0  0
  2  3  2  0  0  0  0
  3  4  1  0  0  0  0
  4  9  2  0  0  0  0
  4  5  1  0  0  0  0
  5  6  2  0  0  0  0
  5 25  1  0  0  0  0
  6  7  1  0  0  0  0
  6 26  1  0  0  0  0
  7  8  2  0  0  0  0
  7 27  1  0  0  0  0
  8  9  1  0  0  0  0
  8 28  1  0  0  0  0
  9 10  1  0  0  0  0
 10 11  1  0  0  0  0
 11 12  1  0  0  0  0
 11 29  1  0  0  0  0
 11 30  1  0  0  0  0
 12 13  1  0  0  0  0
 12 14  1  0  0  0  0
 12 31  1  0  0  0  0
 13 32  1  0  0  0  0
 14 15  1  0  0  0  0
 14 33  1  0  0  0  0
 14 34  1  0  0  0  0
 15 16  1  0  0  0  0
 16 17  1  0  0  0  0
 16 35  1  0  0  0  0
 16 36  1  0  0  0  0
 17 21  1  0  0  0  0
 17 18  2  0  0  0  0
 18 19  1  0  0  0  0
 18 37  1  0  0  0  0
 19 20  2  0  0  0  0
 19 38  1  0  0  0  0
 20 21  1  0  0  0  0
 20 39  1  0  0  0  0
M  END
> <s_m_source_file>
AV-unprocessed.smi

> <i_m_source_file_index>
434

> <i_lp_mmshare_version>
43012

> <i_f3d_flags>
0

> <s_epik_input>
W2NIXTFbY0hdW2NIXVtjSF1jKGMxMiluKGMobjIpW0NIM10pW0NIMl1bQ0BIXShbT0hdKVtDSDJdT1tDSDJdYzNbY0hdW2NIXVtjSF1vMw==

> <s_epik_cmdline>
J2VwaWtfcHl0aG9uJywgJy1waCcsICc3LjAnLCAnLXRuJywgJzgnLCAnLW1hJywgJzIwMCcsICctbWV0YWxfYmluZGluZycsICctaW1hZScsICc8aW5maWxlLm1hZT4nLCAnLW9tYWUnLCAnPG91dGZpbGUubWFlPic=

> <r_epik_Ionization_Penalty>
0.126634

> <r_epik_Ionization_Penalty_Charging>
0

> <r_epik_Ionization_Penalty_Neutral>
0.126634

> <r_epik_State_Penalty>
0.116082

> <r_epik_Charging_Adjusted_Penalty>
0.116082

> <i_epik_Tot_Q>
0

> <i_epik_Tot_abs_Q>
0

> <r_epik_Metal_State_Penalty>
0.00012822

> <b_epik_Metal_Only>
0

> <s_lp_Force_Field>
OPLS_2005

> <r_lp_Energy>
9.40114

> <b_lp_Chiralities_Consistent>
1

> <s_lp_Variant>
AV-unprocessed.smi:434-1

> <Gold.Version>
5.8.1

> <Gold.Id.Protein>
6NUR|6NUR_protein|mol2

> <Gold.PLP.Fitness>
45.8198

> <Gold.PLP.PLP>
-42.0415

> <Gold.PLP.part.hbond>
-2.0000

> <Gold.PLP.part.metal>
0.0000

> <Gold.PLP.part.buried>
-6.0142

> <Gold.PLP.part.nonpolar>
-33.8127

> <Gold.PLP.part.repulsive>
0.2817

> <Gold.PLP.ligand.clash>
0.0000

> <Gold.PLP.ligand.torsion>
1.1248

> <Gold.PLP.Chemscore.Hbond>
2.0000

> <Gold.PLP.Chemscore.CHOScore>
0.0000

> <Gold.PLP.Chemscore.Metal>
0.0000

> <Gold.Chemscore.Hbonds>
donor molecule, donor type, donor heavy atom, donor atom, acceptor molecule, acceptor atom, score
      L1  H    13    32       P1  8028  1.00
      P1  H  7997  8008       L1     3  1.00

> <Gold.PLP.Chemscore.Internal.Correction>
0.0279

> <Gold.Rescore>
     Score         DG    S(hbond)    S(metal)    S(lipo)     H(rot)  DE(clash)    DE(int)     intcor
     15.33     -16.95       1.32        0.00     112.00       2.36       0.48       1.15       ----

> <Gold.Chemscore.Fitness>
15.3286

> <Gold.Chemscore.DG>
-16.9506

> <Gold.Chemscore.ZeroCoef>
-5.4800

> <Gold.Chemscore.Hbond>
1.3190

> <Gold.Chemscore.Metal>
0.0000

> <Gold.Chemscore.Lipo>
112.0035

> <Gold.Chemscore.Internal_Hbond>
0.0000

> <Gold.Chemscore.DEClash>
0.4767

> <Gold.Chemscore.DEInternal>
1.1453

> <Gold.Chemscore.Rot>
2.3591

> <Gold.Chemscore.Internal.Correction>
   9.000000E+99

> <Gold.Chemscore.Hbonds>
donor molecule, donor type, donor heavy atom, donor atom, acceptor molecule, acceptor atom, score
      L1  H    13    32       P1  8028  0.98
      P1  H  7997  8008       L1     3  0.20

> <Gold.Chemscore.Hbond.Weighted>
-4.4055

> <Gold.Chemscore.Metal.Weighted>
-0.0000

> <Gold.Chemscore.Lipo.Weighted>
-13.1044

> <Gold.Chemscore.Internal_Hbond.Weighted>
0.0000

> <Gold.Chemscore.DEClash.Weighted>
0.4767

> <Gold.Chemscore.DEInternal.Weighted>
1.1453

> <Gold.Chemscore.Rot.Weighted>
6.0393

> <Gold.Chemscore.Internal.Correction.Weighted>
   9.000000E+99

> <Gold.Protein.RotatedTorsions>
[ 6907 6896 6895 6894 ] final  116.96 input  -60.11 | X-H torsion
[ 7974 7965 7964 7962 ] final  144.69 input  175.53 | X-H torsion
[ 8008 7997 7996 7995 ] final -110.32 input   59.86 | X-H torsion
[ 10167 10162 10161 10158 ] final  -20.77 input  -65.29 | X-H torsion
[ 10718 10713 10712 10709 ] final   14.19 input   66.30 | X-H torsion
[ 10763 10752 10751 10750 ] final   35.09 input  -60.55 | X-H torsion
[ 11005 11000 10999 10996 ] final   40.82 input  -57.11 | X-H torsion

> <Gold.Protein.ActiveResidues>
 VAL166  LYS551  ARG553  GLY616  TRP617  ASP618  TYR619  PRO620  LYS621  CYS622 
 ASP623  PHE694  ASN695  SER759  ASP760  ASP761  ALA762  ILE779  LEU786  VAL792 
 PHE793  MET794  SER795  GLU796  ALA797  LYS798  CYS799  TRP800  GLU811  SER814 

> <Gold.Protein.RotatedAtoms>
  152.4644  133.7890  159.6891 H   0  0  0  0  0  0  0  0  0  0  0  0  # atno 6907 bound_to 6896
  150.8601  133.7646  159.3001 H   0  0  0  0  0  0  0  0  0  0  0  0  # atno 6908 bound_to 6896
  151.5214  135.1070  159.9931 H   0  0  0  0  0  0  0  0  0  0  0  0  # atno 6909 bound_to 6896
  144.8815  139.5693  143.5841 H   0  0  0  0  0  0  0  0  0  0  0  0  # atno 7974 bound_to 7965
  154.9727  140.0397  157.2242 H   0  0  0  0  0  0  0  0  0  0  0  0  # atno 8008 bound_to 7997
  154.7786  140.2814  155.6059 H   0  0  0  0  0  0  0  0  0  0  0  0  # atno 8009 bound_to 7997
  156.2932  140.2596  156.2606 H   0  0  0  0  0  0  0  0  0  0  0  0  # atno 8010 bound_to 7997
  140.7278  143.4691  151.0272 H   0  0  0  0  0  0  0  0  0  0  0  0  # atno 10167 bound_to 10162
  157.0355  130.6210  149.5742 H   0  0  0  0  0  0  0  0  0  0  0  0  # atno 10718 bound_to 10713
  153.0134  135.6342  154.1772 H   0  0  0  0  0  0  0  0  0  0  0  0  # atno 10763 bound_to 10752
  154.1513  135.2829  155.3136 H   0  0  0  0  0  0  0  0  0  0  0  0  # atno 10764 bound_to 10752
  154.6051  135.5574  153.7476 H   0  0  0  0  0  0  0  0  0  0  0  0  # atno 10765 bound_to 10752
  140.1894  134.4006  155.8155 H   0  0  0  0  0  0  0  0  0  0  0  0  # atno 11005 bound_to 11000
  146.2997  139.7388  142.9100 LP  0  0  0  0  0  0  0  0  0  0  0  0  # atno 17320 bound_to 7965
  145.3946  141.0377  143.3104 LP  0  0  0  0  0  0  0  0  0  0  0  0  # atno 17321 bound_to 7965
  139.8381  143.7600  152.3180 LP  0  0  0  0  0  0  0  0  0  0  0  0  # atno 17342 bound_to 10162
  139.7739  144.7467  151.0184 LP  0  0  0  0  0  0  0  0  0  0  0  0  # atno 17343 bound_to 10162
  156.0055  130.5141  150.7815 LP  0  0  0  0  0  0  0  0  0  0  0  0  # atno 17370 bound_to 10713
  157.5145  131.0927  151.0157 LP  0  0  0  0  0  0  0  0  0  0  0  0  # atno 17371 bound_to 10713
  141.2226  133.7039  156.8068 LP  0  0  0  0  0  0  0  0  0  0  0  0  # atno 17394 bound_to 11000
  140.2177  134.8780  157.3343 LP  0  0  0  0  0  0  0  0  0  0  0  0  # atno 17395 bound_to 11000

$$$$
