AV-unprocessed.smi:1798|AV-procd|sdf|7260|dock4
  -GOLD-   22720 8513D 1   1.00000     0.00000
 Structure written by MMmdl.
 40 41  0  0  0  0  0  0  0  0  3 V2000
  153.9450  141.5496  160.6410 C   0  0  0  0  0  0  0  0  0  0  0  0
  153.3028  142.1738  159.3938 C   0  0  2  0  0  0  0  0  0  0  0  0
  153.4724  143.7051  159.3788 C   0  0  0  0  0  0  0  0  0  0  0  0
  152.8265  144.3370  158.1324 C   0  0  0  0  0  0  0  0  0  0  0  0
  151.3417  143.9530  157.9845 C   0  0  2  0  0  0  0  0  0  0  0  0
  150.5438  144.6136  159.0162 N   0  0  0  0  0  0  0  0  0  0  0  0
  149.3136  144.2466  159.4054 C   0  0  0  0  0  0  0  0  0  0  0  0
  148.7137  143.2828  158.9272 O   0  0  0  0  0  0  0  0  0  0  0  0
  148.6841  145.0948  160.5197 C   0  0  0  0  0  0  0  0  0  0  0  0
  147.2135  145.0219  160.5491 N   0  0  0  0  0  0  0  0  0  0  0  0
  146.6413  143.8190  161.0081 C   0  0  0  0  0  0  0  0  0  0  0  0
  145.3075  143.6392  161.0724 C   0  0  0  0  0  0  0  0  0  0  0  0
  144.7375  142.3958  161.5430 N   0  3  0  0  0  0  0  0  0  0  0  0
  143.5179  142.3079  161.6411 O   0  0  0  0  0  0  0  0  0  0  0  0
  145.4876  141.4677  161.8306 O   0  5  0  0  0  0  0  0  0  0  0  0
  144.4584  144.7363  160.6504 C   0  0  0  0  0  0  0  0  0  0  0  0
  144.9995  145.8878  160.2063 C   0  0  0  0  0  0  0  0  0  0  0  0
  146.4517  146.0796  160.1336 C   0  0  0  0  0  0  0  0  0  0  0  0
  146.9519  147.1272  159.7239 O   0  0  0  0  0  0  0  0  0  0  0  0
  151.1660  142.4202  158.0296 C   0  0  0  0  0  0  0  0  0  0  0  0
  151.8139  141.7959  159.2779 C   0  0  0  0  0  0  0  0  0  0  0  0
  153.4710  141.9102  161.5545 H   0  0  0  0  0  0  0  0  0  0  0  0
  155.0067  141.7915  160.6983 H   0  0  0  0  0  0  0  0  0  0  0  0
  153.8555  140.4632  160.6265 H   0  0  0  0  0  0  0  0  0  0  0  0
  153.8202  141.7706  158.5220 H   0  0  0  0  0  0  0  0  0  0  0  0
  153.0310  144.1347  160.2789 H   0  0  0  0  0  0  0  0  0  0  0  0
  154.5321  143.9617  159.4068 H   0  0  0  0  0  0  0  0  0  0  0  0
  152.9351  145.4219  158.1638 H   0  0  0  0  0  0  0  0  0  0  0  0
  153.3696  144.0054  157.2466 H   0  0  0  0  0  0  0  0  0  0  0  0
  151.0004  144.3140  157.0125 H   0  0  0  0  0  0  0  0  0  0  0  0
  150.9626  145.4134  159.4684 H   0  0  0  0  0  0  0  0  0  0  0  0
  149.1018  144.7675  161.4728 H   0  0  0  0  0  0  0  0  0  0  0  0
  149.0074  146.1317  160.4089 H   0  0  0  0  0  0  0  0  0  0  0  0
  147.3582  143.0621  161.2924 H   0  0  0  0  0  0  0  0  0  0  0  0
  143.3830  144.6426  160.6860 H   0  0  0  0  0  0  0  0  0  0  0  0
  144.3486  146.6918  159.8955 H   0  0  0  0  0  0  0  0  0  0  0  0
  150.1094  142.1536  157.9847 H   0  0  0  0  0  0  0  0  0  0  0  0
  151.6222  141.9847  157.1395 H   0  0  0  0  0  0  0  0  0  0  0  0
  151.7077  140.7113  159.2368 H   0  0  0  0  0  0  0  0  0  0  0  0
  151.2783  142.1219  160.1706 H   0  0  0  0  0  0  0  0  0  0  0  0
  1  2  1  0  0  0  0
  1 22  1  0  0  0  0
  1 23  1  0  0  0  0
  1 24  1  0  0  0  0
  2 21  1  0  0  0  0
  2  3  1  0  0  0  0
  2 25  1  0  0  0  0
  3  4  1  0  0  0  0
  3 26  1  0  0  0  0
  3 27  1  0  0  0  0
  4  5  1  0  0  0  0
  4 28  1  0  0  0  0
  4 29  1  0  0  0  0
  5  6  1  0  0  0  0
  5 20  1  0  0  0  0
  5 30  1  0  0  0  0
  6  7  1  0  0  0  0
  6 31  1  0  0  0  0
  7  8  2  0  0  0  0
  7  9  1  0  0  0  0
  9 10  1  0  0  0  0
  9 32  1  0  0  0  0
  9 33  1  0  0  0  0
 10 18  1  0  0  0  0
 10 11  1  0  0  0  0
 11 12  2  0  0  0  0
 11 34  1  0  0  0  0
 12 13  1  0  0  0  0
 12 16  1  0  0  0  0
 13 14  2  0  0  0  0
 13 15  1  0  0  0  0
 16 17  2  0  0  0  0
 16 35  1  0  0  0  0
 17 18  1  0  0  0  0
 17 36  1  0  0  0  0
 18 19  2  0  0  0  0
 20 21  1  0  0  0  0
 20 37  1  0  0  0  0
 20 38  1  0  0  0  0
 21 39  1  0  0  0  0
 21 40  1  0  0  0  0
M  CHG  1  13   1
M  CHG  1  15  -1
M  END
> <s_m_source_file>
AV-unprocessed.smi

> <i_m_source_file_index>
1798

> <i_lp_mmshare_version>
43012

> <i_f3d_flags>
0

> <s_epik_input>
W0NIM11bQ0BASF0xW0NIMl1bQ0gyXVtDQEhdKFtDSDJdW0NIMl0xKVtOSF1DKD1PKVtDSDJdbjJbY0hdYyhbTitdKD1PKVtPLV0pW2NIXVtjSF1jMj1P

> <s_epik_cmdline>
J2VwaWtfcHl0aG9uJywgJy1waCcsICc3LjAnLCAnLXRuJywgJzgnLCAnLW1hJywgJzIwMCcsICctbWV0YWxfYmluZGluZycsICctaW1hZScsICc8aW5maWxlLm1hZT4nLCAnLW9tYWUnLCAnPG91dGZpbGUubWFlPic=

> <r_lp_tautomer_probability>
1

> <r_epik_Ionization_Penalty>
1.91292e-08

> <r_epik_Ionization_Penalty_Charging>
8.23013e-11

> <r_epik_Ionization_Penalty_Neutral>
1.90469e-08

> <r_epik_State_Penalty>
-0

> <r_epik_Charging_Adjusted_Penalty>
8.23013e-11

> <i_epik_Tot_Q>
0

> <i_epik_Tot_abs_Q>
2

> <r_epik_Metal_State_Penalty>
-0

> <b_epik_Metal_Only>
0

> <s_lp_Force_Field>
OPLS_2005

> <r_lp_Energy>
19.5482

> <b_lp_Chiralities_Consistent>
1

> <s_lp_Variant>
AV-unprocessed.smi:1798-2

> <Gold.Version>
5.8.1

> <Gold.Id.Protein>
6NUR|6NUR_protein|mol2

> <Gold.PLP.Fitness>
43.2480

> <Gold.PLP.PLP>
-43.1739

> <Gold.PLP.part.hbond>
-4.6745

> <Gold.PLP.part.metal>
0.0000

> <Gold.PLP.part.buried>
-4.0649

> <Gold.PLP.part.nonpolar>
-34.7643

> <Gold.PLP.part.repulsive>
0.5254

> <Gold.PLP.ligand.clash>
0.0000

> <Gold.PLP.ligand.torsion>
0.7611

> <Gold.PLP.Chemscore.Hbond>
0.5280

> <Gold.PLP.Chemscore.CHOScore>
0.0000

> <Gold.PLP.Chemscore.Metal>
0.0000

> <Gold.Chemscore.Hbonds>
donor molecule, donor type, donor heavy atom, donor atom, acceptor molecule, acceptor atom, score
      P1  H  6934  6946       L1    15  0.40

> <Gold.PLP.Chemscore.Internal.Correction>
0.0122

> <Gold.Rescore>
     Score         DG    S(hbond)    S(metal)    S(lipo)     H(rot)  DE(clash)    DE(int)     intcor
     11.67     -15.02       0.62        0.00      97.75       1.55       0.17       3.18       ----

> <Gold.Chemscore.Fitness>
11.6722

> <Gold.Chemscore.DG>
-15.0181

> <Gold.Chemscore.ZeroCoef>
-5.4800

> <Gold.Chemscore.Hbond>
0.6200

> <Gold.Chemscore.Metal>
0.0000

> <Gold.Chemscore.Lipo>
97.7481

> <Gold.Chemscore.Internal_Hbond>
0.0000

> <Gold.Chemscore.DEClash>
0.1665

> <Gold.Chemscore.DEInternal>
3.1794

> <Gold.Chemscore.Rot>
1.5505

> <Gold.Chemscore.Internal.Correction>
   9.000000E+99

> <Gold.Chemscore.Hbonds>
donor molecule, donor type, donor heavy atom, donor atom, acceptor molecule, acceptor atom, score
      P1  H  6934  6946       L1    15  0.40

> <Gold.Chemscore.Hbond.Weighted>
-2.0707

> <Gold.Chemscore.Metal.Weighted>
-0.0000

> <Gold.Chemscore.Lipo.Weighted>
-11.4365

> <Gold.Chemscore.Internal_Hbond.Weighted>
0.0000

> <Gold.Chemscore.DEClash.Weighted>
0.1665

> <Gold.Chemscore.DEInternal.Weighted>
3.1794

> <Gold.Chemscore.Rot.Weighted>
3.9692

> <Gold.Chemscore.Internal.Correction.Weighted>
   9.000000E+99

> <Gold.Protein.RotatedTorsions>
[ 6907 6896 6895 6894 ] final  -16.21 input  -60.11 | X-H torsion
[ 7974 7965 7964 7962 ] final -106.32 input  175.53 | X-H torsion
[ 8008 7997 7996 7995 ] final -164.38 input   59.86 | X-H torsion
[ 10167 10162 10161 10158 ] final   80.28 input  -65.29 | X-H torsion
[ 10718 10713 10712 10709 ] final  146.01 input   66.30 | X-H torsion
[ 10763 10752 10751 10750 ] final  -51.78 input  -60.55 | X-H torsion
[ 11005 11000 10999 10996 ] final   54.40 input  -57.11 | X-H torsion

> <Gold.Protein.ActiveResidues>
 VAL166  LYS551  ARG553  GLY616  TRP617  ASP618  TYR619  PRO620  LYS621  CYS622 
 ASP623  PHE694  ASN695  SER759  ASP760  ASP761  ALA762  ILE779  LEU786  VAL792 
 PHE793  MET794  SER795  GLU796  ALA797  LYS798  CYS799  TRP800  GLU811  SER814 

> <Gold.Protein.RotatedAtoms>
  151.3121  135.0797  159.9275 H   0  0  0  0  0  0  0  0  0  0  0  0  # atno 6907 bound_to 6896
  152.5275  133.9725  159.7779 H   0  0  0  0  0  0  0  0  0  0  0  0  # atno 6908 bound_to 6896
  151.0030  133.5986  159.2722 H   0  0  0  0  0  0  0  0  0  0  0  0  # atno 6909 bound_to 6896
  145.2193  140.9128  143.3269 H   0  0  0  0  0  0  0  0  0  0  0  0  # atno 7974 bound_to 7965
  155.8348  140.0939  157.1770 H   0  0  0  0  0  0  0  0  0  0  0  0  # atno 8008 bound_to 7997
  154.3980  140.1412  156.3718 H   0  0  0  0  0  0  0  0  0  0  0  0  # atno 8009 bound_to 7997
  155.8127  140.3449  155.5470 H   0  0  0  0  0  0  0  0  0  0  0  0  # atno 8010 bound_to 7997
  139.9514  144.6023  150.8157 H   0  0  0  0  0  0  0  0  0  0  0  0  # atno 10167 bound_to 10162
  157.3384  131.0932  151.1103 H   0  0  0  0  0  0  0  0  0  0  0  0  # atno 10718 bound_to 10713
  154.1321  135.6518  153.4924 H   0  0  0  0  0  0  0  0  0  0  0  0  # atno 10763 bound_to 10752
  153.0192  135.5295  154.6991 H   0  0  0  0  0  0  0  0  0  0  0  0  # atno 10764 bound_to 10752
  154.6228  135.2967  155.0277 H   0  0  0  0  0  0  0  0  0  0  0  0  # atno 10765 bound_to 10752
  140.0689  134.5497  155.9068 H   0  0  0  0  0  0  0  0  0  0  0  0  # atno 11005 bound_to 11000
  144.9781  139.3811  143.6276 LP  0  0  0  0  0  0  0  0  0  0  0  0  # atno 17320 bound_to 7965
  146.3380  139.8909  142.8809 LP  0  0  0  0  0  0  0  0  0  0  0  0  # atno 17321 bound_to 7965
  140.7582  143.3101  151.2865 LP  0  0  0  0  0  0  0  0  0  0  0  0  # atno 17342 bound_to 10162
  139.6626  144.0163  152.2702 LP  0  0  0  0  0  0  0  0  0  0  0  0  # atno 17343 bound_to 10162
  157.2325  130.6532  149.5855 LP  0  0  0  0  0  0  0  0  0  0  0  0  # atno 17370 bound_to 10713
  155.9704  130.4594  150.6035 LP  0  0  0  0  0  0  0  0  0  0  0  0  # atno 17371 bound_to 10713
  141.2004  133.6612  156.5894 LP  0  0  0  0  0  0  0  0  0  0  0  0  # atno 17394 bound_to 11000
  140.3657  134.7649  157.4564 LP  0  0  0  0  0  0  0  0  0  0  0  0  # atno 17395 bound_to 11000

$$$$
