AV-unprocessed.smi:2714|AV-procd|sdf|10480|dock9
  -GOLD-   2272014523D 1   1.00000     0.00000
 Structure written by MMmdl.
 46 47  0  0  0  0  0  0  0  0  1 V2000
  151.9817  144.1035  161.4845 C   0  0  0  0  0  0  0  0  0  0  0  0
  152.6899  144.0509  160.1265 C   0  0  0  0  0  0  0  0  0  0  0  0
  152.0242  144.9632  159.0801 C   0  0  0  0  0  0  0  0  0  0  0  0
  150.7156  144.3976  158.4858 C   0  0  2  0  0  0  0  0  0  0  0  0
  149.5816  144.4278  159.5252 C   0  0  0  0  0  0  0  0  0  0  0  0
  150.8997  142.9710  157.9468 C   0  0  0  0  0  0  0  0  0  0  0  0
  151.3408  142.0821  158.6760 O   0  0  0  0  0  0  0  0  0  0  0  0
  150.5462  142.7664  156.6694 N   0  0  0  0  0  0  0  0  0  0  0  0
  150.5625  141.4760  155.9891 C   0  0  0  0  0  0  0  0  0  0  0  0
  149.2998  141.1987  155.1796 C   0  0  0  0  0  0  0  0  0  0  0  0
  148.4648  142.2731  154.8055 C   0  0  0  0  0  0  0  0  0  0  0  0
  147.3035  142.0117  154.0559 C   0  0  0  0  0  0  0  0  0  0  0  0
  147.0195  140.6784  153.7079 C   0  0  0  0  0  0  0  0  0  0  0  0
  147.8048  139.6393  154.0601 N   0  0  0  0  0  0  0  0  0  0  0  0
  148.9245  139.8888  154.7817 C   0  0  0  0  0  0  0  0  0  0  0  0
  149.7214  138.7881  155.1327 N   0  0  0  0  0  0  0  0  0  0  0  0
  149.0917  137.4947  154.9073 C   0  0  0  0  0  0  0  0  0  0  0  0
  149.9770  136.3787  155.4893 C   0  0  0  0  0  0  0  0  0  0  0  0
  151.2846  136.4598  154.9269 O   0  0  0  0  0  0  0  0  0  0  0  0
  151.9169  137.7054  155.2104 C   0  0  0  0  0  0  0  0  0  0  0  0
  151.0821  138.8519  154.6161 C   0  0  0  0  0  0  0  0  0  0  0  0
  152.4716  143.4473  162.2037 H   0  0  0  0  0  0  0  0  0  0  0  0
  150.9421  143.7866  161.3984 H   0  0  0  0  0  0  0  0  0  0  0  0
  151.9917  145.1134  161.8957 H   0  0  0  0  0  0  0  0  0  0  0  0
  153.7327  144.3425  160.2557 H   0  0  0  0  0  0  0  0  0  0  0  0
  152.6990  143.0188  159.7750 H   0  0  0  0  0  0  0  0  0  0  0  0
  151.8389  145.9452  159.5184 H   0  0  0  0  0  0  0  0  0  0  0  0
  152.7324  145.1304  158.2676 H   0  0  0  0  0  0  0  0  0  0  0  0
  150.4125  145.0412  157.6577 H   0  0  0  0  0  0  0  0  0  0  0  0
  148.6574  144.0141  159.1202 H   0  0  0  0  0  0  0  0  0  0  0  0
  149.3688  145.4497  159.8398 H   0  0  0  0  0  0  0  0  0  0  0  0
  149.8394  143.8554  160.4174 H   0  0  0  0  0  0  0  0  0  0  0  0
  150.1999  143.5541  156.1411 H   0  0  0  0  0  0  0  0  0  0  0  0
  151.4174  141.4566  155.3128 H   0  0  0  0  0  0  0  0  0  0  0  0
  150.7318  140.6802  156.7164 H   0  0  0  0  0  0  0  0  0  0  0  0
  148.7109  143.2871  155.0848 H   0  0  0  0  0  0  0  0  0  0  0  0
  146.6473  142.8144  153.7536 H   0  0  0  0  0  0  0  0  0  0  0  0
  146.1381  140.4393  153.1317 H   0  0  0  0  0  0  0  0  0  0  0  0
  148.1063  137.4760  155.3745 H   0  0  0  0  0  0  0  0  0  0  0  0
  148.9483  137.3363  153.8377 H   0  0  0  0  0  0  0  0  0  0  0  0
  150.0338  136.4564  156.5763 H   0  0  0  0  0  0  0  0  0  0  0  0
  149.5506  135.4019  155.2607 H   0  0  0  0  0  0  0  0  0  0  0  0
  152.0356  137.8293  156.2882 H   0  0  0  0  0  0  0  0  0  0  0  0
  152.9172  137.7042  154.7776 H   0  0  0  0  0  0  0  0  0  0  0  0
  151.0684  138.7768  153.5279 H   0  0  0  0  0  0  0  0  0  0  0  0
  151.5296  139.8136  154.8686 H   0  0  0  0  0  0  0  0  0  0  0  0
  1  2  1  0  0  0  0
  1 22  1  0  0  0  0
  1 23  1  0  0  0  0
  1 24  1  0  0  0  0
  2  3  1  0  0  0  0
  2 25  1  0  0  0  0
  2 26  1  0  0  0  0
  3  4  1  0  0  0  0
  3 27  1  0  0  0  0
  3 28  1  0  0  0  0
  4  5  1  0  0  0  0
  4  6  1  0  0  0  0
  4 29  1  0  0  0  0
  5 30  1  0  0  0  0
  5 31  1  0  0  0  0
  5 32  1  0  0  0  0
  6  7  2  0  0  0  0
  6  8  1  0  0  0  0
  8  9  1  0  0  0  0
  8 33  1  0  0  0  0
  9 10  1  0  0  0  0
  9 34  1  0  0  0  0
  9 35  1  0  0  0  0
 10 15  1  0  0  0  0
 10 11  2  0  0  0  0
 11 12  1  0  0  0  0
 11 36  1  0  0  0  0
 12 13  2  0  0  0  0
 12 37  1  0  0  0  0
 13 14  1  0  0  0  0
 13 38  1  0  0  0  0
 14 15  2  0  0  0  0
 15 16  1  0  0  0  0
 16 21  1  0  0  0  0
 16 17  1  0  0  0  0
 17 18  1  0  0  0  0
 17 39  1  0  0  0  0
 17 40  1  0  0  0  0
 18 19  1  0  0  0  0
 18 41  1  0  0  0  0
 18 42  1  0  0  0  0
 19 20  1  0  0  0  0
 20 21  1  0  0  0  0
 20 43  1  0  0  0  0
 20 44  1  0  0  0  0
 21 45  1  0  0  0  0
 21 46  1  0  0  0  0
M  END
> <s_m_source_file>
AV-unprocessed.smi

> <i_m_source_file_index>
2714

> <i_lp_mmshare_version>
43012

> <i_f3d_flags>
0

> <s_epik_input>
W0NIM11bQ0gyXVtDSDJdW0NASF0oW0NIM10pQyg9TylbTkhdW0NIMl1jMVtjSF1bY0hdW2NIXW5jMU4yW0NIMl1bQ0gyXU9bQ0gyXVtDSDJdMg==

> <s_epik_cmdline>
J2VwaWtfcHl0aG9uJywgJy1waCcsICc3LjAnLCAnLXRuJywgJzgnLCAnLW1hJywgJzIwMCcsICctbWV0YWxfYmluZGluZycsICctaW1hZScsICc8aW5maWxlLm1hZT4nLCAnLW9tYWUnLCAnPG91dGZpbGUubWFlPic=

> <r_lp_tautomer_probability>
1

> <r_epik_Ionization_Penalty>
0.00517355

> <r_epik_Ionization_Penalty_Charging>
0

> <r_epik_Ionization_Penalty_Neutral>
0.00517355

> <r_epik_State_Penalty>
0.00376978

> <r_epik_Charging_Adjusted_Penalty>
0.00376978

> <i_epik_Tot_Q>
0

> <i_epik_Tot_abs_Q>
0

> <r_epik_Metal_State_Penalty>
-0

> <b_epik_Metal_Only>
0

> <s_lp_Force_Field>
OPLS_2005

> <r_lp_Energy>
18.1949

> <b_lp_Chiralities_Consistent>
1

> <s_lp_Variant>
AV-unprocessed.smi:2714-1

> <Gold.Version>
5.8.1

> <Gold.Id.Protein>
6NUR|6NUR_protein|mol2

> <Gold.PLP.Fitness>
48.0738

> <Gold.PLP.PLP>
-40.2881

> <Gold.PLP.part.hbond>
-2.0000

> <Gold.PLP.part.metal>
0.0000

> <Gold.PLP.part.buried>
-1.8158

> <Gold.PLP.part.nonpolar>
-36.7720

> <Gold.PLP.part.repulsive>
0.4949

> <Gold.PLP.ligand.clash>
0.0000

> <Gold.PLP.ligand.torsion>
0.7005

> <Gold.PLP.Chemscore.Hbond>
2.0000

> <Gold.PLP.Chemscore.CHOScore>
0.9918

> <Gold.PLP.Chemscore.Metal>
0.0000

> <Gold.Chemscore.Hbonds>
donor molecule, donor type, donor heavy atom, donor atom, acceptor molecule, acceptor atom, score
      L1  H     8    33       P1  8028  1.00
      P1  H 10752 10763       L1    19  0.65
      L1  C    13    38       P1 10175  0.98

> <Gold.PLP.Chemscore.Internal.Correction>
0.2112

> <Gold.Rescore>
     Score         DG    S(hbond)    S(metal)    S(lipo)     H(rot)  DE(clash)    DE(int)     intcor
     15.84     -20.11       1.84        0.00     110.16       1.72       1.12       3.15       ----

> <Gold.Chemscore.Fitness>
15.8365

> <Gold.Chemscore.DG>
-20.1091

> <Gold.Chemscore.ZeroCoef>
-5.4800

> <Gold.Chemscore.Hbond>
1.8389

> <Gold.Chemscore.Metal>
0.0000

> <Gold.Chemscore.Lipo>
110.1564

> <Gold.Chemscore.Internal_Hbond>
0.0000

> <Gold.Chemscore.DEClash>
1.1199

> <Gold.Chemscore.DEInternal>
3.1527

> <Gold.Chemscore.Rot>
1.7192

> <Gold.Chemscore.Internal.Correction>
   9.000000E+99

> <Gold.Chemscore.Hbonds>
donor molecule, donor type, donor heavy atom, donor atom, acceptor molecule, acceptor atom, score
      L1  H     8    33       P1  8028  0.97
      P1  H 10752 10763       L1    19  0.06

> <Gold.Chemscore.Hbond.Weighted>
-6.1419

> <Gold.Chemscore.Metal.Weighted>
-0.0000

> <Gold.Chemscore.Lipo.Weighted>
-12.8883

> <Gold.Chemscore.Internal_Hbond.Weighted>
0.0000

> <Gold.Chemscore.DEClash.Weighted>
1.1199

> <Gold.Chemscore.DEInternal.Weighted>
3.1527

> <Gold.Chemscore.Rot.Weighted>
4.4011

> <Gold.Chemscore.Internal.Correction.Weighted>
   9.000000E+99

> <Gold.Protein.RotatedTorsions>
[ 6907 6896 6895 6894 ] final  139.36 input  -60.11 | X-H torsion
[ 7974 7965 7964 7962 ] final  -96.56 input  175.53 | X-H torsion
[ 8008 7997 7996 7995 ] final   72.80 input   59.86 | X-H torsion
[ 10167 10162 10161 10158 ] final   36.80 input  -65.29 | X-H torsion
[ 10718 10713 10712 10709 ] final  -72.12 input   66.30 | X-H torsion
[ 10763 10752 10751 10750 ] final   61.41 input  -60.55 | X-H torsion
[ 11005 11000 10999 10996 ] final   -9.44 input  -57.11 | X-H torsion

> <Gold.Protein.ActiveResidues>
 VAL166  LYS551  ARG553  GLY616  TRP617  ASP618  TYR619  PRO620  LYS621  CYS622 
 ASP623  PHE694  ASN695  SER759  ASP760  ASP761  ALA762  ILE779  LEU786  VAL792 
 PHE793  MET794  SER795  GLU796  ALA797  LYS798  CYS799  TRP800  GLU811  SER814 

> <Gold.Protein.RotatedAtoms>
  152.2558  133.5254  159.5352 H   0  0  0  0  0  0  0  0  0  0  0  0  # atno 6907 bound_to 6896
  150.7108  134.0897  159.3936 H   0  0  0  0  0  0  0  0  0  0  0  0  # atno 6908 bound_to 6896
  151.8816  135.0451  160.0540 H   0  0  0  0  0  0  0  0  0  0  0  0  # atno 6909 bound_to 6896
  145.3452  140.9467  143.2585 H   0  0  0  0  0  0  0  0  0  0  0  0  # atno 7974 bound_to 7965
  155.7742  140.3483  155.5263 H   0  0  0  0  0  0  0  0  0  0  0  0  # atno 8008 bound_to 7997
  155.8792  140.0999  157.1518 H   0  0  0  0  0  0  0  0  0  0  0  0  # atno 8009 bound_to 7997
  154.4023  140.1326  156.4162 H   0  0  0  0  0  0  0  0  0  0  0  0  # atno 8010 bound_to 7997
  140.4093  144.1615  150.6138 H   0  0  0  0  0  0  0  0  0  0  0  0  # atno 10167 bound_to 10162
  156.0334  130.4365  150.2545 H   0  0  0  0  0  0  0  0  0  0  0  0  # atno 10718 bound_to 10713
  152.9949  135.5502  154.6028 H   0  0  0  0  0  0  0  0  0  0  0  0  # atno 10763 bound_to 10752
  154.5366  135.2817  155.1135 H   0  0  0  0  0  0  0  0  0  0  0  0  # atno 10764 bound_to 10752
  154.2429  135.6413  153.5266 H   0  0  0  0  0  0  0  0  0  0  0  0  # atno 10765 bound_to 10752
  140.7342  133.8724  155.8917 H   0  0  0  0  0  0  0  0  0  0  0  0  # atno 11005 bound_to 11000
  144.8759  139.4971  143.6745 LP  0  0  0  0  0  0  0  0  0  0  0  0  # atno 17320 bound_to 7965
  146.2991  139.7369  142.9105 LP  0  0  0  0  0  0  0  0  0  0  0  0  # atno 17321 bound_to 7965
  140.4655  143.2432  151.9161 LP  0  0  0  0  0  0  0  0  0  0  0  0  # atno 17342 bound_to 10162
  139.4783  144.5423  151.8509 LP  0  0  0  0  0  0  0  0  0  0  0  0  # atno 17343 bound_to 10162
  157.0646  131.0099  151.3211 LP  0  0  0  0  0  0  0  0  0  0  0  0  # atno 17370 bound_to 10713
  157.5045  130.7900  149.7639 LP  0  0  0  0  0  0  0  0  0  0  0  0  # atno 17371 bound_to 10713
  140.9894  134.1299  157.4422 LP  0  0  0  0  0  0  0  0  0  0  0  0  # atno 17394 bound_to 11000
  139.8819  135.0036  156.6195 LP  0  0  0  0  0  0  0  0  0  0  0  0  # atno 17395 bound_to 11000

$$$$
