AV-unprocessed.smi:618|AV-procd|sdf|3075|dock4
  -GOLD-   22720 0 03D 1   1.00000     0.00000
 Structure written by MMmdl.
 41 43  0  0  0  0  0  0  0  0  2 V2000
  150.2423  141.0702  155.0880 O   0  0  0  0  0  0  0  0  0  0  0  0
  149.9466  140.1486  155.8479 C   0  0  0  0  0  0  0  0  0  0  0  0
  149.2445  139.0739  155.4617 N   0  0  0  0  0  0  0  0  0  0  0  0
  148.7517  138.8456  154.1073 C   0  0  0  0  0  0  0  0  0  0  0  0
  147.2240  139.0578  154.0060 C   0  0  1  0  0  0  0  0  0  0  0  0
  146.7005  138.9925  152.5504 C   0  0  0  0  0  0  0  0  0  0  0  0
  146.6651  137.5854  152.1108 N   0  3  2  0  0  0  0  0  0  0  0  0
  146.1962  137.2971  150.7441 C   0  0  0  0  0  0  0  0  0  0  0  0
  145.6894  135.8419  150.7972 C   0  0  0  0  0  0  0  0  0  0  0  0
  145.7619  135.4288  152.2780 C   0  0  0  0  0  0  0  0  0  0  0  0
  145.8454  136.7667  153.0060 C   0  0  1  0  0  0  0  0  0  0  0  0
  146.4638  136.7862  154.4084 C   0  0  0  0  0  0  0  0  0  0  0  0
  146.5061  138.1456  154.8524 O   0  0  0  0  0  0  0  0  0  0  0  0
  150.2538  140.0890  157.1549 N   0  0  0  0  0  0  0  0  0  0  0  0
  151.0038  141.0179  157.9260 C   0  0  0  0  0  0  0  0  0  0  0  0
  151.7673  140.5219  159.0027 C   0  0  0  0  0  0  0  0  0  0  0  0
  152.5334  141.4186  159.7713 C   0  0  0  0  0  0  0  0  0  0  0  0
  152.5138  142.7836  159.4249 C   0  0  0  0  0  0  0  0  0  0  0  0
  151.8021  143.2735  158.3883 N   0  0  0  0  0  0  0  0  0  0  0  0
  151.0678  142.4078  157.6564 C   0  0  0  0  0  0  0  0  0  0  0  0
  149.0393  138.3647  156.1504 H   0  0  0  0  0  0  0  0  0  0  0  0
  149.2685  139.5152  153.4177 H   0  0  0  0  0  0  0  0  0  0  0  0
  149.0307  137.8367  153.8055 H   0  0  0  0  0  0  0  0  0  0  0  0
  147.0054  140.0589  154.3788 H   0  0  0  0  0  0  0  0  0  0  0  0
  145.6958  139.4144  152.4958 H   0  0  0  0  0  0  0  0  0  0  0  0
  147.3308  139.5796  151.8818 H   0  0  0  0  0  0  0  0  0  0  0  0
  145.3788  137.9694  150.4792 H   0  0  0  0  0  0  0  0  0  0  0  0
  146.9988  137.4354  150.0191 H   0  0  0  0  0  0  0  0  0  0  0  0
  144.6640  135.7884  150.4298 H   0  0  0  0  0  0  0  0  0  0  0  0
  146.2953  135.1802  150.1772 H   0  0  0  0  0  0  0  0  0  0  0  0
  144.9070  134.8297  152.5933 H   0  0  0  0  0  0  0  0  0  0  0  0
  146.6665  134.8452  152.4554 H   0  0  0  0  0  0  0  0  0  0  0  0
  144.8422  137.1962  153.0523 H   0  0  0  0  0  0  0  0  0  0  0  0
  145.8537  136.2060  155.1007 H   0  0  0  0  0  0  0  0  0  0  0  0
  147.4596  136.3426  154.4137 H   0  0  0  0  0  0  0  0  0  0  0  0
  149.8641  139.3136  157.6704 H   0  0  0  0  0  0  0  0  0  0  0  0
  151.7641  139.4684  159.2424 H   0  0  0  0  0  0  0  0  0  0  0  0
  153.1225  141.0688  160.6061 H   0  0  0  0  0  0  0  0  0  0  0  0
  153.0892  143.5003  159.9919 H   0  0  0  0  0  0  0  0  0  0  0  0
  150.5429  142.8538  156.8261 H   0  0  0  0  0  0  0  0  0  0  0  0
  147.6062  137.2240  152.1727 H   0  0  0  0  0  0  0  0  0  0  0  0
  1  2  2  0  0  0  0
  2  3  1  0  0  0  0
  2 14  1  0  0  0  0
  3  4  1  0  0  0  0
  3 21  1  0  0  0  0
  4  5  1  0  0  0  0
  4 22  1  0  0  0  0
  4 23  1  0  0  0  0
  5 13  1  0  0  0  0
  5  6  1  0  0  0  0
  5 24  1  0  0  0  0
  6  7  1  0  0  0  0
  6 25  1  0  0  0  0
  6 26  1  0  0  0  0
  7 11  1  0  0  0  0
  7  8  1  0  0  0  0
  7 41  1  0  0  0  0
  8  9  1  0  0  0  0
  8 27  1  0  0  0  0
  8 28  1  0  0  0  0
  9 10  1  0  0  0  0
  9 29  1  0  0  0  0
  9 30  1  0  0  0  0
 10 11  1  0  0  0  0
 10 31  1  0  0  0  0
 10 32  1  0  0  0  0
 11 12  1  0  0  0  0
 11 33  1  0  0  0  0
 12 13  1  0  0  0  0
 12 34  1  0  0  0  0
 12 35  1  0  0  0  0
 14 15  1  0  0  0  0
 14 36  1  0  0  0  0
 15 20  1  0  0  0  0
 15 16  2  0  0  0  0
 16 17  1  0  0  0  0
 16 37  1  0  0  0  0
 17 18  2  0  0  0  0
 17 38  1  0  0  0  0
 18 19  1  0  0  0  0
 18 39  1  0  0  0  0
 19 20  2  0  0  0  0
 20 40  1  0  0  0  0
M  CHG  1   7   1
M  END
> <s_m_source_file>
AV-unprocessed.smi

> <i_m_source_file_index>
618

> <i_lp_mmshare_version>
43012

> <i_f3d_flags>
0

> <s_epik_input>
W2NIXTFuW2NIXVtjSF1bY0hdYzFbTkhdQyg9TylbTkhdW0NIMl1bQ0BIXShbQ0gyXTIpT1tDSDJdW0NAQEhdKE4yMylbQ0gyXVtDSDJdW0NIMl0z

> <s_epik_cmdline>
J2VwaWtfcHl0aG9uJywgJy1waCcsICc3LjAnLCAnLXRuJywgJzgnLCAnLW1hJywgJzIwMCcsICctbWV0YWxfYmluZGluZycsICctaW1hZScsICc8aW5maWxlLm1hZT4nLCAnLW9tYWUnLCAnPG91dGZpbGUubWFlPic=

> <r_epik_Ionization_Penalty>
0.111044

> <r_epik_Ionization_Penalty_Charging>
0.10673

> <r_epik_Ionization_Penalty_Neutral>
0.00431361

> <r_epik_State_Penalty>
0.0978747

> <r_epik_Charging_Adjusted_Penalty>
0.204605

> <i_epik_Tot_Q>
1

> <i_epik_Tot_abs_Q>
1

> <r_epik_Metal_State_Penalty>
0.0947591

> <b_epik_Metal_Only>
0

> <s_lp_Force_Field>
OPLS_2005

> <r_lp_Energy>
41.905

> <b_lp_Chiralities_Consistent>
1

> <s_lp_Variant>
AV-unprocessed.smi:618-2

> <Gold.Version>
5.8.1

> <Gold.Id.Protein>
6NUR|6NUR_protein|mol2

> <Gold.PLP.Fitness>
39.6078

> <Gold.PLP.PLP>
-29.4426

> <Gold.PLP.part.hbond>
-2.0000

> <Gold.PLP.part.metal>
0.0000

> <Gold.PLP.part.buried>
0.7400

> <Gold.PLP.part.nonpolar>
-28.5037

> <Gold.PLP.part.repulsive>
0.3780

> <Gold.PLP.ligand.clash>
0.0000

> <Gold.PLP.ligand.torsion>
0.2868

> <Gold.PLP.Chemscore.Hbond>
2.5760

> <Gold.PLP.Chemscore.CHOScore>
1.0000

> <Gold.PLP.Chemscore.Metal>
0.0000

> <Gold.Chemscore.Hbonds>
donor molecule, donor type, donor heavy atom, donor atom, acceptor molecule, acceptor atom, score
      L1  H     7    41       P1  7948  2.00
      P1  H  7989  7998       L1     1  0.55
      L1  C    20    40       P1  8028  0.45

> <Gold.PLP.Chemscore.Internal.Correction>
0.0109

> <Gold.Rescore>
     Score         DG    S(hbond)    S(metal)    S(lipo)     H(rot)  DE(clash)    DE(int)     intcor
     15.68     -17.79       1.81        0.00      81.20       1.27       1.28       0.82       ----

> <Gold.Chemscore.Fitness>
15.6835

> <Gold.Chemscore.DG>
-17.7872

> <Gold.Chemscore.ZeroCoef>
-5.4800

> <Gold.Chemscore.Hbond>
1.8104

> <Gold.Chemscore.Metal>
0.0000

> <Gold.Chemscore.Lipo>
81.1996

> <Gold.Chemscore.Internal_Hbond>
0.0000

> <Gold.Chemscore.DEClash>
1.2796

> <Gold.Chemscore.DEInternal>
0.8241

> <Gold.Chemscore.Rot>
1.2656

> <Gold.Chemscore.Internal.Correction>
   9.000000E+99

> <Gold.Chemscore.Hbonds>
donor molecule, donor type, donor heavy atom, donor atom, acceptor molecule, acceptor atom, score
      L1  H     7    41       P1  7948  0.99
      P1  H  7989  7998       L1     1  0.53

> <Gold.Chemscore.Hbond.Weighted>
-6.0467

> <Gold.Chemscore.Metal.Weighted>
-0.0000

> <Gold.Chemscore.Lipo.Weighted>
-9.5004

> <Gold.Chemscore.Internal_Hbond.Weighted>
0.0000

> <Gold.Chemscore.DEClash.Weighted>
1.2796

> <Gold.Chemscore.DEInternal.Weighted>
0.8241

> <Gold.Chemscore.Rot.Weighted>
3.2399

> <Gold.Chemscore.Internal.Correction.Weighted>
   9.000000E+99

> <Gold.Protein.RotatedTorsions>
[ 6907 6896 6895 6894 ] final  167.66 input  -60.11 | X-H torsion
[ 7974 7965 7964 7962 ] final  -39.70 input  175.53 | X-H torsion
[ 8008 7997 7996 7995 ] final   24.79 input   59.86 | X-H torsion
[ 10167 10162 10161 10158 ] final  -25.83 input  -65.29 | X-H torsion
[ 10718 10713 10712 10709 ] final -179.46 input   66.30 | X-H torsion
[ 10763 10752 10751 10750 ] final -163.51 input  -60.55 | X-H torsion
[ 11005 11000 10999 10996 ] final  -63.99 input  -57.11 | X-H torsion

> <Gold.Protein.ActiveResidues>
 VAL166  LYS551  ARG553  GLY616  TRP617  ASP618  TYR619  PRO620  LYS621  CYS622 
 ASP623  PHE694  ASN695  SER759  ASP760  ASP761  ALA762  ILE779  LEU786  VAL792 
 PHE793  MET794  SER795  GLU796  ALA797  LYS798  CYS799  TRP800  GLU811  SER814 

> <Gold.Protein.RotatedAtoms>
  151.8598  133.3455  159.3699 H   0  0  0  0  0  0  0  0  0  0  0  0  # atno 6907 bound_to 6896
  150.7182  134.5217  159.5666 H   0  0  0  0  0  0  0  0  0  0  0  0  # atno 6908 bound_to 6896
  152.2728  134.7914  160.0462 H   0  0  0  0  0  0  0  0  0  0  0  0  # atno 6909 bound_to 6896
  146.0372  140.6655  142.9104 H   0  0  0  0  0  0  0  0  0  0  0  0  # atno 7974 bound_to 7965
  155.0017  140.3126  155.4864 H   0  0  0  0  0  0  0  0  0  0  0  0  # atno 8008 bound_to 7997
  156.2924  140.2230  156.5068 H   0  0  0  0  0  0  0  0  0  0  0  0  # atno 8009 bound_to 7997
  154.7612  140.0459  157.0963 H   0  0  0  0  0  0  0  0  0  0  0  0  # atno 8010 bound_to 7997
  140.7285  143.4230  151.0920 H   0  0  0  0  0  0  0  0  0  0  0  0  # atno 10167 bound_to 10162
  156.8595  130.9746  151.3085 H   0  0  0  0  0  0  0  0  0  0  0  0  # atno 10718 bound_to 10713
  154.7116  135.3007  154.9188 H   0  0  0  0  0  0  0  0  0  0  0  0  # atno 10763 bound_to 10752
  154.0088  135.6697  153.4768 H   0  0  0  0  0  0  0  0  0  0  0  0  # atno 10764 bound_to 10752
  153.0759  135.5035  154.8317 H   0  0  0  0  0  0  0  0  0  0  0  0  # atno 10765 bound_to 10752
  141.1411  133.6659  156.5765 H   0  0  0  0  0  0  0  0  0  0  0  0  # atno 11005 bound_to 11000
  144.7057  140.3843  143.7120 LP  0  0  0  0  0  0  0  0  0  0  0  0  # atno 17320 bound_to 7965
  145.6943  139.1646  143.2629 LP  0  0  0  0  0  0  0  0  0  0  0  0  # atno 17321 bound_to 7965
  139.7878  143.8262  152.3147 LP  0  0  0  0  0  0  0  0  0  0  0  0  # atno 17342 bound_to 10162
  139.8235  144.7285  150.9542 LP  0  0  0  0  0  0  0  0  0  0  0  0  # atno 17343 bound_to 10162
  157.6258  130.8690  149.9187 LP  0  0  0  0  0  0  0  0  0  0  0  0  # atno 17370 bound_to 10713
  156.0784  130.3676  150.0629 LP  0  0  0  0  0  0  0  0  0  0  0  0  # atno 17371 bound_to 10713
  140.3872  134.7472  157.4698 LP  0  0  0  0  0  0  0  0  0  0  0  0  # atno 17394 bound_to 11000
  140.0593  134.6018  155.8767 LP  0  0  0  0  0  0  0  0  0  0  0  0  # atno 17395 bound_to 11000

$$$$
