AV-unprocessed.smi:3161|AV-procd|sdf|12055|dock7
  -GOLD-   2272017483D 1   1.00000     0.00000
 Structure written by MMmdl.
 41 42  0  0  0  0  0  0  0  0  2 V2000
  146.0491  138.2309  151.9847 C   0  0  0  0  0  0  0  0  0  0  0  0
  146.3835  139.0248  153.2146 C   0  0  0  0  0  0  0  0  0  0  0  0
  145.8848  138.8387  154.5352 C   0  0  0  0  0  0  0  0  0  0  0  0
  146.3781  139.7118  155.3984 N   0  0  0  0  0  0  0  0  0  0  0  0
  147.2087  140.4815  154.6630 N   0  0  0  0  0  0  0  0  0  0  0  0
  147.9368  141.5687  155.2940 C   0  0  0  0  0  0  0  0  0  0  0  0
  149.4620  141.4367  155.1156 C   0  0  2  0  0  0  0  0  0  0  0  0
  149.9202  139.9964  155.3989 C   0  0  0  0  0  0  0  0  0  0  0  0
  150.1651  142.3971  155.9967 N   0  3  0  0  0  0  0  0  0  0  0  0
  150.5463  141.8766  157.3261 C   0  0  0  0  0  0  0  0  0  0  0  0
  151.5959  142.7809  157.9868 C   0  0  2  0  0  0  0  0  0  0  0  0
  152.0736  142.2137  159.3379 C   0  0  0  0  0  0  0  0  0  0  0  0
  153.0482  143.1830  160.0164 C   0  0  0  0  0  0  0  0  0  0  0  0
  152.4125  144.5741  160.1100 C   0  0  0  0  0  0  0  0  0  0  0  0
  151.9082  145.0244  158.7298 C   0  0  0  0  0  0  0  0  0  0  0  0
  151.0012  144.0589  158.2056 O   0  0  0  0  0  0  0  0  0  0  0  0
  147.2299  140.0898  153.3412 C   0  0  0  0  0  0  0  0  0  0  0  0
  145.8150  137.1937  152.2255 H   0  0  0  0  0  0  0  0  0  0  0  0
  146.8768  138.2150  151.2753 H   0  0  0  0  0  0  0  0  0  0  0  0
  145.1856  138.6435  151.4631 H   0  0  0  0  0  0  0  0  0  0  0  0
  145.1815  138.0993  154.8891 H   0  0  0  0  0  0  0  0  0  0  0  0
  147.5791  142.5180  154.8912 H   0  0  0  0  0  0  0  0  0  0  0  0
  147.6826  141.5673  156.3549 H   0  0  0  0  0  0  0  0  0  0  0  0
  149.6998  141.6782  154.0783 H   0  0  0  0  0  0  0  0  0  0  0  0
  149.3904  139.2865  154.7633 H   0  0  0  0  0  0  0  0  0  0  0  0
  149.7300  139.7165  156.4357 H   0  0  0  0  0  0  0  0  0  0  0  0
  150.9849  139.8642  155.2075 H   0  0  0  0  0  0  0  0  0  0  0  0
  151.0164  142.6697  155.5249 H   0  0  0  0  0  0  0  0  0  0  0  0
  149.6683  141.7927  157.9667 H   0  0  0  0  0  0  0  0  0  0  0  0
  150.9543  140.8726  157.2040 H   0  0  0  0  0  0  0  0  0  0  0  0
  152.4504  142.8860  157.3153 H   0  0  0  0  0  0  0  0  0  0  0  0
  151.2157  142.0448  159.9905 H   0  0  0  0  0  0  0  0  0  0  0  0
  152.5531  141.2448  159.1949 H   0  0  0  0  0  0  0  0  0  0  0  0
  153.3180  142.8203  161.0085 H   0  0  0  0  0  0  0  0  0  0  0  0
  153.9725  143.2390  159.4397 H   0  0  0  0  0  0  0  0  0  0  0  0
  151.5786  144.5506  160.8128 H   0  0  0  0  0  0  0  0  0  0  0  0
  153.1326  145.2928  160.5024 H   0  0  0  0  0  0  0  0  0  0  0  0
  151.3937  145.9818  158.8136 H   0  0  0  0  0  0  0  0  0  0  0  0
  152.7406  145.1700  158.0395 H   0  0  0  0  0  0  0  0  0  0  0  0
  147.8395  140.5957  152.6065 H   0  0  0  0  0  0  0  0  0  0  0  0
  149.5909  143.2201  156.1130 H   0  0  0  0  0  0  0  0  0  0  0  0
  1  2  1  0  0  0  0
  1 18  1  0  0  0  0
  1 19  1  0  0  0  0
  1 20  1  0  0  0  0
  2 17  2  0  0  0  0
  2  3  1  0  0  0  0
  3  4  2  0  0  0  0
  3 21  1  0  0  0  0
  4  5  1  0  0  0  0
  5  6  1  0  0  0  0
  5 17  1  0  0  0  0
  6  7  1  0  0  0  0
  6 22  1  0  0  0  0
  6 23  1  0  0  0  0
  7  8  1  0  0  0  0
  7  9  1  0  0  0  0
  7 24  1  0  0  0  0
  8 25  1  0  0  0  0
  8 26  1  0  0  0  0
  8 27  1  0  0  0  0
  9 10  1  0  0  0  0
  9 28  1  0  0  0  0
  9 41  1  0  0  0  0
 10 11  1  0  0  0  0
 10 29  1  0  0  0  0
 10 30  1  0  0  0  0
 11 16  1  0  0  0  0
 11 12  1  0  0  0  0
 11 31  1  0  0  0  0
 12 13  1  0  0  0  0
 12 32  1  0  0  0  0
 12 33  1  0  0  0  0
 13 14  1  0  0  0  0
 13 34  1  0  0  0  0
 13 35  1  0  0  0  0
 14 15  1  0  0  0  0
 14 36  1  0  0  0  0
 14 37  1  0  0  0  0
 15 16  1  0  0  0  0
 15 38  1  0  0  0  0
 15 39  1  0  0  0  0
 17 40  1  0  0  0  0
M  CHG  1   9   1
M  END
> <s_m_source_file>
AV-unprocessed.smi

> <i_m_source_file_index>
3161

> <i_lp_mmshare_version>
43012

> <i_f3d_flags>
0

> <s_epik_input>
W0NIM11jMVtjSF1ubihbY0hdMSlbQ0gyXVtDQEhdKFtDSDNdKVtOSF1bQ0gyXVtDQEBIXTJbQ0gyXVtDSDJdW0NIMl1bQ0gyXU8y

> <s_epik_cmdline>
J2VwaWtfcHl0aG9uJywgJy1waCcsICc3LjAnLCAnLXRuJywgJzgnLCAnLW1hJywgJzIwMCcsICctbWV0YWxfYmluZGluZycsICctaW1hZScsICc8aW5maWxlLm1hZT4nLCAnLW9tYWUnLCAnPG91dGZpbGUubWFlPic=

> <r_lp_tautomer_probability>
1

> <r_epik_Ionization_Penalty>
0.00849661

> <r_epik_Ionization_Penalty_Charging>
0.00848754

> <r_epik_Ionization_Penalty_Neutral>
9.06711e-06

> <r_epik_State_Penalty>
0.00639836

> <r_epik_Charging_Adjusted_Penalty>
0.0148859

> <i_epik_Tot_Q>
1

> <i_epik_Tot_abs_Q>
1

> <r_epik_Metal_State_Penalty>
0.00639921

> <b_epik_Metal_Only>
0

> <s_lp_Force_Field>
OPLS_2005

> <r_lp_Energy>
12.4461

> <b_lp_Chiralities_Consistent>
1

> <s_lp_Variant>
AV-unprocessed.smi:3161-1

> <Gold.Version>
5.8.1

> <Gold.Id.Protein>
6NUR|6NUR_protein|mol2

> <Gold.PLP.Fitness>
44.2083

> <Gold.PLP.PLP>
-36.5785

> <Gold.PLP.part.hbond>
-1.0000

> <Gold.PLP.part.metal>
0.0000

> <Gold.PLP.part.buried>
0.4355

> <Gold.PLP.part.nonpolar>
-36.9454

> <Gold.PLP.part.repulsive>
0.3655

> <Gold.PLP.ligand.clash>
0.0000

> <Gold.PLP.ligand.torsion>
0.5537

> <Gold.PLP.Chemscore.Hbond>
2.0000

> <Gold.PLP.Chemscore.CHOScore>
0.8936

> <Gold.PLP.Chemscore.Metal>
0.0000

> <Gold.Chemscore.Hbonds>
donor molecule, donor type, donor heavy atom, donor atom, acceptor molecule, acceptor atom, score
      L1  H     9    41       P1  8028  2.00
      L1  C    17    40       P1  7957  1.00

> <Gold.PLP.Chemscore.Internal.Correction>
0.0564

> <Gold.Rescore>
     Score         DG    S(hbond)    S(metal)    S(lipo)     H(rot)  DE(clash)    DE(int)     intcor
     16.67     -18.13       0.99        0.00     114.21       1.57       0.71       0.74       ----

> <Gold.Chemscore.Fitness>
16.6743

> <Gold.Chemscore.DG>
-18.1312

> <Gold.Chemscore.ZeroCoef>
-5.4800

> <Gold.Chemscore.Hbond>
0.9914

> <Gold.Chemscore.Metal>
0.0000

> <Gold.Chemscore.Lipo>
114.2113

> <Gold.Chemscore.Internal_Hbond>
0.0000

> <Gold.Chemscore.DEClash>
0.7149

> <Gold.Chemscore.DEInternal>
0.7419

> <Gold.Chemscore.Rot>
1.5714

> <Gold.Chemscore.Internal.Correction>
   9.000000E+99

> <Gold.Chemscore.Hbonds>
donor molecule, donor type, donor heavy atom, donor atom, acceptor molecule, acceptor atom, score
      L1  H     9    41       P1  8028  0.99

> <Gold.Chemscore.Hbond.Weighted>
-3.3113

> <Gold.Chemscore.Metal.Weighted>
-0.0000

> <Gold.Chemscore.Lipo.Weighted>
-13.3627

> <Gold.Chemscore.Internal_Hbond.Weighted>
0.0000

> <Gold.Chemscore.DEClash.Weighted>
0.7149

> <Gold.Chemscore.DEInternal.Weighted>
0.7419

> <Gold.Chemscore.Rot.Weighted>
4.0228

> <Gold.Chemscore.Internal.Correction.Weighted>
   9.000000E+99

> <Gold.Protein.RotatedTorsions>
[ 6907 6896 6895 6894 ] final   36.82 input  -60.11 | X-H torsion
[ 7974 7965 7964 7962 ] final  148.88 input  175.53 | X-H torsion
[ 8008 7997 7996 7995 ] final   59.16 input   59.86 | X-H torsion
[ 10167 10162 10161 10158 ] final   50.47 input  -65.29 | X-H torsion
[ 10718 10713 10712 10709 ] final -136.91 input   66.30 | X-H torsion
[ 10763 10752 10751 10750 ] final  -86.04 input  -60.55 | X-H torsion
[ 11005 11000 10999 10996 ] final -122.86 input  -57.11 | X-H torsion

> <Gold.Protein.ActiveResidues>
 VAL166  LYS551  ARG553  GLY616  TRP617  ASP618  TYR619  PRO620  LYS621  CYS622 
 ASP623  PHE694  ASN695  SER759  ASP760  ASP761  ALA762  ILE779  LEU786  VAL792 
 PHE793  MET794  SER795  GLU796  ALA797  LYS798  CYS799  TRP800  GLU811  SER814 

> <Gold.Protein.RotatedAtoms>
  152.1349  134.9107  160.0556 H   0  0  0  0  0  0  0  0  0  0  0  0  # atno 6907 bound_to 6896
  152.0197  133.3889  159.4261 H   0  0  0  0  0  0  0  0  0  0  0  0  # atno 6908 bound_to 6896
  150.6859  134.3561  159.4974 H   0  0  0  0  0  0  0  0  0  0  0  0  # atno 6909 bound_to 6896
  144.8480  139.6210  143.5986 H   0  0  0  0  0  0  0  0  0  0  0  0  # atno 7974 bound_to 7965
  155.5617  140.3488  155.4493 H   0  0  0  0  0  0  0  0  0  0  0  0  # atno 8008 bound_to 7997
  156.0509  140.1317  157.0076 H   0  0  0  0  0  0  0  0  0  0  0  0  # atno 8009 bound_to 7997
  154.4434  140.1005  156.6360 H   0  0  0  0  0  0  0  0  0  0  0  0  # atno 8010 bound_to 7997
  140.2721  144.3254  150.6287 H   0  0  0  0  0  0  0  0  0  0  0  0  # atno 10167 bound_to 10162
  156.2822  130.7327  151.1328 H   0  0  0  0  0  0  0  0  0  0  0  0  # atno 10718 bound_to 10713
  154.6179  135.5463  153.7544 H   0  0  0  0  0  0  0  0  0  0  0  0  # atno 10763 bound_to 10752
  153.0225  135.6405  154.1483 H   0  0  0  0  0  0  0  0  0  0  0  0  # atno 10764 bound_to 10752
  154.1418  135.2908  155.3139 H   0  0  0  0  0  0  0  0  0  0  0  0  # atno 10765 bound_to 10752
  140.9963  134.0467  157.3593 H   0  0  0  0  0  0  0  0  0  0  0  0  # atno 11005 bound_to 11000
  146.2761  139.6756  142.9262 LP  0  0  0  0  0  0  0  0  0  0  0  0  # atno 17320 bound_to 7965
  145.4557  141.0430  143.2779 LP  0  0  0  0  0  0  0  0  0  0  0  0  # atno 17321 bound_to 7965
  140.5881  143.2169  151.7304 LP  0  0  0  0  0  0  0  0  0  0  0  0  # atno 17342 bound_to 10162
  139.4986  144.3980  152.0211 LP  0  0  0  0  0  0  0  0  0  0  0  0  # atno 17343 bound_to 10162
  157.7318  131.0605  150.5661 LP  0  0  0  0  0  0  0  0  0  0  0  0  # atno 17370 bound_to 10713
  156.5768  130.4294  149.5995 LP  0  0  0  0  0  0  0  0  0  0  0  0  # atno 17371 bound_to 10713
  139.9016  135.0166  156.7296 LP  0  0  0  0  0  0  0  0  0  0  0  0  # atno 17394 bound_to 11000
  140.6960  133.9348  155.7995 LP  0  0  0  0  0  0  0  0  0  0  0  0  # atno 17395 bound_to 11000

$$$$
