AV-unprocessed.smi:1610|AV-procd|sdf|6471|dock6
  -GOLD-   22720 7123D 1   1.00000     0.00000
 Structure written by MMmdl.
 45 46  0  0  0  0  0  0  0  0  2 V2000
  151.5051  139.6815  157.8923 C   0  0  0  0  0  0  0  0  0  0  0  0
  151.5457  139.6344  156.0542 S   0  0  0  0  0  0  0  0  0  0  0  0
  151.0487  140.9185  155.5369 O   0  0  0  0  0  0  0  0  0  0  0  0
  152.8589  139.1224  155.6347 O   0  0  0  0  0  0  0  0  0  0  0  0
  150.3789  138.4220  155.6711 N   0  0  0  0  0  0  0  0  0  0  0  0
  148.9890  138.7708  155.3698 C   0  0  0  0  0  0  0  0  0  0  0  0
  148.1440  137.4907  155.1997 C   0  0  0  0  0  0  0  0  0  0  0  0
  146.7295  137.8307  154.6981 C   0  0  0  0  0  0  0  0  0  0  0  0
  146.8437  138.5862  153.4387 N   0  0  0  0  0  0  0  0  0  0  0  0
  146.5677  138.1222  152.1932 C   0  0  0  0  0  0  0  0  0  0  0  0
  146.9425  138.6842  151.1632 O   0  0  0  0  0  0  0  0  0  0  0  0
  145.8475  136.9891  152.1612 N   0  0  0  0  0  0  0  0  0  0  0  0
  145.4323  136.3050  150.9448 C   0  0  0  0  0  0  0  0  0  0  0  0
  144.3516  135.2611  151.2552 C   0  0  0  0  0  0  0  0  0  0  0  0
  144.8838  133.8445  151.1592 C   0  0  0  0  0  0  0  0  0  0  0  0
  144.0081  132.7398  151.2492 C   0  0  0  0  0  0  0  0  0  0  0  0
  144.5325  131.4333  151.1621 C   0  0  0  0  0  0  0  0  0  0  0  0
  145.9210  131.2608  150.9874 C   0  0  0  0  0  0  0  0  0  0  0  0
  146.7277  132.3417  150.9063 N   0  3  0  0  0  0  0  0  0  0  0  0
  146.2648  133.6087  150.9855 C   0  0  0  0  0  0  0  0  0  0  0  0
  147.4790  139.8917  153.6603 C   0  0  0  0  0  0  0  0  0  0  0  0
  148.9331  139.6650  154.1139 C   0  0  0  0  0  0  0  0  0  0  0  0
  152.2549  140.3862  158.2509 H   0  0  0  0  0  0  0  0  0  0  0  0
  151.7218  138.6901  158.2891 H   0  0  0  0  0  0  0  0  0  0  0  0
  150.5207  140.0040  158.2300 H   0  0  0  0  0  0  0  0  0  0  0  0
  150.5174  137.5320  156.1495 H   0  0  0  0  0  0  0  0  0  0  0  0
  148.5813  139.3429  156.2044 H   0  0  0  0  0  0  0  0  0  0  0  0
  148.6251  136.8184  154.4874 H   0  0  0  0  0  0  0  0  0  0  0  0
  148.0820  136.9486  156.1432 H   0  0  0  0  0  0  0  0  0  0  0  0
  146.1343  136.9211  154.6182 H   0  0  0  0  0  0  0  0  0  0  0  0
  146.2131  138.4450  155.4374 H   0  0  0  0  0  0  0  0  0  0  0  0
  145.5717  136.5764  153.0405 H   0  0  0  0  0  0  0  0  0  0  0  0
  145.0542  137.0417  150.2345 H   0  0  0  0  0  0  0  0  0  0  0  0
  146.2948  135.8219  150.4818 H   0  0  0  0  0  0  0  0  0  0  0  0
  143.9519  135.4225  152.2574 H   0  0  0  0  0  0  0  0  0  0  0  0
  143.5124  135.3740  150.5673 H   0  0  0  0  0  0  0  0  0  0  0  0
  142.9469  132.8902  151.3857 H   0  0  0  0  0  0  0  0  0  0  0  0
  143.8788  130.5759  151.2293 H   0  0  0  0  0  0  0  0  0  0  0  0
  146.4072  130.2989  150.9115 H   0  0  0  0  0  0  0  0  0  0  0  0
  147.0087  134.3886  150.9095 H   0  0  0  0  0  0  0  0  0  0  0  0
  147.4619  140.5273  152.7739 H   0  0  0  0  0  0  0  0  0  0  0  0
  146.9277  140.4396  154.4260 H   0  0  0  0  0  0  0  0  0  0  0  0
  149.4156  140.6224  154.3143 H   0  0  0  0  0  0  0  0  0  0  0  0
  149.4931  139.2004  153.3005 H   0  0  0  0  0  0  0  0  0  0  0  0
  147.7297  132.1949  150.7806 H   0  0  0  0  0  0  0  0  0  0  0  0
  1  2  1  0  0  0  0
  1 23  1  0  0  0  0
  1 24  1  0  0  0  0
  1 25  1  0  0  0  0
  2  3  2  0  0  0  0
  2  4  2  0  0  0  0
  2  5  1  0  0  0  0
  5  6  1  0  0  0  0
  5 26  1  0  0  0  0
  6 22  1  0  0  0  0
  6  7  1  0  0  0  0
  6 27  1  0  0  0  0
  7  8  1  0  0  0  0
  7 28  1  0  0  0  0
  7 29  1  0  0  0  0
  8  9  1  0  0  0  0
  8 30  1  0  0  0  0
  8 31  1  0  0  0  0
  9 10  1  0  0  0  0
  9 21  1  0  0  0  0
 10 11  2  0  0  0  0
 10 12  1  0  0  0  0
 12 13  1  0  0  0  0
 12 32  1  0  0  0  0
 13 14  1  0  0  0  0
 13 33  1  0  0  0  0
 13 34  1  0  0  0  0
 14 15  1  0  0  0  0
 14 35  1  0  0  0  0
 14 36  1  0  0  0  0
 15 20  1  0  0  0  0
 15 16  2  0  0  0  0
 16 17  1  0  0  0  0
 16 37  1  0  0  0  0
 17 18  2  0  0  0  0
 17 38  1  0  0  0  0
 18 19  1  0  0  0  0
 18 39  1  0  0  0  0
 19 20  2  0  0  0  0
 19 45  1  0  0  0  0
 20 40  1  0  0  0  0
 21 22  1  0  0  0  0
 21 41  1  0  0  0  0
 21 42  1  0  0  0  0
 22 43  1  0  0  0  0
 22 44  1  0  0  0  0
M  CHG  1  19   1
M  END
> <s_m_source_file>
AV-unprocessed.smi

> <i_m_source_file_index>
1610

> <i_lp_mmshare_version>
43012

> <i_f3d_flags>
0

> <s_epik_input>
W0NIM11TKD1PKSg9TylbTkhdW0NIXTFbQ0gyXVtDSDJdTihbQ0gyXVtDSDJdMSlDKD1PKVtOSF1bQ0gyXVtDSDJdYzJbY0hdW2NIXVtjSF1uW2NIXTI=

> <s_epik_cmdline>
J2VwaWtfcHl0aG9uJywgJy1waCcsICc3LjAnLCAnLXRuJywgJzgnLCAnLW1hJywgJzIwMCcsICctbWV0YWxfYmluZGluZycsICctaW1hZScsICc8aW5maWxlLm1hZT4nLCAnLW9tYWUnLCAnPG91dGZpbGUubWFlPic=

> <r_epik_Ionization_Penalty>
2.20747

> <r_epik_Ionization_Penalty_Charging>
2.20741

> <r_epik_Ionization_Penalty_Neutral>
6.06433e-05

> <r_epik_State_Penalty>
2.35137

> <r_epik_Charging_Adjusted_Penalty>
4.55877

> <i_epik_Tot_Q>
1

> <i_epik_Tot_abs_Q>
1

> <r_epik_Metal_State_Penalty>
2.37242

> <b_epik_Metal_Only>
0

> <s_lp_Force_Field>
OPLS_2005

> <r_lp_Energy>
29.2562

> <b_lp_Chiralities_Consistent>
1

> <s_lp_Variant>
AV-unprocessed.smi:1610-2

> <Gold.Version>
5.8.1

> <Gold.Id.Protein>
6NUR|6NUR_protein|mol2

> <Gold.PLP.Fitness>
45.4336

> <Gold.PLP.PLP>
-35.5975

> <Gold.PLP.part.hbond>
-4.1284

> <Gold.PLP.part.metal>
0.0000

> <Gold.PLP.part.buried>
-2.2781

> <Gold.PLP.part.nonpolar>
-30.7936

> <Gold.PLP.part.repulsive>
1.1031

> <Gold.PLP.ligand.clash>
0.0000

> <Gold.PLP.ligand.torsion>
1.0693

> <Gold.PLP.Chemscore.Hbond>
3.6400

> <Gold.PLP.Chemscore.CHOScore>
0.0000

> <Gold.PLP.Chemscore.Metal>
0.0000

> <Gold.Chemscore.Hbonds>
donor molecule, donor type, donor heavy atom, donor atom, acceptor molecule, acceptor atom, score
      L1  H    19    45       P1 10747  0.83
      P1  H  7954  7966       L1    11  0.99
      P1  H  7989  7998       L1     3  0.57
      P1  H  7997  8009       L1     4  1.00

> <Gold.PLP.Chemscore.Internal.Correction>
1.0548

> <Gold.Rescore>
     Score         DG    S(hbond)    S(metal)    S(lipo)     H(rot)  DE(clash)    DE(int)     intcor
     15.96     -21.34       3.29        0.00      81.42       1.81       3.06       2.32       ----

> <Gold.Chemscore.Fitness>
15.9648

> <Gold.Chemscore.DG>
-21.3429

> <Gold.Chemscore.ZeroCoef>
-5.4800

> <Gold.Chemscore.Hbond>
3.2864

> <Gold.Chemscore.Metal>
0.0000

> <Gold.Chemscore.Lipo>
81.4188

> <Gold.Chemscore.Internal_Hbond>
0.0000

> <Gold.Chemscore.DEClash>
3.0583

> <Gold.Chemscore.DEInternal>
2.3199

> <Gold.Chemscore.Rot>
1.8123

> <Gold.Chemscore.Internal.Correction>
   9.000000E+99

> <Gold.Chemscore.Hbonds>
donor molecule, donor type, donor heavy atom, donor atom, acceptor molecule, acceptor atom, score
      L1  H    19    45       P1 10747  0.83
      P1  H  7954  7966       L1    11  0.93
      P1  H  7989  7998       L1     3  0.25
      P1  H  7997  8009       L1     4  0.96

> <Gold.Chemscore.Hbond.Weighted>
-10.9765

> <Gold.Chemscore.Metal.Weighted>
-0.0000

> <Gold.Chemscore.Lipo.Weighted>
-9.5260

> <Gold.Chemscore.Internal_Hbond.Weighted>
0.0000

> <Gold.Chemscore.DEClash.Weighted>
3.0583

> <Gold.Chemscore.DEInternal.Weighted>
2.3199

> <Gold.Chemscore.Rot.Weighted>
4.6395

> <Gold.Chemscore.Internal.Correction.Weighted>
   9.000000E+99

> <Gold.Protein.RotatedTorsions>
[ 6907 6896 6895 6894 ] final   97.93 input  -60.11 | X-H torsion
[ 7974 7965 7964 7962 ] final  -21.79 input  175.53 | X-H torsion
[ 8008 7997 7996 7995 ] final -139.53 input   59.86 | X-H torsion
[ 10167 10162 10161 10158 ] final -138.86 input  -65.29 | X-H torsion
[ 10718 10713 10712 10709 ] final -172.68 input   66.30 | X-H torsion
[ 10763 10752 10751 10750 ] final -155.66 input  -60.55 | X-H torsion
[ 11005 11000 10999 10996 ] final  160.56 input  -57.11 | X-H torsion

> <Gold.Protein.ActiveResidues>
 VAL166  LYS551  ARG553  GLY616  TRP617  ASP618  TYR619  PRO620  LYS621  CYS622 
 ASP623  PHE694  ASN695  SER759  ASP760  ASP761  ALA762  ILE779  LEU786  VAL792 
 PHE793  MET794  SER795  GLU796  ALA797  LYS798  CYS799  TRP800  GLU811  SER814 

> <Gold.Protein.RotatedAtoms>
  152.5416  134.0657  159.8171 H   0  0  0  0  0  0  0  0  0  0  0  0  # atno 6907 bound_to 6896
  151.0779  133.5406  159.2630 H   0  0  0  0  0  0  0  0  0  0  0  0  # atno 6908 bound_to 6896
  151.2244  135.0539  159.9017 H   0  0  0  0  0  0  0  0  0  0  0  0  # atno 6909 bound_to 6896
  146.1713  140.4390  142.8531 H   0  0  0  0  0  0  0  0  0  0  0  0  # atno 7974 bound_to 7965
  155.4465  140.0535  157.3005 H   0  0  0  0  0  0  0  0  0  0  0  0  # atno 8008 bound_to 7997
  154.4796  140.2075  155.9753 H   0  0  0  0  0  0  0  0  0  0  0  0  # atno 8009 bound_to 7997
  156.1185  140.3192  155.8178 H   0  0  0  0  0  0  0  0  0  0  0  0  # atno 8010 bound_to 7997
  139.8437  143.7289  152.2662 H   0  0  0  0  0  0  0  0  0  0  0  0  # atno 10167 bound_to 10162
  156.7592  130.9407  151.3117 H   0  0  0  0  0  0  0  0  0  0  0  0  # atno 10718 bound_to 10713
  154.7771  135.3163  154.8069 H   0  0  0  0  0  0  0  0  0  0  0  0  # atno 10763 bound_to 10752
  153.8790  135.6837  153.4772 H   0  0  0  0  0  0  0  0  0  0  0  0  # atno 10764 bound_to 10752
  153.1397  135.4744  154.9413 H   0  0  0  0  0  0  0  0  0  0  0  0  # atno 10765 bound_to 10752
  140.2071  134.8295  157.3081 H   0  0  0  0  0  0  0  0  0  0  0  0  # atno 11005 bound_to 11000
  144.8167  140.6480  143.6380 LP  0  0  0  0  0  0  0  0  0  0  0  0  # atno 17320 bound_to 7965
  145.4333  139.1546  143.4010 LP  0  0  0  0  0  0  0  0  0  0  0  0  # atno 17321 bound_to 7965
  139.7534  144.7528  151.0472 LP  0  0  0  0  0  0  0  0  0  0  0  0  # atno 17342 bound_to 10162
  140.7795  143.4834  150.9988 LP  0  0  0  0  0  0  0  0  0  0  0  0  # atno 17343 bound_to 10162
  157.6742  130.9079  150.0111 LP  0  0  0  0  0  0  0  0  0  0  0  0  # atno 17370 bound_to 10713
  156.1350  130.3643  149.9671 LP  0  0  0  0  0  0  0  0  0  0  0  0  # atno 17371 bound_to 10713
  140.1991  134.4277  155.7673 LP  0  0  0  0  0  0  0  0  0  0  0  0  # atno 17394 bound_to 11000
  141.2227  133.7063  156.8154 LP  0  0  0  0  0  0  0  0  0  0  0  0  # atno 17395 bound_to 11000

$$$$
