AV-unprocessed.smi:1046|AV-procd|sdf|4552|dock3
  -GOLD-   22720 2583D 1   1.00000     0.00000
 Structure written by MMmdl.
 54 56  0  0  0  0  0  0  0  0  3 V2000
  153.1391  141.1748  159.2168 C   0  0  0  0  0  0  0  0  0  0  0  0
  152.1199  141.1351  158.0909 C   0  0  0  0  0  0  0  0  0  0  0  0
  152.2061  140.0938  157.1396 C   0  0  0  0  0  0  0  0  0  0  0  0
  151.2580  140.0829  156.1235 C   0  0  0  0  0  0  0  0  0  0  0  0
  151.0780  139.2056  155.0524 N   0  3  0  0  0  0  0  0  0  0  0  0
  150.0036  139.6018  154.3160 C   0  0  0  0  0  0  0  0  0  0  0  0
  149.4947  140.7213  154.8993 N   0  0  0  0  0  0  0  0  0  0  0  0
  148.3371  141.5380  154.5055 C   0  0  0  0  0  0  0  0  0  0  0  0
  147.3425  140.7757  153.6078 C   0  0  2  0  0  0  0  0  0  0  0  0
  146.2964  141.6428  153.2130 O   0  0  0  0  0  0  0  0  0  0  0  0
  146.7334  139.5606  154.3364 C   0  0  0  0  0  0  0  0  0  0  0  0
  145.8251  138.7649  153.4711 N   0  3  0  0  0  0  0  0  0  0  0  0
  145.2109  137.6225  154.1964 C   0  0  0  0  0  0  0  0  0  0  0  0
  144.2268  136.8667  153.2799 C   0  0  0  0  0  0  0  0  0  0  0  0
  144.8419  136.3859  152.0432 N   0  0  0  0  0  0  0  0  0  0  0  0
  145.7575  135.2618  152.2649 C   0  0  0  0  0  0  0  0  0  0  0  0
  146.2003  134.5257  150.9902 C   0  0  0  0  0  0  0  0  0  0  0  0
  145.2461  134.7382  149.9732 O   0  0  0  0  0  0  0  0  0  0  0  0
  145.4384  137.5285  151.3473 C   0  0  0  0  0  0  0  0  0  0  0  0
  146.4583  138.3035  152.2061 C   0  0  0  0  0  0  0  0  0  0  0  0
  150.2471  141.0598  156.0316 C   0  0  0  0  0  0  0  0  0  0  0  0
  150.1507  142.0945  156.9597 C   0  0  0  0  0  0  0  0  0  0  0  0
  151.1067  142.1242  158.0002 C   0  0  0  0  0  0  0  0  0  0  0  0
  151.0253  143.2421  159.0262 C   0  0  0  0  0  0  0  0  0  0  0  0
  153.8071  140.3137  159.1807 H   0  0  0  0  0  0  0  0  0  0  0  0
  152.6412  141.1682  160.1868 H   0  0  0  0  0  0  0  0  0  0  0  0
  153.7505  142.0749  159.1464 H   0  0  0  0  0  0  0  0  0  0  0  0
  152.9764  139.3387  157.2007 H   0  0  0  0  0  0  0  0  0  0  0  0
  149.6240  139.1140  153.4298 H   0  0  0  0  0  0  0  0  0  0  0  0
  147.8400  141.8463  155.4262 H   0  0  0  0  0  0  0  0  0  0  0  0
  148.6844  142.4545  154.0280 H   0  0  0  0  0  0  0  0  0  0  0  0
  147.8708  140.4552  152.7104 H   0  0  0  0  0  0  0  0  0  0  0  0
  145.4879  141.1534  153.1883 H   0  0  0  0  0  0  0  0  0  0  0  0
  147.5207  138.9094  154.7194 H   0  0  0  0  0  0  0  0  0  0  0  0
  146.1871  139.9197  155.2102 H   0  0  0  0  0  0  0  0  0  0  0  0
  145.9900  136.9549  154.5675 H   0  0  0  0  0  0  0  0  0  0  0  0
  144.6725  137.9923  155.0699 H   0  0  0  0  0  0  0  0  0  0  0  0
  143.7821  136.0313  153.8222 H   0  0  0  0  0  0  0  0  0  0  0  0
  143.3980  137.5303  153.0289 H   0  0  0  0  0  0  0  0  0  0  0  0
  146.6391  135.5872  152.8166 H   0  0  0  0  0  0  0  0  0  0  0  0
  145.2603  134.5334  152.9073 H   0  0  0  0  0  0  0  0  0  0  0  0
  147.1697  134.8920  150.6505 H   0  0  0  0  0  0  0  0  0  0  0  0
  146.2910  133.4524  151.1553 H   0  0  0  0  0  0  0  0  0  0  0  0
  145.6994  134.8288  149.1485 H   0  0  0  0  0  0  0  0  0  0  0  0
  145.9026  137.2091  150.4151 H   0  0  0  0  0  0  0  0  0  0  0  0
  144.6423  138.2132  151.0513 H   0  0  0  0  0  0  0  0  0  0  0  0
  146.8201  139.1563  151.6333 H   0  0  0  0  0  0  0  0  0  0  0  0
  147.3293  137.6854  152.4263 H   0  0  0  0  0  0  0  0  0  0  0  0
  149.3820  142.8494  156.8950 H   0  0  0  0  0  0  0  0  0  0  0  0
  150.2410  143.9573  158.7759 H   0  0  0  0  0  0  0  0  0  0  0  0
  151.9673  143.7886  159.0768 H   0  0  0  0  0  0  0  0  0  0  0  0
  150.8053  142.8372  160.0144 H   0  0  0  0  0  0  0  0  0  0  0  0
  145.0628  139.3762  153.2139 H   0  0  0  0  0  0  0  0  0  0  0  0
  151.6444  138.3945  154.8387 H   0  0  0  0  0  0  0  0  0  0  0  0
  1  2  1  0  0  0  0
  1 25  1  0  0  0  0
  1 26  1  0  0  0  0
  1 27  1  0  0  0  0
  2 23  1  0  0  0  0
  2  3  2  0  0  0  0
  3  4  1  0  0  0  0
  3 28  1  0  0  0  0
  4 21  2  0  0  0  0
  4  5  1  0  0  0  0
  5  6  2  0  0  0  0
  5 54  1  0  0  0  0
  6  7  1  0  0  0  0
  6 29  1  0  0  0  0
  7  8  1  0  0  0  0
  7 21  1  0  0  0  0
  8  9  1  0  0  0  0
  8 30  1  0  0  0  0
  8 31  1  0  0  0  0
  9 10  1  0  0  0  0
  9 11  1  0  0  0  0
  9 32  1  0  0  0  0
 10 33  1  0  0  0  0
 11 12  1  0  0  0  0
 11 34  1  0  0  0  0
 11 35  1  0  0  0  0
 12 20  1  0  0  0  0
 12 13  1  0  0  0  0
 12 53  1  0  0  0  0
 13 14  1  0  0  0  0
 13 36  1  0  0  0  0
 13 37  1  0  0  0  0
 14 15  1  0  0  0  0
 14 38  1  0  0  0  0
 14 39  1  0  0  0  0
 15 16  1  0  0  0  0
 15 19  1  0  0  0  0
 16 17  1  0  0  0  0
 16 40  1  0  0  0  0
 16 41  1  0  0  0  0
 17 18  1  0  0  0  0
 17 42  1  0  0  0  0
 17 43  1  0  0  0  0
 18 44  1  0  0  0  0
 19 20  1  0  0  0  0
 19 45  1  0  0  0  0
 19 46  1  0  0  0  0
 20 47  1  0  0  0  0
 20 48  1  0  0  0  0
 21 22  1  0  0  0  0
 22 23  2  0  0  0  0
 22 49  1  0  0  0  0
 23 24  1  0  0  0  0
 24 50  1  0  0  0  0
 24 51  1  0  0  0  0
 24 52  1  0  0  0  0
M  CHG  1   5   1
M  CHG  1  12   1
M  END
> <s_m_source_file>
AV-unprocessed.smi

> <i_m_source_file_index>
1046

> <i_lp_mmshare_version>
43012

> <i_f3d_flags>
0

> <s_epik_input>
W0NIM11jKFtjSF0xKWMoW0NIM10pW2NIXWMoYzEyKW4oW2NIXW4yKVtDSDJdW0NASF0oW09IXSlbQ0gyXU4zW0NIMl1bQ0gyXU4oW0NIMl1bQ0gyXTMpW0NIMl1bQ0gyXVtPSF0=

> <s_epik_cmdline>
J2VwaWtfcHl0aG9uJywgJy1waCcsICc3LjAnLCAnLXRuJywgJzgnLCAnLW1hJywgJzIwMCcsICctbWV0YWxfYmluZGluZycsICctaW1hZScsICc8aW5maWxlLm1hZT4nLCAnLW9tYWUnLCAnPG91dGZpbGUubWFlPic=

> <r_epik_Ionization_Penalty>
1.22056

> <r_epik_Ionization_Penalty_Charging>
1.17959

> <r_epik_Ionization_Penalty_Neutral>
0.0409743

> <r_epik_State_Penalty>
1.27074

> <r_epik_Charging_Adjusted_Penalty>
2.45032

> <i_epik_Tot_Q>
2

> <i_epik_Tot_abs_Q>
2

> <r_epik_Metal_State_Penalty>
5.26922

> <b_epik_Metal_Only>
0

> <s_lp_Force_Field>
OPLS_2005

> <r_lp_Energy>
41.2385

> <b_lp_Chiralities_Consistent>
1

> <s_lp_Variant>
AV-unprocessed.smi:1046-5

> <Gold.Version>
5.8.1

> <Gold.Id.Protein>
6NUR|6NUR_protein|mol2

> <Gold.PLP.Fitness>
51.0051

> <Gold.PLP.PLP>
-37.7122

> <Gold.PLP.part.hbond>
-3.0000

> <Gold.PLP.part.metal>
0.0000

> <Gold.PLP.part.buried>
2.3438

> <Gold.PLP.part.nonpolar>
-37.3779

> <Gold.PLP.part.repulsive>
0.2817

> <Gold.PLP.ligand.clash>
0.0000

> <Gold.PLP.ligand.torsion>
0.6219

> <Gold.PLP.Chemscore.Hbond>
3.9100

> <Gold.PLP.Chemscore.CHOScore>
0.9015

> <Gold.PLP.Chemscore.Metal>
0.0000

> <Gold.Chemscore.Hbonds>
donor molecule, donor type, donor heavy atom, donor atom, acceptor molecule, acceptor atom, score
      L1  H    10    33       P1 10175  0.98
      L1  H    12    53       P1 10175  2.00
      L1  H    18    44       P1  7921  1.00
      L1  C     6    29       P1  7957  0.93

> <Gold.PLP.Chemscore.Internal.Correction>
0.1020

> <Gold.Rescore>
     Score         DG    S(hbond)    S(metal)    S(lipo)     H(rot)  DE(clash)    DE(int)     intcor
     15.00     -17.64       2.46        0.00     105.64       3.29       2.05       0.59       ----

> <Gold.Chemscore.Fitness>
14.9980

> <Gold.Chemscore.DG>
-17.6382

> <Gold.Chemscore.ZeroCoef>
-5.4800

> <Gold.Chemscore.Hbond>
2.4611

> <Gold.Chemscore.Metal>
0.0000

> <Gold.Chemscore.Lipo>
105.6387

> <Gold.Chemscore.Internal_Hbond>
0.0000

> <Gold.Chemscore.DEClash>
2.0455

> <Gold.Chemscore.DEInternal>
0.5947

> <Gold.Chemscore.Rot>
3.2896

> <Gold.Chemscore.Internal.Correction>
   9.000000E+99

> <Gold.Chemscore.Hbonds>
donor molecule, donor type, donor heavy atom, donor atom, acceptor molecule, acceptor atom, score
      L1  H    10    33       P1 10175  0.23
      L1  H    12    53       P1 10175  1.00
      L1  H    18    44       P1  7921  0.95

> <Gold.Chemscore.Hbond.Weighted>
-8.2200

> <Gold.Chemscore.Metal.Weighted>
-0.0000

> <Gold.Chemscore.Lipo.Weighted>
-12.3597

> <Gold.Chemscore.Internal_Hbond.Weighted>
0.0000

> <Gold.Chemscore.DEClash.Weighted>
2.0455

> <Gold.Chemscore.DEInternal.Weighted>
0.5947

> <Gold.Chemscore.Rot.Weighted>
8.4215

> <Gold.Chemscore.Internal.Correction.Weighted>
   9.000000E+99

> <Gold.Protein.RotatedTorsions>
[ 6907 6896 6895 6894 ] final  112.24 input  -60.11 | X-H torsion
[ 7974 7965 7964 7962 ] final  -99.02 input  175.53 | X-H torsion
[ 8008 7997 7996 7995 ] final  -77.62 input   59.86 | X-H torsion
[ 10167 10162 10161 10158 ] final   24.41 input  -65.29 | X-H torsion
[ 10718 10713 10712 10709 ] final   28.86 input   66.30 | X-H torsion
[ 10763 10752 10751 10750 ] final  -78.71 input  -60.55 | X-H torsion
[ 11005 11000 10999 10996 ] final  122.96 input  -57.11 | X-H torsion

> <Gold.Protein.ActiveResidues>
 VAL166  LYS551  ARG553  GLY616  TRP617  ASP618  TYR619  PRO620  LYS621  CYS622 
 ASP623  PHE694  ASN695  SER759  ASP760  ASP761  ALA762  ILE779  LEU786  VAL792 
 PHE793  MET794  SER795  GLU796  ALA797  LYS798  CYS799  TRP800  GLU811  SER814 

> <Gold.Protein.RotatedAtoms>
  152.4927  133.8545  159.7218 H   0  0  0  0  0  0  0  0  0  0  0  0  # atno 6907 bound_to 6896
  150.9073  133.7033  159.2870 H   0  0  0  0  0  0  0  0  0  0  0  0  # atno 6908 bound_to 6896
  151.4454  135.1028  159.9735 H   0  0  0  0  0  0  0  0  0  0  0  0  # atno 6909 bound_to 6896
  145.3130  140.9404  143.2759 H   0  0  0  0  0  0  0  0  0  0  0  0  # atno 7974 bound_to 7965
  154.5613  140.0707  156.8824 H   0  0  0  0  0  0  0  0  0  0  0  0  # atno 8008 bound_to 7997
  155.2805  140.3371  155.4240 H   0  0  0  0  0  0  0  0  0  0  0  0  # atno 8009 bound_to 7997
  156.2045  140.1734  156.7815 H   0  0  0  0  0  0  0  0  0  0  0  0  # atno 8010 bound_to 7997
  140.5190  144.0034  150.6407 H   0  0  0  0  0  0  0  0  0  0  0  0  # atno 10167 bound_to 10162
  157.2391  130.7060  149.6350 H   0  0  0  0  0  0  0  0  0  0  0  0  # atno 10718 bound_to 10713
  154.5294  135.5720  153.6746 H   0  0  0  0  0  0  0  0  0  0  0  0  # atno 10763 bound_to 10752
  152.9935  135.6201  154.2649 H   0  0  0  0  0  0  0  0  0  0  0  0  # atno 10764 bound_to 10752
  154.2575  135.2857  155.2771 H   0  0  0  0  0  0  0  0  0  0  0  0  # atno 10765 bound_to 10752
  139.9291  134.9641  156.8188 H   0  0  0  0  0  0  0  0  0  0  0  0  # atno 11005 bound_to 11000
  144.9000  139.4661  143.6637 LP  0  0  0  0  0  0  0  0  0  0  0  0  # atno 17320 bound_to 7965
  146.3111  139.7749  142.9019 LP  0  0  0  0  0  0  0  0  0  0  0  0  # atno 17321 bound_to 7965
  140.3378  143.3038  152.0620 LP  0  0  0  0  0  0  0  0  0  0  0  0  # atno 17342 bound_to 10162
  139.4918  144.6464  151.6769 LP  0  0  0  0  0  0  0  0  0  0  0  0  # atno 17343 bound_to 10162
  155.9671  130.4464  150.5539 LP  0  0  0  0  0  0  0  0  0  0  0  0  # atno 17370 bound_to 10713
  157.3398  131.0714  151.1797 LP  0  0  0  0  0  0  0  0  0  0  0  0  # atno 17371 bound_to 10713
  140.6251  133.9957  155.7636 LP  0  0  0  0  0  0  0  0  0  0  0  0  # atno 17394 bound_to 11000
  141.0869  133.9977  157.3299 LP  0  0  0  0  0  0  0  0  0  0  0  0  # atno 17395 bound_to 11000

$$$$
