AV-unprocessed.smi:1996|AV-procd|sdf|8085|dock4
  -GOLD-   2272010303D 1   1.00000     0.00000
 Structure written by MMmdl.
 32 33  0  0  0  0  0  0  0  0  2 V2000
  148.5048  138.2659  158.8445 O   0  0  0  0  0  0  0  0  0  0  0  0
  149.3867  137.4353  159.0750 C   0  0  0  0  0  0  0  0  0  0  0  0
  150.6634  137.7211  158.7856 N   0  0  0  0  0  0  0  0  0  0  0  0
  151.1309  138.9713  158.2015 C   0  0  0  0  0  0  0  0  0  0  0  0
  152.0086  139.7387  159.2015 C   0  0  0  0  0  0  0  0  0  0  0  0
  151.9382  141.2453  159.0135 C   0  0  0  0  0  0  0  0  0  0  0  0
  152.4986  142.1005  159.8911 C   0  0  0  0  0  0  0  0  0  0  0  0
  152.4715  143.6120  159.7465 C   0  0  0  0  0  0  0  0  0  0  0  0
  152.0446  144.0590  158.3382 C   0  0  0  0  0  0  0  0  0  0  0  0
  150.8546  143.2344  157.8326 C   0  0  0  0  0  0  0  0  0  0  0  0
  151.1964  141.7347  157.7745 C   0  0  0  0  0  0  0  0  0  0  0  0
  149.2106  136.2077  159.6152 N   0  5  0  0  0  0  0  0  0  0  0  0
  148.2410  136.0069  160.5226 C   0  0  0  0  0  0  0  0  0  0  0  0
  147.5880  137.0206  161.1136 N   0  0  0  0  0  0  0  0  0  0  0  0
  146.6228  136.5959  162.0169 N   0  0  0  0  0  0  0  0  0  0  0  0
  146.5664  135.2657  162.0775 C   0  0  0  0  0  0  0  0  0  0  0  0
  147.6834  134.4114  161.0344 S   0  0  0  0  0  0  0  0  0  0  0  0
  151.3581  137.0172  158.9872 H   0  0  0  0  0  0  0  0  0  0  0  0
  151.6976  138.7545  157.2946 H   0  0  0  0  0  0  0  0  0  0  0  0
  150.2690  139.5732  157.9104 H   0  0  0  0  0  0  0  0  0  0  0  0
  151.7100  139.5005  160.2231 H   0  0  0  0  0  0  0  0  0  0  0  0
  153.0443  139.4109  159.1003 H   0  0  0  0  0  0  0  0  0  0  0  0
  152.9998  141.7182  160.7685 H   0  0  0  0  0  0  0  0  0  0  0  0
  151.7829  144.0089  160.4930 H   0  0  0  0  0  0  0  0  0  0  0  0
  153.4583  144.0130  159.9792 H   0  0  0  0  0  0  0  0  0  0  0  0
  151.7979  145.1211  158.3424 H   0  0  0  0  0  0  0  0  0  0  0  0
  152.8812  143.9387  157.6486 H   0  0  0  0  0  0  0  0  0  0  0  0
  150.0040  143.3880  158.4981 H   0  0  0  0  0  0  0  0  0  0  0  0
  150.5423  143.5826  156.8476 H   0  0  0  0  0  0  0  0  0  0  0  0
  151.8205  141.5349  156.9030 H   0  0  0  0  0  0  0  0  0  0  0  0
  150.2800  141.1579  157.6456 H   0  0  0  0  0  0  0  0  0  0  0  0
  145.8609  134.7842  162.7378 H   0  0  0  0  0  0  0  0  0  0  0  0
  1  2  2  0  0  0  0
  2  3  1  0  0  0  0
  2 12  1  0  0  0  0
  3  4  1  0  0  0  0
  3 18  1  0  0  0  0
  4  5  1  0  0  0  0
  4 19  1  0  0  0  0
  4 20  1  0  0  0  0
  5  6  1  0  0  0  0
  5 21  1  0  0  0  0
  5 22  1  0  0  0  0
  6 11  1  0  0  0  0
  6  7  2  0  0  0  0
  7  8  1  0  0  0  0
  7 23  1  0  0  0  0
  8  9  1  0  0  0  0
  8 24  1  0  0  0  0
  8 25  1  0  0  0  0
  9 10  1  0  0  0  0
  9 26  1  0  0  0  0
  9 27  1  0  0  0  0
 10 11  1  0  0  0  0
 10 28  1  0  0  0  0
 10 29  1  0  0  0  0
 11 30  1  0  0  0  0
 11 31  1  0  0  0  0
 12 13  1  0  0  0  0
 13 17  1  0  0  0  0
 13 14  2  0  0  0  0
 14 15  1  0  0  0  0
 15 16  2  0  0  0  0
 16 17  1  0  0  0  0
 16 32  1  0  0  0  0
M  CHG  1  12  -1
M  END
> <s_m_source_file>
AV-unprocessed.smi

> <i_m_source_file_index>
1996

> <i_lp_mmshare_version>
43012

> <i_f3d_flags>
0

> <s_epik_input>
czFbY0hdbm5jMVtOSF1DKD1PKVtOSF1bQ0gyXVtDSDJdQzI9W0NIXVtDSDJdW0NIMl1bQ0gyXVtDSDJdMg==

> <s_epik_cmdline>
J2VwaWtfcHl0aG9uJywgJy1waCcsICc3LjAnLCAnLXRuJywgJzgnLCAnLW1hJywgJzIwMCcsICctbWV0YWxfYmluZGluZycsICctaW1hZScsICc8aW5maWxlLm1hZT4nLCAnLW9tYWUnLCAnPG91dGZpbGUubWFlPic=

> <r_lp_tautomer_probability>
1

> <r_epik_Ionization_Penalty>
3.56684

> <r_epik_Ionization_Penalty_Charging>
3.52481

> <r_epik_Ionization_Penalty_Neutral>
0.0420339

> <r_epik_State_Penalty>
3.52326

> <r_epik_Charging_Adjusted_Penalty>
7.04807

> <i_epik_Tot_Q>
-1

> <i_epik_Tot_abs_Q>
1

> <r_epik_Metal_State_Penalty>
0.513455

> <b_epik_Metal_Only>
1

> <s_lp_Force_Field>
OPLS_2005

> <r_lp_Energy>
5.58763

> <b_lp_Chiralities_Consistent>
1

> <s_lp_Variant>
AV-unprocessed.smi:1996-2

> <Gold.Version>
5.8.1

> <Gold.Id.Protein>
6NUR|6NUR_protein|mol2

> <Gold.PLP.Fitness>
45.6305

> <Gold.PLP.PLP>
-35.0940

> <Gold.PLP.part.hbond>
-4.0108

> <Gold.PLP.part.metal>
0.0000

> <Gold.PLP.part.buried>
-5.1379

> <Gold.PLP.part.nonpolar>
-27.7823

> <Gold.PLP.part.repulsive>
0.1511

> <Gold.PLP.ligand.clash>
0.0000

> <Gold.PLP.ligand.torsion>
0.5375

> <Gold.PLP.Chemscore.Hbond>
3.8560

> <Gold.PLP.Chemscore.CHOScore>
0.0000

> <Gold.PLP.Chemscore.Metal>
0.0000

> <Gold.Chemscore.Hbonds>
donor molecule, donor type, donor heavy atom, donor atom, acceptor molecule, acceptor atom, score
      P1  H  6896  6908       L1    12  1.62
      P1  H  6931  6943       L1    14  0.92
      P1  H  6934  6947       L1    14  0.91

> <Gold.PLP.Chemscore.Internal.Correction>
0.0434

> <Gold.Rescore>
     Score         DG    S(hbond)    S(metal)    S(lipo)     H(rot)  DE(clash)    DE(int)     intcor
     15.87     -17.84       1.90        0.00      86.12       1.59       0.00       1.97       ----

> <Gold.Chemscore.Fitness>
15.8730

> <Gold.Chemscore.DG>
-17.8441

> <Gold.Chemscore.ZeroCoef>
-5.4800

> <Gold.Chemscore.Hbond>
1.9036

> <Gold.Chemscore.Metal>
0.0000

> <Gold.Chemscore.Lipo>
86.1177

> <Gold.Chemscore.Internal_Hbond>
0.0000

> <Gold.Chemscore.DEClash>
0.0000

> <Gold.Chemscore.DEInternal>
1.9711

> <Gold.Chemscore.Rot>
1.5898

> <Gold.Chemscore.Internal.Correction>
   9.000000E+99

> <Gold.Chemscore.Hbonds>
donor molecule, donor type, donor heavy atom, donor atom, acceptor molecule, acceptor atom, score
      P1  H  6896  6908       L1    12  0.71
      P1  H  6931  6943       L1    14  0.42
      P1  H  6934  6947       L1    14  0.33

> <Gold.Chemscore.Hbond.Weighted>
-6.3581

> <Gold.Chemscore.Metal.Weighted>
-0.0000

> <Gold.Chemscore.Lipo.Weighted>
-10.0758

> <Gold.Chemscore.Internal_Hbond.Weighted>
0.0000

> <Gold.Chemscore.DEClash.Weighted>
0.0000

> <Gold.Chemscore.DEInternal.Weighted>
1.9711

> <Gold.Chemscore.Rot.Weighted>
4.0698

> <Gold.Chemscore.Internal.Correction.Weighted>
   9.000000E+99

> <Gold.Protein.RotatedTorsions>
[ 6907 6896 6895 6894 ] final -167.30 input  -60.11 | X-H torsion
[ 7974 7965 7964 7962 ] final -179.19 input  175.53 | X-H torsion
[ 8008 7997 7996 7995 ] final -173.29 input   59.86 | X-H torsion
[ 10167 10162 10161 10158 ] final  167.64 input  -65.29 | X-H torsion
[ 10718 10713 10712 10709 ] final  108.00 input   66.30 | X-H torsion
[ 10763 10752 10751 10750 ] final -163.71 input  -60.55 | X-H torsion
[ 11005 11000 10999 10996 ] final  -31.21 input  -57.11 | X-H torsion

> <Gold.Protein.ActiveResidues>
 VAL166  LYS551  ARG553  GLY616  TRP617  ASP618  TYR619  PRO620  LYS621  CYS622 
 ASP623  PHE694  ASN695  SER759  ASP760  ASP761  ALA762  ILE779  LEU786  VAL792 
 PHE793  MET794  SER795  GLU796  ALA797  LYS798  CYS799  TRP800  GLU811  SER814 

> <Gold.Protein.RotatedAtoms>
  151.4574  133.3601  159.2803 H   0  0  0  0  0  0  0  0  0  0  0  0  # atno 6907 bound_to 6896
  150.9049  134.8465  159.7396 H   0  0  0  0  0  0  0  0  0  0  0  0  # atno 6908 bound_to 6896
  152.4900  134.4498  159.9622 H   0  0  0  0  0  0  0  0  0  0  0  0  # atno 6909 bound_to 6896
  144.7135  140.0755  143.6427 H   0  0  0  0  0  0  0  0  0  0  0  0  # atno 7974 bound_to 7965
  155.9555  140.1134  157.0940 H   0  0  0  0  0  0  0  0  0  0  0  0  # atno 8008 bound_to 7997
  154.4119  140.1192  156.5176 H   0  0  0  0  0  0  0  0  0  0  0  0  # atno 8009 bound_to 7997
  155.6788  140.3473  155.4849 H   0  0  0  0  0  0  0  0  0  0  0  0  # atno 8010 bound_to 7997
  139.4950  144.3900  151.9528 H   0  0  0  0  0  0  0  0  0  0  0  0  # atno 10167 bound_to 10162
  157.6605  131.0884  150.6240 H   0  0  0  0  0  0  0  0  0  0  0  0  # atno 10718 bound_to 10713
  154.7096  135.3004  154.9217 H   0  0  0  0  0  0  0  0  0  0  0  0  # atno 10763 bound_to 10752
  154.0122  135.6693  153.4770 H   0  0  0  0  0  0  0  0  0  0  0  0  # atno 10764 bound_to 10752
  153.0745  135.5042  154.8287 H   0  0  0  0  0  0  0  0  0  0  0  0  # atno 10765 bound_to 10752
  140.9448  133.7256  156.1131 H   0  0  0  0  0  0  0  0  0  0  0  0  # atno 11005 bound_to 11000
  145.9747  139.2896  143.1078 LP  0  0  0  0  0  0  0  0  0  0  0  0  # atno 17320 bound_to 7965
  145.9078  140.9200  143.0470 LP  0  0  0  0  0  0  0  0  0  0  0  0  # atno 17321 bound_to 7965
  140.3337  144.3285  150.5981 LP  0  0  0  0  0  0  0  0  0  0  0  0  # atno 17342 bound_to 10162
  140.5623  143.2190  151.7743 LP  0  0  0  0  0  0  0  0  0  0  0  0  # atno 17343 bound_to 10162
  156.6543  130.4494  149.5709 LP  0  0  0  0  0  0  0  0  0  0  0  0  # atno 17370 bound_to 10713
  156.2114  130.6681  151.1274 LP  0  0  0  0  0  0  0  0  0  0  0  0  # atno 17371 bound_to 10713
  140.7684  134.3861  157.5512 LP  0  0  0  0  0  0  0  0  0  0  0  0  # atno 17394 bound_to 11000
  139.8830  134.9006  156.2792 LP  0  0  0  0  0  0  0  0  0  0  0  0  # atno 17395 bound_to 11000

$$$$
