AV-unprocessed.smi:2876|AV-procd|sdf|11042|dock4
  -GOLD-   2272015503D 1   1.00000     0.00000
 Structure written by MMmdl.
 25 26  0  0  0  0  0  0  0  0  2 V2000
  155.0064  140.9787  161.0550 O   0  0  0  0  0  0  0  0  0  0  0  0
  154.4751  140.6445  159.9740 C   0  0  0  0  0  0  0  0  0  0  0  0
  155.0104  139.7975  159.2226 O   0  5  0  0  0  0  0  0  0  0  0  0
  153.1626  141.2597  159.5437 C   0  0  0  0  0  0  0  0  0  0  0  0
  152.6180  140.7623  158.4051 N   0  0  0  0  0  0  0  0  0  0  0  0
  151.4596  141.2731  157.9810 C   0  0  0  0  0  0  0  0  0  0  0  0
  150.9217  140.7568  156.8172 N   0  0  0  0  0  0  0  0  0  0  0  0
  150.2073  141.6950  155.9613 C   0  0  0  0  0  0  0  0  0  0  0  0
  149.4201  140.9368  154.8783 C   0  0  0  0  0  0  0  0  0  0  0  0
  150.3052  140.1002  154.1398 O   0  0  0  0  0  0  0  0  0  0  0  0
  150.9414  139.1338  154.9705 C   0  0  0  0  0  0  0  0  0  0  0  0
  151.7676  139.8475  156.0546 C   0  0  0  0  0  0  0  0  0  0  0  0
  150.7608  142.2435  158.5686 N   0  0  0  0  0  0  0  0  0  0  0  0
  151.2785  142.7560  159.7037 C   0  0  0  0  0  0  0  0  0  0  0  0
  152.4950  142.3019  160.2533 C   0  0  0  0  0  0  0  0  0  0  0  0
  153.0624  143.0360  161.7154 Cl  0  0  0  0  0  0  0  0  0  0  0  0
  149.5285  142.3007  156.5630 H   0  0  0  0  0  0  0  0  0  0  0  0
  150.9215  142.3771  155.4976 H   0  0  0  0  0  0  0  0  0  0  0  0
  148.6238  140.3383  155.3239 H   0  0  0  0  0  0  0  0  0  0  0  0
  148.9452  141.6415  154.1956 H   0  0  0  0  0  0  0  0  0  0  0  0
  150.1948  138.4770  155.4200 H   0  0  0  0  0  0  0  0  0  0  0  0
  151.5881  138.5076  154.3558 H   0  0  0  0  0  0  0  0  0  0  0  0
  152.5825  140.4095  155.5962 H   0  0  0  0  0  0  0  0  0  0  0  0
  152.2193  139.1147  156.7245 H   0  0  0  0  0  0  0  0  0  0  0  0
  150.7122  143.5421  160.1808 H   0  0  0  0  0  0  0  0  0  0  0  0
  1  2  2  0  0  0  0
  2  3  1  0  0  0  0
  2  4  1  0  0  0  0
  4 15  1  0  0  0  0
  4  5  2  0  0  0  0
  5  6  1  0  0  0  0
  6  7  1  0  0  0  0
  6 13  2  0  0  0  0
  7 12  1  0  0  0  0
  7  8  1  0  0  0  0
  8  9  1  0  0  0  0
  8 17  1  0  0  0  0
  8 18  1  0  0  0  0
  9 10  1  0  0  0  0
  9 19  1  0  0  0  0
  9 20  1  0  0  0  0
 10 11  1  0  0  0  0
 11 12  1  0  0  0  0
 11 21  1  0  0  0  0
 11 22  1  0  0  0  0
 12 23  1  0  0  0  0
 12 24  1  0  0  0  0
 13 14  1  0  0  0  0
 14 15  2  0  0  0  0
 14 25  1  0  0  0  0
 15 16  1  0  0  0  0
M  CHG  1   3  -1
M  END
> <s_m_source_file>
AV-unprocessed.smi

> <i_m_source_file_index>
2876

> <i_lp_mmshare_version>
43012

> <i_f3d_flags>
0

> <s_epik_input>
Tz1DKFtPSF0pYzFuYyhuW2NIXWMxQ2wpTjJbQ0gyXVtDSDJdT1tDSDJdW0NIMl0y

> <s_epik_cmdline>
J2VwaWtfcHl0aG9uJywgJy1waCcsICc3LjAnLCAnLXRuJywgJzgnLCAnLW1hJywgJzIwMCcsICctbWV0YWxfYmluZGluZycsICctaW1hZScsICc8aW5maWxlLm1hZT4nLCAnLW9tYWUnLCAnPG91dGZpbGUubWFlPic=

> <r_lp_tautomer_probability>
1

> <r_epik_Ionization_Penalty>
2.42258e-06

> <r_epik_Ionization_Penalty_Charging>
2.2596e-06

> <r_epik_Ionization_Penalty_Neutral>
1.62982e-07

> <r_epik_State_Penalty>
-0

> <r_epik_Charging_Adjusted_Penalty>
2.2596e-06

> <i_epik_Tot_Q>
-1

> <i_epik_Tot_abs_Q>
1

> <r_epik_Metal_State_Penalty>
-0

> <b_epik_Metal_Only>
0

> <s_lp_Force_Field>
OPLS_2005

> <r_lp_Energy>
19.4651

> <b_lp_Chiralities_Consistent>
1

> <s_lp_Variant>
AV-unprocessed.smi:2876-1

> <Gold.Version>
5.8.1

> <Gold.Id.Protein>
6NUR|6NUR_protein|mol2

> <Gold.PLP.Fitness>
39.3665

> <Gold.PLP.PLP>
-30.9974

> <Gold.PLP.part.hbond>
-3.1577

> <Gold.PLP.part.metal>
0.0000

> <Gold.PLP.part.buried>
-4.3732

> <Gold.PLP.part.nonpolar>
-24.2898

> <Gold.PLP.part.repulsive>
0.7395

> <Gold.PLP.ligand.clash>
0.0000

> <Gold.PLP.ligand.torsion>
0.4429

> <Gold.PLP.Chemscore.Hbond>
3.0000

> <Gold.PLP.Chemscore.CHOScore>
0.0000

> <Gold.PLP.Chemscore.Metal>
0.0000

> <Gold.Chemscore.Hbonds>
donor molecule, donor type, donor heavy atom, donor atom, acceptor molecule, acceptor atom, score
      P1  H  7989  7998       L1    10  1.00
      P1  H  7997  8009       L1     3  2.00

> <Gold.PLP.Chemscore.Internal.Correction>
0.2549

> <Gold.Rescore>
     Score         DG    S(hbond)    S(metal)    S(lipo)     H(rot)  DE(clash)    DE(int)     intcor
     12.74     -15.35       1.33        0.00      68.22       1.00       0.82       1.80       ----

> <Gold.Chemscore.Fitness>
12.7358

> <Gold.Chemscore.DG>
-15.3532

> <Gold.Chemscore.ZeroCoef>
-5.4800

> <Gold.Chemscore.Hbond>
1.3328

> <Gold.Chemscore.Metal>
0.0000

> <Gold.Chemscore.Lipo>
68.2190

> <Gold.Chemscore.Internal_Hbond>
0.0000

> <Gold.Chemscore.DEClash>
0.8155

> <Gold.Chemscore.DEInternal>
1.8019

> <Gold.Chemscore.Rot>
1.0000

> <Gold.Chemscore.Internal.Correction>
   9.000000E+99

> <Gold.Chemscore.Hbonds>
donor molecule, donor type, donor heavy atom, donor atom, acceptor molecule, acceptor atom, score
      P1  H  7989  7998       L1    10  0.26
      P1  H  7997  8009       L1     3  0.96

> <Gold.Chemscore.Hbond.Weighted>
-4.4516

> <Gold.Chemscore.Metal.Weighted>
-0.0000

> <Gold.Chemscore.Lipo.Weighted>
-7.9816

> <Gold.Chemscore.Internal_Hbond.Weighted>
0.0000

> <Gold.Chemscore.DEClash.Weighted>
0.8155

> <Gold.Chemscore.DEInternal.Weighted>
1.8019

> <Gold.Chemscore.Rot.Weighted>
2.5600

> <Gold.Chemscore.Internal.Correction.Weighted>
   9.000000E+99

> <Gold.Protein.RotatedTorsions>
[ 6907 6896 6895 6894 ] final   12.77 input  -60.11 | X-H torsion
[ 7974 7965 7964 7962 ] final  145.57 input  175.53 | X-H torsion
[ 8008 7997 7996 7995 ] final  100.85 input   59.86 | X-H torsion
[ 10167 10162 10161 10158 ] final -120.82 input  -65.29 | X-H torsion
[ 10718 10713 10712 10709 ] final  156.25 input   66.30 | X-H torsion
[ 10763 10752 10751 10750 ] final -108.54 input  -60.55 | X-H torsion
[ 11005 11000 10999 10996 ] final  168.53 input  -57.11 | X-H torsion

> <Gold.Protein.ActiveResidues>
 VAL166  LYS551  ARG553  GLY616  TRP617  ASP618  TYR619  PRO620  LYS621  CYS622 
 ASP623  PHE694  ASN695  SER759  ASP760  ASP761  ALA762  ILE779  LEU786  VAL792 
 PHE793  MET794  SER795  GLU796  ALA797  LYS798  CYS799  TRP800  GLU811  SER814 

> <Gold.Protein.RotatedAtoms>
  151.7756  135.0775  160.0366 H   0  0  0  0  0  0  0  0  0  0  0  0  # atno 6907 bound_to 6896
  152.3258  133.5899  159.5784 H   0  0  0  0  0  0  0  0  0  0  0  0  # atno 6908 bound_to 6896
  150.7395  133.9858  159.3633 H   0  0  0  0  0  0  0  0  0  0  0  0  # atno 6909 bound_to 6896
  144.8742  139.5799  143.5873 H   0  0  0  0  0  0  0  0  0  0  0  0  # atno 7974 bound_to 7965
  156.1243  140.3207  155.8254 H   0  0  0  0  0  0  0  0  0  0  0  0  # atno 8008 bound_to 7997
  155.4448  140.0528  157.3024 H   0  0  0  0  0  0  0  0  0  0  0  0  # atno 8009 bound_to 7997
  154.4850  140.2069  155.9689 H   0  0  0  0  0  0  0  0  0  0  0  0  # atno 8010 bound_to 7997
  140.0317  143.5241  152.2173 H   0  0  0  0  0  0  0  0  0  0  0  0  # atno 10167 bound_to 10162
  157.2074  131.0690  151.1989 H   0  0  0  0  0  0  0  0  0  0  0  0  # atno 10718 bound_to 10713
  154.8142  135.4634  154.0597 H   0  0  0  0  0  0  0  0  0  0  0  0  # atno 10763 bound_to 10752
  153.2003  135.6868  153.8246 H   0  0  0  0  0  0  0  0  0  0  0  0  # atno 10764 bound_to 10752
  153.7733  135.3267  155.3332 H   0  0  0  0  0  0  0  0  0  0  0  0  # atno 10765 bound_to 10752
  140.2882  134.7695  157.3816 H   0  0  0  0  0  0  0  0  0  0  0  0  # atno 11005 bound_to 11000
  146.2951  139.7254  142.9132 LP  0  0  0  0  0  0  0  0  0  0  0  0  # atno 17320 bound_to 7965
  145.4074  141.0392  143.3036 LP  0  0  0  0  0  0  0  0  0  0  0  0  # atno 17321 bound_to 7965
  139.6072  144.7599  151.3035 LP  0  0  0  0  0  0  0  0  0  0  0  0  # atno 17342 bound_to 10162
  140.7299  143.6895  150.7934 LP  0  0  0  0  0  0  0  0  0  0  0  0  # atno 17343 bound_to 10162
  157.3706  130.7179  149.6562 LP  0  0  0  0  0  0  0  0  0  0  0  0  # atno 17370 bound_to 10713
  155.9694  130.4200  150.4401 LP  0  0  0  0  0  0  0  0  0  0  0  0  # atno 17371 bound_to 10713
  140.1220  134.5207  155.8176 LP  0  0  0  0  0  0  0  0  0  0  0  0  # atno 17394 bound_to 11000
  141.2151  133.6759  156.6883 LP  0  0  0  0  0  0  0  0  0  0  0  0  # atno 17395 bound_to 11000

$$$$
