AV-unprocessed.smi:81|AV-procd|sdf|790|dock3
  -GOLD-   2262017163D 1   1.00000     0.00000
 Structure written by MMmdl.
 64 67  0  0  0  0  0  0  0  0  2 V2000
  150.3007  141.7892  158.4445 C   0  0  0  0  0  0  0  0  0  0  0  0
  151.6985  141.3339  157.9943 C   0  0  0  0  0  0  0  0  0  0  0  0
  152.6578  142.5304  157.9267 C   0  0  0  0  0  0  0  0  0  0  0  0
  151.6538  140.6025  156.6321 C   0  0  0  0  0  0  0  0  0  0  0  0
  150.6459  139.5398  156.5437 N   0  0  0  0  0  0  0  0  0  0  0  0
  150.6766  138.6154  157.5344 C   0  0  0  0  0  0  0  0  0  0  0  0
  151.8928  138.2801  158.0334 N   0  0  0  0  0  0  0  0  0  0  0  0
  151.9942  137.3507  158.9875 C   0  0  0  0  0  0  0  0  0  0  0  0
  151.0240  136.6422  159.5677 N   0  0  0  0  0  0  0  0  0  0  0  0
  149.8005  136.9619  159.0564 C   0  0  0  0  0  0  0  0  0  0  0  0
  149.5382  137.9277  158.0450 C   0  0  0  0  0  0  0  0  0  0  0  0
  148.1740  137.9786  157.7868 N   0  0  0  0  0  0  0  0  0  0  0  0
  147.6612  137.0918  158.5946 C   0  0  0  0  0  0  0  0  0  0  0  0
  148.5674  136.4272  159.3904 N   0  0  0  0  0  0  0  0  0  0  0  0
  148.2956  135.3841  160.3721 C   0  0  0  0  0  0  0  0  0  0  0  0
  147.3577  135.8341  161.5246 C   0  0  1  0  0  0  0  0  0  0  0  0
  148.0172  136.8581  162.2525 O   0  0  0  0  0  0  0  0  0  0  0  0
  146.0212  136.3720  161.0433 C   0  0  0  0  0  0  0  0  0  0  0  0
  145.1466  136.2833  162.2919 C   0  0  0  0  0  0  0  0  0  0  0  0
  145.7089  135.2526  163.1011 O   0  0  0  0  0  0  0  0  0  0  0  0
  146.9182  134.7501  162.5326 C   0  0  1  0  0  0  0  0  0  0  0  0
  146.5368  133.3859  161.9254 C   0  0  0  0  0  0  0  0  0  0  0  0
  150.2482  139.1107  155.1914 C   0  0  2  0  0  0  0  0  0  0  0  0
  148.8494  138.4584  155.0760 C   0  0  0  0  0  0  0  0  0  0  0  0
  148.8448  136.9322  155.2910 C   0  0  0  0  0  0  0  0  0  0  0  0
  149.8423  136.2658  154.4218 N   0  3  2  0  0  0  0  0  0  0  0  0
  149.7578  134.7915  154.4998 C   0  0  0  0  0  0  0  0  0  0  0  0
  151.2130  136.7645  154.6803 C   0  0  0  0  0  0  0  0  0  0  0  0
  151.3111  138.2809  154.4327 C   0  0  0  0  0  0  0  0  0  0  0  0
  149.8549  142.4723  157.7207 H   0  0  0  0  0  0  0  0  0  0  0  0
  150.3463  142.3046  159.4044 H   0  0  0  0  0  0  0  0  0  0  0  0
  149.6241  140.9429  158.5635 H   0  0  0  0  0  0  0  0  0  0  0  0
  152.0947  140.6613  158.7557 H   0  0  0  0  0  0  0  0  0  0  0  0
  152.3261  143.2646  157.1917 H   0  0  0  0  0  0  0  0  0  0  0  0
  153.6631  142.2117  157.6493 H   0  0  0  0  0  0  0  0  0  0  0  0
  152.7281  143.0330  158.8918 H   0  0  0  0  0  0  0  0  0  0  0  0
  151.4594  141.3356  155.8485 H   0  0  0  0  0  0  0  0  0  0  0  0
  152.6356  140.1879  156.4065 H   0  0  0  0  0  0  0  0  0  0  0  0
  152.9959  137.1431  159.3339 H   0  0  0  0  0  0  0  0  0  0  0  0
  146.5996  136.9040  158.6217 H   0  0  0  0  0  0  0  0  0  0  0  0
  147.8339  134.5485  159.8447 H   0  0  0  0  0  0  0  0  0  0  0  0
  149.2424  134.9987  160.7491 H   0  0  0  0  0  0  0  0  0  0  0  0
  147.3951  137.2506  162.8459 H   0  0  0  0  0  0  0  0  0  0  0  0
  146.0785  137.3816  160.6339 H   0  0  0  0  0  0  0  0  0  0  0  0
  145.6152  135.7243  160.2653 H   0  0  0  0  0  0  0  0  0  0  0  0
  145.1799  137.2186  162.8512 H   0  0  0  0  0  0  0  0  0  0  0  0
  144.1050  136.0724  162.0496 H   0  0  0  0  0  0  0  0  0  0  0  0
  147.6676  134.5960  163.3105 H   0  0  0  0  0  0  0  0  0  0  0  0
  147.3850  132.8802  161.4709 H   0  0  0  0  0  0  0  0  0  0  0  0
  145.7653  133.4860  161.1620 H   0  0  0  0  0  0  0  0  0  0  0  0
  146.1459  132.7217  162.6964 H   0  0  0  0  0  0  0  0  0  0  0  0
  150.1637  140.0539  154.6498 H   0  0  0  0  0  0  0  0  0  0  0  0
  148.1389  138.9456  155.7445 H   0  0  0  0  0  0  0  0  0  0  0  0
  148.4747  138.6476  154.0692 H   0  0  0  0  0  0  0  0  0  0  0  0
  149.0455  136.6740  156.3299 H   0  0  0  0  0  0  0  0  0  0  0  0
  147.8509  136.5441  155.0652 H   0  0  0  0  0  0  0  0  0  0  0  0
  149.9880  134.4391  155.5062 H   0  0  0  0  0  0  0  0  0  0  0  0
  150.4599  134.3278  153.8061 H   0  0  0  0  0  0  0  0  0  0  0  0
  148.7566  134.4486  154.2371 H   0  0  0  0  0  0  0  0  0  0  0  0
  151.5017  136.5095  155.6978 H   0  0  0  0  0  0  0  0  0  0  0  0
  151.9156  136.2510  154.0229 H   0  0  0  0  0  0  0  0  0  0  0  0
  151.1682  138.4504  153.3647 H   0  0  0  0  0  0  0  0  0  0  0  0
  152.3189  138.6347  154.6499 H   0  0  0  0  0  0  0  0  0  0  0  0
  149.6148  136.5172  153.4704 H   0  0  0  0  0  0  0  0  0  0  0  0
  1  2  1  0  0  0  0
  1 30  1  0  0  0  0
  1 31  1  0  0  0  0
  1 32  1  0  0  0  0
  2  3  1  0  0  0  0
  2  4  1  0  0  0  0
  2 33  1  0  0  0  0
  3 34  1  0  0  0  0
  3 35  1  0  0  0  0
  3 36  1  0  0  0  0
  4  5  1  0  0  0  0
  4 37  1  0  0  0  0
  4 38  1  0  0  0  0
  5  6  1  0  0  0  0
  5 23  1  0  0  0  0
  6 11  1  0  0  0  0
  6  7  2  0  0  0  0
  7  8  1  0  0  0  0
  8  9  2  0  0  0  0
  8 39  1  0  0  0  0
  9 10  1  0  0  0  0
 10 14  1  0  0  0  0
 10 11  2  0  0  0  0
 11 12  1  0  0  0  0
 12 13  2  0  0  0  0
 13 14  1  0  0  0  0
 13 40  1  0  0  0  0
 14 15  1  0  0  0  0
 15 16  1  0  0  0  0
 15 41  1  0  0  0  0
 15 42  1  0  0  0  0
 16 21  1  0  0  0  0
 16 17  1  0  0  0  0
 16 18  1  0  0  0  0
 17 43  1  0  0  0  0
 18 19  1  0  0  0  0
 18 44  1  0  0  0  0
 18 45  1  0  0  0  0
 19 20  1  0  0  0  0
 19 46  1  0  0  0  0
 19 47  1  0  0  0  0
 20 21  1  0  0  0  0
 21 22  1  0  0  0  0
 21 48  1  0  0  0  0
 22 49  1  0  0  0  0
 22 50  1  0  0  0  0
 22 51  1  0  0  0  0
 23 29  1  0  0  0  0
 23 24  1  0  0  0  0
 23 52  1  0  0  0  0
 24 25  1  0  0  0  0
 24 53  1  0  0  0  0
 24 54  1  0  0  0  0
 25 26  1  0  0  0  0
 25 55  1  0  0  0  0
 25 56  1  0  0  0  0
 26 27  1  0  0  0  0
 26 28  1  0  0  0  0
 26 64  1  0  0  0  0
 27 57  1  0  0  0  0
 27 58  1  0  0  0  0
 27 59  1  0  0  0  0
 28 29  1  0  0  0  0
 28 60  1  0  0  0  0
 28 61  1  0  0  0  0
 29 62  1  0  0  0  0
 29 63  1  0  0  0  0
M  CHG  1  26   1
M  END
> <s_m_source_file>
AV-unprocessed.smi

> <i_m_source_file_index>
81

> <i_lp_mmshare_version>
43012

> <i_f3d_flags>
0

> <s_epik_input>
W0NIMl0xW0NIMl1OKFtDSDNdKVtDSDJdW0NIMl1bQ0hdMU4oW0NIMl1bQ0hdKFtDSDNdKVtDSDNdKWMobltjSF1uMiljKGMyMyluW2NIXW4zW0NIMl1bQ0BAXTQoW09IXSlbQ0gyXVtDSDJdT1tDQEhdNFtDSDNd

> <s_epik_cmdline>
J2VwaWtfcHl0aG9uJywgJy1waCcsICc3LjAnLCAnLXRuJywgJzgnLCAnLW1hJywgJzIwMCcsICctbWV0YWxfYmluZGluZycsICctaW1hZScsICc8aW5maWxlLm1hZT4nLCAnLW9tYWUnLCAnPG91dGZpbGUubWFlPic=

> <r_lp_tautomer_probability>
1

> <r_epik_Ionization_Penalty>
0.00272708

> <r_epik_Ionization_Penalty_Charging>
0.00158983

> <r_epik_Ionization_Penalty_Neutral>
0.00113725

> <r_epik_State_Penalty>
-0

> <r_epik_Charging_Adjusted_Penalty>
0.00158983

> <i_epik_Tot_Q>
1

> <i_epik_Tot_abs_Q>
1

> <r_epik_Metal_State_Penalty>
-0

> <b_epik_Metal_Only>
0

> <s_lp_Force_Field>
OPLS_2005

> <r_lp_Energy>
53.2372

> <b_lp_Chiralities_Consistent>
1

> <s_lp_Variant>
AV-unprocessed.smi:81-5

> <Gold.Version>
5.8.1

> <Gold.Id.Protein>
6NUR|6NUR_protein|mol2

> <Gold.PLP.Fitness>
54.4240

> <Gold.PLP.PLP>
-43.9375

> <Gold.PLP.part.hbond>
-3.5794

> <Gold.PLP.part.metal>
0.0000

> <Gold.PLP.part.buried>
-6.8249

> <Gold.PLP.part.nonpolar>
-34.6691

> <Gold.PLP.part.repulsive>
0.0473

> <Gold.PLP.ligand.clash>
0.0000

> <Gold.PLP.ligand.torsion>
1.3986

> <Gold.PLP.Chemscore.Hbond>
3.8938

> <Gold.PLP.Chemscore.CHOScore>
0.0000

> <Gold.PLP.Chemscore.Metal>
0.0000

> <Gold.Chemscore.Hbonds>
donor molecule, donor type, donor heavy atom, donor atom, acceptor molecule, acceptor atom, score
      L1  H    26    64       P1  7948  2.00
      P1  H  6896  6909       L1     9  1.00
      P1  H  6931  6943       L1    17  1.00

> <Gold.PLP.Chemscore.Internal.Correction>
1.6025

> <Gold.Rescore>
     Score         DG    S(hbond)    S(metal)    S(lipo)     H(rot)  DE(clash)    DE(int)     intcor
     11.49     -16.00       1.57        0.00      95.79       2.32       0.22       4.29       ----

> <Gold.Chemscore.Fitness>
11.4942

> <Gold.Chemscore.DG>
-15.9958

> <Gold.Chemscore.ZeroCoef>
-5.4800

> <Gold.Chemscore.Hbond>
1.5684

> <Gold.Chemscore.Metal>
0.0000

> <Gold.Chemscore.Lipo>
95.7871

> <Gold.Chemscore.Internal_Hbond>
0.0000

> <Gold.Chemscore.DEClash>
0.2158

> <Gold.Chemscore.DEInternal>
4.2857

> <Gold.Chemscore.Rot>
2.3163

> <Gold.Chemscore.Internal.Correction>
   9.000000E+99

> <Gold.Chemscore.Hbonds>
donor molecule, donor type, donor heavy atom, donor atom, acceptor molecule, acceptor atom, score
      L1  H    26    64       P1  7948  0.54
      P1  H  6896  6909       L1     9  0.89
      P1  H  6931  6943       L1    17  0.25

> <Gold.Chemscore.Hbond.Weighted>
-5.2384

> <Gold.Chemscore.Metal.Weighted>
-0.0000

> <Gold.Chemscore.Lipo.Weighted>
-11.2071

> <Gold.Chemscore.Internal_Hbond.Weighted>
0.0000

> <Gold.Chemscore.DEClash.Weighted>
0.2158

> <Gold.Chemscore.DEInternal.Weighted>
4.2857

> <Gold.Chemscore.Rot.Weighted>
5.9297

> <Gold.Chemscore.Internal.Correction.Weighted>
   9.000000E+99

> <Gold.Protein.RotatedTorsions>
[ 6907 6896 6895 6894 ] final  103.44 input  -60.11 | X-H torsion
[ 7974 7965 7964 7962 ] final   40.48 input  175.53 | X-H torsion
[ 8008 7997 7996 7995 ] final -172.32 input   59.86 | X-H torsion
[ 10167 10162 10161 10158 ] final -177.68 input  -65.29 | X-H torsion
[ 10718 10713 10712 10709 ] final  -94.61 input   66.30 | X-H torsion
[ 10763 10752 10751 10750 ] final  -86.68 input  -60.55 | X-H torsion
[ 11005 11000 10999 10996 ] final  -32.29 input  -57.11 | X-H torsion

> <Gold.Protein.ActiveResidues>
 VAL166  LYS551  ARG553  GLY616  TRP617  ASP618  TYR619  PRO620  LYS621  CYS622 
 ASP623  PHE694  ASN695  SER759  ASP760  ASP761  ALA762  ILE779  LEU786  VAL792 
 PHE793  MET794  SER795  GLU796  ALA797  LYS798  CYS799  TRP800  GLU811  SER814 

> <Gold.Protein.RotatedAtoms>
  152.5295  133.9826  159.7813 H   0  0  0  0  0  0  0  0  0  0  0  0  # atno 6907 bound_to 6896
  151.0077  133.5987  159.2694 H   0  0  0  0  0  0  0  0  0  0  0  0  # atno 6908 bound_to 6896
  151.3073  135.0791  159.9313 H   0  0  0  0  0  0  0  0  0  0  0  0  # atno 6909 bound_to 6896
  146.0901  139.5527  142.9481 H   0  0  0  0  0  0  0  0  0  0  0  0  # atno 7974 bound_to 7965
  155.9430  140.1112  157.1040 H   0  0  0  0  0  0  0  0  0  0  0  0  # atno 8008 bound_to 7997
  154.4093  140.1215  156.5018 H   0  0  0  0  0  0  0  0  0  0  0  0  # atno 8009 bound_to 7997
  155.6938  140.3472  155.4906 H   0  0  0  0  0  0  0  0  0  0  0  0  # atno 8010 bound_to 7997
  139.5468  144.2214  152.1003 H   0  0  0  0  0  0  0  0  0  0  0  0  # atno 10167 bound_to 10162
  156.0030  130.5074  150.5952 H   0  0  0  0  0  0  0  0  0  0  0  0  # atno 10718 bound_to 10713
  154.6252  135.5440  153.7619 H   0  0  0  0  0  0  0  0  0  0  0  0  # atno 10763 bound_to 10752
  153.0257  135.6422  154.1382 H   0  0  0  0  0  0  0  0  0  0  0  0  # atno 10764 bound_to 10752
  154.1315  135.2914  155.3164 H   0  0  0  0  0  0  0  0  0  0  0  0  # atno 10765 bound_to 10752
  140.9540  133.7204  156.1264 H   0  0  0  0  0  0  0  0  0  0  0  0  # atno 11005 bound_to 11000
  145.6055  141.0348  143.1995 LP  0  0  0  0  0  0  0  0  0  0  0  0  # atno 17320 bound_to 7965
  144.7354  139.7602  143.7331 LP  0  0  0  0  0  0  0  0  0  0  0  0  # atno 17321 bound_to 7965
  140.1702  144.4943  150.6584 LP  0  0  0  0  0  0  0  0  0  0  0  0  # atno 17342 bound_to 10162
  140.6719  143.2289  151.5604 LP  0  0  0  0  0  0  0  0  0  0  0  0  # atno 17343 bound_to 10162
  157.3810  131.0781  151.1477 LP  0  0  0  0  0  0  0  0  0  0  0  0  # atno 17370 bound_to 10713
  157.2199  130.6476  149.5807 LP  0  0  0  0  0  0  0  0  0  0  0  0  # atno 17371 bound_to 10713
  140.7562  134.3990  157.5533 LP  0  0  0  0  0  0  0  0  0  0  0  0  # atno 17394 bound_to 11000
  139.8856  134.8932  156.2632 LP  0  0  0  0  0  0  0  0  0  0  0  0  # atno 17395 bound_to 11000

$$$$
