AV-unprocessed.smi:1033|AV-procd|sdf|4497|dock5
  -GOLD-   22720 2493D 1   1.00000     0.00000
 Structure written by MMmdl.
 56 58  0  0  0  0  0  0  0  0  2 V2000
  152.3999  144.0417  161.6467 C   0  0  0  0  0  0  0  0  0  0  0  0
  152.1764  143.2055  160.3988 C   0  0  0  0  0  0  0  0  0  0  0  0
  152.4261  141.8152  160.4489 C   0  0  0  0  0  0  0  0  0  0  0  0
  152.2290  141.0024  159.3109 C   0  0  0  0  0  0  0  0  0  0  0  0
  152.4071  139.6406  159.1352 N   0  0  0  0  0  0  0  0  0  0  0  0
  152.0579  139.4865  157.8608 C   0  0  0  0  0  0  0  0  0  0  0  0
  151.6745  140.5896  157.1896 N   0  0  0  0  0  0  0  0  0  0  0  0
  151.2522  140.6787  155.8041 C   0  0  0  0  0  0  0  0  0  0  0  0
  149.7421  140.9613  155.6732 C   0  0  1  0  0  0  0  0  0  0  0  0
  149.5320  142.3587  155.6559 O   0  0  0  0  0  0  0  0  0  0  0  0
  149.1287  140.3717  154.3878 C   0  0  0  0  0  0  0  0  0  0  0  0
  147.8617  140.9767  153.9591 N   0  0  0  0  0  0  0  0  0  0  0  0
  147.3371  140.4713  152.6871 C   0  0  0  0  0  0  0  0  0  0  0  0
  146.8036  139.0277  152.7765 C   0  0  0  0  0  0  0  0  0  0  0  0
  145.7469  138.9374  153.8193 N   0  3  0  0  0  0  0  0  0  0  0  0
  145.1234  137.5938  153.9270 C   0  0  0  0  0  0  0  0  0  0  0  0
  144.4792  137.1322  152.6046 C   0  0  1  0  0  0  0  0  0  0  0  0
  143.9351  135.7007  152.6951 C   0  0  0  0  0  0  0  0  0  0  0  0
  143.4029  137.9911  152.2854 O   0  0  0  0  0  0  0  0  0  0  0  0
  146.2565  139.4361  155.1227 C   0  0  0  0  0  0  0  0  0  0  0  0
  146.8109  140.8680  154.9705 C   0  0  0  0  0  0  0  0  0  0  0  0
  151.7704  141.6240  158.1131 C   0  0  0  0  0  0  0  0  0  0  0  0
  151.5182  143.0057  158.0503 C   0  0  0  0  0  0  0  0  0  0  0  0
  151.7221  143.8032  159.1956 C   0  0  0  0  0  0  0  0  0  0  0  0
  151.4479  145.2947  159.1176 C   0  0  0  0  0  0  0  0  0  0  0  0
  152.7249  143.4260  162.4859 H   0  0  0  0  0  0  0  0  0  0  0  0
  151.4785  144.5453  161.9398 H   0  0  0  0  0  0  0  0  0  0  0  0
  153.1664  144.7962  161.4689 H   0  0  0  0  0  0  0  0  0  0  0  0
  152.7723  141.3595  161.3648 H   0  0  0  0  0  0  0  0  0  0  0  0
  152.0842  138.5161  157.3866 H   0  0  0  0  0  0  0  0  0  0  0  0
  151.8364  141.4523  155.3035 H   0  0  0  0  0  0  0  0  0  0  0  0
  151.5070  139.7356  155.3194 H   0  0  0  0  0  0  0  0  0  0  0  0
  149.2172  140.5788  156.5480 H   0  0  0  0  0  0  0  0  0  0  0  0
  150.2979  142.7837  156.0105 H   0  0  0  0  0  0  0  0  0  0  0  0
  149.8631  140.4356  153.5849 H   0  0  0  0  0  0  0  0  0  0  0  0
  148.9690  139.3053  154.5530 H   0  0  0  0  0  0  0  0  0  0  0  0
  146.5233  141.1209  152.3618 H   0  0  0  0  0  0  0  0  0  0  0  0
  148.0887  140.5448  151.9025 H   0  0  0  0  0  0  0  0  0  0  0  0
  146.4013  138.7428  151.8052 H   0  0  0  0  0  0  0  0  0  0  0  0
  147.6101  138.3272  152.9968 H   0  0  0  0  0  0  0  0  0  0  0  0
  145.8740  136.8752  154.2602 H   0  0  0  0  0  0  0  0  0  0  0  0
  144.3530  137.6089  154.7001 H   0  0  0  0  0  0  0  0  0  0  0  0
  145.2020  137.1716  151.7904 H   0  0  0  0  0  0  0  0  0  0  0  0
  144.7325  134.9926  152.9221 H   0  0  0  0  0  0  0  0  0  0  0  0
  143.4813  135.3925  151.7525 H   0  0  0  0  0  0  0  0  0  0  0  0
  143.1776  135.6094  153.4746 H   0  0  0  0  0  0  0  0  0  0  0  0
  143.7301  138.8751  152.2125 H   0  0  0  0  0  0  0  0  0  0  0  0
  145.4464  139.4429  155.8527 H   0  0  0  0  0  0  0  0  0  0  0  0
  147.0200  138.7588  155.5080 H   0  0  0  0  0  0  0  0  0  0  0  0
  147.1814  141.2271  155.9315 H   0  0  0  0  0  0  0  0  0  0  0  0
  145.9909  141.5356  154.7021 H   0  0  0  0  0  0  0  0  0  0  0  0
  151.1699  143.4463  157.1279 H   0  0  0  0  0  0  0  0  0  0  0  0
  151.1383  145.5912  158.1151 H   0  0  0  0  0  0  0  0  0  0  0  0
  152.3431  145.8625  159.3715 H   0  0  0  0  0  0  0  0  0  0  0  0
  150.6526  145.5728  159.8097 H   0  0  0  0  0  0  0  0  0  0  0  0
  145.0089  139.5711  153.5462 H   0  0  0  0  0  0  0  0  0  0  0  0
  1  2  1  0  0  0  0
  1 26  1  0  0  0  0
  1 27  1  0  0  0  0
  1 28  1  0  0  0  0
  2 24  1  0  0  0  0
  2  3  2  0  0  0  0
  3  4  1  0  0  0  0
  3 29  1  0  0  0  0
  4 22  2  0  0  0  0
  4  5  1  0  0  0  0
  5  6  2  0  0  0  0
  6  7  1  0  0  0  0
  6 30  1  0  0  0  0
  7  8  1  0  0  0  0
  7 22  1  0  0  0  0
  8  9  1  0  0  0  0
  8 31  1  0  0  0  0
  8 32  1  0  0  0  0
  9 10  1  0  0  0  0
  9 11  1  0  0  0  0
  9 33  1  0  0  0  0
 10 34  1  0  0  0  0
 11 12  1  0  0  0  0
 11 35  1  0  0  0  0
 11 36  1  0  0  0  0
 12 21  1  0  0  0  0
 12 13  1  0  0  0  0
 13 14  1  0  0  0  0
 13 37  1  0  0  0  0
 13 38  1  0  0  0  0
 14 15  1  0  0  0  0
 14 39  1  0  0  0  0
 14 40  1  0  0  0  0
 15 16  1  0  0  0  0
 15 20  1  0  0  0  0
 15 56  1  0  0  0  0
 16 17  1  0  0  0  0
 16 41  1  0  0  0  0
 16 42  1  0  0  0  0
 17 18  1  0  0  0  0
 17 19  1  0  0  0  0
 17 43  1  0  0  0  0
 18 44  1  0  0  0  0
 18 45  1  0  0  0  0
 18 46  1  0  0  0  0
 19 47  1  0  0  0  0
 20 21  1  0  0  0  0
 20 48  1  0  0  0  0
 20 49  1  0  0  0  0
 21 50  1  0  0  0  0
 21 51  1  0  0  0  0
 22 23  1  0  0  0  0
 23 24  2  0  0  0  0
 23 52  1  0  0  0  0
 24 25  1  0  0  0  0
 25 53  1  0  0  0  0
 25 54  1  0  0  0  0
 25 55  1  0  0  0  0
M  CHG  1  15   1
M  END
> <s_m_source_file>
AV-unprocessed.smi

> <i_m_source_file_index>
1033

> <i_lp_mmshare_version>
43012

> <i_f3d_flags>
0

> <s_epik_input>
W0NIM11jKFtjSF0xKWMoW0NIM10pW2NIXWMoYzEyKW4oW2NIXW4yKVtDSDJdW0NASF0oW09IXSlbQ0gyXU4zW0NIMl1bQ0gyXU4oW0NIMl1bQ0gyXTMpW0NIMl1bQ0BIXShbQ0gzXSlbT0hd

> <s_epik_cmdline>
J2VwaWtfcHl0aG9uJywgJy1waCcsICc3LjAnLCAnLXRuJywgJzgnLCAnLW1hJywgJzIwMCcsICctbWV0YWxfYmluZGluZycsICctaW1hZScsICc8aW5maWxlLm1hZT4nLCAnLW9tYWUnLCAnPG91dGZpbGUubWFlPic=

> <r_epik_Ionization_Penalty>
0.129152

> <r_epik_Ionization_Penalty_Charging>
0.00083231

> <r_epik_Ionization_Penalty_Neutral>
0.128319

> <r_epik_State_Penalty>
0.556973

> <r_epik_Charging_Adjusted_Penalty>
0.557805

> <i_epik_Tot_Q>
1

> <i_epik_Tot_abs_Q>
1

> <r_epik_Metal_State_Penalty>
0.490047

> <b_epik_Metal_Only>
0

> <s_lp_Force_Field>
OPLS_2005

> <r_lp_Energy>
33.0878

> <b_lp_Chiralities_Consistent>
1

> <s_lp_Variant>
AV-unprocessed.smi:1033-8

> <Gold.Version>
5.8.1

> <Gold.Id.Protein>
6NUR|6NUR_protein|mol2

> <Gold.PLP.Fitness>
57.3006

> <Gold.PLP.PLP>
-49.4556

> <Gold.PLP.part.hbond>
-3.4231

> <Gold.PLP.part.metal>
0.0000

> <Gold.PLP.part.buried>
-3.2299

> <Gold.PLP.part.nonpolar>
-40.6310

> <Gold.PLP.part.repulsive>
0.1493

> <Gold.PLP.ligand.clash>
0.0000

> <Gold.PLP.ligand.torsion>
0.7038

> <Gold.PLP.Chemscore.Hbond>
3.0000

> <Gold.PLP.Chemscore.CHOScore>
0.0000

> <Gold.PLP.Chemscore.Metal>
0.0000

> <Gold.Chemscore.Hbonds>
donor molecule, donor type, donor heavy atom, donor atom, acceptor molecule, acceptor atom, score
      L1  H    15    56       P1 10175  2.00
      L1  H    19    47       P1 10175  1.00

> <Gold.PLP.Chemscore.Internal.Correction>
0.2527

> <Gold.Rescore>
     Score         DG    S(hbond)    S(metal)    S(lipo)     H(rot)  DE(clash)    DE(int)     intcor
     18.30     -20.24       1.99        0.00     136.34       3.07       1.31       0.62       ----

> <Gold.Chemscore.Fitness>
18.3047

> <Gold.Chemscore.DG>
-20.2407

> <Gold.Chemscore.ZeroCoef>
-5.4800

> <Gold.Chemscore.Hbond>
1.9927

> <Gold.Chemscore.Metal>
0.0000

> <Gold.Chemscore.Lipo>
136.3376

> <Gold.Chemscore.Internal_Hbond>
0.0000

> <Gold.Chemscore.DEClash>
1.3126

> <Gold.Chemscore.DEInternal>
0.6234

> <Gold.Chemscore.Rot>
3.0650

> <Gold.Chemscore.Internal.Correction>
   9.000000E+99

> <Gold.Chemscore.Hbonds>
donor molecule, donor type, donor heavy atom, donor atom, acceptor molecule, acceptor atom, score
      L1  H    15    56       P1 10175  0.99
      L1  H    19    47       P1 10175  0.94

> <Gold.Chemscore.Hbond.Weighted>
-6.6557

> <Gold.Chemscore.Metal.Weighted>
-0.0000

> <Gold.Chemscore.Lipo.Weighted>
-15.9515

> <Gold.Chemscore.Internal_Hbond.Weighted>
0.0000

> <Gold.Chemscore.DEClash.Weighted>
1.3126

> <Gold.Chemscore.DEInternal.Weighted>
0.6234

> <Gold.Chemscore.Rot.Weighted>
7.8465

> <Gold.Chemscore.Internal.Correction.Weighted>
   9.000000E+99

> <Gold.Protein.RotatedTorsions>
[ 6907 6896 6895 6894 ] final -109.20 input  -60.11 | X-H torsion
[ 7974 7965 7964 7962 ] final  -42.29 input  175.53 | X-H torsion
[ 8008 7997 7996 7995 ] final  -61.75 input   59.86 | X-H torsion
[ 10167 10162 10161 10158 ] final  -32.32 input  -65.29 | X-H torsion
[ 10718 10713 10712 10709 ] final   80.28 input   66.30 | X-H torsion
[ 10763 10752 10751 10750 ] final   -5.01 input  -60.55 | X-H torsion
[ 11005 11000 10999 10996 ] final  107.70 input  -57.11 | X-H torsion

> <Gold.Protein.ActiveResidues>
 VAL166  LYS551  ARG553  GLY616  TRP617  ASP618  TYR619  PRO620  LYS621  CYS622 
 ASP623  PHE694  ASN695  SER759  ASP760  ASP761  ALA762  ILE779  LEU786  VAL792 
 PHE793  MET794  SER795  GLU796  ALA797  LYS798  CYS799  TRP800  GLU811  SER814 

> <Gold.Protein.RotatedAtoms>
  150.7547  133.9565  159.3501 H   0  0  0  0  0  0  0  0  0  0  0  0  # atno 6907 bound_to 6896
  151.7487  135.0836  160.0336 H   0  0  0  0  0  0  0  0  0  0  0  0  # atno 6908 bound_to 6896
  152.3481  133.6109  159.5960 H   0  0  0  0  0  0  0  0  0  0  0  0  # atno 6909 bound_to 6896
  146.0130  140.6942  142.9215 H   0  0  0  0  0  0  0  0  0  0  0  0  # atno 7974 bound_to 7965
  154.4464  140.1011  156.6480 H   0  0  0  0  0  0  0  0  0  0  0  0  # atno 8008 bound_to 7997
  155.5429  140.3484  155.4432 H   0  0  0  0  0  0  0  0  0  0  0  0  # atno 8009 bound_to 7997
  156.0584  140.1320  156.9959 H   0  0  0  0  0  0  0  0  0  0  0  0  # atno 8010 bound_to 7997
  140.7223  143.3703  151.1791 H   0  0  0  0  0  0  0  0  0  0  0  0  # atno 10167 bound_to 10162
  157.6801  130.9952  150.2056 H   0  0  0  0  0  0  0  0  0  0  0  0  # atno 10718 bound_to 10713
  153.3926  135.7002  153.6484 H   0  0  0  0  0  0  0  0  0  0  0  0  # atno 10763 bound_to 10752
  153.5050  135.3644  155.2559 H   0  0  0  0  0  0  0  0  0  0  0  0  # atno 10764 bound_to 10752
  154.8704  135.4121  154.3246 H   0  0  0  0  0  0  0  0  0  0  0  0  # atno 10765 bound_to 10752
  139.8832  134.9408  156.5859 H   0  0  0  0  0  0  0  0  0  0  0  0  # atno 11005 bound_to 11000
  144.6960  140.3431  143.7195 LP  0  0  0  0  0  0  0  0  0  0  0  0  # atno 17320 bound_to 7965
  145.7313  139.1737  143.2429 LP  0  0  0  0  0  0  0  0  0  0  0  0  # atno 17321 bound_to 7965
  139.7273  143.9128  152.3007 LP  0  0  0  0  0  0  0  0  0  0  0  0  # atno 17342 bound_to 10162
  139.8905  144.6968  150.8776 LP  0  0  0  0  0  0  0  0  0  0  0  0  # atno 17343 bound_to 10162
  156.2738  130.3725  149.8004 LP  0  0  0  0  0  0  0  0  0  0  0  0  # atno 17370 bound_to 10713
  156.5713  130.8426  151.3357 LP  0  0  0  0  0  0  0  0  0  0  0  0  # atno 17371 bound_to 10713
  140.7992  133.8519  155.8712 LP  0  0  0  0  0  0  0  0  0  0  0  0  # atno 17394 bound_to 11000
  140.9608  134.1658  157.4655 LP  0  0  0  0  0  0  0  0  0  0  0  0  # atno 17395 bound_to 11000

$$$$
