AV-unprocessed.smi:1817|AV-procd|sdf|7377|dock2
  -GOLD-   22720 9 43D 1   1.00000     0.00000
 Structure written by MMmdl.
 42 43  0  0  0  0  0  0  0  0  3 V2000
  150.3868  141.2183  156.2730 C   0  0  0  0  0  0  0  0  0  0  0  0
  151.0812  139.8979  155.9080 C   0  0  0  0  0  0  0  0  0  0  0  0
  150.7908  139.4870  154.5322 N   0  0  0  0  0  0  0  0  0  0  0  0
  151.5798  138.3490  154.0466 C   0  0  0  0  0  0  0  0  0  0  0  0
  151.1799  137.0247  154.7306 C   0  0  0  0  0  0  0  0  0  0  0  0
  149.7353  136.7573  154.5245 N   0  3  0  0  0  0  0  0  0  0  0  0
  149.3004  135.4070  154.9837 C   0  0  1  0  0  0  0  0  0  0  0  0
  149.5361  135.1726  156.4920 C   0  0  0  0  0  0  0  0  0  0  0  0
  147.8386  135.1369  154.5586 C   0  0  0  0  0  0  0  0  0  0  0  0
  147.7432  134.5457  153.2279 N   0  0  0  0  0  0  0  0  0  0  0  0
  147.1397  133.3865  152.9300 C   0  0  0  0  0  0  0  0  0  0  0  0
  146.6255  132.7138  153.8266 O   0  0  0  0  0  0  0  0  0  0  0  0
  147.1633  133.0837  151.6130 N   0  5  0  0  0  0  0  0  0  0  0  0
  146.0599  132.6051  151.0145 C   0  0  0  0  0  0  0  0  0  0  0  0
  146.1192  131.7813  149.9561 N   0  0  0  0  0  0  0  0  0  0  0  0
  144.8683  131.4020  149.4886 N   0  0  0  0  0  0  0  0  0  0  0  0
  143.8925  131.9452  150.2159 C   0  0  0  0  0  0  0  0  0  0  0  0
  144.4131  132.9665  151.5396 S   0  0  0  0  0  0  0  0  0  0  0  0
  148.9240  137.9008  155.0156 C   0  0  0  0  0  0  0  0  0  0  0  0
  149.3680  139.2051  154.3205 C   0  0  0  0  0  0  0  0  0  0  0  0
  150.5078  141.4300  157.3355 H   0  0  0  0  0  0  0  0  0  0  0  0
  149.3168  141.1743  156.0669 H   0  0  0  0  0  0  0  0  0  0  0  0
  150.8033  142.0651  155.7282 H   0  0  0  0  0  0  0  0  0  0  0  0
  152.1529  139.9737  156.0883 H   0  0  0  0  0  0  0  0  0  0  0  0
  150.7087  139.1266  156.5831 H   0  0  0  0  0  0  0  0  0  0  0  0
  151.4230  138.2590  152.9709 H   0  0  0  0  0  0  0  0  0  0  0  0
  152.6450  138.5366  154.1757 H   0  0  0  0  0  0  0  0  0  0  0  0
  151.7662  136.2152  154.2949 H   0  0  0  0  0  0  0  0  0  0  0  0
  151.4195  137.0435  155.7938 H   0  0  0  0  0  0  0  0  0  0  0  0
  149.9188  134.6853  154.4481 H   0  0  0  0  0  0  0  0  0  0  0  0
  149.3568  134.1306  156.7583 H   0  0  0  0  0  0  0  0  0  0  0  0
  148.8703  135.7796  157.1054 H   0  0  0  0  0  0  0  0  0  0  0  0
  150.5618  135.4002  156.7808 H   0  0  0  0  0  0  0  0  0  0  0  0
  147.3591  134.4463  155.2516 H   0  0  0  0  0  0  0  0  0  0  0  0
  147.2548  136.0585  154.5905 H   0  0  0  0  0  0  0  0  0  0  0  0
  148.1559  135.0626  152.4649 H   0  0  0  0  0  0  0  0  0  0  0  0
  142.8603  131.7407  149.9738 H   0  0  0  0  0  0  0  0  0  0  0  0
  147.8698  137.7284  154.8020 H   0  0  0  0  0  0  0  0  0  0  0  0
  149.0107  138.0000  156.0978 H   0  0  0  0  0  0  0  0  0  0  0  0
  148.7692  140.0458  154.6729 H   0  0  0  0  0  0  0  0  0  0  0  0
  149.1836  139.1273  153.2481 H   0  0  0  0  0  0  0  0  0  0  0  0
  149.6143  136.7425  153.5218 H   0  0  0  0  0  0  0  0  0  0  0  0
  1  2  1  0  0  0  0
  1 21  1  0  0  0  0
  1 22  1  0  0  0  0
  1 23  1  0  0  0  0
  2  3  1  0  0  0  0
  2 24  1  0  0  0  0
  2 25  1  0  0  0  0
  3 20  1  0  0  0  0
  3  4  1  0  0  0  0
  4  5  1  0  0  0  0
  4 26  1  0  0  0  0
  4 27  1  0  0  0  0
  5  6  1  0  0  0  0
  5 28  1  0  0  0  0
  5 29  1  0  0  0  0
  6  7  1  0  0  0  0
  6 19  1  0  0  0  0
  6 42  1  0  0  0  0
  7  8  1  0  0  0  0
  7  9  1  0  0  0  0
  7 30  1  0  0  0  0
  8 31  1  0  0  0  0
  8 32  1  0  0  0  0
  8 33  1  0  0  0  0
  9 10  1  0  0  0  0
  9 34  1  0  0  0  0
  9 35  1  0  0  0  0
 10 11  1  0  0  0  0
 10 36  1  0  0  0  0
 11 12  2  0  0  0  0
 11 13  1  0  0  0  0
 13 14  1  0  0  0  0
 14 18  1  0  0  0  0
 14 15  2  0  0  0  0
 15 16  1  0  0  0  0
 16 17  2  0  0  0  0
 17 18  1  0  0  0  0
 17 37  1  0  0  0  0
 19 20  1  0  0  0  0
 19 38  1  0  0  0  0
 19 39  1  0  0  0  0
 20 40  1  0  0  0  0
 20 41  1  0  0  0  0
M  CHG  1   6   1
M  CHG  1  13  -1
M  END
> <s_m_source_file>
AV-unprocessed.smi

> <i_m_source_file_index>
1817

> <i_lp_mmshare_version>
43012

> <i_f3d_flags>
0

> <s_epik_input>
W0NIM11bQ0gyXU4xW0NIMl1bQ0gyXU4oW0NIMl1bQ0gyXTEpW0NASF0oW0NIM10pW0NIMl1bTkhdQyg9TylbTkhdYzJubltjSF1zMg==

> <s_epik_cmdline>
J2VwaWtfcHl0aG9uJywgJy1waCcsICc3LjAnLCAnLXRuJywgJzgnLCAnLW1hJywgJzIwMCcsICctbWV0YWxfYmluZGluZycsICctaW1hZScsICc8aW5maWxlLm1hZT4nLCAnLW9tYWUnLCAnPG91dGZpbGUubWFlPic=

> <r_epik_Ionization_Penalty>
3.16835

> <r_epik_Ionization_Penalty_Charging>
3.13468

> <r_epik_Ionization_Penalty_Neutral>
0.0336711

> <r_epik_State_Penalty>
3.95884

> <r_epik_Charging_Adjusted_Penalty>
7.09351

> <i_epik_Tot_Q>
0

> <i_epik_Tot_abs_Q>
2

> <r_epik_Metal_State_Penalty>
1.39003

> <b_epik_Metal_Only>
1

> <s_lp_Force_Field>
OPLS_2005

> <r_lp_Energy>
12.939

> <b_lp_Chiralities_Consistent>
1

> <s_lp_Variant>
AV-unprocessed.smi:1817-10

> <Gold.Version>
5.8.1

> <Gold.Id.Protein>
6NUR|6NUR_protein|mol2

> <Gold.PLP.Fitness>
45.3815

> <Gold.PLP.PLP>
-29.0197

> <Gold.PLP.part.hbond>
-4.0000

> <Gold.PLP.part.metal>
0.0000

> <Gold.PLP.part.buried>
-4.6809

> <Gold.PLP.part.nonpolar>
-21.5812

> <Gold.PLP.part.repulsive>
0.6869

> <Gold.PLP.ligand.clash>
0.0000

> <Gold.PLP.ligand.torsion>
1.0020

> <Gold.PLP.Chemscore.Hbond>
4.3463

> <Gold.PLP.Chemscore.CHOScore>
1.6997

> <Gold.PLP.Chemscore.Metal>
0.0000

> <Gold.Chemscore.Hbonds>
donor molecule, donor type, donor heavy atom, donor atom, acceptor molecule, acceptor atom, score
      L1  H     6    42       P1  7948  2.00
      L1  H    10    36       P1  7948  0.93
      P1  H  7989  7998       L1     3  0.90
      P1  H 10785 10796       L1    16  0.02
      L1  C    17    37       P1 10952  1.00

> <Gold.PLP.Chemscore.Internal.Correction>
0.2277

> <Gold.Rescore>
     Score         DG    S(hbond)    S(metal)    S(lipo)     H(rot)  DE(clash)    DE(int)     intcor
     13.69     -15.13       2.13        0.00      62.90       1.88       0.31       1.13       ----

> <Gold.Chemscore.Fitness>
13.6863

> <Gold.Chemscore.DG>
-15.1272

> <Gold.Chemscore.ZeroCoef>
-5.4800

> <Gold.Chemscore.Hbond>
2.1277

> <Gold.Chemscore.Metal>
0.0000

> <Gold.Chemscore.Lipo>
62.9049

> <Gold.Chemscore.Internal_Hbond>
0.0000

> <Gold.Chemscore.DEClash>
0.3118

> <Gold.Chemscore.DEInternal>
1.1291

> <Gold.Chemscore.Rot>
1.8825

> <Gold.Chemscore.Internal.Correction>
   9.000000E+99

> <Gold.Chemscore.Hbonds>
donor molecule, donor type, donor heavy atom, donor atom, acceptor molecule, acceptor atom, score
      L1  H     6    42       P1  7948  0.65
      L1  H    10    36       P1  7948  0.68
      P1  H  7989  7998       L1     3  0.07

> <Gold.Chemscore.Hbond.Weighted>
-7.1064

> <Gold.Chemscore.Metal.Weighted>
-0.0000

> <Gold.Chemscore.Lipo.Weighted>
-7.3599

> <Gold.Chemscore.Internal_Hbond.Weighted>
0.0000

> <Gold.Chemscore.DEClash.Weighted>
0.3118

> <Gold.Chemscore.DEInternal.Weighted>
1.1291

> <Gold.Chemscore.Rot.Weighted>
4.8191

> <Gold.Chemscore.Internal.Correction.Weighted>
   9.000000E+99

> <Gold.Protein.RotatedTorsions>
[ 6907 6896 6895 6894 ] final   33.08 input  -60.11 | X-H torsion
[ 7974 7965 7964 7962 ] final -179.71 input  175.53 | X-H torsion
[ 8008 7997 7996 7995 ] final -123.22 input   59.86 | X-H torsion
[ 10167 10162 10161 10158 ] final  -23.50 input  -65.29 | X-H torsion
[ 10718 10713 10712 10709 ] final  111.48 input   66.30 | X-H torsion
[ 10763 10752 10751 10750 ] final   42.49 input  -60.55 | X-H torsion
[ 11005 11000 10999 10996 ] final  166.81 input  -57.11 | X-H torsion

> <Gold.Protein.ActiveResidues>
 VAL166  LYS551  ARG553  GLY616  TRP617  ASP618  TYR619  PRO620  LYS621  CYS622 
 ASP623  PHE694  ASN695  SER759  ASP760  ASP761  ALA762  ILE779  LEU786  VAL792 
 PHE793  MET794  SER795  GLU796  ALA797  LYS798  CYS799  TRP800  GLU811  SER814 

> <Gold.Protein.RotatedAtoms>
  152.0835  134.9455  160.0572 H   0  0  0  0  0  0  0  0  0  0  0  0  # atno 6907 bound_to 6896
  152.0734  133.4113  159.4477 H   0  0  0  0  0  0  0  0  0  0  0  0  # atno 6908 bound_to 6896
  150.6836  134.2985  159.4740 H   0  0  0  0  0  0  0  0  0  0  0  0  # atno 6909 bound_to 6896
  144.7138  140.0677  143.6430 H   0  0  0  0  0  0  0  0  0  0  0  0  # atno 7974 bound_to 7965
  155.1770  140.0409  157.2874 H   0  0  0  0  0  0  0  0  0  0  0  0  # atno 8008 bound_to 7997
  154.6230  140.2505  155.7498 H   0  0  0  0  0  0  0  0  0  0  0  0  # atno 8009 bound_to 7997
  156.2444  140.2891  156.0547 H   0  0  0  0  0  0  0  0  0  0  0  0  # atno 8010 bound_to 7997
  140.7288  143.4438  151.0618 H   0  0  0  0  0  0  0  0  0  0  0  0  # atno 10167 bound_to 10162
  157.6442  131.0951  150.6755 H   0  0  0  0  0  0  0  0  0  0  0  0  # atno 10718 bound_to 10713
  152.9882  135.6130  154.2957 H   0  0  0  0  0  0  0  0  0  0  0  0  # atno 10763 bound_to 10752
  154.2680  135.2780  155.2752 H   0  0  0  0  0  0  0  0  0  0  0  0  # atno 10764 bound_to 10752
  154.5147  135.5831  153.6690 H   0  0  0  0  0  0  0  0  0  0  0  0  # atno 10765 bound_to 10752
  140.2703  134.7832  157.3669 H   0  0  0  0  0  0  0  0  0  0  0  0  # atno 11005 bound_to 11000
  145.9810  139.2941  143.1042 LP  0  0  0  0  0  0  0  0  0  0  0  0  # atno 17320 bound_to 7965
  145.9010  140.9242  143.0503 LP  0  0  0  0  0  0  0  0  0  0  0  0  # atno 17321 bound_to 7965
  139.8107  143.7954  152.3171 LP  0  0  0  0  0  0  0  0  0  0  0  0  # atno 17342 bound_to 10162
  139.8003  144.7376  150.9834 LP  0  0  0  0  0  0  0  0  0  0  0  0  # atno 17343 bound_to 10162
  156.7074  130.4641  149.5556 LP  0  0  0  0  0  0  0  0  0  0  0  0  # atno 17370 bound_to 10713
  156.1753  130.6464  151.0887 LP  0  0  0  0  0  0  0  0  0  0  0  0  # atno 17371 bound_to 10713
  140.1380  134.5009  155.8054 LP  0  0  0  0  0  0  0  0  0  0  0  0  # atno 17394 bound_to 11000
  141.2178  133.6814  156.7158 LP  0  0  0  0  0  0  0  0  0  0  0  0  # atno 17395 bound_to 11000

$$$$
