AV-unprocessed.smi:104|AV-procd|sdf|1000|dock9
  -GOLD-   2262017583D 1   1.00000     0.00000
 Structure written by MMmdl.
 47 49  0  0  0  0  0  0  0  0  1 V2000
  147.4382  134.6941  160.9663 C   0  0  0  0  0  0  0  0  0  0  0  0
  147.7075  136.0712  160.3734 C   0  0  0  0  0  0  0  0  0  0  0  0
  147.4749  137.0995  161.0087 O   0  0  0  0  0  0  0  0  0  0  0  0
  148.2104  136.0074  159.1317 O   0  0  0  0  0  0  0  0  0  0  0  0
  148.3385  137.1911  158.3602 C   0  0  0  0  0  0  0  0  0  0  0  0
  149.0771  136.8831  157.0433 C   0  0  1  0  0  0  0  0  0  0  0  0
  148.5728  135.6567  156.5345 O   0  0  0  0  0  0  0  0  0  0  0  0
  147.4541  135.9044  155.7389 C   0  0  2  0  0  0  0  0  0  0  0  0
  147.5102  134.9701  154.5687 N   0  0  0  0  0  0  0  0  0  0  0  0
  148.4585  134.0220  154.2599 C   0  0  0  0  0  0  0  0  0  0  0  0
  149.9799  133.7058  155.3608 Br  0  0  0  0  0  0  0  0  0  0  0  0
  148.2686  133.3197  153.1780 N   0  0  0  0  0  0  0  0  0  0  0  0
  147.0679  133.8238  152.6934 C   0  0  0  0  0  0  0  0  0  0  0  0
  146.2587  133.5284  151.5677 C   0  0  0  0  0  0  0  0  0  0  0  0
  146.5740  132.5873  150.6675 N   0  0  0  0  0  0  0  0  0  0  0  0
  145.1116  134.2256  151.3942 N   0  0  0  0  0  0  0  0  0  0  0  0
  144.7719  135.1673  152.2802 C   0  0  0  0  0  0  0  0  0  0  0  0
  145.4249  135.5561  153.3785 N   0  0  0  0  0  0  0  0  0  0  0  0
  146.5836  134.8541  153.5513 C   0  0  0  0  0  0  0  0  0  0  0  0
  147.4883  137.3908  155.3186 C   0  0  2  0  0  0  0  0  0  0  0  0
  147.4533  137.5559  153.9038 O   0  0  0  0  0  0  0  0  0  0  0  0
  147.0762  138.7243  153.3632 C   0  0  0  0  0  0  0  0  0  0  0  0
  146.9195  138.6356  151.8512 C   0  0  0  0  0  0  0  0  0  0  0  0
  146.8709  139.7740  153.9723 O   0  0  0  0  0  0  0  0  0  0  0  0
  148.8141  137.8673  155.8949 C   0  0  1  0  0  0  0  0  0  0  0  0
  148.7132  139.2212  156.3187 O   0  0  0  0  0  0  0  0  0  0  0  0
  149.5775  140.1400  155.8562 C   0  0  0  0  0  0  0  0  0  0  0  0
  149.5479  141.4253  156.6719 C   0  0  0  0  0  0  0  0  0  0  0  0
  150.3351  140.0048  154.8956 O   0  0  0  0  0  0  0  0  0  0  0  0
  147.9006  133.9128  160.3621 H   0  0  0  0  0  0  0  0  0  0  0  0
  146.3655  134.5070  161.0126 H   0  0  0  0  0  0  0  0  0  0  0  0
  147.8445  134.6328  161.9759 H   0  0  0  0  0  0  0  0  0  0  0  0
  147.3366  137.5635  158.1433 H   0  0  0  0  0  0  0  0  0  0  0  0
  148.8599  137.9713  158.9169 H   0  0  0  0  0  0  0  0  0  0  0  0
  150.1451  136.7774  157.2366 H   0  0  0  0  0  0  0  0  0  0  0  0
  146.5454  135.6401  156.2788 H   0  0  0  0  0  0  0  0  0  0  0  0
  147.4230  132.0515  150.7765 H   0  0  0  0  0  0  0  0  0  0  0  0
  145.9632  132.4160  149.8820 H   0  0  0  0  0  0  0  0  0  0  0  0
  143.8439  135.6828  152.0812 H   0  0  0  0  0  0  0  0  0  0  0  0
  146.6475  137.8848  155.8086 H   0  0  0  0  0  0  0  0  0  0  0  0
  146.2632  137.8067  151.5858 H   0  0  0  0  0  0  0  0  0  0  0  0
  147.8892  138.4743  151.3801 H   0  0  0  0  0  0  0  0  0  0  0  0
  146.4909  139.5563  151.4550 H   0  0  0  0  0  0  0  0  0  0  0  0
  149.5880  137.7452  155.1349 H   0  0  0  0  0  0  0  0  0  0  0  0
  148.5795  141.9151  156.5699 H   0  0  0  0  0  0  0  0  0  0  0  0
  150.3217  142.1133  156.3308 H   0  0  0  0  0  0  0  0  0  0  0  0
  149.7193  141.2093  157.7265 H   0  0  0  0  0  0  0  0  0  0  0  0
  1  2  1  0  0  0  0
  1 30  1  0  0  0  0
  1 31  1  0  0  0  0
  1 32  1  0  0  0  0
  2  3  2  0  0  0  0
  2  4  1  0  0  0  0
  4  5  1  0  0  0  0
  5  6  1  0  0  0  0
  5 33  1  0  0  0  0
  5 34  1  0  0  0  0
  6 25  1  0  0  0  0
  6  7  1  0  0  0  0
  6 35  1  0  0  0  0
  7  8  1  0  0  0  0
  8  9  1  0  0  0  0
  8 20  1  0  0  0  0
  8 36  1  0  0  0  0
  9 19  1  0  0  0  0
  9 10  1  0  0  0  0
 10 11  1  0  0  0  0
 10 12  2  0  0  0  0
 12 13  1  0  0  0  0
 13 19  2  0  0  0  0
 13 14  1  0  0  0  0
 14 15  1  0  0  0  0
 14 16  2  0  0  0  0
 15 37  1  0  0  0  0
 15 38  1  0  0  0  0
 16 17  1  0  0  0  0
 17 18  2  0  0  0  0
 17 39  1  0  0  0  0
 18 19  1  0  0  0  0
 20 21  1  0  0  0  0
 20 25  1  0  0  0  0
 20 40  1  0  0  0  0
 21 22  1  0  0  0  0
 22 23  1  0  0  0  0
 22 24  2  0  0  0  0
 23 41  1  0  0  0  0
 23 42  1  0  0  0  0
 23 43  1  0  0  0  0
 25 26  1  0  0  0  0
 25 44  1  0  0  0  0
 26 27  1  0  0  0  0
 27 28  1  0  0  0  0
 27 29  2  0  0  0  0
 28 45  1  0  0  0  0
 28 46  1  0  0  0  0
 28 47  1  0  0  0  0
M  END
> <s_m_source_file>
AV-unprocessed.smi

> <i_m_source_file_index>
104

> <i_lp_mmshare_version>
43012

> <i_f3d_flags>
0

> <s_epik_input>
W0NIM11DKD1PKU9bQ0gyXVtDQEBIXTFPW0NASF0oW0NAQEhdKE9DKD1PKVtDSDNdKVtDQEhdMU9DKD1PKVtDSDNdKW4oYyhCciluMiljKGMyMyluW2NIXW5jM1tOSDJd

> <s_epik_cmdline>
J2VwaWtfcHl0aG9uJywgJy1waCcsICc3LjAnLCAnLXRuJywgJzgnLCAnLW1hJywgJzIwMCcsICctbWV0YWxfYmluZGluZycsICctaW1hZScsICc8aW5maWxlLm1hZT4nLCAnLW9tYWUnLCAnPG91dGZpbGUubWFlPic=

> <r_lp_tautomer_probability>
1

> <r_epik_Ionization_Penalty>
7.36622e-05

> <r_epik_Ionization_Penalty_Charging>
0

> <r_epik_Ionization_Penalty_Neutral>
7.36622e-05

> <r_epik_State_Penalty>
-0

> <r_epik_Charging_Adjusted_Penalty>
0

> <i_epik_Tot_Q>
0

> <i_epik_Tot_abs_Q>
0

> <r_epik_Metal_State_Penalty>
-0

> <b_epik_Metal_Only>
0

> <s_epik_Chemistry_Notes>
This compound has an ester and may undergo hydrolysis at high or low pH. This compound contains an acetal/aminal-like group ( X-CH(R)-Y where X, Y are N, S, or O) that may be acid/base labile, releasing an aldehyde.

> <s_lp_Force_Field>
OPLS_2005

> <r_lp_Energy>
18.9649

> <b_lp_Chiralities_Consistent>
1

> <s_lp_Variant>
AV-unprocessed.smi:104-8

> <Gold.Version>
5.8.1

> <Gold.Id.Protein>
6NUR|6NUR_protein|mol2

> <Gold.PLP.Fitness>
35.7808

> <Gold.PLP.PLP>
-27.2888

> <Gold.PLP.part.hbond>
-4.0000

> <Gold.PLP.part.metal>
0.0000

> <Gold.PLP.part.buried>
-2.7554

> <Gold.PLP.part.nonpolar>
-21.9736

> <Gold.PLP.part.repulsive>
2.6053

> <Gold.PLP.ligand.clash>
0.0000

> <Gold.PLP.ligand.torsion>
1.5158

> <Gold.PLP.Chemscore.Hbond>
3.7920

> <Gold.PLP.Chemscore.CHOScore>
0.0000

> <Gold.PLP.Chemscore.Metal>
0.0000

> <Gold.Chemscore.Hbonds>
donor molecule, donor type, donor heavy atom, donor atom, acceptor molecule, acceptor atom, score
      L1  H    15    37       P1 10747  1.00
      P1  H  6931  6943       L1     3  0.67
      P1  H  6934  6947       L1     3  1.00
      P1  H  7989  7998       L1    29  0.84

> <Gold.PLP.Chemscore.Internal.Correction>
0.1475

> <Gold.Rescore>
     Score         DG    S(hbond)    S(metal)    S(lipo)     H(rot)  DE(clash)    DE(int)     intcor
      5.09     -11.13       3.69        0.00      37.35       4.31       1.59       4.45       ----

> <Gold.Chemscore.Fitness>
5.0886

> <Gold.Chemscore.DG>
-11.1321

> <Gold.Chemscore.ZeroCoef>
-5.4800

> <Gold.Chemscore.Hbond>
3.6850

> <Gold.Chemscore.Metal>
0.0000

> <Gold.Chemscore.Lipo>
37.3504

> <Gold.Chemscore.Internal_Hbond>
0.0000

> <Gold.Chemscore.DEClash>
1.5924

> <Gold.Chemscore.DEInternal>
4.4510

> <Gold.Chemscore.Rot>
4.3070

> <Gold.Chemscore.Internal.Correction>
   9.000000E+99

> <Gold.Chemscore.Hbonds>
donor molecule, donor type, donor heavy atom, donor atom, acceptor molecule, acceptor atom, score
      L1  H    15    37       P1 10747  0.94
      P1  H  6931  6943       L1     3  0.65
      P1  H  6934  6947       L1     3  0.95
      P1  H  7989  7998       L1    29  0.82

> <Gold.Chemscore.Hbond.Weighted>
-12.3079

> <Gold.Chemscore.Metal.Weighted>
-0.0000

> <Gold.Chemscore.Lipo.Weighted>
-4.3700

> <Gold.Chemscore.Internal_Hbond.Weighted>
0.0000

> <Gold.Chemscore.DEClash.Weighted>
1.5924

> <Gold.Chemscore.DEInternal.Weighted>
4.4510

> <Gold.Chemscore.Rot.Weighted>
11.0259

> <Gold.Chemscore.Internal.Correction.Weighted>
   9.000000E+99

> <Gold.Protein.RotatedTorsions>
[ 6907 6896 6895 6894 ] final -103.08 input  -60.11 | X-H torsion
[ 7974 7965 7964 7962 ] final   24.02 input  175.53 | X-H torsion
[ 8008 7997 7996 7995 ] final  -23.46 input   59.86 | X-H torsion
[ 10167 10162 10161 10158 ] final  -68.38 input  -65.29 | X-H torsion
[ 10718 10713 10712 10709 ] final  -31.86 input   66.30 | X-H torsion
[ 10763 10752 10751 10750 ] final  134.27 input  -60.55 | X-H torsion
[ 11005 11000 10999 10996 ] final   97.99 input  -57.11 | X-H torsion

> <Gold.Protein.ActiveResidues>
 VAL166  LYS551  ARG553  GLY616  TRP617  ASP618  TYR619  PRO620  LYS621  CYS622 
 ASP623  PHE694  ASN695  SER759  ASP760  ASP761  ALA762  ILE779  LEU786  VAL792 
 PHE793  MET794  SER795  GLU796  ALA797  LYS798  CYS799  TRP800  GLU811  SER814 

> <Gold.Protein.RotatedAtoms>
  150.7224  134.0483  159.3789 H   0  0  0  0  0  0  0  0  0  0  0  0  # atno 6907 bound_to 6896
  151.8459  135.0572  160.0463 H   0  0  0  0  0  0  0  0  0  0  0  0  # atno 6908 bound_to 6896
  152.2827  133.5450  159.5544 H   0  0  0  0  0  0  0  0  0  0  0  0  # atno 6909 bound_to 6896
  146.1957  139.7662  142.8799 H   0  0  0  0  0  0  0  0  0  0  0  0  # atno 7974 bound_to 7965
  154.4584  140.1980  156.0314 H   0  0  0  0  0  0  0  0  0  0  0  0  # atno 8008 bound_to 7997
  156.0792  140.3274  155.7644 H   0  0  0  0  0  0  0  0  0  0  0  0  # atno 8009 bound_to 7997
  155.5139  140.0564  157.2909 H   0  0  0  0  0  0  0  0  0  0  0  0  # atno 8010 bound_to 7997
  140.5512  143.2312  151.6908 H   0  0  0  0  0  0  0  0  0  0  0  0  # atno 10167 bound_to 10162
  156.3820  130.4357  149.7461 H   0  0  0  0  0  0  0  0  0  0  0  0  # atno 10718 bound_to 10713
  153.8208  135.3116  155.3410 H   0  0  0  0  0  0  0  0  0  0  0  0  # atno 10763 bound_to 10752
  154.8013  135.4725  154.0286 H   0  0  0  0  0  0  0  0  0  0  0  0  # atno 10764 bound_to 10752
  153.1694  135.6875  153.8718 H   0  0  0  0  0  0  0  0  0  0  0  0  # atno 10765 bound_to 10752
  139.8774  134.9028  156.4390 H   0  0  0  0  0  0  0  0  0  0  0  0  # atno 11005 bound_to 11000
  145.3651  141.0333  143.3263 LP  0  0  0  0  0  0  0  0  0  0  0  0  # atno 17320 bound_to 7965
  144.8576  139.5226  143.6827 LP  0  0  0  0  0  0  0  0  0  0  0  0  # atno 17321 bound_to 7965
  139.5028  144.3815  152.0371 LP  0  0  0  0  0  0  0  0  0  0  0  0  # atno 17342 bound_to 10162
  140.2932  144.3730  150.6082 LP  0  0  0  0  0  0  0  0  0  0  0  0  # atno 17343 bound_to 10162
  156.4548  130.7924  151.2945 LP  0  0  0  0  0  0  0  0  0  0  0  0  # atno 17370 bound_to 10713
  157.7493  131.0084  150.3227 LP  0  0  0  0  0  0  0  0  0  0  0  0  # atno 17371 bound_to 10713
  140.9013  133.7777  155.9683 LP  0  0  0  0  0  0  0  0  0  0  0  0  # atno 17394 bound_to 11000
  140.8648  134.2798  157.5218 LP  0  0  0  0  0  0  0  0  0  0  0  0  # atno 17395 bound_to 11000

$$$$
