AV-unprocessed.smi:113|AV-procd|sdf|1097|dock6
  -GOLD-   2262018203D 1   1.00000     0.00000
 Structure written by MMmdl.
 52 55  0  0  0  0  0  0  0  0  1 V2000
  153.8039  138.9500  159.6742 C   0  0  0  0  0  0  0  0  0  0  0  0
  153.1568  140.3083  159.5013 C   0  0  0  0  0  0  0  0  0  0  0  0
  152.5229  140.6552  158.2950 C   0  0  0  0  0  0  0  0  0  0  0  0
  151.9325  141.9339  158.1731 C   0  0  0  0  0  0  0  0  0  0  0  0
  151.2265  142.3615  156.8814 C   0  0  0  0  0  0  0  0  0  0  0  0
  150.0533  141.5943  156.4871 N   0  0  0  0  0  0  0  0  0  0  0  0
  150.2136  140.6175  155.4742 C   0  0  0  0  0  0  0  0  0  0  0  0
  151.3035  140.4228  154.9317 O   0  0  0  0  0  0  0  0  0  0  0  0
  149.0054  139.8569  155.1466 C   0  0  0  0  0  0  0  0  0  0  0  0
  149.1028  138.7864  154.0710 C   0  0  0  0  0  0  0  0  0  0  0  0
  147.8492  140.1144  155.8043 C   0  0  0  0  0  0  0  0  0  0  0  0
  147.7179  141.0794  156.7871 N   0  0  0  0  0  0  0  0  0  0  0  0
  146.3965  141.2401  157.5058 C   0  0  2  0  0  0  0  0  0  0  0  0
  145.9527  139.9829  158.2745 C   0  0  0  0  0  0  0  0  0  0  0  0
  144.5042  139.7939  157.8350 C   0  0  2  0  0  0  0  0  0  0  0  0
  144.3817  138.6432  157.0203 O   0  0  0  0  0  0  0  0  0  0  0  0
  144.1681  141.0969  157.0864 C   0  0  2  0  0  0  0  0  0  0  0  0
  143.1057  141.0181  155.9754 C   0  0  0  0  0  0  0  0  0  0  0  0
  143.3652  139.9226  155.1227 O   0  0  0  0  0  0  0  0  0  0  0  0
  145.4143  141.5275  156.5630 O   0  0  0  0  0  0  0  0  0  0  0  0
  148.8449  141.8356  157.1783 C   0  0  0  0  0  0  0  0  0  0  0  0
  148.7770  142.6546  158.0971 O   0  0  0  0  0  0  0  0  0  0  0  0
  152.0106  142.8116  159.2884 C   0  0  0  0  0  0  0  0  0  0  0  0
  151.4424  144.1082  159.2510 C   0  0  0  0  0  0  0  0  0  0  0  0
  151.5320  144.9619  160.3651 C   0  0  0  0  0  0  0  0  0  0  0  0
  152.1896  144.5290  161.5283 C   0  0  0  0  0  0  0  0  0  0  0  0
  152.7562  143.2426  161.5738 C   0  0  0  0  0  0  0  0  0  0  0  0
  152.6783  142.3686  160.4683 C   0  0  0  0  0  0  0  0  0  0  0  0
  153.2355  141.1408  160.5575 N   0  0  0  0  0  0  0  0  0  0  0  0
  153.4292  138.2397  158.9367 H   0  0  0  0  0  0  0  0  0  0  0  0
  153.5969  138.5462  160.6660 H   0  0  0  0  0  0  0  0  0  0  0  0
  154.8844  139.0302  159.5540 H   0  0  0  0  0  0  0  0  0  0  0  0
  152.4967  139.9408  157.4862 H   0  0  0  0  0  0  0  0  0  0  0  0
  150.9248  143.4079  156.9482 H   0  0  0  0  0  0  0  0  0  0  0  0
  151.9241  142.3359  156.0427 H   0  0  0  0  0  0  0  0  0  0  0  0
  148.1439  138.2981  153.8954 H   0  0  0  0  0  0  0  0  0  0  0  0
  149.8202  138.0183  154.3624 H   0  0  0  0  0  0  0  0  0  0  0  0
  149.4321  139.2224  153.1270 H   0  0  0  0  0  0  0  0  0  0  0  0
  146.9789  139.5299  155.5419 H   0  0  0  0  0  0  0  0  0  0  0  0
  146.5069  142.0991  158.1688 H   0  0  0  0  0  0  0  0  0  0  0  0
  146.5837  139.1203  158.0563 H   0  0  0  0  0  0  0  0  0  0  0  0
  146.0228  140.1870  159.3432 H   0  0  0  0  0  0  0  0  0  0  0  0
  143.8447  139.6624  158.6936 H   0  0  0  0  0  0  0  0  0  0  0  0
  144.9307  138.7502  156.2588 H   0  0  0  0  0  0  0  0  0  0  0  0
  143.8625  141.8488  157.8167 H   0  0  0  0  0  0  0  0  0  0  0  0
  142.1200  140.8746  156.4187 H   0  0  0  0  0  0  0  0  0  0  0  0
  143.0575  141.9397  155.3952 H   0  0  0  0  0  0  0  0  0  0  0  0
  143.2266  140.1949  154.2287 H   0  0  0  0  0  0  0  0  0  0  0  0
  150.9293  144.4717  158.3740 H   0  0  0  0  0  0  0  0  0  0  0  0
  151.0952  145.9491  160.3261 H   0  0  0  0  0  0  0  0  0  0  0  0
  152.2594  145.1822  162.3857 H   0  0  0  0  0  0  0  0  0  0  0  0
  153.2593  142.9208  162.4741 H   0  0  0  0  0  0  0  0  0  0  0  0
  1  2  1  0  0  0  0
  1 30  1  0  0  0  0
  1 31  1  0  0  0  0
  1 32  1  0  0  0  0
  2 29  1  0  0  0  0
  2  3  2  0  0  0  0
  3  4  1  0  0  0  0
  3 33  1  0  0  0  0
  4  5  1  0  0  0  0
  4 23  2  0  0  0  0
  5  6  1  0  0  0  0
  5 34  1  0  0  0  0
  5 35  1  0  0  0  0
  6 21  1  0  0  0  0
  6  7  1  0  0  0  0
  7  8  2  0  0  0  0
  7  9  1  0  0  0  0
  9 10  1  0  0  0  0
  9 11  2  0  0  0  0
 10 36  1  0  0  0  0
 10 37  1  0  0  0  0
 10 38  1  0  0  0  0
 11 12  1  0  0  0  0
 11 39  1  0  0  0  0
 12 13  1  0  0  0  0
 12 21  1  0  0  0  0
 13 20  1  0  0  0  0
 13 14  1  0  0  0  0
 13 40  1  0  0  0  0
 14 15  1  0  0  0  0
 14 41  1  0  0  0  0
 14 42  1  0  0  0  0
 15 16  1  0  0  0  0
 15 17  1  0  0  0  0
 15 43  1  0  0  0  0
 16 44  1  0  0  0  0
 17 18  1  0  0  0  0
 17 20  1  0  0  0  0
 17 45  1  0  0  0  0
 18 19  1  0  0  0  0
 18 46  1  0  0  0  0
 18 47  1  0  0  0  0
 19 48  1  0  0  0  0
 21 22  2  0  0  0  0
 23 28  1  0  0  0  0
 23 24  1  0  0  0  0
 24 25  2  0  0  0  0
 24 49  1  0  0  0  0
 25 26  1  0  0  0  0
 25 50  1  0  0  0  0
 26 27  2  0  0  0  0
 26 51  1  0  0  0  0
 27 28  1  0  0  0  0
 27 52  1  0  0  0  0
 28 29  2  0  0  0  0
M  END
> <s_m_source_file>
AV-unprocessed.smi

> <i_m_source_file_index>
113

> <i_lp_mmshare_version>
43012

> <i_f3d_flags>
0

> <s_epik_input>
W2NIXTFbY0hdW2NIXVtjSF1jKGMxMiluYyhbQ0gzXSlbY0hdYzJbQ0gyXW4zYyg9TyljKFtDSDNdKVtjSF1uKGMzPU8pW0NAQEhdNFtDSDJdW0NAQEhdKFtPSF0pW0NASF0oTzQpW0NIMl1bT0hd

> <s_epik_cmdline>
J2VwaWtfcHl0aG9uJywgJy1waCcsICc3LjAnLCAnLXRuJywgJzgnLCAnLW1hJywgJzIwMCcsICctbWV0YWxfYmluZGluZycsICctaW1hZScsICc8aW5maWxlLm1hZT4nLCAnLW9tYWUnLCAnPG91dGZpbGUubWFlPic=

> <r_lp_tautomer_probability>
1

> <r_epik_Ionization_Penalty>
0.214728

> <r_epik_Ionization_Penalty_Charging>
3.04883e-08

> <r_epik_Ionization_Penalty_Neutral>
0.214728

> <r_epik_State_Penalty>
0.204913

> <r_epik_Charging_Adjusted_Penalty>
0.204913

> <i_epik_Tot_Q>
0

> <i_epik_Tot_abs_Q>
0

> <r_epik_Metal_State_Penalty>
0.000244761

> <b_epik_Metal_Only>
0

> <s_epik_Chemistry_Notes>
This compound contains an acetal/aminal-like group ( X-CH(R)-Y where X, Y are N, S, or O) that may be acid/base labile, releasing an aldehyde.

> <s_lp_Force_Field>
OPLS_2005

> <r_lp_Energy>
37.3201

> <b_lp_Chiralities_Consistent>
1

> <s_lp_Variant>
AV-unprocessed.smi:113-7

> <Gold.Version>
5.8.1

> <Gold.Id.Protein>
6NUR|6NUR_protein|mol2

> <Gold.PLP.Fitness>
48.0597

> <Gold.PLP.PLP>
-42.7490

> <Gold.PLP.part.hbond>
-1.8495

> <Gold.PLP.part.metal>
0.0000

> <Gold.PLP.part.buried>
-4.0553

> <Gold.PLP.part.nonpolar>
-36.3748

> <Gold.PLP.part.repulsive>
0.6711

> <Gold.PLP.ligand.clash>
0.0000

> <Gold.PLP.ligand.torsion>
0.3609

> <Gold.PLP.Chemscore.Hbond>
2.0000

> <Gold.PLP.Chemscore.CHOScore>
0.0000

> <Gold.PLP.Chemscore.Metal>
0.0000

> <Gold.Chemscore.Hbonds>
donor molecule, donor type, donor heavy atom, donor atom, acceptor molecule, acceptor atom, score
      L1  H    19    48       P1 10175  1.00
      P1  H  7989  7998       L1     8  1.00

> <Gold.PLP.Chemscore.Internal.Correction>
0.0325

> <Gold.Rescore>
     Score         DG    S(hbond)    S(metal)    S(lipo)     H(rot)  DE(clash)    DE(int)     intcor
     17.79     -18.45       1.93        0.00     120.22       2.95       0.22       0.44       ----

> <Gold.Chemscore.Fitness>
17.7862

> <Gold.Chemscore.DG>
-18.4503

> <Gold.Chemscore.ZeroCoef>
-5.4800

> <Gold.Chemscore.Hbond>
1.9307

> <Gold.Chemscore.Metal>
0.0000

> <Gold.Chemscore.Lipo>
120.2182

> <Gold.Chemscore.Internal_Hbond>
0.0000

> <Gold.Chemscore.DEClash>
0.2216

> <Gold.Chemscore.DEInternal>
0.4424

> <Gold.Chemscore.Rot>
2.9469

> <Gold.Chemscore.Internal.Correction>
   9.000000E+99

> <Gold.Chemscore.Hbonds>
donor molecule, donor type, donor heavy atom, donor atom, acceptor molecule, acceptor atom, score
      L1  H    19    48       P1 10175  0.99
      P1  H  7989  7998       L1     8  0.89

> <Gold.Chemscore.Hbond.Weighted>
-6.4487

> <Gold.Chemscore.Metal.Weighted>
-0.0000

> <Gold.Chemscore.Lipo.Weighted>
-14.0655

> <Gold.Chemscore.Internal_Hbond.Weighted>
0.0000

> <Gold.Chemscore.DEClash.Weighted>
0.2216

> <Gold.Chemscore.DEInternal.Weighted>
0.4424

> <Gold.Chemscore.Rot.Weighted>
7.5439

> <Gold.Chemscore.Internal.Correction.Weighted>
   9.000000E+99

> <Gold.Protein.RotatedTorsions>
[ 6907 6896 6895 6894 ] final   69.15 input  -60.11 | X-H torsion
[ 7974 7965 7964 7962 ] final  150.94 input  175.53 | X-H torsion
[ 8008 7997 7996 7995 ] final  -92.96 input   59.86 | X-H torsion
[ 10167 10162 10161 10158 ] final  168.32 input  -65.29 | X-H torsion
[ 10718 10713 10712 10709 ] final -178.12 input   66.30 | X-H torsion
[ 10763 10752 10751 10750 ] final   31.32 input  -60.55 | X-H torsion
[ 11005 11000 10999 10996 ] final  151.44 input  -57.11 | X-H torsion

> <Gold.Protein.ActiveResidues>
 VAL166  LYS551  ARG553  GLY616  TRP617  ASP618  TYR619  PRO620  LYS621  CYS622 
 ASP623  PHE694  ASN695  SER759  ASP760  ASP761  ALA762  ILE779  LEU786  VAL792 
 PHE793  MET794  SER795  GLU796  ALA797  LYS798  CYS799  TRP800  GLU811  SER814 

> <Gold.Protein.RotatedAtoms>
  152.4667  134.5057  159.9738 H   0  0  0  0  0  0  0  0  0  0  0  0  # atno 6907 bound_to 6896
  151.5093  133.3482  159.2890 H   0  0  0  0  0  0  0  0  0  0  0  0  # atno 6908 bound_to 6896
  150.8656  134.8046  159.7178 H   0  0  0  0  0  0  0  0  0  0  0  0  # atno 6909 bound_to 6896
  144.8328  139.6473  143.6051 H   0  0  0  0  0  0  0  0  0  0  0  0  # atno 7974 bound_to 7965
  154.7296  140.0503  157.0714 H   0  0  0  0  0  0  0  0  0  0  0  0  # atno 8008 bound_to 7997
  155.0319  140.3159  155.4736 H   0  0  0  0  0  0  0  0  0  0  0  0  # atno 8009 bound_to 7997
  156.2838  140.2148  156.5440 H   0  0  0  0  0  0  0  0  0  0  0  0  # atno 8010 bound_to 7997
  139.4965  144.3827  151.9605 H   0  0  0  0  0  0  0  0  0  0  0  0  # atno 10167 bound_to 10162
  156.8396  130.9682  151.3101 H   0  0  0  0  0  0  0  0  0  0  0  0  # atno 10718 bound_to 10713
  153.0322  135.6442  154.1181 H   0  0  0  0  0  0  0  0  0  0  0  0  # atno 10763 bound_to 10752
  154.0902  135.2867  155.3274 H   0  0  0  0  0  0  0  0  0  0  0  0  # atno 10764 bound_to 10752
  154.6470  135.5439  153.7920 H   0  0  0  0  0  0  0  0  0  0  0  0  # atno 10765 bound_to 10752
  140.1219  134.8858  157.2084 H   0  0  0  0  0  0  0  0  0  0  0  0  # atno 11005 bound_to 11000
  146.2629  139.6453  142.9349 LP  0  0  0  0  0  0  0  0  0  0  0  0  # atno 17320 bound_to 7965
  145.4859  141.0438  143.2620 LP  0  0  0  0  0  0  0  0  0  0  0  0  # atno 17321 bound_to 7965
  140.3263  144.3368  150.5997 LP  0  0  0  0  0  0  0  0  0  0  0  0  # atno 17342 bound_to 10162
  140.5681  143.2184  151.7647 LP  0  0  0  0  0  0  0  0  0  0  0  0  # atno 17343 bound_to 10162
  157.6363  130.8769  149.9364 LP  0  0  0  0  0  0  0  0  0  0  0  0  # atno 17370 bound_to 10713
  156.0888  130.3665  150.0435 LP  0  0  0  0  0  0  0  0  0  0  0  0  # atno 17371 bound_to 10713
  140.2954  134.3192  155.7304 LP  0  0  0  0  0  0  0  0  0  0  0  0  # atno 17394 bound_to 11000
  141.2153  133.7560  156.9564 LP  0  0  0  0  0  0  0  0  0  0  0  0  # atno 17395 bound_to 11000

$$$$
