AV-unprocessed.smi:2052|AV-procd|sdf|8329|dock6
  -GOLD-   2272010593D 1   1.00000     0.00000
 Structure written by MMmdl.
 41 42  0  0  0  0  0  0  0  0  1 V2000
  144.0421  144.6254  156.5308 C   0  0  0  0  0  0  0  0  0  0  0  0
  144.7695  143.5161  155.2940 S   0  0  0  0  0  0  0  0  0  0  0  0
  146.0269  142.6632  156.2920 C   0  0  1  0  0  0  0  0  0  0  0  0
  145.3725  141.9851  157.5065 C   0  0  0  0  0  0  0  0  0  0  0  0
  146.8311  141.6558  155.4610 C   0  0  0  0  0  0  0  0  0  0  0  0
  146.2851  140.6559  154.9938 O   0  0  0  0  0  0  0  0  0  0  0  0
  148.1320  141.9324  155.2804 N   0  0  0  0  0  0  0  0  0  0  0  0
  149.0657  141.0960  154.5338 C   0  0  0  0  0  0  0  0  0  0  0  0
  150.2662  140.6303  155.3450 C   0  0  0  0  0  0  0  0  0  0  0  0
  150.9464  139.4338  155.0358 C   0  0  0  0  0  0  0  0  0  0  0  0
  152.0493  139.0683  155.8285 C   0  0  0  0  0  0  0  0  0  0  0  0
  152.4834  139.8004  156.8754 N   0  0  0  0  0  0  0  0  0  0  0  0
  151.8293  140.9453  157.1931 C   0  0  0  0  0  0  0  0  0  0  0  0
  152.2935  141.6965  158.2955 N   0  0  0  0  0  0  0  0  0  0  0  0
  151.7345  143.0396  158.4312 C   0  0  0  0  0  0  0  0  0  0  0  0
  152.5341  143.8524  159.4644 C   0  0  0  0  0  0  0  0  0  0  0  0
  152.5835  143.1479  160.7005 O   0  0  0  0  0  0  0  0  0  0  0  0
  153.2358  141.8899  160.5649 C   0  0  0  0  0  0  0  0  0  0  0  0
  152.4583  141.0070  159.5743 C   0  0  0  0  0  0  0  0  0  0  0  0
  150.7140  141.3921  156.4440 C   0  0  0  0  0  0  0  0  0  0  0  0
  143.2156  145.1837  156.0912 H   0  0  0  0  0  0  0  0  0  0  0  0
  144.7819  145.3388  156.8931 H   0  0  0  0  0  0  0  0  0  0  0  0
  143.6615  144.0550  157.3781 H   0  0  0  0  0  0  0  0  0  0  0  0
  146.7091  143.4252  156.6721 H   0  0  0  0  0  0  0  0  0  0  0  0
  146.1100  141.4560  158.1112 H   0  0  0  0  0  0  0  0  0  0  0  0
  144.6105  141.2658  157.2036 H   0  0  0  0  0  0  0  0  0  0  0  0
  144.8917  142.7223  158.1498 H   0  0  0  0  0  0  0  0  0  0  0  0
  148.5027  142.7744  155.6959 H   0  0  0  0  0  0  0  0  0  0  0  0
  148.5375  140.2355  154.1197 H   0  0  0  0  0  0  0  0  0  0  0  0
  149.4317  141.6712  153.6833 H   0  0  0  0  0  0  0  0  0  0  0  0
  150.6389  138.8083  154.2109 H   0  0  0  0  0  0  0  0  0  0  0  0
  152.5975  138.1622  155.6176 H   0  0  0  0  0  0  0  0  0  0  0  0
  151.7345  143.5773  157.4842 H   0  0  0  0  0  0  0  0  0  0  0  0
  150.6943  142.9556  158.7478 H   0  0  0  0  0  0  0  0  0  0  0  0
  153.5454  144.0500  159.1050 H   0  0  0  0  0  0  0  0  0  0  0  0
  152.0603  144.8206  159.6271 H   0  0  0  0  0  0  0  0  0  0  0  0
  154.2650  142.0349  160.2320 H   0  0  0  0  0  0  0  0  0  0  0  0
  153.2822  141.4067  161.5408 H   0  0  0  0  0  0  0  0  0  0  0  0
  151.4764  140.7640  159.9827 H   0  0  0  0  0  0  0  0  0  0  0  0
  152.9943  140.0678  159.4318 H   0  0  0  0  0  0  0  0  0  0  0  0
  150.2127  142.3165  156.6890 H   0  0  0  0  0  0  0  0  0  0  0  0
  1  2  1  0  0  0  0
  1 21  1  0  0  0  0
  1 22  1  0  0  0  0
  1 23  1  0  0  0  0
  2  3  1  0  0  0  0
  3  4  1  0  0  0  0
  3  5  1  0  0  0  0
  3 24  1  0  0  0  0
  4 25  1  0  0  0  0
  4 26  1  0  0  0  0
  4 27  1  0  0  0  0
  5  6  2  0  0  0  0
  5  7  1  0  0  0  0
  7  8  1  0  0  0  0
  7 28  1  0  0  0  0
  8  9  1  0  0  0  0
  8 29  1  0  0  0  0
  8 30  1  0  0  0  0
  9 20  1  0  0  0  0
  9 10  2  0  0  0  0
 10 11  1  0  0  0  0
 10 31  1  0  0  0  0
 11 12  2  0  0  0  0
 11 32  1  0  0  0  0
 12 13  1  0  0  0  0
 13 14  1  0  0  0  0
 13 20  2  0  0  0  0
 14 19  1  0  0  0  0
 14 15  1  0  0  0  0
 15 16  1  0  0  0  0
 15 33  1  0  0  0  0
 15 34  1  0  0  0  0
 16 17  1  0  0  0  0
 16 35  1  0  0  0  0
 16 36  1  0  0  0  0
 17 18  1  0  0  0  0
 18 19  1  0  0  0  0
 18 37  1  0  0  0  0
 18 38  1  0  0  0  0
 19 39  1  0  0  0  0
 19 40  1  0  0  0  0
 20 41  1  0  0  0  0
M  END
> <s_m_source_file>
AV-unprocessed.smi

> <i_m_source_file_index>
2052

> <i_lp_mmshare_version>
43012

> <i_f3d_flags>
0

> <s_epik_input>
W0NIM11TW0NASF0oW0NIM10pQyg9TylbTkhdW0NIMl1jMVtjSF1bY0hdbmMoW2NIXTEpTjJbQ0gyXVtDSDJdT1tDSDJdW0NIMl0y

> <s_epik_cmdline>
J2VwaWtfcHl0aG9uJywgJy1waCcsICc3LjAnLCAnLXRuJywgJzgnLCAnLW1hJywgJzIwMCcsICctbWV0YWxfYmluZGluZycsICctaW1hZScsICc8aW5maWxlLm1hZT4nLCAnLW9tYWUnLCAnPG91dGZpbGUubWFlPic=

> <r_lp_tautomer_probability>
1

> <r_epik_Ionization_Penalty>
0.00463955

> <r_epik_Ionization_Penalty_Charging>
0

> <r_epik_Ionization_Penalty_Neutral>
0.00463955

> <r_epik_State_Penalty>
0.00335544

> <r_epik_Charging_Adjusted_Penalty>
0.00335544

> <i_epik_Tot_Q>
0

> <i_epik_Tot_abs_Q>
0

> <r_epik_Metal_State_Penalty>
-0

> <b_epik_Metal_Only>
0

> <s_lp_Force_Field>
OPLS_2005

> <r_lp_Energy>
15.5355

> <b_lp_Chiralities_Consistent>
1

> <s_lp_Variant>
AV-unprocessed.smi:2052-2

> <Gold.Version>
5.8.1

> <Gold.Id.Protein>
6NUR|6NUR_protein|mol2

> <Gold.PLP.Fitness>
43.4026

> <Gold.PLP.PLP>
-38.2232

> <Gold.PLP.part.hbond>
-2.0000

> <Gold.PLP.part.metal>
0.0000

> <Gold.PLP.part.buried>
-2.5038

> <Gold.PLP.part.nonpolar>
-31.6181

> <Gold.PLP.part.repulsive>
0.2754

> <Gold.PLP.ligand.clash>
0.0000

> <Gold.PLP.ligand.torsion>
0.5871

> <Gold.PLP.Chemscore.Hbond>
1.9920

> <Gold.PLP.Chemscore.CHOScore>
0.0000

> <Gold.PLP.Chemscore.Metal>
0.0000

> <Gold.Chemscore.Hbonds>
donor molecule, donor type, donor heavy atom, donor atom, acceptor molecule, acceptor atom, score
      L1  H     7    28       P1  8028  1.00
      P1  H  7997  8008       L1    12  1.00

> <Gold.PLP.Chemscore.Internal.Correction>
0.3775

> <Gold.Rescore>
     Score         DG    S(hbond)    S(metal)    S(lipo)     H(rot)  DE(clash)    DE(int)     intcor
     14.89     -15.62       1.20        0.00      88.92       1.67       0.08       0.65       ----

> <Gold.Chemscore.Fitness>
14.8896

> <Gold.Chemscore.DG>
-15.6238

> <Gold.Chemscore.ZeroCoef>
-5.4800

> <Gold.Chemscore.Hbond>
1.2010

> <Gold.Chemscore.Metal>
0.0000

> <Gold.Chemscore.Lipo>
88.9161

> <Gold.Chemscore.Internal_Hbond>
0.0000

> <Gold.Chemscore.DEClash>
0.0809

> <Gold.Chemscore.DEInternal>
0.6532

> <Gold.Chemscore.Rot>
1.6682

> <Gold.Chemscore.Internal.Correction>
   9.000000E+99

> <Gold.Chemscore.Hbonds>
donor molecule, donor type, donor heavy atom, donor atom, acceptor molecule, acceptor atom, score
      L1  H     7    28       P1  8028  0.93
      P1  H  7997  8008       L1    12  0.20

> <Gold.Chemscore.Hbond.Weighted>
-4.0113

> <Gold.Chemscore.Metal.Weighted>
-0.0000

> <Gold.Chemscore.Lipo.Weighted>
-10.4032

> <Gold.Chemscore.Internal_Hbond.Weighted>
0.0000

> <Gold.Chemscore.DEClash.Weighted>
0.0809

> <Gold.Chemscore.DEInternal.Weighted>
0.6532

> <Gold.Chemscore.Rot.Weighted>
4.2707

> <Gold.Chemscore.Internal.Correction.Weighted>
   9.000000E+99

> <Gold.Protein.RotatedTorsions>
[ 6907 6896 6895 6894 ] final -125.38 input  -60.11 | X-H torsion
[ 7974 7965 7964 7962 ] final   62.29 input  175.53 | X-H torsion
[ 8008 7997 7996 7995 ] final  -39.63 input   59.86 | X-H torsion
[ 10167 10162 10161 10158 ] final  -30.74 input  -65.29 | X-H torsion
[ 10718 10713 10712 10709 ] final -164.75 input   66.30 | X-H torsion
[ 10763 10752 10751 10750 ] final -138.95 input  -60.55 | X-H torsion
[ 11005 11000 10999 10996 ] final  165.48 input  -57.11 | X-H torsion

> <Gold.Protein.ActiveResidues>
 VAL166  LYS551  ARG553  GLY616  TRP617  ASP618  TYR619  PRO620  LYS621  CYS622 
 ASP623  PHE694  ASN695  SER759  ASP760  ASP761  ALA762  ILE779  LEU786  VAL792 
 PHE793  MET794  SER795  GLU796  ALA797  LYS798  CYS799  TRP800  GLU811  SER814 

> <Gold.Protein.RotatedAtoms>
  150.8862  133.7305  159.2917 H   0  0  0  0  0  0  0  0  0  0  0  0  # atno 6907 bound_to 6896
  151.4870  135.1054  159.9803 H   0  0  0  0  0  0  0  0  0  0  0  0  # atno 6908 bound_to 6896
  152.4791  133.8164  159.7086 H   0  0  0  0  0  0  0  0  0  0  0  0  # atno 6909 bound_to 6896
  145.8751  139.3404  143.0739 H   0  0  0  0  0  0  0  0  0  0  0  0  # atno 7974 bound_to 7965
  154.4021  140.1546  156.2895 H   0  0  0  0  0  0  0  0  0  0  0  0  # atno 8008 bound_to 7997
  155.8798  140.3444  155.5858 H   0  0  0  0  0  0  0  0  0  0  0  0  # atno 8009 bound_to 7997
  155.7680  140.0826  157.2113 H   0  0  0  0  0  0  0  0  0  0  0  0  # atno 8010 bound_to 7997
  140.7245  143.3825  151.1574 H   0  0  0  0  0  0  0  0  0  0  0  0  # atno 10167 bound_to 10162
  156.6435  130.8978  151.3000 H   0  0  0  0  0  0  0  0  0  0  0  0  # atno 10718 bound_to 10713
  154.8623  135.3597  154.5468 H   0  0  0  0  0  0  0  0  0  0  0  0  # atno 10763 bound_to 10752
  153.6087  135.7010  153.5360 H   0  0  0  0  0  0  0  0  0  0  0  0  # atno 10764 bound_to 10752
  153.3228  135.4146  155.1391 H   0  0  0  0  0  0  0  0  0  0  0  0  # atno 10765 bound_to 10752
  140.2566  134.7935  157.3551 H   0  0  0  0  0  0  0  0  0  0  0  0  # atno 11005 bound_to 11000
  145.9091  140.9192  143.0463 LP  0  0  0  0  0  0  0  0  0  0  0  0  # atno 17320 bound_to 7965
  144.6726  140.1135  143.7454 LP  0  0  0  0  0  0  0  0  0  0  0  0  # atno 17321 bound_to 7965
  139.7417  143.8914  152.3051 LP  0  0  0  0  0  0  0  0  0  0  0  0  # atno 17342 bound_to 10162
  139.8738  144.7054  150.8957 LP  0  0  0  0  0  0  0  0  0  0  0  0  # atno 17343 bound_to 10162
  157.7163  130.9502  150.1270 LP  0  0  0  0  0  0  0  0  0  0  0  0  # atno 17370 bound_to 10713
  156.2140  130.3669  149.8635 LP  0  0  0  0  0  0  0  0  0  0  0  0  # atno 17371 bound_to 10713
  140.1506  134.4855  155.7964 LP  0  0  0  0  0  0  0  0  0  0  0  0  # atno 17394 bound_to 11000
  141.2195  133.6861  156.7371 LP  0  0  0  0  0  0  0  0  0  0  0  0  # atno 17395 bound_to 11000

$$$$
