AV-unprocessed.smi:2110|AV-procd|sdf|8610|dock4
  -GOLD-   2272011353D 1   1.00000     0.00000
 Structure written by MMmdl.
 45 46  0  0  0  0  0  0  0  0  2 V2000
  153.8237  141.3205  159.9393 C   0  0  0  0  0  0  0  0  0  0  0  0
  152.4402  141.9901  159.9790 C   0  0  0  0  0  0  0  0  0  0  0  0
  151.6680  141.7971  158.7345 N   0  0  0  0  0  0  0  0  0  0  0  0
  151.4091  142.9987  157.9160 C   0  0  0  0  0  0  0  0  0  0  0  0
  152.0532  144.2694  158.4911 C   0  0  0  0  0  0  0  0  0  0  0  0
  151.4643  140.2074  158.0522 S   0  0  0  0  0  0  0  0  0  0  0  0
  152.6732  139.9440  157.2537 O   0  0  0  0  0  0  0  0  0  0  0  0
  151.1765  139.3062  159.1800 O   0  0  0  0  0  0  0  0  0  0  0  0
  150.1559  140.5333  157.1545 N   0  5  0  0  0  0  0  0  0  0  0  0
  150.3291  141.1156  155.8373 C   0  0  0  0  0  0  0  0  0  0  0  0
  149.0018  141.2446  155.1013 C   0  0  0  0  0  0  0  0  0  0  0  0
  148.8385  140.6986  153.8088 C   0  0  0  0  0  0  0  0  0  0  0  0
  147.5938  140.8485  153.1713 C   0  0  0  0  0  0  0  0  0  0  0  0
  146.5427  141.4786  153.7350 N   0  0  0  0  0  0  0  0  0  0  0  0
  146.6815  141.9996  154.9792 C   0  0  0  0  0  0  0  0  0  0  0  0
  145.5684  142.6458  155.5604 N   0  0  0  0  0  0  0  0  0  0  0  0
  144.9169  143.6522  154.7254 C   0  0  0  0  0  0  0  0  0  0  0  0
  143.5611  144.0545  155.3310 C   0  0  0  0  0  0  0  0  0  0  0  0
  143.7418  144.4869  156.6754 O   0  0  0  0  0  0  0  0  0  0  0  0
  144.2756  143.4530  157.4958 C   0  0  0  0  0  0  0  0  0  0  0  0
  145.6575  143.0332  156.9671 C   0  0  0  0  0  0  0  0  0  0  0  0
  147.9018  141.9089  155.6916 C   0  0  0  0  0  0  0  0  0  0  0  0
  154.3881  141.5544  160.8416 H   0  0  0  0  0  0  0  0  0  0  0  0
  154.4139  141.6522  159.0860 H   0  0  0  0  0  0  0  0  0  0  0  0
  153.7404  140.2351  159.8837 H   0  0  0  0  0  0  0  0  0  0  0  0
  151.8655  141.5851  160.8120 H   0  0  0  0  0  0  0  0  0  0  0  0
  152.5508  143.0561  160.1795 H   0  0  0  0  0  0  0  0  0  0  0  0
  151.7759  142.8340  156.9034 H   0  0  0  0  0  0  0  0  0  0  0  0
  150.3316  143.1402  157.8289 H   0  0  0  0  0  0  0  0  0  0  0  0
  151.8870  145.1153  157.8244 H   0  0  0  0  0  0  0  0  0  0  0  0
  153.1301  144.1560  158.6115 H   0  0  0  0  0  0  0  0  0  0  0  0
  151.6292  144.5336  159.4594 H   0  0  0  0  0  0  0  0  0  0  0  0
  150.7658  142.1133  155.8917 H   0  0  0  0  0  0  0  0  0  0  0  0
  151.0171  140.5285  155.2279 H   0  0  0  0  0  0  0  0  0  0  0  0
  149.6428  140.1827  153.3021 H   0  0  0  0  0  0  0  0  0  0  0  0
  147.4366  140.4491  152.1804 H   0  0  0  0  0  0  0  0  0  0  0  0
  145.5674  144.5249  154.6562 H   0  0  0  0  0  0  0  0  0  0  0  0
  144.7583  143.2954  153.7088 H   0  0  0  0  0  0  0  0  0  0  0  0
  143.1193  144.8669  154.7538 H   0  0  0  0  0  0  0  0  0  0  0  0
  142.8576  143.2209  155.2963 H   0  0  0  0  0  0  0  0  0  0  0  0
  144.3608  143.8193  158.5189 H   0  0  0  0  0  0  0  0  0  0  0  0
  143.5929  142.6018  157.5177 H   0  0  0  0  0  0  0  0  0  0  0  0
  146.0360  142.2029  157.5644 H   0  0  0  0  0  0  0  0  0  0  0  0
  146.3627  143.8590  157.0710 H   0  0  0  0  0  0  0  0  0  0  0  0
  147.9922  142.3560  156.6720 H   0  0  0  0  0  0  0  0  0  0  0  0
  1  2  1  0  0  0  0
  1 23  1  0  0  0  0
  1 24  1  0  0  0  0
  1 25  1  0  0  0  0
  2  3  1  0  0  0  0
  2 26  1  0  0  0  0
  2 27  1  0  0  0  0
  3  4  1  0  0  0  0
  3  6  1  0  0  0  0
  4  5  1  0  0  0  0
  4 28  1  0  0  0  0
  4 29  1  0  0  0  0
  5 30  1  0  0  0  0
  5 31  1  0  0  0  0
  5 32  1  0  0  0  0
  6  7  2  0  0  0  0
  6  8  2  0  0  0  0
  6  9  1  0  0  0  0
  9 10  1  0  0  0  0
 10 11  1  0  0  0  0
 10 33  1  0  0  0  0
 10 34  1  0  0  0  0
 11 22  1  0  0  0  0
 11 12  2  0  0  0  0
 12 13  1  0  0  0  0
 12 35  1  0  0  0  0
 13 14  2  0  0  0  0
 13 36  1  0  0  0  0
 14 15  1  0  0  0  0
 15 16  1  0  0  0  0
 15 22  2  0  0  0  0
 16 21  1  0  0  0  0
 16 17  1  0  0  0  0
 17 18  1  0  0  0  0
 17 37  1  0  0  0  0
 17 38  1  0  0  0  0
 18 19  1  0  0  0  0
 18 39  1  0  0  0  0
 18 40  1  0  0  0  0
 19 20  1  0  0  0  0
 20 21  1  0  0  0  0
 20 41  1  0  0  0  0
 20 42  1  0  0  0  0
 21 43  1  0  0  0  0
 21 44  1  0  0  0  0
 22 45  1  0  0  0  0
M  CHG  1   9  -1
M  END
> <s_m_source_file>
AV-unprocessed.smi

> <i_m_source_file_index>
2110

> <i_lp_mmshare_version>
43012

> <i_f3d_flags>
0

> <s_epik_input>
W0NIM11bQ0gyXU4oW0NIMl1bQ0gzXSlTKD1PKSg9TylbTkhdW0NIMl1jMVtjSF1bY0hdbmMoW2NIXTEpTjJbQ0gyXVtDSDJdT1tDSDJdW0NIMl0y

> <s_epik_cmdline>
J2VwaWtfcHl0aG9uJywgJy1waCcsICc3LjAnLCAnLXRuJywgJzgnLCAnLW1hJywgJzIwMCcsICctbWV0YWxfYmluZGluZycsICctaW1hZScsICc8aW5maWxlLm1hZT4nLCAnLW9tYWUnLCAnPG91dGZpbGUubWFlPic=

> <r_lp_tautomer_probability>
1

> <r_epik_Ionization_Penalty>
2.67693

> <r_epik_Ionization_Penalty_Charging>
2.41478

> <r_epik_Ionization_Penalty_Neutral>
0.262148

> <r_epik_State_Penalty>
2.66454

> <r_epik_Charging_Adjusted_Penalty>
5.07933

> <i_epik_Tot_Q>
-1

> <i_epik_Tot_abs_Q>
1

> <r_epik_Metal_State_Penalty>
0.588443

> <b_epik_Metal_Only>
0

> <s_lp_Force_Field>
OPLS_2005

> <r_lp_Energy>
11.2641

> <b_lp_Chiralities_Consistent>
1

> <s_lp_Variant>
AV-unprocessed.smi:2110-3

> <Gold.Version>
5.8.1

> <Gold.Id.Protein>
6NUR|6NUR_protein|mol2

> <Gold.PLP.Fitness>
40.9688

> <Gold.PLP.PLP>
-36.7288

> <Gold.PLP.part.hbond>
-1.2268

> <Gold.PLP.part.metal>
0.0000

> <Gold.PLP.part.buried>
0.1143

> <Gold.PLP.part.nonpolar>
-35.7490

> <Gold.PLP.part.repulsive>
0.4210

> <Gold.PLP.ligand.clash>
0.0259

> <Gold.PLP.ligand.torsion>
2.0493

> <Gold.PLP.Chemscore.Hbond>
1.0000

> <Gold.PLP.Chemscore.CHOScore>
0.5448

> <Gold.PLP.Chemscore.Metal>
0.0000

> <Gold.Chemscore.Hbonds>
donor molecule, donor type, donor heavy atom, donor atom, acceptor molecule, acceptor atom, score
      P1  H  7997  8009       L1     7  1.00
      L1  C    13    36       P1  7957  0.59

> <Gold.PLP.Chemscore.Internal.Correction>
3.7302

> <Gold.Rescore>
     Score         DG    S(hbond)    S(metal)    S(lipo)     H(rot)  DE(clash)    DE(int)     intcor
     12.52     -14.85       0.99        0.00      88.35       1.66       0.20       2.13       ----

> <Gold.Chemscore.Fitness>
12.5176

> <Gold.Chemscore.DG>
-14.8461

> <Gold.Chemscore.ZeroCoef>
-5.4800

> <Gold.Chemscore.Hbond>
0.9850

> <Gold.Chemscore.Metal>
0.0000

> <Gold.Chemscore.Lipo>
88.3457

> <Gold.Chemscore.Internal_Hbond>
0.0000

> <Gold.Chemscore.DEClash>
0.2032

> <Gold.Chemscore.DEInternal>
2.1254

> <Gold.Chemscore.Rot>
1.6642

> <Gold.Chemscore.Internal.Correction>
   9.000000E+99

> <Gold.Chemscore.Hbonds>
donor molecule, donor type, donor heavy atom, donor atom, acceptor molecule, acceptor atom, score
      P1  H  7997  8009       L1     7  0.99

> <Gold.Chemscore.Hbond.Weighted>
-3.2901

> <Gold.Chemscore.Metal.Weighted>
-0.0000

> <Gold.Chemscore.Lipo.Weighted>
-10.3364

> <Gold.Chemscore.Internal_Hbond.Weighted>
0.0000

> <Gold.Chemscore.DEClash.Weighted>
0.2032

> <Gold.Chemscore.DEInternal.Weighted>
2.1254

> <Gold.Chemscore.Rot.Weighted>
4.2604

> <Gold.Chemscore.Internal.Correction.Weighted>
   9.000000E+99

> <Gold.Protein.RotatedTorsions>
[ 6907 6896 6895 6894 ] final  123.77 input  -60.11 | X-H torsion
[ 7974 7965 7964 7962 ] final   -0.35 input  175.53 | X-H torsion
[ 8008 7997 7996 7995 ] final  174.77 input   59.86 | X-H torsion
[ 10167 10162 10161 10158 ] final   42.02 input  -65.29 | X-H torsion
[ 10718 10713 10712 10709 ] final -150.21 input   66.30 | X-H torsion
[ 10763 10752 10751 10750 ] final  139.23 input  -60.55 | X-H torsion
[ 11005 11000 10999 10996 ] final -109.33 input  -57.11 | X-H torsion

> <Gold.Protein.ActiveResidues>
 VAL166  LYS551  ARG553  GLY616  TRP617  ASP618  TYR619  PRO620  LYS621  CYS622 
 ASP623  PHE694  ASN695  SER759  ASP760  ASP761  ALA762  ILE779  LEU786  VAL792 
 PHE793  MET794  SER795  GLU796  ALA797  LYS798  CYS799  TRP800  GLU811  SER814 

> <Gold.Protein.RotatedAtoms>
  152.4134  133.7000  159.6417 H   0  0  0  0  0  0  0  0  0  0  0  0  # atno 6907 bound_to 6896
  150.8013  133.8583  159.3233 H   0  0  0  0  0  0  0  0  0  0  0  0  # atno 6908 bound_to 6896
  151.6319  135.1024  160.0175 H   0  0  0  0  0  0  0  0  0  0  0  0  # atno 6909 bound_to 6896
  146.2428  140.1257  142.8339 H   0  0  0  0  0  0  0  0  0  0  0  0  # atno 7974 bound_to 7965
  156.0940  140.1426  156.9555 H   0  0  0  0  0  0  0  0  0  0  0  0  # atno 8008 bound_to 7997
  154.4660  140.0926  156.7067 H   0  0  0  0  0  0  0  0  0  0  0  0  # atno 8009 bound_to 7997
  155.4872  140.3447  155.4351 H   0  0  0  0  0  0  0  0  0  0  0  0  # atno 8010 bound_to 7997
  140.3586  144.2258  150.6140 H   0  0  0  0  0  0  0  0  0  0  0  0  # atno 10167 bound_to 10162
  156.4432  130.8132  151.2362 H   0  0  0  0  0  0  0  0  0  0  0  0  # atno 10718 bound_to 10713
  153.9026  135.3020  155.3448 H   0  0  0  0  0  0  0  0  0  0  0  0  # atno 10763 bound_to 10752
  154.7663  135.4909  153.9563 H   0  0  0  0  0  0  0  0  0  0  0  0  # atno 10764 bound_to 10752
  153.1236  135.6788  153.9394 H   0  0  0  0  0  0  0  0  0  0  0  0  # atno 10765 bound_to 10752
  141.0853  133.9149  157.2198 H   0  0  0  0  0  0  0  0  0  0  0  0  # atno 11005 bound_to 11000
  145.0368  140.8914  143.5076 LP  0  0  0  0  0  0  0  0  0  0  0  0  # atno 17320 bound_to 7965
  145.1331  139.2619  143.5529 LP  0  0  0  0  0  0  0  0  0  0  0  0  # atno 17321 bound_to 7965
  140.5149  143.2280  151.8478 LP  0  0  0  0  0  0  0  0  0  0  0  0  # atno 17342 bound_to 10162
  139.4817  144.4905  151.9190 LP  0  0  0  0  0  0  0  0  0  0  0  0  # atno 17343 bound_to 10162
  157.7505  131.0161  150.3533 LP  0  0  0  0  0  0  0  0  0  0  0  0  # atno 17370 bound_to 10713
  156.3895  130.3895  149.7041 LP  0  0  0  0  0  0  0  0  0  0  0  0  # atno 17371 bound_to 10713
  139.9671  135.0139  156.9416 LP  0  0  0  0  0  0  0  0  0  0  0  0  # atno 17394 bound_to 11000
  140.5376  134.0752  155.7332 LP  0  0  0  0  0  0  0  0  0  0  0  0  # atno 17395 bound_to 11000

$$$$
