AV-unprocessed.smi:54|AV-procd|sdf|534|dock5
  -GOLD-   2262016413D 1   1.00000     0.00000
 Structure written by MMmdl.
 44 46  0  0  0  0  0  0  0  0  1 V2000
  145.8274  133.7535  150.3239 C   0  0  0  0  0  0  0  0  0  0  0  0
  146.2314  132.5811  151.2326 C   0  0  0  0  0  0  0  0  0  0  0  0
  145.0509  131.6245  151.4672 C   0  0  0  0  0  0  0  0  0  0  0  0
  146.7841  133.0979  152.5660 C   0  0  0  0  0  0  0  0  0  0  0  0
  146.0918  133.7465  153.3515 O   0  0  0  0  0  0  0  0  0  0  0  0
  148.1756  132.7753  152.8300 N   0  0  0  0  0  0  0  0  0  0  0  0
  148.9092  133.1161  153.9153 C   0  0  0  0  0  0  0  0  0  0  0  0
  149.1533  134.3721  154.2628 N   0  0  0  0  0  0  0  0  0  0  0  0
  149.9173  134.5125  155.3876 C   0  0  0  0  0  0  0  0  0  0  0  0
  150.4334  133.4973  156.1646 C   0  0  0  0  0  0  0  0  0  0  0  0
  151.1611  134.0285  157.2236 N   0  0  0  0  0  0  0  0  0  0  0  0
  151.0678  135.3189  157.0570 C   0  0  0  0  0  0  0  0  0  0  0  0
  150.3332  135.6966  155.9564 N   0  0  0  0  0  0  0  0  0  0  0  0
  150.0035  137.0685  155.4478 C   0  0  1  0  0  0  0  0  0  0  0  0
  150.0125  137.9548  156.5261 O   0  0  0  0  0  0  0  0  0  0  0  0
  151.2317  138.6884  156.5331 C   0  0  2  0  0  0  0  0  0  0  0  0
  151.1115  139.9657  157.3816 C   0  0  0  0  0  0  0  0  0  0  0  0
  152.3763  140.5781  157.5138 O   0  0  0  0  0  0  0  0  0  0  0  0
  151.4864  138.9088  155.0371 C   0  0  2  0  0  0  0  0  0  0  0  0
  150.7050  139.9818  154.5434 O   0  0  0  0  0  0  0  0  0  0  0  0
  151.0380  137.5897  154.4184 C   0  0  1  0  0  0  0  0  0  0  0  0
  152.1592  136.7408  154.2410 O   0  0  0  0  0  0  0  0  0  0  0  0
  150.1724  132.1330  155.8065 C   0  0  0  0  0  0  0  0  0  0  0  0
  150.5448  131.1106  156.3778 O   0  0  0  0  0  0  0  0  0  0  0  0
  149.3900  132.0309  154.6485 N   0  0  0  0  0  0  0  0  0  0  0  0
  148.9934  136.9759  155.0464 H   0  0  0  0  0  0  0  0  0  0  0  0
  152.0304  138.0546  156.9231 H   0  0  0  0  0  0  0  0  0  0  0  0
  152.5343  139.1350  154.8338 H   0  0  0  0  0  0  0  0  0  0  0  0
  150.5547  137.7290  153.4503 H   0  0  0  0  0  0  0  0  0  0  0  0
  146.6609  134.4394  150.1673 H   0  0  0  0  0  0  0  0  0  0  0  0
  145.0010  134.3247  150.7489 H   0  0  0  0  0  0  0  0  0  0  0  0
  145.5111  133.3954  149.3438 H   0  0  0  0  0  0  0  0  0  0  0  0
  147.0226  132.0235  150.7293 H   0  0  0  0  0  0  0  0  0  0  0  0
  145.3370  130.7909  152.1096 H   0  0  0  0  0  0  0  0  0  0  0  0
  144.6974  131.2040  150.5253 H   0  0  0  0  0  0  0  0  0  0  0  0
  144.2082  132.1338  151.9368 H   0  0  0  0  0  0  0  0  0  0  0  0
  148.6491  132.2464  152.1124 H   0  0  0  0  0  0  0  0  0  0  0  0
  151.5314  136.0212  157.7343 H   0  0  0  0  0  0  0  0  0  0  0  0
  150.4509  140.6813  156.8912 H   0  0  0  0  0  0  0  0  0  0  0  0
  150.6906  139.7535  158.3649 H   0  0  0  0  0  0  0  0  0  0  0  0
  152.9770  140.1582  156.9172 H   0  0  0  0  0  0  0  0  0  0  0  0
  149.9271  140.0556  155.0749 H   0  0  0  0  0  0  0  0  0  0  0  0
  152.2144  136.5092  153.3263 H   0  0  0  0  0  0  0  0  0  0  0  0
  149.1706  131.0968  154.3348 H   0  0  0  0  0  0  0  0  0  0  0  0
  1  2  1  0  0  0  0
  1 30  1  0  0  0  0
  1 31  1  0  0  0  0
  1 32  1  0  0  0  0
  2  3  1  0  0  0  0
  2  4  1  0  0  0  0
  2 33  1  0  0  0  0
  3 34  1  0  0  0  0
  3 35  1  0  0  0  0
  3 36  1  0  0  0  0
  4  5  2  0  0  0  0
  4  6  1  0  0  0  0
  6 37  1  0  0  0  0
  6  7  1  0  0  0  0
  7 25  1  0  0  0  0
  7  8  2  0  0  0  0
  8  9  1  0  0  0  0
  9 13  1  0  0  0  0
  9 10  2  0  0  0  0
 10 11  1  0  0  0  0
 10 23  1  0  0  0  0
 11 12  2  0  0  0  0
 12 13  1  0  0  0  0
 12 38  1  0  0  0  0
 13 14  1  0  0  0  0
 14 26  1  0  0  0  0
 14 21  1  0  0  0  0
 14 15  1  0  0  0  0
 15 16  1  0  0  0  0
 16 27  1  0  0  0  0
 16 17  1  0  0  0  0
 16 19  1  0  0  0  0
 17 18  1  0  0  0  0
 17 39  1  0  0  0  0
 17 40  1  0  0  0  0
 18 41  1  0  0  0  0
 19 28  1  0  0  0  0
 19 20  1  0  0  0  0
 19 21  1  0  0  0  0
 20 42  1  0  0  0  0
 21 29  1  0  0  0  0
 21 22  1  0  0  0  0
 22 43  1  0  0  0  0
 23 24  2  0  0  0  0
 23 25  1  0  0  0  0
 25 44  1  0  0  0  0
M  END
> <s_m_source_file>
AV-unprocessed.smi

> <i_m_source_file_index>
54

> <i_lp_mmshare_version>
43012

> <i_f3d_flags>
0

> <s_epik_input>
W0NIM11bQ0hdKFtDSDNdKUMoPU8pW05IXWMobjEpW25IXWMoPU8pYyhjMTIpbltjSF1uMltDQEBIXTNPW0NASF0oW0NIMl1bT0hdKVtDQEBIXShbT0hdKVtDQEhdM1tPSF0=

> <s_epik_cmdline>
J2VwaWtfcHl0aG9uJywgJy1waCcsICc3LjAnLCAnLXRuJywgJzgnLCAnLW1hJywgJzIwMCcsICctbWV0YWxfYmluZGluZycsICctaW1hZScsICc8aW5maWxlLm1hZT4nLCAnLW9tYWUnLCAnPG91dGZpbGUubWFlPic=

> <r_lp_tautomer_probability>
0.85571

> <r_epik_Ionization_Penalty>
0.0316551

> <r_epik_Ionization_Penalty_Charging>
0.0316043

> <r_epik_Ionization_Penalty_Neutral>
5.07097e-05

> <r_epik_State_Penalty>
3.15494e-07

> <r_epik_Charging_Adjusted_Penalty>
0.0316047

> <i_epik_Tot_Q>
0

> <i_epik_Tot_abs_Q>
0

> <r_epik_Metal_State_Penalty>
0.421206

> <b_epik_Metal_Only>
0

> <s_epik_Chemistry_Notes>
This compound contains an acetal/aminal-like group ( X-CH(R)-Y where X, Y are N, S, or O) that may be acid/base labile, releasing an aldehyde.

> <s_lp_Force_Field>
OPLS_2005

> <r_lp_Energy>
41.1485

> <b_lp_Chiralities_Consistent>
1

> <s_lp_Variant>
AV-unprocessed.smi:54-6

> <Gold.Version>
5.8.1

> <Gold.Id.Protein>
6NUR|6NUR_protein|mol2

> <Gold.PLP.Fitness>
43.7791

> <Gold.PLP.PLP>
-36.0851

> <Gold.PLP.part.hbond>
-5.2066

> <Gold.PLP.part.metal>
0.0000

> <Gold.PLP.part.buried>
-5.6640

> <Gold.PLP.part.nonpolar>
-26.5352

> <Gold.PLP.part.repulsive>
1.1937

> <Gold.PLP.ligand.clash>
0.0000

> <Gold.PLP.ligand.torsion>
1.3764

> <Gold.PLP.Chemscore.Hbond>
3.4684

> <Gold.PLP.Chemscore.CHOScore>
0.0000

> <Gold.PLP.Chemscore.Metal>
0.0000

> <Gold.Chemscore.Hbonds>
donor molecule, donor type, donor heavy atom, donor atom, acceptor molecule, acceptor atom, score
      L1  H     6    37       P1 10747  0.31
      L1  H    22    43       P1  7949  0.65
      P1  H  6896  6907       L1    11  0.40
      P1  H  7989  7998       L1    20  1.00
      P1  H 10752 10765       L1    22  0.16

> <Gold.PLP.Chemscore.Internal.Correction>
0.0417

> <Gold.Rescore>
     Score         DG    S(hbond)    S(metal)    S(lipo)     H(rot)  DE(clash)    DE(int)     intcor
      8.65     -10.36       2.66        0.00      54.52       4.05       0.40       1.31       ----

> <Gold.Chemscore.Fitness>
8.6505

> <Gold.Chemscore.DG>
-10.3611

> <Gold.Chemscore.ZeroCoef>
-5.4800

> <Gold.Chemscore.Hbond>
2.6554

> <Gold.Chemscore.Metal>
0.0000

> <Gold.Chemscore.Lipo>
54.5158

> <Gold.Chemscore.Internal_Hbond>
0.0000

> <Gold.Chemscore.DEClash>
0.3993

> <Gold.Chemscore.DEInternal>
1.3113

> <Gold.Chemscore.Rot>
4.0493

> <Gold.Chemscore.Internal.Correction>
   9.000000E+99

> <Gold.Chemscore.Hbonds>
donor molecule, donor type, donor heavy atom, donor atom, acceptor molecule, acceptor atom, score
      L1  H     6    37       P1 10747  0.31
      L1  H    22    43       P1  7949  0.62
      P1  H  6896  6907       L1    11  0.33
      P1  H  7989  7998       L1    20  0.70

> <Gold.Chemscore.Hbond.Weighted>
-8.8690

> <Gold.Chemscore.Metal.Weighted>
-0.0000

> <Gold.Chemscore.Lipo.Weighted>
-6.3783

> <Gold.Chemscore.Internal_Hbond.Weighted>
0.0000

> <Gold.Chemscore.DEClash.Weighted>
0.3993

> <Gold.Chemscore.DEInternal.Weighted>
1.3113

> <Gold.Chemscore.Rot.Weighted>
10.3662

> <Gold.Chemscore.Internal.Correction.Weighted>
   9.000000E+99

> <Gold.Protein.RotatedTorsions>
[ 6907 6896 6895 6894 ] final -150.66 input  -60.11 | X-H torsion
[ 7974 7965 7964 7962 ] final  -66.80 input  175.53 | X-H torsion
[ 8008 7997 7996 7995 ] final -120.11 input   59.86 | X-H torsion
[ 10167 10162 10161 10158 ] final  -67.20 input  -65.29 | X-H torsion
[ 10718 10713 10712 10709 ] final   60.71 input   66.30 | X-H torsion
[ 10763 10752 10751 10750 ] final  174.28 input  -60.55 | X-H torsion
[ 11005 11000 10999 10996 ] final  -86.75 input  -57.11 | X-H torsion

> <Gold.Protein.ActiveResidues>
 VAL166  LYS551  ARG553  GLY616  TRP617  ASP618  TYR619  PRO620  LYS621  CYS622 
 ASP623  PHE694  ASN695  SER759  ASP760  ASP761  ALA762  ILE779  LEU786  VAL792 
 PHE793  MET794  SER795  GLU796  ALA797  LYS798  CYS799  TRP800  GLU811  SER814 

> <Gold.Protein.RotatedAtoms>
  151.2018  133.4606  159.2596 H   0  0  0  0  0  0  0  0  0  0  0  0  # atno 6907 bound_to 6896
  151.1062  135.0001  159.8482 H   0  0  0  0  0  0  0  0  0  0  0  0  # atno 6908 bound_to 6896
  152.5447  134.1941  159.8738 H   0  0  0  0  0  0  0  0  0  0  0  0  # atno 6909 bound_to 6896
  145.7372  140.8970  143.0549 H   0  0  0  0  0  0  0  0  0  0  0  0  # atno 7974 bound_to 7965
  155.1266  140.0399  157.2764 H   0  0  0  0  0  0  0  0  0  0  0  0  # atno 8008 bound_to 7997
  154.6574  140.2583  155.7120 H   0  0  0  0  0  0  0  0  0  0  0  0  # atno 8009 bound_to 7997
  156.2604  140.2824  156.1032 H   0  0  0  0  0  0  0  0  0  0  0  0  # atno 8010 bound_to 7997
  140.5600  143.2312  151.6745 H   0  0  0  0  0  0  0  0  0  0  0  0  # atno 10167 bound_to 10162
  157.5773  130.8954  149.9370 H   0  0  0  0  0  0  0  0  0  0  0  0  # atno 10718 bound_to 10713
  154.4518  135.2765  155.1776 H   0  0  0  0  0  0  0  0  0  0  0  0  # atno 10763 bound_to 10752
  154.3599  135.6131  153.5689 H   0  0  0  0  0  0  0  0  0  0  0  0  # atno 10764 bound_to 10752
  152.9847  135.5832  154.4864 H   0  0  0  0  0  0  0  0  0  0  0  0  # atno 10765 bound_to 10752
  141.1626  133.7472  156.9207 H   0  0  0  0  0  0  0  0  0  0  0  0  # atno 11005 bound_to 11000
  144.6879  139.9412  143.7475 LP  0  0  0  0  0  0  0  0  0  0  0  0  # atno 17320 bound_to 7965
  146.0482  139.3485  143.0656 LP  0  0  0  0  0  0  0  0  0  0  0  0  # atno 17321 bound_to 7965
  139.5066  144.3677  152.0501 LP  0  0  0  0  0  0  0  0  0  0  0  0  # atno 17342 bound_to 10162
  140.2802  144.3868  150.6121 LP  0  0  0  0  0  0  0  0  0  0  0  0  # atno 17343 bound_to 10162
  156.0818  130.3672  150.0565 LP  0  0  0  0  0  0  0  0  0  0  0  0  # atno 17370 bound_to 10713
  156.8709  130.9524  151.3609 LP  0  0  0  0  0  0  0  0  0  0  0  0  # atno 17371 bound_to 10713
  140.1453  134.9266  157.2522 LP  0  0  0  0  0  0  0  0  0  0  0  0  # atno 17394 bound_to 11000
  140.2787  134.3375  155.7350 LP  0  0  0  0  0  0  0  0  0  0  0  0  # atno 17395 bound_to 11000

$$$$
