AV-unprocessed.smi:2300|AV-procd|sdf|9232|dock8
  -GOLD-   2272012453D 1   1.00000     0.00000
 Structure written by MMmdl.
 51 52  0  0  0  0  0  0  0  0  1 V2000
  145.9679  138.3044  152.5297 C   0  0  0  0  0  0  0  0  0  0  0  0
  146.4535  139.0464  153.7703 C   0  0  0  0  0  0  0  0  0  0  0  0
  145.9665  138.7927  154.8717 O   0  0  0  0  0  0  0  0  0  0  0  0
  147.4139  139.9625  153.5775 N   0  0  0  0  0  0  0  0  0  0  0  0
  148.0216  140.7731  154.6274 C   0  0  0  0  0  0  0  0  0  0  0  0
  149.1389  140.0120  155.3607 C   0  0  2  0  0  0  0  0  0  0  0  0
  149.9468  140.9397  156.2877 C   0  0  0  0  0  0  0  0  0  0  0  0
  151.0632  140.2159  156.8929 N   0  0  0  0  0  0  0  0  0  0  0  0
  151.7465  140.8347  157.9619 C   0  0  0  0  0  0  0  0  0  0  0  0
  152.7204  140.1300  158.7086 C   0  0  0  0  0  0  0  0  0  0  0  0
  153.3519  140.8285  159.7595 C   0  0  0  0  0  0  0  0  0  0  0  0
  154.4101  140.1625  160.6276 C   0  0  0  0  0  0  0  0  0  0  0  0
  154.0820  138.6851  160.8940 C   0  0  0  0  0  0  0  0  0  0  0  0
  154.6611  140.9484  161.9241 C   0  0  0  0  0  0  0  0  0  0  0  0
  153.0419  142.1130  160.0418 N   0  0  0  0  0  0  0  0  0  0  0  0
  152.1059  142.6914  159.2843 C   0  0  0  0  0  0  0  0  0  0  0  0
  151.7531  144.1380  159.6042 C   0  0  0  0  0  0  0  0  0  0  0  0
  152.3990  145.1199  158.6146 C   0  0  0  0  0  0  0  0  0  0  0  0
  152.0385  144.4881  161.0728 C   0  0  0  0  0  0  0  0  0  0  0  0
  151.4488  142.1212  158.2701 N   0  0  0  0  0  0  0  0  0  0  0  0
  151.9012  139.5212  155.9191 C   0  0  0  0  0  0  0  0  0  0  0  0
  151.0365  138.6544  154.9884 C   0  0  0  0  0  0  0  0  0  0  0  0
  150.0220  139.4539  154.3904 O   0  0  0  0  0  0  0  0  0  0  0  0
  146.8106  137.9870  151.9145 H   0  0  0  0  0  0  0  0  0  0  0  0
  145.3258  138.9503  151.9303 H   0  0  0  0  0  0  0  0  0  0  0  0
  145.3976  137.4175  152.8079 H   0  0  0  0  0  0  0  0  0  0  0  0
  147.7582  140.1004  152.6386 H   0  0  0  0  0  0  0  0  0  0  0  0
  148.4218  141.6807  154.1748 H   0  0  0  0  0  0  0  0  0  0  0  0
  147.2543  141.0933  155.3343 H   0  0  0  0  0  0  0  0  0  0  0  0
  148.6973  139.2088  155.9541 H   0  0  0  0  0  0  0  0  0  0  0  0
  150.3326  141.7920  155.7266 H   0  0  0  0  0  0  0  0  0  0  0  0
  149.2889  141.3310  157.0648 H   0  0  0  0  0  0  0  0  0  0  0  0
  152.9657  139.0989  158.5043 H   0  0  0  0  0  0  0  0  0  0  0  0
  155.3443  140.1797  160.0647 H   0  0  0  0  0  0  0  0  0  0  0  0
  153.9716  138.1342  159.9593 H   0  0  0  0  0  0  0  0  0  0  0  0
  153.1538  138.5769  161.4562 H   0  0  0  0  0  0  0  0  0  0  0  0
  154.8744  138.2047  161.4683 H   0  0  0  0  0  0  0  0  0  0  0  0
  154.9533  141.9763  161.7077 H   0  0  0  0  0  0  0  0  0  0  0  0
  155.4613  140.4942  162.5090 H   0  0  0  0  0  0  0  0  0  0  0  0
  153.7697  140.9802  162.5515 H   0  0  0  0  0  0  0  0  0  0  0  0
  150.6743  144.2418  159.4727 H   0  0  0  0  0  0  0  0  0  0  0  0
  152.1085  144.8889  157.5893 H   0  0  0  0  0  0  0  0  0  0  0  0
  153.4874  145.0835  158.6696 H   0  0  0  0  0  0  0  0  0  0  0  0
  152.0914  146.1450  158.8224 H   0  0  0  0  0  0  0  0  0  0  0  0
  151.5030  143.8178  161.7456 H   0  0  0  0  0  0  0  0  0  0  0  0
  151.7234  145.5064  161.3016 H   0  0  0  0  0  0  0  0  0  0  0  0
  153.1020  144.4111  161.3019 H   0  0  0  0  0  0  0  0  0  0  0  0
  152.4490  140.2621  155.3355 H   0  0  0  0  0  0  0  0  0  0  0  0
  152.6428  138.8868  156.4022 H   0  0  0  0  0  0  0  0  0  0  0  0
  151.6533  138.2185  154.2027 H   0  0  0  0  0  0  0  0  0  0  0  0
  150.5860  137.8250  155.5357 H   0  0  0  0  0  0  0  0  0  0  0  0
  1  2  1  0  0  0  0
  1 24  1  0  0  0  0
  1 25  1  0  0  0  0
  1 26  1  0  0  0  0
  2  3  2  0  0  0  0
  2  4  1  0  0  0  0
  4  5  1  0  0  0  0
  4 27  1  0  0  0  0
  5  6  1  0  0  0  0
  5 28  1  0  0  0  0
  5 29  1  0  0  0  0
  6 23  1  0  0  0  0
  6  7  1  0  0  0  0
  6 30  1  0  0  0  0
  7  8  1  0  0  0  0
  7 31  1  0  0  0  0
  7 32  1  0  0  0  0
  8  9  1  0  0  0  0
  8 21  1  0  0  0  0
  9 20  1  0  0  0  0
  9 10  2  0  0  0  0
 10 11  1  0  0  0  0
 10 33  1  0  0  0  0
 11 12  1  0  0  0  0
 11 15  2  0  0  0  0
 12 13  1  0  0  0  0
 12 14  1  0  0  0  0
 12 34  1  0  0  0  0
 13 35  1  0  0  0  0
 13 36  1  0  0  0  0
 13 37  1  0  0  0  0
 14 38  1  0  0  0  0
 14 39  1  0  0  0  0
 14 40  1  0  0  0  0
 15 16  1  0  0  0  0
 16 17  1  0  0  0  0
 16 20  2  0  0  0  0
 17 18  1  0  0  0  0
 17 19  1  0  0  0  0
 17 41  1  0  0  0  0
 18 42  1  0  0  0  0
 18 43  1  0  0  0  0
 18 44  1  0  0  0  0
 19 45  1  0  0  0  0
 19 46  1  0  0  0  0
 19 47  1  0  0  0  0
 21 22  1  0  0  0  0
 21 48  1  0  0  0  0
 21 49  1  0  0  0  0
 22 23  1  0  0  0  0
 22 50  1  0  0  0  0
 22 51  1  0  0  0  0
M  END
> <s_m_source_file>
AV-unprocessed.smi

> <i_m_source_file_index>
2300

> <i_lp_mmshare_version>
43012

> <i_f3d_flags>
0

> <s_epik_input>
W0NIM11DKD1PKVtOSF1bQ0gyXVtDQEBIXTFbQ0gyXU4oW0NIMl1bQ0gyXU8xKWMyW2NIXWMoW0NIXShbQ0gzXSlbQ0gzXSluYyhuMilbQ0hdKFtDSDNdKVtDSDNd

> <s_epik_cmdline>
J2VwaWtfcHl0aG9uJywgJy1waCcsICc3LjAnLCAnLXRuJywgJzgnLCAnLW1hJywgJzIwMCcsICctbWV0YWxfYmluZGluZycsICctaW1hZScsICc8aW5maWxlLm1hZT4nLCAnLW9tYWUnLCAnPG91dGZpbGUubWFlPic=

> <r_lp_tautomer_probability>
1

> <r_epik_Ionization_Penalty>
0.0035465

> <r_epik_Ionization_Penalty_Charging>
0

> <r_epik_Ionization_Penalty_Neutral>
0.0035465

> <r_epik_State_Penalty>
0.00247846

> <r_epik_Charging_Adjusted_Penalty>
0.00247846

> <i_epik_Tot_Q>
0

> <i_epik_Tot_abs_Q>
0

> <r_epik_Metal_State_Penalty>
-0

> <b_epik_Metal_Only>
0

> <s_lp_Force_Field>
OPLS_2005

> <r_lp_Energy>
0.953056

> <b_lp_Chiralities_Consistent>
1

> <s_lp_Variant>
AV-unprocessed.smi:2300-1

> <Gold.Version>
5.8.1

> <Gold.Id.Protein>
6NUR|6NUR_protein|mol2

> <Gold.PLP.Fitness>
53.0804

> <Gold.PLP.PLP>
-49.6518

> <Gold.PLP.part.hbond>
-1.8146

> <Gold.PLP.part.metal>
0.0000

> <Gold.PLP.part.buried>
-5.4842

> <Gold.PLP.part.nonpolar>
-43.8819

> <Gold.PLP.part.repulsive>
0.6803

> <Gold.PLP.ligand.clash>
0.0000

> <Gold.PLP.ligand.torsion>
1.5173

> <Gold.PLP.Chemscore.Hbond>
2.0000

> <Gold.PLP.Chemscore.CHOScore>
0.0000

> <Gold.PLP.Chemscore.Metal>
0.0000

> <Gold.Chemscore.Hbonds>
donor molecule, donor type, donor heavy atom, donor atom, acceptor molecule, acceptor atom, score
      L1  H     4    27       P1  7957  0.19
      P1  H  7989  7998       L1    23  0.16

> <Gold.PLP.Chemscore.Internal.Correction>
0.4633

> <Gold.Rescore>
     Score         DG    S(hbond)    S(metal)    S(lipo)     H(rot)  DE(clash)    DE(int)     intcor
     17.51     -19.50       1.37        0.00     120.45       1.82       0.51       1.48       ----

> <Gold.Chemscore.Fitness>
17.5081

> <Gold.Chemscore.DG>
-19.5011

> <Gold.Chemscore.ZeroCoef>
-5.4800

> <Gold.Chemscore.Hbond>
1.3701

> <Gold.Chemscore.Metal>
0.0000

> <Gold.Chemscore.Lipo>
120.4534

> <Gold.Chemscore.Internal_Hbond>
0.0000

> <Gold.Chemscore.DEClash>
0.5098

> <Gold.Chemscore.DEInternal>
1.4832

> <Gold.Chemscore.Rot>
1.8156

> <Gold.Chemscore.Internal.Correction>
   9.000000E+99

> <Gold.Chemscore.Hbonds>
donor molecule, donor type, donor heavy atom, donor atom, acceptor molecule, acceptor atom, score
      L1  H     4    27       P1  7957  0.20
      P1  H  7989  7998       L1    23  0.01

> <Gold.Chemscore.Hbond.Weighted>
-4.5761

> <Gold.Chemscore.Metal.Weighted>
-0.0000

> <Gold.Chemscore.Lipo.Weighted>
-14.0930

> <Gold.Chemscore.Internal_Hbond.Weighted>
0.0000

> <Gold.Chemscore.DEClash.Weighted>
0.5098

> <Gold.Chemscore.DEInternal.Weighted>
1.4832

> <Gold.Chemscore.Rot.Weighted>
4.6481

> <Gold.Chemscore.Internal.Correction.Weighted>
   9.000000E+99

> <Gold.Protein.RotatedTorsions>
[ 6907 6896 6895 6894 ] final -137.08 input  -60.11 | X-H torsion
[ 7974 7965 7964 7962 ] final   -6.17 input  175.53 | X-H torsion
[ 8008 7997 7996 7995 ] final  107.83 input   59.86 | X-H torsion
[ 10167 10162 10161 10158 ] final  130.58 input  -65.29 | X-H torsion
[ 10718 10713 10712 10709 ] final  -63.26 input   66.30 | X-H torsion
[ 10763 10752 10751 10750 ] final  120.42 input  -60.55 | X-H torsion
[ 11005 11000 10999 10996 ] final -179.25 input  -57.11 | X-H torsion

> <Gold.Protein.ActiveResidues>
 VAL166  LYS551  ARG553  GLY616  TRP617  ASP618  TYR619  PRO620  LYS621  CYS622 
 ASP623  PHE694  ASN695  SER759  ASP760  ASP761  ALA762  ILE779  LEU786  VAL792 
 PHE793  MET794  SER795  GLU796  ALA797  LYS798  CYS799  TRP800  GLU811  SER814 

> <Gold.Protein.RotatedAtoms>
  151.0181  133.5902  159.2674 H   0  0  0  0  0  0  0  0  0  0  0  0  # atno 6907 bound_to 6896
  151.3029  135.0773  159.9255 H   0  0  0  0  0  0  0  0  0  0  0  0  # atno 6908 bound_to 6896
  152.5316  133.9859  159.7882 H   0  0  0  0  0  0  0  0  0  0  0  0  # atno 6909 bound_to 6896
  146.2337  140.2131  142.8335 H   0  0  0  0  0  0  0  0  0  0  0  0  # atno 7974 bound_to 7965
  156.1855  140.3087  155.9230 H   0  0  0  0  0  0  0  0  0  0  0  0  # atno 8008 bound_to 7997
  155.3290  140.0459  157.3059 H   0  0  0  0  0  0  0  0  0  0  0  0  # atno 8009 bound_to 7997
  154.5391  140.2255  155.8681 H   0  0  0  0  0  0  0  0  0  0  0  0  # atno 8010 bound_to 7997
  139.5423  144.6742  151.4584 H   0  0  0  0  0  0  0  0  0  0  0  0  # atno 10167 bound_to 10162
  156.0802  130.4218  150.1251 H   0  0  0  0  0  0  0  0  0  0  0  0  # atno 10718 bound_to 10713
  153.5982  135.3453  155.2936 H   0  0  0  0  0  0  0  0  0  0  0  0  # atno 10763 bound_to 10752
  154.8641  135.4221  154.2441 H   0  0  0  0  0  0  0  0  0  0  0  0  # atno 10764 bound_to 10752
  153.3264  135.7041  153.7057 H   0  0  0  0  0  0  0  0  0  0  0  0  # atno 10765 bound_to 10752
  140.4207  134.6608  157.4662 H   0  0  0  0  0  0  0  0  0  0  0  0  # atno 11005 bound_to 11000
  144.9691  140.8351  143.5466 LP  0  0  0  0  0  0  0  0  0  0  0  0  # atno 17320 bound_to 7965
  145.2110  139.2205  143.5143 LP  0  0  0  0  0  0  0  0  0  0  0  0  # atno 17321 bound_to 7965
  140.6658  143.8400  150.6940 LP  0  0  0  0  0  0  0  0  0  0  0  0  # atno 17342 bound_to 10162
  140.1809  143.4115  152.1933 LP  0  0  0  0  0  0  0  0  0  0  0  0  # atno 17343 bound_to 10162
  156.9284  130.9706  151.3537 LP  0  0  0  0  0  0  0  0  0  0  0  0  # atno 17370 bound_to 10713
  157.5916  130.8448  149.8668 LP  0  0  0  0  0  0  0  0  0  0  0  0  # atno 17371 bound_to 10713
  140.0202  134.6558  155.9250 LP  0  0  0  0  0  0  0  0  0  0  0  0  # atno 17394 bound_to 11000
  141.1785  133.6543  156.4924 LP  0  0  0  0  0  0  0  0  0  0  0  0  # atno 17395 bound_to 11000

$$$$
