AV-unprocessed.smi:104|AV-procd|sdf|997|dock10
  -GOLD-   2262017583D 1   1.00000     0.00000
 Structure written by MMmdl.
 47 49  0  0  0  0  0  0  0  0  1 V2000
  148.8087  140.1540  154.2057 C   0  0  0  0  0  0  0  0  0  0  0  0
  149.8399  139.3973  155.0332 C   0  0  0  0  0  0  0  0  0  0  0  0
  151.0401  139.4478  154.7639 O   0  0  0  0  0  0  0  0  0  0  0  0
  149.2864  138.7067  156.0415 O   0  0  0  0  0  0  0  0  0  0  0  0
  150.0479  137.7163  156.7115 C   0  0  0  0  0  0  0  0  0  0  0  0
  149.1078  136.6452  157.2801 C   0  0  2  0  0  0  0  0  0  0  0  0
  148.2542  136.1658  156.2447 O   0  0  0  0  0  0  0  0  0  0  0  0
  147.0098  136.7606  156.3856 C   0  0  1  0  0  0  0  0  0  0  0  0
  145.9730  135.8850  155.7663 N   0  0  0  0  0  0  0  0  0  0  0  0
  145.5344  134.6435  156.1650 C   0  0  0  0  0  0  0  0  0  0  0  0
  146.2429  133.7563  157.6942 Br  0  0  0  0  0  0  0  0  0  0  0  0
  144.6146  134.0755  155.4362 N   0  0  0  0  0  0  0  0  0  0  0  0
  144.4012  135.0101  154.4301 C   0  0  0  0  0  0  0  0  0  0  0  0
  143.5536  135.0599  153.2950 C   0  0  0  0  0  0  0  0  0  0  0  0
  142.7038  134.0747  152.9733 N   0  0  0  0  0  0  0  0  0  0  0  0
  143.6058  136.1511  152.4958 N   0  0  0  0  0  0  0  0  0  0  0  0
  144.4480  137.1465  152.7924 C   0  0  0  0  0  0  0  0  0  0  0  0
  145.3004  137.2437  153.8163 N   0  0  0  0  0  0  0  0  0  0  0  0
  145.2445  136.1434  154.6234 C   0  0  0  0  0  0  0  0  0  0  0  0
  146.7733  136.8967  157.8803 C   0  0  2  0  0  0  0  0  0  0  0  0
  145.8660  137.9605  158.1300 O   0  0  0  0  0  0  0  0  0  0  0  0
  146.1554  139.2033  157.7132 C   0  0  0  0  0  0  0  0  0  0  0  0
  145.1009  140.2171  158.1364 C   0  0  0  0  0  0  0  0  0  0  0  0
  147.1449  139.5380  157.0617 O   0  0  0  0  0  0  0  0  0  0  0  0
  148.1781  137.2085  158.3742 C   0  0  1  0  0  0  0  0  0  0  0  0
  148.3875  136.5595  159.6214 O   0  0  0  0  0  0  0  0  0  0  0  0
  147.5310  136.7536  160.6379 C   0  0  0  0  0  0  0  0  0  0  0  0
  147.8681  135.8988  161.8523 C   0  0  0  0  0  0  0  0  0  0  0  0
  146.5706  137.5236  160.6399 O   0  0  0  0  0  0  0  0  0  0  0  0
  147.8012  139.7915  154.4124 H   0  0  0  0  0  0  0  0  0  0  0  0
  149.0096  140.0239  153.1423 H   0  0  0  0  0  0  0  0  0  0  0  0
  148.8477  141.2185  154.4371 H   0  0  0  0  0  0  0  0  0  0  0  0
  150.7350  137.2610  155.9969 H   0  0  0  0  0  0  0  0  0  0  0  0
  150.6488  138.1624  157.5053 H   0  0  0  0  0  0  0  0  0  0  0  0
  149.6905  135.8059  157.6631 H   0  0  0  0  0  0  0  0  0  0  0  0
  146.9850  137.7074  155.8451 H   0  0  0  0  0  0  0  0  0  0  0  0
  142.6483  133.2491  153.5524 H   0  0  0  0  0  0  0  0  0  0  0  0
  142.1226  134.1584  152.1518 H   0  0  0  0  0  0  0  0  0  0  0  0
  144.4387  137.9845  152.1110 H   0  0  0  0  0  0  0  0  0  0  0  0
  146.4224  135.9385  158.2682 H   0  0  0  0  0  0  0  0  0  0  0  0
  145.2154  140.4604  159.1927 H   0  0  0  0  0  0  0  0  0  0  0  0
  144.0995  139.8159  157.9790 H   0  0  0  0  0  0  0  0  0  0  0  0
  145.1993  141.1351  157.5569 H   0  0  0  0  0  0  0  0  0  0  0  0
  148.3002  138.2902  158.4578 H   0  0  0  0  0  0  0  0  0  0  0  0
  147.5106  134.8793  161.7072 H   0  0  0  0  0  0  0  0  0  0  0  0
  147.3995  136.3066  162.7481 H   0  0  0  0  0  0  0  0  0  0  0  0
  148.9463  135.8693  162.0111 H   0  0  0  0  0  0  0  0  0  0  0  0
  1  2  1  0  0  0  0
  1 30  1  0  0  0  0
  1 31  1  0  0  0  0
  1 32  1  0  0  0  0
  2  3  2  0  0  0  0
  2  4  1  0  0  0  0
  4  5  1  0  0  0  0
  5  6  1  0  0  0  0
  5 33  1  0  0  0  0
  5 34  1  0  0  0  0
  6 25  1  0  0  0  0
  6  7  1  0  0  0  0
  6 35  1  0  0  0  0
  7  8  1  0  0  0  0
  8  9  1  0  0  0  0
  8 20  1  0  0  0  0
  8 36  1  0  0  0  0
  9 19  1  0  0  0  0
  9 10  1  0  0  0  0
 10 11  1  0  0  0  0
 10 12  2  0  0  0  0
 12 13  1  0  0  0  0
 13 19  2  0  0  0  0
 13 14  1  0  0  0  0
 14 15  1  0  0  0  0
 14 16  2  0  0  0  0
 15 37  1  0  0  0  0
 15 38  1  0  0  0  0
 16 17  1  0  0  0  0
 17 18  2  0  0  0  0
 17 39  1  0  0  0  0
 18 19  1  0  0  0  0
 20 21  1  0  0  0  0
 20 25  1  0  0  0  0
 20 40  1  0  0  0  0
 21 22  1  0  0  0  0
 22 23  1  0  0  0  0
 22 24  2  0  0  0  0
 23 41  1  0  0  0  0
 23 42  1  0  0  0  0
 23 43  1  0  0  0  0
 25 26  1  0  0  0  0
 25 44  1  0  0  0  0
 26 27  1  0  0  0  0
 27 28  1  0  0  0  0
 27 29  2  0  0  0  0
 28 45  1  0  0  0  0
 28 46  1  0  0  0  0
 28 47  1  0  0  0  0
M  END
> <s_m_source_file>
AV-unprocessed.smi

> <i_m_source_file_index>
104

> <i_lp_mmshare_version>
43012

> <i_f3d_flags>
0

> <s_epik_input>
W0NIM11DKD1PKU9bQ0gyXVtDQEBIXTFPW0NASF0oW0NAQEhdKE9DKD1PKVtDSDNdKVtDQEhdMU9DKD1PKVtDSDNdKW4oYyhCciluMiljKGMyMyluW2NIXW5jM1tOSDJd

> <s_epik_cmdline>
J2VwaWtfcHl0aG9uJywgJy1waCcsICc3LjAnLCAnLXRuJywgJzgnLCAnLW1hJywgJzIwMCcsICctbWV0YWxfYmluZGluZycsICctaW1hZScsICc8aW5maWxlLm1hZT4nLCAnLW9tYWUnLCAnPG91dGZpbGUubWFlPic=

> <r_lp_tautomer_probability>
1

> <r_epik_Ionization_Penalty>
7.36622e-05

> <r_epik_Ionization_Penalty_Charging>
0

> <r_epik_Ionization_Penalty_Neutral>
7.36622e-05

> <r_epik_State_Penalty>
-0

> <r_epik_Charging_Adjusted_Penalty>
0

> <i_epik_Tot_Q>
0

> <i_epik_Tot_abs_Q>
0

> <r_epik_Metal_State_Penalty>
-0

> <b_epik_Metal_Only>
0

> <s_epik_Chemistry_Notes>
This compound has an ester and may undergo hydrolysis at high or low pH. This compound contains an acetal/aminal-like group ( X-CH(R)-Y where X, Y are N, S, or O) that may be acid/base labile, releasing an aldehyde.

> <s_lp_Force_Field>
OPLS_2005

> <r_lp_Energy>
16.3368

> <b_lp_Chiralities_Consistent>
1

> <s_lp_Variant>
AV-unprocessed.smi:104-5

> <Gold.Version>
5.8.1

> <Gold.Id.Protein>
6NUR|6NUR_protein|mol2

> <Gold.PLP.Fitness>
32.2592

> <Gold.PLP.PLP>
-18.3845

> <Gold.PLP.part.hbond>
-2.9944

> <Gold.PLP.part.metal>
0.0000

> <Gold.PLP.part.buried>
-5.1783

> <Gold.PLP.part.nonpolar>
-12.3609

> <Gold.PLP.part.repulsive>
0.4492

> <Gold.PLP.ligand.clash>
0.0000

> <Gold.PLP.ligand.torsion>
0.6278

> <Gold.PLP.Chemscore.Hbond>
3.0000

> <Gold.PLP.Chemscore.CHOScore>
2.0000

> <Gold.PLP.Chemscore.Metal>
0.0000

> <Gold.Chemscore.Hbonds>
donor molecule, donor type, donor heavy atom, donor atom, acceptor molecule, acceptor atom, score
      L1  H    15    37       P1 10957  1.00
      P1  H  6934  6947       L1    29  1.00
      P1  H  7989  7998       L1     3  1.00
      L1  C    17    39       P1 10171  1.00
      L1  C    17    39       P1 10175  0.84

> <Gold.PLP.Chemscore.Internal.Correction>
0.1303

> <Gold.Rescore>
     Score         DG    S(hbond)    S(metal)    S(lipo)     H(rot)  DE(clash)    DE(int)     intcor
     -1.82      -7.04       2.89        0.00      25.10       4.31       0.01       8.85       ----

> <Gold.Chemscore.Fitness>
-1.8190

> <Gold.Chemscore.DG>
-7.0398

> <Gold.Chemscore.ZeroCoef>
-5.4800

> <Gold.Chemscore.Hbond>
2.8888

> <Gold.Chemscore.Metal>
0.0000

> <Gold.Chemscore.Lipo>
25.1041

> <Gold.Chemscore.Internal_Hbond>
0.0000

> <Gold.Chemscore.DEClash>
0.0095

> <Gold.Chemscore.DEInternal>
8.8493

> <Gold.Chemscore.Rot>
4.3070

> <Gold.Chemscore.Internal.Correction>
   9.000000E+99

> <Gold.Chemscore.Hbonds>
donor molecule, donor type, donor heavy atom, donor atom, acceptor molecule, acceptor atom, score
      L1  H    15    37       P1 10957  0.97
      P1  H  6934  6947       L1    29  0.60
      P1  H  7989  7998       L1     3  0.93

> <Gold.Chemscore.Hbond.Weighted>
-9.6484

> <Gold.Chemscore.Metal.Weighted>
-0.0000

> <Gold.Chemscore.Lipo.Weighted>
-2.9372

> <Gold.Chemscore.Internal_Hbond.Weighted>
0.0000

> <Gold.Chemscore.DEClash.Weighted>
0.0095

> <Gold.Chemscore.DEInternal.Weighted>
8.8493

> <Gold.Chemscore.Rot.Weighted>
11.0259

> <Gold.Chemscore.Internal.Correction.Weighted>
   9.000000E+99

> <Gold.Protein.RotatedTorsions>
[ 6907 6896 6895 6894 ] final  -18.57 input  -60.11 | X-H torsion
[ 7974 7965 7964 7962 ] final  -35.66 input  175.53 | X-H torsion
[ 8008 7997 7996 7995 ] final -153.18 input   59.86 | X-H torsion
[ 10167 10162 10161 10158 ] final -176.73 input  -65.29 | X-H torsion
[ 10718 10713 10712 10709 ] final  -46.08 input   66.30 | X-H torsion
[ 10763 10752 10751 10750 ] final   16.80 input  -60.55 | X-H torsion
[ 11005 11000 10999 10996 ] final -119.44 input  -57.11 | X-H torsion

> <Gold.Protein.ActiveResidues>
 VAL166  LYS551  ARG553  GLY616  TRP617  ASP618  TYR619  PRO620  LYS621  CYS622 
 ASP623  PHE694  ASN695  SER759  ASP760  ASP761  ALA762  ILE779  LEU786  VAL792 
 PHE793  MET794  SER795  GLU796  ALA797  LYS798  CYS799  TRP800  GLU811  SER814 

> <Gold.Protein.RotatedAtoms>
  151.2762  135.0700  159.9152 H   0  0  0  0  0  0  0  0  0  0  0  0  # atno 6907 bound_to 6896
  152.5342  134.0079  159.7935 H   0  0  0  0  0  0  0  0  0  0  0  0  # atno 6908 bound_to 6896
  151.0325  133.5727  159.2690 H   0  0  0  0  0  0  0  0  0  0  0  0  # atno 6909 bound_to 6896
  146.0728  140.6186  142.8945 H   0  0  0  0  0  0  0  0  0  0  0  0  # atno 7974 bound_to 7965
  155.6668  140.0729  157.2534 H   0  0  0  0  0  0  0  0  0  0  0  0  # atno 8008 bound_to 7997
  154.4131  140.1706  156.1887 H   0  0  0  0  0  0  0  0  0  0  0  0  # atno 8009 bound_to 7997
  155.9650  140.3366  155.6528 H   0  0  0  0  0  0  0  0  0  0  0  0  # atno 8010 bound_to 7997
  139.5515  144.2097  152.1085 H   0  0  0  0  0  0  0  0  0  0  0  0  # atno 10167 bound_to 10162
  156.2218  130.4166  149.8983 H   0  0  0  0  0  0  0  0  0  0  0  0  # atno 10718 bound_to 10713
  153.1397  135.6757  153.9047 H   0  0  0  0  0  0  0  0  0  0  0  0  # atno 10763 bound_to 10752
  153.8507  135.3093  155.3433 H   0  0  0  0  0  0  0  0  0  0  0  0  # atno 10764 bound_to 10752
  154.7777  135.4905  153.9862 H   0  0  0  0  0  0  0  0  0  0  0  0  # atno 10765 bound_to 10752
  141.0215  134.0117  157.3275 H   0  0  0  0  0  0  0  0  0  0  0  0  # atno 11005 bound_to 11000
  144.7242  140.4472  143.6985 LP  0  0  0  0  0  0  0  0  0  0  0  0  # atno 17320 bound_to 7965
  145.6361  139.1543  143.2942 LP  0  0  0  0  0  0  0  0  0  0  0  0  # atno 17321 bound_to 7965
  140.1593  144.5041  150.6642 LP  0  0  0  0  0  0  0  0  0  0  0  0  # atno 17342 bound_to 10162
  140.6779  143.2313  151.5461 LP  0  0  0  0  0  0  0  0  0  0  0  0  # atno 17343 bound_to 10162
  156.6627  130.8788  151.3550 LP  0  0  0  0  0  0  0  0  0  0  0  0  # atno 17370 bound_to 10713
  157.7091  130.9419  150.1029 LP  0  0  0  0  0  0  0  0  0  0  0  0  # atno 17371 bound_to 10713
  139.9149  135.0195  156.7841 LP  0  0  0  0  0  0  0  0  0  0  0  0  # atno 17394 bound_to 11000
  140.6564  133.9684  155.7782 LP  0  0  0  0  0  0  0  0  0  0  0  0  # atno 17395 bound_to 11000

$$$$
