AV-unprocessed.smi:1154|AV-procd|sdf|4903|dock5
  -GOLD-   22720 3483D 1   1.00000     0.00000
 Structure written by MMmdl.
 42 43  0  0  0  0  0  0  0  0  2 V2000
  148.4325  145.4557  160.9126 C   0  0  0  0  0  0  0  0  0  0  0  0
  149.1612  144.7777  159.7435 C   0  0  1  0  0  0  0  0  0  0  0  0
  150.5795  144.3363  160.1481 C   0  0  0  0  0  0  0  0  0  0  0  0
  151.2950  143.5969  159.0024 C   0  0  2  0  0  0  0  0  0  0  0  0
  151.7596  144.5399  157.8784 C   0  0  0  0  0  0  0  0  0  0  0  0
  150.4182  142.4451  158.4721 C   0  0  0  0  0  0  0  0  0  0  0  0
  149.0692  142.9219  158.0699 N   0  3  1  0  0  0  0  0  0  0  0  0
  148.2676  141.8568  157.4161 C   0  0  0  0  0  0  0  0  0  0  0  0
  148.6417  141.6700  155.9366 C   0  0  0  0  0  0  0  0  0  0  0  0
  149.2082  140.3467  155.7175 N   0  0  0  0  0  0  0  0  0  0  0  0
  149.6983  139.9173  154.5443 C   0  0  0  0  0  0  0  0  0  0  0  0
  149.6878  140.6003  153.5213 O   0  0  0  0  0  0  0  0  0  0  0  0
  150.2802  138.5011  154.5109 C   0  0  0  0  0  0  0  0  0  0  0  0
  151.4814  138.3921  155.3195 N   0  0  0  0  0  0  0  0  0  0  0  0
  152.1189  139.2949  156.0674 C   0  0  0  0  0  0  0  0  0  0  0  0
  153.1998  138.7836  156.6360 N   0  0  0  0  0  0  0  0  0  0  0  0
  153.1974  137.4713  156.1933 N   0  0  0  0  0  0  0  0  0  0  0  0
  152.1795  137.2328  155.4124 N   0  0  0  0  0  0  0  0  0  0  0  0
  148.3618  143.5769  159.2022 C   0  0  0  0  0  0  0  0  0  0  0  0
  148.3098  144.7733  161.7543 H   0  0  0  0  0  0  0  0  0  0  0  0
  147.4411  145.7968  160.6130 H   0  0  0  0  0  0  0  0  0  0  0  0
  148.9856  146.3258  161.2676 H   0  0  0  0  0  0  0  0  0  0  0  0
  149.2439  145.5160  158.9453 H   0  0  0  0  0  0  0  0  0  0  0  0
  151.1692  145.1963  160.4681 H   0  0  0  0  0  0  0  0  0  0  0  0
  150.5161  143.6734  161.0124 H   0  0  0  0  0  0  0  0  0  0  0  0
  152.1994  143.1525  159.4203 H   0  0  0  0  0  0  0  0  0  0  0  0
  150.9205  145.0132  157.3685 H   0  0  0  0  0  0  0  0  0  0  0  0
  152.3354  143.9977  157.1278 H   0  0  0  0  0  0  0  0  0  0  0  0
  152.3989  145.3315  158.2702 H   0  0  0  0  0  0  0  0  0  0  0  0
  150.9170  141.9714  157.6254 H   0  0  0  0  0  0  0  0  0  0  0  0
  150.3096  141.6764  159.2393 H   0  0  0  0  0  0  0  0  0  0  0  0
  148.4437  140.9092  157.9274 H   0  0  0  0  0  0  0  0  0  0  0  0
  147.2036  142.0728  157.5265 H   0  0  0  0  0  0  0  0  0  0  0  0
  147.7714  141.7815  155.2902 H   0  0  0  0  0  0  0  0  0  0  0  0
  149.3647  142.4320  155.6401 H   0  0  0  0  0  0  0  0  0  0  0  0
  149.2474  139.7226  156.5102 H   0  0  0  0  0  0  0  0  0  0  0  0
  149.5381  137.7925  154.8802 H   0  0  0  0  0  0  0  0  0  0  0  0
  150.5185  138.2147  153.4853 H   0  0  0  0  0  0  0  0  0  0  0  0
  151.7989  140.3194  156.1878 H   0  0  0  0  0  0  0  0  0  0  0  0
  148.1917  142.8464  159.9950 H   0  0  0  0  0  0  0  0  0  0  0  0
  147.3803  143.9236  158.8807 H   0  0  0  0  0  0  0  0  0  0  0  0
  149.2236  143.6318  157.3681 H   0  0  0  0  0  0  0  0  0  0  0  0
  1  2  1  0  0  0  0
  1 20  1  0  0  0  0
  1 21  1  0  0  0  0
  1 22  1  0  0  0  0
  2 19  1  0  0  0  0
  2  3  1  0  0  0  0
  2 23  1  0  0  0  0
  3  4  1  0  0  0  0
  3 24  1  0  0  0  0
  3 25  1  0  0  0  0
  4  5  1  0  0  0  0
  4  6  1  0  0  0  0
  4 26  1  0  0  0  0
  5 27  1  0  0  0  0
  5 28  1  0  0  0  0
  5 29  1  0  0  0  0
  6  7  1  0  0  0  0
  6 30  1  0  0  0  0
  6 31  1  0  0  0  0
  7  8  1  0  0  0  0
  7 19  1  0  0  0  0
  7 42  1  0  0  0  0
  8  9  1  0  0  0  0
  8 32  1  0  0  0  0
  8 33  1  0  0  0  0
  9 10  1  0  0  0  0
  9 34  1  0  0  0  0
  9 35  1  0  0  0  0
 10 11  1  0  0  0  0
 10 36  1  0  0  0  0
 11 12  2  0  0  0  0
 11 13  1  0  0  0  0
 13 14  1  0  0  0  0
 13 37  1  0  0  0  0
 13 38  1  0  0  0  0
 14 18  1  0  0  0  0
 14 15  1  0  0  0  0
 15 16  2  0  0  0  0
 15 39  1  0  0  0  0
 16 17  1  0  0  0  0
 17 18  2  0  0  0  0
 19 40  1  0  0  0  0
 19 41  1  0  0  0  0
M  CHG  1   7   1
M  END
> <s_m_source_file>
AV-unprocessed.smi

> <i_m_source_file_index>
1154

> <i_lp_mmshare_version>
43012

> <i_f3d_flags>
0

> <s_epik_input>
W0NIM11bQ0BASF0xW0NIMl1bQ0BASF0oW0NIM10pW0NIMl1OKFtDSDJdMSlbQ0gyXVtDSDJdW05IXUMoPU8pW0NIMl1uMltjSF1ubm4y

> <s_epik_cmdline>
J2VwaWtfcHl0aG9uJywgJy1waCcsICc3LjAnLCAnLXRuJywgJzgnLCAnLW1hJywgJzIwMCcsICctbWV0YWxfYmluZGluZycsICctaW1hZScsICc8aW5maWxlLm1hZT4nLCAnLW9tYWUnLCAnPG91dGZpbGUubWFlPic=

> <r_lp_tautomer_probability>
1

> <r_epik_Ionization_Penalty>
0.00217773

> <r_epik_Ionization_Penalty_Charging>
0.00217329

> <r_epik_Ionization_Penalty_Neutral>
4.43997e-06

> <r_epik_State_Penalty>
0.00149294

> <r_epik_Charging_Adjusted_Penalty>
0.00366623

> <i_epik_Tot_Q>
1

> <i_epik_Tot_abs_Q>
1

> <r_epik_Metal_State_Penalty>
-0

> <b_epik_Metal_Only>
0

> <s_lp_Force_Field>
OPLS_2005

> <r_lp_Energy>
22.3383

> <b_lp_Chiralities_Consistent>
1

> <s_lp_Variant>
AV-unprocessed.smi:1154-4

> <Gold.Version>
5.8.1

> <Gold.Id.Protein>
6NUR|6NUR_protein|mol2

> <Gold.PLP.Fitness>
43.1295

> <Gold.PLP.PLP>
-30.4009

> <Gold.PLP.part.hbond>
-5.7890

> <Gold.PLP.part.metal>
0.0000

> <Gold.PLP.part.buried>
-1.9945

> <Gold.PLP.part.nonpolar>
-27.1247

> <Gold.PLP.part.repulsive>
5.1789

> <Gold.PLP.ligand.clash>
0.0000

> <Gold.PLP.ligand.torsion>
0.6792

> <Gold.PLP.Chemscore.Hbond>
4.6856

> <Gold.PLP.Chemscore.CHOScore>
0.0000

> <Gold.PLP.Chemscore.Metal>
0.0000

> <Gold.Chemscore.Hbonds>
donor molecule, donor type, donor heavy atom, donor atom, acceptor molecule, acceptor atom, score
      L1  H     7    42       P1  8028  1.98
      P1  H  7989  7998       L1    12  0.35
      P1  H  7997  8008       L1    16  1.00
      P1  H  8011  8017       L1    12  0.65
      P1  H 10752 10764       L1    18  0.60

> <Gold.PLP.Chemscore.Internal.Correction>
0.0302

> <Gold.Rescore>
     Score         DG    S(hbond)    S(metal)    S(lipo)     H(rot)  DE(clash)    DE(int)     intcor
     11.98     -14.68       2.36        0.00      69.61       2.67       1.94       0.76       ----

> <Gold.Chemscore.Fitness>
11.9784

> <Gold.Chemscore.DG>
-14.6788

> <Gold.Chemscore.ZeroCoef>
-5.4800

> <Gold.Chemscore.Hbond>
2.3602

> <Gold.Chemscore.Metal>
0.0000

> <Gold.Chemscore.Lipo>
69.6096

> <Gold.Chemscore.Internal_Hbond>
0.0000

> <Gold.Chemscore.DEClash>
1.9436

> <Gold.Chemscore.DEInternal>
0.7568

> <Gold.Chemscore.Rot>
2.6674

> <Gold.Chemscore.Internal.Correction>
   9.000000E+99

> <Gold.Chemscore.Hbonds>
donor molecule, donor type, donor heavy atom, donor atom, acceptor molecule, acceptor atom, score
      L1  H     7    42       P1  8028  0.41
      P1  H  7989  7998       L1    12  0.05
      P1  H  7997  8008       L1    16  0.49
      P1  H  8011  8017       L1    12  0.64
      P1  H 10752 10764       L1    18  0.11

> <Gold.Chemscore.Hbond.Weighted>
-7.8831

> <Gold.Chemscore.Metal.Weighted>
-0.0000

> <Gold.Chemscore.Lipo.Weighted>
-8.1443

> <Gold.Chemscore.Internal_Hbond.Weighted>
0.0000

> <Gold.Chemscore.DEClash.Weighted>
1.9436

> <Gold.Chemscore.DEInternal.Weighted>
0.7568

> <Gold.Chemscore.Rot.Weighted>
6.8286

> <Gold.Chemscore.Internal.Correction.Weighted>
   9.000000E+99

> <Gold.Protein.RotatedTorsions>
[ 6907 6896 6895 6894 ] final  -25.01 input  -60.11 | X-H torsion
[ 7974 7965 7964 7962 ] final  143.98 input  175.53 | X-H torsion
[ 8008 7997 7996 7995 ] final  -57.71 input   59.86 | X-H torsion
[ 10167 10162 10161 10158 ] final  102.52 input  -65.29 | X-H torsion
[ 10718 10713 10712 10709 ] final   62.08 input   66.30 | X-H torsion
[ 10763 10752 10751 10750 ] final  -73.26 input  -60.55 | X-H torsion
[ 11005 11000 10999 10996 ] final   70.78 input  -57.11 | X-H torsion

> <Gold.Protein.ActiveResidues>
 VAL166  LYS551  ARG553  GLY616  TRP617  ASP618  TYR619  PRO620  LYS621  CYS622 
 ASP623  PHE694  ASN695  SER759  ASP760  ASP761  ALA762  ILE779  LEU786  VAL792 
 PHE793  MET794  SER795  GLU796  ALA797  LYS798  CYS799  TRP800  GLU811  SER814 

> <Gold.Protein.RotatedAtoms>
  151.1813  135.0362  159.8793 H   0  0  0  0  0  0  0  0  0  0  0  0  # atno 6907 bound_to 6896
  152.5444  134.1059  159.8348 H   0  0  0  0  0  0  0  0  0  0  0  0  # atno 6908 bound_to 6896
  151.1177  133.5080  159.2635 H   0  0  0  0  0  0  0  0  0  0  0  0  # atno 6909 bound_to 6896
  144.8875  139.5607  143.5814 H   0  0  0  0  0  0  0  0  0  0  0  0  # atno 7974 bound_to 7965
  154.4279  140.1100  156.5840 H   0  0  0  0  0  0  0  0  0  0  0  0  # atno 8008 bound_to 7997
  155.6082  140.3494  155.4595 H   0  0  0  0  0  0  0  0  0  0  0  0  # atno 8009 bound_to 7997
  156.0120  140.1221  157.0434 H   0  0  0  0  0  0  0  0  0  0  0  0  # atno 8010 bound_to 7997
  139.7342  144.7028  151.0674 H   0  0  0  0  0  0  0  0  0  0  0  0  # atno 10167 bound_to 10162
  157.5875  130.9030  149.9542 H   0  0  0  0  0  0  0  0  0  0  0  0  # atno 10718 bound_to 10713
  154.4570  135.5903  153.6230 H   0  0  0  0  0  0  0  0  0  0  0  0  # atno 10763 bound_to 10752
  152.9819  135.6035  154.3533 H   0  0  0  0  0  0  0  0  0  0  0  0  # atno 10764 bound_to 10752
  154.3401  135.2842  155.2406 H   0  0  0  0  0  0  0  0  0  0  0  0  # atno 10765 bound_to 10752
  139.9579  134.7112  156.0711 H   0  0  0  0  0  0  0  0  0  0  0  0  # atno 11005 bound_to 11000
  146.3033  139.7497  142.9075 LP  0  0  0  0  0  0  0  0  0  0  0  0  # atno 17320 bound_to 7965
  145.3843  141.0363  143.3160 LP  0  0  0  0  0  0  0  0  0  0  0  0  # atno 17321 bound_to 7965
  140.7776  143.5004  150.9778 LP  0  0  0  0  0  0  0  0  0  0  0  0  # atno 17342 bound_to 10162
  139.8693  143.7214  152.3167 LP  0  0  0  0  0  0  0  0  0  0  0  0  # atno 17343 bound_to 10162
  156.0925  130.3662  150.0367 LP  0  0  0  0  0  0  0  0  0  0  0  0  # atno 17370 bound_to 10713
  156.8496  130.9454  151.3626 LP  0  0  0  0  0  0  0  0  0  0  0  0  # atno 17371 bound_to 10713
  141.1253  133.6601  156.3320 LP  0  0  0  0  0  0  0  0  0  0  0  0  # atno 17394 bound_to 11000
  140.5567  134.5974  157.5422 LP  0  0  0  0  0  0  0  0  0  0  0  0  # atno 17395 bound_to 11000

$$$$
