AV-unprocessed.smi:2373|AV-procd|sdf|9440|dock2
  -GOLD-   2272013 73D 1   1.00000     0.00000
 Structure written by MMmdl.
 46 47  0  0  0  0  0  0  0  0  1 V2000
  145.9305  131.8707  151.2923 C   0  0  0  0  0  0  0  0  0  0  0  0
  144.7471  132.7213  151.3738 N   0  0  0  0  0  0  0  0  0  0  0  0
  143.4258  132.1520  151.1402 C   0  0  0  0  0  0  0  0  0  0  0  0
  144.8904  134.1023  151.6406 C   0  0  0  0  0  0  0  0  0  0  0  0
  143.7778  134.9087  151.9861 C   0  0  0  0  0  0  0  0  0  0  0  0
  143.9743  136.2797  152.2385 C   0  0  0  0  0  0  0  0  0  0  0  0
  145.2689  136.8228  152.1338 C   0  0  0  0  0  0  0  0  0  0  0  0
  145.4401  138.2061  152.4108 N   0  0  0  0  0  0  0  0  0  0  0  0
  146.5831  138.8814  152.6202 C   0  0  0  0  0  0  0  0  0  0  0  0
  147.7122  138.3964  152.5646 O   0  0  0  0  0  0  0  0  0  0  0  0
  146.3347  140.1765  152.8790 N   0  0  0  0  0  0  0  0  0  0  0  0
  147.2990  141.2512  153.1601 C   0  0  0  0  0  0  0  0  0  0  0  0
  146.5873  142.6371  153.2221 C   0  0  0  0  0  0  0  0  0  0  0  0
  145.7255  142.8968  154.4733 C   0  0  0  0  0  0  0  0  0  0  0  0
  144.8402  141.8155  154.6701 O   0  0  0  0  0  0  0  0  0  0  0  0
  147.9750  140.8871  154.5059 C   0  0  0  0  0  0  0  0  0  0  0  0
  149.2388  141.7170  154.7913 C   0  0  0  0  0  0  0  0  0  0  0  0
  150.1644  141.5705  153.7233 O   0  0  0  0  0  0  0  0  0  0  0  0
  149.6534  142.0545  152.4892 C   0  0  0  0  0  0  0  0  0  0  0  0
  148.4098  141.2474  152.0758 C   0  0  0  0  0  0  0  0  0  0  0  0
  146.3222  135.9404  151.7982 C   0  0  0  0  0  0  0  0  0  0  0  0
  146.1379  134.6255  151.5573 N   0  0  0  0  0  0  0  0  0  0  0  0
  146.5024  131.9193  152.2195 H   0  0  0  0  0  0  0  0  0  0  0  0
  146.5743  132.1881  150.4713 H   0  0  0  0  0  0  0  0  0  0  0  0
  145.6611  130.8280  151.1234 H   0  0  0  0  0  0  0  0  0  0  0  0
  142.9353  132.6509  150.3036 H   0  0  0  0  0  0  0  0  0  0  0  0
  142.8010  132.2589  152.0273 H   0  0  0  0  0  0  0  0  0  0  0  0
  143.4869  131.0900  150.9020 H   0  0  0  0  0  0  0  0  0  0  0  0
  142.7800  134.5045  152.0645 H   0  0  0  0  0  0  0  0  0  0  0  0
  143.1350  136.9056  152.5053 H   0  0  0  0  0  0  0  0  0  0  0  0
  144.5938  138.7562  152.4031 H   0  0  0  0  0  0  0  0  0  0  0  0
  145.3645  140.4550  152.8900 H   0  0  0  0  0  0  0  0  0  0  0  0
  147.3240  143.4355  153.1395 H   0  0  0  0  0  0  0  0  0  0  0  0
  145.9521  142.7526  152.3434 H   0  0  0  0  0  0  0  0  0  0  0  0
  146.3423  143.0031  155.3654 H   0  0  0  0  0  0  0  0  0  0  0  0
  145.1366  143.8074  154.3699 H   0  0  0  0  0  0  0  0  0  0  0  0
  144.6577  141.4193  153.8319 H   0  0  0  0  0  0  0  0  0  0  0  0
  147.2764  140.9749  155.3374 H   0  0  0  0  0  0  0  0  0  0  0  0
  148.2717  139.8371  154.4853 H   0  0  0  0  0  0  0  0  0  0  0  0
  149.0009  142.7698  154.9464 H   0  0  0  0  0  0  0  0  0  0  0  0
  149.7112  141.3664  155.7090 H   0  0  0  0  0  0  0  0  0  0  0  0
  149.4287  143.1189  152.5657 H   0  0  0  0  0  0  0  0  0  0  0  0
  150.4285  141.9544  151.7294 H   0  0  0  0  0  0  0  0  0  0  0  0
  148.7244  140.2209  151.8809 H   0  0  0  0  0  0  0  0  0  0  0  0
  148.0324  141.6316  151.1279 H   0  0  0  0  0  0  0  0  0  0  0  0
  147.3477  136.2687  151.7360 H   0  0  0  0  0  0  0  0  0  0  0  0
  1  2  1  0  0  0  0
  1 23  1  0  0  0  0
  1 24  1  0  0  0  0
  1 25  1  0  0  0  0
  2  3  1  0  0  0  0
  2  4  1  0  0  0  0
  3 26  1  0  0  0  0
  3 27  1  0  0  0  0
  3 28  1  0  0  0  0
  4 22  1  0  0  0  0
  4  5  2  0  0  0  0
  5  6  1  0  0  0  0
  5 29  1  0  0  0  0
  6  7  2  0  0  0  0
  6 30  1  0  0  0  0
  7  8  1  0  0  0  0
  7 21  1  0  0  0  0
  8  9  1  0  0  0  0
  8 31  1  0  0  0  0
  9 10  2  0  0  0  0
  9 11  1  0  0  0  0
 11 12  1  0  0  0  0
 11 32  1  0  0  0  0
 12 20  1  0  0  0  0
 12 13  1  0  0  0  0
 12 16  1  0  0  0  0
 13 14  1  0  0  0  0
 13 33  1  0  0  0  0
 13 34  1  0  0  0  0
 14 15  1  0  0  0  0
 14 35  1  0  0  0  0
 14 36  1  0  0  0  0
 15 37  1  0  0  0  0
 16 17  1  0  0  0  0
 16 38  1  0  0  0  0
 16 39  1  0  0  0  0
 17 18  1  0  0  0  0
 17 40  1  0  0  0  0
 17 41  1  0  0  0  0
 18 19  1  0  0  0  0
 19 20  1  0  0  0  0
 19 42  1  0  0  0  0
 19 43  1  0  0  0  0
 20 44  1  0  0  0  0
 20 45  1  0  0  0  0
 21 22  2  0  0  0  0
 21 46  1  0  0  0  0
M  END
> <s_m_source_file>
AV-unprocessed.smi

> <i_m_source_file_index>
2373

> <i_lp_mmshare_version>
43012

> <i_f3d_flags>
0

> <s_epik_input>
W0NIM11OKFtDSDNdKWMxW2NIXVtjSF1jKFtjSF1uMSlbTkhdQyg9TylbTkhdQzIoW0NIMl1bQ0gyXVtPSF0pW0NIMl1bQ0gyXU9bQ0gyXVtDSDJdMg==

> <s_epik_cmdline>
J2VwaWtfcHl0aG9uJywgJy1waCcsICc3LjAnLCAnLXRuJywgJzgnLCAnLW1hJywgJzIwMCcsICctbWV0YWxfYmluZGluZycsICctaW1hZScsICc8aW5maWxlLm1hZT4nLCAnLW9tYWUnLCAnPG91dGZpbGUubWFlPic=

> <r_lp_tautomer_probability>
1

> <r_epik_Ionization_Penalty>
0.631973

> <r_epik_Ionization_Penalty_Charging>
0

> <r_epik_Ionization_Penalty_Neutral>
0.631973

> <r_epik_State_Penalty>
0.647706

> <r_epik_Charging_Adjusted_Penalty>
0.647706

> <i_epik_Tot_Q>
0

> <i_epik_Tot_abs_Q>
0

> <r_epik_Metal_State_Penalty>
0.309159

> <b_epik_Metal_Only>
0

> <s_lp_Force_Field>
OPLS_2005

> <r_lp_Energy>
18.939

> <b_lp_Chiralities_Consistent>
1

> <s_lp_Variant>
AV-unprocessed.smi:2373-2

> <Gold.Version>
5.8.1

> <Gold.Id.Protein>
6NUR|6NUR_protein|mol2

> <Gold.PLP.Fitness>
43.7354

> <Gold.PLP.PLP>
-32.4619

> <Gold.PLP.part.hbond>
-3.2615

> <Gold.PLP.part.metal>
0.0000

> <Gold.PLP.part.buried>
-1.1342

> <Gold.PLP.part.nonpolar>
-27.9022

> <Gold.PLP.part.repulsive>
0.3537

> <Gold.PLP.ligand.clash>
0.0000

> <Gold.PLP.ligand.torsion>
0.3767

> <Gold.PLP.Chemscore.Hbond>
3.0000

> <Gold.PLP.Chemscore.CHOScore>
1.0000

> <Gold.PLP.Chemscore.Metal>
0.0000

> <Gold.Chemscore.Hbonds>
donor molecule, donor type, donor heavy atom, donor atom, acceptor molecule, acceptor atom, score
      L1  H     8    31       P1 10175  1.00
      L1  H    11    32       P1 10175  1.00
      L1  H    15    37       P1 10175  1.00
      P1  H  7989  7998       L1    18  0.05

> <Gold.PLP.Chemscore.Internal.Correction>
0.0269

> <Gold.Rescore>
     Score         DG    S(hbond)    S(metal)    S(lipo)     H(rot)  DE(clash)    DE(int)     intcor
     13.27     -17.49       2.77        0.00      69.09       2.09       0.42       3.80       ----

> <Gold.Chemscore.Fitness>
13.2733

> <Gold.Chemscore.DG>
-17.4854

> <Gold.Chemscore.ZeroCoef>
-5.4800

> <Gold.Chemscore.Hbond>
2.7729

> <Gold.Chemscore.Metal>
0.0000

> <Gold.Chemscore.Lipo>
69.0921

> <Gold.Chemscore.Internal_Hbond>
0.0000

> <Gold.Chemscore.DEClash>
0.4165

> <Gold.Chemscore.DEInternal>
3.7956

> <Gold.Chemscore.Rot>
2.0859

> <Gold.Chemscore.Internal.Correction>
   9.000000E+99

> <Gold.Chemscore.Hbonds>
donor molecule, donor type, donor heavy atom, donor atom, acceptor molecule, acceptor atom, score
      L1  H     8    31       P1 10175  0.96
      L1  H    11    32       P1 10175  0.85
      L1  H    15    37       P1 10175  0.25
      P1  H  7989  7998       L1    18  0.05

> <Gold.Chemscore.Hbond.Weighted>
-9.2615

> <Gold.Chemscore.Metal.Weighted>
-0.0000

> <Gold.Chemscore.Lipo.Weighted>
-8.0838

> <Gold.Chemscore.Internal_Hbond.Weighted>
0.0000

> <Gold.Chemscore.DEClash.Weighted>
0.4165

> <Gold.Chemscore.DEInternal.Weighted>
3.7956

> <Gold.Chemscore.Rot.Weighted>
5.3399

> <Gold.Chemscore.Internal.Correction.Weighted>
   9.000000E+99

> <Gold.Protein.RotatedTorsions>
[ 6907 6896 6895 6894 ] final  147.80 input  -60.11 | X-H torsion
[ 7974 7965 7964 7962 ] final  161.48 input  175.53 | X-H torsion
[ 8008 7997 7996 7995 ] final  -66.18 input   59.86 | X-H torsion
[ 10167 10162 10161 10158 ] final  122.58 input  -65.29 | X-H torsion
[ 10718 10713 10712 10709 ] final    1.43 input   66.30 | X-H torsion
[ 10763 10752 10751 10750 ] final   33.99 input  -60.55 | X-H torsion
[ 11005 11000 10999 10996 ] final   45.30 input  -57.11 | X-H torsion

> <Gold.Protein.ActiveResidues>
 VAL166  LYS551  ARG553  GLY616  TRP617  ASP618  TYR619  PRO620  LYS621  CYS622 
 ASP623  PHE694  ASN695  SER759  ASP760  ASP761  ALA762  ILE779  LEU786  VAL792 
 PHE793  MET794  SER795  GLU796  ALA797  LYS798  CYS799  TRP800  GLU811  SER814 

> <Gold.Protein.RotatedAtoms>
  152.1499  133.4515  159.4808 H   0  0  0  0  0  0  0  0  0  0  0  0  # atno 6907 bound_to 6896
  150.6894  134.2202  159.4403 H   0  0  0  0  0  0  0  0  0  0  0  0  # atno 6908 bound_to 6896
  152.0098  134.9882  160.0618 H   0  0  0  0  0  0  0  0  0  0  0  0  # atno 6909 bound_to 6896
  144.7683  139.7904  143.6306 H   0  0  0  0  0  0  0  0  0  0  0  0  # atno 7974 bound_to 7965
  154.4718  140.0918  156.7164 H   0  0  0  0  0  0  0  0  0  0  0  0  # atno 8008 bound_to 7997
  155.4703  140.3464  155.4306 H   0  0  0  0  0  0  0  0  0  0  0  0  # atno 8009 bound_to 7997
  156.1052  140.1433  156.9402 H   0  0  0  0  0  0  0  0  0  0  0  0  # atno 8010 bound_to 7997
  139.5850  144.7002  151.3432 H   0  0  0  0  0  0  0  0  0  0  0  0  # atno 10167 bound_to 10162
  156.8481  130.5544  149.5672 H   0  0  0  0  0  0  0  0  0  0  0  0  # atno 10718 bound_to 10713
  153.0185  135.6372  154.1598 H   0  0  0  0  0  0  0  0  0  0  0  0  # atno 10763 bound_to 10752
  154.1335  135.2839  155.3181 H   0  0  0  0  0  0  0  0  0  0  0  0  # atno 10764 bound_to 10752
  154.6177  135.5535  153.7603 H   0  0  0  0  0  0  0  0  0  0  0  0  # atno 10765 bound_to 10752
  140.1472  134.4508  155.8407 H   0  0  0  0  0  0  0  0  0  0  0  0  # atno 11005 bound_to 11000
  146.1810  139.5002  142.9866 LP  0  0  0  0  0  0  0  0  0  0  0  0  # atno 17320 bound_to 7965
  145.6400  141.0286  143.1817 LP  0  0  0  0  0  0  0  0  0  0  0  0  # atno 17321 bound_to 7965
  140.7123  143.7358  150.7590 LP  0  0  0  0  0  0  0  0  0  0  0  0  # atno 17342 bound_to 10162
  140.0900  143.4887  152.2484 LP  0  0  0  0  0  0  0  0  0  0  0  0  # atno 17343 bound_to 10162
  156.0843  130.5845  150.9620 LP  0  0  0  0  0  0  0  0  0  0  0  0  # atno 17370 bound_to 10713
  157.6318  131.0920  150.8426 LP  0  0  0  0  0  0  0  0  0  0  0  0  # atno 17371 bound_to 10713
  141.2194  133.6857  156.7355 LP  0  0  0  0  0  0  0  0  0  0  0  0  # atno 17394 bound_to 11000
  140.2649  134.8438  157.3793 LP  0  0  0  0  0  0  0  0  0  0  0  0  # atno 17395 bound_to 11000

$$$$
