AV-unprocessed.smi:411|AV-procd|sdf|2508|dock3
  -GOLD-   2262022453D 1   1.00000     0.00000
 Structure written by MMmdl.
 35 36  0  0  0  0  0  0  0  0  1 V2000
  149.2873  140.2203  155.8773 O   0  0  0  0  0  0  0  0  0  0  0  0
  149.5503  141.3573  156.2674 C   0  0  0  0  0  0  0  0  0  0  0  0
  151.0182  141.8188  156.2911 C   0  0  0  0  0  0  0  0  0  0  0  0
  151.5217  142.2198  157.6184 N   0  0  0  0  0  0  0  0  0  0  0  0
  151.0084  143.4130  158.1571 C   0  0  0  0  0  0  0  0  0  0  0  0
  151.3873  143.8644  159.3601 C   0  0  0  0  0  0  0  0  0  0  0  0
  152.3502  143.0918  160.1064 C   0  0  0  0  0  0  0  0  0  0  0  0
  152.8580  141.9370  159.6168 C   0  0  0  0  0  0  0  0  0  0  0  0
  153.8777  141.1070  160.3929 C   0  0  0  0  0  0  0  0  0  0  0  0
  153.5027  139.8280  160.4343 F   0  0  0  0  0  0  0  0  0  0  0  0
  155.0766  141.1711  159.8124 F   0  0  0  0  0  0  0  0  0  0  0  0
  154.0105  141.5344  161.6494 F   0  0  0  0  0  0  0  0  0  0  0  0
  152.4305  141.4467  158.2906 C   0  0  0  0  0  0  0  0  0  0  0  0
  152.8537  140.3949  157.8083 O   0  0  0  0  0  0  0  0  0  0  0  0
  148.6056  142.2216  156.6752 N   0  0  0  0  0  0  0  0  0  0  0  0
  147.1741  141.9503  156.7257 C   0  0  2  0  0  0  0  0  0  0  0  0
  146.5757  141.7269  155.3217 C   0  0  0  0  0  0  0  0  0  0  0  0
  145.0494  141.8390  155.4143 C   0  0  0  0  0  0  0  0  0  0  0  0
  144.7069  143.0281  156.7664 S   0  0  0  0  0  0  0  0  0  0  0  0
  144.3288  144.3294  156.1946 O   0  0  0  0  0  0  0  0  0  0  0  0
  143.8645  142.3713  157.7773 O   0  0  0  0  0  0  0  0  0  0  0  0
  146.4309  143.1242  157.3782 C   0  0  0  0  0  0  0  0  0  0  0  0
  151.6375  141.0226  155.8741 H   0  0  0  0  0  0  0  0  0  0  0  0
  151.1201  142.6460  155.5873 H   0  0  0  0  0  0  0  0  0  0  0  0
  150.2879  143.9270  157.5372 H   0  0  0  0  0  0  0  0  0  0  0  0
  150.9804  144.7807  159.7622 H   0  0  0  0  0  0  0  0  0  0  0  0
  152.6598  143.4562  161.0746 H   0  0  0  0  0  0  0  0  0  0  0  0
  148.9050  143.1373  156.9775 H   0  0  0  0  0  0  0  0  0  0  0  0
  146.9907  141.0584  157.3281 H   0  0  0  0  0  0  0  0  0  0  0  0
  146.9418  142.5033  154.6483 H   0  0  0  0  0  0  0  0  0  0  0  0
  146.8788  140.7694  154.8965 H   0  0  0  0  0  0  0  0  0  0  0  0
  144.5904  142.1792  154.4860 H   0  0  0  0  0  0  0  0  0  0  0  0
  144.6083  140.8811  155.6907 H   0  0  0  0  0  0  0  0  0  0  0  0
  146.4465  143.0863  158.4677 H   0  0  0  0  0  0  0  0  0  0  0  0
  146.8415  144.0824  157.0575 H   0  0  0  0  0  0  0  0  0  0  0  0
  1  2  2  0  0  0  0
  2  3  1  0  0  0  0
  2 15  1  0  0  0  0
  3  4  1  0  0  0  0
  3 23  1  0  0  0  0
  3 24  1  0  0  0  0
  4 13  1  0  0  0  0
  4  5  1  0  0  0  0
  5  6  2  0  0  0  0
  5 25  1  0  0  0  0
  6  7  1  0  0  0  0
  6 26  1  0  0  0  0
  7  8  2  0  0  0  0
  7 27  1  0  0  0  0
  8  9  1  0  0  0  0
  8 13  1  0  0  0  0
  9 10  1  0  0  0  0
  9 11  1  0  0  0  0
  9 12  1  0  0  0  0
 13 14  2  0  0  0  0
 15 16  1  0  0  0  0
 15 28  1  0  0  0  0
 16 22  1  0  0  0  0
 16 17  1  0  0  0  0
 16 29  1  0  0  0  0
 17 18  1  0  0  0  0
 17 30  1  0  0  0  0
 17 31  1  0  0  0  0
 18 19  1  0  0  0  0
 18 32  1  0  0  0  0
 18 33  1  0  0  0  0
 19 20  2  0  0  0  0
 19 21  2  0  0  0  0
 19 22  1  0  0  0  0
 22 34  1  0  0  0  0
 22 35  1  0  0  0  0
M  END
> <s_m_source_file>
AV-unprocessed.smi

> <i_m_source_file_index>
411

> <i_lp_mmshare_version>
43012

> <i_f3d_flags>
0

> <s_epik_input>
Tz1TMSg9TylbQ0gyXVtDSDJdW0NASF0oW0NIMl0xKVtOSF1DKD1PKVtDSDJdbjJbY0hdW2NIXVtjSF1jKEMoRikoRilGKWMyPU8=

> <s_epik_cmdline>
J2VwaWtfcHl0aG9uJywgJy1waCcsICc3LjAnLCAnLXRuJywgJzgnLCAnLW1hJywgJzIwMCcsICctbWV0YWxfYmluZGluZycsICctaW1hZScsICc8aW5maWxlLm1hZT4nLCAnLW9tYWUnLCAnPG91dGZpbGUubWFlPic=

> <r_lp_tautomer_probability>
1

> <r_epik_Ionization_Penalty>
1.08759e-07

> <r_epik_Ionization_Penalty_Charging>
1.56656e-09

> <r_epik_Ionization_Penalty_Neutral>
1.07193e-07

> <r_epik_State_Penalty>
-0

> <r_epik_Charging_Adjusted_Penalty>
1.56656e-09

> <i_epik_Tot_Q>
0

> <i_epik_Tot_abs_Q>
0

> <r_epik_Metal_State_Penalty>
-0

> <b_epik_Metal_Only>
0

> <s_lp_Force_Field>
OPLS_2005

> <r_lp_Energy>
11.8943

> <b_lp_Chiralities_Consistent>
1

> <s_lp_Variant>
AV-unprocessed.smi:411-1

> <Gold.Version>
5.8.1

> <Gold.Id.Protein>
6NUR|6NUR_protein|mol2

> <Gold.PLP.Fitness>
42.6318

> <Gold.PLP.PLP>
-36.3573

> <Gold.PLP.part.hbond>
-2.0000

> <Gold.PLP.part.metal>
0.0000

> <Gold.PLP.part.buried>
-2.5731

> <Gold.PLP.part.nonpolar>
-29.3535

> <Gold.PLP.part.repulsive>
0.1142

> <Gold.PLP.ligand.clash>
0.0000

> <Gold.PLP.ligand.torsion>
0.4286

> <Gold.PLP.Chemscore.Hbond>
1.2678

> <Gold.PLP.Chemscore.CHOScore>
1.0000

> <Gold.PLP.Chemscore.Metal>
0.0000

> <Gold.Chemscore.Hbonds>
donor molecule, donor type, donor heavy atom, donor atom, acceptor molecule, acceptor atom, score
      L1  H    15    28       P1  8028  0.39
      P1  H  7997  8008       L1    14  0.85
      L1  C     5    25       P1  8028  1.00

> <Gold.PLP.Chemscore.Internal.Correction>
0.3284

> <Gold.Rescore>
     Score         DG    S(hbond)    S(metal)    S(lipo)     H(rot)  DE(clash)    DE(int)     intcor
     10.83     -12.77       1.18        0.00      66.42       1.73       0.02       1.92       ----

> <Gold.Chemscore.Fitness>
10.8299

> <Gold.Chemscore.DG>
-12.7671

> <Gold.Chemscore.ZeroCoef>
-5.4800

> <Gold.Chemscore.Hbond>
1.1821

> <Gold.Chemscore.Metal>
0.0000

> <Gold.Chemscore.Lipo>
66.4220

> <Gold.Chemscore.Internal_Hbond>
0.0000

> <Gold.Chemscore.DEClash>
0.0203

> <Gold.Chemscore.DEInternal>
1.9169

> <Gold.Chemscore.Rot>
1.7314

> <Gold.Chemscore.Internal.Correction>
   9.000000E+99

> <Gold.Chemscore.Hbonds>
donor molecule, donor type, donor heavy atom, donor atom, acceptor molecule, acceptor atom, score
      L1  H    15    28       P1  8028  0.30
      P1  H  7997  8008       L1    14  0.85

> <Gold.Chemscore.Hbond.Weighted>
-3.9481

> <Gold.Chemscore.Metal.Weighted>
-0.0000

> <Gold.Chemscore.Lipo.Weighted>
-7.7714

> <Gold.Chemscore.Internal_Hbond.Weighted>
0.0000

> <Gold.Chemscore.DEClash.Weighted>
0.0203

> <Gold.Chemscore.DEInternal.Weighted>
1.9169

> <Gold.Chemscore.Rot.Weighted>
4.4324

> <Gold.Chemscore.Internal.Correction.Weighted>
   9.000000E+99

> <Gold.Protein.RotatedTorsions>
[ 6907 6896 6895 6894 ] final  -84.11 input  -60.11 | X-H torsion
[ 7974 7965 7964 7962 ] final -161.73 input  175.53 | X-H torsion
[ 8008 7997 7996 7995 ] final  -80.40 input   59.86 | X-H torsion
[ 10167 10162 10161 10158 ] final  -92.13 input  -65.29 | X-H torsion
[ 10718 10713 10712 10709 ] final  -22.30 input   66.30 | X-H torsion
[ 10763 10752 10751 10750 ] final  169.97 input  -60.55 | X-H torsion
[ 11005 11000 10999 10996 ] final -153.23 input  -57.11 | X-H torsion

> <Gold.Protein.ActiveResidues>
 VAL166  LYS551  ARG553  GLY616  TRP617  ASP618  TYR619  PRO620  LYS621  CYS622 
 ASP623  PHE694  ASN695  SER759  ASP760  ASP761  ALA762  ILE779  LEU786  VAL792 
 PHE793  MET794  SER795  GLU796  ALA797  LYS798  CYS799  TRP800  GLU811  SER814 

> <Gold.Protein.RotatedAtoms>
  150.6879  134.3409  159.4867 H   0  0  0  0  0  0  0  0  0  0  0  0  # atno 6907 bound_to 6896
  152.1262  134.9166  160.0570 H   0  0  0  0  0  0  0  0  0  0  0  0  # atno 6908 bound_to 6896
  152.0353  133.3919  159.4351 H   0  0  0  0  0  0  0  0  0  0  0  0  # atno 6909 bound_to 6896
  144.7381  140.3356  143.6145 H   0  0  0  0  0  0  0  0  0  0  0  0  # atno 7974 bound_to 7965
  154.5880  140.0663  156.9198 H   0  0  0  0  0  0  0  0  0  0  0  0  # atno 8008 bound_to 7997
  155.2346  140.3340  155.4281 H   0  0  0  0  0  0  0  0  0  0  0  0  # atno 8009 bound_to 7997
  156.2236  140.1809  156.7402 H   0  0  0  0  0  0  0  0  0  0  0  0  # atno 8010 bound_to 7997
  140.3379  143.2958  151.9868 H   0  0  0  0  0  0  0  0  0  0  0  0  # atno 10167 bound_to 10162
  156.5064  130.4600  149.6672 H   0  0  0  0  0  0  0  0  0  0  0  0  # atno 10718 bound_to 10713
  154.3909  135.2754  155.2155 H   0  0  0  0  0  0  0  0  0  0  0  0  # atno 10763 bound_to 10752
  154.4222  135.5997  153.6020 H   0  0  0  0  0  0  0  0  0  0  0  0  # atno 10764 bound_to 10752
  152.9832  135.5975  154.4164 H   0  0  0  0  0  0  0  0  0  0  0  0  # atno 10765 bound_to 10752
  140.7104  134.3839  157.5198 H   0  0  0  0  0  0  0  0  0  0  0  0  # atno 11005 bound_to 11000
  145.7427  139.1769  143.2366 LP  0  0  0  0  0  0  0  0  0  0  0  0  # atno 17320 bound_to 7965
  146.1121  140.7415  142.9498 LP  0  0  0  0  0  0  0  0  0  0  0  0  # atno 17321 bound_to 7965
  139.4845  144.6181  151.7307 LP  0  0  0  0  0  0  0  0  0  0  0  0  # atno 17342 bound_to 10162
  140.5336  144.0691  150.6062 LP  0  0  0  0  0  0  0  0  0  0  0  0  # atno 17343 bound_to 10162
  156.3282  130.7317  151.2242 LP  0  0  0  0  0  0  0  0  0  0  0  0  # atno 17370 bound_to 10713
  157.7456  131.0437  150.4756 LP  0  0  0  0  0  0  0  0  0  0  0  0  # atno 17371 bound_to 10713
  139.8873  134.8886  156.2536 LP  0  0  0  0  0  0  0  0  0  0  0  0  # atno 17394 bound_to 11000
  141.0089  133.7107  156.1079 LP  0  0  0  0  0  0  0  0  0  0  0  0  # atno 17395 bound_to 11000

$$$$
