AV-unprocessed.smi:151|AV-procd|sdf|1245|dock5
  -GOLD-   2262018463D 1   1.00000     0.00000
 Structure written by MMmdl.
 56 59  0  0  0  0  0  0  0  0  1 V2000
  151.8710  138.1425  154.7755 C   0  0  0  0  0  0  0  0  0  0  0  0
  150.3749  138.1296  154.4332 C   0  0  0  0  0  0  0  0  0  0  0  0
  149.4987  139.0005  155.3722 C   0  0  1  0  0  0  0  0  0  0  0  0
  149.9715  140.4718  155.3653 C   0  0  0  0  0  0  0  0  0  0  0  0
  149.1302  141.2920  156.1723 O   0  0  0  0  0  0  0  0  0  0  0  0
  147.7463  141.2827  155.8181 C   0  0  0  0  0  0  0  0  0  0  0  0
  147.0382  142.1025  156.9078 C   0  0  0  0  0  0  0  0  0  0  0  0
  147.5100  141.9487  154.4455 C   0  0  0  0  0  0  0  0  0  0  0  0
  147.2473  139.8242  155.8500 C   0  0  0  0  0  0  0  0  0  0  0  0
  148.0761  138.9608  155.0143 N   0  0  0  0  0  0  0  0  0  0  0  0
  147.5400  137.7258  154.8877 C   0  0  0  0  0  0  0  0  0  0  0  0
  147.8005  136.7700  155.8183 N   0  0  0  0  0  0  0  0  0  0  0  0
  147.2851  135.5455  155.6750 C   0  0  0  0  0  0  0  0  0  0  0  0
  146.5078  135.0759  154.6967 N   0  0  0  0  0  0  0  0  0  0  0  0
  146.2487  136.0345  153.7599 C   0  0  0  0  0  0  0  0  0  0  0  0
  146.7206  137.3764  153.7831 C   0  0  0  0  0  0  0  0  0  0  0  0
  146.2613  138.0660  152.6695 N   0  0  0  0  0  0  0  0  0  0  0  0
  145.5560  137.1799  152.0202 C   0  0  0  0  0  0  0  0  0  0  0  0
  145.4965  135.9314  152.6003 N   0  0  0  0  0  0  0  0  0  0  0  0
  144.7963  134.7852  152.0910 C   0  0  0  0  0  0  0  0  0  0  0  0
  145.3591  133.3734  152.2676 C   0  0  0  0  0  0  0  0  0  0  0  0
  144.8696  132.9852  150.8541 C   0  0  0  0  0  0  0  0  0  0  0  0
  145.9173  132.2849  149.9753 C   0  0  0  0  0  0  0  0  0  0  0  0
  146.4115  131.1154  150.5961 O   0  0  0  0  0  0  0  0  0  0  0  0
  143.5696  132.1566  150.7643 C   0  0  0  0  0  0  0  0  0  0  0  0
  143.0598  132.0681  149.4489 O   0  0  0  0  0  0  0  0  0  0  0  0
  144.7267  134.5012  150.5881 C   0  0  0  0  0  0  0  0  0  0  0  0
  152.4139  137.4360  154.1473 H   0  0  0  0  0  0  0  0  0  0  0  0
  152.0394  137.8580  155.8143 H   0  0  0  0  0  0  0  0  0  0  0  0
  152.3164  139.1239  154.6153 H   0  0  0  0  0  0  0  0  0  0  0  0
  150.2353  138.4460  153.3988 H   0  0  0  0  0  0  0  0  0  0  0  0
  150.0529  137.0890  154.4748 H   0  0  0  0  0  0  0  0  0  0  0  0
  149.5937  138.6169  156.3894 H   0  0  0  0  0  0  0  0  0  0  0  0
  150.9786  140.5494  155.7733 H   0  0  0  0  0  0  0  0  0  0  0  0
  150.0228  140.8628  154.3490 H   0  0  0  0  0  0  0  0  0  0  0  0
  145.9610  142.1373  156.7417 H   0  0  0  0  0  0  0  0  0  0  0  0
  147.4041  143.1297  156.9288 H   0  0  0  0  0  0  0  0  0  0  0  0
  147.2066  141.6750  157.8968 H   0  0  0  0  0  0  0  0  0  0  0  0
  146.4438  142.0412  154.2367 H   0  0  0  0  0  0  0  0  0  0  0  0
  147.9438  141.3784  153.6246 H   0  0  0  0  0  0  0  0  0  0  0  0
  147.9396  142.9503  154.4161 H   0  0  0  0  0  0  0  0  0  0  0  0
  147.2713  139.4535  156.8761 H   0  0  0  0  0  0  0  0  0  0  0  0
  146.2076  139.7774  155.5215 H   0  0  0  0  0  0  0  0  0  0  0  0
  147.5338  134.8394  156.4533 H   0  0  0  0  0  0  0  0  0  0  0  0
  145.0579  137.4164  151.0910 H   0  0  0  0  0  0  0  0  0  0  0  0
  143.7875  134.8327  152.5037 H   0  0  0  0  0  0  0  0  0  0  0  0
  146.4460  133.3598  152.3572 H   0  0  0  0  0  0  0  0  0  0  0  0
  144.8986  132.8087  153.0788 H   0  0  0  0  0  0  0  0  0  0  0  0
  145.5046  132.0205  149.0011 H   0  0  0  0  0  0  0  0  0  0  0  0
  146.7662  132.9421  149.7829 H   0  0  0  0  0  0  0  0  0  0  0  0
  147.3092  130.9907  150.3278 H   0  0  0  0  0  0  0  0  0  0  0  0
  143.7340  131.1407  151.1256 H   0  0  0  0  0  0  0  0  0  0  0  0
  142.7861  132.5867  151.3887 H   0  0  0  0  0  0  0  0  0  0  0  0
  142.3991  132.7347  149.3381 H   0  0  0  0  0  0  0  0  0  0  0  0
  143.7855  134.7973  150.1236 H   0  0  0  0  0  0  0  0  0  0  0  0
  145.5705  134.9191  150.0380 H   0  0  0  0  0  0  0  0  0  0  0  0
  1  2  1  0  0  0  0
  1 28  1  0  0  0  0
  1 29  1  0  0  0  0
  1 30  1  0  0  0  0
  2  3  1  0  0  0  0
  2 31  1  0  0  0  0
  2 32  1  0  0  0  0
  3 10  1  0  0  0  0
  3  4  1  0  0  0  0
  3 33  1  0  0  0  0
  4  5  1  0  0  0  0
  4 34  1  0  0  0  0
  4 35  1  0  0  0  0
  5  6  1  0  0  0  0
  6  7  1  0  0  0  0
  6  8  1  0  0  0  0
  6  9  1  0  0  0  0
  7 36  1  0  0  0  0
  7 37  1  0  0  0  0
  7 38  1  0  0  0  0
  8 39  1  0  0  0  0
  8 40  1  0  0  0  0
  8 41  1  0  0  0  0
  9 10  1  0  0  0  0
  9 42  1  0  0  0  0
  9 43  1  0  0  0  0
 10 11  1  0  0  0  0
 11 16  1  0  0  0  0
 11 12  2  0  0  0  0
 12 13  1  0  0  0  0
 13 14  2  0  0  0  0
 13 44  1  0  0  0  0
 14 15  1  0  0  0  0
 15 19  1  0  0  0  0
 15 16  2  0  0  0  0
 16 17  1  0  0  0  0
 17 18  2  0  0  0  0
 18 19  1  0  0  0  0
 18 45  1  0  0  0  0
 19 20  1  0  0  0  0
 20 27  1  0  0  0  0
 20 21  1  0  0  0  0
 20 46  1  0  0  0  0
 21 22  1  0  0  0  0
 21 47  1  0  0  0  0
 21 48  1  0  0  0  0
 22 23  1  0  0  0  0
 22 25  1  0  0  0  0
 22 27  1  0  0  0  0
 23 24  1  0  0  0  0
 23 49  1  0  0  0  0
 23 50  1  0  0  0  0
 24 51  1  0  0  0  0
 25 26  1  0  0  0  0
 25 52  1  0  0  0  0
 25 53  1  0  0  0  0
 26 54  1  0  0  0  0
 27 55  1  0  0  0  0
 27 56  1  0  0  0  0
M  END
> <s_m_source_file>
AV-unprocessed.smi

> <i_m_source_file_index>
151

> <i_lp_mmshare_version>
43012

> <i_f3d_flags>
0

> <s_epik_input>
W0NIM11DMShbQ0gzXSlPW0NIMl1bQ0BASF0oW0NIMl1bQ0gzXSlOKFtDSDJdMSljKG5bY0hdbjIpYyhjMjMpbltjSF1uM1tDSF0oW0NIMl00KVtDSDJdQzQoW0NIMl1bT0hdKVtDSDJdW09IXQ==

> <s_epik_cmdline>
J2VwaWtfcHl0aG9uJywgJy1waCcsICc3LjAnLCAnLXRuJywgJzgnLCAnLW1hJywgJzIwMCcsICctbWV0YWxfYmluZGluZycsICctaW1hZScsICc8aW5maWxlLm1hZT4nLCAnLW9tYWUnLCAnPG91dGZpbGUubWFlPic=

> <r_lp_tautomer_probability>
1

> <r_epik_Ionization_Penalty>
0.000102837

> <r_epik_Ionization_Penalty_Charging>
0

> <r_epik_Ionization_Penalty_Neutral>
0.000102837

> <r_epik_State_Penalty>
-0

> <r_epik_Charging_Adjusted_Penalty>
0

> <i_epik_Tot_Q>
0

> <i_epik_Tot_abs_Q>
0

> <r_epik_Metal_State_Penalty>
-0

> <b_epik_Metal_Only>
0

> <s_lp_Force_Field>
OPLS_2005

> <r_lp_Energy>
49.3626

> <b_lp_Chiralities_Consistent>
1

> <s_lp_Variant>
AV-unprocessed.smi:151-2

> <Gold.Version>
5.8.1

> <Gold.Id.Protein>
6NUR|6NUR_protein|mol2

> <Gold.PLP.Fitness>
46.7318

> <Gold.PLP.PLP>
-38.1773

> <Gold.PLP.part.hbond>
-3.7824

> <Gold.PLP.part.metal>
0.0000

> <Gold.PLP.part.buried>
-3.8372

> <Gold.PLP.part.nonpolar>
-31.6289

> <Gold.PLP.part.repulsive>
0.5828

> <Gold.PLP.ligand.clash>
0.0000

> <Gold.PLP.ligand.torsion>
1.4511

> <Gold.PLP.Chemscore.Hbond>
2.6413

> <Gold.PLP.Chemscore.CHOScore>
1.0000

> <Gold.PLP.Chemscore.Metal>
0.0000

> <Gold.Chemscore.Hbonds>
donor molecule, donor type, donor heavy atom, donor atom, acceptor molecule, acceptor atom, score
      L1  H    24    51       P1 10747  1.00
      L1  H    26    54       P1 10186  0.60
      P1  H 10785 10796       L1    26  0.94
      L1  C    18    45       P1 10171  1.00

> <Gold.PLP.Chemscore.Internal.Correction>
0.5331

> <Gold.Rescore>
     Score         DG    S(hbond)    S(metal)    S(lipo)     H(rot)  DE(clash)    DE(int)     intcor
     13.96     -15.25       2.54        0.00      82.32       3.26       0.03       1.26       ----

> <Gold.Chemscore.Fitness>
13.9567

> <Gold.Chemscore.DG>
-15.2509

> <Gold.Chemscore.ZeroCoef>
-5.4800

> <Gold.Chemscore.Hbond>
2.5403

> <Gold.Chemscore.Metal>
0.0000

> <Gold.Chemscore.Lipo>
82.3159

> <Gold.Chemscore.Internal_Hbond>
0.0000

> <Gold.Chemscore.DEClash>
0.0310

> <Gold.Chemscore.DEInternal>
1.2633

> <Gold.Chemscore.Rot>
3.2596

> <Gold.Chemscore.Internal.Correction>
   9.000000E+99

> <Gold.Chemscore.Hbonds>
donor molecule, donor type, donor heavy atom, donor atom, acceptor molecule, acceptor atom, score
      L1  H    24    51       P1 10747  1.00
      L1  H    26    54       P1 10186  0.60
      P1  H 10785 10796       L1    26  0.70

> <Gold.Chemscore.Hbond.Weighted>
-8.4846

> <Gold.Chemscore.Metal.Weighted>
-0.0000

> <Gold.Chemscore.Lipo.Weighted>
-9.6310

> <Gold.Chemscore.Internal_Hbond.Weighted>
0.0000

> <Gold.Chemscore.DEClash.Weighted>
0.0310

> <Gold.Chemscore.DEInternal.Weighted>
1.2633

> <Gold.Chemscore.Rot.Weighted>
8.3447

> <Gold.Chemscore.Internal.Correction.Weighted>
   9.000000E+99

> <Gold.Protein.RotatedTorsions>
[ 6907 6896 6895 6894 ] final  -79.76 input  -60.11 | X-H torsion
[ 7974 7965 7964 7962 ] final -116.23 input  175.53 | X-H torsion
[ 8008 7997 7996 7995 ] final   75.60 input   59.86 | X-H torsion
[ 10167 10162 10161 10158 ] final  137.62 input  -65.29 | X-H torsion
[ 10718 10713 10712 10709 ] final  147.39 input   66.30 | X-H torsion
[ 10763 10752 10751 10750 ] final   50.10 input  -60.55 | X-H torsion
[ 11005 11000 10999 10996 ] final   92.84 input  -57.11 | X-H torsion

> <Gold.Protein.ActiveResidues>
 VAL166  LYS551  ARG553  GLY616  TRP617  ASP618  TYR619  PRO620  LYS621  CYS622 
 ASP623  PHE694  ASN695  SER759  ASP760  ASP761  ALA762  ILE779  LEU786  VAL792 
 PHE793  MET794  SER795  GLU796  ALA797  LYS798  CYS799  TRP800  GLU811  SER814 

> <Gold.Protein.RotatedAtoms>
  150.6943  134.4073  159.5145 H   0  0  0  0  0  0  0  0  0  0  0  0  # atno 6907 bound_to 6896
  152.1837  134.8729  160.0533 H   0  0  0  0  0  0  0  0  0  0  0  0  # atno 6908 bound_to 6896
  151.9711  133.3691  159.4108 H   0  0  0  0  0  0  0  0  0  0  0  0  # atno 6909 bound_to 6896
  145.0991  140.8540  143.3937 H   0  0  0  0  0  0  0  0  0  0  0  0  # atno 7974 bound_to 7965
  155.8153  140.3472  155.5482 H   0  0  0  0  0  0  0  0  0  0  0  0  # atno 8008 bound_to 7997
  155.8398  140.0940  157.1761 H   0  0  0  0  0  0  0  0  0  0  0  0  # atno 8009 bound_to 7997
  154.4005  140.1396  156.3703 H   0  0  0  0  0  0  0  0  0  0  0  0  # atno 8010 bound_to 7997
  139.5138  144.6400  151.5595 H   0  0  0  0  0  0  0  0  0  0  0  0  # atno 10167 bound_to 10162
  157.3216  131.0905  151.1236 H   0  0  0  0  0  0  0  0  0  0  0  0  # atno 10718 bound_to 10713
  152.9785  135.5890  154.4197 H   0  0  0  0  0  0  0  0  0  0  0  0  # atno 10763 bound_to 10752
  154.3823  135.2767  155.2206 H   0  0  0  0  0  0  0  0  0  0  0  0  # atno 10764 bound_to 10752
  154.4114  135.6080  153.6010 H   0  0  0  0  0  0  0  0  0  0  0  0  # atno 10765 bound_to 10752
  139.8818  134.8756  156.3631 H   0  0  0  0  0  0  0  0  0  0  0  0  # atno 11005 bound_to 11000
  145.0976  139.2845  143.5703 LP  0  0  0  0  0  0  0  0  0  0  0  0  # atno 17320 bound_to 7965
  146.3530  140.0533  142.8634 LP  0  0  0  0  0  0  0  0  0  0  0  0  # atno 17321 bound_to 7965
  140.6163  143.9343  150.6491 LP  0  0  0  0  0  0  0  0  0  0  0  0  # atno 17342 bound_to 10162
  140.2601  143.3530  152.1330 LP  0  0  0  0  0  0  0  0  0  0  0  0  # atno 17343 bound_to 10162
  157.2519  130.6618  149.5935 LP  0  0  0  0  0  0  0  0  0  0  0  0  # atno 17370 bound_to 10713
  155.9686  130.4536  150.5817 LP  0  0  0  0  0  0  0  0  0  0  0  0  # atno 17371 bound_to 10713
  140.9516  133.7447  156.0279 LP  0  0  0  0  0  0  0  0  0  0  0  0  # atno 17394 bound_to 11000
  140.8099  134.3411  157.5415 LP  0  0  0  0  0  0  0  0  0  0  0  0  # atno 17395 bound_to 11000

$$$$
