AV-unprocessed.smi:703|AV-procd|sdf|3428|dock1
  -GOLD-   22720 0413D 1   1.00000     0.00000
 Structure written by MMmdl.
 38 39  0  0  0  0  0  0  0  0  2 V2000
  143.6897  132.6984  148.2484 C   0  0  0  0  0  0  0  0  0  0  0  0
  144.6834  132.4326  149.3873 C   0  0  0  0  0  0  0  0  0  0  0  0
  145.3229  133.6769  149.8759 N   0  3  1  0  0  0  0  0  0  0  0  0
  144.4027  134.6518  150.4983 C   0  0  0  0  0  0  0  0  0  0  0  0
  145.2636  135.4984  151.4397 C   0  0  2  0  0  0  0  0  0  0  0  0
  145.8977  136.6961  150.7131 C   0  0  0  0  0  0  0  0  0  0  0  0
  146.3150  134.4990  151.9404 C   0  0  1  0  0  0  0  0  0  0  0  0
  145.8538  133.8715  153.1833 N   0  0  0  0  0  0  0  0  0  0  0  0
  147.0399  133.3596  154.3273 S   0  0  0  0  0  0  0  0  0  0  0  0
  147.7176  134.5611  154.8387 O   0  0  0  0  0  0  0  0  0  0  0  0
  146.3780  132.4373  155.2619 O   0  0  0  0  0  0  0  0  0  0  0  0
  148.2273  132.4154  153.2824 C   0  0  0  0  0  0  0  0  0  0  0  0
  149.3304  131.8738  154.1452 C   0  0  0  0  0  0  0  0  0  0  0  0
  149.7866  130.5315  154.2567 C   0  0  0  0  0  0  0  0  0  0  0  0
  150.7980  130.6139  155.1698 C   0  0  0  0  0  0  0  0  0  0  0  0
  150.9536  131.8939  155.5922 O   0  0  0  0  0  0  0  0  0  0  0  0
  150.0105  132.6908  154.9334 N   0  0  0  0  0  0  0  0  0  0  0  0
  146.4456  133.4547  150.8159 C   0  0  0  0  0  0  0  0  0  0  0  0
  143.2789  131.7618  147.8707 H   0  0  0  0  0  0  0  0  0  0  0  0
  144.1730  133.2077  147.4141 H   0  0  0  0  0  0  0  0  0  0  0  0
  142.8518  133.3125  148.5791 H   0  0  0  0  0  0  0  0  0  0  0  0
  144.1883  131.9185  150.2124 H   0  0  0  0  0  0  0  0  0  0  0  0
  145.4617  131.7617  149.0209 H   0  0  0  0  0  0  0  0  0  0  0  0
  143.8780  135.2479  149.7507 H   0  0  0  0  0  0  0  0  0  0  0  0
  143.6510  134.1185  151.0827 H   0  0  0  0  0  0  0  0  0  0  0  0
  144.6589  135.8888  152.2600 H   0  0  0  0  0  0  0  0  0  0  0  0
  146.5168  136.3766  149.8740 H   0  0  0  0  0  0  0  0  0  0  0  0
  146.5291  137.2729  151.3897 H   0  0  0  0  0  0  0  0  0  0  0  0
  145.1328  137.3695  150.3252 H   0  0  0  0  0  0  0  0  0  0  0  0
  147.2670  134.9944  152.1377 H   0  0  0  0  0  0  0  0  0  0  0  0
  145.1400  134.4425  153.6361 H   0  0  0  0  0  0  0  0  0  0  0  0
  147.6852  131.6158  152.7771 H   0  0  0  0  0  0  0  0  0  0  0  0
  148.6233  133.0849  152.5193 H   0  0  0  0  0  0  0  0  0  0  0  0
  149.4320  129.6494  153.7448 H   0  0  0  0  0  0  0  0  0  0  0  0
  151.4691  129.8866  155.6020 H   0  0  0  0  0  0  0  0  0  0  0  0
  146.4424  132.4363  151.2084 H   0  0  0  0  0  0  0  0  0  0  0  0
  147.3820  133.5857  150.2729 H   0  0  0  0  0  0  0  0  0  0  0  0
  145.7271  134.1406  149.0745 H   0  0  0  0  0  0  0  0  0  0  0  0
  1  2  1  0  0  0  0
  1 19  1  0  0  0  0
  1 20  1  0  0  0  0
  1 21  1  0  0  0  0
  2  3  1  0  0  0  0
  2 22  1  0  0  0  0
  2 23  1  0  0  0  0
  3 18  1  0  0  0  0
  3  4  1  0  0  0  0
  3 38  1  0  0  0  0
  4  5  1  0  0  0  0
  4 24  1  0  0  0  0
  4 25  1  0  0  0  0
  5  6  1  0  0  0  0
  5  7  1  0  0  0  0
  5 26  1  0  0  0  0
  6 27  1  0  0  0  0
  6 28  1  0  0  0  0
  6 29  1  0  0  0  0
  7  8  1  0  0  0  0
  7 18  1  0  0  0  0
  7 30  1  0  0  0  0
  8  9  1  0  0  0  0
  8 31  1  0  0  0  0
  9 10  2  0  0  0  0
  9 11  2  0  0  0  0
  9 12  1  0  0  0  0
 12 13  1  0  0  0  0
 12 32  1  0  0  0  0
 12 33  1  0  0  0  0
 13 17  2  0  0  0  0
 13 14  1  0  0  0  0
 14 15  2  0  0  0  0
 14 34  1  0  0  0  0
 15 16  1  0  0  0  0
 15 35  1  0  0  0  0
 16 17  1  0  0  0  0
 18 36  1  0  0  0  0
 18 37  1  0  0  0  0
M  CHG  1   3   1
M  END
> <s_m_source_file>
AV-unprocessed.smi

> <i_m_source_file_index>
703

> <i_lp_mmshare_version>
43012

> <i_f3d_flags>
0

> <s_epik_input>
W0NIM11bQ0gyXU4xW0NIMl1bQ0BASF0oW0NIM10pW0NASF0oW0NIMl0xKVtOSF1TKD1PKSg9TylbQ0gyXWMyW2NIXVtjSF1vbjI=

> <s_epik_cmdline>
J2VwaWtfcHl0aG9uJywgJy1waCcsICc3LjAnLCAnLXRuJywgJzgnLCAnLW1hJywgJzIwMCcsICctbWV0YWxfYmluZGluZycsICctaW1hZScsICc8aW5maWxlLm1hZT4nLCAnLW9tYWUnLCAnPG91dGZpbGUubWFlPic=

> <r_epik_Ionization_Penalty>
0.00324529

> <r_epik_Ionization_Penalty_Charging>
0.0019384

> <r_epik_Ionization_Penalty_Neutral>
0.00130689

> <r_epik_State_Penalty>
0.00218682

> <r_epik_Charging_Adjusted_Penalty>
0.00412522

> <i_epik_Tot_Q>
1

> <i_epik_Tot_abs_Q>
1

> <r_epik_Metal_State_Penalty>
0.310831

> <b_epik_Metal_Only>
0

> <s_lp_Force_Field>
OPLS_2005

> <r_lp_Energy>
19.6453

> <b_lp_Chiralities_Consistent>
1

> <s_lp_Variant>
AV-unprocessed.smi:703-3

> <Gold.Version>
5.8.1

> <Gold.Id.Protein>
6NUR|6NUR_protein|mol2

> <Gold.PLP.Fitness>
33.4619

> <Gold.PLP.PLP>
-31.6625

> <Gold.PLP.part.hbond>
-1.0000

> <Gold.PLP.part.metal>
0.0000

> <Gold.PLP.part.buried>
-0.7894

> <Gold.PLP.part.nonpolar>
-29.5062

> <Gold.PLP.part.repulsive>
0.2999

> <Gold.PLP.ligand.clash>
0.0000

> <Gold.PLP.ligand.torsion>
0.6997

> <Gold.PLP.Chemscore.Hbond>
1.0000

> <Gold.PLP.Chemscore.CHOScore>
0.0000

> <Gold.PLP.Chemscore.Metal>
0.0000

> <Gold.Chemscore.Hbonds>
donor molecule, donor type, donor heavy atom, donor atom, acceptor molecule, acceptor atom, score
      L1  H     3    38       P1  7921  1.00

> <Gold.PLP.Chemscore.Internal.Correction>
0.1988

> <Gold.Rescore>
     Score         DG    S(hbond)    S(metal)    S(lipo)     H(rot)  DE(clash)    DE(int)     intcor
     11.36     -12.47       0.82        0.00      78.77       1.94       0.40       0.70       ----

> <Gold.Chemscore.Fitness>
11.3612

> <Gold.Chemscore.DG>
-12.4707

> <Gold.Chemscore.ZeroCoef>
-5.4800

> <Gold.Chemscore.Hbond>
0.8208

> <Gold.Chemscore.Metal>
0.0000

> <Gold.Chemscore.Lipo>
78.7683

> <Gold.Chemscore.Internal_Hbond>
0.0000

> <Gold.Chemscore.DEClash>
0.4048

> <Gold.Chemscore.DEInternal>
0.7047

> <Gold.Chemscore.Rot>
1.9400

> <Gold.Chemscore.Internal.Correction>
   9.000000E+99

> <Gold.Chemscore.Hbonds>
donor molecule, donor type, donor heavy atom, donor atom, acceptor molecule, acceptor atom, score
      L1  H     3    38       P1  7921  0.60

> <Gold.Chemscore.Hbond.Weighted>
-2.7413

> <Gold.Chemscore.Metal.Weighted>
-0.0000

> <Gold.Chemscore.Lipo.Weighted>
-9.2159

> <Gold.Chemscore.Internal_Hbond.Weighted>
0.0000

> <Gold.Chemscore.DEClash.Weighted>
0.4048

> <Gold.Chemscore.DEInternal.Weighted>
0.7047

> <Gold.Chemscore.Rot.Weighted>
4.9665

> <Gold.Chemscore.Internal.Correction.Weighted>
   9.000000E+99

> <Gold.Protein.RotatedTorsions>
[ 6907 6896 6895 6894 ] final   98.66 input  -60.11 | X-H torsion
[ 7974 7965 7964 7962 ] final  -59.38 input  175.53 | X-H torsion
[ 8008 7997 7996 7995 ] final   54.48 input   59.86 | X-H torsion
[ 10167 10162 10161 10158 ] final   20.75 input  -65.29 | X-H torsion
[ 10718 10713 10712 10709 ] final  104.40 input   66.30 | X-H torsion
[ 10763 10752 10751 10750 ] final -105.29 input  -60.55 | X-H torsion
[ 11005 11000 10999 10996 ] final   48.87 input  -57.11 | X-H torsion

> <Gold.Protein.ActiveResidues>
 VAL166  LYS551  ARG553  GLY616  TRP617  ASP618  TYR619  PRO620  LYS621  CYS622 
 ASP623  PHE694  ASN695  SER759  ASP760  ASP761  ALA762  ILE779  LEU786  VAL792 
 PHE793  MET794  SER795  GLU796  ALA797  LYS798  CYS799  TRP800  GLU811  SER814 

> <Gold.Protein.RotatedAtoms>
  152.5405  134.0547  159.8125 H   0  0  0  0  0  0  0  0  0  0  0  0  # atno 6907 bound_to 6896
  151.0683  133.5479  159.2636 H   0  0  0  0  0  0  0  0  0  0  0  0  # atno 6908 bound_to 6896
  151.2352  135.0577  159.9057 H   0  0  0  0  0  0  0  0  0  0  0  0  # atno 6909 bound_to 6896
  145.8281  140.8497  143.0097 H   0  0  0  0  0  0  0  0  0  0  0  0  # atno 7974 bound_to 7965
  155.4854  140.3470  155.4346 H   0  0  0  0  0  0  0  0  0  0  0  0  # atno 8008 bound_to 7997
  156.1012  140.1436  156.9493 H   0  0  0  0  0  0  0  0  0  0  0  0  # atno 8009 bound_to 7997
  154.4695  140.0906  156.7085 H   0  0  0  0  0  0  0  0  0  0  0  0  # atno 8010 bound_to 7997
  140.5480  143.9560  150.6560 H   0  0  0  0  0  0  0  0  0  0  0  0  # atno 10167 bound_to 10162
  157.6741  131.0803  150.5700 H   0  0  0  0  0  0  0  0  0  0  0  0  # atno 10718 bound_to 10713
  154.7937  135.4754  154.0110 H   0  0  0  0  0  0  0  0  0  0  0  0  # atno 10763 bound_to 10752
  153.1669  135.6818  153.8669 H   0  0  0  0  0  0  0  0  0  0  0  0  # atno 10764 bound_to 10752
  153.8264  135.3197  155.3393 H   0  0  0  0  0  0  0  0  0  0  0  0  # atno 10765 bound_to 10752
  140.1153  134.4901  155.8643 H   0  0  0  0  0  0  0  0  0  0  0  0  # atno 11005 bound_to 11000
  144.6742  140.0632  143.7475 LP  0  0  0  0  0  0  0  0  0  0  0  0  # atno 17320 bound_to 7965
  145.9601  139.2794  143.1161 LP  0  0  0  0  0  0  0  0  0  0  0  0  # atno 17321 bound_to 7965
  140.2978  143.3280  152.1000 LP  0  0  0  0  0  0  0  0  0  0  0  0  # atno 17342 bound_to 10162
  139.5015  144.6715  151.6231 LP  0  0  0  0  0  0  0  0  0  0  0  0  # atno 17343 bound_to 10162
  156.6001  130.4352  149.5900 LP  0  0  0  0  0  0  0  0  0  0  0  0  # atno 17370 bound_to 10713
  156.2513  130.6909  151.1647 LP  0  0  0  0  0  0  0  0  0  0  0  0  # atno 17371 bound_to 10713
  141.2140  133.6741  156.6784 LP  0  0  0  0  0  0  0  0  0  0  0  0  # atno 17394 bound_to 11000
  140.3037  134.8143  157.4119 LP  0  0  0  0  0  0  0  0  0  0  0  0  # atno 17395 bound_to 11000

$$$$
