AV-unprocessed.smi:215|AV-procd|sdf|1656|dock10
  -GOLD-   2262020 53D 1   1.00000     0.00000
 Structure written by MMmdl.
 59 62  0  0  0  0  0  0  0  0  2 V2000
  151.6505  140.2562  158.3426 C   0  0  0  0  0  0  0  0  0  0  0  0
  152.7514  140.5365  159.3790 C   0  0  2  0  0  0  0  0  0  0  0  0
  153.1776  142.0079  159.4450 C   0  0  1  0  0  0  0  0  0  0  0  0
  152.1870  142.9444  160.0546 N   0  3  1  0  0  0  0  0  0  0  0  0
  152.3136  143.1461  161.5219 C   0  0  0  0  0  0  0  0  0  0  0  0
  152.0887  144.2256  159.3065 C   0  0  0  0  0  0  0  0  0  0  0  0
  151.3323  144.0741  157.9759 C   0  0  0  0  0  0  0  0  0  0  0  0
  149.9513  144.2854  158.1796 O   0  0  0  0  0  0  0  0  0  0  0  0
  154.5322  141.9154  160.1528 C   0  0  0  0  0  0  0  0  0  0  0  0
  155.1154  140.6064  159.6063 C   0  0  0  0  0  0  0  0  0  0  0  0
  153.9924  139.8258  159.0841 N   0  0  0  0  0  0  0  0  0  0  0  0
  153.9790  138.5113  159.4029 C   0  0  0  0  0  0  0  0  0  0  0  0
  153.7693  137.5769  158.4383 N   0  0  0  0  0  0  0  0  0  0  0  0
  153.7756  136.2790  158.7568 C   0  0  0  0  0  0  0  0  0  0  0  0
  153.9746  135.7135  159.9493 N   0  0  0  0  0  0  0  0  0  0  0  0
  154.1921  136.6499  160.9180 C   0  0  0  0  0  0  0  0  0  0  0  0
  154.2106  138.0599  160.7283 C   0  0  0  0  0  0  0  0  0  0  0  0
  154.4646  138.7025  161.9324 N   0  0  0  0  0  0  0  0  0  0  0  0
  154.5889  137.7261  162.7896 C   0  0  0  0  0  0  0  0  0  0  0  0
  154.4416  136.4590  162.2683 N   0  0  0  0  0  0  0  0  0  0  0  0
  154.5326  135.2232  162.9954 C   0  0  0  0  0  0  0  0  0  0  0  0
  154.8104  135.2000  164.5012 C   0  0  0  0  0  0  0  0  0  0  0  0
  155.5903  133.8757  164.3242 C   0  0  0  0  0  0  0  0  0  0  0  0
  156.8844  133.7252  165.1485 C   0  0  0  0  0  0  0  0  0  0  0  0
  156.6545  133.8030  166.5413 O   0  0  0  0  0  0  0  0  0  0  0  0
  154.7429  132.6132  164.5711 C   0  0  0  0  0  0  0  0  0  0  0  0
  155.2964  131.4801  163.9328 O   0  0  0  0  0  0  0  0  0  0  0  0
  155.7393  134.2937  162.8417 C   0  0  0  0  0  0  0  0  0  0  0  0
  152.4057  140.1998  160.3558 H   0  0  0  0  0  0  0  0  0  0  0  0
  153.3561  142.3352  158.4185 H   0  0  0  0  0  0  0  0  0  0  0  0
  150.7494  140.8277  158.5656 H   0  0  0  0  0  0  0  0  0  0  0  0
  151.3734  139.2018  158.3329 H   0  0  0  0  0  0  0  0  0  0  0  0
  151.9754  140.5240  157.3365 H   0  0  0  0  0  0  0  0  0  0  0  0
  153.2410  143.6555  161.7833 H   0  0  0  0  0  0  0  0  0  0  0  0
  152.2695  142.2067  162.0694 H   0  0  0  0  0  0  0  0  0  0  0  0
  151.4935  143.7542  161.9010 H   0  0  0  0  0  0  0  0  0  0  0  0
  151.6054  144.9756  159.9344 H   0  0  0  0  0  0  0  0  0  0  0  0
  153.0836  144.6157  159.0861 H   0  0  0  0  0  0  0  0  0  0  0  0
  151.7004  144.7557  157.2099 H   0  0  0  0  0  0  0  0  0  0  0  0
  151.4679  143.0639  157.5890 H   0  0  0  0  0  0  0  0  0  0  0  0
  149.5365  144.4051  157.3382 H   0  0  0  0  0  0  0  0  0  0  0  0
  155.1755  142.7740  159.9590 H   0  0  0  0  0  0  0  0  0  0  0  0
  154.4143  141.8200  161.2315 H   0  0  0  0  0  0  0  0  0  0  0  0
  155.7872  140.8176  158.7739 H   0  0  0  0  0  0  0  0  0  0  0  0
  155.7002  140.0860  160.3660 H   0  0  0  0  0  0  0  0  0  0  0  0
  153.5976  135.5948  157.9401 H   0  0  0  0  0  0  0  0  0  0  0  0
  154.7943  137.9073  163.8348 H   0  0  0  0  0  0  0  0  0  0  0  0
  153.6147  134.6719  162.7819 H   0  0  0  0  0  0  0  0  0  0  0  0
  155.4299  136.0353  164.8292 H   0  0  0  0  0  0  0  0  0  0  0  0
  153.9155  135.1230  165.1193 H   0  0  0  0  0  0  0  0  0  0  0  0
  157.3661  132.7689  164.9427 H   0  0  0  0  0  0  0  0  0  0  0  0
  157.6052  134.5022  164.8931 H   0  0  0  0  0  0  0  0  0  0  0  0
  156.1442  134.5781  166.7191 H   0  0  0  0  0  0  0  0  0  0  0  0
  154.6519  132.4049  165.6377 H   0  0  0  0  0  0  0  0  0  0  0  0
  153.7262  132.7407  164.1989 H   0  0  0  0  0  0  0  0  0  0  0  0
  156.2340  131.4968  164.0499 H   0  0  0  0  0  0  0  0  0  0  0  0
  155.5933  133.4898  162.1199 H   0  0  0  0  0  0  0  0  0  0  0  0
  156.6640  134.8323  162.6322 H   0  0  0  0  0  0  0  0  0  0  0  0
  151.2937  142.4937  159.9143 H   0  0  0  0  0  0  0  0  0  0  0  0
  1  2  1  0  0  0  0
  1 31  1  0  0  0  0
  1 32  1  0  0  0  0
  1 33  1  0  0  0  0
  2 29  1  0  0  0  0
  2 11  1  0  0  0  0
  2  3  1  0  0  0  0
  3 30  1  0  0  0  0
  3  4  1  0  0  0  0
  3  9  1  0  0  0  0
  4  5  1  0  0  0  0
  4  6  1  0  0  0  0
  4 59  1  0  0  0  0
  5 34  1  0  0  0  0
  5 35  1  0  0  0  0
  5 36  1  0  0  0  0
  6  7  1  0  0  0  0
  6 37  1  0  0  0  0
  6 38  1  0  0  0  0
  7  8  1  0  0  0  0
  7 39  1  0  0  0  0
  7 40  1  0  0  0  0
  8 41  1  0  0  0  0
  9 10  1  0  0  0  0
  9 42  1  0  0  0  0
  9 43  1  0  0  0  0
 10 11  1  0  0  0  0
 10 44  1  0  0  0  0
 10 45  1  0  0  0  0
 11 12  1  0  0  0  0
 12 17  1  0  0  0  0
 12 13  2  0  0  0  0
 13 14  1  0  0  0  0
 14 15  2  0  0  0  0
 14 46  1  0  0  0  0
 15 16  1  0  0  0  0
 16 20  1  0  0  0  0
 16 17  2  0  0  0  0
 17 18  1  0  0  0  0
 18 19  2  0  0  0  0
 19 20  1  0  0  0  0
 19 47  1  0  0  0  0
 20 21  1  0  0  0  0
 21 28  1  0  0  0  0
 21 22  1  0  0  0  0
 21 48  1  0  0  0  0
 22 23  1  0  0  0  0
 22 49  1  0  0  0  0
 22 50  1  0  0  0  0
 23 24  1  0  0  0  0
 23 26  1  0  0  0  0
 23 28  1  0  0  0  0
 24 25  1  0  0  0  0
 24 51  1  0  0  0  0
 24 52  1  0  0  0  0
 25 53  1  0  0  0  0
 26 27  1  0  0  0  0
 26 54  1  0  0  0  0
 26 55  1  0  0  0  0
 27 56  1  0  0  0  0
 28 57  1  0  0  0  0
 28 58  1  0  0  0  0
M  CHG  1   4   1
M  END
> <s_m_source_file>
AV-unprocessed.smi

> <i_m_source_file_index>
215

> <i_lp_mmshare_version>
43012

> <i_f3d_flags>
0

> <s_epik_input>
W09IXVtDSDJdW0NIMl1OKFtDSDNdKVtDQEBIXShbQ0BIXTFbQ0gzXSlbQ0gyXVtDSDJdTjFjKG5bY0hdbjIpYyhjMjMpbltjSF1uM1tDSF0oW0NIMl00KVtDSDJdQzQoW0NIMl1bT0hdKVtDSDJdW09IXQ==

> <s_epik_cmdline>
J2VwaWtfcHl0aG9uJywgJy1waCcsICc3LjAnLCAnLXRuJywgJzgnLCAnLW1hJywgJzIwMCcsICctbWV0YWxfYmluZGluZycsICctaW1hZScsICc8aW5maWxlLm1hZT4nLCAnLW9tYWUnLCAnPG91dGZpbGUubWFlPic=

> <r_lp_tautomer_probability>
1

> <r_epik_Ionization_Penalty>
0.0036237

> <r_epik_Ionization_Penalty_Charging>
0.0032725

> <r_epik_Ionization_Penalty_Neutral>
0.000351196

> <r_epik_State_Penalty>
-0

> <r_epik_Charging_Adjusted_Penalty>
0.0032725

> <i_epik_Tot_Q>
1

> <i_epik_Tot_abs_Q>
1

> <r_epik_Metal_State_Penalty>
-0

> <b_epik_Metal_Only>
0

> <s_lp_Force_Field>
OPLS_2005

> <r_lp_Energy>
69.5021

> <b_lp_Chiralities_Consistent>
1

> <s_lp_Variant>
AV-unprocessed.smi:215-7

> <Gold.Version>
5.8.1

> <Gold.Id.Protein>
6NUR|6NUR_protein|mol2

> <Gold.PLP.Fitness>
50.2659

> <Gold.PLP.PLP>
-45.0391

> <Gold.PLP.part.hbond>
-5.0000

> <Gold.PLP.part.metal>
0.0000

> <Gold.PLP.part.buried>
-3.9124

> <Gold.PLP.part.nonpolar>
-35.6062

> <Gold.PLP.part.repulsive>
0.0605

> <Gold.PLP.ligand.clash>
0.0000

> <Gold.PLP.ligand.torsion>
2.2133

> <Gold.PLP.Chemscore.Hbond>
3.0000

> <Gold.PLP.Chemscore.CHOScore>
0.0000

> <Gold.PLP.Chemscore.Metal>
0.0000

> <Gold.Chemscore.Hbonds>
donor molecule, donor type, donor heavy atom, donor atom, acceptor molecule, acceptor atom, score
      L1  H     8    41       P1  8028  0.75
      P1  H  6896  6909       L1    15  0.95
      P1  H  7997  8008       L1    11  0.14

> <Gold.PLP.Chemscore.Internal.Correction>
0.6533

> <Gold.Rescore>
     Score         DG    S(hbond)    S(metal)    S(lipo)     H(rot)  DE(clash)    DE(int)     intcor
      9.30     -12.41       1.56        0.00     119.98       4.81       0.20       2.90       ----

> <Gold.Chemscore.Fitness>
9.2987

> <Gold.Chemscore.DG>
-12.4077

> <Gold.Chemscore.ZeroCoef>
-5.4800

> <Gold.Chemscore.Hbond>
1.5579

> <Gold.Chemscore.Metal>
0.0000

> <Gold.Chemscore.Lipo>
119.9765

> <Gold.Chemscore.Internal_Hbond>
0.0000

> <Gold.Chemscore.DEClash>
0.2049

> <Gold.Chemscore.DEInternal>
2.9041

> <Gold.Chemscore.Rot>
4.8098

> <Gold.Chemscore.Internal.Correction>
   9.000000E+99

> <Gold.Chemscore.Hbonds>
donor molecule, donor type, donor heavy atom, donor atom, acceptor molecule, acceptor atom, score
      L1  H     8    41       P1  8028  0.09
      P1  H  6896  6909       L1    15  0.21

> <Gold.Chemscore.Hbond.Weighted>
-5.2035

> <Gold.Chemscore.Metal.Weighted>
-0.0000

> <Gold.Chemscore.Lipo.Weighted>
-14.0373

> <Gold.Chemscore.Internal_Hbond.Weighted>
0.0000

> <Gold.Chemscore.DEClash.Weighted>
0.2049

> <Gold.Chemscore.DEInternal.Weighted>
2.9041

> <Gold.Chemscore.Rot.Weighted>
12.3130

> <Gold.Chemscore.Internal.Correction.Weighted>
   9.000000E+99

> <Gold.Protein.RotatedTorsions>
[ 6907 6896 6895 6894 ] final -173.04 input  -60.11 | X-H torsion
[ 7974 7965 7964 7962 ] final  108.20 input  175.53 | X-H torsion
[ 8008 7997 7996 7995 ] final -113.15 input   59.86 | X-H torsion
[ 10167 10162 10161 10158 ] final  111.42 input  -65.29 | X-H torsion
[ 10718 10713 10712 10709 ] final   74.40 input   66.30 | X-H torsion
[ 10763 10752 10751 10750 ] final   82.13 input  -60.55 | X-H torsion
[ 11005 11000 10999 10996 ] final   37.10 input  -57.11 | X-H torsion

> <Gold.Protein.ActiveResidues>
 VAL166  LYS551  ARG553  GLY616  TRP617  ASP618  TYR619  PRO620  LYS621  CYS622 
 ASP623  PHE694  ASN695  SER759  ASP760  ASP761  ALA762  ILE779  LEU786  VAL792 
 PHE793  MET794  SER795  GLU796  ALA797  LYS798  CYS799  TRP800  GLU811  SER814 

> <Gold.Protein.RotatedAtoms>
  151.5497  133.3419  159.2950 H   0  0  0  0  0  0  0  0  0  0  0  0  # atno 6907 bound_to 6896
  150.8486  134.7806  159.7002 H   0  0  0  0  0  0  0  0  0  0  0  0  # atno 6908 bound_to 6896
  152.4538  134.5344  159.9872 H   0  0  0  0  0  0  0  0  0  0  0  0  # atno 6909 bound_to 6896
  145.2838  139.2623  143.3901 H   0  0  0  0  0  0  0  0  0  0  0  0  # atno 7974 bound_to 7965
  155.0163  140.0393  157.2419 H   0  0  0  0  0  0  0  0  0  0  0  0  # atno 8008 bound_to 7997
  154.7416  140.2750  155.6345 H   0  0  0  0  0  0  0  0  0  0  0  0  # atno 8009 bound_to 7997
  156.2865  140.2664  156.2145 H   0  0  0  0  0  0  0  0  0  0  0  0  # atno 8010 bound_to 7997
  139.6613  144.7128  151.1860 H   0  0  0  0  0  0  0  0  0  0  0  0  # atno 10167 bound_to 10162
  157.6590  130.9676  150.1206 H   0  0  0  0  0  0  0  0  0  0  0  0  # atno 10718 bound_to 10713
  153.1176  135.4739  154.9142 H   0  0  0  0  0  0  0  0  0  0  0  0  # atno 10763 bound_to 10752
  154.7544  135.3114  154.8500 H   0  0  0  0  0  0  0  0  0  0  0  0  # atno 10764 bound_to 10752
  153.9072  135.6869  153.4806 H   0  0  0  0  0  0  0  0  0  0  0  0  # atno 10765 bound_to 10752
  140.2260  134.3584  155.7984 H   0  0  0  0  0  0  0  0  0  0  0  0  # atno 11005 bound_to 11000
  146.3207  140.3312  142.8640 LP  0  0  0  0  0  0  0  0  0  0  0  0  # atno 17320 bound_to 7965
  144.9230  140.7890  143.5736 LP  0  0  0  0  0  0  0  0  0  0  0  0  # atno 17321 bound_to 7965
  140.7581  143.5990  150.8719 LP  0  0  0  0  0  0  0  0  0  0  0  0  # atno 17342 bound_to 10162
  139.9648  143.6123  152.2991 LP  0  0  0  0  0  0  0  0  0  0  0  0  # atno 17343 bound_to 10162
  156.2078  130.3664  149.8707 LP  0  0  0  0  0  0  0  0  0  0  0  0  # atno 17370 bound_to 10713
  156.6594  130.8776  151.3545 LP  0  0  0  0  0  0  0  0  0  0  0  0  # atno 17371 bound_to 10713
  141.2220  133.7219  156.8653 LP  0  0  0  0  0  0  0  0  0  0  0  0  # atno 17394 bound_to 11000
  140.1800  134.9040  157.2937 LP  0  0  0  0  0  0  0  0  0  0  0  0  # atno 17395 bound_to 11000

$$$$
