AV-unprocessed.smi:2414|AV-procd|sdf|9541|dock2
  -GOLD-   2272013173D 1   1.00000     0.00000
 Structure written by MMmdl.
 43 44  0  0  0  0  0  0  0  0  1 V2000
  151.8775  142.0855  158.6828 C   0  0  0  0  0  0  0  0  0  0  0  0
  151.3644  141.3947  157.4648 C   0  0  0  0  0  0  0  0  0  0  0  0
  150.7166  141.9585  156.3939 C   0  0  0  0  0  0  0  0  0  0  0  0
  150.3608  141.0414  155.4025 N   0  0  0  0  0  0  0  0  0  0  0  0
  150.7279  139.7926  155.7049 C   0  0  0  0  0  0  0  0  0  0  0  0
  150.4724  138.6128  154.8205 C   0  0  1  0  0  0  0  0  0  0  0  0
  151.7763  138.0689  154.2106 C   0  0  0  0  0  0  0  0  0  0  0  0
  149.6133  137.5458  155.5329 C   0  0  0  0  0  0  0  0  0  0  0  0
  148.9286  136.6601  154.5970 N   0  0  0  0  0  0  0  0  0  0  0  0
  147.8987  135.8616  154.9076 C   0  0  0  0  0  0  0  0  0  0  0  0
  147.4198  135.7598  156.0372 O   0  0  0  0  0  0  0  0  0  0  0  0
  147.4484  135.1962  153.8371 N   0  0  0  0  0  0  0  0  0  0  0  0
  146.3263  134.2648  153.8457 C   0  0  0  0  0  0  0  0  0  0  0  0
  146.1148  133.6105  152.4630 C   0  0  2  0  0  0  0  0  0  0  0  0
  147.3675  132.8620  151.9694 C   0  0  0  0  0  0  0  0  0  0  0  0
  145.6300  134.6445  151.4302 C   0  0  0  0  0  0  0  0  0  0  0  0
  144.1264  134.4752  151.4434 C   0  0  0  0  0  0  0  0  0  0  0  0
  144.0019  132.9763  151.6666 C   0  0  0  0  0  0  0  0  0  0  0  0
  145.0405  132.6742  152.5890 O   0  0  0  0  0  0  0  0  0  0  0  0
  151.5511  139.6728  157.2562 S   0  0  0  0  0  0  0  0  0  0  0  0
  151.2156  142.9008  158.9760 H   0  0  0  0  0  0  0  0  0  0  0  0
  152.8676  142.5033  158.5002 H   0  0  0  0  0  0  0  0  0  0  0  0
  151.9519  141.3957  159.5239 H   0  0  0  0  0  0  0  0  0  0  0  0
  150.4686  143.0005  156.2547 H   0  0  0  0  0  0  0  0  0  0  0  0
  149.8804  138.9891  153.9851 H   0  0  0  0  0  0  0  0  0  0  0  0
  152.3160  138.8545  153.6812 H   0  0  0  0  0  0  0  0  0  0  0  0
  151.5830  137.2701  153.4946 H   0  0  0  0  0  0  0  0  0  0  0  0
  152.4376  137.6718  154.9813 H   0  0  0  0  0  0  0  0  0  0  0  0
  150.2419  136.9300  156.1767 H   0  0  0  0  0  0  0  0  0  0  0  0
  148.8810  138.0238  156.1862 H   0  0  0  0  0  0  0  0  0  0  0  0
  149.2510  136.6717  153.6404 H   0  0  0  0  0  0  0  0  0  0  0  0
  147.9077  135.3448  152.9504 H   0  0  0  0  0  0  0  0  0  0  0  0
  146.5163  133.5030  154.6028 H   0  0  0  0  0  0  0  0  0  0  0  0
  145.4135  134.7842  154.1436 H   0  0  0  0  0  0  0  0  0  0  0  0
  148.2140  133.5410  151.8634 H   0  0  0  0  0  0  0  0  0  0  0  0
  147.1915  132.3972  150.9990 H   0  0  0  0  0  0  0  0  0  0  0  0
  147.6623  132.0681  152.6558 H   0  0  0  0  0  0  0  0  0  0  0  0
  145.9426  135.6644  151.6572 H   0  0  0  0  0  0  0  0  0  0  0  0
  146.0054  134.4026  150.4346 H   0  0  0  0  0  0  0  0  0  0  0  0
  143.6889  135.0208  152.2806 H   0  0  0  0  0  0  0  0  0  0  0  0
  143.6478  134.8117  150.5235 H   0  0  0  0  0  0  0  0  0  0  0  0
  143.0245  132.6846  152.0510 H   0  0  0  0  0  0  0  0  0  0  0  0
  144.1813  132.4338  150.7373 H   0  0  0  0  0  0  0  0  0  0  0  0
  1  2  1  0  0  0  0
  1 21  1  0  0  0  0
  1 22  1  0  0  0  0
  1 23  1  0  0  0  0
  2 20  1  0  0  0  0
  2  3  2  0  0  0  0
  3  4  1  0  0  0  0
  3 24  1  0  0  0  0
  4  5  2  0  0  0  0
  5  6  1  0  0  0  0
  5 20  1  0  0  0  0
  6  7  1  0  0  0  0
  6  8  1  0  0  0  0
  6 25  1  0  0  0  0
  7 26  1  0  0  0  0
  7 27  1  0  0  0  0
  7 28  1  0  0  0  0
  8  9  1  0  0  0  0
  8 29  1  0  0  0  0
  8 30  1  0  0  0  0
  9 10  1  0  0  0  0
  9 31  1  0  0  0  0
 10 11  2  0  0  0  0
 10 12  1  0  0  0  0
 12 13  1  0  0  0  0
 12 32  1  0  0  0  0
 13 14  1  0  0  0  0
 13 33  1  0  0  0  0
 13 34  1  0  0  0  0
 14 19  1  0  0  0  0
 14 15  1  0  0  0  0
 14 16  1  0  0  0  0
 15 35  1  0  0  0  0
 15 36  1  0  0  0  0
 15 37  1  0  0  0  0
 16 17  1  0  0  0  0
 16 38  1  0  0  0  0
 16 39  1  0  0  0  0
 17 18  1  0  0  0  0
 17 40  1  0  0  0  0
 17 41  1  0  0  0  0
 18 19  1  0  0  0  0
 18 42  1  0  0  0  0
 18 43  1  0  0  0  0
M  END
> <s_m_source_file>
AV-unprocessed.smi

> <i_m_source_file_index>
2414

> <i_lp_mmshare_version>
43012

> <i_f3d_flags>
0

> <s_epik_input>
W0NIM11jMVtjSF1uYyhzMSlbQ0BIXShbQ0gzXSlbQ0gyXVtOSF1DKD1PKVtOSF1bQ0gyXVtDQEBdMihbQ0gzXSlbQ0gyXVtDSDJdW0NIMl1PMg==

> <s_epik_cmdline>
J2VwaWtfcHl0aG9uJywgJy1waCcsICc3LjAnLCAnLXRuJywgJzgnLCAnLW1hJywgJzIwMCcsICctbWV0YWxfYmluZGluZycsICctaW1hZScsICc8aW5maWxlLm1hZT4nLCAnLW9tYWUnLCAnPG91dGZpbGUubWFlPic=

> <r_epik_Ionization_Penalty>
0.000646956

> <r_epik_Ionization_Penalty_Charging>
0

> <r_epik_Ionization_Penalty_Neutral>
0.000646956

> <r_epik_State_Penalty>
0.000375727

> <r_epik_Charging_Adjusted_Penalty>
0.000375727

> <i_epik_Tot_Q>
0

> <i_epik_Tot_abs_Q>
0

> <r_epik_Metal_State_Penalty>
-0

> <b_epik_Metal_Only>
0

> <s_lp_Force_Field>
OPLS_2005

> <r_lp_Energy>
8.05024

> <b_lp_Chiralities_Consistent>
1

> <s_lp_Variant>
AV-unprocessed.smi:2414-4

> <Gold.Version>
5.8.1

> <Gold.Id.Protein>
6NUR|6NUR_protein|mol2

> <Gold.PLP.Fitness>
42.0050

> <Gold.PLP.PLP>
-31.9958

> <Gold.PLP.part.hbond>
-3.0000

> <Gold.PLP.part.metal>
0.0000

> <Gold.PLP.part.buried>
-3.9718

> <Gold.PLP.part.nonpolar>
-25.3631

> <Gold.PLP.part.repulsive>
0.2261

> <Gold.PLP.ligand.clash>
0.0000

> <Gold.PLP.ligand.torsion>
0.3755

> <Gold.PLP.Chemscore.Hbond>
2.5302

> <Gold.PLP.Chemscore.CHOScore>
1.0000

> <Gold.PLP.Chemscore.Metal>
0.0000

> <Gold.Chemscore.Hbonds>
donor molecule, donor type, donor heavy atom, donor atom, acceptor molecule, acceptor atom, score
      L1  H     9    31       P1  7948  0.99
      L1  H    12    32       P1  7948  1.00
      P1  H  7989  7998       L1     4  0.11
      L1  C     3    24       P1  8028  1.00

> <Gold.PLP.Chemscore.Internal.Correction>
0.1696

> <Gold.Rescore>
     Score         DG    S(hbond)    S(metal)    S(lipo)     H(rot)  DE(clash)    DE(int)     intcor
     17.21     -17.48       1.95        0.00      83.00       1.65       0.01       0.26       ----

> <Gold.Chemscore.Fitness>
17.2139

> <Gold.Chemscore.DG>
-17.4784

> <Gold.Chemscore.ZeroCoef>
-5.4800

> <Gold.Chemscore.Hbond>
1.9513

> <Gold.Chemscore.Metal>
0.0000

> <Gold.Chemscore.Lipo>
82.9964

> <Gold.Chemscore.Internal_Hbond>
0.0000

> <Gold.Chemscore.DEClash>
0.0082

> <Gold.Chemscore.DEInternal>
0.2563

> <Gold.Chemscore.Rot>
1.6522

> <Gold.Chemscore.Internal.Correction>
   9.000000E+99

> <Gold.Chemscore.Hbonds>
donor molecule, donor type, donor heavy atom, donor atom, acceptor molecule, acceptor atom, score
      L1  H     9    31       P1  7948  0.91
      L1  H    12    32       P1  7948  0.98

> <Gold.Chemscore.Hbond.Weighted>
-6.5174

> <Gold.Chemscore.Metal.Weighted>
-0.0000

> <Gold.Chemscore.Lipo.Weighted>
-9.7106

> <Gold.Chemscore.Internal_Hbond.Weighted>
0.0000

> <Gold.Chemscore.DEClash.Weighted>
0.0082

> <Gold.Chemscore.DEInternal.Weighted>
0.2563

> <Gold.Chemscore.Rot.Weighted>
4.2295

> <Gold.Chemscore.Internal.Correction.Weighted>
   9.000000E+99

> <Gold.Protein.RotatedTorsions>
[ 6907 6896 6895 6894 ] final   90.02 input  -60.11 | X-H torsion
[ 7974 7965 7964 7962 ] final   17.97 input  175.53 | X-H torsion
[ 8008 7997 7996 7995 ] final   47.23 input   59.86 | X-H torsion
[ 10167 10162 10161 10158 ] final  101.23 input  -65.29 | X-H torsion
[ 10718 10713 10712 10709 ] final  101.53 input   66.30 | X-H torsion
[ 10763 10752 10751 10750 ] final  -54.47 input  -60.55 | X-H torsion
[ 11005 11000 10999 10996 ] final  158.18 input  -57.11 | X-H torsion

> <Gold.Protein.ActiveResidues>
 VAL166  LYS551  ARG553  GLY616  TRP617  ASP618  TYR619  PRO620  LYS621  CYS622 
 ASP623  PHE694  ASN695  SER759  ASP760  ASP761  ALA762  ILE779  LEU786  VAL792 
 PHE793  MET794  SER795  GLU796  ALA797  LYS798  CYS799  TRP800  GLU811  SER814 

> <Gold.Protein.RotatedAtoms>
  152.5441  134.1876  159.8660 H   0  0  0  0  0  0  0  0  0  0  0  0  # atno 6907 bound_to 6896
  151.1874  133.4681  159.2602 H   0  0  0  0  0  0  0  0  0  0  0  0  # atno 6908 bound_to 6896
  151.1117  135.0042  159.8552 H   0  0  0  0  0  0  0  0  0  0  0  0  # atno 6909 bound_to 6896
  146.2201  139.8525  142.8620 H   0  0  0  0  0  0  0  0  0  0  0  0  # atno 7974 bound_to 7965
  155.3656  140.3421  155.4242 H   0  0  0  0  0  0  0  0  0  0  0  0  # atno 8008 bound_to 7997
  156.1690  140.1625  156.8515 H   0  0  0  0  0  0  0  0  0  0  0  0  # atno 8009 bound_to 7997
  154.5214  140.0766  156.8161 H   0  0  0  0  0  0  0  0  0  0  0  0  # atno 8010 bound_to 7997
  139.7457  144.6999  151.0508 H   0  0  0  0  0  0  0  0  0  0  0  0  # atno 10167 bound_to 10162
  157.6827  131.0728  150.5266 H   0  0  0  0  0  0  0  0  0  0  0  0  # atno 10718 bound_to 10713
  154.1753  135.6452  153.5020 H   0  0  0  0  0  0  0  0  0  0  0  0  # atno 10763 bound_to 10752
  153.0073  135.5393  154.6570 H   0  0  0  0  0  0  0  0  0  0  0  0  # atno 10764 bound_to 10752
  154.5920  135.2935  155.0598 H   0  0  0  0  0  0  0  0  0  0  0  0  # atno 10765 bound_to 10752
  140.1841  134.8455  157.2837 H   0  0  0  0  0  0  0  0  0  0  0  0  # atno 11005 bound_to 11000
  145.2786  141.0131  143.3730 LP  0  0  0  0  0  0  0  0  0  0  0  0  # atno 17320 bound_to 7965
  144.9167  139.4461  143.6561 LP  0  0  0  0  0  0  0  0  0  0  0  0  # atno 17321 bound_to 7965
  140.7792  143.4870  150.9943 LP  0  0  0  0  0  0  0  0  0  0  0  0  # atno 17342 bound_to 10162
  139.8558  143.7378  152.3176 LP  0  0  0  0  0  0  0  0  0  0  0  0  # atno 17343 bound_to 10162
  156.5578  130.4248  149.6077 LP  0  0  0  0  0  0  0  0  0  0  0  0  # atno 17370 bound_to 10713
  156.2847  130.7090  151.1924 LP  0  0  0  0  0  0  0  0  0  0  0  0  # atno 17371 bound_to 10713
  140.2234  134.3996  155.7555 LP  0  0  0  0  0  0  0  0  0  0  0  0  # atno 17394 bound_to 11000
  141.2224  133.7177  156.8526 LP  0  0  0  0  0  0  0  0  0  0  0  0  # atno 17395 bound_to 11000

$$$$
