AV-unprocessed.smi:295|AV-procd|sdf|2255|dock10
  -GOLD-   2262022143D 1   1.00000     0.00000
 Structure written by MMmdl.
 35 36  0  0  0  0  0  0  0  0  1 V2000
  150.2566  142.3125  157.3490 C   0  0  0  0  0  0  0  0  0  0  0  0
  151.2168  143.0018  158.3335 C   0  0  1  0  0  0  0  0  0  0  0  0
  150.5138  143.3500  159.6618 C   0  0  0  0  0  0  0  0  0  0  0  0
  151.4556  144.0945  160.6220 C   0  0  0  0  0  0  0  0  0  0  0  0
  152.7416  143.2945  160.8786 C   0  0  0  0  0  0  0  0  0  0  0  0
  153.4499  142.9402  159.5591 C   0  0  0  0  0  0  0  0  0  0  0  0
  152.5190  142.1977  158.5790 C   0  0  1  0  0  0  0  0  0  0  0  0
  152.2420  140.8548  159.0906 N   0  0  0  0  0  0  0  0  0  0  0  0
  152.6219  139.6952  158.5306 C   0  0  0  0  0  0  0  0  0  0  0  0
  153.2254  139.6184  157.4611 O   0  0  0  0  0  0  0  0  0  0  0  0
  152.2595  138.4220  159.2973 C   0  0  0  0  0  0  0  0  0  0  0  0
  153.4482  137.7536  159.7963 N   0  0  0  0  0  0  0  0  0  0  0  0
  154.4115  138.1901  160.6150 C   0  0  0  0  0  0  0  0  0  0  0  0
  155.3708  137.3015  160.8416 N   0  0  0  0  0  0  0  0  0  0  0  0
  154.8938  136.2759  160.0777 C   0  0  0  0  0  0  0  0  0  0  0  0
  155.6062  135.0141  159.9702 C   0  0  0  0  0  0  0  0  0  0  0  0
  156.1734  134.0090  159.8848 N   0  0  0  0  0  0  0  0  0  0  0  0
  153.7491  136.4837  159.4303 N   0  0  0  0  0  0  0  0  0  0  0  0
  149.8590  141.3825  157.7559 H   0  0  0  0  0  0  0  0  0  0  0  0
  150.7594  142.0781  156.4103 H   0  0  0  0  0  0  0  0  0  0  0  0
  149.4088  142.9569  157.1155 H   0  0  0  0  0  0  0  0  0  0  0  0
  151.5103  143.9449  157.8697 H   0  0  0  0  0  0  0  0  0  0  0  0
  149.6359  143.9666  159.4666 H   0  0  0  0  0  0  0  0  0  0  0  0
  150.1484  142.4404  160.1400 H   0  0  0  0  0  0  0  0  0  0  0  0
  151.7100  145.0679  160.2006 H   0  0  0  0  0  0  0  0  0  0  0  0
  150.9452  144.2908  161.5653 H   0  0  0  0  0  0  0  0  0  0  0  0
  153.4138  143.8690  161.5166 H   0  0  0  0  0  0  0  0  0  0  0  0
  152.5029  142.3831  161.4279 H   0  0  0  0  0  0  0  0  0  0  0  0
  153.8054  143.8580  159.0890 H   0  0  0  0  0  0  0  0  0  0  0  0
  154.3389  142.3415  159.7623 H   0  0  0  0  0  0  0  0  0  0  0  0
  153.0511  142.1170  157.6296 H   0  0  0  0  0  0  0  0  0  0  0  0
  151.7390  140.8077  159.9645 H   0  0  0  0  0  0  0  0  0  0  0  0
  151.6122  138.6697  160.1393 H   0  0  0  0  0  0  0  0  0  0  0  0
  151.7050  137.7370  158.6540 H   0  0  0  0  0  0  0  0  0  0  0  0
  154.4143  139.1803  161.0470 H   0  0  0  0  0  0  0  0  0  0  0  0
  1  2  1  0  0  0  0
  1 19  1  0  0  0  0
  1 20  1  0  0  0  0
  1 21  1  0  0  0  0
  2  7  1  0  0  0  0
  2  3  1  0  0  0  0
  2 22  1  0  0  0  0
  3  4  1  0  0  0  0
  3 23  1  0  0  0  0
  3 24  1  0  0  0  0
  4  5  1  0  0  0  0
  4 25  1  0  0  0  0
  4 26  1  0  0  0  0
  5  6  1  0  0  0  0
  5 27  1  0  0  0  0
  5 28  1  0  0  0  0
  6  7  1  0  0  0  0
  6 29  1  0  0  0  0
  6 30  1  0  0  0  0
  7  8  1  0  0  0  0
  7 31  1  0  0  0  0
  8  9  1  0  0  0  0
  8 32  1  0  0  0  0
  9 10  2  0  0  0  0
  9 11  1  0  0  0  0
 11 12  1  0  0  0  0
 11 33  1  0  0  0  0
 11 34  1  0  0  0  0
 12 18  1  0  0  0  0
 12 13  1  0  0  0  0
 13 14  2  0  0  0  0
 13 35  1  0  0  0  0
 14 15  1  0  0  0  0
 15 16  1  0  0  0  0
 15 18  2  0  0  0  0
 16 17  3  0  0  0  0
M  END
> <s_m_source_file>
AV-unprocessed.smi

> <i_m_source_file_index>
295

> <i_lp_mmshare_version>
43012

> <i_f3d_flags>
0

> <s_epik_input>
W0NIM11bQ0BASF0xW0NIMl1bQ0gyXVtDSDJdW0NIMl1bQ0BIXTFbTkhdQyg9TylbQ0gyXW4yW2NIXW5jKG4yKUMjTg==

> <s_epik_cmdline>
J2VwaWtfcHl0aG9uJywgJy1waCcsICc3LjAnLCAnLXRuJywgJzgnLCAnLW1hJywgJzIwMCcsICctbWV0YWxfYmluZGluZycsICctaW1hZScsICc8aW5maWxlLm1hZT4nLCAnLW9tYWUnLCAnPG91dGZpbGUubWFlPic=

> <r_lp_tautomer_probability>
1

> <r_epik_Ionization_Penalty>
5.31112e-08

> <r_epik_Ionization_Penalty_Charging>
0

> <r_epik_Ionization_Penalty_Neutral>
5.31112e-08

> <r_epik_State_Penalty>
-0

> <r_epik_Charging_Adjusted_Penalty>
0

> <i_epik_Tot_Q>
0

> <i_epik_Tot_abs_Q>
0

> <r_epik_Metal_State_Penalty>
-0

> <b_epik_Metal_Only>
0

> <s_lp_Force_Field>
OPLS_2005

> <r_lp_Energy>
13.099

> <b_lp_Chiralities_Consistent>
1

> <s_lp_Variant>
AV-unprocessed.smi:295-2

> <Gold.Version>
5.8.1

> <Gold.Id.Protein>
6NUR|6NUR_protein|mol2

> <Gold.PLP.Fitness>
35.2205

> <Gold.PLP.PLP>
-29.3488

> <Gold.PLP.part.hbond>
-2.0000

> <Gold.PLP.part.metal>
0.0000

> <Gold.PLP.part.buried>
-5.1183

> <Gold.PLP.part.nonpolar>
-22.0862

> <Gold.PLP.part.repulsive>
0.1313

> <Gold.PLP.ligand.clash>
0.0000

> <Gold.PLP.ligand.torsion>
0.0687

> <Gold.PLP.Chemscore.Hbond>
2.0000

> <Gold.PLP.Chemscore.CHOScore>
0.0000

> <Gold.PLP.Chemscore.Metal>
0.0000

> <Gold.Chemscore.Hbonds>
donor molecule, donor type, donor heavy atom, donor atom, acceptor molecule, acceptor atom, score
      P1  H  6896  6907       L1    18  0.19
      P1  H  7997  8010       L1    10  0.84

> <Gold.PLP.Chemscore.Internal.Correction>
0.0091

> <Gold.Rescore>
     Score         DG    S(hbond)    S(metal)    S(lipo)     H(rot)  DE(clash)    DE(int)     intcor
     15.37     -15.50       1.98        0.00      71.64       1.95       0.02       0.11       ----

> <Gold.Chemscore.Fitness>
15.3661

> <Gold.Chemscore.DG>
-15.4983

> <Gold.Chemscore.ZeroCoef>
-5.4800

> <Gold.Chemscore.Hbond>
1.9825

> <Gold.Chemscore.Metal>
0.0000

> <Gold.Chemscore.Lipo>
71.6417

> <Gold.Chemscore.Internal_Hbond>
0.0000

> <Gold.Chemscore.DEClash>
0.0234

> <Gold.Chemscore.DEInternal>
0.1088

> <Gold.Chemscore.Rot>
1.9474

> <Gold.Chemscore.Internal.Correction>
   9.000000E+99

> <Gold.Chemscore.Hbonds>
donor molecule, donor type, donor heavy atom, donor atom, acceptor molecule, acceptor atom, score
      P1  H  6896  6907       L1    18  0.12
      P1  H  7997  8010       L1    10  0.82

> <Gold.Chemscore.Hbond.Weighted>
-6.6215

> <Gold.Chemscore.Metal.Weighted>
-0.0000

> <Gold.Chemscore.Lipo.Weighted>
-8.3821

> <Gold.Chemscore.Internal_Hbond.Weighted>
0.0000

> <Gold.Chemscore.DEClash.Weighted>
0.0234

> <Gold.Chemscore.DEInternal.Weighted>
0.1088

> <Gold.Chemscore.Rot.Weighted>
4.9852

> <Gold.Chemscore.Internal.Correction.Weighted>
   9.000000E+99

> <Gold.Protein.RotatedTorsions>
[ 6907 6896 6895 6894 ] final   22.02 input  -60.11 | X-H torsion
[ 7974 7965 7964 7962 ] final -177.27 input  175.53 | X-H torsion
[ 8008 7997 7996 7995 ] final   56.54 input   59.86 | X-H torsion
[ 10167 10162 10161 10158 ] final  -87.28 input  -65.29 | X-H torsion
[ 10718 10713 10712 10709 ] final -133.12 input   66.30 | X-H torsion
[ 10763 10752 10751 10750 ] final  -58.36 input  -60.55 | X-H torsion
[ 11005 11000 10999 10996 ] final -156.58 input  -57.11 | X-H torsion

> <Gold.Protein.ActiveResidues>
 VAL166  LYS551  ARG553  GLY616  TRP617  ASP618  TYR619  PRO620  LYS621  CYS622 
 ASP623  PHE694  ASN695  SER759  ASP760  ASP761  ALA762  ILE779  LEU786  VAL792 
 PHE793  MET794  SER795  GLU796  ALA797  LYS798  CYS799  TRP800  GLU811  SER814 

> <Gold.Protein.RotatedAtoms>
  151.9207  135.0299  160.0521 H   0  0  0  0  0  0  0  0  0  0  0  0  # atno 6907 bound_to 6896
  152.2202  133.4973  159.5166 H   0  0  0  0  0  0  0  0  0  0  0  0  # atno 6908 bound_to 6896
  150.6998  134.1270  159.4098 H   0  0  0  0  0  0  0  0  0  0  0  0  # atno 6909 bound_to 6896
  144.7127  140.1045  143.6414 H   0  0  0  0  0  0  0  0  0  0  0  0  # atno 7974 bound_to 7965
  155.5192  140.3479  155.4403 H   0  0  0  0  0  0  0  0  0  0  0  0  # atno 8008 bound_to 7997
  156.0796  140.1383  156.9756 H   0  0  0  0  0  0  0  0  0  0  0  0  # atno 8009 bound_to 7997
  154.4572  140.0949  156.6768 H   0  0  0  0  0  0  0  0  0  0  0  0  # atno 8010 bound_to 7997
  140.3860  143.2726  151.9324 H   0  0  0  0  0  0  0  0  0  0  0  0  # atno 10167 bound_to 10162
  156.2416  130.7099  151.0962 H   0  0  0  0  0  0  0  0  0  0  0  0  # atno 10718 bound_to 10713
  154.2368  135.6350  153.5194 H   0  0  0  0  0  0  0  0  0  0  0  0  # atno 10763 bound_to 10752
  152.9938  135.5532  154.5953 H   0  0  0  0  0  0  0  0  0  0  0  0  # atno 10764 bound_to 10752
  154.5449  135.2897  155.1036 H   0  0  0  0  0  0  0  0  0  0  0  0  # atno 10765 bound_to 10752
  140.6740  134.4216  157.5230 H   0  0  0  0  0  0  0  0  0  0  0  0  # atno 11005 bound_to 11000
  145.9509  139.2733  143.1213 LP  0  0  0  0  0  0  0  0  0  0  0  0  # atno 17320 bound_to 7965
  145.9324  140.9039  143.0349 LP  0  0  0  0  0  0  0  0  0  0  0  0  # atno 17321 bound_to 7965
  139.4792  144.5773  151.7990 LP  0  0  0  0  0  0  0  0  0  0  0  0  # atno 17342 bound_to 10162
  140.4889  144.1340  150.5946 LP  0  0  0  0  0  0  0  0  0  0  0  0  # atno 17343 bound_to 10162
  157.7177  131.0700  150.6260 LP  0  0  0  0  0  0  0  0  0  0  0  0  # atno 17370 bound_to 10713
  156.6334  130.4438  149.5778 LP  0  0  0  0  0  0  0  0  0  0  0  0  # atno 17371 bound_to 10713
  139.8972  134.8641  156.2053 LP  0  0  0  0  0  0  0  0  0  0  0  0  # atno 17394 bound_to 11000
  141.0369  133.6958  156.1529 LP  0  0  0  0  0  0  0  0  0  0  0  0  # atno 17395 bound_to 11000

$$$$
