AV-unprocessed.smi:926|AV-procd|sdf|4186|dock9
  -GOLD-   22720 2 93D 1   1.00000     0.00000
 Structure written by MMmdl.
 37 39  0  0  0  0  0  0  0  0  1 V2000
  150.5571  140.2132  154.2283 O   0  0  0  0  0  0  0  0  0  0  0  0
  151.0614  139.4454  155.0497 C   0  0  0  0  0  0  0  0  0  0  0  0
  151.6617  138.1016  154.6189 C   0  0  0  0  0  0  0  0  0  0  0  0
  151.1492  136.9813  155.3890 N   0  0  0  0  0  0  0  0  0  0  0  0
  149.9061  136.5227  155.5513 C   0  0  0  0  0  0  0  0  0  0  0  0
  149.8751  135.4645  156.3468 N   0  0  0  0  0  0  0  0  0  0  0  0
  151.2068  135.2836  156.6815 N   0  0  0  0  0  0  0  0  0  0  0  0
  151.9676  136.1805  156.1159 N   0  0  0  0  0  0  0  0  0  0  0  0
  151.1317  139.7203  156.3610 N   0  0  0  0  0  0  0  0  0  0  0  0
  150.6324  140.9390  156.9860 C   0  0  0  0  0  0  0  0  0  0  0  0
  151.7199  141.6291  157.8277 C   0  0  0  0  0  0  0  0  0  0  0  0
  151.4993  143.1469  157.9828 C   0  0  1  0  0  0  0  0  0  0  0  0
  150.2501  143.5183  158.8109 C   0  0  0  0  0  0  0  0  0  0  0  0
  150.8042  144.5206  159.8406 C   0  0  1  0  0  0  0  0  0  0  0  0
  151.6358  143.7592  160.8896 C   0  0  0  0  0  0  0  0  0  0  0  0
  152.9089  143.3884  160.1073 C   0  0  0  0  0  0  0  0  0  0  0  0
  152.6178  143.9448  158.6983 C   0  0  2  0  0  0  0  0  0  0  0  0
  151.8850  145.2382  159.0397 C   0  0  0  0  0  0  0  0  0  0  0  0
  151.4389  137.9273  153.5657 H   0  0  0  0  0  0  0  0  0  0  0  0
  152.7479  138.1363  154.7188 H   0  0  0  0  0  0  0  0  0  0  0  0
  149.0326  136.9628  155.0932 H   0  0  0  0  0  0  0  0  0  0  0  0
  151.5607  139.0377  156.9694 H   0  0  0  0  0  0  0  0  0  0  0  0
  150.2487  141.6131  156.2186 H   0  0  0  0  0  0  0  0  0  0  0  0
  149.7845  140.6748  157.6184 H   0  0  0  0  0  0  0  0  0  0  0  0
  151.7369  141.1774  158.8204 H   0  0  0  0  0  0  0  0  0  0  0  0
  152.7045  141.4333  157.4035 H   0  0  0  0  0  0  0  0  0  0  0  0
  151.3785  143.5668  156.9824 H   0  0  0  0  0  0  0  0  0  0  0  0
  149.4970  143.9875  158.1765 H   0  0  0  0  0  0  0  0  0  0  0  0
  149.7847  142.6573  159.2924 H   0  0  0  0  0  0  0  0  0  0  0  0
  150.0421  145.1688  160.2740 H   0  0  0  0  0  0  0  0  0  0  0  0
  151.8800  144.4015  161.7367 H   0  0  0  0  0  0  0  0  0  0  0  0
  151.1137  142.8821  161.2742 H   0  0  0  0  0  0  0  0  0  0  0  0
  153.7750  143.8905  160.5405 H   0  0  0  0  0  0  0  0  0  0  0  0
  153.1201  142.3198  160.1190 H   0  0  0  0  0  0  0  0  0  0  0  0
  153.5131  144.0826  158.0915 H   0  0  0  0  0  0  0  0  0  0  0  0
  151.4987  145.7642  158.1648 H   0  0  0  0  0  0  0  0  0  0  0  0
  152.4803  145.9301  159.6384 H   0  0  0  0  0  0  0  0  0  0  0  0
  1  2  2  0  0  0  0
  2  3  1  0  0  0  0
  2  9  1  0  0  0  0
  3  4  1  0  0  0  0
  3 19  1  0  0  0  0
  3 20  1  0  0  0  0
  4  8  1  0  0  0  0
  4  5  1  0  0  0  0
  5  6  2  0  0  0  0
  5 21  1  0  0  0  0
  6  7  1  0  0  0  0
  7  8  2  0  0  0  0
  9 10  1  0  0  0  0
  9 22  1  0  0  0  0
 10 11  1  0  0  0  0
 10 23  1  0  0  0  0
 10 24  1  0  0  0  0
 11 12  1  0  0  0  0
 11 25  1  0  0  0  0
 11 26  1  0  0  0  0
 12 17  1  0  0  0  0
 12 13  1  0  0  0  0
 12 27  1  0  0  0  0
 13 14  1  0  0  0  0
 13 28  1  0  0  0  0
 13 29  1  0  0  0  0
 14 18  1  0  0  0  0
 14 15  1  0  0  0  0
 14 30  1  0  0  0  0
 15 16  1  0  0  0  0
 15 31  1  0  0  0  0
 15 32  1  0  0  0  0
 16 17  1  0  0  0  0
 16 33  1  0  0  0  0
 16 34  1  0  0  0  0
 17 18  1  0  0  0  0
 17 35  1  0  0  0  0
 18 36  1  0  0  0  0
 18 37  1  0  0  0  0
M  END
> <s_m_source_file>
AV-unprocessed.smi

> <i_m_source_file_index>
926

> <i_lp_mmshare_version>
43012

> <i_f3d_flags>
0

> <s_epik_input>
bjFubltjSF1uMVtDSDJdQyg9TylbTkhdW0NIMl1bQ0gyXVtDQEhdKFtDSDJdW0NASF0yMylbQ0BIXShbQ0gyXTMpW0NIMl1bQ0gyXTI=

> <s_epik_cmdline>
J2VwaWtfcHl0aG9uJywgJy1waCcsICc3LjAnLCAnLXRuJywgJzgnLCAnLW1hJywgJzIwMCcsICctbWV0YWxfYmluZGluZycsICctaW1hZScsICc8aW5maWxlLm1hZT4nLCAnLW9tYWUnLCAnPG91dGZpbGUubWFlPic=

> <r_lp_tautomer_probability>
1

> <r_epik_Ionization_Penalty>
4.22645e-07

> <r_epik_Ionization_Penalty_Charging>
0

> <r_epik_Ionization_Penalty_Neutral>
4.22645e-07

> <r_epik_State_Penalty>
-0

> <r_epik_Charging_Adjusted_Penalty>
0

> <i_epik_Tot_Q>
0

> <i_epik_Tot_abs_Q>
0

> <r_epik_Metal_State_Penalty>
-0

> <b_epik_Metal_Only>
0

> <s_lp_Force_Field>
OPLS_2005

> <r_lp_Energy>
51.6894

> <b_lp_Chiralities_Consistent>
1

> <s_lp_Variant>
AV-unprocessed.smi:926-4

> <Gold.Version>
5.8.1

> <Gold.Id.Protein>
6NUR|6NUR_protein|mol2

> <Gold.PLP.Fitness>
44.7889

> <Gold.PLP.PLP>
-39.2733

> <Gold.PLP.part.hbond>
-2.1738

> <Gold.PLP.part.metal>
0.0000

> <Gold.PLP.part.buried>
-6.6491

> <Gold.PLP.part.nonpolar>
-31.0328

> <Gold.PLP.part.repulsive>
0.2137

> <Gold.PLP.ligand.clash>
0.0000

> <Gold.PLP.ligand.torsion>
0.2498

> <Gold.PLP.Chemscore.Hbond>
2.0000

> <Gold.PLP.Chemscore.CHOScore>
0.0000

> <Gold.PLP.Chemscore.Metal>
0.0000

> <Gold.Chemscore.Hbonds>
donor molecule, donor type, donor heavy atom, donor atom, acceptor molecule, acceptor atom, score
      P1  H  7989  7998       L1     1  0.80
      P1  H 10752 10764       L1     8  1.00

> <Gold.PLP.Chemscore.Internal.Correction>
0.0152

> <Gold.Rescore>
     Score         DG    S(hbond)    S(metal)    S(lipo)     H(rot)  DE(clash)    DE(int)     intcor
     16.16     -16.58       1.66        0.00     103.06       2.54       0.01       0.41       ----

> <Gold.Chemscore.Fitness>
16.1635

> <Gold.Chemscore.DG>
-16.5841

> <Gold.Chemscore.ZeroCoef>
-5.4800

> <Gold.Chemscore.Hbond>
1.6641

> <Gold.Chemscore.Metal>
0.0000

> <Gold.Chemscore.Lipo>
103.0580

> <Gold.Chemscore.Internal_Hbond>
0.0000

> <Gold.Chemscore.DEClash>
0.0089

> <Gold.Chemscore.DEInternal>
0.4117

> <Gold.Chemscore.Rot>
2.5436

> <Gold.Chemscore.Internal.Correction>
   9.000000E+99

> <Gold.Chemscore.Hbonds>
donor molecule, donor type, donor heavy atom, donor atom, acceptor molecule, acceptor atom, score
      P1  H  7989  7998       L1     1  0.54
      P1  H 10752 10764       L1     8  0.26

> <Gold.Chemscore.Hbond.Weighted>
-5.5580

> <Gold.Chemscore.Metal.Weighted>
-0.0000

> <Gold.Chemscore.Lipo.Weighted>
-12.0578

> <Gold.Chemscore.Internal_Hbond.Weighted>
0.0000

> <Gold.Chemscore.DEClash.Weighted>
0.0089

> <Gold.Chemscore.DEInternal.Weighted>
0.4117

> <Gold.Chemscore.Rot.Weighted>
6.5117

> <Gold.Chemscore.Internal.Correction.Weighted>
   9.000000E+99

> <Gold.Protein.RotatedTorsions>
[ 6907 6896 6895 6894 ] final  133.40 input  -60.11 | X-H torsion
[ 7974 7965 7964 7962 ] final  -97.25 input  175.53 | X-H torsion
[ 8008 7997 7996 7995 ] final  -64.55 input   59.86 | X-H torsion
[ 10167 10162 10161 10158 ] final  153.60 input  -65.29 | X-H torsion
[ 10718 10713 10712 10709 ] final  -73.61 input   66.30 | X-H torsion
[ 10763 10752 10751 10750 ] final  -46.15 input  -60.55 | X-H torsion
[ 11005 11000 10999 10996 ] final -127.55 input  -57.11 | X-H torsion

> <Gold.Protein.ActiveResidues>
 VAL166  LYS551  ARG553  GLY616  TRP617  ASP618  TYR619  PRO620  LYS621  CYS622 
 ASP623  PHE694  ASN695  SER759  ASP760  ASP761  ALA762  ILE779  LEU786  VAL792 
 PHE793  MET794  SER795  GLU796  ALA797  LYS798  CYS799  TRP800  GLU811  SER814 

> <Gold.Protein.RotatedAtoms>
  152.3223  133.5867  159.5752 H   0  0  0  0  0  0  0  0  0  0  0  0  # atno 6907 bound_to 6896
  150.7378  133.9992  159.3641 H   0  0  0  0  0  0  0  0  0  0  0  0  # atno 6908 bound_to 6896
  151.7875  135.0745  160.0433 H   0  0  0  0  0  0  0  0  0  0  0  0  # atno 6909 bound_to 6896
  145.3362  140.9451  143.2634 H   0  0  0  0  0  0  0  0  0  0  0  0  # atno 7974 bound_to 7965
  154.4618  140.0951  156.6915 H   0  0  0  0  0  0  0  0  0  0  0  0  # atno 8008 bound_to 7997
  155.4971  140.3472  155.4346 H   0  0  0  0  0  0  0  0  0  0  0  0  # atno 8009 bound_to 7997
  156.0885  140.1391  156.9611 H   0  0  0  0  0  0  0  0  0  0  0  0  # atno 8010 bound_to 7997
  139.4826  144.5259  151.7801 H   0  0  0  0  0  0  0  0  0  0  0  0  # atno 10167 bound_to 10162
  156.0273  130.4398  150.2769 H   0  0  0  0  0  0  0  0  0  0  0  0  # atno 10718 bound_to 10713
  154.0403  135.6645  153.4789 H   0  0  0  0  0  0  0  0  0  0  0  0  # atno 10763 bound_to 10752
  153.0504  135.5088  154.7848 H   0  0  0  0  0  0  0  0  0  0  0  0  # atno 10764 bound_to 10752
  154.6822  135.3047  154.9562 H   0  0  0  0  0  0  0  0  0  0  0  0  # atno 10765 bound_to 10752
  140.9590  134.0962  157.3987 H   0  0  0  0  0  0  0  0  0  0  0  0  # atno 11005 bound_to 11000
  144.8825  139.4884  143.6716 LP  0  0  0  0  0  0  0  0  0  0  0  0  # atno 17320 bound_to 7965
  146.3026  139.7474  142.9080 LP  0  0  0  0  0  0  0  0  0  0  0  0  # atno 17321 bound_to 7965
  140.4779  144.1492  150.5928 LP  0  0  0  0  0  0  0  0  0  0  0  0  # atno 17342 bound_to 10162
  140.4310  143.2568  151.9595 LP  0  0  0  0  0  0  0  0  0  0  0  0  # atno 17343 bound_to 10162
  157.0872  131.0160  151.3135 LP  0  0  0  0  0  0  0  0  0  0  0  0  # atno 17370 bound_to 10713
  157.4882  130.7806  149.7481 LP  0  0  0  0  0  0  0  0  0  0  0  0  # atno 17371 bound_to 10713
  139.8872  135.0087  156.6544 LP  0  0  0  0  0  0  0  0  0  0  0  0  # atno 17394 bound_to 11000
  140.7494  133.8910  155.8336 LP  0  0  0  0  0  0  0  0  0  0  0  0  # atno 17395 bound_to 11000

$$$$
