AV-unprocessed.smi:2198|AV-procd|sdf|8920|dock1
  -GOLD-   2272012133D 1   1.00000     0.00000
 Structure written by MMmdl.
 42 43  0  0  0  0  0  0  0  0  2 V2000
  151.3634  135.2828  153.5488 C   0  0  0  0  0  0  0  0  0  0  0  0
  151.0793  136.6828  154.0494 C   0  0  0  0  0  0  0  0  0  0  0  0
  150.0594  136.8845  154.7933 N   0  0  0  0  0  0  0  0  0  0  0  0
  149.7857  138.1836  155.2542 C   0  0  0  0  0  0  0  0  0  0  0  0
  148.5502  138.3322  156.1246 C   0  0  0  0  0  0  0  0  0  0  0  0
  150.5905  139.2341  154.9234 C   0  0  0  0  0  0  0  0  0  0  0  0
  150.3289  140.6676  155.3871 C   0  0  0  0  0  0  0  0  0  0  0  0
  151.4069  141.3083  156.2650 C   0  0  0  0  0  0  0  0  0  0  0  0
  152.5707  140.9074  156.2296 O   0  0  0  0  0  0  0  0  0  0  0  0
  150.9957  142.3048  157.0638 N   0  0  0  0  0  0  0  0  0  0  0  0
  151.8405  143.0317  158.0062 C   0  0  1  0  0  0  0  0  0  0  0  0
  151.0927  144.2744  158.5220 C   0  0  0  0  0  0  0  0  0  0  0  0
  151.9316  145.0369  159.5591 C   0  0  0  0  0  0  0  0  0  0  0  0
  152.3424  144.1228  160.7240 C   0  0  0  0  0  0  0  0  0  0  0  0
  153.0956  142.8748  160.2254 C   0  0  1  0  0  0  0  0  0  0  0  0
  153.4965  141.9594  161.3908 C   0  0  0  0  0  0  0  0  0  0  0  0
  152.2544  142.1182  159.1791 C   0  0  0  0  0  0  0  0  0  0  0  0
  151.7634  138.9565  154.0753 C   0  0  0  0  0  0  0  0  0  0  0  0
  152.5348  139.8640  153.7667 O   0  0  0  0  0  0  0  0  0  0  0  0
  151.9543  137.6717  153.6597 N   0  5  0  0  0  0  0  0  0  0  0  0
  150.7624  134.5455  154.0827 H   0  0  0  0  0  0  0  0  0  0  0  0
  152.4150  135.0320  153.6918 H   0  0  0  0  0  0  0  0  0  0  0  0
  151.1315  135.2108  152.4860 H   0  0  0  0  0  0  0  0  0  0  0  0
  147.7917  138.9221  155.6101 H   0  0  0  0  0  0  0  0  0  0  0  0
  148.7963  138.8242  157.0657 H   0  0  0  0  0  0  0  0  0  0  0  0
  148.1166  137.3600  156.3623 H   0  0  0  0  0  0  0  0  0  0  0  0
  150.1459  141.3188  154.5316 H   0  0  0  0  0  0  0  0  0  0  0  0
  149.3942  140.6794  155.9480 H   0  0  0  0  0  0  0  0  0  0  0  0
  150.0224  142.5704  157.0246 H   0  0  0  0  0  0  0  0  0  0  0  0
  152.7394  143.3704  157.4872 H   0  0  0  0  0  0  0  0  0  0  0  0
  150.8467  144.9362  157.6906 H   0  0  0  0  0  0  0  0  0  0  0  0
  150.1443  143.9769  158.9722 H   0  0  0  0  0  0  0  0  0  0  0  0
  152.8236  145.4427  159.0803 H   0  0  0  0  0  0  0  0  0  0  0  0
  151.3685  145.8903  159.9379 H   0  0  0  0  0  0  0  0  0  0  0  0
  152.9663  144.6810  161.4230 H   0  0  0  0  0  0  0  0  0  0  0  0
  151.4533  143.8201  161.2786 H   0  0  0  0  0  0  0  0  0  0  0  0
  154.0135  143.2084  159.7391 H   0  0  0  0  0  0  0  0  0  0  0  0
  152.6204  141.5945  161.9276 H   0  0  0  0  0  0  0  0  0  0  0  0
  154.1286  142.4876  162.1052 H   0  0  0  0  0  0  0  0  0  0  0  0
  154.0545  141.0925  161.0358 H   0  0  0  0  0  0  0  0  0  0  0  0
  151.3630  141.7069  159.6554 H   0  0  0  0  0  0  0  0  0  0  0  0
  152.8216  141.2659  158.8023 H   0  0  0  0  0  0  0  0  0  0  0  0
  1  2  1  0  0  0  0
  1 21  1  0  0  0  0
  1 22  1  0  0  0  0
  1 23  1  0  0  0  0
  2 20  1  0  0  0  0
  2  3  2  0  0  0  0
  3  4  1  0  0  0  0
  4  5  1  0  0  0  0
  4  6  2  0  0  0  0
  5 24  1  0  0  0  0
  5 25  1  0  0  0  0
  5 26  1  0  0  0  0
  6  7  1  0  0  0  0
  6 18  1  0  0  0  0
  7  8  1  0  0  0  0
  7 27  1  0  0  0  0
  7 28  1  0  0  0  0
  8  9  2  0  0  0  0
  8 10  1  0  0  0  0
 10 11  1  0  0  0  0
 10 29  1  0  0  0  0
 11 17  1  0  0  0  0
 11 12  1  0  0  0  0
 11 30  1  0  0  0  0
 12 13  1  0  0  0  0
 12 31  1  0  0  0  0
 12 32  1  0  0  0  0
 13 14  1  0  0  0  0
 13 33  1  0  0  0  0
 13 34  1  0  0  0  0
 14 15  1  0  0  0  0
 14 35  1  0  0  0  0
 14 36  1  0  0  0  0
 15 16  1  0  0  0  0
 15 17  1  0  0  0  0
 15 37  1  0  0  0  0
 16 38  1  0  0  0  0
 16 39  1  0  0  0  0
 16 40  1  0  0  0  0
 17 41  1  0  0  0  0
 17 42  1  0  0  0  0
 18 19  2  0  0  0  0
 18 20  1  0  0  0  0
M  CHG  1  20  -1
M  END
> <s_m_source_file>
AV-unprocessed.smi

> <i_m_source_file_index>
2198

> <i_lp_mmshare_version>
43012

> <i_f3d_flags>
0

> <s_epik_input>
W0NIM11jMW5jKFtDSDNdKWMoYyg9TylbbkhdMSlbQ0gyXUMoPU8pW05IXVtDQEBIXTJbQ0gyXVtDSDJdW0NIMl1bQ0BASF0oW0NIM10pW0NIMl0y

> <s_epik_cmdline>
J2VwaWtfcHl0aG9uJywgJy1waCcsICc3LjAnLCAnLXRuJywgJzgnLCAnLW1hJywgJzIwMCcsICctbWV0YWxfYmluZGluZycsICctaW1hZScsICc8aW5maWxlLm1hZT4nLCAnLW9tYWUnLCAnPG91dGZpbGUubWFlPic=

> <r_lp_tautomer_probability>
0.839158

> <r_epik_Ionization_Penalty>
6.67193

> <r_epik_Ionization_Penalty_Charging>
7.66837e-08

> <r_epik_Ionization_Penalty_Neutral>
6.67193

> <r_epik_State_Penalty>
4.51643

> <r_epik_Charging_Adjusted_Penalty>
4.51643

> <i_epik_Tot_Q>
-1

> <i_epik_Tot_abs_Q>
1

> <r_epik_Metal_State_Penalty>
0.851582

> <b_epik_Metal_Only>
1

> <s_lp_Force_Field>
OPLS_2005

> <r_lp_Energy>
13.5939

> <b_lp_Chiralities_Consistent>
1

> <s_lp_Variant>
AV-unprocessed.smi:2198-10

> <Gold.Version>
5.8.1

> <Gold.Id.Protein>
6NUR|6NUR_protein|mol2

> <Gold.PLP.Fitness>
47.8929

> <Gold.PLP.PLP>
-38.7662

> <Gold.PLP.part.hbond>
-3.0000

> <Gold.PLP.part.metal>
0.0000

> <Gold.PLP.part.buried>
-2.9325

> <Gold.PLP.part.nonpolar>
-32.2300

> <Gold.PLP.part.repulsive>
0.3687

> <Gold.PLP.ligand.clash>
0.0000

> <Gold.PLP.ligand.torsion>
0.4427

> <Gold.PLP.Chemscore.Hbond>
3.3320

> <Gold.PLP.Chemscore.CHOScore>
0.0000

> <Gold.PLP.Chemscore.Metal>
0.0000

> <Gold.Chemscore.Hbonds>
donor molecule, donor type, donor heavy atom, donor atom, acceptor molecule, acceptor atom, score
      P1  H  7989  7998       L1    19  0.12
      P1  H  7997  8010       L1     9  0.67

> <Gold.PLP.Chemscore.Internal.Correction>
0.0160

> <Gold.Rescore>
     Score         DG    S(hbond)    S(metal)    S(lipo)     H(rot)  DE(clash)    DE(int)     intcor
     16.26     -19.41       1.90        0.00      96.55       1.45       0.06       3.09       ----

> <Gold.Chemscore.Fitness>
16.2612

> <Gold.Chemscore.DG>
-19.4078

> <Gold.Chemscore.ZeroCoef>
-5.4800

> <Gold.Chemscore.Hbond>
1.8954

> <Gold.Chemscore.Metal>
0.0000

> <Gold.Chemscore.Lipo>
96.5512

> <Gold.Chemscore.Internal_Hbond>
0.0000

> <Gold.Chemscore.DEClash>
0.0595

> <Gold.Chemscore.DEInternal>
3.0871

> <Gold.Chemscore.Rot>
1.4450

> <Gold.Chemscore.Internal.Correction>
   9.000000E+99

> <Gold.Chemscore.Hbonds>
donor molecule, donor type, donor heavy atom, donor atom, acceptor molecule, acceptor atom, score
      P1  H  7989  7998       L1    19  0.04
      P1  H  7997  8010       L1     9  0.68

> <Gold.Chemscore.Hbond.Weighted>
-6.3305

> <Gold.Chemscore.Metal.Weighted>
-0.0000

> <Gold.Chemscore.Lipo.Weighted>
-11.2965

> <Gold.Chemscore.Internal_Hbond.Weighted>
0.0000

> <Gold.Chemscore.DEClash.Weighted>
0.0595

> <Gold.Chemscore.DEInternal.Weighted>
3.0871

> <Gold.Chemscore.Rot.Weighted>
3.6992

> <Gold.Chemscore.Internal.Correction.Weighted>
   9.000000E+99

> <Gold.Protein.RotatedTorsions>
[ 6907 6896 6895 6894 ] final  -20.89 input  -60.11 | X-H torsion
[ 7974 7965 7964 7962 ] final  -63.87 input  175.53 | X-H torsion
[ 8008 7997 7996 7995 ] final   71.93 input   59.86 | X-H torsion
[ 10167 10162 10161 10158 ] final  -40.12 input  -65.29 | X-H torsion
[ 10718 10713 10712 10709 ] final  -20.02 input   66.30 | X-H torsion
[ 10763 10752 10751 10750 ] final  -71.41 input  -60.55 | X-H torsion
[ 11005 11000 10999 10996 ] final   12.98 input  -57.11 | X-H torsion

> <Gold.Protein.ActiveResidues>
 VAL166  LYS551  ARG553  GLY616  TRP617  ASP618  TYR619  PRO620  LYS621  CYS622 
 ASP623  PHE694  ASN695  SER759  ASP760  ASP761  ALA762  ILE779  LEU786  VAL792 
 PHE793  MET794  SER795  GLU796  ALA797  LYS798  CYS799  TRP800  GLU811  SER814 

> <Gold.Protein.RotatedAtoms>
  151.2415  135.0590  159.9026 H   0  0  0  0  0  0  0  0  0  0  0  0  # atno 6907 bound_to 6896
  152.5392  134.0429  159.8086 H   0  0  0  0  0  0  0  0  0  0  0  0  # atno 6908 bound_to 6896
  151.0624  133.5484  159.2664 H   0  0  0  0  0  0  0  0  0  0  0  0  # atno 6909 bound_to 6896
  145.7737  140.8799  143.0367 H   0  0  0  0  0  0  0  0  0  0  0  0  # atno 7974 bound_to 7965
  155.7612  140.3486  155.5199 H   0  0  0  0  0  0  0  0  0  0  0  0  # atno 8008 bound_to 7997
  155.8912  140.1018  157.1438 H   0  0  0  0  0  0  0  0  0  0  0  0  # atno 8009 bound_to 7997
  154.4033  140.1304  156.4305 H   0  0  0  0  0  0  0  0  0  0  0  0  # atno 8010 bound_to 7997
  140.7044  143.3172  151.2879 H   0  0  0  0  0  0  0  0  0  0  0  0  # atno 10167 bound_to 10162
  156.5377  130.4670  149.6515 H   0  0  0  0  0  0  0  0  0  0  0  0  # atno 10718 bound_to 10713
  154.4313  135.5963  153.6071 H   0  0  0  0  0  0  0  0  0  0  0  0  # atno 10763 bound_to 10752
  152.9799  135.5976  154.3835 H   0  0  0  0  0  0  0  0  0  0  0  0  # atno 10764 bound_to 10752
  154.3674  135.2841  155.2264 H   0  0  0  0  0  0  0  0  0  0  0  0  # atno 10765 bound_to 10752
  140.4859  134.0888  155.7761 H   0  0  0  0  0  0  0  0  0  0  0  0  # atno 11005 bound_to 11000
  144.6808  139.9891  143.7484 LP  0  0  0  0  0  0  0  0  0  0  0  0  # atno 17320 bound_to 7965
  146.0144  139.3197  143.0850 LP  0  0  0  0  0  0  0  0  0  0  0  0  # atno 17321 bound_to 7965
  139.6615  144.0181  152.2695 LP  0  0  0  0  0  0  0  0  0  0  0  0  # atno 17342 bound_to 10162
  139.9750  144.6468  150.7954 LP  0  0  0  0  0  0  0  0  0  0  0  0  # atno 17343 bound_to 10162
  156.3001  130.7172  151.2041 LP  0  0  0  0  0  0  0  0  0  0  0  0  # atno 17370 bound_to 10713
  157.7411  131.0508  150.5122 LP  0  0  0  0  0  0  0  0  0  0  0  0  # atno 17371 bound_to 10713
  141.1508  133.8972  157.2102 LP  0  0  0  0  0  0  0  0  0  0  0  0  # atno 17394 bound_to 11000
  139.9798  135.0102  156.9721 LP  0  0  0  0  0  0  0  0  0  0  0  0  # atno 17395 bound_to 11000

$$$$
