AV-unprocessed.smi:2817|AV-procd|sdf|10846|dock4
  -GOLD-   2272015283D 1   1.00000     0.00000
 Structure written by MMmdl.
 42 44  0  0  0  0  0  0  0  0  1 V2000
  151.7821  139.7128  155.0940 O   0  0  0  0  0  0  0  0  0  0  0  0
  151.1657  140.4533  155.8603 C   0  0  0  0  0  0  0  0  0  0  0  0
  151.7232  140.9064  157.1350 C   0  0  0  0  0  0  0  0  0  0  0  0
  151.0183  141.7243  157.9520 C   0  0  0  0  0  0  0  0  0  0  0  0
  151.5946  142.1849  159.2882 C   0  0  0  0  0  0  0  0  0  0  0  0
  151.9569  143.6768  159.3839 C   0  0  0  0  0  0  0  0  0  0  0  0
  153.4348  143.3119  159.2043 C   0  0  0  0  0  0  0  0  0  0  0  0
  153.0799  141.8489  159.4937 C   0  0  0  0  0  0  0  0  0  0  0  0
  149.7292  142.1430  157.5958 N   0  0  0  0  0  0  0  0  0  0  0  0
  149.2112  141.7535  156.4750 C   0  0  0  0  0  0  0  0  0  0  0  0
  149.9113  140.9144  155.5867 N   0  0  0  0  0  0  0  0  0  0  0  0
  149.2090  140.5378  154.3496 C   0  0  0  0  0  0  0  0  0  0  0  0
  148.9777  139.0117  154.2589 C   0  0  2  0  0  0  0  0  0  0  0  0
  148.4544  138.6986  152.9841 O   0  0  0  0  0  0  0  0  0  0  0  0
  147.9631  138.5136  155.2994 C   0  0  0  0  0  0  0  0  0  0  0  0
  147.5629  137.1959  154.9470 O   0  0  0  0  0  0  0  0  0  0  0  0
  148.4621  136.1675  155.1285 C   0  0  0  0  0  0  0  0  0  0  0  0
  148.0328  134.8731  154.7688 C   0  0  0  0  0  0  0  0  0  0  0  0
  148.8849  133.7626  154.9208 C   0  0  0  0  0  0  0  0  0  0  0  0
  150.1820  133.9369  155.4373 C   0  0  0  0  0  0  0  0  0  0  0  0
  150.6234  135.2228  155.8005 C   0  0  0  0  0  0  0  0  0  0  0  0
  149.7710  136.3339  155.6483 C   0  0  0  0  0  0  0  0  0  0  0  0
  152.7127  140.5795  157.4200 H   0  0  0  0  0  0  0  0  0  0  0  0
  150.9791  141.8594  160.1282 H   0  0  0  0  0  0  0  0  0  0  0  0
  151.5479  144.3104  158.5958 H   0  0  0  0  0  0  0  0  0  0  0  0
  151.7490  144.0924  160.3708 H   0  0  0  0  0  0  0  0  0  0  0  0
  153.7883  143.4676  158.1843 H   0  0  0  0  0  0  0  0  0  0  0  0
  154.1037  143.7663  159.9359 H   0  0  0  0  0  0  0  0  0  0  0  0
  153.3042  141.5594  160.5211 H   0  0  0  0  0  0  0  0  0  0  0  0
  153.4952  141.1364  158.7798 H   0  0  0  0  0  0  0  0  0  0  0  0
  148.2090  142.0437  156.1538 H   0  0  0  0  0  0  0  0  0  0  0  0
  148.2483  141.0557  154.3235 H   0  0  0  0  0  0  0  0  0  0  0  0
  149.7264  140.9052  153.4614 H   0  0  0  0  0  0  0  0  0  0  0  0
  149.9123  138.4651  154.3920 H   0  0  0  0  0  0  0  0  0  0  0  0
  148.6855  137.8067  152.7741 H   0  0  0  0  0  0  0  0  0  0  0  0
  148.4053  138.5324  156.2971 H   0  0  0  0  0  0  0  0  0  0  0  0
  147.0885  139.1666  155.3024 H   0  0  0  0  0  0  0  0  0  0  0  0
  147.0384  134.7301  154.3715 H   0  0  0  0  0  0  0  0  0  0  0  0
  148.5425  132.7773  154.6412 H   0  0  0  0  0  0  0  0  0  0  0  0
  150.8365  133.0857  155.5550 H   0  0  0  0  0  0  0  0  0  0  0  0
  151.6186  135.3580  156.1978 H   0  0  0  0  0  0  0  0  0  0  0  0
  150.1450  137.3038  155.9390 H   0  0  0  0  0  0  0  0  0  0  0  0
  1  2  2  0  0  0  0
  2 11  1  0  0  0  0
  2  3  1  0  0  0  0
  3  4  2  0  0  0  0
  3 23  1  0  0  0  0
  4  5  1  0  0  0  0
  4  9  1  0  0  0  0
  5  8  1  0  0  0  0
  5  6  1  0  0  0  0
  5 24  1  0  0  0  0
  6  7  1  0  0  0  0
  6 25  1  0  0  0  0
  6 26  1  0  0  0  0
  7  8  1  0  0  0  0
  7 27  1  0  0  0  0
  7 28  1  0  0  0  0
  8 29  1  0  0  0  0
  8 30  1  0  0  0  0
  9 10  2  0  0  0  0
 10 11  1  0  0  0  0
 10 31  1  0  0  0  0
 11 12  1  0  0  0  0
 12 13  1  0  0  0  0
 12 32  1  0  0  0  0
 12 33  1  0  0  0  0
 13 14  1  0  0  0  0
 13 15  1  0  0  0  0
 13 34  1  0  0  0  0
 14 35  1  0  0  0  0
 15 16  1  0  0  0  0
 15 36  1  0  0  0  0
 15 37  1  0  0  0  0
 16 17  1  0  0  0  0
 17 22  1  0  0  0  0
 17 18  2  0  0  0  0
 18 19  1  0  0  0  0
 18 38  1  0  0  0  0
 19 20  2  0  0  0  0
 19 39  1  0  0  0  0
 20 21  1  0  0  0  0
 20 40  1  0  0  0  0
 21 22  2  0  0  0  0
 21 41  1  0  0  0  0
 22 42  1  0  0  0  0
M  END
> <s_m_source_file>
AV-unprocessed.smi

> <i_m_source_file_index>
2817

> <i_lp_mmshare_version>
43012

> <i_f3d_flags>
0

> <s_epik_input>
W0NIMl0xW0NIMl1bQ0gyXVtDSF0xYyhbY0hdYzI9TyluW2NIXW4yW0NIMl1bQ0BIXShbT0hdKVtDSDJdT2MzW2NIXVtjSF1bY0hdW2NIXVtjSF0z

> <s_epik_cmdline>
J2VwaWtfcHl0aG9uJywgJy1waCcsICc3LjAnLCAnLXRuJywgJzgnLCAnLW1hJywgJzIwMCcsICctbWV0YWxfYmluZGluZycsICctaW1hZScsICc8aW5maWxlLm1hZT4nLCAnLW9tYWUnLCAnPG91dGZpbGUubWFlPic=

> <r_lp_tautomer_probability>
1

> <r_epik_Ionization_Penalty>
2.12778e-05

> <r_epik_Ionization_Penalty_Charging>
7.42033e-08

> <r_epik_Ionization_Penalty_Neutral>
2.12036e-05

> <r_epik_State_Penalty>
-0

> <r_epik_Charging_Adjusted_Penalty>
7.42033e-08

> <i_epik_Tot_Q>
0

> <i_epik_Tot_abs_Q>
0

> <r_epik_Metal_State_Penalty>
-0

> <b_epik_Metal_Only>
0

> <s_lp_Force_Field>
OPLS_2005

> <r_lp_Energy>
32.2435

> <b_lp_Chiralities_Consistent>
1

> <s_lp_Variant>
AV-unprocessed.smi:2817-1

> <Gold.Version>
5.8.1

> <Gold.Id.Protein>
6NUR|6NUR_protein|mol2

> <Gold.PLP.Fitness>
45.3343

> <Gold.PLP.PLP>
-39.4828

> <Gold.PLP.part.hbond>
-2.9577

> <Gold.PLP.part.metal>
0.0000

> <Gold.PLP.part.buried>
-3.8180

> <Gold.PLP.part.nonpolar>
-32.1008

> <Gold.PLP.part.repulsive>
0.2393

> <Gold.PLP.ligand.clash>
0.0000

> <Gold.PLP.ligand.torsion>
0.3395

> <Gold.PLP.Chemscore.Hbond>
2.0000

> <Gold.PLP.Chemscore.CHOScore>
0.0324

> <Gold.PLP.Chemscore.Metal>
0.0000

> <Gold.Chemscore.Hbonds>
donor molecule, donor type, donor heavy atom, donor atom, acceptor molecule, acceptor atom, score
      L1  H    14    35       P1  7948  1.00
      P1  H  7989  7998       L1     1  0.85
      L1  C    10    31       P1  8028  0.11

> <Gold.PLP.Chemscore.Internal.Correction>
0.4332

> <Gold.Rescore>
     Score         DG    S(hbond)    S(metal)    S(lipo)     H(rot)  DE(clash)    DE(int)     intcor
     15.41     -16.69       1.92        0.00      93.98       2.42       0.04       1.24       ----

> <Gold.Chemscore.Fitness>
15.4076

> <Gold.Chemscore.DG>
-16.6869

> <Gold.Chemscore.ZeroCoef>
-5.4800

> <Gold.Chemscore.Hbond>
1.9214

> <Gold.Chemscore.Metal>
0.0000

> <Gold.Chemscore.Lipo>
93.9837

> <Gold.Chemscore.Internal_Hbond>
0.0000

> <Gold.Chemscore.DEClash>
0.0405

> <Gold.Chemscore.DEInternal>
1.2387

> <Gold.Chemscore.Rot>
2.4245

> <Gold.Chemscore.Internal.Correction>
   9.000000E+99

> <Gold.Chemscore.Hbonds>
donor molecule, donor type, donor heavy atom, donor atom, acceptor molecule, acceptor atom, score
      L1  H    14    35       P1  7948  1.00
      P1  H  7989  7998       L1     1  0.14

> <Gold.Chemscore.Hbond.Weighted>
-6.4174

> <Gold.Chemscore.Metal.Weighted>
-0.0000

> <Gold.Chemscore.Lipo.Weighted>
-10.9961

> <Gold.Chemscore.Internal_Hbond.Weighted>
0.0000

> <Gold.Chemscore.DEClash.Weighted>
0.0405

> <Gold.Chemscore.DEInternal.Weighted>
1.2387

> <Gold.Chemscore.Rot.Weighted>
6.2066

> <Gold.Chemscore.Internal.Correction.Weighted>
   9.000000E+99

> <Gold.Protein.RotatedTorsions>
[ 6907 6896 6895 6894 ] final -165.52 input  -60.11 | X-H torsion
[ 7974 7965 7964 7962 ] final  -68.17 input  175.53 | X-H torsion
[ 8008 7997 7996 7995 ] final  141.97 input   59.86 | X-H torsion
[ 10167 10162 10161 10158 ] final  -94.87 input  -65.29 | X-H torsion
[ 10718 10713 10712 10709 ] final -169.10 input   66.30 | X-H torsion
[ 10763 10752 10751 10750 ] final -100.66 input  -60.55 | X-H torsion
[ 11005 11000 10999 10996 ] final    8.43 input  -57.11 | X-H torsion

> <Gold.Protein.ActiveResidues>
 VAL166  LYS551  ARG553  GLY616  TRP617  ASP618  TYR619  PRO620  LYS621  CYS622 
 ASP623  PHE694  ASN695  SER759  ASP760  ASP761  ALA762  ILE779  LEU786  VAL792 
 PHE793  MET794  SER795  GLU796  ALA797  LYS798  CYS799  TRP800  GLU811  SER814 

> <Gold.Protein.RotatedAtoms>
  151.4290  133.3676  159.2765 H   0  0  0  0  0  0  0  0  0  0  0  0  # atno 6907 bound_to 6896
  150.9238  134.8657  159.7517 H   0  0  0  0  0  0  0  0  0  0  0  0  # atno 6908 bound_to 6896
  152.4995  134.4230  159.9539 H   0  0  0  0  0  0  0  0  0  0  0  0  # atno 6909 bound_to 6896
  145.7199  140.9043  143.0636 H   0  0  0  0  0  0  0  0  0  0  0  0  # atno 7974 bound_to 7965
  156.2957  140.2301  156.4652 H   0  0  0  0  0  0  0  0  0  0  0  0  # atno 8008 bound_to 7997
  154.7983  140.0450  157.1274 H   0  0  0  0  0  0  0  0  0  0  0  0  # atno 8009 bound_to 7997
  154.9563  140.3048  155.5055 H   0  0  0  0  0  0  0  0  0  0  0  0  # atno 8010 bound_to 7997
  140.3100  143.3111  152.0159 H   0  0  0  0  0  0  0  0  0  0  0  0  # atno 10167 bound_to 10162
  156.7066  130.9217  151.3085 H   0  0  0  0  0  0  0  0  0  0  0  0  # atno 10718 bound_to 10713
  154.7596  135.4927  153.9439 H   0  0  0  0  0  0  0  0  0  0  0  0  # atno 10763 bound_to 10752
  153.1236  135.6737  153.9302 H   0  0  0  0  0  0  0  0  0  0  0  0  # atno 10764 bound_to 10752
  153.9027  135.3108  155.3427 H   0  0  0  0  0  0  0  0  0  0  0  0  # atno 10765 bound_to 10752
  140.5371  134.0410  155.7892 H   0  0  0  0  0  0  0  0  0  0  0  0  # atno 11005 bound_to 11000
  144.6919  139.9188  143.7467 LP  0  0  0  0  0  0  0  0  0  0  0  0  # atno 17320 bound_to 7965
  146.0635  139.3627  143.0567 LP  0  0  0  0  0  0  0  0  0  0  0  0  # atno 17321 bound_to 7965
  139.4896  144.6392  151.6913 LP  0  0  0  0  0  0  0  0  0  0  0  0  # atno 17342 bound_to 10162
  140.5577  144.0321  150.6155 LP  0  0  0  0  0  0  0  0  0  0  0  0  # atno 17343 bound_to 10162
  157.6952  130.9275  150.0625 LP  0  0  0  0  0  0  0  0  0  0  0  0  # atno 17370 bound_to 10713
  156.1691  130.3646  149.9191 LP  0  0  0  0  0  0  0  0  0  0  0  0  # atno 17371 bound_to 10713
  141.1248  133.9401  157.2657 LP  0  0  0  0  0  0  0  0  0  0  0  0  # atno 17394 bound_to 11000
  139.9523  135.0173  156.9030 LP  0  0  0  0  0  0  0  0  0  0  0  0  # atno 17395 bound_to 11000

$$$$
