AV-unprocessed.smi:1916|AV-procd|sdf|7766|dock3
  -GOLD-   22720 9513D 1   1.00000     0.00000
 Structure written by MMmdl.
 46 48  0  0  0  0  0  0  0  0  2 V2000
  149.0063  137.3909  156.3220 O   0  0  0  0  0  0  0  0  0  0  0  0
  149.2469  137.2612  155.1216 C   0  0  0  0  0  0  0  0  0  0  0  0
  148.9285  136.1636  154.4196 N   0  0  0  0  0  0  0  0  0  0  0  0
  148.2665  134.9781  154.9572 C   0  0  0  0  0  0  0  0  0  0  0  0
  148.6750  133.6971  154.2080 C   0  0  0  0  0  0  0  0  0  0  0  0
  147.6610  133.2451  153.1714 C   0  0  0  0  0  0  0  0  0  0  0  0
  147.0993  131.9499  153.1918 C   0  0  0  0  0  0  0  0  0  0  0  0
  146.1503  131.5942  152.2108 C   0  0  0  0  0  0  0  0  0  0  0  0
  145.7823  132.5401  151.2317 C   0  0  0  0  0  0  0  0  0  0  0  0
  146.3735  133.8196  151.2581 C   0  0  0  0  0  0  0  0  0  0  0  0
  147.2783  134.1227  152.2149 N   0  3  0  0  0  0  0  0  0  0  0  0
  149.9463  138.3895  154.3463 C   0  0  2  0  0  0  0  0  0  0  0  0
  151.4490  138.1063  154.1776 C   0  0  0  0  0  0  0  0  0  0  0  0
  152.1190  139.1419  155.0642 C   0  0  0  0  0  0  0  0  0  0  0  0
  153.3245  139.1167  155.3073 O   0  0  0  0  0  0  0  0  0  0  0  0
  151.2344  140.0304  155.5392 N   0  0  0  0  0  0  0  0  0  0  0  0
  151.5457  141.0889  156.5159 C   0  0  0  0  0  0  0  0  0  0  0  0
  151.9967  140.5909  157.9028 C   0  0  0  0  0  0  0  0  0  0  0  0
  151.6140  141.7184  158.8566 C   0  0  0  0  0  0  0  0  0  0  0  0
  150.2731  142.2114  158.3188 C   0  0  0  0  0  0  0  0  0  0  0  0
  150.3504  142.0289  156.7976 C   0  0  0  0  0  0  0  0  0  0  0  0
  149.8782  139.7449  155.0818 C   0  0  0  0  0  0  0  0  0  0  0  0
  149.1543  136.1535  153.4358 H   0  0  0  0  0  0  0  0  0  0  0  0
  148.4791  134.8516  156.0200 H   0  0  0  0  0  0  0  0  0  0  0  0
  147.1895  135.1268  154.8715 H   0  0  0  0  0  0  0  0  0  0  0  0
  149.6366  133.8524  153.7165 H   0  0  0  0  0  0  0  0  0  0  0  0
  148.8311  132.8893  154.9240 H   0  0  0  0  0  0  0  0  0  0  0  0
  147.3889  131.2378  153.9512 H   0  0  0  0  0  0  0  0  0  0  0  0
  145.7088  130.6081  152.2105 H   0  0  0  0  0  0  0  0  0  0  0  0
  145.0571  132.2877  150.4718 H   0  0  0  0  0  0  0  0  0  0  0  0
  146.1515  134.6035  150.5488 H   0  0  0  0  0  0  0  0  0  0  0  0
  149.4797  138.4879  153.3646 H   0  0  0  0  0  0  0  0  0  0  0  0
  151.7432  137.0986  154.4765 H   0  0  0  0  0  0  0  0  0  0  0  0
  151.7640  138.2564  153.1446 H   0  0  0  0  0  0  0  0  0  0  0  0
  152.3576  141.6907  156.1034 H   0  0  0  0  0  0  0  0  0  0  0  0
  151.4463  139.6995  158.2047 H   0  0  0  0  0  0  0  0  0  0  0  0
  153.0607  140.3546  157.9388 H   0  0  0  0  0  0  0  0  0  0  0  0
  151.5557  141.3905  159.8948 H   0  0  0  0  0  0  0  0  0  0  0  0
  152.3537  142.5180  158.7988 H   0  0  0  0  0  0  0  0  0  0  0  0
  149.4706  141.5909  158.7199 H   0  0  0  0  0  0  0  0  0  0  0  0
  150.0652  143.2429  158.6050 H   0  0  0  0  0  0  0  0  0  0  0  0
  150.5052  142.9872  156.3004 H   0  0  0  0  0  0  0  0  0  0  0  0
  149.4069  141.6252  156.4278 H   0  0  0  0  0  0  0  0  0  0  0  0
  149.5566  140.5299  154.3963 H   0  0  0  0  0  0  0  0  0  0  0  0
  149.1783  139.7293  155.9191 H   0  0  0  0  0  0  0  0  0  0  0  0
  147.6937  135.0547  152.2144 H   0  0  0  0  0  0  0  0  0  0  0  0
  1  2  2  0  0  0  0
  2  3  1  0  0  0  0
  2 12  1  0  0  0  0
  3  4  1  0  0  0  0
  3 23  1  0  0  0  0
  4  5  1  0  0  0  0
  4 24  1  0  0  0  0
  4 25  1  0  0  0  0
  5  6  1  0  0  0  0
  5 26  1  0  0  0  0
  5 27  1  0  0  0  0
  6 11  1  0  0  0  0
  6  7  2  0  0  0  0
  7  8  1  0  0  0  0
  7 28  1  0  0  0  0
  8  9  2  0  0  0  0
  8 29  1  0  0  0  0
  9 10  1  0  0  0  0
  9 30  1  0  0  0  0
 10 11  2  0  0  0  0
 10 31  1  0  0  0  0
 11 46  1  0  0  0  0
 12 22  1  0  0  0  0
 12 13  1  0  0  0  0
 12 32  1  0  0  0  0
 13 14  1  0  0  0  0
 13 33  1  0  0  0  0
 13 34  1  0  0  0  0
 14 15  2  0  0  0  0
 14 16  1  0  0  0  0
 16 17  1  0  0  0  0
 16 22  1  0  0  0  0
 17 21  1  0  0  0  0
 17 18  1  0  0  0  0
 17 35  1  0  0  0  0
 18 19  1  0  0  0  0
 18 36  1  0  0  0  0
 18 37  1  0  0  0  0
 19 20  1  0  0  0  0
 19 38  1  0  0  0  0
 19 39  1  0  0  0  0
 20 21  1  0  0  0  0
 20 40  1  0  0  0  0
 20 41  1  0  0  0  0
 21 42  1  0  0  0  0
 21 43  1  0  0  0  0
 22 44  1  0  0  0  0
 22 45  1  0  0  0  0
M  CHG  1  11   1
M  END
> <s_m_source_file>
AV-unprocessed.smi

> <i_m_source_file_index>
1916

> <i_lp_mmshare_version>
43012

> <i_f3d_flags>
0

> <s_epik_input>
W0NIMl0xW0NIMl1bQ0gyXVtDSDJdW0NIXTFOKFtDSDJdMilDKD1PKVtDSDJdW0NASF0yQyg9TylbTkhdW0NIMl1bQ0gyXWMzW2NIXVtjSF1bY0hdW2NIXW4z

> <s_epik_cmdline>
J2VwaWtfcHl0aG9uJywgJy1waCcsICc3LjAnLCAnLXRuJywgJzgnLCAnLW1hJywgJzIwMCcsICctbWV0YWxfYmluZGluZycsICctaW1hZScsICc8aW5maWxlLm1hZT4nLCAnLW9tYWUnLCAnPG91dGZpbGUubWFlPic=

> <r_epik_Ionization_Penalty>
1.88249

> <r_epik_Ionization_Penalty_Charging>
1.88249

> <r_epik_Ionization_Penalty_Neutral>
3.64574e-08

> <r_epik_State_Penalty>
2.00238

> <r_epik_Charging_Adjusted_Penalty>
3.88487

> <i_epik_Tot_Q>
1

> <i_epik_Tot_abs_Q>
1

> <r_epik_Metal_State_Penalty>
2.02676

> <b_epik_Metal_Only>
0

> <s_lp_Force_Field>
OPLS_2005

> <r_lp_Energy>
42.8241

> <b_lp_Chiralities_Consistent>
1

> <s_lp_Variant>
AV-unprocessed.smi:1916-3

> <Gold.Version>
5.8.1

> <Gold.Id.Protein>
6NUR|6NUR_protein|mol2

> <Gold.PLP.Fitness>
51.5056

> <Gold.PLP.PLP>
-41.6914

> <Gold.PLP.part.hbond>
-3.0000

> <Gold.PLP.part.metal>
0.0000

> <Gold.PLP.part.buried>
-4.6496

> <Gold.PLP.part.nonpolar>
-33.8504

> <Gold.PLP.part.repulsive>
0.0505

> <Gold.PLP.ligand.clash>
0.0000

> <Gold.PLP.ligand.torsion>
1.1364

> <Gold.PLP.Chemscore.Hbond>
4.0000

> <Gold.PLP.Chemscore.CHOScore>
0.0000

> <Gold.PLP.Chemscore.Metal>
0.0000

> <Gold.Chemscore.Hbonds>
donor molecule, donor type, donor heavy atom, donor atom, acceptor molecule, acceptor atom, score
      L1  H     3    23       P1  7948  1.00
      L1  H    11    46       P1  7948  2.00
      P1  H  7997  8010       L1    15  1.00

> <Gold.PLP.Chemscore.Internal.Correction>
0.0870

> <Gold.Rescore>
     Score         DG    S(hbond)    S(metal)    S(lipo)     H(rot)  DE(clash)    DE(int)     intcor
     19.86     -21.10       2.81        0.00      90.89       1.72       0.01       1.23       ----

> <Gold.Chemscore.Fitness>
19.8583

> <Gold.Chemscore.DG>
-21.0957

> <Gold.Chemscore.ZeroCoef>
-5.4800

> <Gold.Chemscore.Hbond>
2.8065

> <Gold.Chemscore.Metal>
0.0000

> <Gold.Chemscore.Lipo>
90.8921

> <Gold.Chemscore.Internal_Hbond>
0.0000

> <Gold.Chemscore.DEClash>
0.0115

> <Gold.Chemscore.DEInternal>
1.2259

> <Gold.Chemscore.Rot>
1.7158

> <Gold.Chemscore.Internal.Correction>
   9.000000E+99

> <Gold.Chemscore.Hbonds>
donor molecule, donor type, donor heavy atom, donor atom, acceptor molecule, acceptor atom, score
      L1  H     3    23       P1  7948  0.87
      L1  H    11    46       P1  7948  0.90
      P1  H  7997  8010       L1    15  0.96

> <Gold.Chemscore.Hbond.Weighted>
-9.3737

> <Gold.Chemscore.Metal.Weighted>
-0.0000

> <Gold.Chemscore.Lipo.Weighted>
-10.6344

> <Gold.Chemscore.Internal_Hbond.Weighted>
0.0000

> <Gold.Chemscore.DEClash.Weighted>
0.0115

> <Gold.Chemscore.DEInternal.Weighted>
1.2259

> <Gold.Chemscore.Rot.Weighted>
4.3924

> <Gold.Chemscore.Internal.Correction.Weighted>
   9.000000E+99

> <Gold.Protein.RotatedTorsions>
[ 6907 6896 6895 6894 ] final   26.12 input  -60.11 | X-H torsion
[ 7974 7965 7964 7962 ] final -160.48 input  175.53 | X-H torsion
[ 8008 7997 7996 7995 ] final   86.11 input   59.86 | X-H torsion
[ 10167 10162 10161 10158 ] final  121.66 input  -65.29 | X-H torsion
[ 10718 10713 10712 10709 ] final   53.63 input   66.30 | X-H torsion
[ 10763 10752 10751 10750 ] final -100.50 input  -60.55 | X-H torsion
[ 11005 11000 10999 10996 ] final   76.10 input  -57.11 | X-H torsion

> <Gold.Protein.ActiveResidues>
 VAL166  LYS551  ARG553  GLY616  TRP617  ASP618  TYR619  PRO620  LYS621  CYS622 
 ASP623  PHE694  ASN695  SER759  ASP760  ASP761  ALA762  ILE779  LEU786  VAL792 
 PHE793  MET794  SER795  GLU796  ALA797  LYS798  CYS799  TRP800  GLU811  SER814 

> <Gold.Protein.RotatedAtoms>
  151.9828  135.0020  160.0557 H   0  0  0  0  0  0  0  0  0  0  0  0  # atno 6907 bound_to 6896
  152.1681  133.4620  159.4903 H   0  0  0  0  0  0  0  0  0  0  0  0  # atno 6908 bound_to 6896
  150.6897  134.1905  159.4326 H   0  0  0  0  0  0  0  0  0  0  0  0  # atno 6909 bound_to 6896
  144.7426  140.3536  143.6110 H   0  0  0  0  0  0  0  0  0  0  0  0  # atno 7974 bound_to 7965
  155.9586  140.3395  155.6471 H   0  0  0  0  0  0  0  0  0  0  0  0  # atno 8008 bound_to 7997
  155.6827  140.0739  157.2497 H   0  0  0  0  0  0  0  0  0  0  0  0  # atno 8009 bound_to 7997
  154.4138  140.1671  156.1988 H   0  0  0  0  0  0  0  0  0  0  0  0  # atno 8010 bound_to 7997
  139.5906  144.7023  151.3300 H   0  0  0  0  0  0  0  0  0  0  0  0  # atno 10167 bound_to 10162
  157.5184  130.8548  149.8526 H   0  0  0  0  0  0  0  0  0  0  0  0  # atno 10718 bound_to 10713
  154.7584  135.4933  153.9417 H   0  0  0  0  0  0  0  0  0  0  0  0  # atno 10763 bound_to 10752
  153.1222  135.6734  153.9324 H   0  0  0  0  0  0  0  0  0  0  0  0  # atno 10764 bound_to 10752
  153.9053  135.3105  155.3427 H   0  0  0  0  0  0  0  0  0  0  0  0  # atno 10765 bound_to 10752
  139.9313  134.7572  156.1353 H   0  0  0  0  0  0  0  0  0  0  0  0  # atno 11005 bound_to 11000
  145.7250  139.1720  143.2462 LP  0  0  0  0  0  0  0  0  0  0  0  0  # atno 17320 bound_to 7965
  146.1248  140.7262  142.9440 LP  0  0  0  0  0  0  0  0  0  0  0  0  # atno 17321 bound_to 7965
  140.7169  143.7240  150.7674 LP  0  0  0  0  0  0  0  0  0  0  0  0  # atno 17342 bound_to 10162
  140.0795  143.4982  152.2537 LP  0  0  0  0  0  0  0  0  0  0  0  0  # atno 17343 bound_to 10162
  156.0336  130.3757  150.1620 LP  0  0  0  0  0  0  0  0  0  0  0  0  # atno 17370 bound_to 10713
  156.9809  130.9864  151.3437 LP  0  0  0  0  0  0  0  0  0  0  0  0  # atno 17371 bound_to 10713
  141.0904  133.6717  156.2527 LP  0  0  0  0  0  0  0  0  0  0  0  0  # atno 17394 bound_to 11000
  140.6193  134.5378  157.5545 LP  0  0  0  0  0  0  0  0  0  0  0  0  # atno 17395 bound_to 11000

$$$$
