AV-unprocessed.smi:1474|AV-procd|sdf|5975|dock4
  -GOLD-   22720 6 63D 1   1.00000     0.00000
 Structure written by MMmdl.
 43 44  0  0  0  0  0  0  0  0  1 V2000
  152.8420  138.2168  154.8692 C   0  0  0  0  0  0  0  0  0  0  0  0
  153.2967  138.5794  156.1612 O   0  0  0  0  0  0  0  0  0  0  0  0
  153.7756  137.4676  156.8995 C   0  0  0  0  0  0  0  0  0  0  0  0
  152.5852  136.6504  157.4101 C   0  0  0  0  0  0  0  0  0  0  0  0
  152.3175  135.6038  156.4818 O   0  0  0  0  0  0  0  0  0  0  0  0
  151.0229  135.4320  156.0369 C   0  0  0  0  0  0  0  0  0  0  0  0
  150.0810  136.4463  156.3008 C   0  0  0  0  0  0  0  0  0  0  0  0
  148.7570  136.2762  155.8537 C   0  0  0  0  0  0  0  0  0  0  0  0
  148.4151  135.0944  155.1612 C   0  0  0  0  0  0  0  0  0  0  0  0
  147.0063  134.8435  154.6424 C   0  0  0  0  0  0  0  0  0  0  0  0
  146.9006  134.8069  153.1871 N   0  0  0  0  0  0  0  0  0  0  0  0
  146.0405  134.0400  152.4987 C   0  0  0  0  0  0  0  0  0  0  0  0
  145.2413  133.2779  153.0434 O   0  0  0  0  0  0  0  0  0  0  0  0
  146.0824  134.1742  150.9645 C   0  0  1  0  0  0  0  0  0  0  0  0
  146.5047  132.8648  150.2724 C   0  0  0  0  0  0  0  0  0  0  0  0
  145.4292  131.7644  150.3459 C   0  0  0  0  0  0  0  0  0  0  0  0
  144.0039  132.2734  150.0822 C   0  0  0  0  0  0  0  0  0  0  0  0
  143.1135  131.4670  149.8230 O   0  0  0  0  0  0  0  0  0  0  0  0
  143.7509  133.5902  150.1825 N   0  0  0  0  0  0  0  0  0  0  0  0
  144.7392  134.6545  150.3698 C   0  0  0  0  0  0  0  0  0  0  0  0
  149.4315  134.1416  154.9408 C   0  0  0  0  0  0  0  0  0  0  0  0
  150.7035  134.2977  155.3653 N   0  0  0  0  0  0  0  0  0  0  0  0
  152.4887  139.1036  154.3427 H   0  0  0  0  0  0  0  0  0  0  0  0
  152.0155  137.5073  154.9258 H   0  0  0  0  0  0  0  0  0  0  0  0
  153.6449  137.7732  154.2792 H   0  0  0  0  0  0  0  0  0  0  0  0
  154.3926  136.8451  156.2498 H   0  0  0  0  0  0  0  0  0  0  0  0
  154.4004  137.7909  157.7335 H   0  0  0  0  0  0  0  0  0  0  0  0
  152.7969  136.2534  158.4044 H   0  0  0  0  0  0  0  0  0  0  0  0
  151.7136  137.3022  157.4868 H   0  0  0  0  0  0  0  0  0  0  0  0
  150.3701  137.3393  156.8352 H   0  0  0  0  0  0  0  0  0  0  0  0
  148.0219  137.0444  156.0423 H   0  0  0  0  0  0  0  0  0  0  0  0
  146.6662  133.8838  155.0315 H   0  0  0  0  0  0  0  0  0  0  0  0
  146.3237  135.5961  155.0411 H   0  0  0  0  0  0  0  0  0  0  0  0
  147.5243  135.4075  152.6678 H   0  0  0  0  0  0  0  0  0  0  0  0
  146.8305  134.9342  150.7324 H   0  0  0  0  0  0  0  0  0  0  0  0
  146.7261  133.0742  149.2250 H   0  0  0  0  0  0  0  0  0  0  0  0
  147.4362  132.4946  150.7027 H   0  0  0  0  0  0  0  0  0  0  0  0
  145.6653  130.9685  149.6389 H   0  0  0  0  0  0  0  0  0  0  0  0
  145.4377  131.3065  151.3354 H   0  0  0  0  0  0  0  0  0  0  0  0
  142.7949  133.8866  150.0479 H   0  0  0  0  0  0  0  0  0  0  0  0
  144.2986  135.4358  150.9907 H   0  0  0  0  0  0  0  0  0  0  0  0
  144.9189  135.1098  149.3952 H   0  0  0  0  0  0  0  0  0  0  0  0
  149.2196  133.2251  154.4101 H   0  0  0  0  0  0  0  0  0  0  0  0
  1  2  1  0  0  0  0
  1 23  1  0  0  0  0
  1 24  1  0  0  0  0
  1 25  1  0  0  0  0
  2  3  1  0  0  0  0
  3  4  1  0  0  0  0
  3 26  1  0  0  0  0
  3 27  1  0  0  0  0
  4  5  1  0  0  0  0
  4 28  1  0  0  0  0
  4 29  1  0  0  0  0
  5  6  1  0  0  0  0
  6 22  1  0  0  0  0
  6  7  2  0  0  0  0
  7  8  1  0  0  0  0
  7 30  1  0  0  0  0
  8  9  2  0  0  0  0
  8 31  1  0  0  0  0
  9 10  1  0  0  0  0
  9 21  1  0  0  0  0
 10 11  1  0  0  0  0
 10 32  1  0  0  0  0
 10 33  1  0  0  0  0
 11 12  1  0  0  0  0
 11 34  1  0  0  0  0
 12 13  2  0  0  0  0
 12 14  1  0  0  0  0
 14 20  1  0  0  0  0
 14 15  1  0  0  0  0
 14 35  1  0  0  0  0
 15 16  1  0  0  0  0
 15 36  1  0  0  0  0
 15 37  1  0  0  0  0
 16 17  1  0  0  0  0
 16 38  1  0  0  0  0
 16 39  1  0  0  0  0
 17 18  2  0  0  0  0
 17 19  1  0  0  0  0
 19 20  1  0  0  0  0
 19 40  1  0  0  0  0
 20 41  1  0  0  0  0
 20 42  1  0  0  0  0
 21 22  2  0  0  0  0
 21 43  1  0  0  0  0
M  END
> <s_m_source_file>
AV-unprocessed.smi

> <i_m_source_file_index>
1474

> <i_lp_mmshare_version>
43012

> <i_f3d_flags>
0

> <s_epik_input>
W0NIM11PW0NIMl1bQ0gyXU9jMVtjSF1bY0hdYyhbY0hdbjEpW0NIMl1bTkhdQyg9TylbQ0BASF0yW0NIMl1bQ0gyXUMoPU8pW05IXVtDSDJdMg==

> <s_epik_cmdline>
J2VwaWtfcHl0aG9uJywgJy1waCcsICc3LjAnLCAnLXRuJywgJzgnLCAnLW1hJywgJzIwMCcsICctbWV0YWxfYmluZGluZycsICctaW1hZScsICc8aW5maWxlLm1hZT4nLCAnLW9tYWUnLCAnPG91dGZpbGUubWFlPic=

> <r_lp_tautomer_probability>
1

> <r_epik_Ionization_Penalty>
6.19599e-05

> <r_epik_Ionization_Penalty_Charging>
0

> <r_epik_Ionization_Penalty_Neutral>
6.19599e-05

> <r_epik_State_Penalty>
-0

> <r_epik_Charging_Adjusted_Penalty>
0

> <i_epik_Tot_Q>
0

> <i_epik_Tot_abs_Q>
0

> <r_epik_Metal_State_Penalty>
-0

> <b_epik_Metal_Only>
0

> <s_lp_Force_Field>
OPLS_2005

> <r_lp_Energy>
8.64292

> <b_lp_Chiralities_Consistent>
1

> <s_lp_Variant>
AV-unprocessed.smi:1474-2

> <Gold.Version>
5.8.1

> <Gold.Id.Protein>
6NUR|6NUR_protein|mol2

> <Gold.PLP.Fitness>
41.8132

> <Gold.PLP.PLP>
-28.8537

> <Gold.PLP.part.hbond>
-5.0000

> <Gold.PLP.part.metal>
0.0000

> <Gold.PLP.part.buried>
-3.6725

> <Gold.PLP.part.nonpolar>
-22.7760

> <Gold.PLP.part.repulsive>
3.4069

> <Gold.PLP.ligand.clash>
0.1259

> <Gold.PLP.ligand.torsion>
1.0188

> <Gold.PLP.Chemscore.Hbond>
5.0000

> <Gold.PLP.Chemscore.CHOScore>
0.0000

> <Gold.PLP.Chemscore.Metal>
0.0000

> <Gold.Chemscore.Hbonds>
donor molecule, donor type, donor heavy atom, donor atom, acceptor molecule, acceptor atom, score
      L1  H    11    34       P1  7948  1.00
      L1  H    19    40       P1 10186  1.00
      P1  H  7997  8010       L1     2  0.93
      P1  H 10752 10765       L1     5  1.00
      P1  H 10785 10796       L1    18  1.00

> <Gold.PLP.Chemscore.Internal.Correction>
0.1229

> <Gold.Rescore>
     Score         DG    S(hbond)    S(metal)    S(lipo)     H(rot)  DE(clash)    DE(int)     intcor
     19.08     -21.65       4.55        0.00      63.56       2.52       1.52       1.06       ----

> <Gold.Chemscore.Fitness>
19.0753

> <Gold.Chemscore.DG>
-21.6549

> <Gold.Chemscore.ZeroCoef>
-5.4800

> <Gold.Chemscore.Hbond>
4.5480

> <Gold.Chemscore.Metal>
0.0000

> <Gold.Chemscore.Lipo>
63.5559

> <Gold.Chemscore.Internal_Hbond>
0.0000

> <Gold.Chemscore.DEClash>
1.5187

> <Gold.Chemscore.DEInternal>
1.0609

> <Gold.Chemscore.Rot>
2.5201

> <Gold.Chemscore.Internal.Correction>
   9.000000E+99

> <Gold.Chemscore.Hbonds>
donor molecule, donor type, donor heavy atom, donor atom, acceptor molecule, acceptor atom, score
      L1  H    11    34       P1  7948  1.00
      L1  H    19    40       P1 10186  0.99
      P1  H  7997  8010       L1     2  0.67
      P1  H 10752 10765       L1     5  0.48
      P1  H 10785 10796       L1    18  1.00

> <Gold.Chemscore.Hbond.Weighted>
-15.1903

> <Gold.Chemscore.Metal.Weighted>
-0.0000

> <Gold.Chemscore.Lipo.Weighted>
-7.4360

> <Gold.Chemscore.Internal_Hbond.Weighted>
0.0000

> <Gold.Chemscore.DEClash.Weighted>
1.5187

> <Gold.Chemscore.DEInternal.Weighted>
1.0609

> <Gold.Chemscore.Rot.Weighted>
6.4514

> <Gold.Chemscore.Internal.Correction.Weighted>
   9.000000E+99

> <Gold.Protein.RotatedTorsions>
[ 6907 6896 6895 6894 ] final  113.82 input  -60.11 | X-H torsion
[ 7974 7965 7964 7962 ] final   76.28 input  175.53 | X-H torsion
[ 8008 7997 7996 7995 ] final   69.03 input   59.86 | X-H torsion
[ 10167 10162 10161 10158 ] final   89.50 input  -65.29 | X-H torsion
[ 10718 10713 10712 10709 ] final -107.86 input   66.30 | X-H torsion
[ 10763 10752 10751 10750 ] final -142.92 input  -60.55 | X-H torsion
[ 11005 11000 10999 10996 ] final  -60.80 input  -57.11 | X-H torsion

> <Gold.Protein.ActiveResidues>
 VAL166  LYS551  ARG553  GLY616  TRP617  ASP618  TYR619  PRO620  LYS621  CYS622 
 ASP623  PHE694  ASN695  SER759  ASP760  ASP761  ALA762  ILE779  LEU786  VAL792 
 PHE793  MET794  SER795  GLU796  ALA797  LYS798  CYS799  TRP800  GLU811  SER814 

> <Gold.Protein.RotatedAtoms>
  152.4839  133.8322  159.7109 H   0  0  0  0  0  0  0  0  0  0  0  0  # atno 6907 bound_to 6896
  150.8909  133.7235  159.2911 H   0  0  0  0  0  0  0  0  0  0  0  0  # atno 6908 bound_to 6896
  151.4708  135.1049  159.9803 H   0  0  0  0  0  0  0  0  0  0  0  0  # atno 6909 bound_to 6896
  145.7048  139.2594  143.1684 H   0  0  0  0  0  0  0  0  0  0  0  0  # atno 7974 bound_to 7965
  155.7174  140.3493  155.5001 H   0  0  0  0  0  0  0  0  0  0  0  0  # atno 8008 bound_to 7997
  155.9300  140.1082  157.1161 H   0  0  0  0  0  0  0  0  0  0  0  0  # atno 8009 bound_to 7997
  154.4084  140.1233  156.4777 H   0  0  0  0  0  0  0  0  0  0  0  0  # atno 8010 bound_to 7997
  139.8567  144.6565  150.9106 H   0  0  0  0  0  0  0  0  0  0  0  0  # atno 10167 bound_to 10162
  156.0457  130.5684  150.7881 H   0  0  0  0  0  0  0  0  0  0  0  0  # atno 10718 bound_to 10713
  154.8490  135.3482  154.6105 H   0  0  0  0  0  0  0  0  0  0  0  0  # atno 10763 bound_to 10752
  153.6714  135.6985  153.5150 H   0  0  0  0  0  0  0  0  0  0  0  0  # atno 10764 bound_to 10752
  153.2740  135.4284  155.0971 H   0  0  0  0  0  0  0  0  0  0  0  0  # atno 10765 bound_to 10752
  141.1301  133.6625  156.5278 H   0  0  0  0  0  0  0  0  0  0  0  0  # atno 11005 bound_to 11000
  146.0765  140.7811  142.9662 LP  0  0  0  0  0  0  0  0  0  0  0  0  # atno 17320 bound_to 7965
  144.6958  140.3423  143.7197 LP  0  0  0  0  0  0  0  0  0  0  0  0  # atno 17321 bound_to 7965
  140.7780  143.3780  151.1528 LP  0  0  0  0  0  0  0  0  0  0  0  0  # atno 17342 bound_to 10162
  139.7413  143.8920  152.3050 LP  0  0  0  0  0  0  0  0  0  0  0  0  # atno 17343 bound_to 10162
  157.5329  131.0937  150.9931 LP  0  0  0  0  0  0  0  0  0  0  0  0  # atno 17370 bound_to 10713
  157.0233  130.5682  149.5334 LP  0  0  0  0  0  0  0  0  0  0  0  0  # atno 17371 bound_to 10713
  140.4240  134.7162  157.4905 LP  0  0  0  0  0  0  0  0  0  0  0  0  # atno 17394 bound_to 11000
  140.0340  134.6364  155.9068 LP  0  0  0  0  0  0  0  0  0  0  0  0  # atno 17395 bound_to 11000

$$$$
