AV-unprocessed.smi:36|AV-procd|sdf|281|dock1
  -GOLD-   2262016 53D 1   1.00000     0.00000
 Structure written by MMmdl.
 64 67  0  0  0  0  0  0  0  0  1 V2000
  147.6844  133.6785  162.4781 C   0  0  0  0  0  0  0  0  0  0  0  0
  146.6516  134.5502  161.7440 C   0  0  0  0  0  0  0  0  0  0  0  0
  145.4238  134.7739  162.6424 C   0  0  0  0  0  0  0  0  0  0  0  0
  147.2788  135.9054  161.3765 C   0  0  0  0  0  0  0  0  0  0  0  0
  146.0974  133.6667  160.1431 Si  0  0  0  0  0  0  0  0  0  0  0  0
  145.3178  131.9776  160.5323 C   0  0  0  0  0  0  0  0  0  0  0  0
  144.8700  134.7311  159.1570 C   0  0  0  0  0  0  0  0  0  0  0  0
  147.4668  133.4096  159.1840 O   0  0  0  0  0  0  0  0  0  0  0  0
  147.4071  133.1701  157.7935 C   0  0  0  0  0  0  0  0  0  0  0  0
  148.8318  133.0388  157.2393 C   0  0  2  0  0  0  0  0  0  0  0  0
  149.5896  134.1537  157.7099 O   0  0  0  0  0  0  0  0  0  0  0  0
  150.3384  134.6684  156.6615 C   0  0  2  0  0  0  0  0  0  0  0  0
  150.5979  136.1142  156.9224 N   0  0  0  0  0  0  0  0  0  0  0  0
  150.4293  136.8032  158.1026 C   0  0  0  0  0  0  0  0  0  0  0  0
  150.7199  138.0758  158.0538 N   0  0  0  0  0  0  0  0  0  0  0  0
  151.1129  138.2809  156.7373 C   0  0  0  0  0  0  0  0  0  0  0  0
  151.5470  139.4181  156.0073 C   0  0  0  0  0  0  0  0  0  0  0  0
  151.6433  140.6225  156.6181 N   0  0  0  0  0  0  0  0  0  0  0  0
  151.9010  140.8980  158.0206 C   0  0  0  0  0  0  0  0  0  0  0  0
  152.1397  140.0025  158.8314 O   0  0  0  0  0  0  0  0  0  0  0  0
  151.9497  142.3470  158.4098 C   0  0  0  0  0  0  0  0  0  0  0  0
  151.5718  143.3411  157.4796 C   0  0  0  0  0  0  0  0  0  0  0  0
  151.6297  144.7043  157.8295 C   0  0  0  0  0  0  0  0  0  0  0  0
  152.0745  145.0852  159.1095 C   0  0  0  0  0  0  0  0  0  0  0  0
  152.4642  144.1020  160.0385 C   0  0  0  0  0  0  0  0  0  0  0  0
  152.4056  142.7383  159.6901 C   0  0  0  0  0  0  0  0  0  0  0  0
  151.8616  139.2372  154.6974 N   0  0  0  0  0  0  0  0  0  0  0  0
  151.7502  138.0281  154.1389 C   0  0  0  0  0  0  0  0  0  0  0  0
  151.3541  136.8837  154.6995 N   0  0  0  0  0  0  0  0  0  0  0  0
  151.0415  137.0561  156.0169 C   0  0  0  0  0  0  0  0  0  0  0  0
  149.4956  134.4667  155.4112 C   0  0  0  0  0  0  0  0  0  0  0  0
  148.8834  133.1081  155.6973 C   0  0  1  0  0  0  0  0  0  0  0  0
  149.7133  132.0822  155.1872 O   0  0  0  0  0  0  0  0  0  0  0  0
  148.0206  134.1542  163.4000 H   0  0  0  0  0  0  0  0  0  0  0  0
  148.5654  133.5009  161.8610 H   0  0  0  0  0  0  0  0  0  0  0  0
  147.2674  132.7068  162.7442 H   0  0  0  0  0  0  0  0  0  0  0  0
  144.9601  133.8289  162.9261 H   0  0  0  0  0  0  0  0  0  0  0  0
  144.6661  135.3724  162.1355 H   0  0  0  0  0  0  0  0  0  0  0  0
  145.6945  135.2946  163.5617 H   0  0  0  0  0  0  0  0  0  0  0  0
  147.5906  136.4527  162.2669 H   0  0  0  0  0  0  0  0  0  0  0  0
  146.5725  136.5344  160.8337 H   0  0  0  0  0  0  0  0  0  0  0  0
  148.1587  135.7792  160.7452 H   0  0  0  0  0  0  0  0  0  0  0  0
  144.4454  132.0773  161.1779 H   0  0  0  0  0  0  0  0  0  0  0  0
  146.0228  131.3188  161.0387 H   0  0  0  0  0  0  0  0  0  0  0  0
  144.9925  131.4677  159.6259 H   0  0  0  0  0  0  0  0  0  0  0  0
  143.9674  134.9391  159.7311 H   0  0  0  0  0  0  0  0  0  0  0  0
  144.5619  134.2354  158.2368 H   0  0  0  0  0  0  0  0  0  0  0  0
  145.3063  135.6896  158.8764 H   0  0  0  0  0  0  0  0  0  0  0  0
  146.8499  132.2490  157.6189 H   0  0  0  0  0  0  0  0  0  0  0  0
  146.8663  133.9775  157.2981 H   0  0  0  0  0  0  0  0  0  0  0  0
  149.2831  132.1128  157.6000 H   0  0  0  0  0  0  0  0  0  0  0  0
  151.3173  134.1891  156.6102 H   0  0  0  0  0  0  0  0  0  0  0  0
  150.0814  136.3287  159.0086 H   0  0  0  0  0  0  0  0  0  0  0  0
  151.5184  141.4299  156.0249 H   0  0  0  0  0  0  0  0  0  0  0  0
  151.2300  143.0650  156.4924 H   0  0  0  0  0  0  0  0  0  0  0  0
  151.3342  145.4578  157.1144 H   0  0  0  0  0  0  0  0  0  0  0  0
  152.1202  146.1307  159.3768 H   0  0  0  0  0  0  0  0  0  0  0  0
  152.8113  144.3940  161.0188 H   0  0  0  0  0  0  0  0  0  0  0  0
  152.7184  142.0004  160.4146 H   0  0  0  0  0  0  0  0  0  0  0  0
  152.0164  137.9696  153.0938 H   0  0  0  0  0  0  0  0  0  0  0  0
  148.7156  135.2273  155.3634 H   0  0  0  0  0  0  0  0  0  0  0  0
  150.1003  134.5160  154.5047 H   0  0  0  0  0  0  0  0  0  0  0  0
  147.8987  133.0123  155.2382 H   0  0  0  0  0  0  0  0  0  0  0  0
  149.5276  131.2835  155.6571 H   0  0  0  0  0  0  0  0  0  0  0  0
  1  2  1  0  0  0  0
  1 34  1  0  0  0  0
  1 35  1  0  0  0  0
  1 36  1  0  0  0  0
  2  3  1  0  0  0  0
  2  4  1  0  0  0  0
  2  5  1  0  0  0  0
  3 37  1  0  0  0  0
  3 38  1  0  0  0  0
  3 39  1  0  0  0  0
  4 40  1  0  0  0  0
  4 41  1  0  0  0  0
  4 42  1  0  0  0  0
  5  6  1  0  0  0  0
  5  7  1  0  0  0  0
  5  8  1  0  0  0  0
  6 43  1  0  0  0  0
  6 44  1  0  0  0  0
  6 45  1  0  0  0  0
  7 46  1  0  0  0  0
  7 47  1  0  0  0  0
  7 48  1  0  0  0  0
  8  9  1  0  0  0  0
  9 10  1  0  0  0  0
  9 49  1  0  0  0  0
  9 50  1  0  0  0  0
 10 32  1  0  0  0  0
 10 11  1  0  0  0  0
 10 51  1  0  0  0  0
 11 12  1  0  0  0  0
 12 13  1  0  0  0  0
 12 31  1  0  0  0  0
 12 52  1  0  0  0  0
 13 30  1  0  0  0  0
 13 14  1  0  0  0  0
 14 15  2  0  0  0  0
 14 53  1  0  0  0  0
 15 16  1  0  0  0  0
 16 30  2  0  0  0  0
 16 17  1  0  0  0  0
 17 18  1  0  0  0  0
 17 27  2  0  0  0  0
 18 19  1  0  0  0  0
 18 54  1  0  0  0  0
 19 20  2  0  0  0  0
 19 21  1  0  0  0  0
 21 26  1  0  0  0  0
 21 22  2  0  0  0  0
 22 23  1  0  0  0  0
 22 55  1  0  0  0  0
 23 24  2  0  0  0  0
 23 56  1  0  0  0  0
 24 25  1  0  0  0  0
 24 57  1  0  0  0  0
 25 26  2  0  0  0  0
 25 58  1  0  0  0  0
 26 59  1  0  0  0  0
 27 28  1  0  0  0  0
 28 29  2  0  0  0  0
 28 60  1  0  0  0  0
 29 30  1  0  0  0  0
 31 32  1  0  0  0  0
 31 61  1  0  0  0  0
 31 62  1  0  0  0  0
 32 33  1  0  0  0  0
 32 63  1  0  0  0  0
 33 64  1  0  0  0  0
M  END
> <s_m_source_file>
AV-unprocessed.smi

> <i_m_source_file_index>
36

> <i_lp_mmshare_version>
43012

> <i_f3d_flags>
0

> <s_epik_input>
W0NIM11DKFtDSDNdKShbQ0gzXSlbU2ldKFtDSDNdKShbQ0gzXSlPW0NIMl1bQ0BASF0xT1tDQEhdKFtDSDJdW0NASF0xW09IXSluKFtjSF1uMiljKGMyMyluW2NIXW5jM1tOSF1DKD1PKWM0W2NIXVtjSF1bY0hdW2NIXVtjSF00

> <s_epik_cmdline>
J2VwaWtfcHl0aG9uJywgJy1waCcsICc3LjAnLCAnLXRuJywgJzgnLCAnLW1hJywgJzIwMCcsICctbWV0YWxfYmluZGluZycsICctaW1hZScsICc8aW5maWxlLm1hZT4nLCAnLW9tYWUnLCAnPG91dGZpbGUubWFlPic=

> <r_lp_tautomer_probability>
1

> <r_epik_Ionization_Penalty>
0.00150433

> <r_epik_Ionization_Penalty_Charging>
0

> <r_epik_Ionization_Penalty_Neutral>
0.00150433

> <r_epik_State_Penalty>
0.00724046

> <r_epik_Charging_Adjusted_Penalty>
0.00724046

> <i_epik_Tot_Q>
0

> <i_epik_Tot_abs_Q>
0

> <r_epik_Metal_State_Penalty>
0.323355

> <b_epik_Metal_Only>
0

> <s_epik_Chemistry_Notes>
This compound contains an acetal/aminal-like group ( X-CH(R)-Y where X, Y are N, S, or O) that may be acid/base labile, releasing an aldehyde.

> <s_lp_Force_Field>
OPLS_2005

> <r_lp_Energy>
37.1131

> <b_lp_Chiralities_Consistent>
1

> <s_lp_Variant>
AV-unprocessed.smi:36-3

> <Gold.Version>
5.8.1

> <Gold.Id.Protein>
6NUR|6NUR_protein|mol2

> <Gold.PLP.Fitness>
60.7623

> <Gold.PLP.PLP>
-51.0029

> <Gold.PLP.part.hbond>
-3.0000

> <Gold.PLP.part.metal>
0.0000

> <Gold.PLP.part.buried>
-8.8254

> <Gold.PLP.part.nonpolar>
-39.3716

> <Gold.PLP.part.repulsive>
0.3523

> <Gold.PLP.ligand.clash>
0.0000

> <Gold.PLP.ligand.torsion>
0.8594

> <Gold.PLP.Chemscore.Hbond>
2.9920

> <Gold.PLP.Chemscore.CHOScore>
0.5636

> <Gold.PLP.Chemscore.Metal>
0.0000

> <Gold.Chemscore.Hbonds>
donor molecule, donor type, donor heavy atom, donor atom, acceptor molecule, acceptor atom, score
      P1  H  6896  6908       L1    11  1.00
      P1  H  7989  7998       L1    27  0.99
      P1  H 10752 10764       L1    29  0.98
      L1  C    28    60       P1  7949  0.55

> <Gold.PLP.Chemscore.Internal.Correction>
0.8114

> <Gold.Rescore>
     Score         DG    S(hbond)    S(metal)    S(lipo)     H(rot)  DE(clash)    DE(int)     intcor
     16.62     -20.10       2.16        0.00     122.42       2.70       0.27       3.21       ----

> <Gold.Chemscore.Fitness>
16.6174

> <Gold.Chemscore.DG>
-20.1013

> <Gold.Chemscore.ZeroCoef>
-5.4800

> <Gold.Chemscore.Hbond>
2.1617

> <Gold.Chemscore.Metal>
0.0000

> <Gold.Chemscore.Lipo>
122.4235

> <Gold.Chemscore.Internal_Hbond>
0.0000

> <Gold.Chemscore.DEClash>
0.2720

> <Gold.Chemscore.DEInternal>
3.2119

> <Gold.Chemscore.Rot>
2.7041

> <Gold.Chemscore.Internal.Correction>
   9.000000E+99

> <Gold.Chemscore.Hbonds>
donor molecule, donor type, donor heavy atom, donor atom, acceptor molecule, acceptor atom, score
      P1  H  6896  6908       L1    11  0.62
      P1  H  7989  7998       L1    27  0.80
      P1  H 10752 10764       L1    29  0.36

> <Gold.Chemscore.Hbond.Weighted>
-7.2202

> <Gold.Chemscore.Metal.Weighted>
-0.0000

> <Gold.Chemscore.Lipo.Weighted>
-14.3236

> <Gold.Chemscore.Internal_Hbond.Weighted>
0.0000

> <Gold.Chemscore.DEClash.Weighted>
0.2720

> <Gold.Chemscore.DEInternal.Weighted>
3.2119

> <Gold.Chemscore.Rot.Weighted>
6.9225

> <Gold.Chemscore.Internal.Correction.Weighted>
   9.000000E+99

> <Gold.Protein.RotatedTorsions>
[ 6907 6896 6895 6894 ] final  120.42 input  -60.11 | X-H torsion
[ 7974 7965 7964 7962 ] final  144.97 input  175.53 | X-H torsion
[ 8008 7997 7996 7995 ] final  -90.79 input   59.86 | X-H torsion
[ 10167 10162 10161 10158 ] final -137.00 input  -65.29 | X-H torsion
[ 10718 10713 10712 10709 ] final  -72.57 input   66.30 | X-H torsion
[ 10763 10752 10751 10750 ] final  -59.27 input  -60.55 | X-H torsion
[ 11005 11000 10999 10996 ] final  123.97 input  -57.11 | X-H torsion

> <Gold.Protein.ActiveResidues>
 VAL166  LYS551  ARG553  GLY616  TRP617  ASP618  TYR619  PRO620  LYS621  CYS622 
 ASP623  PHE694  ASN695  SER759  ASP760  ASP761  ALA762  ILE779  LEU786  VAL792 
 PHE793  MET794  SER795  GLU796  ALA797  LYS798  CYS799  TRP800  GLU811  SER814 

> <Gold.Protein.RotatedAtoms>
  152.4399  133.7429  159.6650 H   0  0  0  0  0  0  0  0  0  0  0  0  # atno 6907 bound_to 6896
  150.8288  133.8115  159.3113 H   0  0  0  0  0  0  0  0  0  0  0  0  # atno 6908 bound_to 6896
  151.5776  135.1062  160.0061 H   0  0  0  0  0  0  0  0  0  0  0  0  # atno 6909 bound_to 6896
  144.8791  139.5727  143.5851 H   0  0  0  0  0  0  0  0  0  0  0  0  # atno 7974 bound_to 7965
  154.7029  140.0526  157.0475 H   0  0  0  0  0  0  0  0  0  0  0  0  # atno 8008 bound_to 7997
  155.0660  140.3194  155.4626 H   0  0  0  0  0  0  0  0  0  0  0  0  # atno 8009 bound_to 7997
  156.2765  140.2090  156.5787 H   0  0  0  0  0  0  0  0  0  0  0  0  # atno 8010 bound_to 7997
  139.8621  143.7063  152.2649 H   0  0  0  0  0  0  0  0  0  0  0  0  # atno 10167 bound_to 10162
  156.0315  130.4375  150.2613 H   0  0  0  0  0  0  0  0  0  0  0  0  # atno 10718 bound_to 10713
  154.2511  135.6326  153.5240 H   0  0  0  0  0  0  0  0  0  0  0  0  # atno 10763 bound_to 10752
  152.9912  135.5565  154.5806 H   0  0  0  0  0  0  0  0  0  0  0  0  # atno 10764 bound_to 10752
  154.5334  135.2890  155.1135 H   0  0  0  0  0  0  0  0  0  0  0  0  # atno 10765 bound_to 10752
  139.9337  134.9640  156.8340 H   0  0  0  0  0  0  0  0  0  0  0  0  # atno 11005 bound_to 11000
  146.2982  139.7345  142.9110 LP  0  0  0  0  0  0  0  0  0  0  0  0  # atno 17320 bound_to 7965
  145.3987  141.0382  143.3082 LP  0  0  0  0  0  0  0  0  0  0  0  0  # atno 17321 bound_to 7965
  139.7363  144.7570  151.0722 LP  0  0  0  0  0  0  0  0  0  0  0  0  # atno 17342 bound_to 10162
  140.7773  143.5026  150.9752 LP  0  0  0  0  0  0  0  0  0  0  0  0  # atno 17343 bound_to 10162
  157.0715  131.0118  151.3188 LP  0  0  0  0  0  0  0  0  0  0  0  0  # atno 17370 bound_to 10713
  157.4996  130.7872  149.7591 LP  0  0  0  0  0  0  0  0  0  0  0  0  # atno 17371 bound_to 10713
  140.6133  134.0062  155.7586 LP  0  0  0  0  0  0  0  0  0  0  0  0  # atno 17394 bound_to 11000
  141.0940  133.9873  157.3191 LP  0  0  0  0  0  0  0  0  0  0  0  0  # atno 17395 bound_to 11000

$$$$
