AV-unprocessed.smi:37|AV-procd|sdf|312|dock4
  -GOLD-   2262016133D 1   1.00000     0.00000
 Structure written by MMmdl.
 44 45  0  0  0  0  0  0  0  0  1 V2000
  148.8169  131.9718  153.4558 C   0  0  0  0  0  0  0  0  0  0  0  0
  149.8231  132.7068  154.3516 C   0  0  0  0  0  0  0  0  0  0  0  0
  149.1580  133.7864  155.2026 C   0  0  0  0  0  0  0  0  0  0  0  0
  149.3343  134.9831  154.9736 O   0  0  0  0  0  0  0  0  0  0  0  0
  148.3886  133.2765  156.1769 O   0  0  0  0  0  0  0  0  0  0  0  0
  147.6376  134.1471  157.0060 C   0  0  0  0  0  0  0  0  0  0  0  0
  148.4731  134.5208  158.2367 C   0  0  1  0  0  0  0  0  0  0  0  0
  149.6734  135.1435  157.7827 O   0  0  0  0  0  0  0  0  0  0  0  0
  149.8248  136.3769  158.4084 C   0  0  1  0  0  0  0  0  0  0  0  0
  150.6020  137.3319  157.5265 N   0  0  0  0  0  0  0  0  0  0  0  0
  150.1491  137.5844  156.2393 C   0  0  0  0  0  0  0  0  0  0  0  0
  150.7676  138.4382  155.3901 C   0  0  0  0  0  0  0  0  0  0  0  0
  150.2703  138.6224  154.1552 F   0  0  0  0  0  0  0  0  0  0  0  0
  151.9673  139.1595  155.8030 C   0  0  0  0  0  0  0  0  0  0  0  0
  152.5998  139.9497  155.1053 O   0  0  0  0  0  0  0  0  0  0  0  0
  152.3795  138.8902  157.1109 N   0  0  0  0  0  0  0  0  0  0  0  0
  151.7492  138.0160  157.9983 C   0  0  0  0  0  0  0  0  0  0  0  0
  152.1992  137.8783  159.1348 O   0  0  0  0  0  0  0  0  0  0  0  0
  148.4340  136.8574  158.8473 C   0  0  1  0  0  0  0  0  0  0  0  0
  147.3649  137.7894  157.4423 Br  0  0  0  0  0  0  0  0  0  0  0  0
  147.7665  135.5278  159.1642 C   0  0  2  0  0  0  0  0  0  0  0  0
  148.0150  135.1499  160.5141 O   0  0  0  0  0  0  0  0  0  0  0  0
  147.5558  135.9056  161.5292 C   0  0  0  0  0  0  0  0  0  0  0  0
  147.3851  137.1244  161.5020 O   0  0  0  0  0  0  0  0  0  0  0  0
  147.2674  135.0900  162.7876 C   0  0  0  0  0  0  0  0  0  0  0  0
  146.0974  134.1162  162.5926 C   0  0  0  0  0  0  0  0  0  0  0  0
  153.2005  139.3736  157.4446 H   0  0  0  0  0  0  0  0  0  0  0  0
  149.3090  131.1728  152.9015 H   0  0  0  0  0  0  0  0  0  0  0  0
  148.3625  132.6452  152.7283 H   0  0  0  0  0  0  0  0  0  0  0  0
  148.0166  131.5214  154.0441 H   0  0  0  0  0  0  0  0  0  0  0  0
  150.3187  131.9948  155.0121 H   0  0  0  0  0  0  0  0  0  0  0  0
  150.6008  133.1669  153.7417 H   0  0  0  0  0  0  0  0  0  0  0  0
  147.3847  135.0461  156.4424 H   0  0  0  0  0  0  0  0  0  0  0  0
  146.7006  133.6766  157.3059 H   0  0  0  0  0  0  0  0  0  0  0  0
  148.7383  133.6106  158.7767 H   0  0  0  0  0  0  0  0  0  0  0  0
  150.4657  136.1962  159.2735 H   0  0  0  0  0  0  0  0  0  0  0  0
  149.2661  137.0725  155.8838 H   0  0  0  0  0  0  0  0  0  0  0  0
  148.5096  137.5298  159.7023 H   0  0  0  0  0  0  0  0  0  0  0  0
  146.6912  135.5562  158.9801 H   0  0  0  0  0  0  0  0  0  0  0  0
  148.1679  134.5429  163.0672 H   0  0  0  0  0  0  0  0  0  0  0  0
  147.0456  135.7741  163.6072 H   0  0  0  0  0  0  0  0  0  0  0  0
  145.8872  133.5795  163.5177 H   0  0  0  0  0  0  0  0  0  0  0  0
  146.3174  133.3741  161.8244 H   0  0  0  0  0  0  0  0  0  0  0  0
  145.1874  134.6426  162.3019 H   0  0  0  0  0  0  0  0  0  0  0  0
  1  2  1  0  0  0  0
  1 28  1  0  0  0  0
  1 29  1  0  0  0  0
  1 30  1  0  0  0  0
  2  3  1  0  0  0  0
  2 31  1  0  0  0  0
  2 32  1  0  0  0  0
  3  4  2  0  0  0  0
  3  5  1  0  0  0  0
  5  6  1  0  0  0  0
  6  7  1  0  0  0  0
  6 33  1  0  0  0  0
  6 34  1  0  0  0  0
  7 21  1  0  0  0  0
  7  8  1  0  0  0  0
  7 35  1  0  0  0  0
  8  9  1  0  0  0  0
  9 10  1  0  0  0  0
  9 19  1  0  0  0  0
  9 36  1  0  0  0  0
 10 17  1  0  0  0  0
 10 11  1  0  0  0  0
 11 12  2  0  0  0  0
 11 37  1  0  0  0  0
 12 13  1  0  0  0  0
 12 14  1  0  0  0  0
 14 15  2  0  0  0  0
 14 16  1  0  0  0  0
 16 27  1  0  0  0  0
 16 17  1  0  0  0  0
 17 18  2  0  0  0  0
 19 20  1  0  0  0  0
 19 21  1  0  0  0  0
 19 38  1  0  0  0  0
 21 22  1  0  0  0  0
 21 39  1  0  0  0  0
 22 23  1  0  0  0  0
 23 24  2  0  0  0  0
 23 25  1  0  0  0  0
 25 26  1  0  0  0  0
 25 40  1  0  0  0  0
 25 41  1  0  0  0  0
 26 42  1  0  0  0  0
 26 43  1  0  0  0  0
 26 44  1  0  0  0  0
M  END
> <s_m_source_file>
AV-unprocessed.smi

> <i_m_source_file_index>
37

> <i_lp_mmshare_version>
43012

> <i_f3d_flags>
0

> <s_epik_input>
W0NIM11bQ0gyXUMoPU8pT1tDSDJdW0NAQEhdMU9bQ0BASF0objJbY0hdYyhGKWMoPU8pW25IXWMyPU8pW0NAQEhdKEJyKVtDQEhdMU9DKD1PKVtDSDJdW0NIM10=

> <s_epik_cmdline>
J2VwaWtfcHl0aG9uJywgJy1waCcsICc3LjAnLCAnLXRuJywgJzgnLCAnLW1hJywgJzIwMCcsICctbWV0YWxfYmluZGluZycsICctaW1hZScsICc8aW5maWxlLm1hZT4nLCAnLW9tYWUnLCAnPG91dGZpbGUubWFlPic=

> <r_lp_tautomer_probability>
0.999537

> <r_epik_Ionization_Penalty>
0.104106

> <r_epik_Ionization_Penalty_Charging>
0.104106

> <r_epik_Ionization_Penalty_Neutral>
3.94675e-16

> <r_epik_State_Penalty>
0.0940182

> <r_epik_Charging_Adjusted_Penalty>
0.198124

> <i_epik_Tot_Q>
0

> <i_epik_Tot_abs_Q>
0

> <r_epik_Metal_State_Penalty>
3.05314

> <b_epik_Metal_Only>
0

> <s_epik_Chemistry_Notes>
This compound has an ester and may undergo hydrolysis at high or low pH. This compound contains an acetal/aminal-like group ( X-CH(R)-Y where X, Y are N, S, or O) that may be acid/base labile, releasing an aldehyde.

> <s_lp_Force_Field>
OPLS_2005

> <r_lp_Energy>
23.0288

> <b_lp_Chiralities_Consistent>
1

> <s_lp_Variant>
AV-unprocessed.smi:37-10

> <Gold.Version>
5.8.1

> <Gold.Id.Protein>
6NUR|6NUR_protein|mol2

> <Gold.PLP.Fitness>
45.0062

> <Gold.PLP.PLP>
-36.1361

> <Gold.PLP.part.hbond>
-5.0000

> <Gold.PLP.part.metal>
0.0000

> <Gold.PLP.part.buried>
-4.6646

> <Gold.PLP.part.nonpolar>
-27.7469

> <Gold.PLP.part.repulsive>
0.2501

> <Gold.PLP.ligand.clash>
0.0000

> <Gold.PLP.ligand.torsion>
0.8615

> <Gold.PLP.Chemscore.Hbond>
3.4709

> <Gold.PLP.Chemscore.CHOScore>
0.0000

> <Gold.PLP.Chemscore.Metal>
0.0000

> <Gold.Chemscore.Hbonds>
donor molecule, donor type, donor heavy atom, donor atom, acceptor molecule, acceptor atom, score
      P1  H  6896  6909       L1     8  0.14
      P1  H  6931  6943       L1    24  0.94
      P1  H  6934  6947       L1    24  0.91
      P1  H  7989  7998       L1    15  0.50
      P1  H  7997  8009       L1    15  1.00

> <Gold.PLP.Chemscore.Internal.Correction>
0.1804

> <Gold.Rescore>
     Score         DG    S(hbond)    S(metal)    S(lipo)     H(rot)  DE(clash)    DE(int)     intcor
      9.89     -12.22       2.83        0.00      49.64       3.33       0.02       2.31       ----

> <Gold.Chemscore.Fitness>
9.8885

> <Gold.Chemscore.DG>
-12.2211

> <Gold.Chemscore.ZeroCoef>
-5.4800

> <Gold.Chemscore.Hbond>
2.8319

> <Gold.Chemscore.Metal>
0.0000

> <Gold.Chemscore.Lipo>
49.6434

> <Gold.Chemscore.Internal_Hbond>
0.0000

> <Gold.Chemscore.DEClash>
0.0221

> <Gold.Chemscore.DEInternal>
2.3105

> <Gold.Chemscore.Rot>
3.3303

> <Gold.Chemscore.Internal.Correction>
   9.000000E+99

> <Gold.Chemscore.Hbonds>
donor molecule, donor type, donor heavy atom, donor atom, acceptor molecule, acceptor atom, score
      P1  H  6931  6943       L1    24  0.78
      P1  H  6934  6947       L1    24  0.87
      P1  H  7989  7998       L1    15  0.47
      P1  H  7997  8009       L1    15  0.47

> <Gold.Chemscore.Hbond.Weighted>
-9.4585

> <Gold.Chemscore.Metal.Weighted>
-0.0000

> <Gold.Chemscore.Lipo.Weighted>
-5.8083

> <Gold.Chemscore.Internal_Hbond.Weighted>
0.0000

> <Gold.Chemscore.DEClash.Weighted>
0.0221

> <Gold.Chemscore.DEInternal.Weighted>
2.3105

> <Gold.Chemscore.Rot.Weighted>
8.5256

> <Gold.Chemscore.Internal.Correction.Weighted>
   9.000000E+99

> <Gold.Protein.RotatedTorsions>
[ 6907 6896 6895 6894 ] final   33.41 input  -60.11 | X-H torsion
[ 7974 7965 7964 7962 ] final   49.26 input  175.53 | X-H torsion
[ 8008 7997 7996 7995 ] final -146.64 input   59.86 | X-H torsion
[ 10167 10162 10161 10158 ] final   76.33 input  -65.29 | X-H torsion
[ 10718 10713 10712 10709 ] final -161.42 input   66.30 | X-H torsion
[ 10763 10752 10751 10750 ] final  -94.72 input  -60.55 | X-H torsion
[ 11005 11000 10999 10996 ] final  120.49 input  -57.11 | X-H torsion

> <Gold.Protein.ActiveResidues>
 VAL166  LYS551  ARG553  GLY616  TRP617  ASP618  TYR619  PRO620  LYS621  CYS622 
 ASP623  PHE694  ASN695  SER759  ASP760  ASP761  ALA762  ILE779  LEU786  VAL792 
 PHE793  MET794  SER795  GLU796  ALA797  LYS798  CYS799  TRP800  GLU811  SER814 

> <Gold.Protein.RotatedAtoms>
  152.0882  134.9425  160.0572 H   0  0  0  0  0  0  0  0  0  0  0  0  # atno 6907 bound_to 6896
  152.0687  133.4091  159.4458 H   0  0  0  0  0  0  0  0  0  0  0  0  # atno 6908 bound_to 6896
  150.6836  134.3036  159.4760 H   0  0  0  0  0  0  0  0  0  0  0  0  # atno 6909 bound_to 6896
  146.0126  139.4560  142.9947 H   0  0  0  0  0  0  0  0  0  0  0  0  # atno 7974 bound_to 7965
  155.5626  140.0627  157.2825 H   0  0  0  0  0  0  0  0  0  0  0  0  # atno 8008 bound_to 7997
  154.4385  140.1883  156.0844 H   0  0  0  0  0  0  0  0  0  0  0  0  # atno 8009 bound_to 7997
  156.0435  140.3293  155.7274 H   0  0  0  0  0  0  0  0  0  0  0  0  # atno 8010 bound_to 7997
  139.9934  144.5740  150.7798 H   0  0  0  0  0  0  0  0  0  0  0  0  # atno 10167 bound_to 10162
  156.5960  130.8790  151.2902 H   0  0  0  0  0  0  0  0  0  0  0  0  # atno 10718 bound_to 10713
  154.7082  135.5147  153.8626 H   0  0  0  0  0  0  0  0  0  0  0  0  # atno 10763 bound_to 10752
  153.0758  135.6616  154.0157 H   0  0  0  0  0  0  0  0  0  0  0  0  # atno 10764 bound_to 10752
  154.0004  135.3011  155.3383 H   0  0  0  0  0  0  0  0  0  0  0  0  # atno 10765 bound_to 10752
  139.9187  134.9635  156.7815 H   0  0  0  0  0  0  0  0  0  0  0  0  # atno 11005 bound_to 11000
  145.7319  141.0039  143.1347 LP  0  0  0  0  0  0  0  0  0  0  0  0  # atno 17320 bound_to 7965
  144.6958  139.8994  143.7457 LP  0  0  0  0  0  0  0  0  0  0  0  0  # atno 17321 bound_to 7965
  140.7446  143.2863  151.3454 LP  0  0  0  0  0  0  0  0  0  0  0  0  # atno 17342 bound_to 10162
  139.6324  144.0696  152.2487 LP  0  0  0  0  0  0  0  0  0  0  0  0  # atno 17343 bound_to 10162
  157.7291  130.9667  150.1774 LP  0  0  0  0  0  0  0  0  0  0  0  0  # atno 17370 bound_to 10713
  156.2509  130.3700  149.8233 LP  0  0  0  0  0  0  0  0  0  0  0  0  # atno 17371 bound_to 10713
  140.6540  133.9705  155.7770 LP  0  0  0  0  0  0  0  0  0  0  0  0  # atno 17394 bound_to 11000
  141.0688  134.0236  157.3555 LP  0  0  0  0  0  0  0  0  0  0  0  0  # atno 17395 bound_to 11000

$$$$
