AV-unprocessed.smi:824|AV-procd|sdf|3849|dock2
  -GOLD-   22720 1293D 1   1.00000     0.00000
 Structure written by MMmdl.
 52 53  0  0  0  0  0  0  0  0  1 V2000
  147.6936  142.1856  154.1840 C   0  0  0  0  0  0  0  0  0  0  0  0
  148.9085  141.4674  154.7451 C   0  0  0  0  0  0  0  0  0  0  0  0
  149.5575  142.1439  155.7618 N   0  0  0  0  0  0  0  0  0  0  0  0
  150.6850  141.5763  156.3418 C   0  0  0  0  0  0  0  0  0  0  0  0
  151.2535  142.3409  157.3579 N   0  0  0  0  0  0  0  0  0  0  0  0
  151.2108  141.8449  158.7330 C   0  0  0  0  0  0  0  0  0  0  0  0
  152.2544  142.5521  159.6141 C   0  0  0  0  0  0  0  0  0  0  0  0
  152.0571  143.9586  159.5540 O   0  0  0  0  0  0  0  0  0  0  0  0
  152.2150  144.4501  158.2293 C   0  0  0  0  0  0  0  0  0  0  0  0
  151.1685  143.8001  157.3089 C   0  0  0  0  0  0  0  0  0  0  0  0
  151.1680  140.4234  155.9780 N   0  0  0  0  0  0  0  0  0  0  0  0
  150.5583  139.6922  154.9476 C   0  0  0  0  0  0  0  0  0  0  0  0
  151.0195  138.6077  154.5950 O   0  0  0  0  0  0  0  0  0  0  0  0
  149.3588  140.2684  154.3048 C   0  0  0  0  0  0  0  0  0  0  0  0
  148.6788  139.4810  153.1881 C   0  0  0  0  0  0  0  0  0  0  0  0
  147.2259  139.1106  153.5468 C   0  0  0  0  0  0  0  0  0  0  0  0
  146.5176  138.2579  152.4774 C   0  0  0  0  0  0  0  0  0  0  0  0
  146.7964  138.4384  151.2903 O   0  0  0  0  0  0  0  0  0  0  0  0
  145.5865  137.3504  152.8620 N   0  0  0  0  0  0  0  0  0  0  0  0
  145.3614  137.0966  154.2892 C   0  0  0  0  0  0  0  0  0  0  0  0
  144.7991  136.5182  151.9375 C   0  0  0  0  0  0  0  0  0  0  0  0
  145.4083  135.1132  151.7098 C   0  0  0  0  0  0  0  0  0  0  0  0
  144.6347  134.2887  150.6668 C   0  0  0  0  0  0  0  0  0  0  0  0
  145.5034  134.3461  153.0369 C   0  0  0  0  0  0  0  0  0  0  0  0
  149.1820  143.0348  156.0529 H   0  0  0  0  0  0  0  0  0  0  0  0
  147.7918  142.3168  153.1061 H   0  0  0  0  0  0  0  0  0  0  0  0
  147.5674  143.1723  154.6311 H   0  0  0  0  0  0  0  0  0  0  0  0
  146.7885  141.6105  154.3807 H   0  0  0  0  0  0  0  0  0  0  0  0
  151.3839  140.7687  158.7653 H   0  0  0  0  0  0  0  0  0  0  0  0
  150.2112  142.0143  159.1353 H   0  0  0  0  0  0  0  0  0  0  0  0
  152.1553  142.2245  160.6491 H   0  0  0  0  0  0  0  0  0  0  0  0
  153.2673  142.3000  159.2962 H   0  0  0  0  0  0  0  0  0  0  0  0
  152.0889  145.5327  158.2351 H   0  0  0  0  0  0  0  0  0  0  0  0
  153.2260  144.2485  157.8716 H   0  0  0  0  0  0  0  0  0  0  0  0
  150.1659  144.1094  157.6079 H   0  0  0  0  0  0  0  0  0  0  0  0
  151.3190  144.1506  156.2867 H   0  0  0  0  0  0  0  0  0  0  0  0
  149.2478  138.5755  152.9774 H   0  0  0  0  0  0  0  0  0  0  0  0
  148.7103  140.0608  152.2641 H   0  0  0  0  0  0  0  0  0  0  0  0
  147.2319  138.5816  154.4979 H   0  0  0  0  0  0  0  0  0  0  0  0
  146.6458  140.0220  153.6954 H   0  0  0  0  0  0  0  0  0  0  0  0
  145.1555  138.0258  154.8227 H   0  0  0  0  0  0  0  0  0  0  0  0
  146.2427  136.6349  154.7364 H   0  0  0  0  0  0  0  0  0  0  0  0
  144.5143  136.4339  154.4684 H   0  0  0  0  0  0  0  0  0  0  0  0
  143.7748  136.4248  152.2995 H   0  0  0  0  0  0  0  0  0  0  0  0
  144.6950  137.0270  150.9781 H   0  0  0  0  0  0  0  0  0  0  0  0
  146.4248  135.2257  151.3347 H   0  0  0  0  0  0  0  0  0  0  0  0
  143.5908  134.1622  150.9556 H   0  0  0  0  0  0  0  0  0  0  0  0
  145.0694  133.2953  150.5516 H   0  0  0  0  0  0  0  0  0  0  0  0
  144.6563  134.7624  149.6855 H   0  0  0  0  0  0  0  0  0  0  0  0
  144.5169  134.1828  153.4720 H   0  0  0  0  0  0  0  0  0  0  0  0
  146.1026  134.8931  153.7652 H   0  0  0  0  0  0  0  0  0  0  0  0
  145.9705  133.3710  152.8958 H   0  0  0  0  0  0  0  0  0  0  0  0
  1 26  1  0  0  0  0
  1 27  1  0  0  0  0
  1 28  1  0  0  0  0
  1  2  1  0  0  0  0
  2 14  2  0  0  0  0
  2  3  1  0  0  0  0
  3 25  1  0  0  0  0
  3  4  1  0  0  0  0
  4  5  1  0  0  0  0
  4 11  2  0  0  0  0
  5 10  1  0  0  0  0
  5  6  1  0  0  0  0
  6  7  1  0  0  0  0
  6 29  1  0  0  0  0
  6 30  1  0  0  0  0
  7  8  1  0  0  0  0
  7 31  1  0  0  0  0
  7 32  1  0  0  0  0
  8  9  1  0  0  0  0
  9 10  1  0  0  0  0
  9 33  1  0  0  0  0
  9 34  1  0  0  0  0
 10 35  1  0  0  0  0
 10 36  1  0  0  0  0
 11 12  1  0  0  0  0
 12 13  2  0  0  0  0
 12 14  1  0  0  0  0
 14 15  1  0  0  0  0
 15 16  1  0  0  0  0
 15 37  1  0  0  0  0
 15 38  1  0  0  0  0
 16 17  1  0  0  0  0
 16 39  1  0  0  0  0
 16 40  1  0  0  0  0
 17 18  2  0  0  0  0
 17 19  1  0  0  0  0
 19 20  1  0  0  0  0
 19 21  1  0  0  0  0
 20 41  1  0  0  0  0
 20 42  1  0  0  0  0
 20 43  1  0  0  0  0
 21 22  1  0  0  0  0
 21 44  1  0  0  0  0
 21 45  1  0  0  0  0
 22 23  1  0  0  0  0
 22 24  1  0  0  0  0
 22 46  1  0  0  0  0
 23 47  1  0  0  0  0
 23 48  1  0  0  0  0
 23 49  1  0  0  0  0
 24 50  1  0  0  0  0
 24 51  1  0  0  0  0
 24 52  1  0  0  0  0
M  END
> <s_m_source_file>
AV-unprocessed.smi

> <i_m_source_file_index>
824

> <i_lp_mmshare_version>
43012

> <i_f3d_flags>
0

> <s_epik_input>
W0NIMl0xW0NIMl1PW0NIMl1bQ0gyXU4xYyhuYzJbQ0gzXSlbbkhdYyg9TyljMltDSDJdW0NIMl1DKD1PKU4oW0NIM10pW0NIMl1bQ0hdKFtDSDNdKVtDSDNd

> <s_epik_cmdline>
J2VwaWtfcHl0aG9uJywgJy1waCcsICc3LjAnLCAnLXRuJywgJzgnLCAnLW1hJywgJzIwMCcsICctbWV0YWxfYmluZGluZycsICctaW1hZScsICc8aW5maWxlLm1hZT4nLCAnLW9tYWUnLCAnPG91dGZpbGUubWFlPic=

> <r_lp_tautomer_probability>
0.108306

> <r_epik_Ionization_Penalty>
0.0729191

> <r_epik_Ionization_Penalty_Charging>
0.0597558

> <r_epik_Ionization_Penalty_Neutral>
0.0131634

> <r_epik_State_Penalty>
1.71329

> <r_epik_Charging_Adjusted_Penalty>
1.77304

> <i_epik_Tot_Q>
0

> <i_epik_Tot_abs_Q>
0

> <r_epik_Metal_State_Penalty>
2.71696

> <b_epik_Metal_Only>
0

> <s_lp_Force_Field>
OPLS_2005

> <r_lp_Energy>
37.7489

> <b_lp_Chiralities_Consistent>
1

> <s_lp_Variant>
AV-unprocessed.smi:824-2

> <Gold.Version>
5.8.1

> <Gold.Id.Protein>
6NUR|6NUR_protein|mol2

> <Gold.PLP.Fitness>
45.7922

> <Gold.PLP.PLP>
-42.7363

> <Gold.PLP.part.hbond>
-2.0409

> <Gold.PLP.part.metal>
0.0000

> <Gold.PLP.part.buried>
5.7533

> <Gold.PLP.part.nonpolar>
-46.3208

> <Gold.PLP.part.repulsive>
0.7364

> <Gold.PLP.ligand.clash>
0.0000

> <Gold.PLP.ligand.torsion>
1.5440

> <Gold.PLP.Chemscore.Hbond>
1.9280

> <Gold.PLP.Chemscore.CHOScore>
0.0000

> <Gold.PLP.Chemscore.Metal>
0.0000

> <Gold.Chemscore.Hbonds>
donor molecule, donor type, donor heavy atom, donor atom, acceptor molecule, acceptor atom, score
      L1  H     3    25       P1  8028  0.96
      P1  H  7954  7966       L1    18  0.99

> <Gold.PLP.Chemscore.Internal.Correction>
0.3598

> <Gold.Rescore>
     Score         DG    S(hbond)    S(metal)    S(lipo)     H(rot)  DE(clash)    DE(int)     intcor
     14.77     -19.22       1.88        0.00     101.17       1.71       2.70       1.76       ----

> <Gold.Chemscore.Fitness>
14.7675

> <Gold.Chemscore.DG>
-19.2222

> <Gold.Chemscore.ZeroCoef>
-5.4800

> <Gold.Chemscore.Hbond>
1.8808

> <Gold.Chemscore.Metal>
0.0000

> <Gold.Chemscore.Lipo>
101.1652

> <Gold.Chemscore.Internal_Hbond>
0.0000

> <Gold.Chemscore.DEClash>
2.6978

> <Gold.Chemscore.DEInternal>
1.7569

> <Gold.Chemscore.Rot>
1.7093

> <Gold.Chemscore.Internal.Correction>
   9.000000E+99

> <Gold.Chemscore.Hbonds>
donor molecule, donor type, donor heavy atom, donor atom, acceptor molecule, acceptor atom, score
      L1  H     3    25       P1  8028  0.92
      P1  H  7954  7966       L1    18  0.92

> <Gold.Chemscore.Hbond.Weighted>
-6.2818

> <Gold.Chemscore.Metal.Weighted>
-0.0000

> <Gold.Chemscore.Lipo.Weighted>
-11.8363

> <Gold.Chemscore.Internal_Hbond.Weighted>
0.0000

> <Gold.Chemscore.DEClash.Weighted>
2.6978

> <Gold.Chemscore.DEInternal.Weighted>
1.7569

> <Gold.Chemscore.Rot.Weighted>
4.3759

> <Gold.Chemscore.Internal.Correction.Weighted>
   9.000000E+99

> <Gold.Protein.RotatedTorsions>
[ 6907 6896 6895 6894 ] final  165.46 input  -60.11 | X-H torsion
[ 7974 7965 7964 7962 ] final  -84.40 input  175.53 | X-H torsion
[ 8008 7997 7996 7995 ] final   83.14 input   59.86 | X-H torsion
[ 10167 10162 10161 10158 ] final  -35.07 input  -65.29 | X-H torsion
[ 10718 10713 10712 10709 ] final  151.45 input   66.30 | X-H torsion
[ 10763 10752 10751 10750 ] final  -10.83 input  -60.55 | X-H torsion
[ 11005 11000 10999 10996 ] final  -28.89 input  -57.11 | X-H torsion

> <Gold.Protein.ActiveResidues>
 VAL166  LYS551  ARG553  GLY616  TRP617  ASP618  TYR619  PRO620  LYS621  CYS622 
 ASP623  PHE694  ASN695  SER759  ASP760  ASP761  ALA762  ILE779  LEU786  VAL792 
 PHE793  MET794  SER795  GLU796  ALA797  LYS798  CYS799  TRP800  GLU811  SER814 

> <Gold.Protein.RotatedAtoms>
  151.8940  133.3522  159.3807 H   0  0  0  0  0  0  0  0  0  0  0  0  # atno 6907 bound_to 6896
  150.7096  134.4895  159.5518 H   0  0  0  0  0  0  0  0  0  0  0  0  # atno 6908 bound_to 6896
  152.2470  134.8171  160.0502 H   0  0  0  0  0  0  0  0  0  0  0  0  # atno 6909 bound_to 6896
  145.5071  140.9543  143.1728 H   0  0  0  0  0  0  0  0  0  0  0  0  # atno 7974 bound_to 7965
  155.9199  140.3422  155.6165 H   0  0  0  0  0  0  0  0  0  0  0  0  # atno 8008 bound_to 7997
  155.7286  140.0792  157.2318 H   0  0  0  0  0  0  0  0  0  0  0  0  # atno 8009 bound_to 7997
  154.4068  140.1592  156.2470 H   0  0  0  0  0  0  0  0  0  0  0  0  # atno 8010 bound_to 7997
  140.7173  143.3503  151.2169 H   0  0  0  0  0  0  0  0  0  0  0  0  # atno 10167 bound_to 10162
  157.2706  131.0816  151.1602 H   0  0  0  0  0  0  0  0  0  0  0  0  # atno 10718 bound_to 10713
  153.4749  135.7017  153.5972 H   0  0  0  0  0  0  0  0  0  0  0  0  # atno 10763 bound_to 10752
  153.4210  135.3825  155.2111 H   0  0  0  0  0  0  0  0  0  0  0  0  # atno 10764 bound_to 10752
  154.8724  135.3927  154.4191 H   0  0  0  0  0  0  0  0  0  0  0  0  # atno 10765 bound_to 10752
  140.9248  133.7376  156.0852 H   0  0  0  0  0  0  0  0  0  0  0  0  # atno 11005 bound_to 11000
  144.7748  139.6655  143.7179 LP  0  0  0  0  0  0  0  0  0  0  0  0  # atno 17320 bound_to 7965
  146.2190  139.5601  142.9631 LP  0  0  0  0  0  0  0  0  0  0  0  0  # atno 17321 bound_to 7965
  139.7033  143.9497  152.2915 LP  0  0  0  0  0  0  0  0  0  0  0  0  # atno 17342 bound_to 10162
  139.9198  144.6807  150.8474 LP  0  0  0  0  0  0  0  0  0  0  0  0  # atno 17343 bound_to 10162
  157.3076  130.6873  149.6198 LP  0  0  0  0  0  0  0  0  0  0  0  0  # atno 17370 bound_to 10713
  155.9663  130.4373  150.5171 LP  0  0  0  0  0  0  0  0  0  0  0  0  # atno 17371 bound_to 10713
  140.7940  134.3584  157.5457 LP  0  0  0  0  0  0  0  0  0  0  0  0  # atno 17394 bound_to 11000
  139.8783  134.9158  156.3139 LP  0  0  0  0  0  0  0  0  0  0  0  0  # atno 17395 bound_to 11000

$$$$
