AV-unprocessed.smi:1240|AV-procd|sdf|5209|dock3
  -GOLD-   22720 4303D 1   1.00000     0.00000
 Structure written by MMmdl.
 49 51  0  0  0  0  0  0  0  0  3 V2000
  145.0047  136.0934  154.0222 O   0  0  0  0  0  0  0  0  0  0  0  0
  146.0510  136.0584  153.3756 C   0  0  0  0  0  0  0  0  0  0  0  0
  147.1285  136.7930  153.6820 N   0  0  0  0  0  0  0  0  0  0  0  0
  147.1820  137.7459  154.7870 C   0  0  0  0  0  0  0  0  0  0  0  0
  147.9811  139.0211  154.4144 C   0  0  2  0  0  0  0  0  0  0  0  0
  149.3692  139.0572  155.1360 C   0  0  1  0  0  0  0  0  0  0  0  0
  150.4427  138.1989  154.4749 C   0  0  0  0  0  0  0  0  0  0  0  0
  151.7308  138.8252  154.9818 C   0  0  0  0  0  0  0  0  0  0  0  0
  151.4586  140.2119  154.9015 O   0  0  0  0  0  0  0  0  0  0  0  0
  150.0743  140.4310  155.1519 C   0  0  0  0  0  0  0  0  0  0  0  0
  147.0929  140.2115  154.6440 N   0  3  0  0  0  0  0  0  0  0  0  0
  146.8003  140.6083  156.0464 C   0  0  0  0  0  0  0  0  0  0  0  0
  145.7847  141.7637  156.0804 C   0  0  0  0  0  0  0  0  0  0  0  0
  146.2838  142.8656  155.3353 O   0  0  0  0  0  0  0  0  0  0  0  0
  146.4890  142.5296  153.9701 C   0  0  0  0  0  0  0  0  0  0  0  0
  147.5306  141.4032  153.8707 C   0  0  0  0  0  0  0  0  0  0  0  0
  146.2737  135.2822  152.3008 N   0  0  0  0  0  0  0  0  0  0  0  0
  145.3719  134.3905  151.6585 C   0  0  0  0  0  0  0  0  0  0  0  0
  144.0259  134.3957  152.0872 C   0  0  0  0  0  0  0  0  0  0  0  0
  143.1017  133.5157  151.4876 C   0  0  0  0  0  0  0  0  0  0  0  0
  143.5108  132.6687  150.5188 N   0  3  0  0  0  0  0  0  0  0  0  0
  144.7893  132.6158  150.0875 C   0  0  0  0  0  0  0  0  0  0  0  0
  145.7582  133.4721  150.6492 C   0  0  0  0  0  0  0  0  0  0  0  0
  147.9488  136.7126  153.0992 H   0  0  0  0  0  0  0  0  0  0  0  0
  146.1666  137.9974  155.0951 H   0  0  0  0  0  0  0  0  0  0  0  0
  147.6267  137.2533  155.6519 H   0  0  0  0  0  0  0  0  0  0  0  0
  148.1926  138.9657  153.3451 H   0  0  0  0  0  0  0  0  0  0  0  0
  149.2689  138.6958  156.1605 H   0  0  0  0  0  0  0  0  0  0  0  0
  150.3679  137.1418  154.7324 H   0  0  0  0  0  0  0  0  0  0  0  0
  150.3963  138.2914  153.3887 H   0  0  0  0  0  0  0  0  0  0  0  0
  151.9174  138.5479  156.0205 H   0  0  0  0  0  0  0  0  0  0  0  0
  152.6014  138.5495  154.3863 H   0  0  0  0  0  0  0  0  0  0  0  0
  149.6868  141.0993  154.3825 H   0  0  0  0  0  0  0  0  0  0  0  0
  149.9608  140.9273  156.1155 H   0  0  0  0  0  0  0  0  0  0  0  0
  146.3778  139.7759  156.6073 H   0  0  0  0  0  0  0  0  0  0  0  0
  147.7187  140.9214  156.5437 H   0  0  0  0  0  0  0  0  0  0  0  0
  144.8193  141.4469  155.6822 H   0  0  0  0  0  0  0  0  0  0  0  0
  145.6148  142.0832  157.1086 H   0  0  0  0  0  0  0  0  0  0  0  0
  145.5461  142.2329  153.5073 H   0  0  0  0  0  0  0  0  0  0  0  0
  146.8407  143.4141  153.4388 H   0  0  0  0  0  0  0  0  0  0  0  0
  148.4912  141.7524  154.2532 H   0  0  0  0  0  0  0  0  0  0  0  0
  147.6830  141.1505  152.8221 H   0  0  0  0  0  0  0  0  0  0  0  0
  147.2127  135.2908  151.9305 H   0  0  0  0  0  0  0  0  0  0  0  0
  143.6979  135.0715  152.8638 H   0  0  0  0  0  0  0  0  0  0  0  0
  142.0559  133.4635  151.7531 H   0  0  0  0  0  0  0  0  0  0  0  0
  144.9994  131.8906  149.3148 H   0  0  0  0  0  0  0  0  0  0  0  0
  146.7785  133.3989  150.3044 H   0  0  0  0  0  0  0  0  0  0  0  0
  146.1975  139.9438  154.2613 H   0  0  0  0  0  0  0  0  0  0  0  0
  142.8266  132.0390  150.0985 H   0  0  0  0  0  0  0  0  0  0  0  0
  1  2  2  0  0  0  0
  2  3  1  0  0  0  0
  2 17  1  0  0  0  0
  3  4  1  0  0  0  0
  3 24  1  0  0  0  0
  4  5  1  0  0  0  0
  4 25  1  0  0  0  0
  4 26  1  0  0  0  0
  5  6  1  0  0  0  0
  5 11  1  0  0  0  0
  5 27  1  0  0  0  0
  6 10  1  0  0  0  0
  6  7  1  0  0  0  0
  6 28  1  0  0  0  0
  7  8  1  0  0  0  0
  7 29  1  0  0  0  0
  7 30  1  0  0  0  0
  8  9  1  0  0  0  0
  8 31  1  0  0  0  0
  8 32  1  0  0  0  0
  9 10  1  0  0  0  0
 10 33  1  0  0  0  0
 10 34  1  0  0  0  0
 11 16  1  0  0  0  0
 11 12  1  0  0  0  0
 11 48  1  0  0  0  0
 12 13  1  0  0  0  0
 12 35  1  0  0  0  0
 12 36  1  0  0  0  0
 13 14  1  0  0  0  0
 13 37  1  0  0  0  0
 13 38  1  0  0  0  0
 14 15  1  0  0  0  0
 15 16  1  0  0  0  0
 15 39  1  0  0  0  0
 15 40  1  0  0  0  0
 16 41  1  0  0  0  0
 16 42  1  0  0  0  0
 17 18  1  0  0  0  0
 17 43  1  0  0  0  0
 18 23  1  0  0  0  0
 18 19  2  0  0  0  0
 19 20  1  0  0  0  0
 19 44  1  0  0  0  0
 20 21  2  0  0  0  0
 20 45  1  0  0  0  0
 21 22  1  0  0  0  0
 21 49  1  0  0  0  0
 22 23  2  0  0  0  0
 22 46  1  0  0  0  0
 23 47  1  0  0  0  0
M  CHG  1  11   1
M  CHG  1  21   1
M  END
> <s_m_source_file>
AV-unprocessed.smi

> <i_m_source_file_index>
1240

> <i_lp_mmshare_version>
43012

> <i_f3d_flags>
0

> <s_epik_input>
W2NIXTFbY0hdbltjSF1bY0hdYzFbTkhdQyg9TylbTkhdW0NIMl1bQ0BIXShbQ0BASF0yW0NIMl1bQ0gyXU9bQ0gyXTIpTjNbQ0gyXVtDSDJdT1tDSDJdW0NIMl0z

> <s_epik_cmdline>
J2VwaWtfcHl0aG9uJywgJy1waCcsICc3LjAnLCAnLXRuJywgJzgnLCAnLW1hJywgJzIwMCcsICctbWV0YWxfYmluZGluZycsICctaW1hZScsICc8aW5maWxlLm1hZT4nLCAnLW9tYWUnLCAnPG91dGZpbGUubWFlPic=

> <r_epik_Ionization_Penalty>
2.08105

> <r_epik_Ionization_Penalty_Charging>
2.08103

> <r_epik_Ionization_Penalty_Neutral>
2.04144e-05

> <r_epik_State_Penalty>
2.15598

> <r_epik_Charging_Adjusted_Penalty>
4.23701

> <i_epik_Tot_Q>
2

> <i_epik_Tot_abs_Q>
2

> <r_epik_Metal_State_Penalty>
2.25158

> <b_epik_Metal_Only>
0

> <s_lp_Force_Field>
OPLS_2005

> <r_lp_Energy>
62.0114

> <b_lp_Chiralities_Consistent>
1

> <s_lp_Variant>
AV-unprocessed.smi:1240-15

> <Gold.Version>
5.8.1

> <Gold.Id.Protein>
6NUR|6NUR_protein|mol2

> <Gold.PLP.Fitness>
41.2167

> <Gold.PLP.PLP>
-35.2421

> <Gold.PLP.part.hbond>
-2.6907

> <Gold.PLP.part.metal>
0.0000

> <Gold.PLP.part.buried>
-5.8172

> <Gold.PLP.part.nonpolar>
-27.1590

> <Gold.PLP.part.repulsive>
0.3517

> <Gold.PLP.ligand.clash>
0.0000

> <Gold.PLP.ligand.torsion>
1.4687

> <Gold.PLP.Chemscore.Hbond>
2.8800

> <Gold.PLP.Chemscore.CHOScore>
0.0000

> <Gold.PLP.Chemscore.Metal>
0.0000

> <Gold.Chemscore.Hbonds>
donor molecule, donor type, donor heavy atom, donor atom, acceptor molecule, acceptor atom, score
      L1  H     3    24       P1  7948  1.00
      L1  H    17    43       P1  7948  0.96
      P1  H  7989  7998       L1     9  1.00

> <Gold.PLP.Chemscore.Internal.Correction>
0.2720

> <Gold.Rescore>
     Score         DG    S(hbond)    S(metal)    S(lipo)     H(rot)  DE(clash)    DE(int)     intcor
     15.78     -18.88       2.52        0.00      80.83       1.74       0.05       3.05       ----

> <Gold.Chemscore.Fitness>
15.7826

> <Gold.Chemscore.DG>
-18.8805

> <Gold.Chemscore.ZeroCoef>
-5.4800

> <Gold.Chemscore.Hbond>
2.5159

> <Gold.Chemscore.Metal>
0.0000

> <Gold.Chemscore.Lipo>
80.8292

> <Gold.Chemscore.Internal_Hbond>
0.0000

> <Gold.Chemscore.DEClash>
0.0476

> <Gold.Chemscore.DEInternal>
3.0503

> <Gold.Chemscore.Rot>
1.7421

> <Gold.Chemscore.Internal.Correction>
   9.000000E+99

> <Gold.Chemscore.Hbonds>
donor molecule, donor type, donor heavy atom, donor atom, acceptor molecule, acceptor atom, score
      L1  H     3    24       P1  7948  1.00
      L1  H    17    43       P1  7948  0.91
      P1  H  7989  7998       L1     9  0.30

> <Gold.Chemscore.Hbond.Weighted>
-8.4031

> <Gold.Chemscore.Metal.Weighted>
-0.0000

> <Gold.Chemscore.Lipo.Weighted>
-9.4570

> <Gold.Chemscore.Internal_Hbond.Weighted>
0.0000

> <Gold.Chemscore.DEClash.Weighted>
0.0476

> <Gold.Chemscore.DEInternal.Weighted>
3.0503

> <Gold.Chemscore.Rot.Weighted>
4.4597

> <Gold.Chemscore.Internal.Correction.Weighted>
   9.000000E+99

> <Gold.Protein.RotatedTorsions>
[ 6907 6896 6895 6894 ] final  -46.58 input  -60.11 | X-H torsion
[ 7974 7965 7964 7962 ] final   78.41 input  175.53 | X-H torsion
[ 8008 7997 7996 7995 ] final  -36.87 input   59.86 | X-H torsion
[ 10167 10162 10161 10158 ] final -143.43 input  -65.29 | X-H torsion
[ 10718 10713 10712 10709 ] final   18.40 input   66.30 | X-H torsion
[ 10763 10752 10751 10750 ] final  100.98 input  -60.55 | X-H torsion
[ 11005 11000 10999 10996 ] final  -44.98 input  -57.11 | X-H torsion

> <Gold.Protein.ActiveResidues>
 VAL166  LYS551  ARG553  GLY616  TRP617  ASP618  TYR619  PRO620  LYS621  CYS622 
 ASP623  PHE694  ASN695  SER759  ASP760  ASP761  ALA762  ILE779  LEU786  VAL792 
 PHE793  MET794  SER795  GLU796  ALA797  LYS798  CYS799  TRP800  GLU811  SER814 

> <Gold.Protein.RotatedAtoms>
  150.9097  134.8513  159.7416 H   0  0  0  0  0  0  0  0  0  0  0  0  # atno 6907 bound_to 6896
  152.4937  134.4378  159.9543 H   0  0  0  0  0  0  0  0  0  0  0  0  # atno 6908 bound_to 6896
  151.4421  133.3601  159.2818 H   0  0  0  0  0  0  0  0  0  0  0  0  # atno 6909 bound_to 6896
  145.6775  139.2514  143.1833 H   0  0  0  0  0  0  0  0  0  0  0  0  # atno 7974 bound_to 7965
  154.4064  140.1619  156.2444 H   0  0  0  0  0  0  0  0  0  0  0  0  # atno 8008 bound_to 7997
  155.9173  140.3423  155.6122 H   0  0  0  0  0  0  0  0  0  0  0  0  # atno 8009 bound_to 7997
  155.7264  140.0775  157.2299 H   0  0  0  0  0  0  0  0  0  0  0  0  # atno 8010 bound_to 7997
  139.7994  143.7855  152.2657 H   0  0  0  0  0  0  0  0  0  0  0  0  # atno 10167 bound_to 10162
  157.0958  130.6447  149.5860 H   0  0  0  0  0  0  0  0  0  0  0  0  # atno 10718 bound_to 10713
  153.3208  135.4060  155.1415 H   0  0  0  0  0  0  0  0  0  0  0  0  # atno 10763 bound_to 10752
  154.8600  135.3587  154.5599 H   0  0  0  0  0  0  0  0  0  0  0  0  # atno 10764 bound_to 10752
  153.6032  135.7070  153.5435 H   0  0  0  0  0  0  0  0  0  0  0  0  # atno 10765 bound_to 10752
  141.0485  133.6752  156.2948 H   0  0  0  0  0  0  0  0  0  0  0  0  # atno 11005 bound_to 11000
  146.0992  140.7564  142.9557 LP  0  0  0  0  0  0  0  0  0  0  0  0  # atno 17320 bound_to 7965
  144.7036  140.3761  143.7136 LP  0  0  0  0  0  0  0  0  0  0  0  0  # atno 17321 bound_to 7965
  139.7970  144.7389  150.9877 LP  0  0  0  0  0  0  0  0  0  0  0  0  # atno 17342 bound_to 10162
  140.7820  143.4384  151.0589 LP  0  0  0  0  0  0  0  0  0  0  0  0  # atno 17343 bound_to 10162
  155.9886  130.4930  150.7178 LP  0  0  0  0  0  0  0  0  0  0  0  0  # atno 17370 bound_to 10713
  157.4683  131.0890  151.0671 LP  0  0  0  0  0  0  0  0  0  0  0  0  # atno 17371 bound_to 10713
  140.6100  134.5468  157.5532 LP  0  0  0  0  0  0  0  0  0  0  0  0  # atno 17394 bound_to 11000
  139.9331  134.7925  156.0875 LP  0  0  0  0  0  0  0  0  0  0  0  0  # atno 17395 bound_to 11000

$$$$
