AV-unprocessed.smi:17|AV-procd|sdf|99|dock7
  -GOLD-   2262015243D 1   1.00000     0.00000
 Structure written by MMmdl.
 57 59  0  0  0  0  0  0  0  0  1 V2000
  149.0575  135.9875  156.1672 C   0  0  0  0  0  0  0  0  0  0  0  0
  148.0693  136.4401  157.2515 C   0  0  0  0  0  0  0  0  0  0  0  0
  148.7074  136.5817  158.5633 N   0  0  0  0  0  0  0  0  0  0  0  0
  149.7663  137.4277  158.6874 C   0  0  0  0  0  0  0  0  0  0  0  0
  150.8456  137.0032  159.3965 N   0  0  0  0  0  0  0  0  0  0  0  0
  151.9192  137.7850  159.5353 C   0  0  0  0  0  0  0  0  0  0  0  0
  152.1212  139.0143  159.0612 N   0  0  0  0  0  0  0  0  0  0  0  0
  151.0369  139.4589  158.3650 C   0  0  0  0  0  0  0  0  0  0  0  0
  149.8273  138.7419  158.1345 C   0  0  0  0  0  0  0  0  0  0  0  0
  148.9480  139.5371  157.4060 N   0  0  0  0  0  0  0  0  0  0  0  0
  149.6058  140.6443  157.1991 C   0  0  0  0  0  0  0  0  0  0  0  0
  150.8719  140.6794  157.7341 N   0  0  0  0  0  0  0  0  0  0  0  0
  151.8158  141.7801  157.6514 C   0  0  0  0  0  0  0  0  0  0  0  0
  151.4684  142.9536  158.6010 C   0  0  2  0  0  0  0  0  0  0  0  0
  152.0327  144.3099  158.1104 C   0  0  0  0  0  0  0  0  0  0  0  0
  151.6063  144.6025  156.7957 O   0  0  0  0  0  0  0  0  0  0  0  0
  151.8772  142.6442  160.0632 C   0  0  2  0  0  0  0  0  0  0  0  0
  152.1229  143.8665  160.9301 C   0  0  0  0  0  0  0  0  0  0  0  0
  152.9233  143.2789  162.0858 C   0  0  0  0  0  0  0  0  0  0  0  0
  153.7154  142.2473  161.5096 O   0  0  0  0  0  0  0  0  0  0  0  0
  153.2180  141.9166  160.2158 C   0  0  0  0  0  0  0  0  0  0  0  0
  148.2599  135.7913  159.7158 C   0  0  2  0  0  0  0  0  0  0  0  0
  148.1979  134.2937  159.3723 C   0  0  0  0  0  0  0  0  0  0  0  0
  146.9245  136.2954  160.3040 C   0  0  0  0  0  0  0  0  0  0  0  0
  146.8703  136.2349  162.1542 S   0  0  0  0  0  0  0  0  0  0  0  0
  147.1665  134.4533  162.5092 C   0  0  0  0  0  0  0  0  0  0  0  0
  148.0279  136.9844  162.6647 O   0  0  0  0  0  0  0  0  0  0  0  0
  145.5160  136.5778  162.6157 O   0  0  0  0  0  0  0  0  0  0  0  0
  148.5491  135.8611  155.2114 H   0  0  0  0  0  0  0  0  0  0  0  0
  149.5201  135.0348  156.4255 H   0  0  0  0  0  0  0  0  0  0  0  0
  149.8537  136.7183  156.0226 H   0  0  0  0  0  0  0  0  0  0  0  0
  147.5937  137.3756  156.9573 H   0  0  0  0  0  0  0  0  0  0  0  0
  147.2642  135.7090  157.3155 H   0  0  0  0  0  0  0  0  0  0  0  0
  152.7337  137.3649  160.1067 H   0  0  0  0  0  0  0  0  0  0  0  0
  149.1849  141.4703  156.6443 H   0  0  0  0  0  0  0  0  0  0  0  0
  152.8041  141.3807  157.8794 H   0  0  0  0  0  0  0  0  0  0  0  0
  151.8574  142.1294  156.6193 H   0  0  0  0  0  0  0  0  0  0  0  0
  150.3822  143.0547  158.5879 H   0  0  0  0  0  0  0  0  0  0  0  0
  151.7259  145.1241  158.7670 H   0  0  0  0  0  0  0  0  0  0  0  0
  153.1222  144.3060  158.1296 H   0  0  0  0  0  0  0  0  0  0  0  0
  150.6620  144.5697  156.7715 H   0  0  0  0  0  0  0  0  0  0  0  0
  151.1009  142.0427  160.5394 H   0  0  0  0  0  0  0  0  0  0  0  0
  152.7234  144.6033  160.3944 H   0  0  0  0  0  0  0  0  0  0  0  0
  151.2050  144.3501  161.2653 H   0  0  0  0  0  0  0  0  0  0  0  0
  153.5386  144.0237  162.5909 H   0  0  0  0  0  0  0  0  0  0  0  0
  152.2543  142.8338  162.8235 H   0  0  0  0  0  0  0  0  0  0  0  0
  153.1187  140.8370  160.0998 H   0  0  0  0  0  0  0  0  0  0  0  0
  153.9384  142.2690  159.4763 H   0  0  0  0  0  0  0  0  0  0  0  0
  148.9824  135.8897  160.5231 H   0  0  0  0  0  0  0  0  0  0  0  0
  147.9615  133.7000  160.2553 H   0  0  0  0  0  0  0  0  0  0  0  0
  149.1540  133.9390  158.9863 H   0  0  0  0  0  0  0  0  0  0  0  0
  147.4362  134.0841  158.6210 H   0  0  0  0  0  0  0  0  0  0  0  0
  146.6679  137.3010  159.9733 H   0  0  0  0  0  0  0  0  0  0  0  0
  146.1219  135.6434  159.9582 H   0  0  0  0  0  0  0  0  0  0  0  0
  147.2576  134.3130  163.5860 H   0  0  0  0  0  0  0  0  0  0  0  0
  148.0883  134.1304  162.0261 H   0  0  0  0  0  0  0  0  0  0  0  0
  146.3351  133.8545  162.1449 H   0  0  0  0  0  0  0  0  0  0  0  0
  1  2  1  0  0  0  0
  1 29  1  0  0  0  0
  1 30  1  0  0  0  0
  1 31  1  0  0  0  0
  2  3  1  0  0  0  0
  2 32  1  0  0  0  0
  2 33  1  0  0  0  0
  3  4  1  0  0  0  0
  3 22  1  0  0  0  0
  4  9  1  0  0  0  0
  4  5  2  0  0  0  0
  5  6  1  0  0  0  0
  6  7  2  0  0  0  0
  6 34  1  0  0  0  0
  7  8  1  0  0  0  0
  8 12  1  0  0  0  0
  8  9  2  0  0  0  0
  9 10  1  0  0  0  0
 10 11  2  0  0  0  0
 11 12  1  0  0  0  0
 11 35  1  0  0  0  0
 12 13  1  0  0  0  0
 13 14  1  0  0  0  0
 13 36  1  0  0  0  0
 13 37  1  0  0  0  0
 14 15  1  0  0  0  0
 14 17  1  0  0  0  0
 14 38  1  0  0  0  0
 15 16  1  0  0  0  0
 15 39  1  0  0  0  0
 15 40  1  0  0  0  0
 16 41  1  0  0  0  0
 17 21  1  0  0  0  0
 17 18  1  0  0  0  0
 17 42  1  0  0  0  0
 18 19  1  0  0  0  0
 18 43  1  0  0  0  0
 18 44  1  0  0  0  0
 19 20  1  0  0  0  0
 19 45  1  0  0  0  0
 19 46  1  0  0  0  0
 20 21  1  0  0  0  0
 21 47  1  0  0  0  0
 21 48  1  0  0  0  0
 22 23  1  0  0  0  0
 22 24  1  0  0  0  0
 22 49  1  0  0  0  0
 23 50  1  0  0  0  0
 23 51  1  0  0  0  0
 23 52  1  0  0  0  0
 24 25  1  0  0  0  0
 24 53  1  0  0  0  0
 24 54  1  0  0  0  0
 25 26  1  0  0  0  0
 25 27  2  0  0  0  0
 25 28  2  0  0  0  0
 26 55  1  0  0  0  0
 26 56  1  0  0  0  0
 26 57  1  0  0  0  0
M  END
> <s_m_source_file>
AV-unprocessed.smi

> <i_m_source_file_index>
17

> <i_lp_mmshare_version>
43012

> <i_f3d_flags>
0

> <s_epik_input>
W0NIM11TKD1PKSg9TylbQ0gyXVtDQEBIXShbQ0gzXSlOKFtDSDJdW0NIM10pYyhuW2NIXW4xKWMoYzEyKW5bY0hdbjJbQ0gyXVtDQEhdKFtDSDJdW09IXSlbQ0BASF0zW0NIMl1bQ0gyXU9bQ0gyXTM=

> <s_epik_cmdline>
J2VwaWtfcHl0aG9uJywgJy1waCcsICc3LjAnLCAnLXRuJywgJzgnLCAnLW1hJywgJzIwMCcsICctbWV0YWxfYmluZGluZycsICctaW1hZScsICc8aW5maWxlLm1hZT4nLCAnLW9tYWUnLCAnPG91dGZpbGUubWFlPic=

> <r_lp_tautomer_probability>
1

> <r_epik_Ionization_Penalty>
0.00119955

> <r_epik_Ionization_Penalty_Charging>
0

> <r_epik_Ionization_Penalty_Neutral>
0.00119955

> <r_epik_State_Penalty>
0.000665399

> <r_epik_Charging_Adjusted_Penalty>
0.000665399

> <i_epik_Tot_Q>
0

> <i_epik_Tot_abs_Q>
0

> <r_epik_Metal_State_Penalty>
-0

> <b_epik_Metal_Only>
0

> <s_lp_Force_Field>
OPLS_2005

> <r_lp_Energy>
33.2615

> <b_lp_Chiralities_Consistent>
1

> <s_lp_Variant>
AV-unprocessed.smi:17-1

> <Gold.Version>
5.8.1

> <Gold.Id.Protein>
6NUR|6NUR_protein|mol2

> <Gold.PLP.Fitness>
51.6844

> <Gold.PLP.PLP>
-47.1816

> <Gold.PLP.part.hbond>
-3.0626

> <Gold.PLP.part.metal>
0.0000

> <Gold.PLP.part.buried>
-5.9638

> <Gold.PLP.part.nonpolar>
-37.3569

> <Gold.PLP.part.repulsive>
0.0166

> <Gold.PLP.ligand.clash>
0.0000

> <Gold.PLP.ligand.torsion>
2.4808

> <Gold.PLP.Chemscore.Hbond>
2.9592

> <Gold.PLP.Chemscore.CHOScore>
0.0000

> <Gold.PLP.Chemscore.Metal>
0.0000

> <Gold.Chemscore.Hbonds>
donor molecule, donor type, donor heavy atom, donor atom, acceptor molecule, acceptor atom, score
      L1  H    16    41       P1  8028  0.89
      P1  H  6896  6907       L1     5  1.00
      P1  H  6931  6943       L1    27  0.94

> <Gold.PLP.Chemscore.Internal.Correction>
0.5867

> <Gold.Rescore>
     Score         DG    S(hbond)    S(metal)    S(lipo)     H(rot)  DE(clash)    DE(int)     intcor
     15.04     -18.07       2.82        0.00     103.89       3.51       0.79       2.25       ----

> <Gold.Chemscore.Fitness>
15.0351

> <Gold.Chemscore.DG>
-18.0743

> <Gold.Chemscore.ZeroCoef>
-5.4800

> <Gold.Chemscore.Hbond>
2.8185

> <Gold.Chemscore.Metal>
0.0000

> <Gold.Chemscore.Lipo>
103.8933

> <Gold.Chemscore.Internal_Hbond>
0.0000

> <Gold.Chemscore.DEClash>
0.7863

> <Gold.Chemscore.DEInternal>
2.2529

> <Gold.Chemscore.Rot>
3.5059

> <Gold.Chemscore.Internal.Correction>
   9.000000E+99

> <Gold.Chemscore.Hbonds>
donor molecule, donor type, donor heavy atom, donor atom, acceptor molecule, acceptor atom, score
      L1  H    16    41       P1  8028  0.77
      P1  H  6896  6907       L1     5  0.73
      P1  H  6931  6943       L1    27  0.91

> <Gold.Chemscore.Hbond.Weighted>
-9.4138

> <Gold.Chemscore.Metal.Weighted>
-0.0000

> <Gold.Chemscore.Lipo.Weighted>
-12.1555

> <Gold.Chemscore.Internal_Hbond.Weighted>
0.0000

> <Gold.Chemscore.DEClash.Weighted>
0.7863

> <Gold.Chemscore.DEInternal.Weighted>
2.2529

> <Gold.Chemscore.Rot.Weighted>
8.9750

> <Gold.Chemscore.Internal.Correction.Weighted>
   9.000000E+99

> <Gold.Protein.RotatedTorsions>
[ 6907 6896 6895 6894 ] final  -17.00 input  -60.11 | X-H torsion
[ 7974 7965 7964 7962 ] final  142.56 input  175.53 | X-H torsion
[ 8008 7997 7996 7995 ] final   62.74 input   59.86 | X-H torsion
[ 10167 10162 10161 10158 ] final  -47.34 input  -65.29 | X-H torsion
[ 10718 10713 10712 10709 ] final -113.88 input   66.30 | X-H torsion
[ 10763 10752 10751 10750 ] final  114.99 input  -60.55 | X-H torsion
[ 11005 11000 10999 10996 ] final  -18.68 input  -57.11 | X-H torsion

> <Gold.Protein.ActiveResidues>
 VAL166  LYS551  ARG553  GLY616  TRP617  ASP618  TYR619  PRO620  LYS621  CYS622 
 ASP623  PHE694  ASN695  SER759  ASP760  ASP761  ALA762  ILE779  LEU786  VAL792 
 PHE793  MET794  SER795  GLU796  ALA797  LYS798  CYS799  TRP800  GLU811  SER814 

> <Gold.Protein.RotatedAtoms>
  151.3000  135.0766  159.9234 H   0  0  0  0  0  0  0  0  0  0  0  0  # atno 6907 bound_to 6896
  152.5299  133.9843  159.7831 H   0  0  0  0  0  0  0  0  0  0  0  0  # atno 6908 bound_to 6896
  151.0128  133.5897  159.2711 H   0  0  0  0  0  0  0  0  0  0  0  0  # atno 6909 bound_to 6896
  144.8997  139.5441  143.5759 H   0  0  0  0  0  0  0  0  0  0  0  0  # atno 7974 bound_to 7965
  155.6192  140.3495  155.4646 H   0  0  0  0  0  0  0  0  0  0  0  0  # atno 8008 bound_to 7997
  156.0093  140.1230  157.0494 H   0  0  0  0  0  0  0  0  0  0  0  0  # atno 8009 bound_to 7997
  154.4275  140.1085  156.5792 H   0  0  0  0  0  0  0  0  0  0  0  0  # atno 8010 bound_to 7997
  140.6779  143.2789  151.3912 H   0  0  0  0  0  0  0  0  0  0  0  0  # atno 10167 bound_to 10162
  156.0794  130.5996  150.8700 H   0  0  0  0  0  0  0  0  0  0  0  0  # atno 10718 bound_to 10713
  153.5156  135.3609  155.2607 H   0  0  0  0  0  0  0  0  0  0  0  0  # atno 10763 bound_to 10752
  154.8739  135.4033  154.3319 H   0  0  0  0  0  0  0  0  0  0  0  0  # atno 10764 bound_to 10752
  153.3980  135.7074  153.6513 H   0  0  0  0  0  0  0  0  0  0  0  0  # atno 10765 bound_to 10752
  140.8291  133.8010  155.9740 H   0  0  0  0  0  0  0  0  0  0  0  0  # atno 11005 bound_to 11000
  146.3101  139.7716  142.9026 LP  0  0  0  0  0  0  0  0  0  0  0  0  # atno 17320 bound_to 7965
  145.3638  141.0331  143.3269 LP  0  0  0  0  0  0  0  0  0  0  0  0  # atno 17321 bound_to 7965
  139.6083  144.1151  152.2272 LP  0  0  0  0  0  0  0  0  0  0  0  0  # atno 17342 bound_to 10162
  140.0557  144.5897  150.7301 LP  0  0  0  0  0  0  0  0  0  0  0  0  # atno 17343 bound_to 10162
  157.5904  131.0944  150.9127 LP  0  0  0  0  0  0  0  0  0  0  0  0  # atno 17370 bound_to 10713
  156.9304  130.5347  149.5279 LP  0  0  0  0  0  0  0  0  0  0  0  0  # atno 17371 bound_to 10713
  140.9017  134.2370  157.5038 LP  0  0  0  0  0  0  0  0  0  0  0  0  # atno 17394 bound_to 11000
  139.8705  134.9709  156.4719 LP  0  0  0  0  0  0  0  0  0  0  0  0  # atno 17395 bound_to 11000

$$$$
