AV-unprocessed.smi:1911|AV-procd|sdf|7747|dock2
  -GOLD-   22720 9483D 1   1.00000     0.00000
 Structure written by MMmdl.
 52 54  0  0  0  0  0  0  0  0  4 V2000
  146.7957  132.0733  151.2777 N   0  5  0  0  0  0  0  0  0  0  0  0
  146.4879  132.9909  152.2146 C   0  0  0  0  0  0  0  0  0  0  0  0
  147.2300  133.4830  153.0627 O   0  0  0  0  0  0  0  0  0  0  0  0
  145.0127  133.4047  152.1681 C   0  0  0  0  0  0  0  0  0  0  0  0
  144.8943  134.8516  151.8582 N   0  3  2  0  0  0  0  0  0  0  0  0
  145.9206  135.3299  150.8928 C   0  0  0  0  0  0  0  0  0  0  0  0
  145.6759  136.7980  150.5001 C   0  0  0  0  0  0  0  0  0  0  0  0
  145.6083  137.7224  151.7281 C   0  0  2  0  0  0  0  0  0  0  0  0
  146.9348  137.8839  152.3236 N   0  0  0  0  0  0  0  0  0  0  0  0
  147.3033  138.8880  153.1325 C   0  0  0  0  0  0  0  0  0  0  0  0
  146.5481  139.8003  153.4662 O   0  0  0  0  0  0  0  0  0  0  0  0
  148.5887  138.7648  153.5068 N   0  0  0  0  0  0  0  0  0  0  0  0
  149.3526  139.6052  154.3624 C   0  0  0  0  0  0  0  0  0  0  0  0
  150.5786  139.2298  154.9661 C   0  0  0  0  0  0  0  0  0  0  0  0
  151.2606  140.1509  155.7877 C   0  0  0  0  0  0  0  0  0  0  0  0
  150.7208  141.4417  155.9977 C   0  0  0  0  0  0  0  0  0  0  0  0
  151.3505  142.4131  156.7989 N   0  0  0  0  0  0  0  0  0  0  0  0
  151.0209  143.8287  156.6928 C   0  0  0  0  0  0  0  0  0  0  0  0
  151.3095  144.4225  158.0761 C   0  0  0  0  0  0  0  0  0  0  0  0
  152.2955  143.4378  158.7047 C   0  0  0  0  0  0  0  0  0  0  0  0
  151.8643  142.0931  158.1204 C   0  0  0  0  0  0  0  0  0  0  0  0
  149.5551  141.7601  155.3862 N   0  3  0  0  0  0  0  0  0  0  0  0
  148.8692  140.9093  154.5934 C   0  0  0  0  0  0  0  0  0  0  0  0
  144.5905  137.1652  152.7426 C   0  0  0  0  0  0  0  0  0  0  0  0
  144.8635  135.6893  153.0837 C   0  0  0  0  0  0  0  0  0  0  0  0
  147.7820  131.9194  151.0365 H   0  0  0  0  0  0  0  0  0  0  0  0
  144.5466  132.8151  151.3776 H   0  0  0  0  0  0  0  0  0  0  0  0
  144.4761  133.1685  153.0897 H   0  0  0  0  0  0  0  0  0  0  0  0
  146.9137  135.2146  151.3293 H   0  0  0  0  0  0  0  0  0  0  0  0
  145.9042  134.7172  149.9909 H   0  0  0  0  0  0  0  0  0  0  0  0
  146.4513  137.1369  149.8120 H   0  0  0  0  0  0  0  0  0  0  0  0
  144.7353  136.8647  149.9513 H   0  0  0  0  0  0  0  0  0  0  0  0
  145.2681  138.7035  151.3913 H   0  0  0  0  0  0  0  0  0  0  0  0
  147.6237  137.1822  152.0945 H   0  0  0  0  0  0  0  0  0  0  0  0
  149.0971  137.9982  153.0905 H   0  0  0  0  0  0  0  0  0  0  0  0
  151.0224  138.2596  154.8079 H   0  0  0  0  0  0  0  0  0  0  0  0
  152.1951  139.8549  156.2404 H   0  0  0  0  0  0  0  0  0  0  0  0
  151.6624  144.2821  155.9365 H   0  0  0  0  0  0  0  0  0  0  0  0
  149.9821  143.9962  156.4059 H   0  0  0  0  0  0  0  0  0  0  0  0
  151.6965  145.4406  158.0275 H   0  0  0  0  0  0  0  0  0  0  0  0
  150.3911  144.4417  158.6646 H   0  0  0  0  0  0  0  0  0  0  0  0
  153.3096  143.6747  158.3795 H   0  0  0  0  0  0  0  0  0  0  0  0
  152.2782  143.4521  159.7948 H   0  0  0  0  0  0  0  0  0  0  0  0
  151.0698  141.6490  158.7217 H   0  0  0  0  0  0  0  0  0  0  0  0
  152.6977  141.3917  158.0723 H   0  0  0  0  0  0  0  0  0  0  0  0
  147.9534  141.2991  154.1723 H   0  0  0  0  0  0  0  0  0  0  0  0
  144.5858  137.7656  153.6530 H   0  0  0  0  0  0  0  0  0  0  0  0
  143.5873  137.2507  152.3230 H   0  0  0  0  0  0  0  0  0  0  0  0
  144.0821  135.3301  153.7546 H   0  0  0  0  0  0  0  0  0  0  0  0
  145.8092  135.5900  153.6187 H   0  0  0  0  0  0  0  0  0  0  0  0
  143.9947  134.9628  151.4123 H   0  0  0  0  0  0  0  0  0  0  0  0
  149.1730  142.6946  155.5324 H   0  0  0  0  0  0  0  0  0  0  0  0
  1  2  1  0  0  0  0
  1 26  1  0  0  0  0
  2  3  2  0  0  0  0
  2  4  1  0  0  0  0
  4  5  1  0  0  0  0
  4 27  1  0  0  0  0
  4 28  1  0  0  0  0
  5 25  1  0  0  0  0
  5  6  1  0  0  0  0
  5 51  1  0  0  0  0
  6  7  1  0  0  0  0
  6 29  1  0  0  0  0
  6 30  1  0  0  0  0
  7  8  1  0  0  0  0
  7 31  1  0  0  0  0
  7 32  1  0  0  0  0
  8  9  1  0  0  0  0
  8 24  1  0  0  0  0
  8 33  1  0  0  0  0
  9 10  1  0  0  0  0
  9 34  1  0  0  0  0
 10 11  2  0  0  0  0
 10 12  1  0  0  0  0
 12 13  1  0  0  0  0
 12 35  1  0  0  0  0
 13 23  1  0  0  0  0
 13 14  2  0  0  0  0
 14 15  1  0  0  0  0
 14 36  1  0  0  0  0
 15 16  2  0  0  0  0
 15 37  1  0  0  0  0
 16 17  1  0  0  0  0
 16 22  1  0  0  0  0
 17 21  1  0  0  0  0
 17 18  1  0  0  0  0
 18 19  1  0  0  0  0
 18 38  1  0  0  0  0
 18 39  1  0  0  0  0
 19 20  1  0  0  0  0
 19 40  1  0  0  0  0
 19 41  1  0  0  0  0
 20 21  1  0  0  0  0
 20 42  1  0  0  0  0
 20 43  1  0  0  0  0
 21 44  1  0  0  0  0
 21 45  1  0  0  0  0
 22 23  2  0  0  0  0
 22 52  1  0  0  0  0
 23 46  1  0  0  0  0
 24 25  1  0  0  0  0
 24 47  1  0  0  0  0
 24 48  1  0  0  0  0
 25 49  1  0  0  0  0
 25 50  1  0  0  0  0
M  CHG  1   1  -1
M  CHG  1   5   1
M  CHG  1  22   1
M  END
> <s_m_source_file>
AV-unprocessed.smi

> <i_m_source_file_index>
1911

> <i_lp_mmshare_version>
43012

> <i_f3d_flags>
0

> <s_epik_input>
W05IMl1DKD1PKVtDSDJdTjFbQ0gyXVtDSDJdW0NIXShbQ0gyXVtDSDJdMSlbTkhdQyg9TylbTkhdYzJbY0hdW2NIXWMobltjSF0yKU4zW0NIMl1bQ0gyXVtDSDJdW0NIMl0z

> <s_epik_cmdline>
J2VwaWtfcHl0aG9uJywgJy1waCcsICc3LjAnLCAnLXRuJywgJzgnLCAnLW1hJywgJzIwMCcsICctbWV0YWxfYmluZGluZycsICctaW1hZScsICc8aW5maWxlLm1hZT4nLCAnLW9tYWUnLCAnPG91dGZpbGUubWFlPic=

> <r_lp_tautomer_probability>
0.999994

> <r_epik_Ionization_Penalty>
6.97817

> <r_epik_Ionization_Penalty_Charging>
6.97815

> <r_epik_Ionization_Penalty_Neutral>
1.89299e-05

> <r_epik_State_Penalty>
7.80985

> <r_epik_Charging_Adjusted_Penalty>
14.788

> <i_epik_Tot_Q>
1

> <i_epik_Tot_abs_Q>
3

> <r_epik_Metal_State_Penalty>
3.85727

> <b_epik_Metal_Only>
1

> <s_lp_Force_Field>
OPLS_2005

> <r_lp_Energy>
41.382

> <b_lp_Chiralities_Consistent>
1

> <s_lp_Variant>
AV-unprocessed.smi:1911-10

> <Gold.Version>
5.8.1

> <Gold.Id.Protein>
6NUR|6NUR_protein|mol2

> <Gold.PLP.Fitness>
52.0581

> <Gold.PLP.PLP>
-40.2672

> <Gold.PLP.part.hbond>
-4.9659

> <Gold.PLP.part.metal>
0.0000

> <Gold.PLP.part.buried>
4.1927

> <Gold.PLP.part.nonpolar>
-41.5856

> <Gold.PLP.part.repulsive>
0.7541

> <Gold.PLP.ligand.clash>
0.1517

> <Gold.PLP.ligand.torsion>
1.1363

> <Gold.PLP.Chemscore.Hbond>
4.6673

> <Gold.PLP.Chemscore.CHOScore>
0.0000

> <Gold.PLP.Chemscore.Metal>
0.0000

> <Gold.Chemscore.Hbonds>
donor molecule, donor type, donor heavy atom, donor atom, acceptor molecule, acceptor atom, score
      L1  H     1    26       P1 10747  0.94
      L1  H     9    34       P1  7948  1.00
      L1  H    12    35       P1  7948  0.71
      L1  H    22    52       P1  8028  1.92

> <Gold.PLP.Chemscore.Internal.Correction>
0.2133

> <Gold.Rescore>
     Score         DG    S(hbond)    S(metal)    S(lipo)     H(rot)  DE(clash)    DE(int)     intcor
     17.07     -25.15       3.55        0.00     108.25       1.90       5.43       2.65       ----

> <Gold.Chemscore.Fitness>
17.0655

> <Gold.Chemscore.DG>
-25.1454

> <Gold.Chemscore.ZeroCoef>
-5.4800

> <Gold.Chemscore.Hbond>
3.5505

> <Gold.Chemscore.Metal>
0.0000

> <Gold.Chemscore.Lipo>
108.2526

> <Gold.Chemscore.Internal_Hbond>
0.0000

> <Gold.Chemscore.DEClash>
5.4329

> <Gold.Chemscore.DEInternal>
2.6470

> <Gold.Chemscore.Rot>
1.8979

> <Gold.Chemscore.Internal.Correction>
   9.000000E+99

> <Gold.Chemscore.Hbonds>
donor molecule, donor type, donor heavy atom, donor atom, acceptor molecule, acceptor atom, score
      L1  H     1    26       P1 10747  0.91
      L1  H     9    34       P1  7948  1.00
      L1  H    12    35       P1  7948  0.67
      L1  H    22    52       P1  8028  0.91

> <Gold.Chemscore.Hbond.Weighted>
-11.8586

> <Gold.Chemscore.Metal.Weighted>
-0.0000

> <Gold.Chemscore.Lipo.Weighted>
-12.6656

> <Gold.Chemscore.Internal_Hbond.Weighted>
0.0000

> <Gold.Chemscore.DEClash.Weighted>
5.4329

> <Gold.Chemscore.DEInternal.Weighted>
2.6470

> <Gold.Chemscore.Rot.Weighted>
4.8587

> <Gold.Chemscore.Internal.Correction.Weighted>
   9.000000E+99

> <Gold.Protein.RotatedTorsions>
[ 6907 6896 6895 6894 ] final -166.16 input  -60.11 | X-H torsion
[ 7974 7965 7964 7962 ] final  -68.85 input  175.53 | X-H torsion
[ 8008 7997 7996 7995 ] final  123.35 input   59.86 | X-H torsion
[ 10167 10162 10161 10158 ] final   22.24 input  -65.29 | X-H torsion
[ 10718 10713 10712 10709 ] final    2.86 input   66.30 | X-H torsion
[ 10763 10752 10751 10750 ] final  -86.63 input  -60.55 | X-H torsion
[ 11005 11000 10999 10996 ] final  145.99 input  -57.11 | X-H torsion

> <Gold.Protein.ActiveResidues>
 VAL166  LYS551  ARG553  GLY616  TRP617  ASP618  TYR619  PRO620  LYS621  CYS622 
 ASP623  PHE694  ASN695  SER759  ASP760  ASP761  ALA762  ILE779  LEU786  VAL792 
 PHE793  MET794  SER795  GLU796  ALA797  LYS798  CYS799  TRP800  GLU811  SER814 

> <Gold.Protein.RotatedAtoms>
  151.4391  133.3648  159.2779 H   0  0  0  0  0  0  0  0  0  0  0  0  # atno 6907 bound_to 6896
  150.9170  134.8589  159.7474 H   0  0  0  0  0  0  0  0  0  0  0  0  # atno 6908 bound_to 6896
  152.4962  134.4326  159.9569 H   0  0  0  0  0  0  0  0  0  0  0  0  # atno 6909 bound_to 6896
  145.7113  140.9077  143.0679 H   0  0  0  0  0  0  0  0  0  0  0  0  # atno 7974 bound_to 7965
  156.2762  140.2765  156.1614 H   0  0  0  0  0  0  0  0  0  0  0  0  # atno 8008 bound_to 7997
  155.0750  140.0387  157.2638 H   0  0  0  0  0  0  0  0  0  0  0  0  # atno 8009 bound_to 7997
  154.7010  140.2649  155.6725 H   0  0  0  0  0  0  0  0  0  0  0  0  # atno 8010 bound_to 7997
  140.5364  143.9753  150.6494 H   0  0  0  0  0  0  0  0  0  0  0  0  # atno 10167 bound_to 10162
  156.8693  130.5614  149.5658 H   0  0  0  0  0  0  0  0  0  0  0  0  # atno 10718 bound_to 10713
  154.6246  135.5442  153.7612 H   0  0  0  0  0  0  0  0  0  0  0  0  # atno 10763 bound_to 10752
  153.0254  135.6421  154.1391 H   0  0  0  0  0  0  0  0  0  0  0  0  # atno 10764 bound_to 10752
  154.1324  135.2913  155.3162 H   0  0  0  0  0  0  0  0  0  0  0  0  # atno 10765 bound_to 10752
  140.0757  134.9126  157.1419 H   0  0  0  0  0  0  0  0  0  0  0  0  # atno 11005 bound_to 11000
  144.6941  139.9078  143.7462 LP  0  0  0  0  0  0  0  0  0  0  0  0  # atno 17320 bound_to 7965
  146.0710  139.3699  143.0523 LP  0  0  0  0  0  0  0  0  0  0  0  0  # atno 17321 bound_to 7965
  140.3142  143.3179  152.0849 LP  0  0  0  0  0  0  0  0  0  0  0  0  # atno 17342 bound_to 10162
  139.4972  144.6616  151.6450 LP  0  0  0  0  0  0  0  0  0  0  0  0  # atno 17343 bound_to 10162
  156.0735  130.5762  150.9429 LP  0  0  0  0  0  0  0  0  0  0  0  0  # atno 17370 bound_to 10713
  157.6205  131.0930  150.8631 LP  0  0  0  0  0  0  0  0  0  0  0  0  # atno 17371 bound_to 10713
  140.3561  134.2545  155.7192 LP  0  0  0  0  0  0  0  0  0  0  0  0  # atno 17394 bound_to 11000
  141.2028  133.7927  157.0370 LP  0  0  0  0  0  0  0  0  0  0  0  0  # atno 17395 bound_to 11000

$$$$
