AV-unprocessed.smi:2144|AV-procd|sdf|8733|dock8
  -GOLD-   2272011503D 1   1.00000     0.00000
 Structure written by MMmdl.
 41 43  0  0  0  0  0  0  0  0  2 V2000
  151.4044  136.6523  153.9615 O   0  0  0  0  0  0  0  0  0  0  0  0
  151.6992  138.0247  154.1199 C   0  0  0  0  0  0  0  0  0  0  0  0
  150.4890  138.9009  154.0406 C   0  0  0  0  0  0  0  0  0  0  0  0
  149.4413  138.7555  153.1791 N   0  3  0  0  0  0  0  0  0  0  0  0
  148.5030  139.7645  153.3980 C   0  0  0  0  0  0  0  0  0  0  0  0
  147.2869  140.0297  152.7762 C   0  0  0  0  0  0  0  0  0  0  0  0
  146.5696  141.1511  153.2423 C   0  0  0  0  0  0  0  0  0  0  0  0
  147.0660  141.9584  154.2866 C   0  0  0  0  0  0  0  0  0  0  0  0
  148.2998  141.6782  154.9105 C   0  0  0  0  0  0  0  0  0  0  0  0
  149.0021  140.5675  154.4437 C   0  0  0  0  0  0  0  0  0  0  0  0
  150.2254  139.9960  154.8107 N   0  0  0  0  0  0  0  0  0  0  0  0
  151.0076  140.6122  155.8944 C   0  0  0  0  0  0  0  0  0  0  0  0
  151.0441  139.7538  157.1751 C   0  0  1  0  0  0  0  0  0  0  0  0
  152.0250  138.7469  157.0224 O   0  0  0  0  0  0  0  0  0  0  0  0
  151.3871  140.5910  158.4176 C   0  0  0  0  0  0  0  0  0  0  0  0
  150.3875  141.5875  158.5866 O   0  0  0  0  0  0  0  0  0  0  0  0
  150.7754  142.8423  159.0065 C   0  0  0  0  0  0  0  0  0  0  0  0
  152.1259  143.2552  159.1386 C   0  0  0  0  0  0  0  0  0  0  0  0
  152.4342  144.5589  159.5744 C   0  0  0  0  0  0  0  0  0  0  0  0
  151.4021  145.4640  159.8828 C   0  0  0  0  0  0  0  0  0  0  0  0
  150.0595  145.0635  159.7551 C   0  0  0  0  0  0  0  0  0  0  0  0
  149.7498  143.7605  159.3191 C   0  0  0  0  0  0  0  0  0  0  0  0
  148.4531  143.3883  159.1995 F   0  0  0  0  0  0  0  0  0  0  0  0
  151.0934  136.5117  153.0798 H   0  0  0  0  0  0  0  0  0  0  0  0
  152.1869  138.1690  155.0841 H   0  0  0  0  0  0  0  0  0  0  0  0
  152.4080  138.3269  153.3484 H   0  0  0  0  0  0  0  0  0  0  0  0
  146.9052  139.4129  151.9758 H   0  0  0  0  0  0  0  0  0  0  0  0
  145.6200  141.3973  152.7895 H   0  0  0  0  0  0  0  0  0  0  0  0
  146.4884  142.8098  154.6164 H   0  0  0  0  0  0  0  0  0  0  0  0
  148.6711  142.3018  155.7104 H   0  0  0  0  0  0  0  0  0  0  0  0
  152.0188  140.7801  155.5217 H   0  0  0  0  0  0  0  0  0  0  0  0
  150.5904  141.5993  156.0985 H   0  0  0  0  0  0  0  0  0  0  0  0
  150.0730  139.2779  157.3159 H   0  0  0  0  0  0  0  0  0  0  0  0
  152.7422  138.9363  157.6076 H   0  0  0  0  0  0  0  0  0  0  0  0
  151.4801  139.9555  159.3003 H   0  0  0  0  0  0  0  0  0  0  0  0
  152.3451  141.0901  158.2627 H   0  0  0  0  0  0  0  0  0  0  0  0
  152.9454  142.5906  158.9116 H   0  0  0  0  0  0  0  0  0  0  0  0
  153.4654  144.8646  159.6722 H   0  0  0  0  0  0  0  0  0  0  0  0
  151.6395  146.4634  160.2170 H   0  0  0  0  0  0  0  0  0  0  0  0
  149.2651  145.7557  159.9920 H   0  0  0  0  0  0  0  0  0  0  0  0
  149.3801  138.0148  152.4923 H   0  0  0  0  0  0  0  0  0  0  0  0
  1  2  1  0  0  0  0
  1 24  1  0  0  0  0
  2  3  1  0  0  0  0
  2 25  1  0  0  0  0
  2 26  1  0  0  0  0
  3 11  1  0  0  0  0
  3  4  2  0  0  0  0
  4  5  1  0  0  0  0
  4 41  1  0  0  0  0
  5 10  2  0  0  0  0
  5  6  1  0  0  0  0
  6  7  2  0  0  0  0
  6 27  1  0  0  0  0
  7  8  1  0  0  0  0
  7 28  1  0  0  0  0
  8  9  2  0  0  0  0
  8 29  1  0  0  0  0
  9 10  1  0  0  0  0
  9 30  1  0  0  0  0
 10 11  1  0  0  0  0
 11 12  1  0  0  0  0
 12 13  1  0  0  0  0
 12 31  1  0  0  0  0
 12 32  1  0  0  0  0
 13 14  1  0  0  0  0
 13 15  1  0  0  0  0
 13 33  1  0  0  0  0
 14 34  1  0  0  0  0
 15 16  1  0  0  0  0
 15 35  1  0  0  0  0
 15 36  1  0  0  0  0
 16 17  1  0  0  0  0
 17 22  1  0  0  0  0
 17 18  2  0  0  0  0
 18 19  1  0  0  0  0
 18 37  1  0  0  0  0
 19 20  2  0  0  0  0
 19 38  1  0  0  0  0
 20 21  1  0  0  0  0
 20 39  1  0  0  0  0
 21 22  2  0  0  0  0
 21 40  1  0  0  0  0
 22 23  1  0  0  0  0
M  CHG  1   4   1
M  END
> <s_m_source_file>
AV-unprocessed.smi

> <i_m_source_file_index>
2144

> <i_lp_mmshare_version>
43012

> <i_f3d_flags>
0

> <s_epik_input>
W2NIXTFbY0hdW2NIXVtjSF1jKGMxMiluKGMobjIpW0NIMl1bT0hdKVtDSDJdW0NASF0oW09IXSlbQ0gyXU9jM1tjSF1bY0hdW2NIXVtjSF1jM0Y=

> <s_epik_cmdline>
J2VwaWtfcHl0aG9uJywgJy1waCcsICc3LjAnLCAnLXRuJywgJzgnLCAnLW1hJywgJzIwMCcsICctbWV0YWxfYmluZGluZycsICctaW1hZScsICc8aW5maWxlLm1hZT4nLCAnLW9tYWUnLCAnPG91dGZpbGUubWFlPic=

> <r_lp_tautomer_probability>
1

> <r_epik_Ionization_Penalty>
1.44003

> <r_epik_Ionization_Penalty_Charging>
1.43917

> <r_epik_Ionization_Penalty_Neutral>
0.000858184

> <r_epik_State_Penalty>
1.52442

> <r_epik_Charging_Adjusted_Penalty>
2.96359

> <i_epik_Tot_Q>
1

> <i_epik_Tot_abs_Q>
1

> <r_epik_Metal_State_Penalty>
5.57019

> <b_epik_Metal_Only>
0

> <s_lp_Force_Field>
OPLS_2005

> <r_lp_Energy>
20.1924

> <b_lp_Chiralities_Consistent>
1

> <s_lp_Variant>
AV-unprocessed.smi:2144-4

> <Gold.Version>
5.8.1

> <Gold.Id.Protein>
6NUR|6NUR_protein|mol2

> <Gold.PLP.Fitness>
57.2074

> <Gold.PLP.PLP>
-46.9782

> <Gold.PLP.part.hbond>
-4.1914

> <Gold.PLP.part.metal>
0.0000

> <Gold.PLP.part.buried>
4.8961

> <Gold.PLP.part.nonpolar>
-46.2559

> <Gold.PLP.part.repulsive>
0.1278

> <Gold.PLP.ligand.clash>
0.0000

> <Gold.PLP.ligand.torsion>
0.9074

> <Gold.PLP.Chemscore.Hbond>
4.0000

> <Gold.PLP.Chemscore.CHOScore>
0.0000

> <Gold.PLP.Chemscore.Metal>
0.0000

> <Gold.Chemscore.Hbonds>
donor molecule, donor type, donor heavy atom, donor atom, acceptor molecule, acceptor atom, score
      L1  H     1    24       P1  7949  1.00
      L1  H     4    41       P1  7948  2.00
      P1  H 10752 10763       L1     1  1.00

> <Gold.PLP.Chemscore.Internal.Correction>
0.0441

> <Gold.Rescore>
     Score         DG    S(hbond)    S(metal)    S(lipo)     H(rot)  DE(clash)    DE(int)     intcor
     14.62     -18.57       2.22        0.00     120.99       3.31       2.93       1.02       ----

> <Gold.Chemscore.Fitness>
14.6206

> <Gold.Chemscore.DG>
-18.5693

> <Gold.Chemscore.ZeroCoef>
-5.4800

> <Gold.Chemscore.Hbond>
2.2204

> <Gold.Chemscore.Metal>
0.0000

> <Gold.Chemscore.Lipo>
120.9878

> <Gold.Chemscore.Internal_Hbond>
0.0000

> <Gold.Chemscore.DEClash>
2.9315

> <Gold.Chemscore.DEInternal>
1.0173

> <Gold.Chemscore.Rot>
3.3134

> <Gold.Chemscore.Internal.Correction>
   9.000000E+99

> <Gold.Chemscore.Hbonds>
donor molecule, donor type, donor heavy atom, donor atom, acceptor molecule, acceptor atom, score
      L1  H     1    24       P1  7949  0.34
      L1  H     4    41       P1  7948  0.77
      P1  H 10752 10763       L1     1  0.31

> <Gold.Chemscore.Hbond.Weighted>
-7.4161

> <Gold.Chemscore.Metal.Weighted>
-0.0000

> <Gold.Chemscore.Lipo.Weighted>
-14.1556

> <Gold.Chemscore.Internal_Hbond.Weighted>
0.0000

> <Gold.Chemscore.DEClash.Weighted>
2.9315

> <Gold.Chemscore.DEInternal.Weighted>
1.0173

> <Gold.Chemscore.Rot.Weighted>
8.4823

> <Gold.Chemscore.Internal.Correction.Weighted>
   9.000000E+99

> <Gold.Protein.RotatedTorsions>
[ 6907 6896 6895 6894 ] final  129.78 input  -60.11 | X-H torsion
[ 7974 7965 7964 7962 ] final   33.82 input  175.53 | X-H torsion
[ 8008 7997 7996 7995 ] final  130.09 input   59.86 | X-H torsion
[ 10167 10162 10161 10158 ] final -125.09 input  -65.29 | X-H torsion
[ 10718 10713 10712 10709 ] final   55.70 input   66.30 | X-H torsion
[ 10763 10752 10751 10750 ] final   27.14 input  -60.55 | X-H torsion
[ 11005 11000 10999 10996 ] final -150.77 input  -57.11 | X-H torsion

> <Gold.Protein.ActiveResidues>
 VAL166  LYS551  ARG553  GLY616  TRP617  ASP618  TYR619  PRO620  LYS621  CYS622 
 ASP623  PHE694  ASN695  SER759  ASP760  ASP761  ALA762  ILE779  LEU786  VAL792 
 PHE793  MET794  SER795  GLU796  ALA797  LYS798  CYS799  TRP800  GLU811  SER814 

> <Gold.Protein.RotatedAtoms>
  152.3591  133.6274  159.6001 H   0  0  0  0  0  0  0  0  0  0  0  0  # atno 6907 bound_to 6896
  150.7589  133.9452  159.3477 H   0  0  0  0  0  0  0  0  0  0  0  0  # atno 6908 bound_to 6896
  151.7293  135.0879  160.0348 H   0  0  0  0  0  0  0  0  0  0  0  0  # atno 6909 bound_to 6896
  146.1395  139.6348  142.9173 H   0  0  0  0  0  0  0  0  0  0  0  0  # atno 7974 bound_to 7965
  156.2948  140.2604  156.2705 H   0  0  0  0  0  0  0  0  0  0  0  0  # atno 8008 bound_to 7997
  154.9700  140.0391  157.2248 H   0  0  0  0  0  0  0  0  0  0  0  0  # atno 8009 bound_to 7997
  154.7868  140.2805  155.6026 H   0  0  0  0  0  0  0  0  0  0  0  0  # atno 8010 bound_to 7997
  139.9858  143.5694  152.2361 H   0  0  0  0  0  0  0  0  0  0  0  0  # atno 10167 bound_to 10162
  157.5367  130.8668  149.8764 H   0  0  0  0  0  0  0  0  0  0  0  0  # atno 10718 bound_to 10713
  153.0576  135.6544  154.0540 H   0  0  0  0  0  0  0  0  0  0  0  0  # atno 10763 bound_to 10752
  154.0215  135.2919  155.3382 H   0  0  0  0  0  0  0  0  0  0  0  0  # atno 10764 bound_to 10752
  154.6898  135.5287  153.8444 H   0  0  0  0  0  0  0  0  0  0  0  0  # atno 10765 bound_to 10752
  140.7367  134.3560  157.5156 H   0  0  0  0  0  0  0  0  0  0  0  0  # atno 11005 bound_to 11000
  145.5080  141.0436  143.2504 LP  0  0  0  0  0  0  0  0  0  0  0  0  # atno 17320 bound_to 7965
  144.7776  139.6595  143.7168 LP  0  0  0  0  0  0  0  0  0  0  0  0  # atno 17321 bound_to 7965
  139.6376  144.7651  151.2405 LP  0  0  0  0  0  0  0  0  0  0  0  0  # atno 17342 bound_to 10162
  140.7473  143.6371  150.8369 LP  0  0  0  0  0  0  0  0  0  0  0  0  # atno 17343 bound_to 10162
  156.0464  130.3727  150.1306 LP  0  0  0  0  0  0  0  0  0  0  0  0  # atno 17370 bound_to 10713
  156.9488  130.9768  151.3502 LP  0  0  0  0  0  0  0  0  0  0  0  0  # atno 17371 bound_to 10713
  139.8814  134.9054  156.2899 LP  0  0  0  0  0  0  0  0  0  0  0  0  # atno 17394 bound_to 11000
  140.9873  133.7230  156.0761 LP  0  0  0  0  0  0  0  0  0  0  0  0  # atno 17395 bound_to 11000

$$$$
