AV-unprocessed.smi:1927|AV-procd|sdf|7796|dock6
  -GOLD-   22720 9543D 1   1.00000     0.00000
 Structure written by MMmdl.
 34 35  0  0  0  0  0  0  0  0  1 V2000
  151.1616  137.6959  154.3782 C   0  0  0  0  0  0  0  0  0  0  0  0
  150.5792  139.0382  154.7906 C   0  0  0  0  0  0  0  0  0  0  0  0
  151.3662  139.9279  155.5524 C   0  0  0  0  0  0  0  0  0  0  0  0
  150.8250  141.1676  155.9339 C   0  0  0  0  0  0  0  0  0  0  0  0
  149.5114  141.4670  155.5343 C   0  0  0  0  0  0  0  0  0  0  0  0
  148.7525  140.6233  154.8057 N   0  0  0  0  0  0  0  0  0  0  0  0
  149.2597  139.4225  154.4292 C   0  0  0  0  0  0  0  0  0  0  0  0
  148.5195  138.4834  153.6570 N   0  0  0  0  0  0  0  0  0  0  0  0
  147.1868  138.3876  153.5050 C   0  0  0  0  0  0  0  0  0  0  0  0
  146.3523  139.1136  154.0462 O   0  0  0  0  0  0  0  0  0  0  0  0
  146.8680  137.3809  152.6783 N   0  0  0  0  0  0  0  0  0  0  0  0
  145.5140  136.9939  152.2949 C   0  0  0  0  0  0  0  0  0  0  0  0
  145.5175  135.8631  151.2500 C   0  0  2  0  0  0  0  0  0  0  0  0
  144.1351  135.3560  150.8940 C   0  0  0  0  0  0  0  0  0  0  0  0
  144.4436  134.0051  150.2542 C   0  0  0  0  0  0  0  0  0  0  0  0
  145.6473  133.5462  150.8641 O   0  0  0  0  0  0  0  0  0  0  0  0
  146.1909  134.5647  151.6976 C   0  0  0  0  0  0  0  0  0  0  0  0
  152.1824  137.5765  154.7426 H   0  0  0  0  0  0  0  0  0  0  0  0
  151.1801  137.6045  153.2918 H   0  0  0  0  0  0  0  0  0  0  0  0
  150.5639  136.8796  154.7851 H   0  0  0  0  0  0  0  0  0  0  0  0
  152.3735  139.6669  155.8425 H   0  0  0  0  0  0  0  0  0  0  0  0
  151.4018  141.8703  156.5168 H   0  0  0  0  0  0  0  0  0  0  0  0
  149.0580  142.4092  155.8046 H   0  0  0  0  0  0  0  0  0  0  0  0
  149.0745  137.8073  153.1540 H   0  0  0  0  0  0  0  0  0  0  0  0
  147.6210  136.8384  152.2813 H   0  0  0  0  0  0  0  0  0  0  0  0
  144.9250  136.7104  153.1691 H   0  0  0  0  0  0  0  0  0  0  0  0
  145.0274  137.8742  151.8746 H   0  0  0  0  0  0  0  0  0  0  0  0
  146.0020  136.2131  150.3367 H   0  0  0  0  0  0  0  0  0  0  0  0
  143.5380  135.2136  151.7963 H   0  0  0  0  0  0  0  0  0  0  0  0
  143.5907  136.0261  150.2280 H   0  0  0  0  0  0  0  0  0  0  0  0
  143.6321  133.2894  150.3873 H   0  0  0  0  0  0  0  0  0  0  0  0
  144.6198  134.1209  149.1841 H   0  0  0  0  0  0  0  0  0  0  0  0
  147.2775  134.6051  151.6189 H   0  0  0  0  0  0  0  0  0  0  0  0
  145.9354  134.3345  152.7330 H   0  0  0  0  0  0  0  0  0  0  0  0
  1  2  1  0  0  0  0
  1 18  1  0  0  0  0
  1 19  1  0  0  0  0
  1 20  1  0  0  0  0
  2  7  1  0  0  0  0
  2  3  2  0  0  0  0
  3  4  1  0  0  0  0
  3 21  1  0  0  0  0
  4  5  2  0  0  0  0
  4 22  1  0  0  0  0
  5  6  1  0  0  0  0
  5 23  1  0  0  0  0
  6  7  2  0  0  0  0
  7  8  1  0  0  0  0
  8  9  1  0  0  0  0
  8 24  1  0  0  0  0
  9 10  2  0  0  0  0
  9 11  1  0  0  0  0
 11 12  1  0  0  0  0
 11 25  1  0  0  0  0
 12 13  1  0  0  0  0
 12 26  1  0  0  0  0
 12 27  1  0  0  0  0
 13 17  1  0  0  0  0
 13 14  1  0  0  0  0
 13 28  1  0  0  0  0
 14 15  1  0  0  0  0
 14 29  1  0  0  0  0
 14 30  1  0  0  0  0
 15 16  1  0  0  0  0
 15 31  1  0  0  0  0
 15 32  1  0  0  0  0
 16 17  1  0  0  0  0
 17 33  1  0  0  0  0
 17 34  1  0  0  0  0
M  END
> <s_m_source_file>
AV-unprocessed.smi

> <i_m_source_file_index>
1927

> <i_lp_mmshare_version>
43012

> <i_f3d_flags>
0

> <s_epik_input>
W0NIM11jMVtjSF1bY0hdW2NIXW5jMVtOSF1DKD1PKVtOSF1bQ0gyXVtDQEBIXTJbQ0gyXVtDSDJdT1tDSDJdMg==

> <s_epik_cmdline>
J2VwaWtfcHl0aG9uJywgJy1waCcsICc3LjAnLCAnLXRuJywgJzgnLCAnLW1hJywgJzIwMCcsICctbWV0YWxfYmluZGluZycsICctaW1hZScsICc8aW5maWxlLm1hZT4nLCAnLW9tYWUnLCAnPG91dGZpbGUubWFlPic=

> <r_lp_tautomer_probability>
1

> <r_epik_Ionization_Penalty>
5.84082e-05

> <r_epik_Ionization_Penalty_Charging>
0

> <r_epik_Ionization_Penalty_Neutral>
5.84082e-05

> <r_epik_State_Penalty>
-0

> <r_epik_Charging_Adjusted_Penalty>
0

> <i_epik_Tot_Q>
0

> <i_epik_Tot_abs_Q>
0

> <r_epik_Metal_State_Penalty>
-0

> <b_epik_Metal_Only>
0

> <s_lp_Force_Field>
OPLS_2005

> <r_lp_Energy>
21.003

> <b_lp_Chiralities_Consistent>
1

> <s_lp_Variant>
AV-unprocessed.smi:1927-1

> <Gold.Version>
5.8.1

> <Gold.Id.Protein>
6NUR|6NUR_protein|mol2

> <Gold.PLP.Fitness>
40.6234

> <Gold.PLP.PLP>
-32.1794

> <Gold.PLP.part.hbond>
-2.6964

> <Gold.PLP.part.metal>
0.0000

> <Gold.PLP.part.buried>
-3.7417

> <Gold.PLP.part.nonpolar>
-27.6668

> <Gold.PLP.part.repulsive>
0.4843

> <Gold.PLP.ligand.clash>
0.0000

> <Gold.PLP.ligand.torsion>
0.1117

> <Gold.PLP.Chemscore.Hbond>
1.8873

> <Gold.PLP.Chemscore.CHOScore>
1.0000

> <Gold.PLP.Chemscore.Metal>
0.0000

> <Gold.Chemscore.Hbonds>
donor molecule, donor type, donor heavy atom, donor atom, acceptor molecule, acceptor atom, score
      L1  H     8    24       P1  7948  0.88
      L1  H    11    25       P1  7948  0.96
      L1  C     5    23       P1  8028  1.00

> <Gold.PLP.Chemscore.Internal.Correction>
0.0057

> <Gold.Rescore>
     Score         DG    S(hbond)    S(metal)    S(lipo)     H(rot)  DE(clash)    DE(int)     intcor
     15.25     -16.66       1.96        0.00      66.74       1.23       0.09       1.33       ----

> <Gold.Chemscore.Fitness>
15.2451

> <Gold.Chemscore.DG>
-16.6649

> <Gold.Chemscore.ZeroCoef>
-5.4800

> <Gold.Chemscore.Hbond>
1.9563

> <Gold.Chemscore.Metal>
0.0000

> <Gold.Chemscore.Lipo>
66.7434

> <Gold.Chemscore.Internal_Hbond>
0.0000

> <Gold.Chemscore.DEClash>
0.0942

> <Gold.Chemscore.DEInternal>
1.3256

> <Gold.Chemscore.Rot>
1.2337

> <Gold.Chemscore.Internal.Correction>
   9.000000E+99

> <Gold.Chemscore.Hbonds>
donor molecule, donor type, donor heavy atom, donor atom, acceptor molecule, acceptor atom, score
      L1  H     8    24       P1  7948  0.82
      L1  H    11    25       P1  7948  0.90

> <Gold.Chemscore.Hbond.Weighted>
-6.5341

> <Gold.Chemscore.Metal.Weighted>
-0.0000

> <Gold.Chemscore.Lipo.Weighted>
-7.8090

> <Gold.Chemscore.Internal_Hbond.Weighted>
0.0000

> <Gold.Chemscore.DEClash.Weighted>
0.0942

> <Gold.Chemscore.DEInternal.Weighted>
1.3256

> <Gold.Chemscore.Rot.Weighted>
3.1582

> <Gold.Chemscore.Internal.Correction.Weighted>
   9.000000E+99

> <Gold.Protein.RotatedTorsions>
[ 6907 6896 6895 6894 ] final  117.78 input  -60.11 | X-H torsion
[ 7974 7965 7964 7962 ] final -117.85 input  175.53 | X-H torsion
[ 8008 7997 7996 7995 ] final   93.55 input   59.86 | X-H torsion
[ 10167 10162 10161 10158 ] final  -60.87 input  -65.29 | X-H torsion
[ 10718 10713 10712 10709 ] final  -16.01 input   66.30 | X-H torsion
[ 10763 10752 10751 10750 ] final   23.19 input  -60.55 | X-H torsion
[ 11005 11000 10999 10996 ] final  -81.41 input  -57.11 | X-H torsion

> <Gold.Protein.ActiveResidues>
 VAL166  LYS551  ARG553  GLY616  TRP617  ASP618  TYR619  PRO620  LYS621  CYS622 
 ASP623  PHE694  ASN695  SER759  ASP760  ASP761  ALA762  ILE779  LEU786  VAL792 
 PHE793  MET794  SER795  GLU796  ALA797  LYS798  CYS799  TRP800  GLU811  SER814 

> <Gold.Protein.RotatedAtoms>
  152.4589  133.7780  159.6834 H   0  0  0  0  0  0  0  0  0  0  0  0  # atno 6907 bound_to 6896
  150.8525  133.7756  159.3027 H   0  0  0  0  0  0  0  0  0  0  0  0  # atno 6908 bound_to 6896
  151.5347  135.1071  159.9963 H   0  0  0  0  0  0  0  0  0  0  0  0  # atno 6909 bound_to 6896
  145.0805  140.8422  143.4042 H   0  0  0  0  0  0  0  0  0  0  0  0  # atno 7974 bound_to 7965
  156.0480  140.3311  155.7319 H   0  0  0  0  0  0  0  0  0  0  0  0  # atno 8008 bound_to 7997
  155.5644  140.0622  157.2839 H   0  0  0  0  0  0  0  0  0  0  0  0  # atno 8009 bound_to 7997
  154.4423  140.1872  156.0803 H   0  0  0  0  0  0  0  0  0  0  0  0  # atno 8010 bound_to 7997
  140.6043  143.2369  151.5857 H   0  0  0  0  0  0  0  0  0  0  0  0  # atno 10167 bound_to 10162
  156.5936  130.4805  149.6269 H   0  0  0  0  0  0  0  0  0  0  0  0  # atno 10718 bound_to 10713
  153.0857  135.6632  153.9954 H   0  0  0  0  0  0  0  0  0  0  0  0  # atno 10763 bound_to 10752
  153.9564  135.2978  155.3437 H   0  0  0  0  0  0  0  0  0  0  0  0  # atno 10764 bound_to 10752
  154.7265  135.5142  153.8967 H   0  0  0  0  0  0  0  0  0  0  0  0  # atno 10765 bound_to 10752
  141.1666  133.7195  156.8418 H   0  0  0  0  0  0  0  0  0  0  0  0  # atno 11005 bound_to 11000
  145.1184  139.2710  143.5601 LP  0  0  0  0  0  0  0  0  0  0  0  0  # atno 17320 bound_to 7965
  146.3531  140.0800  142.8618 LP  0  0  0  0  0  0  0  0  0  0  0  0  # atno 17321 bound_to 7965
  139.5313  144.2907  152.1155 LP  0  0  0  0  0  0  0  0  0  0  0  0  # atno 17342 bound_to 10162
  140.2093  144.4578  150.6393 LP  0  0  0  0  0  0  0  0  0  0  0  0  # atno 17343 bound_to 10162
  156.2529  130.6917  151.1661 LP  0  0  0  0  0  0  0  0  0  0  0  0  # atno 17370 bound_to 10713
  157.7297  131.0622  150.5759 LP  0  0  0  0  0  0  0  0  0  0  0  0  # atno 17371 bound_to 10713
  140.1977  134.8919  157.3134 LP  0  0  0  0  0  0  0  0  0  0  0  0  # atno 17394 bound_to 11000
  140.2221  134.4011  155.7561 LP  0  0  0  0  0  0  0  0  0  0  0  0  # atno 17395 bound_to 11000

$$$$
