AV-unprocessed.smi:3110|AV-procd|sdf|11831|dock8
  -GOLD-   2272017203D 1   1.00000     0.00000
 Structure written by MMmdl.
 33 34  0  0  0  0  0  0  0  0  1 V2000
  153.6443  139.2903  158.4022 O   0  0  0  0  0  0  0  0  0  0  0  0
  152.6233  139.6358  158.9969 C   0  0  0  0  0  0  0  0  0  0  0  0
  151.3516  138.7854  158.9111 C   0  0  0  0  0  0  0  0  0  0  0  0
  150.7773  138.6892  157.4824 C   0  0  1  0  0  0  0  0  0  0  0  0
  150.4875  140.0450  156.8921 C   0  0  0  0  0  0  0  0  0  0  0  0
  151.0258  140.2077  155.6856 C   0  0  0  0  0  0  0  0  0  0  0  0
  151.7851  138.9942  155.2262 C   0  0  0  0  0  0  0  0  0  0  0  0
  151.7365  138.0462  156.4447 C   0  0  0  0  0  0  0  0  0  0  0  0
  152.5472  140.7485  159.7427 N   0  0  0  0  0  0  0  0  0  0  0  0
  153.6367  141.6959  159.9449 C   0  0  0  0  0  0  0  0  0  0  0  0
  153.1359  143.0076  160.5721 C   0  0  0  0  0  0  0  0  0  0  0  0
  152.3881  143.8000  159.6175 N   0  0  0  0  0  0  0  0  0  0  0  0
  152.0886  143.4677  158.3029 C   0  0  0  0  0  0  0  0  0  0  0  0
  151.3621  144.5180  157.7886 C   0  0  0  0  0  0  0  0  0  0  0  0
  151.2026  145.5001  158.7633 N   0  0  0  0  0  0  0  0  0  0  0  0
  151.8375  145.0051  159.8181 C   0  0  0  0  0  0  0  0  0  0  0  0
  151.5926  137.7872  159.2784 H   0  0  0  0  0  0  0  0  0  0  0  0
  150.5937  139.1872  159.5860 H   0  0  0  0  0  0  0  0  0  0  0  0
  149.8324  138.1437  157.4982 H   0  0  0  0  0  0  0  0  0  0  0  0
  149.8895  140.7811  157.4091 H   0  0  0  0  0  0  0  0  0  0  0  0
  150.9318  141.0941  155.0757 H   0  0  0  0  0  0  0  0  0  0  0  0
  151.2936  138.5586  154.3557 H   0  0  0  0  0  0  0  0  0  0  0  0
  152.8082  139.2566  154.9556 H   0  0  0  0  0  0  0  0  0  0  0  0
  152.7409  137.9425  156.8576 H   0  0  0  0  0  0  0  0  0  0  0  0
  151.4046  137.0466  156.1616 H   0  0  0  0  0  0  0  0  0  0  0  0
  151.6704  140.9560  160.1987 H   0  0  0  0  0  0  0  0  0  0  0  0
  154.3735  141.2289  160.5992 H   0  0  0  0  0  0  0  0  0  0  0  0
  154.1420  141.8909  158.9972 H   0  0  0  0  0  0  0  0  0  0  0  0
  152.4928  142.8072  161.4304 H   0  0  0  0  0  0  0  0  0  0  0  0
  153.9753  143.6015  160.9361 H   0  0  0  0  0  0  0  0  0  0  0  0
  152.4072  142.5379  157.8549 H   0  0  0  0  0  0  0  0  0  0  0  0
  150.9442  144.6410  156.8001 H   0  0  0  0  0  0  0  0  0  0  0  0
  151.9005  145.5295  160.7605 H   0  0  0  0  0  0  0  0  0  0  0  0
  1  2  2  0  0  0  0
  2  3  1  0  0  0  0
  2  9  1  0  0  0  0
  3  4  1  0  0  0  0
  3 17  1  0  0  0  0
  3 18  1  0  0  0  0
  4  8  1  0  0  0  0
  4  5  1  0  0  0  0
  4 19  1  0  0  0  0
  5  6  2  0  0  0  0
  5 20  1  0  0  0  0
  6  7  1  0  0  0  0
  6 21  1  0  0  0  0
  7  8  1  0  0  0  0
  7 22  1  0  0  0  0
  7 23  1  0  0  0  0
  8 24  1  0  0  0  0
  8 25  1  0  0  0  0
  9 10  1  0  0  0  0
  9 26  1  0  0  0  0
 10 11  1  0  0  0  0
 10 27  1  0  0  0  0
 10 28  1  0  0  0  0
 11 12  1  0  0  0  0
 11 29  1  0  0  0  0
 11 30  1  0  0  0  0
 12 16  1  0  0  0  0
 12 13  1  0  0  0  0
 13 14  2  0  0  0  0
 13 31  1  0  0  0  0
 14 15  1  0  0  0  0
 14 32  1  0  0  0  0
 15 16  2  0  0  0  0
 16 33  1  0  0  0  0
M  END
> <s_m_source_file>
AV-unprocessed.smi

> <i_m_source_file_index>
3110

> <i_lp_mmshare_version>
43012

> <i_f3d_flags>
0

> <s_epik_input>
W0NIMl0xW0NIMl1bQ0hdPVtDSF1bQ0BIXTFbQ0gyXUMoPU8pW05IXVtDSDJdW0NIMl1uMltjSF1bY0hdbltjSF0y

> <s_epik_cmdline>
J2VwaWtfcHl0aG9uJywgJy1waCcsICc3LjAnLCAnLXRuJywgJzgnLCAnLW1hJywgJzIwMCcsICctbWV0YWxfYmluZGluZycsICctaW1hZScsICc8aW5maWxlLm1hZT4nLCAnLW9tYWUnLCAnPG91dGZpbGUubWFlPic=

> <r_lp_tautomer_probability>
1

> <r_epik_Ionization_Penalty>
0.593629

> <r_epik_Ionization_Penalty_Charging>
0.593629

> <r_epik_Ionization_Penalty_Neutral>
1.57355e-08

> <r_epik_State_Penalty>
0.607413

> <r_epik_Charging_Adjusted_Penalty>
1.20104

> <i_epik_Tot_Q>
0

> <i_epik_Tot_abs_Q>
0

> <r_epik_Metal_State_Penalty>
0.299385

> <b_epik_Metal_Only>
0

> <s_lp_Force_Field>
OPLS_2005

> <r_lp_Energy>
16.9466

> <b_lp_Chiralities_Consistent>
1

> <s_lp_Variant>
AV-unprocessed.smi:3110-4

> <Gold.Version>
5.8.1

> <Gold.Id.Protein>
6NUR|6NUR_protein|mol2

> <Gold.PLP.Fitness>
43.6242

> <Gold.PLP.PLP>
-37.8542

> <Gold.PLP.part.hbond>
-2.0000

> <Gold.PLP.part.metal>
0.0000

> <Gold.PLP.part.buried>
-3.0146

> <Gold.PLP.part.nonpolar>
-31.7768

> <Gold.PLP.part.repulsive>
0.2912

> <Gold.PLP.ligand.clash>
0.0000

> <Gold.PLP.ligand.torsion>
0.1347

> <Gold.PLP.Chemscore.Hbond>
1.0000

> <Gold.PLP.Chemscore.CHOScore>
1.0000

> <Gold.PLP.Chemscore.Metal>
0.0000

> <Gold.Chemscore.Hbonds>
donor molecule, donor type, donor heavy atom, donor atom, acceptor molecule, acceptor atom, score
      P1  H  7997  8008       L1     1  1.00
      L1  C    14    32       P1  8028  1.00

> <Gold.PLP.Chemscore.Internal.Correction>
0.0393

> <Gold.Rescore>
     Score         DG    S(hbond)    S(metal)    S(lipo)     H(rot)  DE(clash)    DE(int)     intcor
     12.82     -13.14       1.00        0.00      80.99       2.01       0.08       0.24       ----

> <Gold.Chemscore.Fitness>
12.8208

> <Gold.Chemscore.DG>
-13.1402

> <Gold.Chemscore.ZeroCoef>
-5.4800

> <Gold.Chemscore.Hbond>
0.9978

> <Gold.Chemscore.Metal>
0.0000

> <Gold.Chemscore.Lipo>
80.9859

> <Gold.Chemscore.Internal_Hbond>
0.0000

> <Gold.Chemscore.DEClash>
0.0823

> <Gold.Chemscore.DEInternal>
0.2372

> <Gold.Chemscore.Rot>
2.0108

> <Gold.Chemscore.Internal.Correction>
   9.000000E+99

> <Gold.Chemscore.Hbonds>
donor molecule, donor type, donor heavy atom, donor atom, acceptor molecule, acceptor atom, score
      P1  H  7997  8008       L1     1  1.00

> <Gold.Chemscore.Hbond.Weighted>
-3.3326

> <Gold.Chemscore.Metal.Weighted>
-0.0000

> <Gold.Chemscore.Lipo.Weighted>
-9.4754

> <Gold.Chemscore.Internal_Hbond.Weighted>
0.0000

> <Gold.Chemscore.DEClash.Weighted>
0.0823

> <Gold.Chemscore.DEInternal.Weighted>
0.2372

> <Gold.Chemscore.Rot.Weighted>
5.1477

> <Gold.Chemscore.Internal.Correction.Weighted>
   9.000000E+99

> <Gold.Protein.RotatedTorsions>
[ 6907 6896 6895 6894 ] final  161.19 input  -60.11 | X-H torsion
[ 7974 7965 7964 7962 ] final  165.00 input  175.53 | X-H torsion
[ 8008 7997 7996 7995 ] final -104.33 input   59.86 | X-H torsion
[ 10167 10162 10161 10158 ] final  154.79 input  -65.29 | X-H torsion
[ 10718 10713 10712 10709 ] final  -72.40 input   66.30 | X-H torsion
[ 10763 10752 10751 10750 ] final  -89.43 input  -60.55 | X-H torsion
[ 11005 11000 10999 10996 ] final  -61.94 input  -57.11 | X-H torsion

> <Gold.Protein.ActiveResidues>
 VAL166  LYS551  ARG553  GLY616  TRP617  ASP618  TYR619  PRO620  LYS621  CYS622 
 ASP623  PHE694  ASN695  SER759  ASP760  ASP761  ALA762  ILE779  LEU786  VAL792 
 PHE793  MET794  SER795  GLU796  ALA797  LYS798  CYS799  TRP800  GLU811  SER814 

> <Gold.Protein.RotatedAtoms>
  151.9594  133.3690  159.4029 H   0  0  0  0  0  0  0  0  0  0  0  0  # atno 6907 bound_to 6896
  150.6967  134.4257  159.5234 H   0  0  0  0  0  0  0  0  0  0  0  0  # atno 6908 bound_to 6896
  152.1943  134.8644  160.0565 H   0  0  0  0  0  0  0  0  0  0  0  0  # atno 6909 bound_to 6896
  144.7521  139.8407  143.6362 H   0  0  0  0  0  0  0  0  0  0  0  0  # atno 7974 bound_to 7965
  154.8837  140.0418  157.1798 H   0  0  0  0  0  0  0  0  0  0  0  0  # atno 8008 bound_to 7997
  154.8612  140.2944  155.5517 H   0  0  0  0  0  0  0  0  0  0  0  0  # atno 8009 bound_to 7997
  156.2998  140.2446  156.3586 H   0  0  0  0  0  0  0  0  0  0  0  0  # atno 8010 bound_to 7997
  139.4822  144.5156  151.7957 H   0  0  0  0  0  0  0  0  0  0  0  0  # atno 10167 bound_to 10162
  156.0322  130.4371  150.2588 H   0  0  0  0  0  0  0  0  0  0  0  0  # atno 10718 bound_to 10713
  154.6552  135.5341  153.7950 H   0  0  0  0  0  0  0  0  0  0  0  0  # atno 10763 bound_to 10752
  153.0409  135.6492  154.0956 H   0  0  0  0  0  0  0  0  0  0  0  0  # atno 10764 bound_to 10752
  154.0870  135.2943  155.3259 H   0  0  0  0  0  0  0  0  0  0  0  0  # atno 10765 bound_to 10752
  141.1342  133.6635  156.5452 H   0  0  0  0  0  0  0  0  0  0  0  0  # atno 11005 bound_to 11000
  146.1485  139.4561  143.0064 LP  0  0  0  0  0  0  0  0  0  0  0  0  # atno 17320 bound_to 7965
  145.6907  141.0165  143.1557 LP  0  0  0  0  0  0  0  0  0  0  0  0  # atno 17321 bound_to 7965
  140.4664  144.1650  150.5912 LP  0  0  0  0  0  0  0  0  0  0  0  0  # atno 17342 bound_to 10162
  140.4430  143.2518  151.9448 LP  0  0  0  0  0  0  0  0  0  0  0  0  # atno 17343 bound_to 10162
  157.0689  131.0111  151.3197 LP  0  0  0  0  0  0  0  0  0  0  0  0  # atno 17370 bound_to 10713
  157.5014  130.7882  149.7608 LP  0  0  0  0  0  0  0  0  0  0  0  0  # atno 17371 bound_to 10713
  140.4107  134.7274  157.4834 LP  0  0  0  0  0  0  0  0  0  0  0  0  # atno 17394 bound_to 11000
  140.0429  134.6241  155.8958 LP  0  0  0  0  0  0  0  0  0  0  0  0  # atno 17395 bound_to 11000

$$$$
