AV-unprocessed.smi:2032|AV-procd|sdf|8251|dock4
  -GOLD-   2272010523D 1   1.00000     0.00000
 Structure written by MMmdl.
 42 43  0  0  0  0  0  0  0  0  3 V2000
  152.0900  138.6702  154.7810 C   0  0  0  0  0  0  0  0  0  0  0  0
  150.7234  138.0396  154.4905 C   0  0  2  0  0  0  0  0  0  0  0  0
  149.7734  139.0219  153.7849 C   0  0  0  0  0  0  0  0  0  0  0  0
  148.4349  138.4102  153.5749 N   0  3  2  0  0  0  0  0  0  0  0  0
  147.5375  139.2776  152.7453 C   0  0  2  0  0  0  0  0  0  0  0  0
  147.1831  140.6293  153.4115 C   0  0  0  0  0  0  0  0  0  0  0  0
  146.2431  138.5031  152.3843 C   0  0  0  0  0  0  0  0  0  0  0  0
  146.5055  137.1453  151.9175 N   0  0  0  0  0  0  0  0  0  0  0  0
  145.6167  136.1421  151.8998 C   0  0  0  0  0  0  0  0  0  0  0  0
  144.4609  136.3392  152.2827 O   0  0  0  0  0  0  0  0  0  0  0  0
  146.1248  134.9742  151.4473 N   0  5  0  0  0  0  0  0  0  0  0  0
  145.2997  133.9799  151.0814 C   0  0  0  0  0  0  0  0  0  0  0  0
  145.6567  133.0122  150.2294 N   0  0  0  0  0  0  0  0  0  0  0  0
  144.6459  132.0782  149.9947 C   0  0  0  0  0  0  0  0  0  0  0  0
  143.4951  132.3361  150.6911 C   0  0  0  0  0  0  0  0  0  0  0  0
  143.6475  133.7684  151.6684 S   0  0  0  0  0  0  0  0  0  0  0  0
  147.8855  137.9666  154.8853 C   0  0  0  0  0  0  0  0  0  0  0  0
  148.8674  137.0383  155.6293 C   0  0  1  0  0  0  0  0  0  0  0  0
  148.9423  135.6204  155.0346 C   0  0  0  0  0  0  0  0  0  0  0  0
  150.1526  137.6466  155.7337 O   0  0  0  0  0  0  0  0  0  0  0  0
  152.5786  138.9898  153.8602 H   0  0  0  0  0  0  0  0  0  0  0  0
  152.7504  137.9583  155.2771 H   0  0  0  0  0  0  0  0  0  0  0  0
  151.9935  139.5421  155.4288 H   0  0  0  0  0  0  0  0  0  0  0  0
  150.8830  137.1647  153.8601 H   0  0  0  0  0  0  0  0  0  0  0  0
  149.6659  139.9311  154.3790 H   0  0  0  0  0  0  0  0  0  0  0  0
  150.2188  139.3209  152.8376 H   0  0  0  0  0  0  0  0  0  0  0  0
  148.0752  139.5179  151.8266 H   0  0  0  0  0  0  0  0  0  0  0  0
  146.5150  141.2220  152.7865 H   0  0  0  0  0  0  0  0  0  0  0  0
  148.0645  141.2506  153.5701 H   0  0  0  0  0  0  0  0  0  0  0  0
  146.6866  140.4842  154.3714 H   0  0  0  0  0  0  0  0  0  0  0  0
  145.5507  138.4464  153.2235 H   0  0  0  0  0  0  0  0  0  0  0  0
  145.7098  139.0295  151.5923 H   0  0  0  0  0  0  0  0  0  0  0  0
  147.4392  136.9432  151.5906 H   0  0  0  0  0  0  0  0  0  0  0  0
  144.8336  131.2594  149.3162 H   0  0  0  0  0  0  0  0  0  0  0  0
  142.5731  131.7747  150.6904 H   0  0  0  0  0  0  0  0  0  0  0  0
  147.6733  138.8450  155.4968 H   0  0  0  0  0  0  0  0  0  0  0  0
  146.9474  137.4267  154.7594 H   0  0  0  0  0  0  0  0  0  0  0  0
  148.5057  136.9284  156.6521 H   0  0  0  0  0  0  0  0  0  0  0  0
  147.9745  135.1226  155.1003 H   0  0  0  0  0  0  0  0  0  0  0  0
  149.6634  135.0089  155.5775 H   0  0  0  0  0  0  0  0  0  0  0  0
  149.2313  135.6260  153.9840 H   0  0  0  0  0  0  0  0  0  0  0  0
  148.5772  137.5667  153.0380 H   0  0  0  0  0  0  0  0  0  0  0  0
  1  2  1  0  0  0  0
  1 21  1  0  0  0  0
  1 22  1  0  0  0  0
  1 23  1  0  0  0  0
  2 20  1  0  0  0  0
  2  3  1  0  0  0  0
  2 24  1  0  0  0  0
  3  4  1  0  0  0  0
  3 25  1  0  0  0  0
  3 26  1  0  0  0  0
  4  5  1  0  0  0  0
  4 17  1  0  0  0  0
  4 42  1  0  0  0  0
  5  6  1  0  0  0  0
  5  7  1  0  0  0  0
  5 27  1  0  0  0  0
  6 28  1  0  0  0  0
  6 29  1  0  0  0  0
  6 30  1  0  0  0  0
  7  8  1  0  0  0  0
  7 31  1  0  0  0  0
  7 32  1  0  0  0  0
  8  9  1  0  0  0  0
  8 33  1  0  0  0  0
  9 10  2  0  0  0  0
  9 11  1  0  0  0  0
 11 12  1  0  0  0  0
 12 16  1  0  0  0  0
 12 13  2  0  0  0  0
 13 14  1  0  0  0  0
 14 15  2  0  0  0  0
 14 34  1  0  0  0  0
 15 16  1  0  0  0  0
 15 35  1  0  0  0  0
 17 18  1  0  0  0  0
 17 36  1  0  0  0  0
 17 37  1  0  0  0  0
 18 19  1  0  0  0  0
 18 20  1  0  0  0  0
 18 38  1  0  0  0  0
 19 39  1  0  0  0  0
 19 40  1  0  0  0  0
 19 41  1  0  0  0  0
M  CHG  1   4   1
M  CHG  1  11  -1
M  END
> <s_m_source_file>
AV-unprocessed.smi

> <i_m_source_file_index>
2032

> <i_lp_mmshare_version>
43012

> <i_f3d_flags>
0

> <s_epik_input>
W0NIM11bQ0BASF0xW0NIMl1OKFtDSDJdW0NASF0oTzEpW0NIM10pW0NASF0oW0NIM10pW0NIMl1bTkhdQyg9TylbTkhdYzJuW2NIXVtjSF1zMg==

> <s_epik_cmdline>
J2VwaWtfcHl0aG9uJywgJy1waCcsICc3LjAnLCAnLXRuJywgJzgnLCAnLW1hJywgJzIwMCcsICctbWV0YWxfYmluZGluZycsICctaW1hZScsICc8aW5maWxlLm1hZT4nLCAnLW9tYWUnLCAnPG91dGZpbGUubWFlPic=

> <r_lp_tautomer_probability>
0.999

> <r_epik_Ionization_Penalty>
6.71699

> <r_epik_Ionization_Penalty_Charging>
5.88592

> <r_epik_Ionization_Penalty_Neutral>
0.831074

> <r_epik_State_Penalty>
6.08365

> <r_epik_Charging_Adjusted_Penalty>
11.9696

> <i_epik_Tot_Q>
0

> <i_epik_Tot_abs_Q>
2

> <r_epik_Metal_State_Penalty>
2.0947

> <b_epik_Metal_Only>
1

> <s_lp_Force_Field>
OPLS_2005

> <r_lp_Energy>
13.7972

> <b_lp_Chiralities_Consistent>
1

> <s_lp_Variant>
AV-unprocessed.smi:2032-21

> <Gold.Version>
5.8.1

> <Gold.Id.Protein>
6NUR|6NUR_protein|mol2

> <Gold.PLP.Fitness>
42.9255

> <Gold.PLP.PLP>
-31.6702

> <Gold.PLP.part.hbond>
-2.6847

> <Gold.PLP.part.metal>
0.0000

> <Gold.PLP.part.buried>
-0.0862

> <Gold.PLP.part.nonpolar>
-30.6230

> <Gold.PLP.part.repulsive>
1.0129

> <Gold.PLP.ligand.clash>
0.0000

> <Gold.PLP.ligand.torsion>
0.4073

> <Gold.PLP.Chemscore.Hbond>
3.0000

> <Gold.PLP.Chemscore.CHOScore>
1.0000

> <Gold.PLP.Chemscore.Metal>
0.0000

> <Gold.Chemscore.Hbonds>
donor molecule, donor type, donor heavy atom, donor atom, acceptor molecule, acceptor atom, score
      L1  H     4    42       P1  7948  2.00
      L1  H     8    33       P1  7948  1.00
      L1  C    15    35       P1 10952  1.00

> <Gold.PLP.Chemscore.Internal.Correction>
0.0698

> <Gold.Rescore>
     Score         DG    S(hbond)    S(metal)    S(lipo)     H(rot)  DE(clash)    DE(int)     intcor
     14.97     -16.96       1.97        0.00      76.52       1.58       0.15       1.84       ----

> <Gold.Chemscore.Fitness>
14.9685

> <Gold.Chemscore.DG>
-16.9593

> <Gold.Chemscore.ZeroCoef>
-5.4800

> <Gold.Chemscore.Hbond>
1.9667

> <Gold.Chemscore.Metal>
0.0000

> <Gold.Chemscore.Lipo>
76.5229

> <Gold.Chemscore.Internal_Hbond>
0.0000

> <Gold.Chemscore.DEClash>
0.1544

> <Gold.Chemscore.DEInternal>
1.8364

> <Gold.Chemscore.Rot>
1.5791

> <Gold.Chemscore.Internal.Correction>
   9.000000E+99

> <Gold.Chemscore.Hbonds>
donor molecule, donor type, donor heavy atom, donor atom, acceptor molecule, acceptor atom, score
      L1  H     4    42       P1  7948  1.00
      L1  H     8    33       P1  7948  0.95

> <Gold.Chemscore.Hbond.Weighted>
-6.5686

> <Gold.Chemscore.Metal.Weighted>
-0.0000

> <Gold.Chemscore.Lipo.Weighted>
-8.9532

> <Gold.Chemscore.Internal_Hbond.Weighted>
0.0000

> <Gold.Chemscore.DEClash.Weighted>
0.1544

> <Gold.Chemscore.DEInternal.Weighted>
1.8364

> <Gold.Chemscore.Rot.Weighted>
4.0425

> <Gold.Chemscore.Internal.Correction.Weighted>
   9.000000E+99

> <Gold.Protein.RotatedTorsions>
[ 6907 6896 6895 6894 ] final  111.29 input  -60.11 | X-H torsion
[ 7974 7965 7964 7962 ] final -144.61 input  175.53 | X-H torsion
[ 8008 7997 7996 7995 ] final  -87.74 input   59.86 | X-H torsion
[ 10167 10162 10161 10158 ] final   98.07 input  -65.29 | X-H torsion
[ 10718 10713 10712 10709 ] final   35.66 input   66.30 | X-H torsion
[ 10763 10752 10751 10750 ] final  -53.78 input  -60.55 | X-H torsion
[ 11005 11000 10999 10996 ] final  -78.65 input  -57.11 | X-H torsion

> <Gold.Protein.ActiveResidues>
 VAL166  LYS551  ARG553  GLY616  TRP617  ASP618  TYR619  PRO620  LYS621  CYS622 
 ASP623  PHE694  ASN695  SER759  ASP760  ASP761  ALA762  ILE779  LEU786  VAL792 
 PHE793  MET794  SER795  GLU796  ALA797  LYS798  CYS799  TRP800  GLU811  SER814 

> <Gold.Protein.RotatedAtoms>
  152.4977  133.8679  159.7283 H   0  0  0  0  0  0  0  0  0  0  0  0  # atno 6907 bound_to 6896
  150.9173  133.6914  159.2847 H   0  0  0  0  0  0  0  0  0  0  0  0  # atno 6908 bound_to 6896
  151.4303  135.1013  159.9692 H   0  0  0  0  0  0  0  0  0  0  0  0  # atno 6909 bound_to 6896
  144.8285  140.5688  143.5531 H   0  0  0  0  0  0  0  0  0  0  0  0  # atno 7974 bound_to 7965
  154.6667  140.0562  157.0122 H   0  0  0  0  0  0  0  0  0  0  0  0  # atno 8008 bound_to 7997
  155.1148  140.3242  155.4493 H   0  0  0  0  0  0  0  0  0  0  0  0  # atno 8009 bound_to 7997
  156.2641  140.2008  156.6271 H   0  0  0  0  0  0  0  0  0  0  0  0  # atno 8010 bound_to 7997
  139.7742  144.6911  151.0113 H   0  0  0  0  0  0  0  0  0  0  0  0  # atno 10167 bound_to 10162
  157.3254  130.7470  149.6812 H   0  0  0  0  0  0  0  0  0  0  0  0  # atno 10718 bound_to 10713
  154.1644  135.6469  153.4994 H   0  0  0  0  0  0  0  0  0  0  0  0  # atno 10763 bound_to 10752
  153.0101  135.5368  154.6678 H   0  0  0  0  0  0  0  0  0  0  0  0  # atno 10764 bound_to 10752
  154.6000  135.2943  155.0517 H   0  0  0  0  0  0  0  0  0  0  0  0  # atno 10765 bound_to 10752
  141.1665  133.7072  156.8004 H   0  0  0  0  0  0  0  0  0  0  0  0  # atno 11005 bound_to 11000
  145.4947  139.1486  143.3690 LP  0  0  0  0  0  0  0  0  0  0  0  0  # atno 17320 bound_to 7965
  146.2589  140.5085  142.8861 LP  0  0  0  0  0  0  0  0  0  0  0  0  # atno 17321 bound_to 7965
  140.7815  143.4554  151.0353 LP  0  0  0  0  0  0  0  0  0  0  0  0  # atno 17342 bound_to 10162
  139.8237  143.7785  152.3178 LP  0  0  0  0  0  0  0  0  0  0  0  0  # atno 17343 bound_to 10162
  155.9690  130.4211  150.4453 LP  0  0  0  0  0  0  0  0  0  0  0  0  # atno 17370 bound_to 10713
  157.2476  131.0539  151.2399 LP  0  0  0  0  0  0  0  0  0  0  0  0  # atno 17371 bound_to 10713
  140.2260  134.8721  157.3427 LP  0  0  0  0  0  0  0  0  0  0  0  0  # atno 17394 bound_to 11000
  140.1939  134.4338  155.7700 LP  0  0  0  0  0  0  0  0  0  0  0  0  # atno 17395 bound_to 11000

$$$$
