AV-unprocessed.smi:1254|AV-procd|sdf|5276|dock6
  -GOLD-   22720 4393D 1   1.00000     0.00000
 Structure written by MMmdl.
 45 46  0  0  0  0  0  0  0  0  3 V2000
  149.0515  140.8067  154.3015 C   0  0  0  0  0  0  0  0  0  0  0  0
  149.9168  139.5975  154.4071 C   0  0  0  0  0  0  0  0  0  0  0  0
  149.6514  138.2587  154.3490 C   0  0  0  0  0  0  0  0  0  0  0  0
  150.9303  137.6657  154.5338 C   0  0  0  0  0  0  0  0  0  0  0  0
  151.1968  136.3503  154.5450 N   0  5  0  0  0  0  0  0  0  0  0  0
  150.3471  135.4889  155.1495 C   0  0  0  0  0  0  0  0  0  0  0  0
  150.4131  135.0887  156.3140 O   0  0  0  0  0  0  0  0  0  0  0  0
  149.3593  135.0607  154.3537 N   0  0  0  0  0  0  0  0  0  0  0  0
  148.3219  134.1152  154.7423 C   0  0  0  0  0  0  0  0  0  0  0  0
  146.9545  134.5621  154.2082 C   0  0  1  0  0  0  0  0  0  0  0  0
  145.9302  133.4085  154.2225 C   0  0  0  0  0  0  0  0  0  0  0  0
  144.5930  133.8672  153.7732 N   0  3  2  0  0  0  0  0  0  0  0  0
  144.4796  134.0289  152.2982 C   0  0  0  0  0  0  0  0  0  0  0  0
  144.2005  132.6961  151.5705 C   0  0  0  0  0  0  0  0  0  0  0  0
  145.2892  131.6482  151.8574 C   0  0  0  0  0  0  0  0  0  0  0  0
  144.0629  132.9246  150.0580 C   0  0  0  0  0  0  0  0  0  0  0  0
  144.1562  135.0469  154.5625 C   0  0  0  0  0  0  0  0  0  0  0  0
  145.2348  136.1472  154.5785 C   0  0  0  0  0  0  0  0  0  0  0  0
  146.4652  135.6073  155.0432 O   0  0  0  0  0  0  0  0  0  0  0  0
  151.8894  138.5656  154.6734 N   0  0  0  0  0  0  0  0  0  0  0  0
  151.2465  139.8071  154.6011 O   0  0  0  0  0  0  0  0  0  0  0  0
  148.4235  140.7552  153.4122 H   0  0  0  0  0  0  0  0  0  0  0  0
  149.6509  141.7152  154.2388 H   0  0  0  0  0  0  0  0  0  0  0  0
  148.4005  140.8911  155.1717 H   0  0  0  0  0  0  0  0  0  0  0  0
  148.6951  137.7791  154.2025 H   0  0  0  0  0  0  0  0  0  0  0  0
  149.3340  135.4142  153.4085 H   0  0  0  0  0  0  0  0  0  0  0  0
  148.5705  133.1315  154.3405 H   0  0  0  0  0  0  0  0  0  0  0  0
  148.2976  134.0235  155.8292 H   0  0  0  0  0  0  0  0  0  0  0  0
  147.0793  134.9336  153.1890 H   0  0  0  0  0  0  0  0  0  0  0  0
  146.2727  132.5743  153.6088 H   0  0  0  0  0  0  0  0  0  0  0  0
  145.8343  133.0199  155.2375 H   0  0  0  0  0  0  0  0  0  0  0  0
  143.7067  134.7606  152.0626 H   0  0  0  0  0  0  0  0  0  0  0  0
  145.4094  134.4411  151.9037 H   0  0  0  0  0  0  0  0  0  0  0  0
  143.2489  132.2924  151.9147 H   0  0  0  0  0  0  0  0  0  0  0  0
  146.2701  131.9949  151.5304 H   0  0  0  0  0  0  0  0  0  0  0  0
  145.0788  130.7128  151.3382 H   0  0  0  0  0  0  0  0  0  0  0  0
  145.3543  131.4194  152.9211 H   0  0  0  0  0  0  0  0  0  0  0  0
  144.9845  133.3208  149.6301 H   0  0  0  0  0  0  0  0  0  0  0  0
  143.2625  133.6312  149.8369 H   0  0  0  0  0  0  0  0  0  0  0  0
  143.8295  131.9942  149.5392 H   0  0  0  0  0  0  0  0  0  0  0  0
  143.2106  135.4425  154.1942 H   0  0  0  0  0  0  0  0  0  0  0  0
  143.9692  134.7172  155.5853 H   0  0  0  0  0  0  0  0  0  0  0  0
  145.3686  136.5935  153.5922 H   0  0  0  0  0  0  0  0  0  0  0  0
  144.9324  136.9537  155.2467 H   0  0  0  0  0  0  0  0  0  0  0  0
  143.9577  133.1156  154.0007 H   0  0  0  0  0  0  0  0  0  0  0  0
  1  2  1  0  0  0  0
  1 22  1  0  0  0  0
  1 23  1  0  0  0  0
  1 24  1  0  0  0  0
  2 21  1  0  0  0  0
  2  3  2  0  0  0  0
  3  4  1  0  0  0  0
  3 25  1  0  0  0  0
  4  5  1  0  0  0  0
  4 20  2  0  0  0  0
  5  6  1  0  0  0  0
  6  7  2  0  0  0  0
  6  8  1  0  0  0  0
  8  9  1  0  0  0  0
  8 26  1  0  0  0  0
  9 10  1  0  0  0  0
  9 27  1  0  0  0  0
  9 28  1  0  0  0  0
 10 19  1  0  0  0  0
 10 11  1  0  0  0  0
 10 29  1  0  0  0  0
 11 12  1  0  0  0  0
 11 30  1  0  0  0  0
 11 31  1  0  0  0  0
 12 13  1  0  0  0  0
 12 17  1  0  0  0  0
 12 45  1  0  0  0  0
 13 14  1  0  0  0  0
 13 32  1  0  0  0  0
 13 33  1  0  0  0  0
 14 15  1  0  0  0  0
 14 16  1  0  0  0  0
 14 34  1  0  0  0  0
 15 35  1  0  0  0  0
 15 36  1  0  0  0  0
 15 37  1  0  0  0  0
 16 38  1  0  0  0  0
 16 39  1  0  0  0  0
 16 40  1  0  0  0  0
 17 18  1  0  0  0  0
 17 41  1  0  0  0  0
 17 42  1  0  0  0  0
 18 19  1  0  0  0  0
 18 43  1  0  0  0  0
 18 44  1  0  0  0  0
 20 21  1  0  0  0  0
M  CHG  1   5  -1
M  CHG  1  12   1
M  END
> <s_m_source_file>
AV-unprocessed.smi

> <i_m_source_file_index>
1254

> <i_lp_mmshare_version>
43012

> <i_f3d_flags>
0

> <s_epik_input>
W0NIM11jMVtjSF1jKG5vMSlbTkhdQyg9TylbTkhdW0NIMl1bQ0BASF0yW0NIMl1OKFtDSDJdW0NIMl1PMilbQ0gyXVtDSF0oW0NIM10pW0NIM10=

> <s_epik_cmdline>
J2VwaWtfcHl0aG9uJywgJy1waCcsICc3LjAnLCAnLXRuJywgJzgnLCAnLW1hJywgJzIwMCcsICctbWV0YWxfYmluZGluZycsICctaW1hZScsICc8aW5maWxlLm1hZT4nLCAnLW9tYWUnLCAnPG91dGZpbGUubWFlPic=

> <r_epik_Ionization_Penalty>
6.33139

> <r_epik_Ionization_Penalty_Charging>
6.33128

> <r_epik_Ionization_Penalty_Neutral>
0.000104968

> <r_epik_State_Penalty>
6.32522

> <r_epik_Charging_Adjusted_Penalty>
12.6565

> <i_epik_Tot_Q>
0

> <i_epik_Tot_abs_Q>
2

> <r_epik_Metal_State_Penalty>
2.26285

> <b_epik_Metal_Only>
1

> <s_lp_Force_Field>
OPLS_2005

> <r_lp_Energy>
8.57964

> <b_lp_Chiralities_Consistent>
1

> <s_lp_Variant>
AV-unprocessed.smi:1254-8

> <Gold.Version>
5.8.1

> <Gold.Id.Protein>
6NUR|6NUR_protein|mol2

> <Gold.PLP.Fitness>
45.1933

> <Gold.PLP.PLP>
-30.4006

> <Gold.PLP.part.hbond>
-4.0000

> <Gold.PLP.part.metal>
0.0000

> <Gold.PLP.part.buried>
-7.3189

> <Gold.PLP.part.nonpolar>
-21.0624

> <Gold.PLP.part.repulsive>
0.4036

> <Gold.PLP.ligand.clash>
0.0000

> <Gold.PLP.ligand.torsion>
1.6188

> <Gold.PLP.Chemscore.Hbond>
5.9500

> <Gold.PLP.Chemscore.CHOScore>
0.0000

> <Gold.PLP.Chemscore.Metal>
0.0000

> <Gold.Chemscore.Hbonds>
donor molecule, donor type, donor heavy atom, donor atom, acceptor molecule, acceptor atom, score
      L1  H     8    26       P1  7948  0.95
      L1  H    12    45       P1 10957  2.00
      P1  H  7989  7998       L1    21  1.00
      P1  H 10752 10765       L1     5  2.00

> <Gold.PLP.Chemscore.Internal.Correction>
0.1803

> <Gold.Rescore>
     Score         DG    S(hbond)    S(metal)    S(lipo)     H(rot)  DE(clash)    DE(int)     intcor
     16.78     -18.44       3.10        0.00      59.23       1.69       0.01       1.65       ----

> <Gold.Chemscore.Fitness>
16.7798

> <Gold.Chemscore.DG>
-18.4409

> <Gold.Chemscore.ZeroCoef>
-5.4800

> <Gold.Chemscore.Hbond>
3.1030

> <Gold.Chemscore.Metal>
0.0000

> <Gold.Chemscore.Lipo>
59.2305

> <Gold.Chemscore.Internal_Hbond>
0.0000

> <Gold.Chemscore.DEClash>
0.0117

> <Gold.Chemscore.DEInternal>
1.6494

> <Gold.Chemscore.Rot>
1.6926

> <Gold.Chemscore.Internal.Correction>
   9.000000E+99

> <Gold.Chemscore.Hbonds>
donor molecule, donor type, donor heavy atom, donor atom, acceptor molecule, acceptor atom, score
      L1  H     8    26       P1  7948  0.22
      L1  H    12    45       P1 10957  0.93
      P1  H  7989  7998       L1    21  0.48
      P1  H 10752 10765       L1     5  0.82

> <Gold.Chemscore.Hbond.Weighted>
-10.3640

> <Gold.Chemscore.Metal.Weighted>
-0.0000

> <Gold.Chemscore.Lipo.Weighted>
-6.9300

> <Gold.Chemscore.Internal_Hbond.Weighted>
0.0000

> <Gold.Chemscore.DEClash.Weighted>
0.0117

> <Gold.Chemscore.DEInternal.Weighted>
1.6494

> <Gold.Chemscore.Rot.Weighted>
4.3330

> <Gold.Chemscore.Internal.Correction.Weighted>
   9.000000E+99

> <Gold.Protein.RotatedTorsions>
[ 6907 6896 6895 6894 ] final    5.39 input  -60.11 | X-H torsion
[ 7974 7965 7964 7962 ] final  -72.70 input  175.53 | X-H torsion
[ 8008 7997 7996 7995 ] final  102.36 input   59.86 | X-H torsion
[ 10167 10162 10161 10158 ] final   75.81 input  -65.29 | X-H torsion
[ 10718 10713 10712 10709 ] final   25.54 input   66.30 | X-H torsion
[ 10763 10752 10751 10750 ] final  168.28 input  -60.55 | X-H torsion
[ 11005 11000 10999 10996 ] final   23.90 input  -57.11 | X-H torsion

> <Gold.Protein.ActiveResidues>
 VAL166  LYS551  ARG553  GLY616  TRP617  ASP618  TYR619  PRO620  LYS621  CYS622 
 ASP623  PHE694  ASN695  SER759  ASP760  ASP761  ALA762  ILE779  LEU786  VAL792 
 PHE793  MET794  SER795  GLU796  ALA797  LYS798  CYS799  TRP800  GLU811  SER814 

> <Gold.Protein.RotatedAtoms>
  151.6567  135.0994  160.0171 H   0  0  0  0  0  0  0  0  0  0  0  0  # atno 6907 bound_to 6896
  152.3970  133.6757  159.6293 H   0  0  0  0  0  0  0  0  0  0  0  0  # atno 6908 bound_to 6896
  150.7875  133.8774  159.3317 H   0  0  0  0  0  0  0  0  0  0  0  0  # atno 6909 bound_to 6896
  145.6617  140.9250  143.0930 H   0  0  0  0  0  0  0  0  0  0  0  0  # atno 7974 bound_to 7965
  156.1386  140.3182  155.8459 H   0  0  0  0  0  0  0  0  0  0  0  0  # atno 8008 bound_to 7997
  155.4198  140.0511  157.3043 H   0  0  0  0  0  0  0  0  0  0  0  0  # atno 8009 bound_to 7997
  154.4957  140.2110  155.9465 H   0  0  0  0  0  0  0  0  0  0  0  0  # atno 8010 bound_to 7997
  139.9990  144.5701  150.7753 H   0  0  0  0  0  0  0  0  0  0  0  0  # atno 10167 bound_to 10162
  157.1948  130.6862  149.6164 H   0  0  0  0  0  0  0  0  0  0  0  0  # atno 10718 bound_to 10713
  154.3662  135.2753  155.2292 H   0  0  0  0  0  0  0  0  0  0  0  0  # atno 10763 bound_to 10752
  154.4459  135.5943  153.6163 H   0  0  0  0  0  0  0  0  0  0  0  0  # atno 10764 bound_to 10752
  152.9840  135.6030  154.3888 H   0  0  0  0  0  0  0  0  0  0  0  0  # atno 10765 bound_to 10752
  140.3645  134.2089  155.7670 H   0  0  0  0  0  0  0  0  0  0  0  0  # atno 11005 bound_to 11000
  144.7087  139.8458  143.7422 LP  0  0  0  0  0  0  0  0  0  0  0  0  # atno 17320 bound_to 7965
  146.1119  139.4125  143.0282 LP  0  0  0  0  0  0  0  0  0  0  0  0  # atno 17321 bound_to 7965
  140.7426  143.2834  151.3532 LP  0  0  0  0  0  0  0  0  0  0  0  0  # atno 17342 bound_to 10162
  139.6285  144.0766  152.2456 LP  0  0  0  0  0  0  0  0  0  0  0  0  # atno 17343 bound_to 10162
  155.9707  130.4602  150.6066 LP  0  0  0  0  0  0  0  0  0  0  0  0  # atno 17370 bound_to 10713
  157.3825  131.0783  151.1464 LP  0  0  0  0  0  0  0  0  0  0  0  0  # atno 17371 bound_to 10713
  141.1974  133.8061  157.0630 LP  0  0  0  0  0  0  0  0  0  0  0  0  # atno 17394 bound_to 11000
  140.0600  134.9760  157.1288 LP  0  0  0  0  0  0  0  0  0  0  0  0  # atno 17395 bound_to 11000

$$$$
