AV-unprocessed.smi:956|AV-procd|sdf|4263|dock6
  -GOLD-   22720 2173D 1   1.00000     0.00000
 Structure written by MMmdl.
 42 43  0  0  0  0  0  0  0  0  1 V2000
  161.1418  140.5424  160.7303 C   0  0  0  0  0  0  0  0  0  0  0  0
  160.4720  142.2710  160.8022 S   0  0  2  0  0  0  0  0  0  0  0  0
  159.3037  142.2605  161.7899 O   0  0  0  0  0  0  0  0  0  0  0  0
  159.6760  142.2154  159.1576 C   0  0  0  0  0  0  0  0  0  0  0  0
  159.8475  143.1480  158.2158 N   0  0  0  0  0  0  0  0  0  0  0  0
  159.0686  142.7300  157.1537 N   0  0  0  0  0  0  0  0  0  0  0  0
  158.5168  141.5877  157.5672 C   0  0  0  0  0  0  0  0  0  0  0  0
  158.8516  141.2085  158.8114 N   0  0  0  0  0  0  0  0  0  0  0  0
  158.4026  140.0430  159.5559 C   0  0  0  0  0  0  0  0  0  0  0  0
  156.9077  139.8247  159.3322 C   0  0  0  0  0  0  0  0  0  0  0  0
  156.5265  138.9738  158.5295 O   0  0  0  0  0  0  0  0  0  0  0  0
  156.0811  140.6385  160.0077 N   0  0  0  0  0  0  0  0  0  0  0  0
  154.6551  140.8008  159.7446 C   0  0  0  0  0  0  0  0  0  0  0  0
  153.9490  141.5078  160.9194 C   0  0  0  0  0  0  0  0  0  0  0  0
  152.7118  142.3549  160.5400 C   0  0  0  0  0  0  0  0  0  0  0  0
  152.8676  142.9730  159.1364 C   0  0  0  0  0  0  0  0  0  0  0  0
  151.6138  143.7640  158.7306 C   0  0  0  0  0  0  0  0  0  0  0  0
  151.2905  144.8562  159.7613 C   0  0  0  0  0  0  0  0  0  0  0  0
  151.1534  144.2647  161.1726 C   0  0  0  0  0  0  0  0  0  0  0  0
  152.4045  143.4635  161.5686 C   0  0  0  0  0  0  0  0  0  0  0  0
  161.1808  140.1727  159.7072 H   0  0  0  0  0  0  0  0  0  0  0  0
  160.5130  139.8705  161.3143 H   0  0  0  0  0  0  0  0  0  0  0  0
  162.1507  140.5160  161.1408 H   0  0  0  0  0  0  0  0  0  0  0  0
  157.8383  141.0178  156.9494 H   0  0  0  0  0  0  0  0  0  0  0  0
  158.9638  139.1719  159.2153 H   0  0  0  0  0  0  0  0  0  0  0  0
  158.6163  140.1681  160.6174 H   0  0  0  0  0  0  0  0  0  0  0  0
  156.4929  141.2856  160.6642 H   0  0  0  0  0  0  0  0  0  0  0  0
  154.4747  141.3423  158.8152 H   0  0  0  0  0  0  0  0  0  0  0  0
  154.2216  139.8107  159.6024 H   0  0  0  0  0  0  0  0  0  0  0  0
  153.6666  140.7644  161.6657 H   0  0  0  0  0  0  0  0  0  0  0  0
  154.6778  142.1546  161.4094 H   0  0  0  0  0  0  0  0  0  0  0  0
  151.8453  141.6958  160.4940 H   0  0  0  0  0  0  0  0  0  0  0  0
  153.7374  143.6311  159.1166 H   0  0  0  0  0  0  0  0  0  0  0  0
  153.0557  142.1921  158.3991 H   0  0  0  0  0  0  0  0  0  0  0  0
  151.7586  144.2122  157.7472 H   0  0  0  0  0  0  0  0  0  0  0  0
  150.7659  143.0835  158.6390 H   0  0  0  0  0  0  0  0  0  0  0  0
  152.0812  145.6075  159.7562 H   0  0  0  0  0  0  0  0  0  0  0  0
  150.3710  145.3713  159.4822 H   0  0  0  0  0  0  0  0  0  0  0  0
  150.9797  145.0631  161.8946 H   0  0  0  0  0  0  0  0  0  0  0  0
  150.2774  143.6160  161.2132 H   0  0  0  0  0  0  0  0  0  0  0  0
  152.2499  143.0357  162.5584 H   0  0  0  0  0  0  0  0  0  0  0  0
  153.2590  144.1360  161.6537 H   0  0  0  0  0  0  0  0  0  0  0  0
  1  2  1  0  0  0  0
  1 21  1  0  0  0  0
  1 22  1  0  0  0  0
  1 23  1  0  0  0  0
  2  3  2  0  0  0  0
  2  4  1  0  0  0  0
  4  8  1  0  0  0  0
  4  5  2  0  0  0  0
  5  6  1  0  0  0  0
  6  7  2  0  0  0  0
  7  8  1  0  0  0  0
  7 24  1  0  0  0  0
  8  9  1  0  0  0  0
  9 10  1  0  0  0  0
  9 25  1  0  0  0  0
  9 26  1  0  0  0  0
 10 11  2  0  0  0  0
 10 12  1  0  0  0  0
 12 13  1  0  0  0  0
 12 27  1  0  0  0  0
 13 14  1  0  0  0  0
 13 28  1  0  0  0  0
 13 29  1  0  0  0  0
 14 15  1  0  0  0  0
 14 30  1  0  0  0  0
 14 31  1  0  0  0  0
 15 20  1  0  0  0  0
 15 16  1  0  0  0  0
 15 32  1  0  0  0  0
 16 17  1  0  0  0  0
 16 33  1  0  0  0  0
 16 34  1  0  0  0  0
 17 18  1  0  0  0  0
 17 35  1  0  0  0  0
 17 36  1  0  0  0  0
 18 19  1  0  0  0  0
 18 37  1  0  0  0  0
 18 38  1  0  0  0  0
 19 20  1  0  0  0  0
 19 39  1  0  0  0  0
 19 40  1  0  0  0  0
 20 41  1  0  0  0  0
 20 42  1  0  0  0  0
M  END
> <s_m_source_file>
AV-unprocessed.smi

> <i_m_source_file_index>
956

> <i_lp_mmshare_version>
43012

> <i_f3d_flags>
0

> <s_epik_input>
W0NIM11bU0BdKD1PKWMxbm5bY0hdbjFbQ0gyXUMoPU8pW05IXVtDSDJdW0NIMl1bQ0hdMltDSDJdW0NIMl1bQ0gyXVtDSDJdW0NIMl0y

> <s_epik_cmdline>
J2VwaWtfcHl0aG9uJywgJy1waCcsICc3LjAnLCAnLXRuJywgJzgnLCAnLW1hJywgJzIwMCcsICctbWV0YWxfYmluZGluZycsICctaW1hZScsICc8aW5maWxlLm1hZT4nLCAnLW9tYWUnLCAnPG91dGZpbGUubWFlPic=

> <r_lp_tautomer_probability>
1

> <r_epik_Ionization_Penalty>
7.32521e-08

> <r_epik_Ionization_Penalty_Charging>
0

> <r_epik_Ionization_Penalty_Neutral>
7.32521e-08

> <r_epik_State_Penalty>
-0

> <r_epik_Charging_Adjusted_Penalty>
0

> <i_epik_Tot_Q>
0

> <i_epik_Tot_abs_Q>
0

> <r_epik_Metal_State_Penalty>
-0

> <b_epik_Metal_Only>
0

> <s_lp_Force_Field>
OPLS_2005

> <r_lp_Energy>
8.17766

> <b_lp_Chiralities_Consistent>
1

> <s_lp_Variant>
AV-unprocessed.smi:956-1

> <Gold.Version>
5.8.1

> <Gold.Id.Protein>
6NUR|6NUR_protein|mol2

> <Gold.PLP.Fitness>
49.0150

> <Gold.PLP.PLP>
-48.9762

> <Gold.PLP.part.hbond>
-6.0414

> <Gold.PLP.part.metal>
0.0000

> <Gold.PLP.part.buried>
-5.0291

> <Gold.PLP.part.nonpolar>
-37.8584

> <Gold.PLP.part.repulsive>
0.2330

> <Gold.PLP.ligand.clash>
0.0000

> <Gold.PLP.ligand.torsion>
2.0632

> <Gold.PLP.Chemscore.Hbond>
1.0000

> <Gold.PLP.Chemscore.CHOScore>
0.0000

> <Gold.PLP.Chemscore.Metal>
0.0000

> <Gold.Chemscore.Hbonds>
donor molecule, donor type, donor heavy atom, donor atom, acceptor molecule, acceptor atom, score
      P1  H  7997  8009       L1    11  0.85

> <Gold.PLP.Chemscore.Internal.Correction>
1.1651

> <Gold.Rescore>
     Score         DG    S(hbond)    S(metal)    S(lipo)     H(rot)  DE(clash)    DE(int)     intcor
      5.68     -14.17       0.88        0.00      98.59       2.26       6.38       2.12       ----

> <Gold.Chemscore.Fitness>
5.6751

> <Gold.Chemscore.DG>
-14.1688

> <Gold.Chemscore.ZeroCoef>
-5.4800

> <Gold.Chemscore.Hbond>
0.8767

> <Gold.Chemscore.Metal>
0.0000

> <Gold.Chemscore.Lipo>
98.5868

> <Gold.Chemscore.Internal_Hbond>
0.0000

> <Gold.Chemscore.DEClash>
6.3759

> <Gold.Chemscore.DEInternal>
2.1178

> <Gold.Chemscore.Rot>
2.2554

> <Gold.Chemscore.Internal.Correction>
   9.000000E+99

> <Gold.Chemscore.Hbonds>
donor molecule, donor type, donor heavy atom, donor atom, acceptor molecule, acceptor atom, score
      P1  H  7997  8009       L1    11  0.21

> <Gold.Chemscore.Hbond.Weighted>
-2.9280

> <Gold.Chemscore.Metal.Weighted>
-0.0000

> <Gold.Chemscore.Lipo.Weighted>
-11.5347

> <Gold.Chemscore.Internal_Hbond.Weighted>
0.0000

> <Gold.Chemscore.DEClash.Weighted>
6.3759

> <Gold.Chemscore.DEInternal.Weighted>
2.1178

> <Gold.Chemscore.Rot.Weighted>
5.7738

> <Gold.Chemscore.Internal.Correction.Weighted>
   9.000000E+99

> <Gold.Protein.RotatedTorsions>
[ 6907 6896 6895 6894 ] final  102.21 input  -60.11 | X-H torsion
[ 7974 7965 7964 7962 ] final -145.62 input  175.53 | X-H torsion
[ 8008 7997 7996 7995 ] final   54.12 input   59.86 | X-H torsion
[ 10167 10162 10161 10158 ] final   25.25 input  -65.29 | X-H torsion
[ 10718 10713 10712 10709 ] final  -86.57 input   66.30 | X-H torsion
[ 10763 10752 10751 10750 ] final   76.81 input  -60.55 | X-H torsion
[ 11005 11000 10999 10996 ] final -115.69 input  -57.11 | X-H torsion

> <Gold.Protein.ActiveResidues>
 VAL166  LYS551  ARG553  GLY616  TRP617  ASP618  TYR619  PRO620  LYS621  CYS622 
 ASP623  PHE694  ASN695  SER759  ASP760  ASP761  ALA762  ILE779  LEU786  VAL792 
 PHE793  MET794  SER795  GLU796  ALA797  LYS798  CYS799  TRP800  GLU811  SER814 

> <Gold.Protein.RotatedAtoms>
  152.5330  134.0010  159.7894 H   0  0  0  0  0  0  0  0  0  0  0  0  # atno 6907 bound_to 6896
  151.0229  133.5852  159.2676 H   0  0  0  0  0  0  0  0  0  0  0  0  # atno 6908 bound_to 6896
  151.2886  135.0742  159.9249 H   0  0  0  0  0  0  0  0  0  0  0  0  # atno 6909 bound_to 6896
  144.8215  140.5560  143.5575 H   0  0  0  0  0  0  0  0  0  0  0  0  # atno 7974 bound_to 7965
  155.4794  140.3468  155.4337 H   0  0  0  0  0  0  0  0  0  0  0  0  # atno 8008 bound_to 7997
  156.1049  140.1445  156.9446 H   0  0  0  0  0  0  0  0  0  0  0  0  # atno 8009 bound_to 7997
  154.4717  140.0898  156.7140 H   0  0  0  0  0  0  0  0  0  0  0  0  # atno 8010 bound_to 7997
  140.5121  144.0142  150.6377 H   0  0  0  0  0  0  0  0  0  0  0  0  # atno 10167 bound_to 10162
  155.9989  130.4769  150.4735 H   0  0  0  0  0  0  0  0  0  0  0  0  # atno 10718 bound_to 10713
  153.0753  135.4937  154.8390 H   0  0  0  0  0  0  0  0  0  0  0  0  # atno 10763 bound_to 10752
  154.7078  135.3014  154.9245 H   0  0  0  0  0  0  0  0  0  0  0  0  # atno 10764 bound_to 10752
  153.9949  135.6773  153.4809 H   0  0  0  0  0  0  0  0  0  0  0  0  # atno 10765 bound_to 10752
  141.0471  133.9745  157.2899 H   0  0  0  0  0  0  0  0  0  0  0  0  # atno 11005 bound_to 11000
  145.5095  139.1480  143.3612 LP  0  0  0  0  0  0  0  0  0  0  0  0  # atno 17320 bound_to 7965
  146.2520  140.5236  142.8889 LP  0  0  0  0  0  0  0  0  0  0  0  0  # atno 17321 bound_to 7965
  140.3468  143.2987  152.0530 LP  0  0  0  0  0  0  0  0  0  0  0  0  # atno 17342 bound_to 10162
  139.4899  144.6403  151.6891 LP  0  0  0  0  0  0  0  0  0  0  0  0  # atno 17343 bound_to 10162
  157.2747  131.0594  151.2237 LP  0  0  0  0  0  0  0  0  0  0  0  0  # atno 17370 bound_to 10713
  157.3304  130.6982  149.6321 LP  0  0  0  0  0  0  0  0  0  0  0  0  # atno 17371 bound_to 10713
  139.9320  135.0199  156.8433 LP  0  0  0  0  0  0  0  0  0  0  0  0  # atno 17394 bound_to 11000
  140.6126  134.0068  155.7583 LP  0  0  0  0  0  0  0  0  0  0  0  0  # atno 17395 bound_to 11000

$$$$
