AV-unprocessed.smi:3185|AV-procd|sdf|12165|dock4
  -GOLD-   2272018 03D 1   1.00000     0.00000
 Structure written by MMmdl.
 38 39  0  0  0  0  0  0  0  0  2 V2000
  143.1393  135.3502  152.8808 N   0  0  0  0  0  0  0  0  0  0  0  0
  144.1966  135.6796  152.5474 C   0  0  0  0  0  0  0  0  0  0  0  0
  145.5411  136.0976  152.1229 C   0  0  0  0  0  0  0  0  0  0  0  0
  145.9008  137.5069  152.6065 C   0  0  0  0  0  0  0  0  0  0  0  0
  146.8929  138.2058  151.6699 C   0  0  0  0  0  0  0  0  0  0  0  0
  148.0585  138.7166  152.4188 N   0  3  0  0  0  0  0  0  0  0  0  0
  147.7399  139.7179  153.4622 C   0  0  2  0  0  0  0  0  0  0  0  0
  146.6735  140.6938  152.9290 C   0  0  0  0  0  0  0  0  0  0  0  0
  146.3419  141.7877  153.9556 C   0  0  0  0  0  0  0  0  0  0  0  0
  147.6054  142.5513  154.3780 C   0  0  0  0  0  0  0  0  0  0  0  0
  148.6750  141.5911  154.9197 C   0  0  0  0  0  0  0  0  0  0  0  0
  149.0145  140.4872  153.8960 C   0  0  1  0  0  0  0  0  0  0  0  0
  150.0443  139.5974  154.4177 N   0  0  0  0  0  0  0  0  0  0  0  0
  149.9380  138.2539  154.7129 C   0  0  0  0  0  0  0  0  0  0  0  0
  151.1540  137.8394  155.1751 C   0  0  0  0  0  0  0  0  0  0  0  0
  151.9556  139.0131  155.1187 C   0  0  0  0  0  0  0  0  0  0  0  0
  151.2899  140.0624  154.6653 N   0  0  0  0  0  0  0  0  0  0  0  0
  146.2543  135.3680  152.5073 H   0  0  0  0  0  0  0  0  0  0  0  0
  145.5780  136.0460  151.0346 H   0  0  0  0  0  0  0  0  0  0  0  0
  144.9910  138.1035  152.6858 H   0  0  0  0  0  0  0  0  0  0  0  0
  146.3218  137.4473  153.6110 H   0  0  0  0  0  0  0  0  0  0  0  0
  147.2362  137.5112  150.9022 H   0  0  0  0  0  0  0  0  0  0  0  0
  146.3970  139.0326  151.1607 H   0  0  0  0  0  0  0  0  0  0  0  0
  148.5209  137.9359  152.8622 H   0  0  0  0  0  0  0  0  0  0  0  0
  147.3177  139.2128  154.3334 H   0  0  0  0  0  0  0  0  0  0  0  0
  147.0249  141.1596  152.0071 H   0  0  0  0  0  0  0  0  0  0  0  0
  145.7647  140.1485  152.6714 H   0  0  0  0  0  0  0  0  0  0  0  0
  145.6116  142.4810  153.5372 H   0  0  0  0  0  0  0  0  0  0  0  0
  145.8744  141.3383  154.8327 H   0  0  0  0  0  0  0  0  0  0  0  0
  148.0047  143.1012  153.5248 H   0  0  0  0  0  0  0  0  0  0  0  0
  147.3555  143.2950  155.1353 H   0  0  0  0  0  0  0  0  0  0  0  0
  149.5746  142.1526  155.1751 H   0  0  0  0  0  0  0  0  0  0  0  0
  148.3174  141.1448  155.8487 H   0  0  0  0  0  0  0  0  0  0  0  0
  149.4324  140.9741  153.0128 H   0  0  0  0  0  0  0  0  0  0  0  0
  149.0154  137.7096  154.5727 H   0  0  0  0  0  0  0  0  0  0  0  0
  151.4304  136.8472  155.5004 H   0  0  0  0  0  0  0  0  0  0  0  0
  152.9937  139.1330  155.3917 H   0  0  0  0  0  0  0  0  0  0  0  0
  148.6990  139.1367  151.7606 H   0  0  0  0  0  0  0  0  0  0  0  0
  1  2  3  0  0  0  0
  2  3  1  0  0  0  0
  3  4  1  0  0  0  0
  3 18  1  0  0  0  0
  3 19  1  0  0  0  0
  4  5  1  0  0  0  0
  4 20  1  0  0  0  0
  4 21  1  0  0  0  0
  5  6  1  0  0  0  0
  5 22  1  0  0  0  0
  5 23  1  0  0  0  0
  6  7  1  0  0  0  0
  6 24  1  0  0  0  0
  6 38  1  0  0  0  0
  7 12  1  0  0  0  0
  7  8  1  0  0  0  0
  7 25  1  0  0  0  0
  8  9  1  0  0  0  0
  8 26  1  0  0  0  0
  8 27  1  0  0  0  0
  9 10  1  0  0  0  0
  9 28  1  0  0  0  0
  9 29  1  0  0  0  0
 10 11  1  0  0  0  0
 10 30  1  0  0  0  0
 10 31  1  0  0  0  0
 11 12  1  0  0  0  0
 11 32  1  0  0  0  0
 11 33  1  0  0  0  0
 12 13  1  0  0  0  0
 12 34  1  0  0  0  0
 13 17  1  0  0  0  0
 13 14  1  0  0  0  0
 14 15  2  0  0  0  0
 14 35  1  0  0  0  0
 15 16  1  0  0  0  0
 15 36  1  0  0  0  0
 16 17  2  0  0  0  0
 16 37  1  0  0  0  0
M  CHG  1   6   1
M  END
> <s_m_source_file>
AV-unprocessed.smi

> <i_m_source_file_index>
3185

> <i_lp_mmshare_version>
43012

> <i_f3d_flags>
0

> <s_epik_input>
TiNDW0NIMl1bQ0gyXVtDSDJdW05IXVtDQEBIXTFbQ0gyXVtDSDJdW0NIMl1bQ0gyXVtDQEhdMW4yW2NIXVtjSF1bY0hdbjI=

> <s_epik_cmdline>
J2VwaWtfcHl0aG9uJywgJy1waCcsICc3LjAnLCAnLXRuJywgJzgnLCAnLW1hJywgJzIwMCcsICctbWV0YWxfYmluZGluZycsICctaW1hZScsICc8aW5maWxlLm1hZT4nLCAnLW9tYWUnLCAnPG91dGZpbGUubWFlPic=

> <r_lp_tautomer_probability>
1

> <r_epik_Ionization_Penalty>
0.0143465

> <r_epik_Ionization_Penalty_Charging>
0.0143338

> <r_epik_Ionization_Penalty_Neutral>
1.27047e-05

> <r_epik_State_Penalty>
0.0112058

> <r_epik_Charging_Adjusted_Penalty>
0.0255397

> <i_epik_Tot_Q>
1

> <i_epik_Tot_abs_Q>
1

> <r_epik_Metal_State_Penalty>
0.0112253

> <b_epik_Metal_Only>
0

> <s_lp_Force_Field>
OPLS_2005

> <r_lp_Energy>
16.2212

> <b_lp_Chiralities_Consistent>
1

> <s_lp_Variant>
AV-unprocessed.smi:3185-1

> <Gold.Version>
5.8.1

> <Gold.Id.Protein>
6NUR|6NUR_protein|mol2

> <Gold.PLP.Fitness>
43.4138

> <Gold.PLP.PLP>
-31.0229

> <Gold.PLP.part.hbond>
-2.6314

> <Gold.PLP.part.metal>
0.0000

> <Gold.PLP.part.buried>
-2.3889

> <Gold.PLP.part.nonpolar>
-29.6199

> <Gold.PLP.part.repulsive>
0.3278

> <Gold.PLP.ligand.clash>
0.0000

> <Gold.PLP.ligand.torsion>
0.7852

> <Gold.PLP.Chemscore.Hbond>
3.8300

> <Gold.PLP.Chemscore.CHOScore>
0.8042

> <Gold.PLP.Chemscore.Metal>
0.0000

> <Gold.Chemscore.Hbonds>
donor molecule, donor type, donor heavy atom, donor atom, acceptor molecule, acceptor atom, score
      L1  H     6    24       P1  7948  0.86
      L1  H     6    38       P1  7957  0.63
      P1  H  7989  7998       L1    17  0.81

> <Gold.PLP.Chemscore.Internal.Correction>
0.0586

> <Gold.Rescore>
     Score         DG    S(hbond)    S(metal)    S(lipo)     H(rot)  DE(clash)    DE(int)     intcor
     16.98     -18.12       2.71        0.00      71.79       1.88       0.04       1.10       ----

> <Gold.Chemscore.Fitness>
16.9805

> <Gold.Chemscore.DG>
-18.1246

> <Gold.Chemscore.ZeroCoef>
-5.4800

> <Gold.Chemscore.Hbond>
2.7097

> <Gold.Chemscore.Metal>
0.0000

> <Gold.Chemscore.Lipo>
71.7882

> <Gold.Chemscore.Internal_Hbond>
0.0000

> <Gold.Chemscore.DEClash>
0.0425

> <Gold.Chemscore.DEInternal>
1.1017

> <Gold.Chemscore.Rot>
1.8769

> <Gold.Chemscore.Internal.Correction>
   9.000000E+99

> <Gold.Chemscore.Hbonds>
donor molecule, donor type, donor heavy atom, donor atom, acceptor molecule, acceptor atom, score
      L1  H     6    24       P1  7948  0.42
      L1  H     6    38       P1  7957  0.59
      P1  H  7989  7998       L1    17  0.44

> <Gold.Chemscore.Hbond.Weighted>
-9.0503

> <Gold.Chemscore.Metal.Weighted>
-0.0000

> <Gold.Chemscore.Lipo.Weighted>
-8.3992

> <Gold.Chemscore.Internal_Hbond.Weighted>
0.0000

> <Gold.Chemscore.DEClash.Weighted>
0.0425

> <Gold.Chemscore.DEInternal.Weighted>
1.1017

> <Gold.Chemscore.Rot.Weighted>
4.8049

> <Gold.Chemscore.Internal.Correction.Weighted>
   9.000000E+99

> <Gold.Protein.RotatedTorsions>
[ 6907 6896 6895 6894 ] final -164.22 input  -60.11 | X-H torsion
[ 7974 7965 7964 7962 ] final  -43.52 input  175.53 | X-H torsion
[ 8008 7997 7996 7995 ] final   65.47 input   59.86 | X-H torsion
[ 10167 10162 10161 10158 ] final  177.75 input  -65.29 | X-H torsion
[ 10718 10713 10712 10709 ] final   -3.57 input   66.30 | X-H torsion
[ 10763 10752 10751 10750 ] final  -71.55 input  -60.55 | X-H torsion
[ 11005 11000 10999 10996 ] final -118.80 input  -57.11 | X-H torsion

> <Gold.Protein.ActiveResidues>
 VAL166  LYS551  ARG553  GLY616  TRP617  ASP618  TYR619  PRO620  LYS621  CYS622 
 ASP623  PHE694  ASN695  SER759  ASP760  ASP761  ALA762  ILE779  LEU786  VAL792 
 PHE793  MET794  SER795  GLU796  ALA797  LYS798  CYS799  TRP800  GLU811  SER814 

> <Gold.Protein.RotatedAtoms>
  151.4084  133.3735  159.2740 H   0  0  0  0  0  0  0  0  0  0  0  0  # atno 6907 bound_to 6896
  150.9381  134.8793  159.7605 H   0  0  0  0  0  0  0  0  0  0  0  0  # atno 6908 bound_to 6896
  152.5059  134.4033  159.9476 H   0  0  0  0  0  0  0  0  0  0  0  0  # atno 6909 bound_to 6896
  146.0011  140.7073  142.9270 H   0  0  0  0  0  0  0  0  0  0  0  0  # atno 7974 bound_to 7965
  155.6623  140.3497  155.4787 H   0  0  0  0  0  0  0  0  0  0  0  0  # atno 8008 bound_to 7997
  155.9758  140.1165  157.0794 H   0  0  0  0  0  0  0  0  0  0  0  0  # atno 8009 bound_to 7997
  154.4178  140.1148  156.5355 H   0  0  0  0  0  0  0  0  0  0  0  0  # atno 8010 bound_to 7997
  139.5266  144.2761  152.0586 H   0  0  0  0  0  0  0  0  0  0  0  0  # atno 10167 bound_to 10162
  156.7741  130.5309  149.5762 H   0  0  0  0  0  0  0  0  0  0  0  0  # atno 10718 bound_to 10713
  154.4333  135.5958  153.6082 H   0  0  0  0  0  0  0  0  0  0  0  0  # atno 10763 bound_to 10752
  152.9800  135.5980  154.3812 H   0  0  0  0  0  0  0  0  0  0  0  0  # atno 10764 bound_to 10752
  154.3653  135.2841  155.2276 H   0  0  0  0  0  0  0  0  0  0  0  0  # atno 10765 bound_to 10752
  141.0260  134.0052  157.3213 H   0  0  0  0  0  0  0  0  0  0  0  0  # atno 11005 bound_to 11000
  144.6920  140.3235  143.7228 LP  0  0  0  0  0  0  0  0  0  0  0  0  # atno 17320 bound_to 7965
  145.7486  139.1786  143.2334 LP  0  0  0  0  0  0  0  0  0  0  0  0  # atno 17321 bound_to 7965
  140.2219  144.4458  150.6338 LP  0  0  0  0  0  0  0  0  0  0  0  0  # atno 17342 bound_to 10162
  140.6413  143.2204  151.6284 LP  0  0  0  0  0  0  0  0  0  0  0  0  # atno 17343 bound_to 10162
  156.1259  130.6143  151.0263 LP  0  0  0  0  0  0  0  0  0  0  0  0  # atno 17370 bound_to 10713
  157.6677  131.0868  150.7688 LP  0  0  0  0  0  0  0  0  0  0  0  0  # atno 17371 bound_to 10713
  139.9176  135.0198  156.7943 LP  0  0  0  0  0  0  0  0  0  0  0  0  # atno 17394 bound_to 11000
  140.6490  133.9749  155.7745 LP  0  0  0  0  0  0  0  0  0  0  0  0  # atno 17395 bound_to 11000

$$$$
