AV-unprocessed.smi:1195|AV-procd|sdf|4994|dock5
  -GOLD-   22720 3593D 1   1.00000     0.00000
 Structure written by MMmdl.
 39 40  0  0  0  0  0  0  0  0  1 V2000
  151.0879  129.1066  154.3634 N   0  0  0  0  0  0  0  0  0  0  0  0
  151.8229  129.6459  155.3389 C   0  0  0  0  0  0  0  0  0  0  0  0
  153.0361  129.4573  155.4197 O   0  0  0  0  0  0  0  0  0  0  0  0
  151.0721  130.5163  156.3551 C   0  0  0  0  0  0  0  0  0  0  0  0
  150.5217  131.7271  155.7673 N   0  0  0  0  0  0  0  0  0  0  0  0
  149.6743  131.8397  154.6821 C   0  0  0  0  0  0  0  0  0  0  0  0
  149.4474  133.1779  154.5273 C   0  0  0  0  0  0  0  0  0  0  0  0
  148.6482  133.8498  153.5686 N   0  0  0  0  0  0  0  0  0  0  0  0
  147.6004  133.3546  152.8900 C   0  0  0  0  0  0  0  0  0  0  0  0
  147.1659  132.2076  152.9966 O   0  0  0  0  0  0  0  0  0  0  0  0
  147.0750  134.2742  152.0678 N   0  0  0  0  0  0  0  0  0  0  0  0
  145.9299  134.0623  151.1876 C   0  0  2  0  0  0  0  0  0  0  0  0
  144.6521  133.9110  152.0350 C   0  0  0  0  0  0  0  0  0  0  0  0
  143.4239  133.6187  151.1578 C   0  0  0  0  0  0  0  0  0  0  0  0
  143.6527  132.3749  150.2821 C   0  0  1  0  0  0  0  0  0  0  0  0
  142.5343  132.1770  149.4434 O   0  0  0  0  0  0  0  0  0  0  0  0
  144.9191  132.5305  149.4232 C   0  0  0  0  0  0  0  0  0  0  0  0
  146.1490  132.8198  150.2989 C   0  0  0  0  0  0  0  0  0  0  0  0
  150.1878  133.8178  155.5550 C   0  0  0  0  0  0  0  0  0  0  0  0
  150.8367  132.9351  156.2989 N   0  0  0  0  0  0  0  0  0  0  0  0
  151.5313  128.5258  153.6663 H   0  0  0  0  0  0  0  0  0  0  0  0
  150.0942  129.2809  154.3237 H   0  0  0  0  0  0  0  0  0  0  0  0
  150.2654  129.9356  156.8054 H   0  0  0  0  0  0  0  0  0  0  0  0
  151.7501  130.8031  157.1598 H   0  0  0  0  0  0  0  0  0  0  0  0
  149.3202  130.9758  154.1392 H   0  0  0  0  0  0  0  0  0  0  0  0
  148.9037  134.8074  153.3770 H   0  0  0  0  0  0  0  0  0  0  0  0
  147.4980  135.1906  152.0482 H   0  0  0  0  0  0  0  0  0  0  0  0
  145.8093  134.9382  150.5467 H   0  0  0  0  0  0  0  0  0  0  0  0
  144.7798  133.1017  152.7555 H   0  0  0  0  0  0  0  0  0  0  0  0
  144.4794  134.8176  152.6165 H   0  0  0  0  0  0  0  0  0  0  0  0
  142.5456  133.4772  151.7886 H   0  0  0  0  0  0  0  0  0  0  0  0
  143.2160  134.4843  150.5270 H   0  0  0  0  0  0  0  0  0  0  0  0
  143.7533  131.4963  150.9207 H   0  0  0  0  0  0  0  0  0  0  0  0
  141.9648  132.9274  149.5202 H   0  0  0  0  0  0  0  0  0  0  0  0
  145.0897  131.6274  148.8361 H   0  0  0  0  0  0  0  0  0  0  0  0
  144.7857  133.3444  148.7088 H   0  0  0  0  0  0  0  0  0  0  0  0
  147.0233  132.9596  149.6619 H   0  0  0  0  0  0  0  0  0  0  0  0
  146.3593  131.9508  150.9241 H   0  0  0  0  0  0  0  0  0  0  0  0
  150.2764  134.8702  155.7804 H   0  0  0  0  0  0  0  0  0  0  0  0
  1  2  1  0  0  0  0
  1 21  1  0  0  0  0
  1 22  1  0  0  0  0
  2  3  2  0  0  0  0
  2  4  1  0  0  0  0
  4  5  1  0  0  0  0
  4 23  1  0  0  0  0
  4 24  1  0  0  0  0
  5 20  1  0  0  0  0
  5  6  1  0  0  0  0
  6  7  2  0  0  0  0
  6 25  1  0  0  0  0
  7  8  1  0  0  0  0
  7 19  1  0  0  0  0
  8  9  1  0  0  0  0
  8 26  1  0  0  0  0
  9 10  2  0  0  0  0
  9 11  1  0  0  0  0
 11 12  1  0  0  0  0
 11 27  1  0  0  0  0
 12 18  1  0  0  0  0
 12 13  1  0  0  0  0
 12 28  1  0  0  0  0
 13 14  1  0  0  0  0
 13 29  1  0  0  0  0
 13 30  1  0  0  0  0
 14 15  1  0  0  0  0
 14 31  1  0  0  0  0
 14 32  1  0  0  0  0
 15 16  1  0  0  0  0
 15 17  1  0  0  0  0
 15 33  1  0  0  0  0
 16 34  1  0  0  0  0
 17 18  1  0  0  0  0
 17 35  1  0  0  0  0
 17 36  1  0  0  0  0
 18 37  1  0  0  0  0
 18 38  1  0  0  0  0
 19 20  2  0  0  0  0
 19 39  1  0  0  0  0
M  END
> <s_m_source_file>
AV-unprocessed.smi

> <i_m_source_file_index>
1195

> <i_lp_mmshare_version>
43012

> <i_f3d_flags>
0

> <s_epik_input>
W05IMl1DKD1PKVtDSDJdbjFbY0hdYyhbY0hdbjEpW05IXUMoPU8pW05IXVtDQEBIXTJbQ0gyXVtDSDJdW0NAQEhdKFtPSF0pW0NIMl1bQ0gyXTI=

> <s_epik_cmdline>
J2VwaWtfcHl0aG9uJywgJy1waCcsICc3LjAnLCAnLXRuJywgJzgnLCAnLW1hJywgJzIwMCcsICctbWV0YWxfYmluZGluZycsICctaW1hZScsICc8aW5maWxlLm1hZT4nLCAnLW9tYWUnLCAnPG91dGZpbGUubWFlPic=

> <r_lp_tautomer_probability>
1

> <r_epik_Ionization_Penalty>
4.75851e-05

> <r_epik_Ionization_Penalty_Charging>
0

> <r_epik_Ionization_Penalty_Neutral>
4.75851e-05

> <r_epik_State_Penalty>
-0

> <r_epik_Charging_Adjusted_Penalty>
0

> <i_epik_Tot_Q>
0

> <i_epik_Tot_abs_Q>
0

> <r_epik_Metal_State_Penalty>
-0

> <b_epik_Metal_Only>
0

> <s_lp_Force_Field>
OPLS_2005

> <r_lp_Energy>
13.1232

> <b_lp_Chiralities_Consistent>
1

> <s_lp_Variant>
AV-unprocessed.smi:1195-1

> <Gold.Version>
5.8.1

> <Gold.Id.Protein>
6NUR|6NUR_protein|mol2

> <Gold.PLP.Fitness>
51.5312

> <Gold.PLP.PLP>
-38.1947

> <Gold.PLP.part.hbond>
-5.8241

> <Gold.PLP.part.metal>
0.0000

> <Gold.PLP.part.buried>
-2.9291

> <Gold.PLP.part.nonpolar>
-28.4667

> <Gold.PLP.part.repulsive>
0.2746

> <Gold.PLP.ligand.clash>
0.0000

> <Gold.PLP.ligand.torsion>
0.2487

> <Gold.PLP.Chemscore.Hbond>
4.6088

> <Gold.PLP.Chemscore.CHOScore>
0.0000

> <Gold.PLP.Chemscore.Metal>
0.0000

> <Gold.Chemscore.Hbonds>
donor molecule, donor type, donor heavy atom, donor atom, acceptor molecule, acceptor atom, score
      L1  H     1    21       P1 10737  0.70
      L1  H     8    26       P1  7948  0.81
      L1  H    11    27       P1  7948  0.98
      L1  H    16    34       P1 10186  1.00
      P1  H 10785 10796       L1    16  0.34

> <Gold.PLP.Chemscore.Internal.Correction>
0.0074

> <Gold.Rescore>
     Score         DG    S(hbond)    S(metal)    S(lipo)     H(rot)  DE(clash)    DE(int)     intcor
     14.62     -17.12       3.05        0.00      69.83       2.62       0.01       2.48       ----

> <Gold.Chemscore.Fitness>
14.6248

> <Gold.Chemscore.DG>
-17.1156

> <Gold.Chemscore.ZeroCoef>
-5.4800

> <Gold.Chemscore.Hbond>
3.0466

> <Gold.Chemscore.Metal>
0.0000

> <Gold.Chemscore.Lipo>
69.8319

> <Gold.Chemscore.Internal_Hbond>
0.0000

> <Gold.Chemscore.DEClash>
0.0141

> <Gold.Chemscore.DEInternal>
2.4767

> <Gold.Chemscore.Rot>
2.6212

> <Gold.Chemscore.Internal.Correction>
   9.000000E+99

> <Gold.Chemscore.Hbonds>
donor molecule, donor type, donor heavy atom, donor atom, acceptor molecule, acceptor atom, score
      L1  H     1    21       P1 10737  0.66
      L1  H     8    26       P1  7948  0.19
      L1  H    11    27       P1  7948  0.91
      L1  H    16    34       P1 10186  1.00
      P1  H 10785 10796       L1    16  0.04

> <Gold.Chemscore.Hbond.Weighted>
-10.1756

> <Gold.Chemscore.Metal.Weighted>
-0.0000

> <Gold.Chemscore.Lipo.Weighted>
-8.1703

> <Gold.Chemscore.Internal_Hbond.Weighted>
0.0000

> <Gold.Chemscore.DEClash.Weighted>
0.0141

> <Gold.Chemscore.DEInternal.Weighted>
2.4767

> <Gold.Chemscore.Rot.Weighted>
6.7103

> <Gold.Chemscore.Internal.Correction.Weighted>
   9.000000E+99

> <Gold.Protein.RotatedTorsions>
[ 6907 6896 6895 6894 ] final -117.56 input  -60.11 | X-H torsion
[ 7974 7965 7964 7962 ] final -170.67 input  175.53 | X-H torsion
[ 8008 7997 7996 7995 ] final   48.14 input   59.86 | X-H torsion
[ 10167 10162 10161 10158 ] final  -62.75 input  -65.29 | X-H torsion
[ 10718 10713 10712 10709 ] final   66.33 input   66.30 | X-H torsion
[ 10763 10752 10751 10750 ] final  -80.90 input  -60.55 | X-H torsion
[ 11005 11000 10999 10996 ] final   89.11 input  -57.11 | X-H torsion

> <Gold.Protein.ActiveResidues>
 VAL166  LYS551  ARG553  GLY616  TRP617  ASP618  TYR619  PRO620  LYS621  CYS622 
 ASP623  PHE694  ASN695  SER759  ASP760  ASP761  ALA762  ILE779  LEU786  VAL792 
 PHE793  MET794  SER795  GLU796  ALA797  LYS798  CYS799  TRP800  GLU811  SER814 

> <Gold.Protein.RotatedAtoms>
  150.8146  133.8360  159.3166 H   0  0  0  0  0  0  0  0  0  0  0  0  # atno 6907 bound_to 6896
  151.6135  135.1036  160.0096 H   0  0  0  0  0  0  0  0  0  0  0  0  # atno 6908 bound_to 6896
  152.4238  133.7120  159.6541 H   0  0  0  0  0  0  0  0  0  0  0  0  # atno 6909 bound_to 6896
  144.7167  140.2037  143.6335 H   0  0  0  0  0  0  0  0  0  0  0  0  # atno 7974 bound_to 7965
  155.3806  140.3428  155.4246 H   0  0  0  0  0  0  0  0  0  0  0  0  # atno 8008 bound_to 7997
  156.1612  140.1601  156.8642 H   0  0  0  0  0  0  0  0  0  0  0  0  # atno 8009 bound_to 7997
  154.5142  140.0782  156.8030 H   0  0  0  0  0  0  0  0  0  0  0  0  # atno 8010 bound_to 7997
  140.5918  143.2343  151.6123 H   0  0  0  0  0  0  0  0  0  0  0  0  # atno 10167 bound_to 10162
  157.6162  130.9262  150.0094 H   0  0  0  0  0  0  0  0  0  0  0  0  # atno 10718 bound_to 10713
  154.5570  135.5645  153.6972 H   0  0  0  0  0  0  0  0  0  0  0  0  # atno 10763 bound_to 10752
  153.0006  135.6264  154.2297 H   0  0  0  0  0  0  0  0  0  0  0  0  # atno 10764 bound_to 10752
  154.2234  135.2869  155.2896 H   0  0  0  0  0  0  0  0  0  0  0  0  # atno 10765 bound_to 10752
  139.8882  134.8531  156.3095 H   0  0  0  0  0  0  0  0  0  0  0  0  # atno 11005 bound_to 11000
  145.8655  139.2245  143.1691 LP  0  0  0  0  0  0  0  0  0  0  0  0  # atno 17320 bound_to 7965
  146.0133  140.8415  142.9960 LP  0  0  0  0  0  0  0  0  0  0  0  0  # atno 17321 bound_to 7965
  139.5232  144.3140  152.0969 LP  0  0  0  0  0  0  0  0  0  0  0  0  # atno 17342 bound_to 10162
  140.2305  144.4373  150.6302 LP  0  0  0  0  0  0  0  0  0  0  0  0  # atno 17343 bound_to 10162
  156.1285  130.3644  149.9770 LP  0  0  0  0  0  0  0  0  0  0  0  0  # atno 17370 bound_to 10713
  156.7836  130.9230  151.3646 LP  0  0  0  0  0  0  0  0  0  0  0  0  # atno 17371 bound_to 10713
  140.9859  133.7238  156.0741 LP  0  0  0  0  0  0  0  0  0  0  0  0  # atno 17394 bound_to 11000
  140.7688  134.3856  157.5512 LP  0  0  0  0  0  0  0  0  0  0  0  0  # atno 17395 bound_to 11000

$$$$
