AV-unprocessed.smi:89|AV-procd|sdf|828|dock8
  -GOLD-   2262017243D 1   1.00000     0.00000
 Structure written by MMmdl.
 54 56  0  0  0  0  0  0  0  0  1 V2000
  151.1006  137.4177  155.0112 C   0  0  0  0  0  0  0  0  0  0  0  0
  149.5800  137.3341  155.2246 C   0  0  0  0  0  0  0  0  0  0  0  0
  149.1566  136.1426  155.9638 N   0  0  0  0  0  0  0  0  0  0  0  0
  148.0922  135.4824  155.4394 C   0  0  0  0  0  0  0  0  0  0  0  0
  146.8560  135.9069  155.8025 N   0  0  0  0  0  0  0  0  0  0  0  0
  145.7666  135.2918  155.3352 C   0  0  0  0  0  0  0  0  0  0  0  0
  145.6886  134.2467  154.5096 N   0  0  0  0  0  0  0  0  0  0  0  0
  146.9285  133.8090  154.1472 C   0  0  0  0  0  0  0  0  0  0  0  0
  148.1736  134.3599  154.5642 C   0  0  0  0  0  0  0  0  0  0  0  0
  149.2186  133.6439  153.9914 N   0  0  0  0  0  0  0  0  0  0  0  0
  148.6264  132.7264  153.2774 C   0  0  0  0  0  0  0  0  0  0  0  0
  147.2508  132.7584  153.3063 N   0  0  0  0  0  0  0  0  0  0  0  0
  146.3419  131.8605  152.6104 C   0  0  0  0  0  0  0  0  0  0  0  0
  145.7441  132.4519  151.3087 C   0  0  2  0  0  0  0  0  0  0  0  0
  146.7422  132.4615  150.3041 O   0  0  0  0  0  0  0  0  0  0  0  0
  145.1752  133.8630  151.4642 C   0  0  0  0  0  0  0  0  0  0  0  0
  143.6977  133.6008  151.7119 C   0  0  0  0  0  0  0  0  0  0  0  0
  143.4232  132.5463  150.8064 O   0  0  0  0  0  0  0  0  0  0  0  0
  144.5223  131.6417  150.8283 C   0  0  0  0  0  0  0  0  0  0  0  0
  149.2096  136.2315  157.4321 C   0  0  1  0  0  0  0  0  0  0  0  0
  150.5534  136.7752  157.9542 C   0  0  0  0  0  0  0  0  0  0  0  0
  148.0195  136.9922  158.0572 C   0  0  0  0  0  0  0  0  0  0  0  0
  147.9543  136.7751  159.8900 S   0  0  0  0  0  0  0  0  0  0  0  0
  149.2625  137.1203  160.4664 O   0  0  0  0  0  0  0  0  0  0  0  0
  146.7492  137.4497  160.3959 O   0  0  0  0  0  0  0  0  0  0  0  0
  147.7143  134.9563  160.0487 C   0  0  0  0  0  0  0  0  0  0  0  0
  147.5586  134.5514  161.5175 C   0  0  0  0  0  0  0  0  0  0  0  0
  151.3674  138.3576  154.5281 H   0  0  0  0  0  0  0  0  0  0  0  0
  151.4700  136.6110  154.3776 H   0  0  0  0  0  0  0  0  0  0  0  0
  151.6326  137.3708  155.9617 H   0  0  0  0  0  0  0  0  0  0  0  0
  149.2650  138.2143  155.7859 H   0  0  0  0  0  0  0  0  0  0  0  0
  149.0649  137.3902  154.2662 H   0  0  0  0  0  0  0  0  0  0  0  0
  144.8230  135.6942  155.6729 H   0  0  0  0  0  0  0  0  0  0  0  0
  149.1803  131.9985  152.7024 H   0  0  0  0  0  0  0  0  0  0  0  0
  146.8809  130.9379  152.3909 H   0  0  0  0  0  0  0  0  0  0  0  0
  145.5420  131.5862  153.2992 H   0  0  0  0  0  0  0  0  0  0  0  0
  147.3864  131.8035  150.5166 H   0  0  0  0  0  0  0  0  0  0  0  0
  145.6371  134.4579  152.2507 H   0  0  0  0  0  0  0  0  0  0  0  0
  145.2766  134.4240  150.5336 H   0  0  0  0  0  0  0  0  0  0  0  0
  143.5226  133.2687  152.7366 H   0  0  0  0  0  0  0  0  0  0  0  0
  143.0740  134.4733  151.5164 H   0  0  0  0  0  0  0  0  0  0  0  0
  144.6602  131.2058  149.8379 H   0  0  0  0  0  0  0  0  0  0  0  0
  144.2907  130.8247  151.5130 H   0  0  0  0  0  0  0  0  0  0  0  0
  149.1405  135.2069  157.7994 H   0  0  0  0  0  0  0  0  0  0  0  0
  150.6046  136.7044  159.0409 H   0  0  0  0  0  0  0  0  0  0  0  0
  150.6938  137.8237  157.6915 H   0  0  0  0  0  0  0  0  0  0  0  0
  151.3969  136.2118  157.5555 H   0  0  0  0  0  0  0  0  0  0  0  0
  148.1300  138.0616  157.8778 H   0  0  0  0  0  0  0  0  0  0  0  0
  147.0621  136.7035  157.6257 H   0  0  0  0  0  0  0  0  0  0  0  0
  146.8306  134.6761  159.4753 H   0  0  0  0  0  0  0  0  0  0  0  0
  148.5748  134.4578  159.6017 H   0  0  0  0  0  0  0  0  0  0  0  0
  147.4153  133.4748  161.6112 H   0  0  0  0  0  0  0  0  0  0  0  0
  146.6982  135.0436  161.9715 H   0  0  0  0  0  0  0  0  0  0  0  0
  148.4427  134.8223  162.0950 H   0  0  0  0  0  0  0  0  0  0  0  0
  1  2  1  0  0  0  0
  1 28  1  0  0  0  0
  1 29  1  0  0  0  0
  1 30  1  0  0  0  0
  2  3  1  0  0  0  0
  2 31  1  0  0  0  0
  2 32  1  0  0  0  0
  3  4  1  0  0  0  0
  3 20  1  0  0  0  0
  4  9  1  0  0  0  0
  4  5  2  0  0  0  0
  5  6  1  0  0  0  0
  6  7  2  0  0  0  0
  6 33  1  0  0  0  0
  7  8  1  0  0  0  0
  8 12  1  0  0  0  0
  8  9  2  0  0  0  0
  9 10  1  0  0  0  0
 10 11  2  0  0  0  0
 11 12  1  0  0  0  0
 11 34  1  0  0  0  0
 12 13  1  0  0  0  0
 13 14  1  0  0  0  0
 13 35  1  0  0  0  0
 13 36  1  0  0  0  0
 14 19  1  0  0  0  0
 14 15  1  0  0  0  0
 14 16  1  0  0  0  0
 15 37  1  0  0  0  0
 16 17  1  0  0  0  0
 16 38  1  0  0  0  0
 16 39  1  0  0  0  0
 17 18  1  0  0  0  0
 17 40  1  0  0  0  0
 17 41  1  0  0  0  0
 18 19  1  0  0  0  0
 19 42  1  0  0  0  0
 19 43  1  0  0  0  0
 20 21  1  0  0  0  0
 20 22  1  0  0  0  0
 20 44  1  0  0  0  0
 21 45  1  0  0  0  0
 21 46  1  0  0  0  0
 21 47  1  0  0  0  0
 22 23  1  0  0  0  0
 22 48  1  0  0  0  0
 22 49  1  0  0  0  0
 23 24  2  0  0  0  0
 23 25  2  0  0  0  0
 23 26  1  0  0  0  0
 26 27  1  0  0  0  0
 26 50  1  0  0  0  0
 26 51  1  0  0  0  0
 27 52  1  0  0  0  0
 27 53  1  0  0  0  0
 27 54  1  0  0  0  0
M  END
> <s_m_source_file>
AV-unprocessed.smi

> <i_m_source_file_index>
89

> <i_lp_mmshare_version>
43012

> <i_f3d_flags>
0

> <s_epik_input>
W0NIM11bQ0gyXVMoPU8pKD1PKVtDSDJdW0NAQEhdKFtDSDNdKU4oW0NIMl1bQ0gzXSljKG5bY0hdbjEpYyhjMTIpbltjSF1uMltDSDJdW0NAQF0zKFtPSF0pW0NIMl1bQ0gyXU9bQ0gyXTM=

> <s_epik_cmdline>
J2VwaWtfcHl0aG9uJywgJy1waCcsICc3LjAnLCAnLXRuJywgJzgnLCAnLW1hJywgJzIwMCcsICctbWV0YWxfYmluZGluZycsICctaW1hZScsICc8aW5maWxlLm1hZT4nLCAnLW9tYWUnLCAnPG91dGZpbGUubWFlPic=

> <r_lp_tautomer_probability>
1

> <r_epik_Ionization_Penalty>
0.00103773

> <r_epik_Ionization_Penalty_Charging>
0

> <r_epik_Ionization_Penalty_Neutral>
0.00103773

> <r_epik_State_Penalty>
0.000558914

> <r_epik_Charging_Adjusted_Penalty>
0.000558914

> <i_epik_Tot_Q>
0

> <i_epik_Tot_abs_Q>
0

> <r_epik_Metal_State_Penalty>
-0

> <b_epik_Metal_Only>
0

> <s_lp_Force_Field>
OPLS_2005

> <r_lp_Energy>
26.3804

> <b_lp_Chiralities_Consistent>
1

> <s_lp_Variant>
AV-unprocessed.smi:89-4

> <Gold.Version>
5.8.1

> <Gold.Id.Protein>
6NUR|6NUR_protein|mol2

> <Gold.PLP.Fitness>
42.6833

> <Gold.PLP.PLP>
-33.8212

> <Gold.PLP.part.hbond>
-3.0000

> <Gold.PLP.part.metal>
0.0000

> <Gold.PLP.part.buried>
-7.8730

> <Gold.PLP.part.nonpolar>
-24.5646

> <Gold.PLP.part.repulsive>
0.5700

> <Gold.PLP.ligand.clash>
0.0000

> <Gold.PLP.ligand.torsion>
1.5044

> <Gold.PLP.Chemscore.Hbond>
2.5920

> <Gold.PLP.Chemscore.CHOScore>
1.0000

> <Gold.PLP.Chemscore.Metal>
0.0000

> <Gold.Chemscore.Hbonds>
donor molecule, donor type, donor heavy atom, donor atom, acceptor molecule, acceptor atom, score
      L1  H    15    37       P1 10747  1.00
      P1  H  6931  6943       L1    24  0.56
      P1  H  6934  6947       L1    25  1.00
      L1  C    11    34       P1 10747  0.68

> <Gold.PLP.Chemscore.Internal.Correction>
1.0949

> <Gold.Rescore>
     Score         DG    S(hbond)    S(metal)    S(lipo)     H(rot)  DE(clash)    DE(int)     intcor
      8.14     -12.41       2.39        0.00      66.60       3.45       0.01       4.26       ----

> <Gold.Chemscore.Fitness>
8.1369

> <Gold.Chemscore.DG>
-12.4087

> <Gold.Chemscore.ZeroCoef>
-5.4800

> <Gold.Chemscore.Hbond>
2.3876

> <Gold.Chemscore.Metal>
0.0000

> <Gold.Chemscore.Lipo>
66.6015

> <Gold.Chemscore.Internal_Hbond>
0.0000

> <Gold.Chemscore.DEClash>
0.0089

> <Gold.Chemscore.DEInternal>
4.2629

> <Gold.Chemscore.Rot>
3.4524

> <Gold.Chemscore.Internal.Correction>
   9.000000E+99

> <Gold.Chemscore.Hbonds>
donor molecule, donor type, donor heavy atom, donor atom, acceptor molecule, acceptor atom, score
      L1  H    15    37       P1 10747  0.98
      P1  H  6931  6943       L1    24  0.44
      P1  H  6934  6947       L1    25  0.70

> <Gold.Chemscore.Hbond.Weighted>
-7.9745

> <Gold.Chemscore.Metal.Weighted>
-0.0000

> <Gold.Chemscore.Lipo.Weighted>
-7.7924

> <Gold.Chemscore.Internal_Hbond.Weighted>
0.0000

> <Gold.Chemscore.DEClash.Weighted>
0.0089

> <Gold.Chemscore.DEInternal.Weighted>
4.2629

> <Gold.Chemscore.Rot.Weighted>
8.8382

> <Gold.Chemscore.Internal.Correction.Weighted>
   9.000000E+99

> <Gold.Protein.RotatedTorsions>
[ 6907 6896 6895 6894 ] final -153.00 input  -60.11 | X-H torsion
[ 7974 7965 7964 7962 ] final -149.86 input  175.53 | X-H torsion
[ 8008 7997 7996 7995 ] final   94.27 input   59.86 | X-H torsion
[ 10167 10162 10161 10158 ] final   69.75 input  -65.29 | X-H torsion
[ 10718 10713 10712 10709 ] final -165.09 input   66.30 | X-H torsion
[ 10763 10752 10751 10750 ] final   74.77 input  -60.55 | X-H torsion
[ 11005 11000 10999 10996 ] final  -70.78 input  -57.11 | X-H torsion

> <Gold.Protein.ActiveResidues>
 VAL166  LYS551  ARG553  GLY616  TRP617  ASP618  TYR619  PRO620  LYS621  CYS622 
 ASP623  PHE694  ASN695  SER759  ASP760  ASP761  ALA762  ILE779  LEU786  VAL792 
 PHE793  MET794  SER795  GLU796  ALA797  LYS798  CYS799  TRP800  GLU811  SER814 

> <Gold.Protein.RotatedAtoms>
  151.2361  133.4424  159.2605 H   0  0  0  0  0  0  0  0  0  0  0  0  # atno 6907 bound_to 6896
  151.0748  134.9822  159.8337 H   0  0  0  0  0  0  0  0  0  0  0  0  # atno 6908 bound_to 6896
  152.5417  134.2304  159.8875 H   0  0  0  0  0  0  0  0  0  0  0  0  # atno 6909 bound_to 6896
  144.7942  140.5008  143.5752 H   0  0  0  0  0  0  0  0  0  0  0  0  # atno 7974 bound_to 7965
  156.0561  140.3302  155.7407 H   0  0  0  0  0  0  0  0  0  0  0  0  # atno 8008 bound_to 7997
  155.5527  140.0612  157.2864 H   0  0  0  0  0  0  0  0  0  0  0  0  # atno 8009 bound_to 7997
  154.4458  140.1891  156.0691 H   0  0  0  0  0  0  0  0  0  0  0  0  # atno 8010 bound_to 7997
  140.0645  144.5205  150.7271 H   0  0  0  0  0  0  0  0  0  0  0  0  # atno 10167 bound_to 10162
  156.6485  130.8998  151.3009 H   0  0  0  0  0  0  0  0  0  0  0  0  # atno 10718 bound_to 10713
  153.0609  135.5013  154.8092 H   0  0  0  0  0  0  0  0  0  0  0  0  # atno 10763 bound_to 10752
  154.6881  135.2980  154.9520 H   0  0  0  0  0  0  0  0  0  0  0  0  # atno 10764 bound_to 10752
  154.0284  135.6733  153.4831 H   0  0  0  0  0  0  0  0  0  0  0  0  # atno 10765 bound_to 10752
  141.1580  133.6799  156.6805 H   0  0  0  0  0  0  0  0  0  0  0  0  # atno 11005 bound_to 11000
  145.5717  139.1484  143.3285 LP  0  0  0  0  0  0  0  0  0  0  0  0  # atno 17320 bound_to 7965
  146.2204  140.5850  142.9020 LP  0  0  0  0  0  0  0  0  0  0  0  0  # atno 17321 bound_to 7965
  140.7156  143.2541  151.4445 LP  0  0  0  0  0  0  0  0  0  0  0  0  # atno 17342 bound_to 10162
  139.5874  144.1575  152.2045 LP  0  0  0  0  0  0  0  0  0  0  0  0  # atno 17343 bound_to 10162
  157.7148  130.9484  150.1217 LP  0  0  0  0  0  0  0  0  0  0  0  0  # atno 17370 bound_to 10713
  156.2103  130.3666  149.8678 LP  0  0  0  0  0  0  0  0  0  0  0  0  # atno 17371 bound_to 10713
  140.3106  134.8089  157.4173 LP  0  0  0  0  0  0  0  0  0  0  0  0  # atno 17394 bound_to 11000
  140.1182  134.5255  155.8207 LP  0  0  0  0  0  0  0  0  0  0  0  0  # atno 17395 bound_to 11000

$$$$
