AV-unprocessed.smi:910|AV-procd|sdf|4129|dock7
  -GOLD-   22720 2 33D 1   1.00000     0.00000
 Structure written by MMmdl.
 47 48  0  0  0  0  0  0  0  0  2 V2000
  149.8420  132.9780  153.3750 C   0  0  0  0  0  0  0  0  0  0  0  0
  150.1590  134.0839  154.3317 C   0  0  0  0  0  0  0  0  0  0  0  0
  149.9195  135.4305  154.1980 N   0  3  0  0  0  0  0  0  0  0  0  0
  150.3582  136.0756  155.2798 C   0  0  0  0  0  0  0  0  0  0  0  0
  150.2992  137.4701  155.5277 N   0  0  0  0  0  0  0  0  0  0  0  0
  150.4356  138.0885  156.7123 C   0  0  0  0  0  0  0  0  0  0  0  0
  150.6474  137.5199  157.7840 O   0  0  0  0  0  0  0  0  0  0  0  0
  150.3027  139.4170  156.5913 N   0  0  0  0  0  0  0  0  0  0  0  0
  150.3321  140.3679  157.6981 C   0  0  0  0  0  0  0  0  0  0  0  0
  151.3572  141.4854  157.4555 C   0  0  0  0  0  0  0  0  0  0  0  0
  151.5171  142.2182  158.6609 O   0  0  0  0  0  0  0  0  0  0  0  0
  152.5551  143.1915  158.6358 C   0  0  1  0  0  0  0  0  0  0  0  0
  152.0487  144.5069  158.0078 C   0  0  0  0  0  0  0  0  0  0  0  0
  150.9494  145.1584  158.8626 C   0  0  0  0  0  0  0  0  0  0  0  0
  151.4263  145.3832  160.3055 C   0  0  0  0  0  0  0  0  0  0  0  0
  151.9295  144.0764  160.9396 C   0  0  0  0  0  0  0  0  0  0  0  0
  153.0346  143.4220  160.0861 C   0  0  1  0  0  0  0  0  0  0  0  0
  153.5653  142.1301  160.7283 C   0  0  0  0  0  0  0  0  0  0  0  0
  150.8987  135.1977  156.1649 O   0  0  0  0  0  0  0  0  0  0  0  0
  150.7697  133.9629  155.5605 C   0  0  0  0  0  0  0  0  0  0  0  0
  151.2860  132.7805  156.3088 C   0  0  0  0  0  0  0  0  0  0  0  0
  150.7498  132.5783  152.9228 H   0  0  0  0  0  0  0  0  0  0  0  0
  149.1958  133.3246  152.5682 H   0  0  0  0  0  0  0  0  0  0  0  0
  149.3313  132.1557  153.8765 H   0  0  0  0  0  0  0  0  0  0  0  0
  149.4738  135.8368  153.3844 H   0  0  0  0  0  0  0  0  0  0  0  0
  150.1304  139.8013  155.6735 H   0  0  0  0  0  0  0  0  0  0  0  0
  149.3388  140.7912  157.8546 H   0  0  0  0  0  0  0  0  0  0  0  0
  150.5867  139.8251  158.6087 H   0  0  0  0  0  0  0  0  0  0  0  0
  152.3101  141.0599  157.1376 H   0  0  0  0  0  0  0  0  0  0  0  0
  151.0093  142.1375  156.6546 H   0  0  0  0  0  0  0  0  0  0  0  0
  153.3994  142.8158  158.0550 H   0  0  0  0  0  0  0  0  0  0  0  0
  152.8842  145.2014  157.9121 H   0  0  0  0  0  0  0  0  0  0  0  0
  151.6832  144.3389  156.9953 H   0  0  0  0  0  0  0  0  0  0  0  0
  150.6488  146.1081  158.4194 H   0  0  0  0  0  0  0  0  0  0  0  0
  150.0618  144.5246  158.8644 H   0  0  0  0  0  0  0  0  0  0  0  0
  152.2267  146.1243  160.3136 H   0  0  0  0  0  0  0  0  0  0  0  0
  150.6151  145.7985  160.9042 H   0  0  0  0  0  0  0  0  0  0  0  0
  152.3055  144.2807  161.9426 H   0  0  0  0  0  0  0  0  0  0  0  0
  151.0946  143.3849  161.0600 H   0  0  0  0  0  0  0  0  0  0  0  0
  153.8709  144.1214  160.0450 H   0  0  0  0  0  0  0  0  0  0  0  0
  152.7793  141.3809  160.8289 H   0  0  0  0  0  0  0  0  0  0  0  0
  153.9669  142.3244  161.7230 H   0  0  0  0  0  0  0  0  0  0  0  0
  154.3656  141.6944  160.1295 H   0  0  0  0  0  0  0  0  0  0  0  0
  150.4678  132.2322  156.7756 H   0  0  0  0  0  0  0  0  0  0  0  0
  151.9803  133.0844  157.0925 H   0  0  0  0  0  0  0  0  0  0  0  0
  151.8118  132.0985  155.6405 H   0  0  0  0  0  0  0  0  0  0  0  0
  150.1243  138.0545  154.7235 H   0  0  0  0  0  0  0  0  0  0  0  0
  1 22  1  0  0  0  0
  1 23  1  0  0  0  0
  1 24  1  0  0  0  0
  1  2  1  0  0  0  0
  2  3  1  0  0  0  0
  2 20  2  0  0  0  0
  3 25  1  0  0  0  0
  3  4  2  0  0  0  0
  4 19  1  0  0  0  0
  4  5  1  0  0  0  0
  5  6  1  0  0  0  0
  5 47  1  0  0  0  0
  6  8  1  0  0  0  0
  6  7  2  0  0  0  0
  8  9  1  0  0  0  0
  8 26  1  0  0  0  0
  9 10  1  0  0  0  0
  9 27  1  0  0  0  0
  9 28  1  0  0  0  0
 10 11  1  0  0  0  0
 10 29  1  0  0  0  0
 10 30  1  0  0  0  0
 11 12  1  0  0  0  0
 12 17  1  0  0  0  0
 12 13  1  0  0  0  0
 12 31  1  0  0  0  0
 13 14  1  0  0  0  0
 13 32  1  0  0  0  0
 13 33  1  0  0  0  0
 14 15  1  0  0  0  0
 14 34  1  0  0  0  0
 14 35  1  0  0  0  0
 15 16  1  0  0  0  0
 15 36  1  0  0  0  0
 15 37  1  0  0  0  0
 16 17  1  0  0  0  0
 16 38  1  0  0  0  0
 16 39  1  0  0  0  0
 17 18  1  0  0  0  0
 17 40  1  0  0  0  0
 18 41  1  0  0  0  0
 18 42  1  0  0  0  0
 18 43  1  0  0  0  0
 19 20  1  0  0  0  0
 20 21  1  0  0  0  0
 21 44  1  0  0  0  0
 21 45  1  0  0  0  0
 21 46  1  0  0  0  0
M  CHG  1   3   1
M  END
> <s_m_source_file>
AV-unprocessed.smi

> <i_m_source_file_index>
910

> <i_lp_mmshare_version>
43012

> <i_f3d_flags>
0

> <s_epik_input>
W0NIM11jMW5jKG9jMVtDSDNdKVtOSF1DKD1PKVtOSF1bQ0gyXVtDSDJdT1tDQEBIXTJbQ0gyXVtDSDJdW0NIMl1bQ0gyXVtDQEhdMltDSDNd

> <s_epik_cmdline>
J2VwaWtfcHl0aG9uJywgJy1waCcsICc3LjAnLCAnLXRuJywgJzgnLCAnLW1hJywgJzIwMCcsICctbWV0YWxfYmluZGluZycsICctaW1hZScsICc8aW5maWxlLm1hZT4nLCAnLW9tYWUnLCAnPG91dGZpbGUubWFlPic=

> <r_epik_Ionization_Penalty>
7.32931

> <r_epik_Ionization_Penalty_Charging>
7.12214

> <r_epik_Ionization_Penalty_Neutral>
0.207166

> <r_epik_State_Penalty>
2.61278

> <r_epik_Charging_Adjusted_Penalty>
9.73492

> <i_epik_Tot_Q>
1

> <i_epik_Tot_abs_Q>
1

> <r_epik_Metal_State_Penalty>
2.64585

> <b_epik_Metal_Only>
0

> <s_lp_Force_Field>
OPLS_2005

> <r_lp_Energy>
17.2334

> <b_lp_Chiralities_Consistent>
1

> <s_lp_Variant>
AV-unprocessed.smi:910-14

> <Gold.Version>
5.8.1

> <Gold.Id.Protein>
6NUR|6NUR_protein|mol2

> <Gold.PLP.Fitness>
49.4381

> <Gold.PLP.PLP>
-44.2040

> <Gold.PLP.part.hbond>
-1.0000

> <Gold.PLP.part.metal>
0.0000

> <Gold.PLP.part.buried>
-5.8471

> <Gold.PLP.part.nonpolar>
-37.6398

> <Gold.PLP.part.repulsive>
0.0683

> <Gold.PLP.ligand.clash>
0.0000

> <Gold.PLP.ligand.torsion>
0.4044

> <Gold.PLP.Chemscore.Hbond>
2.0000

> <Gold.PLP.Chemscore.CHOScore>
0.0000

> <Gold.PLP.Chemscore.Metal>
0.0000

> <Gold.Chemscore.Hbonds>
donor molecule, donor type, donor heavy atom, donor atom, acceptor molecule, acceptor atom, score
      L1  H     3    25       P1  7948  2.00

> <Gold.PLP.Chemscore.Internal.Correction>
0.0429

> <Gold.Rescore>
     Score         DG    S(hbond)    S(metal)    S(lipo)     H(rot)  DE(clash)    DE(int)     intcor
     16.44     -18.18       0.93        0.00     119.07       1.69       0.06       1.69       ----

> <Gold.Chemscore.Fitness>
16.4368

> <Gold.Chemscore.DG>
-18.1850

> <Gold.Chemscore.ZeroCoef>
-5.4800

> <Gold.Chemscore.Hbond>
0.9319

> <Gold.Chemscore.Metal>
0.0000

> <Gold.Chemscore.Lipo>
119.0732

> <Gold.Chemscore.Internal_Hbond>
0.0000

> <Gold.Chemscore.DEClash>
0.0610

> <Gold.Chemscore.DEInternal>
1.6872

> <Gold.Chemscore.Rot>
1.6949

> <Gold.Chemscore.Internal.Correction>
   9.000000E+99

> <Gold.Chemscore.Hbonds>
donor molecule, donor type, donor heavy atom, donor atom, acceptor molecule, acceptor atom, score
      L1  H     3    25       P1  7948  0.30

> <Gold.Chemscore.Hbond.Weighted>
-3.1124

> <Gold.Chemscore.Metal.Weighted>
-0.0000

> <Gold.Chemscore.Lipo.Weighted>
-13.9316

> <Gold.Chemscore.Internal_Hbond.Weighted>
0.0000

> <Gold.Chemscore.DEClash.Weighted>
0.0610

> <Gold.Chemscore.DEInternal.Weighted>
1.6872

> <Gold.Chemscore.Rot.Weighted>
4.3390

> <Gold.Chemscore.Internal.Correction.Weighted>
   9.000000E+99

> <Gold.Protein.RotatedTorsions>
[ 6907 6896 6895 6894 ] final  126.79 input  -60.11 | X-H torsion
[ 7974 7965 7964 7962 ] final  -56.56 input  175.53 | X-H torsion
[ 8008 7997 7996 7995 ] final  132.29 input   59.86 | X-H torsion
[ 10167 10162 10161 10158 ] final   69.34 input  -65.29 | X-H torsion
[ 10718 10713 10712 10709 ] final  155.68 input   66.30 | X-H torsion
[ 10763 10752 10751 10750 ] final  -79.00 input  -60.55 | X-H torsion
[ 11005 11000 10999 10996 ] final   -5.44 input  -57.11 | X-H torsion

> <Gold.Protein.ActiveResidues>
 VAL166  LYS551  ARG553  GLY616  TRP617  ASP618  TYR619  PRO620  LYS621  CYS622 
 ASP623  PHE694  ASN695  SER759  ASP760  ASP761  ALA762  ILE779  LEU786  VAL792 
 PHE793  MET794  SER795  GLU796  ALA797  LYS798  CYS799  TRP800  GLU811  SER814 

> <Gold.Protein.RotatedAtoms>
  152.3872  133.6627  159.6207 H   0  0  0  0  0  0  0  0  0  0  0  0  # atno 6907 bound_to 6896
  150.7788  133.9016  159.3351 H   0  0  0  0  0  0  0  0  0  0  0  0  # atno 6908 bound_to 6896
  151.6810  135.0963  160.0267 H   0  0  0  0  0  0  0  0  0  0  0  0  # atno 6909 bound_to 6896
  145.8612  140.8284  142.9936 H   0  0  0  0  0  0  0  0  0  0  0  0  # atno 7974 bound_to 7965
  156.2981  140.2550  156.3064 H   0  0  0  0  0  0  0  0  0  0  0  0  # atno 8008 bound_to 7997
  154.9368  140.0397  157.2095 H   0  0  0  0  0  0  0  0  0  0  0  0  # atno 8009 bound_to 7997
  154.8165  140.2853  155.5821 H   0  0  0  0  0  0  0  0  0  0  0  0  # atno 8010 bound_to 7997
  140.0688  144.5170  150.7242 H   0  0  0  0  0  0  0  0  0  0  0  0  # atno 10167 bound_to 10162
  157.2151  131.0706  151.1946 H   0  0  0  0  0  0  0  0  0  0  0  0  # atno 10718 bound_to 10713
  154.5331  135.5710  153.6775 H   0  0  0  0  0  0  0  0  0  0  0  0  # atno 10763 bound_to 10752
  152.9944  135.6209  154.2603 H   0  0  0  0  0  0  0  0  0  0  0  0  # atno 10764 bound_to 10752
  154.2530  135.2858  155.2788 H   0  0  0  0  0  0  0  0  0  0  0  0  # atno 10765 bound_to 10752
  140.6912  133.9070  155.8619 H   0  0  0  0  0  0  0  0  0  0  0  0  # atno 11005 bound_to 11000
  144.6726  140.1098  143.7456 LP  0  0  0  0  0  0  0  0  0  0  0  0  # atno 17320 bound_to 7965
  145.9246  139.2567  143.1361 LP  0  0  0  0  0  0  0  0  0  0  0  0  # atno 17321 bound_to 7965
  140.7136  143.2525  151.4506 LP  0  0  0  0  0  0  0  0  0  0  0  0  # atno 17342 bound_to 10162
  139.5848  144.1628  152.2015 LP  0  0  0  0  0  0  0  0  0  0  0  0  # atno 17343 bound_to 10162
  157.3633  130.7142  149.6516 LP  0  0  0  0  0  0  0  0  0  0  0  0  # atno 17370 bound_to 10713
  155.9687  130.4219  150.4493 LP  0  0  0  0  0  0  0  0  0  0  0  0  # atno 17371 bound_to 10713
  141.0240  134.0850  157.4089 LP  0  0  0  0  0  0  0  0  0  0  0  0  # atno 17394 bound_to 11000
  139.8923  135.0124  156.6838 LP  0  0  0  0  0  0  0  0  0  0  0  0  # atno 17395 bound_to 11000

$$$$
