AV-unprocessed.smi:2431|AV-procd|sdf|9586|dock7
  -GOLD-   2272013223D 1   1.00000     0.00000
 Structure written by MMmdl.
 36 37  0  0  0  0  0  0  0  0  3 V2000
  146.3498  138.8265  154.0307 O   0  0  0  0  0  0  0  0  0  0  0  0
  147.1400  138.1168  153.4077 C   0  0  0  0  0  0  0  0  0  0  0  0
  146.7595  137.0938  152.6289 N   0  0  0  0  0  0  0  0  0  0  0  0
  145.3781  136.6834  152.4055 C   0  0  0  0  0  0  0  0  0  0  0  0
  145.2205  135.9534  151.0611 C   0  0  0  0  0  0  0  0  0  0  0  0
  145.4275  134.4565  151.1823 C   0  0  0  0  0  0  0  0  0  0  0  0
  146.5402  133.8376  151.5746 C   0  0  0  0  0  0  0  0  0  0  0  0
  146.4062  132.3397  151.5607 C   0  0  0  0  0  0  0  0  0  0  0  0
  144.9744  132.0969  151.0336 C   0  0  0  0  0  0  0  0  0  0  0  0
  144.3317  133.4863  150.8223 C   0  0  0  0  0  0  0  0  0  0  0  0
  148.4754  138.2681  153.3938 N   0  0  0  0  0  0  0  0  0  0  0  0
  149.2639  139.2456  154.0657 C   0  0  0  0  0  0  0  0  0  0  0  0
  148.7675  140.5417  154.3495 C   0  0  0  0  0  0  0  0  0  0  0  0
  149.6002  141.4625  155.0125 C   0  0  0  0  0  0  0  0  0  0  0  0
  150.8568  141.1747  155.4041 N   0  0  0  0  0  0  0  0  0  0  0  0
  151.3247  139.9349  155.1517 C   0  0  0  0  0  0  0  0  0  0  0  0
  150.5792  138.9242  154.5022 C   0  0  0  0  0  0  0  0  0  0  0  0
  151.1933  137.5991  154.2924 N   0  3  0  0  0  0  0  0  0  0  0  0
  152.3765  137.5672  153.9717 O   0  0  0  0  0  0  0  0  0  0  0  0
  150.5091  136.5967  154.4720 O   0  5  0  0  0  0  0  0  0  0  0  0
  147.4744  136.5654  152.1501 H   0  0  0  0  0  0  0  0  0  0  0  0
  145.0850  136.0239  153.2228 H   0  0  0  0  0  0  0  0  0  0  0  0
  144.7201  137.5524  152.4564 H   0  0  0  0  0  0  0  0  0  0  0  0
  144.2275  136.1282  150.6457 H   0  0  0  0  0  0  0  0  0  0  0  0
  145.9361  136.3518  150.3406 H   0  0  0  0  0  0  0  0  0  0  0  0
  147.4545  134.3288  151.8742 H   0  0  0  0  0  0  0  0  0  0  0  0
  147.1590  131.8966  150.9078 H   0  0  0  0  0  0  0  0  0  0  0  0
  146.5388  131.9421  152.5674 H   0  0  0  0  0  0  0  0  0  0  0  0
  145.0030  131.5442  150.0936 H   0  0  0  0  0  0  0  0  0  0  0  0
  144.3942  131.5025  151.7404 H   0  0  0  0  0  0  0  0  0  0  0  0
  143.4674  133.6278  151.4716 H   0  0  0  0  0  0  0  0  0  0  0  0
  144.0178  133.6320  149.7882 H   0  0  0  0  0  0  0  0  0  0  0  0
  148.9816  137.6687  152.7577 H   0  0  0  0  0  0  0  0  0  0  0  0
  147.7666  140.8424  154.0794 H   0  0  0  0  0  0  0  0  0  0  0  0
  149.2441  142.4571  155.2368 H   0  0  0  0  0  0  0  0  0  0  0  0
  152.3308  139.7412  155.4941 H   0  0  0  0  0  0  0  0  0  0  0  0
  1  2  2  0  0  0  0
  2  3  1  0  0  0  0
  2 11  1  0  0  0  0
  3  4  1  0  0  0  0
  3 21  1  0  0  0  0
  4  5  1  0  0  0  0
  4 22  1  0  0  0  0
  4 23  1  0  0  0  0
  5  6  1  0  0  0  0
  5 24  1  0  0  0  0
  5 25  1  0  0  0  0
  6 10  1  0  0  0  0
  6  7  2  0  0  0  0
  7  8  1  0  0  0  0
  7 26  1  0  0  0  0
  8  9  1  0  0  0  0
  8 27  1  0  0  0  0
  8 28  1  0  0  0  0
  9 10  1  0  0  0  0
  9 29  1  0  0  0  0
  9 30  1  0  0  0  0
 10 31  1  0  0  0  0
 10 32  1  0  0  0  0
 11 12  1  0  0  0  0
 11 33  1  0  0  0  0
 12 17  1  0  0  0  0
 12 13  2  0  0  0  0
 13 14  1  0  0  0  0
 13 34  1  0  0  0  0
 14 15  2  0  0  0  0
 14 35  1  0  0  0  0
 15 16  1  0  0  0  0
 16 17  2  0  0  0  0
 16 36  1  0  0  0  0
 17 18  1  0  0  0  0
 18 19  2  0  0  0  0
 18 20  1  0  0  0  0
M  CHG  1  18   1
M  CHG  1  20  -1
M  END
> <s_m_source_file>
AV-unprocessed.smi

> <i_m_source_file_index>
2431

> <i_lp_mmshare_version>
43012

> <i_f3d_flags>
0

> <s_epik_input>
W0NIMl0xW0NIMl1bQ0gyXVtDSF09QzFbQ0gyXVtDSDJdW05IXUMoPU8pW05IXWMyW2NIXVtjSF1uW2NIXWMyW04rXSg9TylbTy1d

> <s_epik_cmdline>
J2VwaWtfcHl0aG9uJywgJy1waCcsICc3LjAnLCAnLXRuJywgJzgnLCAnLW1hJywgJzIwMCcsICctbWV0YWxfYmluZGluZycsICctaW1hZScsICc8aW5maWxlLm1hZT4nLCAnLW9tYWUnLCAnPG91dGZpbGUubWFlPic=

> <r_lp_tautomer_probability>
1

> <r_epik_Ionization_Penalty>
0.000148912

> <r_epik_Ionization_Penalty_Charging>
0

> <r_epik_Ionization_Penalty_Neutral>
0.000148912

> <r_epik_State_Penalty>
-0

> <r_epik_Charging_Adjusted_Penalty>
0

> <i_epik_Tot_Q>
0

> <i_epik_Tot_abs_Q>
2

> <r_epik_Metal_State_Penalty>
-0

> <b_epik_Metal_Only>
0

> <s_lp_Force_Field>
OPLS_2005

> <r_lp_Energy>
28.1068

> <b_lp_Chiralities_Consistent>
1

> <s_lp_Variant>
AV-unprocessed.smi:2431-1

> <Gold.Version>
5.8.1

> <Gold.Id.Protein>
6NUR|6NUR_protein|mol2

> <Gold.PLP.Fitness>
46.3181

> <Gold.PLP.PLP>
-37.3013

> <Gold.PLP.part.hbond>
-4.5693

> <Gold.PLP.part.metal>
0.0000

> <Gold.PLP.part.buried>
-3.2793

> <Gold.PLP.part.nonpolar>
-31.6404

> <Gold.PLP.part.repulsive>
0.6394

> <Gold.PLP.ligand.clash>
0.0000

> <Gold.PLP.ligand.torsion>
1.1996

> <Gold.PLP.Chemscore.Hbond>
2.7920

> <Gold.PLP.Chemscore.CHOScore>
1.0000

> <Gold.PLP.Chemscore.Metal>
0.0000

> <Gold.Chemscore.Hbonds>
donor molecule, donor type, donor heavy atom, donor atom, acceptor molecule, acceptor atom, score
      L1  H     3    21       P1  7948  0.99
      L1  H    11    33       P1  7948  0.96
      P1  H 10752 10765       L1    19  0.72
      L1  C    14    35       P1  8028  1.00

> <Gold.PLP.Chemscore.Internal.Correction>
0.0399

> <Gold.Rescore>
     Score         DG    S(hbond)    S(metal)    S(lipo)     H(rot)  DE(clash)    DE(int)     intcor
     17.03     -20.35       2.86        0.00      77.96       1.48       0.11       3.20       ----

> <Gold.Chemscore.Fitness>
17.0276

> <Gold.Chemscore.DG>
-20.3460

> <Gold.Chemscore.ZeroCoef>
-5.4800

> <Gold.Chemscore.Hbond>
2.8566

> <Gold.Chemscore.Metal>
0.0000

> <Gold.Chemscore.Lipo>
77.9558

> <Gold.Chemscore.Internal_Hbond>
0.0000

> <Gold.Chemscore.DEClash>
0.1147

> <Gold.Chemscore.DEInternal>
3.2038

> <Gold.Chemscore.Rot>
1.4828

> <Gold.Chemscore.Internal.Correction>
   9.000000E+99

> <Gold.Chemscore.Hbonds>
donor molecule, donor type, donor heavy atom, donor atom, acceptor molecule, acceptor atom, score
      L1  H     3    21       P1  7948  0.90
      L1  H    11    33       P1  7948  0.92
      P1  H 10752 10765       L1    19  0.39

> <Gold.Chemscore.Hbond.Weighted>
-9.5412

> <Gold.Chemscore.Metal.Weighted>
-0.0000

> <Gold.Chemscore.Lipo.Weighted>
-9.1208

> <Gold.Chemscore.Internal_Hbond.Weighted>
0.0000

> <Gold.Chemscore.DEClash.Weighted>
0.1147

> <Gold.Chemscore.DEInternal.Weighted>
3.2038

> <Gold.Chemscore.Rot.Weighted>
3.7960

> <Gold.Chemscore.Internal.Correction.Weighted>
   9.000000E+99

> <Gold.Protein.RotatedTorsions>
[ 6907 6896 6895 6894 ] final  106.15 input  -60.11 | X-H torsion
[ 7974 7965 7964 7962 ] final   -8.68 input  175.53 | X-H torsion
[ 8008 7997 7996 7995 ] final  121.78 input   59.86 | X-H torsion
[ 10167 10162 10161 10158 ] final -173.37 input  -65.29 | X-H torsion
[ 10718 10713 10712 10709 ] final  148.19 input   66.30 | X-H torsion
[ 10763 10752 10751 10750 ] final  159.52 input  -60.55 | X-H torsion
[ 11005 11000 10999 10996 ] final   92.61 input  -57.11 | X-H torsion

> <Gold.Protein.ActiveResidues>
 VAL166  LYS551  ARG553  GLY616  TRP617  ASP618  TYR619  PRO620  LYS621  CYS622 
 ASP623  PHE694  ASN695  SER759  ASP760  ASP761  ALA762  ILE779  LEU786  VAL792 
 PHE793  MET794  SER795  GLU796  ALA797  LYS798  CYS799  TRP800  GLU811  SER814 

> <Gold.Protein.RotatedAtoms>
  152.5204  133.9423  159.7632 H   0  0  0  0  0  0  0  0  0  0  0  0  # atno 6907 bound_to 6896
  150.9751  133.6295  159.2738 H   0  0  0  0  0  0  0  0  0  0  0  0  # atno 6908 bound_to 6896
  151.3493  135.0886  159.9450 H   0  0  0  0  0  0  0  0  0  0  0  0  # atno 6909 bound_to 6896
  146.2273  140.2505  142.8347 H   0  0  0  0  0  0  0  0  0  0  0  0  # atno 7974 bound_to 7965
  156.2701  140.2800  156.1363 H   0  0  0  0  0  0  0  0  0  0  0  0  # atno 8008 bound_to 7997
  155.1000  140.0389  157.2712 H   0  0  0  0  0  0  0  0  0  0  0  0  # atno 8009 bound_to 7997
  154.6822  140.2611  155.6902 H   0  0  0  0  0  0  0  0  0  0  0  0  # atno 8010 bound_to 7997
  139.5692  144.1682  152.1358 H   0  0  0  0  0  0  0  0  0  0  0  0  # atno 10167 bound_to 10162
  157.3117  131.0889  151.1311 H   0  0  0  0  0  0  0  0  0  0  0  0  # atno 10718 bound_to 10713
  154.2331  135.2777  155.2882 H   0  0  0  0  0  0  0  0  0  0  0  0  # atno 10763 bound_to 10752
  154.5608  135.5647  153.7008 H   0  0  0  0  0  0  0  0  0  0  0  0  # atno 10764 bound_to 10752
  153.0016  135.6297  154.2473 H   0  0  0  0  0  0  0  0  0  0  0  0  # atno 10765 bound_to 10752
  139.8821  134.8742  156.3597 H   0  0  0  0  0  0  0  0  0  0  0  0  # atno 11005 bound_to 11000
  144.9415  140.8084  143.5627 LP  0  0  0  0  0  0  0  0  0  0  0  0  # atno 17320 bound_to 7965
  145.2457  139.2053  143.4969 LP  0  0  0  0  0  0  0  0  0  0  0  0  # atno 17321 bound_to 7965
  140.1211  144.5372  150.6862 LP  0  0  0  0  0  0  0  0  0  0  0  0  # atno 17342 bound_to 10162
  140.6976  143.2414  151.4956 LP  0  0  0  0  0  0  0  0  0  0  0  0  # atno 17343 bound_to 10162
  157.2631  130.6668  149.5984 LP  0  0  0  0  0  0  0  0  0  0  0  0  # atno 17370 bound_to 10713
  155.9678  130.4502  150.5689 LP  0  0  0  0  0  0  0  0  0  0  0  0  # atno 17371 bound_to 10713
  140.9538  133.7433  156.0307 LP  0  0  0  0  0  0  0  0  0  0  0  0  # atno 17394 bound_to 11000
  140.8073  134.3439  157.5422 LP  0  0  0  0  0  0  0  0  0  0  0  0  # atno 17395 bound_to 11000

$$$$
