AV-unprocessed.smi:3182|AV-procd|sdf|12152|dock2
  -GOLD-   2272017593D 1   1.00000     0.00000
 Structure written by MMmdl.
 37 38  0  0  0  0  0  0  0  0  1 V2000
  151.7529  139.6537  155.9200 C   0  0  0  0  0  0  0  0  0  0  0  0
  151.0474  140.4363  154.9644 O   0  0  0  0  0  0  0  0  0  0  0  0
  149.6491  140.6855  155.1646 C   0  0  0  0  0  0  0  0  0  0  0  0
  149.6120  141.3815  156.5508 C   0  0  0  0  0  0  0  0  0  0  0  0
  150.3480  142.6438  156.5796 N   0  0  0  0  0  0  0  0  0  0  0  0
  151.2492  142.9487  157.6103 C   0  0  0  0  0  0  0  0  0  0  0  0
  151.6991  144.2797  157.7380 C   0  0  0  0  0  0  0  0  0  0  0  0
  152.5950  144.5975  158.7772 C   0  0  0  0  0  0  0  0  0  0  0  0
  153.0128  143.5758  159.6508 C   0  0  0  0  0  0  0  0  0  0  0  0
  152.5148  142.2734  159.4412 C   0  0  0  0  0  0  0  0  0  0  0  0
  152.9194  141.1285  160.3458 C   0  0  0  0  0  0  0  0  0  0  0  0
  151.6569  141.9641  158.4450 N   0  0  0  0  0  0  0  0  0  0  0  0
  148.9975  141.5402  154.0447 C   0  0  0  0  0  0  0  0  0  0  0  0
  147.4702  141.6297  154.2144 C   0  0  0  0  0  0  0  0  0  0  0  0
  146.9098  140.3218  154.2326 O   0  0  0  0  0  0  0  0  0  0  0  0
  147.3701  139.5344  155.3253 C   0  0  0  0  0  0  0  0  0  0  0  0
  148.8947  139.3367  155.2313 C   0  0  0  0  0  0  0  0  0  0  0  0
  152.8140  139.6691  155.6720 H   0  0  0  0  0  0  0  0  0  0  0  0
  151.4361  138.6112  155.8962 H   0  0  0  0  0  0  0  0  0  0  0  0
  151.6512  140.0328  156.9357 H   0  0  0  0  0  0  0  0  0  0  0  0
  148.5897  141.5138  156.9003 H   0  0  0  0  0  0  0  0  0  0  0  0
  150.0817  140.7290  157.2875 H   0  0  0  0  0  0  0  0  0  0  0  0
  149.9417  143.4154  156.0706 H   0  0  0  0  0  0  0  0  0  0  0  0
  151.3611  145.0477  157.0576 H   0  0  0  0  0  0  0  0  0  0  0  0
  152.9534  145.6084  158.9034 H   0  0  0  0  0  0  0  0  0  0  0  0
  153.6973  143.7892  160.4586 H   0  0  0  0  0  0  0  0  0  0  0  0
  153.7077  141.4290  161.0365 H   0  0  0  0  0  0  0  0  0  0  0  0
  153.2873  140.2884  159.7561 H   0  0  0  0  0  0  0  0  0  0  0  0
  152.0633  140.7895  160.9298 H   0  0  0  0  0  0  0  0  0  0  0  0
  149.4365  142.5365  153.9987 H   0  0  0  0  0  0  0  0  0  0  0  0
  149.1750  141.0885  153.0692 H   0  0  0  0  0  0  0  0  0  0  0  0
  147.1924  142.1661  155.1210 H   0  0  0  0  0  0  0  0  0  0  0  0
  147.0378  142.1833  153.3809 H   0  0  0  0  0  0  0  0  0  0  0  0
  147.0827  139.9977  156.2695 H   0  0  0  0  0  0  0  0  0  0  0  0
  146.8697  138.5665  155.2905 H   0  0  0  0  0  0  0  0  0  0  0  0
  149.0926  138.7441  154.3394 H   0  0  0  0  0  0  0  0  0  0  0  0
  149.2486  138.7421  156.0742 H   0  0  0  0  0  0  0  0  0  0  0  0
  1  2  1  0  0  0  0
  1 18  1  0  0  0  0
  1 19  1  0  0  0  0
  1 20  1  0  0  0  0
  2  3  1  0  0  0  0
  3 17  1  0  0  0  0
  3  4  1  0  0  0  0
  3 13  1  0  0  0  0
  4  5  1  0  0  0  0
  4 21  1  0  0  0  0
  4 22  1  0  0  0  0
  5  6  1  0  0  0  0
  5 23  1  0  0  0  0
  6 12  1  0  0  0  0
  6  7  2  0  0  0  0
  7  8  1  0  0  0  0
  7 24  1  0  0  0  0
  8  9  2  0  0  0  0
  8 25  1  0  0  0  0
  9 10  1  0  0  0  0
  9 26  1  0  0  0  0
 10 11  1  0  0  0  0
 10 12  2  0  0  0  0
 11 27  1  0  0  0  0
 11 28  1  0  0  0  0
 11 29  1  0  0  0  0
 13 14  1  0  0  0  0
 13 30  1  0  0  0  0
 13 31  1  0  0  0  0
 14 15  1  0  0  0  0
 14 32  1  0  0  0  0
 14 33  1  0  0  0  0
 15 16  1  0  0  0  0
 16 17  1  0  0  0  0
 16 34  1  0  0  0  0
 16 35  1  0  0  0  0
 17 36  1  0  0  0  0
 17 37  1  0  0  0  0
M  END
> <s_m_source_file>
AV-unprocessed.smi

> <i_m_source_file_index>
3182

> <i_lp_mmshare_version>
43012

> <i_f3d_flags>
0

> <s_epik_input>
W0NIMl0xW0NIMl1PW0NIMl1bQ0gyXUMxKE9bQ0gzXSlbQ0gyXVtOSF1jMltjSF1bY0hdW2NIXWMobjIpW0NIM10=

> <s_epik_cmdline>
J2VwaWtfcHl0aG9uJywgJy1waCcsICc3LjAnLCAnLXRuJywgJzgnLCAnLW1hJywgJzIwMCcsICctbWV0YWxfYmluZGluZycsICctaW1hZScsICc8aW5maWxlLm1hZT4nLCAnLW9tYWUnLCAnPG91dGZpbGUubWFlPic=

> <r_lp_tautomer_probability>
1

> <r_epik_Ionization_Penalty>
1.20659

> <r_epik_Ionization_Penalty_Charging>
0

> <r_epik_Ionization_Penalty_Neutral>
1.20659

> <r_epik_State_Penalty>
1.27263

> <r_epik_Charging_Adjusted_Penalty>
1.27263

> <i_epik_Tot_Q>
0

> <i_epik_Tot_abs_Q>
0

> <r_epik_Metal_State_Penalty>
0.00446659

> <b_epik_Metal_Only>
0

> <s_lp_Force_Field>
OPLS_2005

> <r_lp_Energy>
17.6133

> <b_lp_Chiralities_Consistent>
1

> <s_lp_Variant>
AV-unprocessed.smi:3182-2

> <Gold.Version>
5.8.1

> <Gold.Id.Protein>
6NUR|6NUR_protein|mol2

> <Gold.PLP.Fitness>
43.7925

> <Gold.PLP.PLP>
-38.0147

> <Gold.PLP.part.hbond>
-2.0000

> <Gold.PLP.part.metal>
0.0000

> <Gold.PLP.part.buried>
-3.1054

> <Gold.PLP.part.nonpolar>
-33.1671

> <Gold.PLP.part.repulsive>
0.2424

> <Gold.PLP.ligand.clash>
0.0000

> <Gold.PLP.ligand.torsion>
0.1187

> <Gold.PLP.Chemscore.Hbond>
2.0000

> <Gold.PLP.Chemscore.CHOScore>
0.0000

> <Gold.PLP.Chemscore.Metal>
0.0000

> <Gold.Chemscore.Hbonds>
donor molecule, donor type, donor heavy atom, donor atom, acceptor molecule, acceptor atom, score
      L1  H     5    23       P1  8028  1.00
      P1  H  7989  7998       L1     2  1.00

> <Gold.PLP.Chemscore.Internal.Correction>
0.0152

> <Gold.Rescore>
     Score         DG    S(hbond)    S(metal)    S(lipo)     H(rot)  DE(clash)    DE(int)     intcor
     20.22     -20.33       1.94        0.00     101.01       1.35       0.02       0.08       ----

> <Gold.Chemscore.Fitness>
20.2226

> <Gold.Chemscore.DG>
-20.3305

> <Gold.Chemscore.ZeroCoef>
-5.4800

> <Gold.Chemscore.Hbond>
1.9404

> <Gold.Chemscore.Metal>
0.0000

> <Gold.Chemscore.Lipo>
101.0091

> <Gold.Chemscore.Internal_Hbond>
0.0000

> <Gold.Chemscore.DEClash>
0.0237

> <Gold.Chemscore.DEInternal>
0.0842

> <Gold.Chemscore.Rot>
1.3471

> <Gold.Chemscore.Internal.Correction>
   9.000000E+99

> <Gold.Chemscore.Hbonds>
donor molecule, donor type, donor heavy atom, donor atom, acceptor molecule, acceptor atom, score
      L1  H     5    23       P1  8028  1.00
      P1  H  7989  7998       L1     2  0.87

> <Gold.Chemscore.Hbond.Weighted>
-6.4810

> <Gold.Chemscore.Metal.Weighted>
-0.0000

> <Gold.Chemscore.Lipo.Weighted>
-11.8181

> <Gold.Chemscore.Internal_Hbond.Weighted>
0.0000

> <Gold.Chemscore.DEClash.Weighted>
0.0237

> <Gold.Chemscore.DEInternal.Weighted>
0.0842

> <Gold.Chemscore.Rot.Weighted>
3.4486

> <Gold.Chemscore.Internal.Correction.Weighted>
   9.000000E+99

> <Gold.Protein.RotatedTorsions>
[ 6907 6896 6895 6894 ] final  -22.38 input  -60.11 | X-H torsion
[ 7974 7965 7964 7962 ] final -152.34 input  175.53 | X-H torsion
[ 8008 7997 7996 7995 ] final -121.34 input   59.86 | X-H torsion
[ 10167 10162 10161 10158 ] final   53.69 input  -65.29 | X-H torsion
[ 10718 10713 10712 10709 ] final  136.01 input   66.30 | X-H torsion
[ 10763 10752 10751 10750 ] final -143.25 input  -60.55 | X-H torsion
[ 11005 11000 10999 10996 ] final  -46.13 input  -57.11 | X-H torsion

> <Gold.Protein.ActiveResidues>
 VAL166  LYS551  ARG553  GLY616  TRP617  ASP618  TYR619  PRO620  LYS621  CYS622 
 ASP623  PHE694  ASN695  SER759  ASP760  ASP761  ALA762  ILE779  LEU786  VAL792 
 PHE793  MET794  SER795  GLU796  ALA797  LYS798  CYS799  TRP800  GLU811  SER814 

> <Gold.Protein.RotatedAtoms>
  151.2195  135.0513  159.8943 H   0  0  0  0  0  0  0  0  0  0  0  0  # atno 6907 bound_to 6896
  152.5417  134.0656  159.8181 H   0  0  0  0  0  0  0  0  0  0  0  0  # atno 6908 bound_to 6896
  151.0820  133.5334  159.2652 H   0  0  0  0  0  0  0  0  0  0  0  0  # atno 6909 bound_to 6896
  144.7800  140.4675  143.5846 H   0  0  0  0  0  0  0  0  0  0  0  0  # atno 7974 bound_to 7965
  155.1464  140.0403  157.2810 H   0  0  0  0  0  0  0  0  0  0  0  0  # atno 8008 bound_to 7997
  154.6436  140.2552  155.7267 H   0  0  0  0  0  0  0  0  0  0  0  0  # atno 8009 bound_to 7997
  156.2544  140.2850  156.0840 H   0  0  0  0  0  0  0  0  0  0  0  0  # atno 8010 bound_to 7997
  140.2381  144.3613  150.6390 H   0  0  0  0  0  0  0  0  0  0  0  0  # atno 10167 bound_to 10162
  157.4511  131.1066  151.0032 H   0  0  0  0  0  0  0  0  0  0  0  0  # atno 10718 bound_to 10713
  154.8477  135.3473  154.6158 H   0  0  0  0  0  0  0  0  0  0  0  0  # atno 10763 bound_to 10752
  153.6767  135.6982  153.5135 H   0  0  0  0  0  0  0  0  0  0  0  0  # atno 10764 bound_to 10752
  153.2700  135.4296  155.0935 H   0  0  0  0  0  0  0  0  0  0  0  0  # atno 10765 bound_to 10752
  141.0559  133.6726  156.3111 H   0  0  0  0  0  0  0  0  0  0  0  0  # atno 11005 bound_to 11000
  145.6078  139.1510  143.3093 LP  0  0  0  0  0  0  0  0  0  0  0  0  # atno 17320 bound_to 7965
  146.2002  140.6196  142.9106 LP  0  0  0  0  0  0  0  0  0  0  0  0  # atno 17321 bound_to 7965
  140.6134  143.2171  151.6840 LP  0  0  0  0  0  0  0  0  0  0  0  0  # atno 17342 bound_to 10162
  139.5086  144.3604  152.0568 LP  0  0  0  0  0  0  0  0  0  0  0  0  # atno 17343 bound_to 10162
  157.0862  130.5923  149.5430 LP  0  0  0  0  0  0  0  0  0  0  0  0  # atno 17370 bound_to 10713
  155.9987  130.5062  150.7582 LP  0  0  0  0  0  0  0  0  0  0  0  0  # atno 17371 bound_to 10713
  140.5964  134.5599  157.5509 LP  0  0  0  0  0  0  0  0  0  0  0  0  # atno 17394 bound_to 11000
  139.9390  134.7822  156.0727 LP  0  0  0  0  0  0  0  0  0  0  0  0  # atno 17395 bound_to 11000

$$$$
