AV-unprocessed.smi:2445|AV-procd|sdf|9638|dock6
  -GOLD-   2272013273D 1   1.00000     0.00000
 Structure written by MMmdl.
 40 41  0  0  0  0  0  0  0  0  1 V2000
  145.5162  129.4386  152.2121 C   0  0  0  0  0  0  0  0  0  0  0  0
  145.7517  130.9093  152.1427 C   0  0  0  0  0  0  0  0  0  0  0  0
  146.7294  131.6345  152.7772 C   0  0  0  0  0  0  0  0  0  0  0  0
  146.6842  133.0030  152.5040 N   0  0  0  0  0  0  0  0  0  0  0  0
  145.6892  133.3275  151.6738 C   0  0  0  0  0  0  0  0  0  0  0  0
  145.4030  134.7337  151.2383 C   0  0  1  0  0  0  0  0  0  0  0  0
  144.2227  134.8014  150.2587 C   0  0  0  0  0  0  0  0  0  0  0  0
  145.2341  135.7060  152.4270 C   0  0  0  0  0  0  0  0  0  0  0  0
  146.4883  136.3422  152.8208 N   0  0  0  0  0  0  0  0  0  0  0  0
  146.6010  137.3132  153.7366 C   0  0  0  0  0  0  0  0  0  0  0  0
  145.6573  137.7569  154.3909 O   0  0  0  0  0  0  0  0  0  0  0  0
  147.8642  137.7472  153.8455 N   0  0  0  0  0  0  0  0  0  0  0  0
  148.3144  138.8295  154.7210 C   0  0  2  0  0  0  0  0  0  0  0  0
  147.9301  140.1870  154.1352 C   0  0  0  0  0  0  0  0  0  0  0  0
  149.2122  141.0068  154.2269 C   0  0  0  0  0  0  0  0  0  0  0  0
  150.2292  140.0317  154.0812 O   0  0  0  0  0  0  0  0  0  0  0  0
  149.8520  138.9130  154.8708 C   0  0  2  0  0  0  0  0  0  0  0  0
  150.6754  137.6800  154.4657 C   0  0  0  0  0  0  0  0  0  0  0  0
  144.7296  131.9374  151.1732 S   0  0  0  0  0  0  0  0  0  0  0  0
  146.2644  128.9494  152.8361 H   0  0  0  0  0  0  0  0  0  0  0  0
  145.5634  128.9926  151.2186 H   0  0  0  0  0  0  0  0  0  0  0  0
  144.5341  129.2231  152.6333 H   0  0  0  0  0  0  0  0  0  0  0  0
  147.4964  131.2591  153.4385 H   0  0  0  0  0  0  0  0  0  0  0  0
  146.2780  135.0687  150.6787 H   0  0  0  0  0  0  0  0  0  0  0  0
  144.4002  134.1715  149.3866 H   0  0  0  0  0  0  0  0  0  0  0  0
  144.0677  135.8203  149.9028 H   0  0  0  0  0  0  0  0  0  0  0  0
  143.2958  134.4694  150.7269 H   0  0  0  0  0  0  0  0  0  0  0  0
  144.4851  136.4655  152.1979 H   0  0  0  0  0  0  0  0  0  0  0  0
  144.8628  135.1615  153.2955 H   0  0  0  0  0  0  0  0  0  0  0  0
  147.3229  136.0432  152.3376 H   0  0  0  0  0  0  0  0  0  0  0  0
  148.5672  137.3119  153.2667 H   0  0  0  0  0  0  0  0  0  0  0  0
  147.8651  138.7243  155.7104 H   0  0  0  0  0  0  0  0  0  0  0  0
  147.6410  140.0927  153.0871 H   0  0  0  0  0  0  0  0  0  0  0  0
  147.1003  140.6557  154.6651 H   0  0  0  0  0  0  0  0  0  0  0  0
  149.2767  141.7775  153.4588 H   0  0  0  0  0  0  0  0  0  0  0  0
  149.3007  141.4851  155.2038 H   0  0  0  0  0  0  0  0  0  0  0  0
  150.0828  139.1575  155.9093 H   0  0  0  0  0  0  0  0  0  0  0  0
  150.3969  136.8098  155.0601 H   0  0  0  0  0  0  0  0  0  0  0  0
  151.7390  137.8593  154.6231 H   0  0  0  0  0  0  0  0  0  0  0  0
  150.5381  137.4308  153.4132 H   0  0  0  0  0  0  0  0  0  0  0  0
  1  2  1  0  0  0  0
  1 20  1  0  0  0  0
  1 21  1  0  0  0  0
  1 22  1  0  0  0  0
  2 19  1  0  0  0  0
  2  3  2  0  0  0  0
  3  4  1  0  0  0  0
  3 23  1  0  0  0  0
  4  5  2  0  0  0  0
  5  6  1  0  0  0  0
  5 19  1  0  0  0  0
  6  7  1  0  0  0  0
  6  8  1  0  0  0  0
  6 24  1  0  0  0  0
  7 25  1  0  0  0  0
  7 26  1  0  0  0  0
  7 27  1  0  0  0  0
  8  9  1  0  0  0  0
  8 28  1  0  0  0  0
  8 29  1  0  0  0  0
  9 10  1  0  0  0  0
  9 30  1  0  0  0  0
 10 11  2  0  0  0  0
 10 12  1  0  0  0  0
 12 13  1  0  0  0  0
 12 31  1  0  0  0  0
 13 17  1  0  0  0  0
 13 14  1  0  0  0  0
 13 32  1  0  0  0  0
 14 15  1  0  0  0  0
 14 33  1  0  0  0  0
 14 34  1  0  0  0  0
 15 16  1  0  0  0  0
 15 35  1  0  0  0  0
 15 36  1  0  0  0  0
 16 17  1  0  0  0  0
 17 18  1  0  0  0  0
 17 37  1  0  0  0  0
 18 38  1  0  0  0  0
 18 39  1  0  0  0  0
 18 40  1  0  0  0  0
M  END
> <s_m_source_file>
AV-unprocessed.smi

> <i_m_source_file_index>
2445

> <i_lp_mmshare_version>
43012

> <i_f3d_flags>
0

> <s_epik_input>
W0NIM11jMVtjSF1uYyhzMSlbQ0BIXShbQ0gzXSlbQ0gyXVtOSF1DKD1PKVtOSF1bQ0BASF0yW0NIMl1bQ0gyXU9bQ0BIXTJbQ0gzXQ==

> <s_epik_cmdline>
J2VwaWtfcHl0aG9uJywgJy1waCcsICc3LjAnLCAnLXRuJywgJzgnLCAnLW1hJywgJzIwMCcsICctbWV0YWxfYmluZGluZycsICctaW1hZScsICc8aW5maWxlLm1hZT4nLCAnLW9tYWUnLCAnPG91dGZpbGUubWFlPic=

> <r_epik_Ionization_Penalty>
0.000649483

> <r_epik_Ionization_Penalty_Charging>
0

> <r_epik_Ionization_Penalty_Neutral>
0.000649483

> <r_epik_State_Penalty>
0.000379895

> <r_epik_Charging_Adjusted_Penalty>
0.000379895

> <i_epik_Tot_Q>
0

> <i_epik_Tot_abs_Q>
0

> <r_epik_Metal_State_Penalty>
-0

> <b_epik_Metal_Only>
0

> <s_lp_Force_Field>
OPLS_2005

> <r_lp_Energy>
6.13351

> <b_lp_Chiralities_Consistent>
1

> <s_lp_Variant>
AV-unprocessed.smi:2445-6

> <Gold.Version>
5.8.1

> <Gold.Id.Protein>
6NUR|6NUR_protein|mol2

> <Gold.PLP.Fitness>
39.0616

> <Gold.PLP.PLP>
-31.4035

> <Gold.PLP.part.hbond>
-3.0000

> <Gold.PLP.part.metal>
0.0000

> <Gold.PLP.part.buried>
-4.4534

> <Gold.PLP.part.nonpolar>
-25.7233

> <Gold.PLP.part.repulsive>
1.2095

> <Gold.PLP.ligand.clash>
0.0000

> <Gold.PLP.ligand.torsion>
0.7026

> <Gold.PLP.Chemscore.Hbond>
2.9920

> <Gold.PLP.Chemscore.CHOScore>
0.0000

> <Gold.PLP.Chemscore.Metal>
0.0000

> <Gold.Chemscore.Hbonds>
donor molecule, donor type, donor heavy atom, donor atom, acceptor molecule, acceptor atom, score
      L1  H     9    30       P1  7948  1.00
      L1  H    12    31       P1  7948  0.98
      P1  H  7989  7998       L1    16  1.00

> <Gold.PLP.Chemscore.Internal.Correction>
0.0873

> <Gold.Rescore>
     Score         DG    S(hbond)    S(metal)    S(lipo)     H(rot)  DE(clash)    DE(int)     intcor
     19.94     -20.72       2.78        0.00      84.44       1.53       0.10       0.68       ----

> <Gold.Chemscore.Fitness>
19.9361

> <Gold.Chemscore.DG>
-20.7218

> <Gold.Chemscore.ZeroCoef>
-5.4800

> <Gold.Chemscore.Hbond>
2.7800

> <Gold.Chemscore.Metal>
0.0000

> <Gold.Chemscore.Lipo>
84.4437

> <Gold.Chemscore.Internal_Hbond>
0.0000

> <Gold.Chemscore.DEClash>
0.1019

> <Gold.Chemscore.DEInternal>
0.6839

> <Gold.Chemscore.Rot>
1.5325

> <Gold.Chemscore.Internal.Correction>
   9.000000E+99

> <Gold.Chemscore.Hbonds>
donor molecule, donor type, donor heavy atom, donor atom, acceptor molecule, acceptor atom, score
      L1  H     9    30       P1  7948  0.98
      L1  H    12    31       P1  7948  0.93
      P1  H  7989  7998       L1    16  0.52

> <Gold.Chemscore.Hbond.Weighted>
-9.2852

> <Gold.Chemscore.Metal.Weighted>
-0.0000

> <Gold.Chemscore.Lipo.Weighted>
-9.8799

> <Gold.Chemscore.Internal_Hbond.Weighted>
0.0000

> <Gold.Chemscore.DEClash.Weighted>
0.1019

> <Gold.Chemscore.DEInternal.Weighted>
0.6839

> <Gold.Chemscore.Rot.Weighted>
3.9233

> <Gold.Chemscore.Internal.Correction.Weighted>
   9.000000E+99

> <Gold.Protein.RotatedTorsions>
[ 6907 6896 6895 6894 ] final -167.82 input  -60.11 | X-H torsion
[ 7974 7965 7964 7962 ] final  100.02 input  175.53 | X-H torsion
[ 8008 7997 7996 7995 ] final -125.16 input   59.86 | X-H torsion
[ 10167 10162 10161 10158 ] final  -92.67 input  -65.29 | X-H torsion
[ 10718 10713 10712 10709 ] final  136.40 input   66.30 | X-H torsion
[ 10763 10752 10751 10750 ] final  -53.51 input  -60.55 | X-H torsion
[ 11005 11000 10999 10996 ] final  110.01 input  -57.11 | X-H torsion

> <Gold.Protein.ActiveResidues>
 VAL166  LYS551  ARG553  GLY616  TRP617  ASP618  TYR619  PRO620  LYS621  CYS622 
 ASP623  PHE694  ASN695  SER759  ASP760  ASP761  ALA762  ILE779  LEU786  VAL792 
 PHE793  MET794  SER795  GLU796  ALA797  LYS798  CYS799  TRP800  GLU811  SER814 

> <Gold.Protein.RotatedAtoms>
  151.4657  133.3581  159.2815 H   0  0  0  0  0  0  0  0  0  0  0  0  # atno 6907 bound_to 6896
  150.8995  134.8408  159.7361 H   0  0  0  0  0  0  0  0  0  0  0  0  # atno 6908 bound_to 6896
  152.4871  134.4576  159.9646 H   0  0  0  0  0  0  0  0  0  0  0  0  # atno 6909 bound_to 6896
  145.3911  139.2363  143.3351 H   0  0  0  0  0  0  0  0  0  0  0  0  # atno 7974 bound_to 7965
  155.2087  140.0418  157.2930 H   0  0  0  0  0  0  0  0  0  0  0  0  # atno 8008 bound_to 7997
  154.6026  140.2456  155.7744 H   0  0  0  0  0  0  0  0  0  0  0  0  # atno 8009 bound_to 7997
  156.2330  140.2931  156.0248 H   0  0  0  0  0  0  0  0  0  0  0  0  # atno 8010 bound_to 7997
  140.3324  143.2987  151.9927 H   0  0  0  0  0  0  0  0  0  0  0  0  # atno 10167 bound_to 10162
  157.4471  131.1063  151.0077 H   0  0  0  0  0  0  0  0  0  0  0  0  # atno 10718 bound_to 10713
  154.1600  135.6476  153.4983 H   0  0  0  0  0  0  0  0  0  0  0  0  # atno 10763 bound_to 10752
  153.0113  135.5358  154.6721 H   0  0  0  0  0  0  0  0  0  0  0  0  # atno 10764 bound_to 10752
  154.6031  135.2946  155.0485 H   0  0  0  0  0  0  0  0  0  0  0  0  # atno 10765 bound_to 10752
  139.8873  134.9473  156.6214 H   0  0  0  0  0  0  0  0  0  0  0  0  # atno 11005 bound_to 11000
  146.2797  140.4594  142.8781 LP  0  0  0  0  0  0  0  0  0  0  0  0  # atno 17320 bound_to 7965
  144.8439  140.6900  143.6211 LP  0  0  0  0  0  0  0  0  0  0  0  0  # atno 17321 bound_to 7965
  139.4854  144.6224  151.7230 LP  0  0  0  0  0  0  0  0  0  0  0  0  # atno 17342 bound_to 10162
  140.5385  144.0618  150.6079 LP  0  0  0  0  0  0  0  0  0  0  0  0  # atno 17343 bound_to 10162
  157.0920  130.5946  149.5441 LP  0  0  0  0  0  0  0  0  0  0  0  0  # atno 17370 bound_to 10713
  155.9972  130.5043  150.7524 LP  0  0  0  0  0  0  0  0  0  0  0  0  # atno 17371 bound_to 10713
  140.7736  133.8717  155.8512 LP  0  0  0  0  0  0  0  0  0  0  0  0  # atno 17394 bound_to 11000
  140.9820  134.1392  157.4485 LP  0  0  0  0  0  0  0  0  0  0  0  0  # atno 17395 bound_to 11000

$$$$
