AV-unprocessed.smi:1703|AV-procd|sdf|6874|dock7
  -GOLD-   22720 8 73D 1   1.00000     0.00000
 Structure written by MMmdl.
 50 52  0  0  0  0  0  0  0  0  3 V2000
  149.4758  141.5404  154.8109 C   0  0  0  0  0  0  0  0  0  0  0  0
  148.4871  140.3811  154.6467 C   0  0  1  0  0  0  0  0  0  0  0  0
  148.8829  139.4417  153.4898 C   0  0  0  0  0  0  0  0  0  0  0  0
  147.9605  138.2842  153.3967 N   0  3  2  0  0  0  0  0  0  0  0  0
  146.6547  138.6097  152.7625 C   0  0  0  0  0  0  0  0  0  0  0  0
  146.0244  137.3895  152.0576 C   0  0  2  0  0  0  0  0  0  0  0  0
  146.2420  137.5036  150.6663 O   0  0  0  0  0  0  0  0  0  0  0  0
  144.5052  137.2508  152.2843 C   0  0  0  0  0  0  0  0  0  0  0  0
  144.0749  135.8536  152.4584 N   0  0  0  0  0  0  0  0  0  0  0  0
  143.6270  135.2089  153.5755 C   0  0  0  0  0  0  0  0  0  0  0  0
  143.4649  135.7820  154.9449 C   0  0  0  0  0  0  0  0  0  0  0  0
  143.1572  134.7951  155.9036 O   0  0  0  0  0  0  0  0  0  0  0  0
  143.3642  133.9200  153.2210 N   0  3  0  0  0  0  0  0  0  0  0  0
  143.6495  133.7335  151.8685 C   0  0  0  0  0  0  0  0  0  0  0  0
  143.5428  132.6026  151.0648 C   0  0  0  0  0  0  0  0  0  0  0  0
  143.9213  132.7479  149.7144 C   0  0  0  0  0  0  0  0  0  0  0  0
  144.3839  133.9809  149.2109 C   0  0  0  0  0  0  0  0  0  0  0  0
  144.4871  135.1211  150.0352 C   0  0  0  0  0  0  0  0  0  0  0  0
  144.1113  134.9699  151.3708 C   0  0  0  0  0  0  0  0  0  0  0  0
  147.8600  137.5934  154.7082 C   0  0  0  0  0  0  0  0  0  0  0  0
  147.5221  138.5771  155.8504 C   0  0  1  0  0  0  0  0  0  0  0  0
  147.5570  137.8952  157.2224 C   0  0  0  0  0  0  0  0  0  0  0  0
  148.4743  139.6354  155.8592 O   0  0  0  0  0  0  0  0  0  0  0  0
  149.5248  142.1466  153.9060 H   0  0  0  0  0  0  0  0  0  0  0  0
  150.4811  141.1750  155.0236 H   0  0  0  0  0  0  0  0  0  0  0  0
  149.1788  142.1936  155.6320 H   0  0  0  0  0  0  0  0  0  0  0  0
  147.4945  140.7986  154.4686 H   0  0  0  0  0  0  0  0  0  0  0  0
  148.9175  139.9806  152.5421 H   0  0  0  0  0  0  0  0  0  0  0  0
  149.8911  139.0605  153.6594 H   0  0  0  0  0  0  0  0  0  0  0  0
  145.9804  139.0131  153.5163 H   0  0  0  0  0  0  0  0  0  0  0  0
  146.7865  139.4027  152.0246 H   0  0  0  0  0  0  0  0  0  0  0  0
  146.5072  136.4721  152.3914 H   0  0  0  0  0  0  0  0  0  0  0  0
  145.5465  138.0209  150.2889 H   0  0  0  0  0  0  0  0  0  0  0  0
  144.1766  137.8437  153.1378 H   0  0  0  0  0  0  0  0  0  0  0  0
  143.9640  137.6441  151.4225 H   0  0  0  0  0  0  0  0  0  0  0  0
  144.3749  136.3005  155.2455 H   0  0  0  0  0  0  0  0  0  0  0  0
  142.6652  136.5231  154.9313 H   0  0  0  0  0  0  0  0  0  0  0  0
  142.2427  134.5698  155.8232 H   0  0  0  0  0  0  0  0  0  0  0  0
  143.1907  131.6560  151.4490 H   0  0  0  0  0  0  0  0  0  0  0  0
  143.8576  131.8961  149.0525 H   0  0  0  0  0  0  0  0  0  0  0  0
  144.6673  134.0529  148.1707 H   0  0  0  0  0  0  0  0  0  0  0  0
  144.8434  136.0573  149.6327 H   0  0  0  0  0  0  0  0  0  0  0  0
  147.1312  136.7847  154.6715 H   0  0  0  0  0  0  0  0  0  0  0  0
  148.8233  137.1231  154.9108 H   0  0  0  0  0  0  0  0  0  0  0  0
  146.5252  138.9965  155.7080 H   0  0  0  0  0  0  0  0  0  0  0  0
  146.8318  137.0826  157.2759 H   0  0  0  0  0  0  0  0  0  0  0  0
  147.3203  138.6039  158.0165 H   0  0  0  0  0  0  0  0  0  0  0  0
  148.5427  137.4786  157.4321 H   0  0  0  0  0  0  0  0  0  0  0  0
  148.4007  137.6335  152.7608 H   0  0  0  0  0  0  0  0  0  0  0  0
  143.0237  133.2172  153.8651 H   0  0  0  0  0  0  0  0  0  0  0  0
  1  2  1  0  0  0  0
  1 24  1  0  0  0  0
  1 25  1  0  0  0  0
  1 26  1  0  0  0  0
  2 23  1  0  0  0  0
  2  3  1  0  0  0  0
  2 27  1  0  0  0  0
  3  4  1  0  0  0  0
  3 28  1  0  0  0  0
  3 29  1  0  0  0  0
  4  5  1  0  0  0  0
  4 20  1  0  0  0  0
  4 49  1  0  0  0  0
  5  6  1  0  0  0  0
  5 30  1  0  0  0  0
  5 31  1  0  0  0  0
  6  7  1  0  0  0  0
  6  8  1  0  0  0  0
  6 32  1  0  0  0  0
  7 33  1  0  0  0  0
  8  9  1  0  0  0  0
  8 34  1  0  0  0  0
  8 35  1  0  0  0  0
  9 19  1  0  0  0  0
  9 10  1  0  0  0  0
 10 11  1  0  0  0  0
 10 13  2  0  0  0  0
 11 12  1  0  0  0  0
 11 36  1  0  0  0  0
 11 37  1  0  0  0  0
 12 38  1  0  0  0  0
 13 14  1  0  0  0  0
 13 50  1  0  0  0  0
 14 19  2  0  0  0  0
 14 15  1  0  0  0  0
 15 16  2  0  0  0  0
 15 39  1  0  0  0  0
 16 17  1  0  0  0  0
 16 40  1  0  0  0  0
 17 18  2  0  0  0  0
 17 41  1  0  0  0  0
 18 19  1  0  0  0  0
 18 42  1  0  0  0  0
 20 21  1  0  0  0  0
 20 43  1  0  0  0  0
 20 44  1  0  0  0  0
 21 22  1  0  0  0  0
 21 23  1  0  0  0  0
 21 45  1  0  0  0  0
 22 46  1  0  0  0  0
 22 47  1  0  0  0  0
 22 48  1  0  0  0  0
M  CHG  1   4   1
M  CHG  1  13   1
M  END
> <s_m_source_file>
AV-unprocessed.smi

> <i_m_source_file_index>
1703

> <i_lp_mmshare_version>
43012

> <i_f3d_flags>
0

> <s_epik_input>
W0NIM11bQ0BASF0xW0NIMl1OKFtDSDJdW0NASF0oTzEpW0NIM10pW0NIMl1bQ0BIXShbT0hdKVtDSDJdbihjKG4yKVtDSDJdW09IXSljKGMyMylbY0hdW2NIXVtjSF1bY0hdMw==

> <s_epik_cmdline>
J2VwaWtfcHl0aG9uJywgJy1waCcsICc3LjAnLCAnLXRuJywgJzgnLCAnLW1hJywgJzIwMCcsICctbWV0YWxfYmluZGluZycsICctaW1hZScsICc8aW5maWxlLm1hZT4nLCAnLW9tYWUnLCAnPG91dGZpbGUubWFlPic=

> <r_epik_Ionization_Penalty>
2.22579

> <r_epik_Ionization_Penalty_Charging>
2.22492

> <r_epik_Ionization_Penalty_Neutral>
0.000870007

> <r_epik_State_Penalty>
2.3141

> <r_epik_Charging_Adjusted_Penalty>
4.53902

> <i_epik_Tot_Q>
2

> <i_epik_Tot_abs_Q>
2

> <r_epik_Metal_State_Penalty>
6.36517

> <b_epik_Metal_Only>
0

> <s_lp_Force_Field>
OPLS_2005

> <r_lp_Energy>
32.0601

> <b_lp_Chiralities_Consistent>
1

> <s_lp_Variant>
AV-unprocessed.smi:1703-22

> <Gold.Version>
5.8.1

> <Gold.Id.Protein>
6NUR|6NUR_protein|mol2

> <Gold.PLP.Fitness>
50.8012

> <Gold.PLP.PLP>
-33.3497

> <Gold.PLP.part.hbond>
-6.0811

> <Gold.PLP.part.metal>
0.0000

> <Gold.PLP.part.buried>
5.8220

> <Gold.PLP.part.nonpolar>
-32.7387

> <Gold.PLP.part.repulsive>
0.0250

> <Gold.PLP.ligand.clash>
0.0000

> <Gold.PLP.ligand.torsion>
1.5362

> <Gold.PLP.Chemscore.Hbond>
6.8208

> <Gold.PLP.Chemscore.CHOScore>
0.0000

> <Gold.PLP.Chemscore.Metal>
0.0000

> <Gold.Chemscore.Hbonds>
donor molecule, donor type, donor heavy atom, donor atom, acceptor molecule, acceptor atom, score
      L1  H     4    49       P1  7948  2.00
      L1  H     7    33       P1 10171  1.00
      L1  H    12    38       P1 11000  0.81
      L1  H    13    50       P1 10957  2.00
      P1  H  7954  7966       L1     7  0.81

> <Gold.PLP.Chemscore.Internal.Correction>
0.0617

> <Gold.Rescore>
     Score         DG    S(hbond)    S(metal)    S(lipo)     H(rot)  DE(clash)    DE(int)     intcor
     16.41     -20.74       3.87        0.00      86.34       3.04       2.83       1.51       ----

> <Gold.Chemscore.Fitness>
16.4052

> <Gold.Chemscore.DG>
-20.7447

> <Gold.Chemscore.ZeroCoef>
-5.4800

> <Gold.Chemscore.Hbond>
3.8741

> <Gold.Chemscore.Metal>
0.0000

> <Gold.Chemscore.Lipo>
86.3401

> <Gold.Chemscore.Internal_Hbond>
0.0000

> <Gold.Chemscore.DEClash>
2.8333

> <Gold.Chemscore.DEInternal>
1.5062

> <Gold.Chemscore.Rot>
3.0378

> <Gold.Chemscore.Internal.Correction>
   9.000000E+99

> <Gold.Chemscore.Hbonds>
donor molecule, donor type, donor heavy atom, donor atom, acceptor molecule, acceptor atom, score
      L1  H     4    49       P1  7948  1.00
      L1  H     7    33       P1 10171  1.00
      L1  H    12    38       P1 11000  0.27
      L1  H    13    50       P1 10957  1.00
      P1  H  7954  7966       L1     7  0.69

> <Gold.Chemscore.Hbond.Weighted>
-12.9396

> <Gold.Chemscore.Metal.Weighted>
-0.0000

> <Gold.Chemscore.Lipo.Weighted>
-10.1018

> <Gold.Chemscore.Internal_Hbond.Weighted>
0.0000

> <Gold.Chemscore.DEClash.Weighted>
2.8333

> <Gold.Chemscore.DEInternal.Weighted>
1.5062

> <Gold.Chemscore.Rot.Weighted>
7.7767

> <Gold.Chemscore.Internal.Correction.Weighted>
   9.000000E+99

> <Gold.Protein.RotatedTorsions>
[ 6907 6896 6895 6894 ] final  110.62 input  -60.11 | X-H torsion
[ 7974 7965 7964 7962 ] final -146.65 input  175.53 | X-H torsion
[ 8008 7997 7996 7995 ] final  -12.51 input   59.86 | X-H torsion
[ 10167 10162 10161 10158 ] final   92.43 input  -65.29 | X-H torsion
[ 10718 10713 10712 10709 ] final   82.95 input   66.30 | X-H torsion
[ 10763 10752 10751 10750 ] final -155.67 input  -60.55 | X-H torsion
[ 11005 11000 10999 10996 ] final  120.36 input  -57.11 | X-H torsion

> <Gold.Protein.ActiveResidues>
 VAL166  LYS551  ARG553  GLY616  TRP617  ASP618  TYR619  PRO620  LYS621  CYS622 
 ASP623  PHE694  ASN695  SER759  ASP760  ASP761  ALA762  ILE779  LEU786  VAL792 
 PHE793  MET794  SER795  GLU796  ALA797  LYS798  CYS799  TRP800  GLU811  SER814 

> <Gold.Protein.RotatedAtoms>
  152.5010  133.8774  159.7328 H   0  0  0  0  0  0  0  0  0  0  0  0  # atno 6907 bound_to 6896
  150.9245  133.6831  159.2831 H   0  0  0  0  0  0  0  0  0  0  0  0  # atno 6908 bound_to 6896
  151.4197  135.1000  159.9662 H   0  0  0  0  0  0  0  0  0  0  0  0  # atno 6909 bound_to 6896
  144.8145  140.5428  143.5620 H   0  0  0  0  0  0  0  0  0  0  0  0  # atno 7974 bound_to 7965
  154.5371  140.2274  155.8703 H   0  0  0  0  0  0  0  0  0  0  0  0  # atno 8008 bound_to 7997
  156.1822  140.3097  155.9134 H   0  0  0  0  0  0  0  0  0  0  0  0  # atno 8009 bound_to 7997
  155.3332  140.0446  157.3034 H   0  0  0  0  0  0  0  0  0  0  0  0  # atno 8010 bound_to 7997
  139.8278  144.6701  150.9438 H   0  0  0  0  0  0  0  0  0  0  0  0  # atno 10167 bound_to 10162
  157.6868  131.0070  150.2451 H   0  0  0  0  0  0  0  0  0  0  0  0  # atno 10718 bound_to 10713
  154.7770  135.3162  154.8071 H   0  0  0  0  0  0  0  0  0  0  0  0  # atno 10763 bound_to 10752
  153.8792  135.6836  153.4772 H   0  0  0  0  0  0  0  0  0  0  0  0  # atno 10764 bound_to 10752
  153.1396  135.4745  154.9412 H   0  0  0  0  0  0  0  0  0  0  0  0  # atno 10765 bound_to 10752
  139.9182  134.9634  156.7795 H   0  0  0  0  0  0  0  0  0  0  0  0  # atno 11005 bound_to 11000
  145.5247  139.1476  143.3533 LP  0  0  0  0  0  0  0  0  0  0  0  0  # atno 17320 bound_to 7965
  146.2447  140.5387  142.8919 LP  0  0  0  0  0  0  0  0  0  0  0  0  # atno 17321 bound_to 7965
  140.7809  143.4030  151.1117 LP  0  0  0  0  0  0  0  0  0  0  0  0  # atno 17342 bound_to 10162
  139.7686  143.8528  152.3116 LP  0  0  0  0  0  0  0  0  0  0  0  0  # atno 17343 bound_to 10162
  156.3058  130.3765  149.7708 LP  0  0  0  0  0  0  0  0  0  0  0  0  # atno 17370 bound_to 10713
  156.5324  130.8263  151.3241 LP  0  0  0  0  0  0  0  0  0  0  0  0  # atno 17371 bound_to 10713
  140.6555  133.9692  155.7777 LP  0  0  0  0  0  0  0  0  0  0  0  0  # atno 17394 bound_to 11000
  141.0679  134.0250  157.3568 LP  0  0  0  0  0  0  0  0  0  0  0  0  # atno 17395 bound_to 11000

$$$$
