AV-unprocessed.smi:259|AV-procd|sdf|1974|dock7
  -GOLD-   2262021143D 1   1.00000     0.00000
 Structure written by MMmdl.
 54 57  0  0  0  0  0  0  0  0  1 V2000
  154.1839  131.1839  160.2054 C   0  0  0  0  0  0  0  0  0  0  0  0
  155.2364  132.1781  160.3476 N   0  0  0  0  0  0  0  0  0  0  0  0
  155.1213  133.4584  159.9661 C   0  0  0  0  0  0  0  0  0  0  0  0
  154.0978  133.9144  159.4557 O   0  0  0  0  0  0  0  0  0  0  0  0
  156.3451  134.3570  160.2118 C   0  0  0  0  0  0  0  0  0  0  0  0
  156.1159  135.5944  161.1237 C   0  0  2  0  0  0  0  0  0  0  0  0
  157.3129  136.3544  161.1360 O   0  0  0  0  0  0  0  0  0  0  0  0
  155.7167  135.2000  162.5693 C   0  0  0  0  0  0  0  0  0  0  0  0
  155.2901  136.4147  163.4079 C   0  0  0  0  0  0  0  0  0  0  0  0
  154.1898  137.2143  162.6996 C   0  0  0  0  0  0  0  0  0  0  0  0
  154.6262  137.5949  161.3583 N   0  0  0  0  0  0  0  0  0  0  0  0
  153.9724  138.6085  160.7366 C   0  0  0  0  0  0  0  0  0  0  0  0
  154.4344  139.8829  160.8490 N   0  0  0  0  0  0  0  0  0  0  0  0
  153.7893  140.8901  160.2534 C   0  0  0  0  0  0  0  0  0  0  0  0
  152.6833  140.8482  159.5080 N   0  0  0  0  0  0  0  0  0  0  0  0
  152.2198  139.5719  159.3827 C   0  0  0  0  0  0  0  0  0  0  0  0
  152.7984  138.4050  159.9570 C   0  0  0  0  0  0  0  0  0  0  0  0
  152.0552  137.2861  159.5997 N   0  0  0  0  0  0  0  0  0  0  0  0
  151.0869  137.7649  158.8681 C   0  0  0  0  0  0  0  0  0  0  0  0
  151.1124  139.1283  158.6796 N   0  0  0  0  0  0  0  0  0  0  0  0
  150.1613  139.9214  157.9156 C   0  0  0  0  0  0  0  0  0  0  0  0
  150.6943  140.3913  156.5493 C   0  0  0  0  0  0  0  0  0  0  0  0
  150.7015  141.9333  156.5268 C   0  0  0  0  0  0  0  0  0  0  0  0
  149.4160  142.4842  156.7344 O   0  0  0  0  0  0  0  0  0  0  0  0
  151.9726  139.7041  156.0475 C   0  0  0  0  0  0  0  0  0  0  0  0
  151.3462  139.3096  154.8069 O   0  0  0  0  0  0  0  0  0  0  0  0
  150.0588  139.6956  155.3369 C   0  0  0  0  0  0  0  0  0  0  0  0
  155.0303  136.4927  160.4836 C   0  0  0  0  0  0  0  0  0  0  0  0
  154.5270  130.2222  160.5866 H   0  0  0  0  0  0  0  0  0  0  0  0
  153.9081  131.0569  159.1578 H   0  0  0  0  0  0  0  0  0  0  0  0
  153.2957  131.4763  160.7670 H   0  0  0  0  0  0  0  0  0  0  0  0
  156.1050  131.8755  160.7646 H   0  0  0  0  0  0  0  0  0  0  0  0
  157.1388  133.7335  160.6259 H   0  0  0  0  0  0  0  0  0  0  0  0
  156.7146  134.7004  159.2441 H   0  0  0  0  0  0  0  0  0  0  0  0
  157.1907  137.0957  161.7102 H   0  0  0  0  0  0  0  0  0  0  0  0
  154.8865  134.4934  162.5312 H   0  0  0  0  0  0  0  0  0  0  0  0
  156.5334  134.6841  163.0749 H   0  0  0  0  0  0  0  0  0  0  0  0
  154.9415  136.0885  164.3878 H   0  0  0  0  0  0  0  0  0  0  0  0
  156.1520  137.0591  163.5857 H   0  0  0  0  0  0  0  0  0  0  0  0
  153.2773  136.6203  162.6294 H   0  0  0  0  0  0  0  0  0  0  0  0
  153.9549  138.1026  163.2877 H   0  0  0  0  0  0  0  0  0  0  0  0
  154.2210  141.8700  160.3951 H   0  0  0  0  0  0  0  0  0  0  0  0
  150.3239  137.1292  158.4435 H   0  0  0  0  0  0  0  0  0  0  0  0
  149.2610  139.3191  157.7875 H   0  0  0  0  0  0  0  0  0  0  0  0
  149.8578  140.7760  158.5213 H   0  0  0  0  0  0  0  0  0  0  0  0
  151.3665  142.3289  157.2950 H   0  0  0  0  0  0  0  0  0  0  0  0
  151.0617  142.3117  155.5699 H   0  0  0  0  0  0  0  0  0  0  0  0
  149.4127  143.3716  156.4090 H   0  0  0  0  0  0  0  0  0  0  0  0
  152.8146  140.3806  155.8961 H   0  0  0  0  0  0  0  0  0  0  0  0
  152.2738  138.8367  156.6354 H   0  0  0  0  0  0  0  0  0  0  0  0
  149.4521  138.8256  155.5928 H   0  0  0  0  0  0  0  0  0  0  0  0
  149.5116  140.3617  154.6690 H   0  0  0  0  0  0  0  0  0  0  0  0
  155.3755  136.8518  159.5147 H   0  0  0  0  0  0  0  0  0  0  0  0
  154.1386  135.8971  160.2832 H   0  0  0  0  0  0  0  0  0  0  0  0
  1  2  1  0  0  0  0
  1 29  1  0  0  0  0
  1 30  1  0  0  0  0
  1 31  1  0  0  0  0
  2  3  1  0  0  0  0
  2 32  1  0  0  0  0
  3  4  2  0  0  0  0
  3  5  1  0  0  0  0
  5  6  1  0  0  0  0
  5 33  1  0  0  0  0
  5 34  1  0  0  0  0
  6 28  1  0  0  0  0
  6  7  1  0  0  0  0
  6  8  1  0  0  0  0
  7 35  1  0  0  0  0
  8  9  1  0  0  0  0
  8 36  1  0  0  0  0
  8 37  1  0  0  0  0
  9 10  1  0  0  0  0
  9 38  1  0  0  0  0
  9 39  1  0  0  0  0
 10 11  1  0  0  0  0
 10 40  1  0  0  0  0
 10 41  1  0  0  0  0
 11 12  1  0  0  0  0
 11 28  1  0  0  0  0
 12 17  1  0  0  0  0
 12 13  2  0  0  0  0
 13 14  1  0  0  0  0
 14 15  2  0  0  0  0
 14 42  1  0  0  0  0
 15 16  1  0  0  0  0
 16 20  1  0  0  0  0
 16 17  2  0  0  0  0
 17 18  1  0  0  0  0
 18 19  2  0  0  0  0
 19 20  1  0  0  0  0
 19 43  1  0  0  0  0
 20 21  1  0  0  0  0
 21 22  1  0  0  0  0
 21 44  1  0  0  0  0
 21 45  1  0  0  0  0
 22 27  1  0  0  0  0
 22 23  1  0  0  0  0
 22 25  1  0  0  0  0
 23 24  1  0  0  0  0
 23 46  1  0  0  0  0
 23 47  1  0  0  0  0
 24 48  1  0  0  0  0
 25 26  1  0  0  0  0
 25 49  1  0  0  0  0
 25 50  1  0  0  0  0
 26 27  1  0  0  0  0
 27 51  1  0  0  0  0
 27 52  1  0  0  0  0
 28 53  1  0  0  0  0
 28 54  1  0  0  0  0
M  END
> <s_m_source_file>
AV-unprocessed.smi

> <i_m_source_file_index>
259

> <i_lp_mmshare_version>
43012

> <i_f3d_flags>
0

> <s_epik_input>
W0NIM11bTkhdQyg9TylbQ0gyXVtDQEBdMShbT0hdKVtDSDJdW0NIMl1bQ0gyXU4oW0NIMl0xKWMobltjSF1uMiljKGMyMyluW2NIXW4zW0NIMl1DNChbQ0gyXVtPSF0pW0NIMl1PW0NIMl00

> <s_epik_cmdline>
J2VwaWtfcHl0aG9uJywgJy1waCcsICc3LjAnLCAnLXRuJywgJzgnLCAnLW1hJywgJzIwMCcsICctbWV0YWxfYmluZGluZycsICctaW1hZScsICc8aW5maWxlLm1hZT4nLCAnLW9tYWUnLCAnPG91dGZpbGUubWFlPic=

> <r_lp_tautomer_probability>
1

> <r_epik_Ionization_Penalty>
0.00366363

> <r_epik_Ionization_Penalty_Charging>
0

> <r_epik_Ionization_Penalty_Neutral>
0.00366363

> <r_epik_State_Penalty>
0.00243014

> <r_epik_Charging_Adjusted_Penalty>
0.00243014

> <i_epik_Tot_Q>
0

> <i_epik_Tot_abs_Q>
0

> <r_epik_Metal_State_Penalty>
-0

> <b_epik_Metal_Only>
0

> <s_lp_Force_Field>
OPLS_2005

> <r_lp_Energy>
39.9433

> <b_lp_Chiralities_Consistent>
1

> <s_lp_Variant>
AV-unprocessed.smi:259-2

> <Gold.Version>
5.8.1

> <Gold.Id.Protein>
6NUR|6NUR_protein|mol2

> <Gold.PLP.Fitness>
44.4800

> <Gold.PLP.PLP>
-35.1245

> <Gold.PLP.part.hbond>
-4.0000

> <Gold.PLP.part.metal>
0.0000

> <Gold.PLP.part.buried>
-7.1935

> <Gold.PLP.part.nonpolar>
-25.6530

> <Gold.PLP.part.repulsive>
0.1136

> <Gold.PLP.ligand.clash>
0.0000

> <Gold.PLP.ligand.torsion>
1.7209

> <Gold.PLP.Chemscore.Hbond>
4.0000

> <Gold.PLP.Chemscore.CHOScore>
0.0000

> <Gold.PLP.Chemscore.Metal>
0.0000

> <Gold.Chemscore.Hbonds>
donor molecule, donor type, donor heavy atom, donor atom, acceptor molecule, acceptor atom, score
      L1  H    24    48       P1  8028  1.00
      P1  H  6896  6908       L1    18  0.57
      P1  H  6896  6909       L1     4  1.00
      P1  H  7989  7998       L1    26  0.96

> <Gold.PLP.Chemscore.Internal.Correction>
0.7972

> <Gold.Rescore>
     Score         DG    S(hbond)    S(metal)    S(lipo)     H(rot)  DE(clash)    DE(int)     intcor
     11.93     -13.76       3.64        0.00      56.26       4.09       0.00       1.84       ----

> <Gold.Chemscore.Fitness>
11.9261

> <Gold.Chemscore.DG>
-13.7620

> <Gold.Chemscore.ZeroCoef>
-5.4800

> <Gold.Chemscore.Hbond>
3.6443

> <Gold.Chemscore.Metal>
0.0000

> <Gold.Chemscore.Lipo>
56.2572

> <Gold.Chemscore.Internal_Hbond>
0.0000

> <Gold.Chemscore.DEClash>
0.0000

> <Gold.Chemscore.DEInternal>
1.8359

> <Gold.Chemscore.Rot>
4.0906

> <Gold.Chemscore.Internal.Correction>
   9.000000E+99

> <Gold.Chemscore.Hbonds>
donor molecule, donor type, donor heavy atom, donor atom, acceptor molecule, acceptor atom, score
      L1  H    24    48       P1  8028  0.99
      P1  H  6896  6908       L1    18  0.34
      P1  H  6896  6909       L1     4  0.96
      P1  H  7989  7998       L1    26  0.13

> <Gold.Chemscore.Hbond.Weighted>
-12.1719

> <Gold.Chemscore.Metal.Weighted>
-0.0000

> <Gold.Chemscore.Lipo.Weighted>
-6.5821

> <Gold.Chemscore.Internal_Hbond.Weighted>
0.0000

> <Gold.Chemscore.DEClash.Weighted>
0.0000

> <Gold.Chemscore.DEInternal.Weighted>
1.8359

> <Gold.Chemscore.Rot.Weighted>
10.4719

> <Gold.Chemscore.Internal.Correction.Weighted>
   9.000000E+99

> <Gold.Protein.RotatedTorsions>
[ 6907 6896 6895 6894 ] final -121.09 input  -60.11 | X-H torsion
[ 7974 7965 7964 7962 ] final  103.95 input  175.53 | X-H torsion
[ 8008 7997 7996 7995 ] final  152.50 input   59.86 | X-H torsion
[ 10167 10162 10161 10158 ] final  -14.08 input  -65.29 | X-H torsion
[ 10718 10713 10712 10709 ] final -138.24 input   66.30 | X-H torsion
[ 10763 10752 10751 10750 ] final   18.57 input  -60.55 | X-H torsion
[ 11005 11000 10999 10996 ] final   18.00 input  -57.11 | X-H torsion

> <Gold.Protein.ActiveResidues>
 VAL166  LYS551  ARG553  GLY616  TRP617  ASP618  TYR619  PRO620  LYS621  CYS622 
 ASP623  PHE694  ASN695  SER759  ASP760  ASP761  ALA762  ILE779  LEU786  VAL792 
 PHE793  MET794  SER795  GLU796  ALA797  LYS798  CYS799  TRP800  GLU811  SER814 

> <Gold.Protein.RotatedAtoms>
  150.8452  133.7873  159.3045 H   0  0  0  0  0  0  0  0  0  0  0  0  # atno 6907 bound_to 6896
  151.5562  135.1065  159.9971 H   0  0  0  0  0  0  0  0  0  0  0  0  # atno 6908 bound_to 6896
  152.4507  133.7581  159.6787 H   0  0  0  0  0  0  0  0  0  0  0  0  # atno 6909 bound_to 6896
  145.3392  139.2466  143.3618 H   0  0  0  0  0  0  0  0  0  0  0  0  # atno 7974 bound_to 7965
  156.2626  140.2019  156.6343 H   0  0  0  0  0  0  0  0  0  0  0  0  # atno 8008 bound_to 7997
  154.6658  140.0555  157.0137 H   0  0  0  0  0  0  0  0  0  0  0  0  # atno 8009 bound_to 7997
  155.1209  140.3224  155.4500 H   0  0  0  0  0  0  0  0  0  0  0  0  # atno 8010 bound_to 7997
  140.7194  143.5359  150.9466 H   0  0  0  0  0  0  0  0  0  0  0  0  # atno 10167 bound_to 10162
  156.2971  130.7408  151.1449 H   0  0  0  0  0  0  0  0  0  0  0  0  # atno 10718 bound_to 10713
  153.1237  135.6725  153.9292 H   0  0  0  0  0  0  0  0  0  0  0  0  # atno 10763 bound_to 10752
  153.8799  135.3059  155.3446 H   0  0  0  0  0  0  0  0  0  0  0  0  # atno 10764 bound_to 10752
  154.7645  135.4971  153.9608 H   0  0  0  0  0  0  0  0  0  0  0  0  # atno 10765 bound_to 10752
  140.4297  134.1433  155.7679 H   0  0  0  0  0  0  0  0  0  0  0  0  # atno 11005 bound_to 11000
  146.3014  140.3986  142.8702 LP  0  0  0  0  0  0  0  0  0  0  0  0  # atno 17320 bound_to 7965
  144.8803  140.7392  143.5991 LP  0  0  0  0  0  0  0  0  0  0  0  0  # atno 17321 bound_to 7965
  139.9080  143.6754  152.3120 LP  0  0  0  0  0  0  0  0  0  0  0  0  # atno 17342 bound_to 10162
  139.7128  144.7617  151.1084 LP  0  0  0  0  0  0  0  0  0  0  0  0  # atno 17343 bound_to 10162
  157.7358  131.0568  150.5449 LP  0  0  0  0  0  0  0  0  0  0  0  0  # atno 17370 bound_to 10713
  156.5572  130.4246  149.6080 LP  0  0  0  0  0  0  0  0  0  0  0  0  # atno 17371 bound_to 10713
  141.1751  133.8531  157.1448 LP  0  0  0  0  0  0  0  0  0  0  0  0  # atno 17394 bound_to 11000
  140.0143  134.9974  157.0461 LP  0  0  0  0  0  0  0  0  0  0  0  0  # atno 17395 bound_to 11000

$$$$
