AV-unprocessed.smi:1485|AV-procd|sdf|6004|dock8
  -GOLD-   22720 6103D 1   1.00000     0.00000
 Structure written by MMmdl.
 44 45  0  0  0  0  0  0  0  0  1 V2000
  144.8812  134.0312  162.7190 C   0  0  0  0  0  0  0  0  0  0  0  0
  145.9650  134.0395  161.8068 O   0  0  0  0  0  0  0  0  0  0  0  0
  147.1958  134.3723  162.4288 C   0  0  0  0  0  0  0  0  0  0  0  0
  147.4436  135.8899  162.3068 C   0  0  0  0  0  0  0  0  0  0  0  0
  147.5057  136.3752  160.9160 N   0  0  0  0  0  0  0  0  0  0  0  0
  148.7627  136.7880  160.5035 N   0  0  0  0  0  0  0  0  0  0  0  0
  148.9568  137.1939  159.2914 C   0  0  0  0  0  0  0  0  0  0  0  0
  150.3099  137.5803  158.8073 C   0  0  0  0  0  0  0  0  0  0  0  0
  151.3177  136.9346  159.0993 O   0  0  0  0  0  0  0  0  0  0  0  0
  150.3437  138.6948  158.0555 N   0  0  0  0  0  0  0  0  0  0  0  0
  151.5423  139.3618  157.5551 C   0  0  1  0  0  0  0  0  0  0  0  0
  151.5028  139.4412  156.0170 C   0  0  0  0  0  0  0  0  0  0  0  0
  150.4194  140.4111  155.5137 C   0  0  0  0  0  0  0  0  0  0  0  0
  150.5808  141.8051  156.1401 C   0  0  0  0  0  0  0  0  0  0  0  0
  150.5823  141.7383  157.6791 C   0  0  2  0  0  0  0  0  0  0  0  0
  150.7410  143.1324  158.3015 C   0  0  0  0  0  0  0  0  0  0  0  0
  151.6769  140.7689  158.1754 C   0  0  0  0  0  0  0  0  0  0  0  0
  147.8557  137.2692  158.3482 C   0  0  0  0  0  0  0  0  0  0  0  0
  146.6273  136.8976  158.7701 C   0  0  0  0  0  0  0  0  0  0  0  0
  146.3838  136.4215  160.1336 C   0  0  0  0  0  0  0  0  0  0  0  0
  145.2672  136.0975  160.5369 O   0  0  0  0  0  0  0  0  0  0  0  0
  143.9610  133.7779  162.1929 H   0  0  0  0  0  0  0  0  0  0  0  0
  144.7466  135.0095  163.1820 H   0  0  0  0  0  0  0  0  0  0  0  0
  145.0336  133.2894  163.5042 H   0  0  0  0  0  0  0  0  0  0  0  0
  147.1554  134.0943  163.4831 H   0  0  0  0  0  0  0  0  0  0  0  0
  148.0168  133.8041  161.9876 H   0  0  0  0  0  0  0  0  0  0  0  0
  146.6612  136.3968  162.8734 H   0  0  0  0  0  0  0  0  0  0  0  0
  148.3838  136.1443  162.7972 H   0  0  0  0  0  0  0  0  0  0  0  0
  149.4635  139.1519  157.8648 H   0  0  0  0  0  0  0  0  0  0  0  0
  152.4153  138.7704  157.8360 H   0  0  0  0  0  0  0  0  0  0  0  0
  152.4754  139.7747  155.6526 H   0  0  0  0  0  0  0  0  0  0  0  0
  151.3440  138.4494  155.5917 H   0  0  0  0  0  0  0  0  0  0  0  0
  150.4678  140.4861  154.4270 H   0  0  0  0  0  0  0  0  0  0  0  0
  149.4301  140.0170  155.7495 H   0  0  0  0  0  0  0  0  0  0  0  0
  151.5109  142.2545  155.7898 H   0  0  0  0  0  0  0  0  0  0  0  0
  149.7756  142.4544  155.7951 H   0  0  0  0  0  0  0  0  0  0  0  0
  149.6133  141.3521  157.9984 H   0  0  0  0  0  0  0  0  0  0  0  0
  151.7000  143.5788  158.0368 H   0  0  0  0  0  0  0  0  0  0  0  0
  150.6840  143.0846  159.3892 H   0  0  0  0  0  0  0  0  0  0  0  0
  149.9541  143.8061  157.9606 H   0  0  0  0  0  0  0  0  0  0  0  0
  151.6513  140.6999  159.2638 H   0  0  0  0  0  0  0  0  0  0  0  0
  152.6578  141.1739  157.9231 H   0  0  0  0  0  0  0  0  0  0  0  0
  148.0068  137.6164  157.3361 H   0  0  0  0  0  0  0  0  0  0  0  0
  145.7974  136.9507  158.0806 H   0  0  0  0  0  0  0  0  0  0  0  0
  1  2  1  0  0  0  0
  1 22  1  0  0  0  0
  1 23  1  0  0  0  0
  1 24  1  0  0  0  0
  2  3  1  0  0  0  0
  3  4  1  0  0  0  0
  3 25  1  0  0  0  0
  3 26  1  0  0  0  0
  4  5  1  0  0  0  0
  4 27  1  0  0  0  0
  4 28  1  0  0  0  0
  5 20  1  0  0  0  0
  5  6  1  0  0  0  0
  6  7  2  0  0  0  0
  7  8  1  0  0  0  0
  7 18  1  0  0  0  0
  8  9  2  0  0  0  0
  8 10  1  0  0  0  0
 10 11  1  0  0  0  0
 10 29  1  0  0  0  0
 11 17  1  0  0  0  0
 11 12  1  0  0  0  0
 11 30  1  0  0  0  0
 12 13  1  0  0  0  0
 12 31  1  0  0  0  0
 12 32  1  0  0  0  0
 13 14  1  0  0  0  0
 13 33  1  0  0  0  0
 13 34  1  0  0  0  0
 14 15  1  0  0  0  0
 14 35  1  0  0  0  0
 14 36  1  0  0  0  0
 15 16  1  0  0  0  0
 15 17  1  0  0  0  0
 15 37  1  0  0  0  0
 16 38  1  0  0  0  0
 16 39  1  0  0  0  0
 16 40  1  0  0  0  0
 17 41  1  0  0  0  0
 17 42  1  0  0  0  0
 18 19  2  0  0  0  0
 18 43  1  0  0  0  0
 19 20  1  0  0  0  0
 19 44  1  0  0  0  0
 20 21  2  0  0  0  0
M  END
> <s_m_source_file>
AV-unprocessed.smi

> <i_m_source_file_index>
1485

> <i_lp_mmshare_version>
43012

> <i_f3d_flags>
0

> <s_epik_input>
W0NIM11PW0NIMl1bQ0gyXW4xbmMoW2NIXVtjSF1jMT1PKUMoPU8pW05IXVtDQEBIXTJbQ0gyXVtDSDJdW0NIMl1bQ0BASF0oW0NIM10pW0NIMl0y

> <s_epik_cmdline>
J2VwaWtfcHl0aG9uJywgJy1waCcsICc3LjAnLCAnLXRuJywgJzgnLCAnLW1hJywgJzIwMCcsICctbWV0YWxfYmluZGluZycsICctaW1hZScsICc8aW5maWxlLm1hZT4nLCAnLW9tYWUnLCAnPG91dGZpbGUubWFlPic=

> <r_lp_tautomer_probability>
1

> <r_epik_Ionization_Penalty>
6.4688e-07

> <r_epik_Ionization_Penalty_Charging>
6.63567e-09

> <r_epik_Ionization_Penalty_Neutral>
6.40245e-07

> <r_epik_State_Penalty>
-0

> <r_epik_Charging_Adjusted_Penalty>
6.63567e-09

> <i_epik_Tot_Q>
0

> <i_epik_Tot_abs_Q>
0

> <r_epik_Metal_State_Penalty>
-0

> <b_epik_Metal_Only>
0

> <s_lp_Force_Field>
OPLS_2005

> <r_lp_Energy>
30.8996

> <b_lp_Chiralities_Consistent>
1

> <s_lp_Variant>
AV-unprocessed.smi:1485-4

> <Gold.Version>
5.8.1

> <Gold.Id.Protein>
6NUR|6NUR_protein|mol2

> <Gold.PLP.Fitness>
40.7800

> <Gold.PLP.PLP>
-37.3980

> <Gold.PLP.part.hbond>
-2.0000

> <Gold.PLP.part.metal>
0.0000

> <Gold.PLP.part.buried>
-5.8522

> <Gold.PLP.part.nonpolar>
-30.4176

> <Gold.PLP.part.repulsive>
0.1048

> <Gold.PLP.ligand.clash>
0.0000

> <Gold.PLP.ligand.torsion>
1.0105

> <Gold.PLP.Chemscore.Hbond>
1.7904

> <Gold.PLP.Chemscore.CHOScore>
0.0000

> <Gold.PLP.Chemscore.Metal>
0.0000

> <Gold.Chemscore.Hbonds>
donor molecule, donor type, donor heavy atom, donor atom, acceptor molecule, acceptor atom, score
      P1  H  6896  6909       L1     9  1.00
      P1  H  6931  6943       L1     6  0.74

> <Gold.PLP.Chemscore.Internal.Correction>
0.0318

> <Gold.Rescore>
     Score         DG    S(hbond)    S(metal)    S(lipo)     H(rot)  DE(clash)    DE(int)     intcor
     14.68     -16.06       1.52        0.00      81.05       1.55       0.03       1.35       ----

> <Gold.Chemscore.Fitness>
14.6829

> <Gold.Chemscore.DG>
-16.0623

> <Gold.Chemscore.ZeroCoef>
-5.4800

> <Gold.Chemscore.Hbond>
1.5153

> <Gold.Chemscore.Metal>
0.0000

> <Gold.Chemscore.Lipo>
81.0546

> <Gold.Chemscore.Internal_Hbond>
0.0000

> <Gold.Chemscore.DEClash>
0.0253

> <Gold.Chemscore.DEInternal>
1.3541

> <Gold.Chemscore.Rot>
1.5478

> <Gold.Chemscore.Internal.Correction>
   9.000000E+99

> <Gold.Chemscore.Hbonds>
donor molecule, donor type, donor heavy atom, donor atom, acceptor molecule, acceptor atom, score
      P1  H  6896  6909       L1     9  0.97
      P1  H  6931  6943       L1     6  0.12

> <Gold.Chemscore.Hbond.Weighted>
-5.0612

> <Gold.Chemscore.Metal.Weighted>
-0.0000

> <Gold.Chemscore.Lipo.Weighted>
-9.4834

> <Gold.Chemscore.Internal_Hbond.Weighted>
0.0000

> <Gold.Chemscore.DEClash.Weighted>
0.0253

> <Gold.Chemscore.DEInternal.Weighted>
1.3541

> <Gold.Chemscore.Rot.Weighted>
3.9623

> <Gold.Chemscore.Internal.Correction.Weighted>
   9.000000E+99

> <Gold.Protein.RotatedTorsions>
[ 6907 6896 6895 6894 ] final  106.20 input  -60.11 | X-H torsion
[ 7974 7965 7964 7962 ] final   65.64 input  175.53 | X-H torsion
[ 8008 7997 7996 7995 ] final -128.43 input   59.86 | X-H torsion
[ 10167 10162 10161 10158 ] final -127.48 input  -65.29 | X-H torsion
[ 10718 10713 10712 10709 ] final  -97.10 input   66.30 | X-H torsion
[ 10763 10752 10751 10750 ] final   40.03 input  -60.55 | X-H torsion
[ 11005 11000 10999 10996 ] final  -51.71 input  -57.11 | X-H torsion

> <Gold.Protein.ActiveResidues>
 VAL166  LYS551  ARG553  GLY616  TRP617  ASP618  TYR619  PRO620  LYS621  CYS622 
 ASP623  PHE694  ASN695  SER759  ASP760  ASP761  ALA762  ILE779  LEU786  VAL792 
 PHE793  MET794  SER795  GLU796  ALA797  LYS798  CYS799  TRP800  GLU811  SER814 

> <Gold.Protein.RotatedAtoms>
  152.5203  133.9416  159.7628 H   0  0  0  0  0  0  0  0  0  0  0  0  # atno 6907 bound_to 6896
  150.9745  133.6301  159.2739 H   0  0  0  0  0  0  0  0  0  0  0  0  # atno 6908 bound_to 6896
  151.3500  135.0888  159.9453 H   0  0  0  0  0  0  0  0  0  0  0  0  # atno 6909 bound_to 6896
  145.8361  139.3167  143.0959 H   0  0  0  0  0  0  0  0  0  0  0  0  # atno 7974 bound_to 7965
  155.2626  140.0436  157.2999 H   0  0  0  0  0  0  0  0  0  0  0  0  # atno 8008 bound_to 7997
  154.5701  140.2371  155.8173 H   0  0  0  0  0  0  0  0  0  0  0  0  # atno 8009 bound_to 7997
  156.2116  140.2997  155.9753 H   0  0  0  0  0  0  0  0  0  0  0  0  # atno 8010 bound_to 7997
  139.9604  143.5956  152.2447 H   0  0  0  0  0  0  0  0  0  0  0  0  # atno 10167 bound_to 10162
  156.0076  130.5180  150.6325 H   0  0  0  0  0  0  0  0  0  0  0  0  # atno 10718 bound_to 10713
  152.9948  135.6203  154.2561 H   0  0  0  0  0  0  0  0  0  0  0  0  # atno 10763 bound_to 10752
  154.2298  135.2792  155.2896 H   0  0  0  0  0  0  0  0  0  0  0  0  # atno 10764 bound_to 10752
  154.5459  135.5747  153.6937 H   0  0  0  0  0  0  0  0  0  0  0  0  # atno 10765 bound_to 10752
  141.0885  133.6637  156.3917 H   0  0  0  0  0  0  0  0  0  0  0  0  # atno 11005 bound_to 11000
  145.9517  140.8903  143.0255 LP  0  0  0  0  0  0  0  0  0  0  0  0  # atno 17320 bound_to 7965
  144.6736  140.1690  143.7416 LP  0  0  0  0  0  0  0  0  0  0  0  0  # atno 17321 bound_to 7965
  139.6558  144.7662  151.2058 LP  0  0  0  0  0  0  0  0  0  0  0  0  # atno 17342 bound_to 10162
  140.7555  143.6088  150.8626 LP  0  0  0  0  0  0  0  0  0  0  0  0  # atno 17343 bound_to 10162
  157.4120  131.0825  151.1212 LP  0  0  0  0  0  0  0  0  0  0  0  0  # atno 17370 bound_to 10713
  157.1840  130.6322  149.5681 LP  0  0  0  0  0  0  0  0  0  0  0  0  # atno 17371 bound_to 10713
  140.5306  134.6216  157.5349 LP  0  0  0  0  0  0  0  0  0  0  0  0  # atno 17394 bound_to 11000
  139.9707  134.7297  156.0047 LP  0  0  0  0  0  0  0  0  0  0  0  0  # atno 17395 bound_to 11000

$$$$
