AV-unprocessed.smi:2458|AV-procd|sdf|9710|dock3
  -GOLD-   2272013353D 1   1.00000     0.00000
 Structure written by MMmdl.
 47 48  0  0  0  0  0  0  0  0  1 V2000
  154.4600  140.4529  160.1787 C   0  0  0  0  0  0  0  0  0  0  0  0
  153.0428  140.5878  159.5880 C   0  0  0  0  0  0  0  0  0  0  0  0
  152.8859  139.5663  158.4448 C   0  0  0  0  0  0  0  0  0  0  0  0
  152.7120  142.0441  159.1455 C   0  0  1  0  0  0  0  0  0  0  0  0
  151.3357  142.1506  158.4443 C   0  0  0  0  0  0  0  0  0  0  0  0
  150.9957  143.5906  158.0145 C   0  0  0  0  0  0  0  0  0  0  0  0
  151.0872  144.6233  159.1580 C   0  0  1  0  0  0  0  0  0  0  0  0
  149.8803  144.5755  160.1144 C   0  0  0  0  0  0  0  0  0  0  0  0
  150.0071  144.1998  161.2796 O   0  0  0  0  0  0  0  0  0  0  0  0
  148.7031  144.9627  159.6023 N   0  0  0  0  0  0  0  0  0  0  0  0
  147.4499  144.9983  160.3446 C   0  0  0  0  0  0  0  0  0  0  0  0
  146.5048  143.8742  159.8847 C   0  0  2  0  0  0  0  0  0  0  0  0
  146.2025  144.0679  158.5168 O   0  0  0  0  0  0  0  0  0  0  0  0
  145.2435  143.8338  160.7326 C   0  0  0  0  0  0  0  0  0  0  0  0
  145.3051  143.6737  162.1340 C   0  0  0  0  0  0  0  0  0  0  0  0
  144.1046  143.6330  162.8687 C   0  0  0  0  0  0  0  0  0  0  0  0
  142.8869  143.7524  162.1704 C   0  0  0  0  0  0  0  0  0  0  0  0
  142.8131  143.9030  160.8306 N   0  0  0  0  0  0  0  0  0  0  0  0
  143.9692  143.9413  160.1336 C   0  0  0  0  0  0  0  0  0  0  0  0
  152.4350  144.4842  159.8945 C   0  0  0  0  0  0  0  0  0  0  0  0
  152.7561  143.0423  160.3276 C   0  0  0  0  0  0  0  0  0  0  0  0
  153.4720  142.3522  158.4258 H   0  0  0  0  0  0  0  0  0  0  0  0
  151.0766  145.6114  158.6944 H   0  0  0  0  0  0  0  0  0  0  0  0
  155.2161  140.8208  159.4842 H   0  0  0  0  0  0  0  0  0  0  0  0
  154.6964  139.4120  160.4013 H   0  0  0  0  0  0  0  0  0  0  0  0
  154.5669  140.9978  161.1160 H   0  0  0  0  0  0  0  0  0  0  0  0
  152.3386  140.3044  160.3715 H   0  0  0  0  0  0  0  0  0  0  0  0
  153.4938  139.8397  157.5818 H   0  0  0  0  0  0  0  0  0  0  0  0
  151.8515  139.4751  158.1159 H   0  0  0  0  0  0  0  0  0  0  0  0
  153.1946  138.5700  158.7627 H   0  0  0  0  0  0  0  0  0  0  0  0
  151.3155  141.5324  157.5479 H   0  0  0  0  0  0  0  0  0  0  0  0
  150.5569  141.7571  159.0973 H   0  0  0  0  0  0  0  0  0  0  0  0
  151.6816  143.8881  157.2203 H   0  0  0  0  0  0  0  0  0  0  0  0
  150.0007  143.6123  157.5673 H   0  0  0  0  0  0  0  0  0  0  0  0
  148.6749  145.2642  158.6389 H   0  0  0  0  0  0  0  0  0  0  0  0
  147.6948  144.8604  161.3991 H   0  0  0  0  0  0  0  0  0  0  0  0
  146.9685  145.9742  160.2557 H   0  0  0  0  0  0  0  0  0  0  0  0
  147.0094  142.9112  159.9778 H   0  0  0  0  0  0  0  0  0  0  0  0
  146.6144  144.8676  158.2278 H   0  0  0  0  0  0  0  0  0  0  0  0
  146.2554  143.5811  162.6393 H   0  0  0  0  0  0  0  0  0  0  0  0
  144.1164  143.5119  163.9418 H   0  0  0  0  0  0  0  0  0  0  0  0
  141.9472  143.7248  162.7020 H   0  0  0  0  0  0  0  0  0  0  0  0
  143.8714  144.0602  159.0645 H   0  0  0  0  0  0  0  0  0  0  0  0
  153.2313  144.8385  159.2387 H   0  0  0  0  0  0  0  0  0  0  0  0
  152.4570  145.1404  160.7658 H   0  0  0  0  0  0  0  0  0  0  0  0
  152.0680  142.7216  161.1101 H   0  0  0  0  0  0  0  0  0  0  0  0
  153.7455  143.0535  160.7825 H   0  0  0  0  0  0  0  0  0  0  0  0
  1  2  1  0  0  0  0
  1 24  1  0  0  0  0
  1 25  1  0  0  0  0
  1 26  1  0  0  0  0
  2  3  1  0  0  0  0
  2  4  1  0  0  0  0
  2 27  1  0  0  0  0
  3 28  1  0  0  0  0
  3 29  1  0  0  0  0
  3 30  1  0  0  0  0
  4 22  1  0  0  0  0
  4 21  1  0  0  0  0
  4  5  1  0  0  0  0
  5  6  1  0  0  0  0
  5 31  1  0  0  0  0
  5 32  1  0  0  0  0
  6  7  1  0  0  0  0
  6 33  1  0  0  0  0
  6 34  1  0  0  0  0
  7 23  1  0  0  0  0
  7  8  1  0  0  0  0
  7 20  1  0  0  0  0
  8  9  2  0  0  0  0
  8 10  1  0  0  0  0
 10 11  1  0  0  0  0
 10 35  1  0  0  0  0
 11 12  1  0  0  0  0
 11 36  1  0  0  0  0
 11 37  1  0  0  0  0
 12 13  1  0  0  0  0
 12 14  1  0  0  0  0
 12 38  1  0  0  0  0
 13 39  1  0  0  0  0
 14 19  1  0  0  0  0
 14 15  2  0  0  0  0
 15 16  1  0  0  0  0
 15 40  1  0  0  0  0
 16 17  2  0  0  0  0
 16 41  1  0  0  0  0
 17 18  1  0  0  0  0
 17 42  1  0  0  0  0
 18 19  2  0  0  0  0
 19 43  1  0  0  0  0
 20 21  1  0  0  0  0
 20 44  1  0  0  0  0
 20 45  1  0  0  0  0
 21 46  1  0  0  0  0
 21 47  1  0  0  0  0
M  END
> <s_m_source_file>
AV-unprocessed.smi

> <i_m_source_file_index>
2458

> <i_lp_mmshare_version>
43012

> <i_f3d_flags>
0

> <s_epik_input>
W0NIM11bQ0hdKFtDSDNdKVtDQEhdMVtDSDJdW0NIMl1bQ0BASF0oW0NIMl1bQ0gyXTEpQyg9TylbTkhdW0NIMl1bQ0BIXShbT0hdKWMyW2NIXVtjSF1bY0hdbltjSF0y

> <s_epik_cmdline>
J2VwaWtfcHl0aG9uJywgJy1waCcsICc3LjAnLCAnLXRuJywgJzgnLCAnLW1hJywgJzIwMCcsICctbWV0YWxfYmluZGluZycsICctaW1hZScsICc8aW5maWxlLm1hZT4nLCAnLW9tYWUnLCAnPG91dGZpbGUubWFlPic=

> <r_epik_Ionization_Penalty>
0.00169206

> <r_epik_Ionization_Penalty_Charging>
0

> <r_epik_Ionization_Penalty_Neutral>
0.00169206

> <r_epik_State_Penalty>
0.0011427

> <r_epik_Charging_Adjusted_Penalty>
0.0011427

> <i_epik_Tot_Q>
0

> <i_epik_Tot_abs_Q>
0

> <r_epik_Metal_State_Penalty>
-0

> <b_epik_Metal_Only>
0

> <s_lp_Force_Field>
OPLS_2005

> <r_lp_Energy>
16.378

> <b_lp_Chiralities_Consistent>
1

> <s_lp_Variant>
AV-unprocessed.smi:2458-3

> <Gold.Version>
5.8.1

> <Gold.Id.Protein>
6NUR|6NUR_protein|mol2

> <Gold.PLP.Fitness>
51.1028

> <Gold.PLP.PLP>
-45.5750

> <Gold.PLP.part.hbond>
-3.0000

> <Gold.PLP.part.metal>
0.0000

> <Gold.PLP.part.buried>
-6.2882

> <Gold.PLP.part.nonpolar>
-36.8646

> <Gold.PLP.part.repulsive>
0.8414

> <Gold.PLP.ligand.clash>
0.0000

> <Gold.PLP.ligand.torsion>
0.3227

> <Gold.PLP.Chemscore.Hbond>
2.0166

> <Gold.PLP.Chemscore.CHOScore>
0.0000

> <Gold.PLP.Chemscore.Metal>
0.0000

> <Gold.Chemscore.Hbonds>
donor molecule, donor type, donor heavy atom, donor atom, acceptor molecule, acceptor atom, score
      L1  H    10    35       P1  8029  1.00
      L1  H    13    39       P1  8029  1.00
      P1  H  6933  6944       L1     9  0.03

> <Gold.PLP.Chemscore.Internal.Correction>
0.1233

> <Gold.Rescore>
     Score         DG    S(hbond)    S(metal)    S(lipo)     H(rot)  DE(clash)    DE(int)     intcor
     20.99     -21.27       1.95        0.00     124.35       2.06       0.03       0.25       ----

> <Gold.Chemscore.Fitness>
20.9944

> <Gold.Chemscore.DG>
-21.2710

> <Gold.Chemscore.ZeroCoef>
-5.4800

> <Gold.Chemscore.Hbond>
1.9499

> <Gold.Chemscore.Metal>
0.0000

> <Gold.Chemscore.Lipo>
124.3478

> <Gold.Chemscore.Internal_Hbond>
0.0000

> <Gold.Chemscore.DEClash>
0.0295

> <Gold.Chemscore.DEInternal>
0.2470

> <Gold.Chemscore.Rot>
2.0588

> <Gold.Chemscore.Internal.Correction>
   9.000000E+99

> <Gold.Chemscore.Hbonds>
donor molecule, donor type, donor heavy atom, donor atom, acceptor molecule, acceptor atom, score
      L1  H    10    35       P1  8029  0.97
      L1  H    13    39       P1  8029  0.92
      P1  H  6933  6944       L1     9  0.02

> <Gold.Chemscore.Hbond.Weighted>
-6.5128

> <Gold.Chemscore.Metal.Weighted>
-0.0000

> <Gold.Chemscore.Lipo.Weighted>
-14.5487

> <Gold.Chemscore.Internal_Hbond.Weighted>
0.0000

> <Gold.Chemscore.DEClash.Weighted>
0.0295

> <Gold.Chemscore.DEInternal.Weighted>
0.2470

> <Gold.Chemscore.Rot.Weighted>
5.2705

> <Gold.Chemscore.Internal.Correction.Weighted>
   9.000000E+99

> <Gold.Protein.RotatedTorsions>
[ 6907 6896 6895 6894 ] final  -43.42 input  -60.11 | X-H torsion
[ 7974 7965 7964 7962 ] final  -24.52 input  175.53 | X-H torsion
[ 8008 7997 7996 7995 ] final -155.35 input   59.86 | X-H torsion
[ 10167 10162 10161 10158 ] final  177.18 input  -65.29 | X-H torsion
[ 10718 10713 10712 10709 ] final   -1.06 input   66.30 | X-H torsion
[ 10763 10752 10751 10750 ] final   20.46 input  -60.55 | X-H torsion
[ 11005 11000 10999 10996 ] final  162.14 input  -57.11 | X-H torsion

> <Gold.Protein.ActiveResidues>
 VAL166  LYS551  ARG553  GLY616  TRP617  ASP618  TYR619  PRO620  LYS621  CYS622 
 ASP623  PHE694  ASN695  SER759  ASP760  ASP761  ALA762  ILE779  LEU786  VAL792 
 PHE793  MET794  SER795  GLU796  ALA797  LYS798  CYS799  TRP800  GLU811  SER814 

> <Gold.Protein.RotatedAtoms>
  150.9441  134.8848  159.7630 H   0  0  0  0  0  0  0  0  0  0  0  0  # atno 6907 bound_to 6896
  152.5093  134.3899  159.9390 H   0  0  0  0  0  0  0  0  0  0  0  0  # atno 6908 bound_to 6896
  151.3918  133.3746  159.2757 H   0  0  0  0  0  0  0  0  0  0  0  0  # atno 6909 bound_to 6896
  146.1549  140.4762  142.8595 H   0  0  0  0  0  0  0  0  0  0  0  0  # atno 7974 bound_to 7965
  155.7005  140.0766  157.2412 H   0  0  0  0  0  0  0  0  0  0  0  0  # atno 8008 bound_to 7997
  154.4074  140.1648  156.2239 H   0  0  0  0  0  0  0  0  0  0  0  0  # atno 8009 bound_to 7997
  155.9372  140.3387  155.6300 H   0  0  0  0  0  0  0  0  0  0  0  0  # atno 8010 bound_to 7997
  139.5243  144.2829  152.0531 H   0  0  0  0  0  0  0  0  0  0  0  0  # atno 10167 bound_to 10162
  156.8112  130.5425  149.5708 H   0  0  0  0  0  0  0  0  0  0  0  0  # atno 10718 bound_to 10713
  153.1076  135.6688  153.9559 H   0  0  0  0  0  0  0  0  0  0  0  0  # atno 10763 bound_to 10752
  153.9112  135.3025  155.3450 H   0  0  0  0  0  0  0  0  0  0  0  0  # atno 10764 bound_to 10752
  154.7496  135.5041  153.9342 H   0  0  0  0  0  0  0  0  0  0  0  0  # atno 10765 bound_to 10752
  140.2227  134.8183  157.3237 H   0  0  0  0  0  0  0  0  0  0  0  0  # atno 11005 bound_to 11000
  144.7951  140.6107  143.6515 LP  0  0  0  0  0  0  0  0  0  0  0  0  # atno 17320 bound_to 7965
  145.4732  139.1501  143.3803 LP  0  0  0  0  0  0  0  0  0  0  0  0  # atno 17321 bound_to 7965
  140.2283  144.4395  150.6311 LP  0  0  0  0  0  0  0  0  0  0  0  0  # atno 17342 bound_to 10162
  140.6372  143.2197  151.6368 LP  0  0  0  0  0  0  0  0  0  0  0  0  # atno 17343 bound_to 10162
  156.1043  130.5993  150.9946 LP  0  0  0  0  0  0  0  0  0  0  0  0  # atno 17370 bound_to 10713
  157.6505  131.0897  150.8061 LP  0  0  0  0  0  0  0  0  0  0  0  0  # atno 17371 bound_to 10713
  140.1832  134.4463  155.7759 LP  0  0  0  0  0  0  0  0  0  0  0  0  # atno 17394 bound_to 11000
  141.2222  133.6993  156.7904 LP  0  0  0  0  0  0  0  0  0  0  0  0  # atno 17395 bound_to 11000

$$$$
