AV-unprocessed.smi:1816|AV-procd|sdf|7367|dock5
  -GOLD-   22720 9 33D 1   1.00000     0.00000
 Structure written by MMmdl.
 35 36  0  0  0  0  0  0  0  0  3 V2000
  151.6842  141.1739  158.0112 C   0  0  0  0  0  0  0  0  0  0  0  0
  150.9900  142.1085  156.9942 C   0  0  1  0  0  0  0  0  0  0  0  0
  149.6540  141.4970  156.5107 C   0  0  0  0  0  0  0  0  0  0  0  0
  149.1034  142.2270  155.3756 N   0  0  0  0  0  0  0  0  0  0  0  0
  148.0143  141.8690  154.6839 C   0  0  0  0  0  0  0  0  0  0  0  0
  147.3949  140.8504  154.9992 O   0  0  0  0  0  0  0  0  0  0  0  0
  147.7140  142.7129  153.6716 N   0  5  0  0  0  0  0  0  0  0  0  0
  146.6164  143.4836  153.7424 C   0  0  0  0  0  0  0  0  0  0  0  0
  145.8035  143.4992  154.8050 N   0  0  0  0  0  0  0  0  0  0  0  0
  144.7271  144.3776  154.6676 C   0  0  0  0  0  0  0  0  0  0  0  0
  144.7263  145.0541  153.4766 C   0  0  0  0  0  0  0  0  0  0  0  0
  146.0845  144.6041  152.4855 S   0  0  0  0  0  0  0  0  0  0  0  0
  150.7669  143.4650  157.5727 N   0  3  0  0  0  0  0  0  0  0  0  0
  149.9985  143.5079  158.8362 C   0  0  0  0  0  0  0  0  0  0  0  0
  150.3271  144.8622  159.4530 C   0  0  0  0  0  0  0  0  0  0  0  0
  151.7992  145.0485  159.1053 C   0  0  0  0  0  0  0  0  0  0  0  0
  151.9961  144.2681  157.7980 C   0  0  0  0  0  0  0  0  0  0  0  0
  151.8429  140.1767  157.6007 H   0  0  0  0  0  0  0  0  0  0  0  0
  151.0874  141.0640  158.9171 H   0  0  0  0  0  0  0  0  0  0  0  0
  152.6683  141.5414  158.3009 H   0  0  0  0  0  0  0  0  0  0  0  0
  151.6513  142.2183  156.1329 H   0  0  0  0  0  0  0  0  0  0  0  0
  149.8030  140.4531  156.2291 H   0  0  0  0  0  0  0  0  0  0  0  0
  148.9053  141.5077  157.3034 H   0  0  0  0  0  0  0  0  0  0  0  0
  149.5826  143.0675  155.0876 H   0  0  0  0  0  0  0  0  0  0  0  0
  144.0087  144.4593  155.4695 H   0  0  0  0  0  0  0  0  0  0  0  0
  144.0153  145.7856  153.1235 H   0  0  0  0  0  0  0  0  0  0  0  0
  148.9279  143.3858  158.6694 H   0  0  0  0  0  0  0  0  0  0  0  0
  150.3357  142.7100  159.5001 H   0  0  0  0  0  0  0  0  0  0  0  0
  149.7309  145.6418  158.9762 H   0  0  0  0  0  0  0  0  0  0  0  0
  150.1356  144.8989  160.5258 H   0  0  0  0  0  0  0  0  0  0  0  0
  152.0751  146.0993  159.0129 H   0  0  0  0  0  0  0  0  0  0  0  0
  152.4190  144.6114  159.8894 H   0  0  0  0  0  0  0  0  0  0  0  0
  152.8821  143.6368  157.8804 H   0  0  0  0  0  0  0  0  0  0  0  0
  152.1447  144.9405  156.9525 H   0  0  0  0  0  0  0  0  0  0  0  0
  150.2179  143.9821  156.9008 H   0  0  0  0  0  0  0  0  0  0  0  0
  1  2  1  0  0  0  0
  1 18  1  0  0  0  0
  1 19  1  0  0  0  0
  1 20  1  0  0  0  0
  2  3  1  0  0  0  0
  2 13  1  0  0  0  0
  2 21  1  0  0  0  0
  3  4  1  0  0  0  0
  3 22  1  0  0  0  0
  3 23  1  0  0  0  0
  4  5  1  0  0  0  0
  4 24  1  0  0  0  0
  5  6  2  0  0  0  0
  5  7  1  0  0  0  0
  7  8  1  0  0  0  0
  8 12  1  0  0  0  0
  8  9  2  0  0  0  0
  9 10  1  0  0  0  0
 10 11  2  0  0  0  0
 10 25  1  0  0  0  0
 11 12  1  0  0  0  0
 11 26  1  0  0  0  0
 13 17  1  0  0  0  0
 13 14  1  0  0  0  0
 13 35  1  0  0  0  0
 14 15  1  0  0  0  0
 14 27  1  0  0  0  0
 14 28  1  0  0  0  0
 15 16  1  0  0  0  0
 15 29  1  0  0  0  0
 15 30  1  0  0  0  0
 16 17  1  0  0  0  0
 16 31  1  0  0  0  0
 16 32  1  0  0  0  0
 17 33  1  0  0  0  0
 17 34  1  0  0  0  0
M  CHG  1   7  -1
M  CHG  1  13   1
M  END
> <s_m_source_file>
AV-unprocessed.smi

> <i_m_source_file_index>
1816

> <i_lp_mmshare_version>
43012

> <i_f3d_flags>
0

> <s_epik_input>
W0NIMl0xW0NIMl1bQ0gyXVtDSDJdTjFbQ0BIXShbQ0gzXSlbQ0gyXVtOSF1DKD1PKVtOSF1jMm5bY0hdW2NIXXMy

> <s_epik_cmdline>
J2VwaWtfcHl0aG9uJywgJy1waCcsICc3LjAnLCAnLXRuJywgJzgnLCAnLW1hJywgJzIwMCcsICctbWV0YWxfYmluZGluZycsICctaW1hZScsICc8aW5maWxlLm1hZT4nLCAnLW9tYWUnLCAnPG91dGZpbGUubWFlPic=

> <r_lp_tautomer_probability>
0.999

> <r_epik_Ionization_Penalty>
6.21769

> <r_epik_Ionization_Penalty_Charging>
5.38662

> <r_epik_Ionization_Penalty_Neutral>
0.831074

> <r_epik_State_Penalty>
5.38626

> <r_epik_Charging_Adjusted_Penalty>
10.7729

> <i_epik_Tot_Q>
0

> <i_epik_Tot_abs_Q>
2

> <r_epik_Metal_State_Penalty>
1.41347

> <b_epik_Metal_Only>
1

> <s_lp_Force_Field>
OPLS_2005

> <r_lp_Energy>
20.95

> <b_lp_Chiralities_Consistent>
1

> <s_lp_Variant>
AV-unprocessed.smi:1816-4

> <Gold.Version>
5.8.1

> <Gold.Id.Protein>
6NUR|6NUR_protein|mol2

> <Gold.PLP.Fitness>
42.9334

> <Gold.PLP.PLP>
-36.4990

> <Gold.PLP.part.hbond>
-2.0000

> <Gold.PLP.part.metal>
0.0000

> <Gold.PLP.part.buried>
-7.4018

> <Gold.PLP.part.nonpolar>
-28.2252

> <Gold.PLP.part.repulsive>
0.6040

> <Gold.PLP.ligand.clash>
0.0000

> <Gold.PLP.ligand.torsion>
0.7893

> <Gold.PLP.Chemscore.Hbond>
2.6560

> <Gold.PLP.Chemscore.CHOScore>
0.0000

> <Gold.PLP.Chemscore.Metal>
0.0000

> <Gold.Chemscore.Hbonds>
donor molecule, donor type, donor heavy atom, donor atom, acceptor molecule, acceptor atom, score
      L1  H     4    24       P1  8028  0.37
      L1  H    13    35       P1  8028  2.00

> <Gold.PLP.Chemscore.Internal.Correction>
0.0450

> <Gold.Rescore>
     Score         DG    S(hbond)    S(metal)    S(lipo)     H(rot)  DE(clash)    DE(int)     intcor
     15.74     -16.47       1.72        0.00      79.10       1.57       0.02       0.71       ----

> <Gold.Chemscore.Fitness>
15.7389

> <Gold.Chemscore.DG>
-16.4674

> <Gold.Chemscore.ZeroCoef>
-5.4800

> <Gold.Chemscore.Hbond>
1.7231

> <Gold.Chemscore.Metal>
0.0000

> <Gold.Chemscore.Lipo>
79.0957

> <Gold.Chemscore.Internal_Hbond>
0.0000

> <Gold.Chemscore.DEClash>
0.0195

> <Gold.Chemscore.DEInternal>
0.7090

> <Gold.Chemscore.Rot>
1.5710

> <Gold.Chemscore.Internal.Correction>
   9.000000E+99

> <Gold.Chemscore.Hbonds>
donor molecule, donor type, donor heavy atom, donor atom, acceptor molecule, acceptor atom, score
      L1  H     4    24       P1  8028  0.38
      L1  H    13    35       P1  8028  0.98

> <Gold.Chemscore.Hbond.Weighted>
-5.7551

> <Gold.Chemscore.Metal.Weighted>
-0.0000

> <Gold.Chemscore.Lipo.Weighted>
-9.2542

> <Gold.Chemscore.Internal_Hbond.Weighted>
0.0000

> <Gold.Chemscore.DEClash.Weighted>
0.0195

> <Gold.Chemscore.DEInternal.Weighted>
0.7090

> <Gold.Chemscore.Rot.Weighted>
4.0219

> <Gold.Chemscore.Internal.Correction.Weighted>
   9.000000E+99

> <Gold.Protein.RotatedTorsions>
[ 6907 6896 6895 6894 ] final  107.30 input  -60.11 | X-H torsion
[ 7974 7965 7964 7962 ] final   21.30 input  175.53 | X-H torsion
[ 8008 7997 7996 7995 ] final  -57.60 input   59.86 | X-H torsion
[ 10167 10162 10161 10158 ] final   43.71 input  -65.29 | X-H torsion
[ 10718 10713 10712 10709 ] final   -2.35 input   66.30 | X-H torsion
[ 10763 10752 10751 10750 ] final   18.66 input  -60.55 | X-H torsion
[ 11005 11000 10999 10996 ] final   22.63 input  -57.11 | X-H torsion

> <Gold.Protein.ActiveResidues>
 VAL166  LYS551  ARG553  GLY616  TRP617  ASP618  TYR619  PRO620  LYS621  CYS622 
 ASP623  PHE694  ASN695  SER759  ASP760  ASP761  ALA762  ILE779  LEU786  VAL792 
 PHE793  MET794  SER795  GLU796  ALA797  LYS798  CYS799  TRP800  GLU811  SER814 

> <Gold.Protein.RotatedAtoms>
  152.5160  133.9255  159.7554 H   0  0  0  0  0  0  0  0  0  0  0  0  # atno 6907 bound_to 6896
  150.9617  133.6430  159.2760 H   0  0  0  0  0  0  0  0  0  0  0  0  # atno 6908 bound_to 6896
  151.3672  135.0921  159.9506 H   0  0  0  0  0  0  0  0  0  0  0  0  # atno 6909 bound_to 6896
  146.2077  139.8047  142.8713 H   0  0  0  0  0  0  0  0  0  0  0  0  # atno 7974 bound_to 7965
  154.4275  140.1103  156.5824 H   0  0  0  0  0  0  0  0  0  0  0  0  # atno 8008 bound_to 7997
  155.6098  140.3494  155.4600 H   0  0  0  0  0  0  0  0  0  0  0  0  # atno 8009 bound_to 7997
  156.0108  140.1219  157.0445 H   0  0  0  0  0  0  0  0  0  0  0  0  # atno 8010 bound_to 7997
  140.3417  144.2462  150.6155 H   0  0  0  0  0  0  0  0  0  0  0  0  # atno 10167 bound_to 10162
  156.7921  130.5365  149.5734 H   0  0  0  0  0  0  0  0  0  0  0  0  # atno 10718 bound_to 10713
  153.1230  135.6723  153.9304 H   0  0  0  0  0  0  0  0  0  0  0  0  # atno 10763 bound_to 10752
  153.8813  135.3058  155.3446 H   0  0  0  0  0  0  0  0  0  0  0  0  # atno 10764 bound_to 10752
  154.7639  135.4974  153.9596 H   0  0  0  0  0  0  0  0  0  0  0  0  # atno 10765 bound_to 10752
  140.3785  134.1946  155.7664 H   0  0  0  0  0  0  0  0  0  0  0  0  # atno 11005 bound_to 11000
  145.3259  141.0255  143.3474 LP  0  0  0  0  0  0  0  0  0  0  0  0  # atno 17320 bound_to 7965
  144.8833  139.4873  143.6712 LP  0  0  0  0  0  0  0  0  0  0  0  0  # atno 17321 bound_to 7965
  140.5303  143.2245  151.8249 LP  0  0  0  0  0  0  0  0  0  0  0  0  # atno 17342 bound_to 10162
  139.4839  144.4729  151.9403 LP  0  0  0  0  0  0  0  0  0  0  0  0  # atno 17343 bound_to 10162
  156.1153  130.6070  151.0110 LP  0  0  0  0  0  0  0  0  0  0  0  0  # atno 17370 bound_to 10713
  157.6595  131.0883  150.7870 LP  0  0  0  0  0  0  0  0  0  0  0  0  # atno 17371 bound_to 10713
  141.1931  133.8158  157.0811 LP  0  0  0  0  0  0  0  0  0  0  0  0  # atno 17394 bound_to 11000
  140.0497  134.9812  157.1113 LP  0  0  0  0  0  0  0  0  0  0  0  0  # atno 17395 bound_to 11000

$$$$
