AV-unprocessed.smi:109|AV-procd|sdf|1040|dock10
  -GOLD-   2262018 73D 1   1.00000     0.00000
 Structure written by MMmdl.
 58 61  0  0  0  0  0  0  0  0  1 V2000
  149.8114  139.9071  154.4088 O   0  0  0  0  0  0  0  0  0  0  0  0
  149.1478  140.2448  155.6073 C   0  0  0  0  0  0  0  0  0  0  0  0
  149.8091  141.4785  156.2424 C   0  0  0  0  0  0  0  0  0  0  0  0
  150.5945  141.1451  157.5273 C   0  0  1  0  0  0  0  0  0  0  0  0
  151.6393  140.1619  157.2356 N   0  0  0  0  0  0  0  0  0  0  0  0
  151.5661  138.8791  157.6550 C   0  0  0  0  0  0  0  0  0  0  0  0
  151.7799  138.5391  158.9531 N   0  0  0  0  0  0  0  0  0  0  0  0
  151.6959  137.2608  159.3345 C   0  0  0  0  0  0  0  0  0  0  0  0
  151.4126  136.1856  158.5953 N   0  0  0  0  0  0  0  0  0  0  0  0
  151.1974  136.5241  157.2911 C   0  0  0  0  0  0  0  0  0  0  0  0
  151.2554  137.8360  156.7454 C   0  0  0  0  0  0  0  0  0  0  0  0
  150.9756  137.7920  155.3854 N   0  0  0  0  0  0  0  0  0  0  0  0
  150.7584  136.5257  155.1483 C   0  0  0  0  0  0  0  0  0  0  0  0
  150.8709  135.6941  156.2427 N   0  0  0  0  0  0  0  0  0  0  0  0
  150.6746  134.2161  156.3306 C   0  0  2  0  0  0  0  0  0  0  0  0
  150.4889  133.7353  155.0324 O   0  0  0  0  0  0  0  0  0  0  0  0
  149.2682  133.0084  154.9315 C   0  0  2  0  0  0  0  0  0  0  0  0
  148.6868  133.0963  153.5094 C   0  0  0  0  0  0  0  0  0  0  0  0
  148.1863  131.8379  153.1121 O   0  0  0  0  0  0  0  0  0  0  0  0
  148.3869  133.5882  156.0458 C   0  0  2  0  0  0  0  0  0  0  0  0
  147.7138  134.7606  155.6220 O   0  0  0  0  0  0  0  0  0  0  0  0
  149.3980  133.9190  157.1327 C   0  0  1  0  0  0  0  0  0  0  0  0
  149.5848  132.8197  158.0013 O   0  0  0  0  0  0  0  0  0  0  0  0
  151.1734  142.4101  158.2146 C   0  0  0  0  0  0  0  0  0  0  0  0
  152.2894  142.1093  159.2432 C   0  0  0  0  0  0  0  0  0  0  0  0
  152.8630  143.4002  159.8508 C   0  0  0  0  0  0  0  0  0  0  0  0
  151.7587  144.2628  160.4796 C   0  0  0  0  0  0  0  0  0  0  0  0
  150.6524  144.5737  159.4604 C   0  0  0  0  0  0  0  0  0  0  0  0
  150.0741  143.2835  158.8577 C   0  0  0  0  0  0  0  0  0  0  0  0
  151.5949  133.8394  156.7797 H   0  0  0  0  0  0  0  0  0  0  0  0
  149.4778  131.9673  155.1848 H   0  0  0  0  0  0  0  0  0  0  0  0
  147.6333  132.8742  156.3810 H   0  0  0  0  0  0  0  0  0  0  0  0
  149.0987  134.7755  157.7394 H   0  0  0  0  0  0  0  0  0  0  0  0
  149.1918  139.9637  153.6973 H   0  0  0  0  0  0  0  0  0  0  0  0
  148.0972  140.4392  155.3894 H   0  0  0  0  0  0  0  0  0  0  0  0
  149.1878  139.3896  156.2826 H   0  0  0  0  0  0  0  0  0  0  0  0
  150.4641  141.9552  155.5124 H   0  0  0  0  0  0  0  0  0  0  0  0
  149.0302  142.2058  156.4752 H   0  0  0  0  0  0  0  0  0  0  0  0
  149.8607  140.7234  158.2141 H   0  0  0  0  0  0  0  0  0  0  0  0
  152.4155  140.5080  156.6897 H   0  0  0  0  0  0  0  0  0  0  0  0
  151.8800  137.0737  160.3822 H   0  0  0  0  0  0  0  0  0  0  0  0
  150.5015  136.1656  154.1628 H   0  0  0  0  0  0  0  0  0  0  0  0
  147.8534  133.7988  153.4868 H   0  0  0  0  0  0  0  0  0  0  0  0
  149.4319  133.4495  152.7958 H   0  0  0  0  0  0  0  0  0  0  0  0
  148.4008  131.7020  152.2018 H   0  0  0  0  0  0  0  0  0  0  0  0
  148.0304  134.9952  154.7632 H   0  0  0  0  0  0  0  0  0  0  0  0
  149.0810  132.0904  157.6729 H   0  0  0  0  0  0  0  0  0  0  0  0
  151.6206  143.0165  157.4254 H   0  0  0  0  0  0  0  0  0  0  0  0
  151.9017  141.4791  160.0445 H   0  0  0  0  0  0  0  0  0  0  0  0
  153.0996  141.5504  158.7759 H   0  0  0  0  0  0  0  0  0  0  0  0
  153.6150  143.1544  160.6014 H   0  0  0  0  0  0  0  0  0  0  0  0
  153.3757  143.9716  159.0758 H   0  0  0  0  0  0  0  0  0  0  0  0
  151.3305  143.7415  161.3368 H   0  0  0  0  0  0  0  0  0  0  0  0
  152.1835  145.1915  160.8618 H   0  0  0  0  0  0  0  0  0  0  0  0
  149.8582  145.1479  159.9380 H   0  0  0  0  0  0  0  0  0  0  0  0
  151.0535  145.2026  158.6646 H   0  0  0  0  0  0  0  0  0  0  0  0
  149.3171  143.5377  158.1151 H   0  0  0  0  0  0  0  0  0  0  0  0
  149.5620  142.7250  159.6420 H   0  0  0  0  0  0  0  0  0  0  0  0
  1  2  1  0  0  0  0
  1 34  1  0  0  0  0
  2  3  1  0  0  0  0
  2 35  1  0  0  0  0
  2 36  1  0  0  0  0
  3  4  1  0  0  0  0
  3 37  1  0  0  0  0
  3 38  1  0  0  0  0
  4  5  1  0  0  0  0
  4 24  1  0  0  0  0
  4 39  1  0  0  0  0
  5  6  1  0  0  0  0
  5 40  1  0  0  0  0
  6 11  1  0  0  0  0
  6  7  2  0  0  0  0
  7  8  1  0  0  0  0
  8  9  2  0  0  0  0
  8 41  1  0  0  0  0
  9 10  1  0  0  0  0
 10 14  1  0  0  0  0
 10 11  2  0  0  0  0
 11 12  1  0  0  0  0
 12 13  2  0  0  0  0
 13 14  1  0  0  0  0
 13 42  1  0  0  0  0
 14 15  1  0  0  0  0
 15 30  1  0  0  0  0
 15 22  1  0  0  0  0
 15 16  1  0  0  0  0
 16 17  1  0  0  0  0
 17 31  1  0  0  0  0
 17 18  1  0  0  0  0
 17 20  1  0  0  0  0
 18 19  1  0  0  0  0
 18 43  1  0  0  0  0
 18 44  1  0  0  0  0
 19 45  1  0  0  0  0
 20 32  1  0  0  0  0
 20 21  1  0  0  0  0
 20 22  1  0  0  0  0
 21 46  1  0  0  0  0
 22 33  1  0  0  0  0
 22 23  1  0  0  0  0
 23 47  1  0  0  0  0
 24 29  1  0  0  0  0
 24 25  1  0  0  0  0
 24 48  1  0  0  0  0
 25 26  1  0  0  0  0
 25 49  1  0  0  0  0
 25 50  1  0  0  0  0
 26 27  1  0  0  0  0
 26 51  1  0  0  0  0
 26 52  1  0  0  0  0
 27 28  1  0  0  0  0
 27 53  1  0  0  0  0
 27 54  1  0  0  0  0
 28 29  1  0  0  0  0
 28 55  1  0  0  0  0
 28 56  1  0  0  0  0
 29 57  1  0  0  0  0
 29 58  1  0  0  0  0
M  END
> <s_m_source_file>
AV-unprocessed.smi

> <i_m_source_file_index>
109

> <i_lp_mmshare_version>
43012

> <i_f3d_flags>
0

> <s_epik_input>
W0NIMl0xW0NIMl1bQ0gyXVtDSDJdW0NIMl1bQ0hdMVtDQEhdKFtDSDJdW0NIMl1bT0hdKVtOSF1jKG5bY0hdbjIpYyhjMjMpbltjSF1uM1tDQEBIXTRPW0NASF0oW0NIMl1bT0hdKVtDQEBIXShbT0hdKVtDQEhdNFtPSF0=

> <s_epik_cmdline>
J2VwaWtfcHl0aG9uJywgJy1waCcsICc3LjAnLCAnLXRuJywgJzgnLCAnLW1hJywgJzIwMCcsICctbWV0YWxfYmluZGluZycsICctaW1hZScsICc8aW5maWxlLm1hZT4nLCAnLW9tYWUnLCAnPG91dGZpbGUubWFlPic=

> <r_lp_tautomer_probability>
1

> <r_epik_Ionization_Penalty>
0.000793976

> <r_epik_Ionization_Penalty_Charging>
0

> <r_epik_Ionization_Penalty_Neutral>
0.000793976

> <r_epik_State_Penalty>
-0

> <r_epik_Charging_Adjusted_Penalty>
0

> <i_epik_Tot_Q>
0

> <i_epik_Tot_abs_Q>
0

> <r_epik_Metal_State_Penalty>
-0

> <b_epik_Metal_Only>
0

> <s_epik_Chemistry_Notes>
This compound contains an acetal/aminal-like group ( X-CH(R)-Y where X, Y are N, S, or O) that may be acid/base labile, releasing an aldehyde.

> <s_lp_Force_Field>
OPLS_2005

> <r_lp_Energy>
47.8615

> <b_lp_Chiralities_Consistent>
1

> <s_lp_Variant>
AV-unprocessed.smi:109-10

> <Gold.Version>
5.8.1

> <Gold.Id.Protein>
6NUR|6NUR_protein|mol2

> <Gold.PLP.Fitness>
55.8686

> <Gold.PLP.PLP>
-43.3370

> <Gold.PLP.part.hbond>
-4.7800

> <Gold.PLP.part.metal>
0.0000

> <Gold.PLP.part.buried>
-1.9321

> <Gold.PLP.part.nonpolar>
-34.9479

> <Gold.PLP.part.repulsive>
0.2976

> <Gold.PLP.ligand.clash>
0.0000

> <Gold.PLP.ligand.torsion>
2.0987

> <Gold.PLP.Chemscore.Hbond>
4.5978

> <Gold.PLP.Chemscore.CHOScore>
0.9155

> <Gold.PLP.Chemscore.Metal>
0.0000

> <Gold.Chemscore.Hbonds>
donor molecule, donor type, donor heavy atom, donor atom, acceptor molecule, acceptor atom, score
      L1  H    19    45       P1 10747  0.65
      P1  H  6896  6907       L1    23  0.85
      P1  H  6896  6908       L1     9  0.35
      P1  H  7989  7998       L1     1  0.47
      L1  C    13    42       P1  7948  0.28
      L1  C    13    42       P1  7949  0.21

> <Gold.PLP.Chemscore.Internal.Correction>
0.1892

> <Gold.Rescore>
     Score         DG    S(hbond)    S(metal)    S(lipo)     H(rot)  DE(clash)    DE(int)     intcor
      8.56     -12.86       2.68        0.00     106.10       5.47       1.81       2.49       ----

> <Gold.Chemscore.Fitness>
8.5589

> <Gold.Chemscore.DG>
-12.8589

> <Gold.Chemscore.ZeroCoef>
-5.4800

> <Gold.Chemscore.Hbond>
2.6824

> <Gold.Chemscore.Metal>
0.0000

> <Gold.Chemscore.Lipo>
106.0960

> <Gold.Chemscore.Internal_Hbond>
0.0000

> <Gold.Chemscore.DEClash>
1.8105

> <Gold.Chemscore.DEInternal>
2.4895

> <Gold.Chemscore.Rot>
5.4662

> <Gold.Chemscore.Internal.Correction>
   9.000000E+99

> <Gold.Chemscore.Hbonds>
donor molecule, donor type, donor heavy atom, donor atom, acceptor molecule, acceptor atom, score
      L1  H    19    45       P1 10747  0.64
      P1  H  6896  6907       L1    23  0.14
      P1  H  6896  6908       L1     9  0.03
      P1  H  7989  7998       L1     1  0.14

> <Gold.Chemscore.Hbond.Weighted>
-8.9591

> <Gold.Chemscore.Metal.Weighted>
-0.0000

> <Gold.Chemscore.Lipo.Weighted>
-12.4132

> <Gold.Chemscore.Internal_Hbond.Weighted>
0.0000

> <Gold.Chemscore.DEClash.Weighted>
1.8105

> <Gold.Chemscore.DEInternal.Weighted>
2.4895

> <Gold.Chemscore.Rot.Weighted>
13.9935

> <Gold.Chemscore.Internal.Correction.Weighted>
   9.000000E+99

> <Gold.Protein.RotatedTorsions>
[ 6907 6896 6895 6894 ] final -126.25 input  -60.11 | X-H torsion
[ 7974 7965 7964 7962 ] final  -60.27 input  175.53 | X-H torsion
[ 8008 7997 7996 7995 ] final  107.67 input   59.86 | X-H torsion
[ 10167 10162 10161 10158 ] final -156.01 input  -65.29 | X-H torsion
[ 10718 10713 10712 10709 ] final   58.34 input   66.30 | X-H torsion
[ 10763 10752 10751 10750 ] final  149.89 input  -60.55 | X-H torsion
[ 11005 11000 10999 10996 ] final  -27.89 input  -57.11 | X-H torsion

> <Gold.Protein.ActiveResidues>
 VAL166  LYS551  ARG553  GLY616  TRP617  ASP618  TYR619  PRO620  LYS621  CYS622 
 ASP623  PHE694  ASN695  SER759  ASP760  ASP761  ALA762  ILE779  LEU786  VAL792 
 PHE793  MET794  SER795  GLU796  ALA797  LYS798  CYS799  TRP800  GLU811  SER814 

> <Gold.Protein.RotatedAtoms>
  150.8950  133.7193  159.2894 H   0  0  0  0  0  0  0  0  0  0  0  0  # atno 6907 bound_to 6896
  151.4730  135.1046  159.9766 H   0  0  0  0  0  0  0  0  0  0  0  0  # atno 6908 bound_to 6896
  152.4843  133.8285  159.7146 H   0  0  0  0  0  0  0  0  0  0  0  0  # atno 6909 bound_to 6896
  145.8175  140.8561  143.0150 H   0  0  0  0  0  0  0  0  0  0  0  0  # atno 7974 bound_to 7965
  156.1843  140.3090  155.9208 H   0  0  0  0  0  0  0  0  0  0  0  0  # atno 8008 bound_to 7997
  155.3316  140.0461  157.3060 H   0  0  0  0  0  0  0  0  0  0  0  0  # atno 8009 bound_to 7997
  154.5378  140.2251  155.8703 H   0  0  0  0  0  0  0  0  0  0  0  0  # atno 8010 bound_to 7997
  139.6885  143.9461  152.2373 H   0  0  0  0  0  0  0  0  0  0  0  0  # atno 10167 bound_to 10162
  157.5588  130.8820  149.9079 H   0  0  0  0  0  0  0  0  0  0  0  0  # atno 10718 bound_to 10713
  154.0785  135.2861  155.3295 H   0  0  0  0  0  0  0  0  0  0  0  0  # atno 10763 bound_to 10752
  154.6700  135.5303  153.8129 H   0  0  0  0  0  0  0  0  0  0  0  0  # atno 10764 bound_to 10752
  153.0458  135.6555  154.0961 H   0  0  0  0  0  0  0  0  0  0  0  0  # atno 10765 bound_to 10752
  140.9160  133.7430  156.0735 H   0  0  0  0  0  0  0  0  0  0  0  0  # atno 11005 bound_to 11000
  144.6751  140.0485  143.7479 LP  0  0  0  0  0  0  0  0  0  0  0  0  # atno 17320 bound_to 7965
  145.9711  139.2870  143.1098 LP  0  0  0  0  0  0  0  0  0  0  0  0  # atno 17321 bound_to 7965
  139.9270  144.6764  150.8402 LP  0  0  0  0  0  0  0  0  0  0  0  0  # atno 17342 bound_to 10162
  140.7675  143.3335  151.2360 LP  0  0  0  0  0  0  0  0  0  0  0  0  # atno 17343 bound_to 10162
  156.0644  130.3694  150.0911 LP  0  0  0  0  0  0  0  0  0  0  0  0  # atno 17370 bound_to 10713
  156.9077  130.9641  151.3567 LP  0  0  0  0  0  0  0  0  0  0  0  0  # atno 17371 bound_to 10713
  140.8049  134.3466  157.5429 LP  0  0  0  0  0  0  0  0  0  0  0  0  # atno 17394 bound_to 11000
  139.8766  134.9220  156.3289 LP  0  0  0  0  0  0  0  0  0  0  0  0  # atno 17395 bound_to 11000

$$$$
