AV-unprocessed.smi:1278|AV-procd|sdf|5354|dock4
  -GOLD-   22720 4493D 1   1.00000     0.00000
 Structure written by MMmdl.
 38 39  0  0  0  0  0  0  0  0  3 V2000
  145.6519  131.9354  150.4678 C   0  0  0  0  0  0  0  0  0  0  0  0
  145.9453  133.3845  150.8811 C   0  0  1  0  0  0  0  0  0  0  0  0
  144.7944  134.3247  150.4860 C   0  0  0  0  0  0  0  0  0  0  0  0
  145.1031  135.7586  150.9337 C   0  0  0  0  0  0  0  0  0  0  0  0
  145.4067  135.8112  152.4392 C   0  0  0  0  0  0  0  0  0  0  0  0
  146.5224  134.8962  152.7938 N   0  3  1  0  0  0  0  0  0  0  0  0
  146.9192  135.0233  154.2178 C   0  0  0  0  0  0  0  0  0  0  0  0
  148.1265  134.1334  154.5698 C   0  0  0  0  0  0  0  0  0  0  0  0
  149.3723  134.8895  154.5258 N   0  0  0  0  0  0  0  0  0  0  0  0
  150.2151  135.0700  155.5526 C   0  0  0  0  0  0  0  0  0  0  0  0
  149.9496  134.5897  156.6571 O   0  0  0  0  0  0  0  0  0  0  0  0
  151.3150  135.7870  155.2325 N   0  5  0  0  0  0  0  0  0  0  0  0
  151.2358  137.1229  155.1187 C   0  0  0  0  0  0  0  0  0  0  0  0
  150.4283  137.7355  154.2454 N   0  0  0  0  0  0  0  0  0  0  0  0
  150.5124  139.1284  154.2948 C   0  0  0  0  0  0  0  0  0  0  0  0
  151.4093  139.5864  155.2228 C   0  0  0  0  0  0  0  0  0  0  0  0
  152.1828  138.2743  156.0650 S   0  0  0  0  0  0  0  0  0  0  0  0
  146.2288  133.4938  152.3930 C   0  0  0  0  0  0  0  0  0  0  0  0
  144.7640  131.5506  150.9710 H   0  0  0  0  0  0  0  0  0  0  0  0
  146.4860  131.2789  150.7178 H   0  0  0  0  0  0  0  0  0  0  0  0
  145.4848  131.8595  149.3929 H   0  0  0  0  0  0  0  0  0  0  0  0
  146.8415  133.7028  150.3461 H   0  0  0  0  0  0  0  0  0  0  0  0
  144.6358  134.2988  149.4072 H   0  0  0  0  0  0  0  0  0  0  0  0
  143.8638  133.9894  150.9464 H   0  0  0  0  0  0  0  0  0  0  0  0
  145.9573  136.1421  150.3740 H   0  0  0  0  0  0  0  0  0  0  0  0
  144.2614  136.4114  150.7001 H   0  0  0  0  0  0  0  0  0  0  0  0
  145.6665  136.8346  152.7133 H   0  0  0  0  0  0  0  0  0  0  0  0
  144.5182  135.5438  153.0136 H   0  0  0  0  0  0  0  0  0  0  0  0
  147.1878  136.0612  154.4184 H   0  0  0  0  0  0  0  0  0  0  0  0
  146.0685  134.7987  154.8633 H   0  0  0  0  0  0  0  0  0  0  0  0
  148.0316  133.7268  155.5759 H   0  0  0  0  0  0  0  0  0  0  0  0
  148.1856  133.2791  153.8929 H   0  0  0  0  0  0  0  0  0  0  0  0
  149.6251  135.3067  153.6418 H   0  0  0  0  0  0  0  0  0  0  0  0
  149.8963  139.7168  153.6316 H   0  0  0  0  0  0  0  0  0  0  0  0
  151.6633  140.6085  155.4599 H   0  0  0  0  0  0  0  0  0  0  0  0
  145.3749  133.1255  152.9641 H   0  0  0  0  0  0  0  0  0  0  0  0
  147.0724  132.8509  152.6421 H   0  0  0  0  0  0  0  0  0  0  0  0
  147.3177  135.2009  152.2510 H   0  0  0  0  0  0  0  0  0  0  0  0
  1  2  1  0  0  0  0
  1 19  1  0  0  0  0
  1 20  1  0  0  0  0
  1 21  1  0  0  0  0
  2 18  1  0  0  0  0
  2  3  1  0  0  0  0
  2 22  1  0  0  0  0
  3  4  1  0  0  0  0
  3 23  1  0  0  0  0
  3 24  1  0  0  0  0
  4  5  1  0  0  0  0
  4 25  1  0  0  0  0
  4 26  1  0  0  0  0
  5  6  1  0  0  0  0
  5 27  1  0  0  0  0
  5 28  1  0  0  0  0
  6  7  1  0  0  0  0
  6 18  1  0  0  0  0
  6 38  1  0  0  0  0
  7  8  1  0  0  0  0
  7 29  1  0  0  0  0
  7 30  1  0  0  0  0
  8  9  1  0  0  0  0
  8 31  1  0  0  0  0
  8 32  1  0  0  0  0
  9 10  1  0  0  0  0
  9 33  1  0  0  0  0
 10 11  2  0  0  0  0
 10 12  1  0  0  0  0
 12 13  1  0  0  0  0
 13 17  1  0  0  0  0
 13 14  2  0  0  0  0
 14 15  1  0  0  0  0
 15 16  2  0  0  0  0
 15 34  1  0  0  0  0
 16 17  1  0  0  0  0
 16 35  1  0  0  0  0
 18 36  1  0  0  0  0
 18 37  1  0  0  0  0
M  CHG  1   6   1
M  CHG  1  12  -1
M  END
> <s_m_source_file>
AV-unprocessed.smi

> <i_m_source_file_index>
1278

> <i_lp_mmshare_version>
43012

> <i_f3d_flags>
0

> <s_epik_input>
W0NIM11bQ0BASF0xW0NIMl1bQ0gyXVtDSDJdTihbQ0gyXTEpW0NIMl1bQ0gyXVtOSF1DKD1PKVtOSF1jMm5bY0hdW2NIXXMy

> <s_epik_cmdline>
J2VwaWtfcHl0aG9uJywgJy1waCcsICc3LjAnLCAnLXRuJywgJzgnLCAnLW1hJywgJzIwMCcsICctbWV0YWxfYmluZGluZycsICctaW1hZScsICc8aW5maWxlLm1hZT4nLCAnLW9tYWUnLCAnPG91dGZpbGUubWFlPic=

> <r_lp_tautomer_probability>
0.999

> <r_epik_Ionization_Penalty>
6.22019

> <r_epik_Ionization_Penalty_Charging>
5.38911

> <r_epik_Ionization_Penalty_Neutral>
0.831074

> <r_epik_State_Penalty>
5.38904

> <r_epik_Charging_Adjusted_Penalty>
10.7782

> <i_epik_Tot_Q>
0

> <i_epik_Tot_abs_Q>
2

> <r_epik_Metal_State_Penalty>
1.41502

> <b_epik_Metal_Only>
1

> <s_lp_Force_Field>
OPLS_2005

> <r_lp_Energy>
5.28715

> <b_lp_Chiralities_Consistent>
1

> <s_lp_Variant>
AV-unprocessed.smi:1278-8

> <Gold.Version>
5.8.1

> <Gold.Id.Protein>
6NUR|6NUR_protein|mol2

> <Gold.PLP.Fitness>
43.7764

> <Gold.PLP.PLP>
-29.3799

> <Gold.PLP.part.hbond>
-3.0000

> <Gold.PLP.part.metal>
0.0000

> <Gold.PLP.part.buried>
-3.0351

> <Gold.PLP.part.nonpolar>
-24.6379

> <Gold.PLP.part.repulsive>
0.3821

> <Gold.PLP.ligand.clash>
0.0000

> <Gold.PLP.ligand.torsion>
1.5293

> <Gold.PLP.Chemscore.Hbond>
4.7936

> <Gold.PLP.Chemscore.CHOScore>
0.9957

> <Gold.PLP.Chemscore.Metal>
0.0000

> <Gold.Chemscore.Hbonds>
donor molecule, donor type, donor heavy atom, donor atom, acceptor molecule, acceptor atom, score
      L1  H     6    38       P1  7948  2.00
      L1  H     9    33       P1  7948  0.60
      P1  H 10752 10763       L1    12  2.00
      L1  C    15    34       P1  7957  1.00

> <Gold.PLP.Chemscore.Internal.Correction>
0.0873

> <Gold.Rescore>
     Score         DG    S(hbond)    S(metal)    S(lipo)     H(rot)  DE(clash)    DE(int)     intcor
     14.72     -16.32       2.30        0.00      61.19       1.57       0.00       1.60       ----

> <Gold.Chemscore.Fitness>
14.7173

> <Gold.Chemscore.DG>
-16.3208

> <Gold.Chemscore.ZeroCoef>
-5.4800

> <Gold.Chemscore.Hbond>
2.3038

> <Gold.Chemscore.Metal>
0.0000

> <Gold.Chemscore.Lipo>
61.1897

> <Gold.Chemscore.Internal_Hbond>
0.0000

> <Gold.Chemscore.DEClash>
0.0004

> <Gold.Chemscore.DEInternal>
1.6030

> <Gold.Chemscore.Rot>
1.5676

> <Gold.Chemscore.Internal.Correction>
   9.000000E+99

> <Gold.Chemscore.Hbonds>
donor molecule, donor type, donor heavy atom, donor atom, acceptor molecule, acceptor atom, score
      L1  H     6    38       P1  7948  0.98
      L1  H     9    33       P1  7948  0.06
      P1  H 10752 10763       L1    12  0.34

> <Gold.Chemscore.Hbond.Weighted>
-7.6946

> <Gold.Chemscore.Metal.Weighted>
-0.0000

> <Gold.Chemscore.Lipo.Weighted>
-7.1592

> <Gold.Chemscore.Internal_Hbond.Weighted>
0.0000

> <Gold.Chemscore.DEClash.Weighted>
0.0004

> <Gold.Chemscore.DEInternal.Weighted>
1.6030

> <Gold.Chemscore.Rot.Weighted>
4.0130

> <Gold.Chemscore.Internal.Correction.Weighted>
   9.000000E+99

> <Gold.Protein.RotatedTorsions>
[ 6907 6896 6895 6894 ] final   60.71 input  -60.11 | X-H torsion
[ 7974 7965 7964 7962 ] final -119.91 input  175.53 | X-H torsion
[ 8008 7997 7996 7995 ] final  -73.81 input   59.86 | X-H torsion
[ 10167 10162 10161 10158 ] final -135.36 input  -65.29 | X-H torsion
[ 10718 10713 10712 10709 ] final -154.47 input   66.30 | X-H torsion
[ 10763 10752 10751 10750 ] final   78.61 input  -60.55 | X-H torsion
[ 11005 11000 10999 10996 ] final  -18.67 input  -57.11 | X-H torsion

> <Gold.Protein.ActiveResidues>
 VAL166  LYS551  ARG553  GLY616  TRP617  ASP618  TYR619  PRO620  LYS621  CYS622 
 ASP623  PHE694  ASN695  SER759  ASP760  ASP761  ALA762  ILE779  LEU786  VAL792 
 PHE793  MET794  SER795  GLU796  ALA797  LYS798  CYS799  TRP800  GLU811  SER814 

> <Gold.Protein.RotatedAtoms>
  152.4027  134.6260  160.0062 H   0  0  0  0  0  0  0  0  0  0  0  0  # atno 6907 bound_to 6896
  151.6460  133.3318  159.3149 H   0  0  0  0  0  0  0  0  0  0  0  0  # atno 6908 bound_to 6896
  150.7925  134.7002  159.6590 H   0  0  0  0  0  0  0  0  0  0  0  0  # atno 6909 bound_to 6896
  145.0572  140.8263  143.4174 H   0  0  0  0  0  0  0  0  0  0  0  0  # atno 7974 bound_to 7965
  154.5278  140.0772  156.8290 H   0  0  0  0  0  0  0  0  0  0  0  0  # atno 8008 bound_to 7997
  155.3439  140.3409  155.4221 H   0  0  0  0  0  0  0  0  0  0  0  0  # atno 8009 bound_to 7997
  156.1750  140.1632  156.8366 H   0  0  0  0  0  0  0  0  0  0  0  0  # atno 8010 bound_to 7997
  139.8786  143.6867  152.2630 H   0  0  0  0  0  0  0  0  0  0  0  0  # atno 10167 bound_to 10162
  156.4997  130.8386  151.2604 H   0  0  0  0  0  0  0  0  0  0  0  0  # atno 10718 bound_to 10713
  153.0888  135.4870  154.8648 H   0  0  0  0  0  0  0  0  0  0  0  0  # atno 10763 bound_to 10752
  154.7243  135.3046  154.8999 H   0  0  0  0  0  0  0  0  0  0  0  0  # atno 10764 bound_to 10752
  153.9653  135.6807  153.4799 H   0  0  0  0  0  0  0  0  0  0  0  0  # atno 10765 bound_to 10752
  140.8291  133.8010  155.9739 H   0  0  0  0  0  0  0  0  0  0  0  0  # atno 11005 bound_to 11000
  145.1453  139.2547  143.5469 LP  0  0  0  0  0  0  0  0  0  0  0  0  # atno 17320 bound_to 7965
  146.3522  140.1142  142.8602 LP  0  0  0  0  0  0  0  0  0  0  0  0  # atno 17321 bound_to 7965
  139.7216  144.7601  151.0945 LP  0  0  0  0  0  0  0  0  0  0  0  0  # atno 17342 bound_to 10162
  140.7748  143.5200  150.9548 LP  0  0  0  0  0  0  0  0  0  0  0  0  # atno 17343 bound_to 10162
  157.7464  130.9986  150.2857 LP  0  0  0  0  0  0  0  0  0  0  0  0  # atno 17370 bound_to 10713
  156.3344  130.3805  149.7462 LP  0  0  0  0  0  0  0  0  0  0  0  0  # atno 17371 bound_to 10713
  140.9017  134.2370  157.5037 LP  0  0  0  0  0  0  0  0  0  0  0  0  # atno 17394 bound_to 11000
  139.8705  134.9710  156.4720 LP  0  0  0  0  0  0  0  0  0  0  0  0  # atno 17395 bound_to 11000

$$$$
