AV-unprocessed.smi:1308|AV-procd|sdf|5440|dock3
  -GOLD-   22720 5 03D 1   1.00000     0.00000
 Structure written by MMmdl.
 45 45  0  0  0  0  0  0  0  0  1 V2000
  151.7866  143.3585  157.6245 C   0  0  0  0  0  0  0  0  0  0  0  0
  151.5226  142.0909  156.8414 C   0  0  0  0  0  0  0  0  0  0  0  0
  150.3648  142.1372  156.0824 N   0  0  0  0  0  0  0  0  0  0  0  0
  150.0348  141.0196  155.3364 C   0  0  0  0  0  0  0  0  0  0  0  0
  148.7524  141.1522  154.5340 C   0  0  0  0  0  0  0  0  0  0  0  0
  150.8211  139.9133  155.3436 C   0  0  0  0  0  0  0  0  0  0  0  0
  150.4985  138.6599  154.5307 C   0  0  0  0  0  0  0  0  0  0  0  0
  150.3276  137.3620  155.3244 C   0  0  0  0  0  0  0  0  0  0  0  0
  150.6202  137.3138  156.5195 O   0  0  0  0  0  0  0  0  0  0  0  0
  149.8383  136.3182  154.6373 N   0  0  0  0  0  0  0  0  0  0  0  0
  149.5418  134.9937  155.1817 C   0  0  2  0  0  0  0  0  0  0  0  0
  150.7534  134.4900  155.9781 C   0  0  0  0  0  0  0  0  0  0  0  0
  149.1598  134.0210  154.0490 C   0  0  0  0  0  0  0  0  0  0  0  0
  149.1952  132.5381  154.4679 C   0  0  0  0  0  0  0  0  0  0  0  0
  148.3943  131.6009  153.5411 C   0  0  0  0  0  0  0  0  0  0  0  0
  146.9123  132.0000  153.4401 C   0  0  0  0  0  0  0  0  0  0  0  0
  148.5251  130.1418  154.0036 C   0  0  0  0  0  0  0  0  0  0  0  0
  152.0542  139.9282  156.1653 C   0  0  0  0  0  0  0  0  0  0  0  0
  152.8178  138.9640  156.1964 O   0  0  0  0  0  0  0  0  0  0  0  0
  152.3384  141.0833  156.9119 N   0  0  0  0  0  0  0  0  0  0  0  0
  149.7530  142.9398  156.0471 H   0  0  0  0  0  0  0  0  0  0  0  0
  152.7434  143.3028  158.1449 H   0  0  0  0  0  0  0  0  0  0  0  0
  151.0033  143.5160  158.3665 H   0  0  0  0  0  0  0  0  0  0  0  0
  151.8119  144.2204  156.9571 H   0  0  0  0  0  0  0  0  0  0  0  0
  148.9492  140.9934  153.4736 H   0  0  0  0  0  0  0  0  0  0  0  0
  148.3074  142.1416  154.6473 H   0  0  0  0  0  0  0  0  0  0  0  0
  148.0189  140.4163  154.8636 H   0  0  0  0  0  0  0  0  0  0  0  0
  151.2930  138.5008  153.8018 H   0  0  0  0  0  0  0  0  0  0  0  0
  149.6014  138.8228  153.9319 H   0  0  0  0  0  0  0  0  0  0  0  0
  149.6323  136.4588  153.6588 H   0  0  0  0  0  0  0  0  0  0  0  0
  148.6985  135.0489  155.8726 H   0  0  0  0  0  0  0  0  0  0  0  0
  150.5544  133.5123  156.4177 H   0  0  0  0  0  0  0  0  0  0  0  0
  150.9993  135.1720  156.7927 H   0  0  0  0  0  0  0  0  0  0  0  0
  151.6355  134.3961  155.3436 H   0  0  0  0  0  0  0  0  0  0  0  0
  148.1674  134.2781  153.6777 H   0  0  0  0  0  0  0  0  0  0  0  0
  149.8446  134.1679  153.2128 H   0  0  0  0  0  0  0  0  0  0  0  0
  150.2363  132.2124  154.4827 H   0  0  0  0  0  0  0  0  0  0  0  0
  148.8327  132.4291  155.4908 H   0  0  0  0  0  0  0  0  0  0  0  0
  148.8263  131.6620  152.5415 H   0  0  0  0  0  0  0  0  0  0  0  0
  146.4379  132.0145  154.4216 H   0  0  0  0  0  0  0  0  0  0  0  0
  146.3596  131.2981  152.8149 H   0  0  0  0  0  0  0  0  0  0  0  0
  146.7907  132.9871  152.9948 H   0  0  0  0  0  0  0  0  0  0  0  0
  148.1168  130.0060  155.0057 H   0  0  0  0  0  0  0  0  0  0  0  0
  149.5689  129.8266  154.0245 H   0  0  0  0  0  0  0  0  0  0  0  0
  147.9938  129.4659  153.3330 H   0  0  0  0  0  0  0  0  0  0  0  0
  1 22  1  0  0  0  0
  1 23  1  0  0  0  0
  1 24  1  0  0  0  0
  1  2  1  0  0  0  0
  2  3  1  0  0  0  0
  2 20  2  0  0  0  0
  3  4  1  0  0  0  0
  3 21  1  0  0  0  0
  4  6  2  0  0  0  0
  4  5  1  0  0  0  0
  5 25  1  0  0  0  0
  5 26  1  0  0  0  0
  5 27  1  0  0  0  0
  6 18  1  0  0  0  0
  6  7  1  0  0  0  0
  7  8  1  0  0  0  0
  7 28  1  0  0  0  0
  7 29  1  0  0  0  0
  8  9  2  0  0  0  0
  8 10  1  0  0  0  0
 10 11  1  0  0  0  0
 10 30  1  0  0  0  0
 11 12  1  0  0  0  0
 11 13  1  0  0  0  0
 11 31  1  0  0  0  0
 12 32  1  0  0  0  0
 12 33  1  0  0  0  0
 12 34  1  0  0  0  0
 13 14  1  0  0  0  0
 13 35  1  0  0  0  0
 13 36  1  0  0  0  0
 14 15  1  0  0  0  0
 14 37  1  0  0  0  0
 14 38  1  0  0  0  0
 15 16  1  0  0  0  0
 15 17  1  0  0  0  0
 15 39  1  0  0  0  0
 16 40  1  0  0  0  0
 16 41  1  0  0  0  0
 16 42  1  0  0  0  0
 17 43  1  0  0  0  0
 17 44  1  0  0  0  0
 17 45  1  0  0  0  0
 18 19  2  0  0  0  0
 18 20  1  0  0  0  0
M  END
> <s_m_source_file>
AV-unprocessed.smi

> <i_m_source_file_index>
1308

> <i_lp_mmshare_version>
43012

> <i_f3d_flags>
0

> <s_epik_input>
W0NIM11jMW5jKFtDSDNdKWMoYyg9TylbbkhdMSlbQ0gyXUMoPU8pW05IXVtDQEhdKFtDSDNdKVtDSDJdW0NIMl1bQ0hdKFtDSDNdKVtDSDNd

> <s_epik_cmdline>
J2VwaWtfcHl0aG9uJywgJy1waCcsICc3LjAnLCAnLXRuJywgJzgnLCAnLW1hJywgJzIwMCcsICctbWV0YWxfYmluZGluZycsICctaW1hZScsICc8aW5maWxlLm1hZT4nLCAnLW9tYWUnLCAnPG91dGZpbGUubWFlPic=

> <r_lp_tautomer_probability>
0.156392

> <r_epik_Ionization_Penalty>
0.0141156

> <r_epik_Ionization_Penalty_Charging>
0.0139937

> <r_epik_Ionization_Penalty_Neutral>
0.00012188

> <r_epik_State_Penalty>
1.52994

> <r_epik_Charging_Adjusted_Penalty>
1.54393

> <i_epik_Tot_Q>
0

> <i_epik_Tot_abs_Q>
0

> <r_epik_Metal_State_Penalty>
1.70663

> <b_epik_Metal_Only>
0

> <s_lp_Force_Field>
OPLS_2005

> <r_lp_Energy>
10.8122

> <b_lp_Chiralities_Consistent>
1

> <s_lp_Variant>
AV-unprocessed.smi:1308-3

> <Gold.Version>
5.8.1

> <Gold.Id.Protein>
6NUR|6NUR_protein|mol2

> <Gold.PLP.Fitness>
44.5338

> <Gold.PLP.PLP>
-36.2368

> <Gold.PLP.part.hbond>
-2.9934

> <Gold.PLP.part.metal>
0.0000

> <Gold.PLP.part.buried>
-1.3457

> <Gold.PLP.part.nonpolar>
-32.5400

> <Gold.PLP.part.repulsive>
0.1775

> <Gold.PLP.ligand.clash>
0.0000

> <Gold.PLP.ligand.torsion>
0.3795

> <Gold.PLP.Chemscore.Hbond>
3.0000

> <Gold.PLP.Chemscore.CHOScore>
0.0000

> <Gold.PLP.Chemscore.Metal>
0.0000

> <Gold.Chemscore.Hbonds>
donor molecule, donor type, donor heavy atom, donor atom, acceptor molecule, acceptor atom, score
      L1  H     3    21       P1  8028  1.00
      L1  H    10    30       P1  7948  1.00
      P1  H  7997  8010       L1    19  0.60

> <Gold.PLP.Chemscore.Internal.Correction>
0.0561

> <Gold.Rescore>
     Score         DG    S(hbond)    S(metal)    S(lipo)     H(rot)  DE(clash)    DE(int)     intcor
     14.09     -17.65       2.50        0.00      76.01       1.98       1.82       1.75       ----

> <Gold.Chemscore.Fitness>
14.0852

> <Gold.Chemscore.DG>
-17.6543

> <Gold.Chemscore.ZeroCoef>
-5.4800

> <Gold.Chemscore.Hbond>
2.5026

> <Gold.Chemscore.Metal>
0.0000

> <Gold.Chemscore.Lipo>
76.0123

> <Gold.Chemscore.Internal_Hbond>
0.0000

> <Gold.Chemscore.DEClash>
1.8179

> <Gold.Chemscore.DEInternal>
1.7512

> <Gold.Chemscore.Rot>
1.9835

> <Gold.Chemscore.Internal.Correction>
   9.000000E+99

> <Gold.Chemscore.Hbonds>
donor molecule, donor type, donor heavy atom, donor atom, acceptor molecule, acceptor atom, score
      L1  H     3    21       P1  8028  0.94
      L1  H    10    30       P1  7948  0.55
      P1  H  7997  8010       L1    19  0.04

> <Gold.Chemscore.Hbond.Weighted>
-8.3586

> <Gold.Chemscore.Metal.Weighted>
-0.0000

> <Gold.Chemscore.Lipo.Weighted>
-8.8934

> <Gold.Chemscore.Internal_Hbond.Weighted>
0.0000

> <Gold.Chemscore.DEClash.Weighted>
1.8179

> <Gold.Chemscore.DEInternal.Weighted>
1.7512

> <Gold.Chemscore.Rot.Weighted>
5.0778

> <Gold.Chemscore.Internal.Correction.Weighted>
   9.000000E+99

> <Gold.Protein.RotatedTorsions>
[ 6907 6896 6895 6894 ] final  -82.27 input  -60.11 | X-H torsion
[ 7974 7965 7964 7962 ] final  -97.86 input  175.53 | X-H torsion
[ 8008 7997 7996 7995 ] final   70.63 input   59.86 | X-H torsion
[ 10167 10162 10161 10158 ] final -122.47 input  -65.29 | X-H torsion
[ 10718 10713 10712 10709 ] final  -48.73 input   66.30 | X-H torsion
[ 10763 10752 10751 10750 ] final   14.41 input  -60.55 | X-H torsion
[ 11005 11000 10999 10996 ] final   28.16 input  -57.11 | X-H torsion

> <Gold.Protein.ActiveResidues>
 VAL166  LYS551  ARG553  GLY616  TRP617  ASP618  TYR619  PRO620  LYS621  CYS622 
 ASP623  PHE694  ASN695  SER759  ASP760  ASP761  ALA762  ILE779  LEU786  VAL792 
 PHE793  MET794  SER795  GLU796  ALA797  LYS798  CYS799  TRP800  GLU811  SER814 

> <Gold.Protein.RotatedAtoms>
  150.6900  134.3691  159.4983 H   0  0  0  0  0  0  0  0  0  0  0  0  # atno 6907 bound_to 6896
  152.1509  134.8986  160.0557 H   0  0  0  0  0  0  0  0  0  0  0  0  # atno 6908 bound_to 6896
  152.0084  133.3817  159.4247 H   0  0  0  0  0  0  0  0  0  0  0  0  # atno 6909 bound_to 6896
  145.3282  140.9436  143.2676 H   0  0  0  0  0  0  0  0  0  0  0  0  # atno 7974 bound_to 7965
  155.7418  140.3490  155.5108 H   0  0  0  0  0  0  0  0  0  0  0  0  # atno 8008 bound_to 7997
  155.9087  140.1046  157.1317 H   0  0  0  0  0  0  0  0  0  0  0  0  # atno 8009 bound_to 7997
  154.4053  140.1272  156.4516 H   0  0  0  0  0  0  0  0  0  0  0  0  # atno 8010 bound_to 7997
  140.0139  143.5413  152.2251 H   0  0  0  0  0  0  0  0  0  0  0  0  # atno 10167 bound_to 10162
  156.1960  130.4154  149.9305 H   0  0  0  0  0  0  0  0  0  0  0  0  # atno 10718 bound_to 10713
  153.1625  135.6798  153.8722 H   0  0  0  0  0  0  0  0  0  0  0  0  # atno 10763 bound_to 10752
  153.8113  135.3142  155.3402 H   0  0  0  0  0  0  0  0  0  0  0  0  # atno 10764 bound_to 10752
  154.7942  135.4817  154.0212 H   0  0  0  0  0  0  0  0  0  0  0  0  # atno 10765 bound_to 10752
  140.3186  134.2569  155.7721 H   0  0  0  0  0  0  0  0  0  0  0  0  # atno 11005 bound_to 11000
  144.8885  139.4807  143.6689 LP  0  0  0  0  0  0  0  0  0  0  0  0  # atno 17320 bound_to 7965
  146.3056  139.7568  142.9059 LP  0  0  0  0  0  0  0  0  0  0  0  0  # atno 17321 bound_to 7965
  139.6186  144.7624  151.2791 LP  0  0  0  0  0  0  0  0  0  0  0  0  # atno 17342 bound_to 10162
  140.7370  143.6691  150.8097 LP  0  0  0  0  0  0  0  0  0  0  0  0  # atno 17343 bound_to 10162
  156.7030  130.8940  151.3601 LP  0  0  0  0  0  0  0  0  0  0  0  0  # atno 17370 bound_to 10713
  157.6958  130.9280  150.0640 LP  0  0  0  0  0  0  0  0  0  0  0  0  # atno 17371 bound_to 10713
  141.2092  133.7756  157.0013 LP  0  0  0  0  0  0  0  0  0  0  0  0  # atno 17394 bound_to 11000
  140.0962  134.9563  157.1852 LP  0  0  0  0  0  0  0  0  0  0  0  0  # atno 17395 bound_to 11000

$$$$
