AV-unprocessed.smi:66|AV-procd|sdf|623|dock6
  -GOLD-   2262016513D 1   1.00000     0.00000
 Structure written by MMmdl.
 28 30  0  0  0  0  0  0  0  0  2 V2000
  153.2797  135.9910  159.4382 O   0  0  0  0  0  0  0  0  0  0  0  0
  153.3574  136.2927  158.2273 C   0  0  0  0  0  0  0  0  0  0  0  0
  154.2477  135.9015  157.4396 O   0  5  0  0  0  0  0  0  0  0  0  0
  152.2685  137.2246  157.6748 C   0  0  2  0  0  0  0  0  0  0  0  0
  151.4600  136.5759  156.5289 C   0  0  0  0  0  0  0  0  0  0  0  0
  151.4202  137.6464  155.4382 C   0  0  2  0  0  0  0  0  0  0  0  0
  151.3521  137.0941  154.1406 O   0  0  0  0  0  0  0  0  0  0  0  0
  152.7142  138.4165  155.6758 C   0  0  0  0  0  0  0  0  0  0  0  0
  152.8505  138.4550  157.1289 N   0  0  0  0  0  0  0  0  0  0  0  0
  152.6121  139.6516  157.8437 C   0  0  0  0  0  0  0  0  0  0  0  0
  153.0787  139.7905  159.1086 N   0  0  0  0  0  0  0  0  0  0  0  0
  152.8366  140.9374  159.7567 C   0  0  0  0  0  0  0  0  0  0  0  0
  152.1718  142.0240  159.3353 N   0  0  0  0  0  0  0  0  0  0  0  0
  151.6979  141.9061  158.0881 C   0  0  0  0  0  0  0  0  0  0  0  0
  150.9707  142.8661  157.3973 N   0  0  0  0  0  0  0  0  0  0  0  0
  150.7479  142.2577  156.2333 C   0  0  0  0  0  0  0  0  0  0  0  0
  151.2483  141.0188  156.1024 N   0  0  0  0  0  0  0  0  0  0  0  0
  151.8914  140.7348  157.2960 C   0  0  0  0  0  0  0  0  0  0  0  0
  151.1697  140.4340  155.2803 H   0  0  0  0  0  0  0  0  0  0  0  0
  151.5745  137.4733  158.4793 H   0  0  0  0  0  0  0  0  0  0  0  0
  151.9538  135.6774  156.1534 H   0  0  0  0  0  0  0  0  0  0  0  0
  150.4584  136.2840  156.8460 H   0  0  0  0  0  0  0  0  0  0  0  0
  150.5662  138.3061  155.5988 H   0  0  0  0  0  0  0  0  0  0  0  0
  151.4433  137.7966  153.5147 H   0  0  0  0  0  0  0  0  0  0  0  0
  153.5676  137.8629  155.2807 H   0  0  0  0  0  0  0  0  0  0  0  0
  152.7133  139.3840  155.1741 H   0  0  0  0  0  0  0  0  0  0  0  0
  153.2326  140.9957  160.7597 H   0  0  0  0  0  0  0  0  0  0  0  0
  150.1952  142.7349  155.4375 H   0  0  0  0  0  0  0  0  0  0  0  0
  1  2  2  0  0  0  0
  2  3  1  0  0  0  0
  2  4  1  0  0  0  0
  4  9  1  0  0  0  0
  4  5  1  0  0  0  0
  4 20  1  0  0  0  0
  5  6  1  0  0  0  0
  5 21  1  0  0  0  0
  5 22  1  0  0  0  0
  6  7  1  0  0  0  0
  6  8  1  0  0  0  0
  6 23  1  0  0  0  0
  7 24  1  0  0  0  0
  8  9  1  0  0  0  0
  8 25  1  0  0  0  0
  8 26  1  0  0  0  0
  9 10  1  0  0  0  0
 10 18  1  0  0  0  0
 10 11  2  0  0  0  0
 11 12  1  0  0  0  0
 12 13  2  0  0  0  0
 12 27  1  0  0  0  0
 13 14  1  0  0  0  0
 14 18  2  0  0  0  0
 14 15  1  0  0  0  0
 15 16  2  0  0  0  0
 16 17  1  0  0  0  0
 16 28  1  0  0  0  0
 17 19  1  0  0  0  0
 17 18  1  0  0  0  0
M  CHG  1   3  -1
M  END
> <s_m_source_file>
AV-unprocessed.smi

> <i_m_source_file_index>
66

> <i_lp_mmshare_version>
43012

> <i_f3d_flags>
0

> <s_epik_input>
Tz1DKFtPSF0pW0NAQEhdMVtDSDJdW0NAQEhdKFtPSF0pW0NIMl1OMWMobltjSF1uMiljKGMyMylbbkhdW2NIXW4z

> <s_epik_cmdline>
J2VwaWtfcHl0aG9uJywgJy1waCcsICc3LjAnLCAnLXRuJywgJzgnLCAnLW1hJywgJzIwMCcsICctbWV0YWxfYmluZGluZycsICctaW1hZScsICc8aW5maWxlLm1hZT4nLCAnLW9tYWUnLCAnPG91dGZpbGUubWFlPic=

> <r_lp_tautomer_probability>
0.0419193

> <r_epik_Ionization_Penalty>
0.0157405

> <r_epik_Ionization_Penalty_Charging>
0.000248217

> <r_epik_Ionization_Penalty_Neutral>
0.0154923

> <r_epik_State_Penalty>
1.99742

> <r_epik_Charging_Adjusted_Penalty>
1.99767

> <i_epik_Tot_Q>
-1

> <i_epik_Tot_abs_Q>
1

> <r_epik_Metal_State_Penalty>
2.31035

> <b_epik_Metal_Only>
0

> <s_lp_Force_Field>
OPLS_2005

> <r_lp_Energy>
22.103

> <b_lp_Chiralities_Consistent>
1

> <s_lp_Variant>
AV-unprocessed.smi:66-7

> <Gold.Version>
5.8.1

> <Gold.Id.Protein>
6NUR|6NUR_protein|mol2

> <Gold.PLP.Fitness>
39.6585

> <Gold.PLP.PLP>
-22.0463

> <Gold.PLP.part.hbond>
-4.7125

> <Gold.PLP.part.metal>
0.0000

> <Gold.PLP.part.buried>
-2.9444

> <Gold.PLP.part.nonpolar>
-14.6560

> <Gold.PLP.part.repulsive>
0.2468

> <Gold.PLP.ligand.clash>
0.0000

> <Gold.PLP.ligand.torsion>
0.2537

> <Gold.PLP.Chemscore.Hbond>
5.0000

> <Gold.PLP.Chemscore.CHOScore>
0.9650

> <Gold.PLP.Chemscore.Metal>
0.0000

> <Gold.Chemscore.Hbonds>
donor molecule, donor type, donor heavy atom, donor atom, acceptor molecule, acceptor atom, score
      P1  H  6896  6907       L1     1  2.00
      P1  H 10752 10763       L1     3  1.43
      P1  H 10752 10765       L1     7  0.71
      L1  C    16    28       P1  8028  0.92

> <Gold.PLP.Chemscore.Internal.Correction>
0.2244

> <Gold.Rescore>
     Score         DG    S(hbond)    S(metal)    S(lipo)     H(rot)  DE(clash)    DE(int)     intcor
      7.88      -9.33       2.08        0.00      27.78       2.48       0.09       1.35       ----

> <Gold.Chemscore.Fitness>
7.8797

> <Gold.Chemscore.DG>
-9.3265

> <Gold.Chemscore.ZeroCoef>
-5.4800

> <Gold.Chemscore.Hbond>
2.0764

> <Gold.Chemscore.Metal>
0.0000

> <Gold.Chemscore.Lipo>
27.7804

> <Gold.Chemscore.Internal_Hbond>
0.0000

> <Gold.Chemscore.DEClash>
0.0926

> <Gold.Chemscore.DEInternal>
1.3542

> <Gold.Chemscore.Rot>
2.4762

> <Gold.Chemscore.Internal.Correction>
   9.000000E+99

> <Gold.Chemscore.Hbonds>
donor molecule, donor type, donor heavy atom, donor atom, acceptor molecule, acceptor atom, score
      P1  H  6896  6907       L1     1  0.94
      P1  H 10752 10763       L1     3  0.71
      P1  H 10752 10765       L1     7  0.22

> <Gold.Chemscore.Hbond.Weighted>
-6.9352

> <Gold.Chemscore.Metal.Weighted>
-0.0000

> <Gold.Chemscore.Lipo.Weighted>
-3.2503

> <Gold.Chemscore.Internal_Hbond.Weighted>
0.0000

> <Gold.Chemscore.DEClash.Weighted>
0.0926

> <Gold.Chemscore.DEInternal.Weighted>
1.3542

> <Gold.Chemscore.Rot.Weighted>
6.3391

> <Gold.Chemscore.Internal.Correction.Weighted>
   9.000000E+99

> <Gold.Protein.RotatedTorsions>
[ 6907 6896 6895 6894 ] final   54.39 input  -60.11 | X-H torsion
[ 7974 7965 7964 7962 ] final   41.98 input  175.53 | X-H torsion
[ 8008 7997 7996 7995 ] final   70.77 input   59.86 | X-H torsion
[ 10167 10162 10161 10158 ] final -121.91 input  -65.29 | X-H torsion
[ 10718 10713 10712 10709 ] final  127.16 input   66.30 | X-H torsion
[ 10763 10752 10751 10750 ] final  153.96 input  -60.55 | X-H torsion
[ 11005 11000 10999 10996 ] final -141.97 input  -57.11 | X-H torsion

> <Gold.Protein.ActiveResidues>
 VAL166  LYS551  ARG553  GLY616  TRP617  ASP618  TYR619  PRO620  LYS621  CYS622 
 ASP623  PHE694  ASN695  SER759  ASP760  ASP761  ALA762  ILE779  LEU786  VAL792 
 PHE793  MET794  SER795  GLU796  ALA797  LYS798  CYS799  TRP800  GLU811  SER814 

> <Gold.Protein.RotatedAtoms>
  152.3433  134.7105  160.0257 H   0  0  0  0  0  0  0  0  0  0  0  0  # atno 6907 bound_to 6896
  151.7482  133.3320  159.3392 H   0  0  0  0  0  0  0  0  0  0  0  0  # atno 6908 bound_to 6896
  150.7493  134.6149  159.6150 H   0  0  0  0  0  0  0  0  0  0  0  0  # atno 6909 bound_to 6896
  146.0779  139.5353  142.9556 H   0  0  0  0  0  0  0  0  0  0  0  0  # atno 7974 bound_to 7965
  155.7438  140.3490  155.5117 H   0  0  0  0  0  0  0  0  0  0  0  0  # atno 8008 bound_to 7997
  155.9069  140.1043  157.1330 H   0  0  0  0  0  0  0  0  0  0  0  0  # atno 8009 bound_to 7997
  154.4051  140.1275  156.4494 H   0  0  0  0  0  0  0  0  0  0  0  0  # atno 8010 bound_to 7997
  140.0200  143.5354  152.2225 H   0  0  0  0  0  0  0  0  0  0  0  0  # atno 10167 bound_to 10162
  157.5356  131.1097  150.8940 H   0  0  0  0  0  0  0  0  0  0  0  0  # atno 10718 bound_to 10713
  154.1447  135.2818  155.3151 H   0  0  0  0  0  0  0  0  0  0  0  0  # atno 10763 bound_to 10752
  154.6261  135.5451  153.7632 H   0  0  0  0  0  0  0  0  0  0  0  0  # atno 10764 bound_to 10752
  153.0239  135.6451  154.1593 H   0  0  0  0  0  0  0  0  0  0  0  0  # atno 10765 bound_to 10752
  140.8271  134.2561  157.4874 H   0  0  0  0  0  0  0  0  0  0  0  0  # atno 11005 bound_to 11000
  145.6273  141.0311  143.1882 LP  0  0  0  0  0  0  0  0  0  0  0  0  # atno 17320 bound_to 7965
  144.7273  139.7834  143.7360 LP  0  0  0  0  0  0  0  0  0  0  0  0  # atno 17321 bound_to 7965
  139.6146  144.7616  151.2874 LP  0  0  0  0  0  0  0  0  0  0  0  0  # atno 17342 bound_to 10162
  140.7346  143.6760  150.8041 LP  0  0  0  0  0  0  0  0  0  0  0  0  # atno 17343 bound_to 10162
  156.9508  130.5419  149.5282 LP  0  0  0  0  0  0  0  0  0  0  0  0  # atno 17370 bound_to 10713
  156.0456  130.5533  150.8873 LP  0  0  0  0  0  0  0  0  0  0  0  0  # atno 17371 bound_to 10713
  139.8706  134.9566  156.4244 LP  0  0  0  0  0  0  0  0  0  0  0  0  # atno 17394 bound_to 11000
  140.9037  133.7761  155.9710 LP  0  0  0  0  0  0  0  0  0  0  0  0  # atno 17395 bound_to 11000

$$$$
