AV-unprocessed.smi:3301|AV-procd|sdf|12655|dock1
  -GOLD-   2272018593D 1   1.00000     0.00000
 Structure written by MMmdl.
 36 37  0  0  0  0  0  0  0  0  1 V2000
  147.3070  141.7087  156.4748 C   0  0  0  0  0  0  0  0  0  0  0  0
  148.7379  141.2168  156.1993 C   0  0  1  0  0  0  0  0  0  0  0  0
  148.9602  140.7640  154.7427 C   0  0  0  0  0  0  0  0  0  0  0  0
  150.0526  139.8192  154.6076 N   0  0  0  0  0  0  0  0  0  0  0  0
  150.0556  138.6465  153.8641 C   0  0  0  0  0  0  0  0  0  0  0  0
  151.2957  138.0745  154.0373 C   0  0  0  0  0  0  0  0  0  0  0  0
  152.0662  138.8718  154.8808 N   0  0  0  0  0  0  0  0  0  0  0  0
  151.2630  139.8845  155.1798 C   0  0  0  0  0  0  0  0  0  0  0  0
  149.6876  142.2801  156.5184 N   0  0  0  0  0  0  0  0  0  0  0  0
  150.8350  142.1366  157.1994 C   0  0  0  0  0  0  0  0  0  0  0  0
  151.2166  141.0640  157.6700 O   0  0  0  0  0  0  0  0  0  0  0  0
  151.6617  143.4156  157.3874 C   0  0  0  0  0  0  0  0  0  0  0  0
  151.9045  143.7456  158.7925 N   0  0  0  0  0  0  0  0  0  0  0  0
  151.4201  144.9952  159.3558 C   0  0  0  0  0  0  0  0  0  0  0  0
  152.0233  145.0588  160.7663 C   0  0  0  0  0  0  0  0  0  0  0  0
  152.5669  143.6549  161.0530 C   0  0  0  0  0  0  0  0  0  0  0  0
  152.5335  142.9797  159.6927 C   0  0  0  0  0  0  0  0  0  0  0  0
  153.0273  141.8724  159.4842 O   0  0  0  0  0  0  0  0  0  0  0  0
  146.5754  140.9153  156.3207 H   0  0  0  0  0  0  0  0  0  0  0  0
  147.0402  142.5401  155.8216 H   0  0  0  0  0  0  0  0  0  0  0  0
  147.2019  142.0478  157.5060 H   0  0  0  0  0  0  0  0  0  0  0  0
  148.9149  140.3550  156.8450 H   0  0  0  0  0  0  0  0  0  0  0  0
  148.0536  140.3064  154.3437 H   0  0  0  0  0  0  0  0  0  0  0  0
  149.1794  141.6253  154.1101 H   0  0  0  0  0  0  0  0  0  0  0  0
  149.1991  138.3260  153.2893 H   0  0  0  0  0  0  0  0  0  0  0  0
  151.6889  137.1571  153.6246 H   0  0  0  0  0  0  0  0  0  0  0  0
  151.5638  140.6947  155.8280 H   0  0  0  0  0  0  0  0  0  0  0  0
  149.4583  143.2037  156.1808 H   0  0  0  0  0  0  0  0  0  0  0  0
  152.6184  143.3114  156.8724 H   0  0  0  0  0  0  0  0  0  0  0  0
  151.1383  144.2405  156.9029 H   0  0  0  0  0  0  0  0  0  0  0  0
  151.7227  145.8501  158.7500 H   0  0  0  0  0  0  0  0  0  0  0  0
  150.3302  144.9723  159.3961 H   0  0  0  0  0  0  0  0  0  0  0  0
  152.8378  145.7838  160.7929 H   0  0  0  0  0  0  0  0  0  0  0  0
  151.2849  145.3687  161.5064 H   0  0  0  0  0  0  0  0  0  0  0  0
  153.5774  143.6789  161.4622 H   0  0  0  0  0  0  0  0  0  0  0  0
  151.9210  143.1111  161.7429 H   0  0  0  0  0  0  0  0  0  0  0  0
  1  2  1  0  0  0  0
  1 19  1  0  0  0  0
  1 20  1  0  0  0  0
  1 21  1  0  0  0  0
  2  3  1  0  0  0  0
  2  9  1  0  0  0  0
  2 22  1  0  0  0  0
  3  4  1  0  0  0  0
  3 23  1  0  0  0  0
  3 24  1  0  0  0  0
  4  8  1  0  0  0  0
  4  5  1  0  0  0  0
  5  6  2  0  0  0  0
  5 25  1  0  0  0  0
  6  7  1  0  0  0  0
  6 26  1  0  0  0  0
  7  8  2  0  0  0  0
  8 27  1  0  0  0  0
  9 10  1  0  0  0  0
  9 28  1  0  0  0  0
 10 11  2  0  0  0  0
 10 12  1  0  0  0  0
 12 13  1  0  0  0  0
 12 29  1  0  0  0  0
 12 30  1  0  0  0  0
 13 17  1  0  0  0  0
 13 14  1  0  0  0  0
 14 15  1  0  0  0  0
 14 31  1  0  0  0  0
 14 32  1  0  0  0  0
 15 16  1  0  0  0  0
 15 33  1  0  0  0  0
 15 34  1  0  0  0  0
 16 17  1  0  0  0  0
 16 35  1  0  0  0  0
 16 36  1  0  0  0  0
 17 18  2  0  0  0  0
M  END
> <s_m_source_file>
AV-unprocessed.smi

> <i_m_source_file_index>
3301

> <i_lp_mmshare_version>
43012

> <i_f3d_flags>
0

> <s_epik_input>
W2NIXTFuW2NIXVtjSF1uMVtDSDJdW0NAQEhdKFtDSDNdKVtOSF1DKD1PKVtDSDJdTjJbQ0gyXVtDSDJdW0NIMl1DMj1P

> <s_epik_cmdline>
J2VwaWtfcHl0aG9uJywgJy1waCcsICc3LjAnLCAnLXRuJywgJzgnLCAnLW1hJywgJzIwMCcsICctbWV0YWxfYmluZGluZycsICctaW1hZScsICc8aW5maWxlLm1hZT4nLCAnLW9tYWUnLCAnPG91dGZpbGUubWFlPic=

> <r_lp_tautomer_probability>
1

> <r_epik_Ionization_Penalty>
0.623868

> <r_epik_Ionization_Penalty_Charging>
0.623868

> <r_epik_Ionization_Penalty_Neutral>
4.45089e-08

> <r_epik_State_Penalty>
0.640129

> <r_epik_Charging_Adjusted_Penalty>
1.264

> <i_epik_Tot_Q>
0

> <i_epik_Tot_abs_Q>
0

> <r_epik_Metal_State_Penalty>
0.307431

> <b_epik_Metal_Only>
0

> <s_lp_Force_Field>
OPLS_2005

> <r_lp_Energy>
14.8621

> <b_lp_Chiralities_Consistent>
1

> <s_lp_Variant>
AV-unprocessed.smi:3301-4

> <Gold.Version>
5.8.1

> <Gold.Id.Protein>
6NUR|6NUR_protein|mol2

> <Gold.PLP.Fitness>
48.4563

> <Gold.PLP.PLP>
-40.5874

> <Gold.PLP.part.hbond>
-1.0000

> <Gold.PLP.part.metal>
0.0000

> <Gold.PLP.part.buried>
-2.5930

> <Gold.PLP.part.nonpolar>
-36.0364

> <Gold.PLP.part.repulsive>
0.0963

> <Gold.PLP.ligand.clash>
0.0000

> <Gold.PLP.ligand.torsion>
0.6802

> <Gold.PLP.Chemscore.Hbond>
1.0000

> <Gold.PLP.Chemscore.CHOScore>
2.0409

> <Gold.PLP.Chemscore.Metal>
0.0000

> <Gold.Chemscore.Hbonds>
donor molecule, donor type, donor heavy atom, donor atom, acceptor molecule, acceptor atom, score
      L1  H     9    28       P1  8028  1.00
      L1  C     5    25       P1  7948  0.95
      L1  C     5    25       P1  7957  0.15
      L1  C     6    26       P1  7949  1.00

> <Gold.PLP.Chemscore.Internal.Correction>
0.1067

> <Gold.Rescore>
     Score         DG    S(hbond)    S(metal)    S(lipo)     H(rot)  DE(clash)    DE(int)     intcor
      8.59     -11.93       1.00        0.00      76.11       2.26       0.24       3.09       ----

> <Gold.Chemscore.Fitness>
8.5883

> <Gold.Chemscore.DG>
-11.9267

> <Gold.Chemscore.ZeroCoef>
-5.4800

> <Gold.Chemscore.Hbond>
0.9999

> <Gold.Chemscore.Metal>
0.0000

> <Gold.Chemscore.Lipo>
76.1067

> <Gold.Chemscore.Internal_Hbond>
0.0000

> <Gold.Chemscore.DEClash>
0.2436

> <Gold.Chemscore.DEInternal>
3.0948

> <Gold.Chemscore.Rot>
2.2647

> <Gold.Chemscore.Internal.Correction>
   9.000000E+99

> <Gold.Chemscore.Hbonds>
donor molecule, donor type, donor heavy atom, donor atom, acceptor molecule, acceptor atom, score
      L1  H     9    28       P1  8028  1.00

> <Gold.Chemscore.Hbond.Weighted>
-3.3397

> <Gold.Chemscore.Metal.Weighted>
-0.0000

> <Gold.Chemscore.Lipo.Weighted>
-8.9045

> <Gold.Chemscore.Internal_Hbond.Weighted>
0.0000

> <Gold.Chemscore.DEClash.Weighted>
0.2436

> <Gold.Chemscore.DEInternal.Weighted>
3.0948

> <Gold.Chemscore.Rot.Weighted>
5.7975

> <Gold.Chemscore.Internal.Correction.Weighted>
   9.000000E+99

> <Gold.Protein.RotatedTorsions>
[ 6907 6896 6895 6894 ] final  103.30 input  -60.11 | X-H torsion
[ 7974 7965 7964 7962 ] final -134.38 input  175.53 | X-H torsion
[ 8008 7997 7996 7995 ] final   65.54 input   59.86 | X-H torsion
[ 10167 10162 10161 10158 ] final  -79.22 input  -65.29 | X-H torsion
[ 10718 10713 10712 10709 ] final   33.18 input   66.30 | X-H torsion
[ 10763 10752 10751 10750 ] final -133.49 input  -60.55 | X-H torsion
[ 11005 11000 10999 10996 ] final -155.05 input  -57.11 | X-H torsion

> <Gold.Protein.ActiveResidues>
 VAL166  LYS551  ARG553  GLY616  TRP617  ASP618  TYR619  PRO620  LYS621  CYS622 
 ASP623  PHE694  ASN695  SER759  ASP760  ASP761  ALA762  ILE779  LEU786  VAL792 
 PHE793  MET794  SER795  GLU796  ALA797  LYS798  CYS799  TRP800  GLU811  SER814 

> <Gold.Protein.RotatedAtoms>
  152.5299  133.9847  159.7822 H   0  0  0  0  0  0  0  0  0  0  0  0  # atno 6907 bound_to 6896
  151.0094  133.5972  159.2691 H   0  0  0  0  0  0  0  0  0  0  0  0  # atno 6908 bound_to 6896
  151.3052  135.0786  159.9306 H   0  0  0  0  0  0  0  0  0  0  0  0  # atno 6909 bound_to 6896
  144.9108  140.6892  143.5026 H   0  0  0  0  0  0  0  0  0  0  0  0  # atno 7974 bound_to 7965
  155.6634  140.3497  155.4791 H   0  0  0  0  0  0  0  0  0  0  0  0  # atno 8008 bound_to 7997
  155.9749  140.1163  157.0802 H   0  0  0  0  0  0  0  0  0  0  0  0  # atno 8009 bound_to 7997
  154.4176  140.1149  156.5343 H   0  0  0  0  0  0  0  0  0  0  0  0  # atno 8010 bound_to 7997
  140.4612  143.2453  151.8345 H   0  0  0  0  0  0  0  0  0  0  0  0  # atno 10167 bound_to 10162
  157.2946  130.7320  149.6631 H   0  0  0  0  0  0  0  0  0  0  0  0  # atno 10718 bound_to 10713
  154.8732  135.3764  154.4581 H   0  0  0  0  0  0  0  0  0  0  0  0  # atno 10763 bound_to 10752
  153.5251  135.7028  153.5716 H   0  0  0  0  0  0  0  0  0  0  0  0  # atno 10764 bound_to 10752
  153.3946  135.3963  155.1912 H   0  0  0  0  0  0  0  0  0  0  0  0  # atno 10765 bound_to 10752
  140.6907  134.4045  157.5219 H   0  0  0  0  0  0  0  0  0  0  0  0  # atno 11005 bound_to 11000
  145.3458  139.1719  143.4461 LP  0  0  0  0  0  0  0  0  0  0  0  0  # atno 17320 bound_to 7965
  146.3157  140.3504  142.8655 LP  0  0  0  0  0  0  0  0  0  0  0  0  # atno 17321 bound_to 7965
  139.4806  144.5005  151.9067 LP  0  0  0  0  0  0  0  0  0  0  0  0  # atno 17342 bound_to 10162
  140.4091  144.2393  150.5889 LP  0  0  0  0  0  0  0  0  0  0  0  0  # atno 17343 bound_to 10162
  155.9668  130.4298  150.4850 LP  0  0  0  0  0  0  0  0  0  0  0  0  # atno 17370 bound_to 10713
  157.2819  131.0608  151.2192 LP  0  0  0  0  0  0  0  0  0  0  0  0  # atno 17371 bound_to 10713
  139.8924  134.8755  156.2271 LP  0  0  0  0  0  0  0  0  0  0  0  0  # atno 17394 bound_to 11000
  141.0244  133.7023  156.1322 LP  0  0  0  0  0  0  0  0  0  0  0  0  # atno 17395 bound_to 11000

$$$$
