AV-unprocessed.smi:1829|AV-procd|sdf|7428|dock9
  -GOLD-   22720 9113D 1   1.00000     0.00000
 Structure written by MMmdl.
 45 47  0  0  0  0  0  0  0  0  1 V2000
  152.5833  142.0656  160.2618 C   0  0  0  0  0  0  0  0  0  0  0  0
  152.5362  142.8037  158.9145 C   0  0  0  0  0  0  0  0  0  0  0  0
  151.9268  144.2069  159.0576 C   0  0  0  0  0  0  0  0  0  0  0  0
  151.8147  141.9893  157.8477 C   0  0  0  0  0  0  0  0  0  0  0  0
  152.2328  140.6724  157.5604 C   0  0  0  0  0  0  0  0  0  0  0  0
  151.5776  139.9184  156.5677 C   0  0  0  0  0  0  0  0  0  0  0  0
  150.4969  140.4710  155.8491 C   0  0  0  0  0  0  0  0  0  0  0  0
  149.7953  139.6424  154.7839 C   0  0  2  0  0  0  0  0  0  0  0  0
  150.6407  139.3404  153.6902 O   0  0  0  0  0  0  0  0  0  0  0  0
  148.5144  140.3437  154.2880 C   0  0  0  0  0  0  0  0  0  0  0  0
  147.3245  139.5130  154.4195 N   0  0  0  0  0  0  0  0  0  0  0  0
  146.5384  139.0127  153.4330 C   0  0  0  0  0  0  0  0  0  0  0  0
  146.8159  139.2637  151.9822 C   0  0  0  0  0  0  0  0  0  0  0  0
  146.9664  138.0715  151.2421 O   0  0  0  0  0  0  0  0  0  0  0  0
  145.5030  138.2743  153.8343 N   0  0  0  0  0  0  0  0  0  0  0  0
  145.6303  138.2945  155.2095 C   0  0  0  0  0  0  0  0  0  0  0  0
  144.8381  137.6931  156.2137 C   0  0  0  0  0  0  0  0  0  0  0  0
  145.1671  137.8555  157.5754 C   0  0  0  0  0  0  0  0  0  0  0  0
  146.2904  138.6197  157.9523 C   0  0  0  0  0  0  0  0  0  0  0  0
  147.0936  139.2266  156.9675 C   0  0  0  0  0  0  0  0  0  0  0  0
  146.7612  139.0612  155.6094 C   0  0  0  0  0  0  0  0  0  0  0  0
  150.0718  141.7849  156.1422 C   0  0  0  0  0  0  0  0  0  0  0  0
  150.7285  142.5396  157.1329 C   0  0  0  0  0  0  0  0  0  0  0  0
  153.0669  141.0938  160.1587 H   0  0  0  0  0  0  0  0  0  0  0  0
  151.5845  141.9002  160.6663 H   0  0  0  0  0  0  0  0  0  0  0  0
  153.1464  142.6360  161.0011 H   0  0  0  0  0  0  0  0  0  0  0  0
  153.5689  142.9357  158.5885 H   0  0  0  0  0  0  0  0  0  0  0  0
  151.9486  144.7415  158.1076 H   0  0  0  0  0  0  0  0  0  0  0  0
  152.4811  144.8030  159.7826 H   0  0  0  0  0  0  0  0  0  0  0  0
  150.8899  144.1629  159.3912 H   0  0  0  0  0  0  0  0  0  0  0  0
  153.0600  140.2334  158.0988 H   0  0  0  0  0  0  0  0  0  0  0  0
  151.9088  138.9113  156.3601 H   0  0  0  0  0  0  0  0  0  0  0  0
  149.5261  138.6851  155.2304 H   0  0  0  0  0  0  0  0  0  0  0  0
  150.1206  139.3411  152.9011 H   0  0  0  0  0  0  0  0  0  0  0  0
  148.3556  141.2720  154.8375 H   0  0  0  0  0  0  0  0  0  0  0  0
  148.6227  140.6310  153.2414 H   0  0  0  0  0  0  0  0  0  0  0  0
  145.9941  139.8382  151.5531 H   0  0  0  0  0  0  0  0  0  0  0  0
  147.7124  139.8729  151.8732 H   0  0  0  0  0  0  0  0  0  0  0  0
  147.3825  137.4265  151.7932 H   0  0  0  0  0  0  0  0  0  0  0  0
  143.9757  137.1060  155.9352 H   0  0  0  0  0  0  0  0  0  0  0  0
  144.5541  137.3918  158.3344 H   0  0  0  0  0  0  0  0  0  0  0  0
  146.5348  138.7411  158.9975 H   0  0  0  0  0  0  0  0  0  0  0  0
  147.9526  139.8160  157.2519 H   0  0  0  0  0  0  0  0  0  0  0  0
  149.2397  142.2205  155.6086 H   0  0  0  0  0  0  0  0  0  0  0  0
  150.3937  143.5452  157.3406 H   0  0  0  0  0  0  0  0  0  0  0  0
  1  2  1  0  0  0  0
  1 24  1  0  0  0  0
  1 25  1  0  0  0  0
  1 26  1  0  0  0  0
  2  3  1  0  0  0  0
  2  4  1  0  0  0  0
  2 27  1  0  0  0  0
  3 28  1  0  0  0  0
  3 29  1  0  0  0  0
  3 30  1  0  0  0  0
  4 23  1  0  0  0  0
  4  5  2  0  0  0  0
  5  6  1  0  0  0  0
  5 31  1  0  0  0  0
  6  7  2  0  0  0  0
  6 32  1  0  0  0  0
  7  8  1  0  0  0  0
  7 22  1  0  0  0  0
  8  9  1  0  0  0  0
  8 10  1  0  0  0  0
  8 33  1  0  0  0  0
  9 34  1  0  0  0  0
 10 11  1  0  0  0  0
 10 35  1  0  0  0  0
 10 36  1  0  0  0  0
 11 21  1  0  0  0  0
 11 12  1  0  0  0  0
 12 13  1  0  0  0  0
 12 15  2  0  0  0  0
 13 14  1  0  0  0  0
 13 37  1  0  0  0  0
 13 38  1  0  0  0  0
 14 39  1  0  0  0  0
 15 16  1  0  0  0  0
 16 21  2  0  0  0  0
 16 17  1  0  0  0  0
 17 18  2  0  0  0  0
 17 40  1  0  0  0  0
 18 19  1  0  0  0  0
 18 41  1  0  0  0  0
 19 20  2  0  0  0  0
 19 42  1  0  0  0  0
 20 21  1  0  0  0  0
 20 43  1  0  0  0  0
 22 23  2  0  0  0  0
 22 44  1  0  0  0  0
 23 45  1  0  0  0  0
M  END
> <s_m_source_file>
AV-unprocessed.smi

> <i_m_source_file_index>
1829

> <i_lp_mmshare_version>
43012

> <i_f3d_flags>
0

> <s_epik_input>
W0NIM11bQ0hdKFtDSDNdKWMxW2NIXVtjSF1jKFtjSF1bY0hdMSlbQ0BIXShbT0hdKVtDSDJdbihjKG4yKVtDSDJdW09IXSljKGMyMylbY0hdW2NIXVtjSF1bY0hdMw==

> <s_epik_cmdline>
J2VwaWtfcHl0aG9uJywgJy1waCcsICc3LjAnLCAnLXRuJywgJzgnLCAnLW1hJywgJzIwMCcsICctbWV0YWxfYmluZGluZycsICctaW1hZScsICc8aW5maWxlLm1hZT4nLCAnLW9tYWUnLCAnPG91dGZpbGUubWFlPic=

> <r_epik_Ionization_Penalty>
0.0634718

> <r_epik_Ionization_Penalty_Charging>
0

> <r_epik_Ionization_Penalty_Neutral>
0.0634718

> <r_epik_State_Penalty>
0.0551572

> <r_epik_Charging_Adjusted_Penalty>
0.0551572

> <i_epik_Tot_Q>
0

> <i_epik_Tot_abs_Q>
0

> <r_epik_Metal_State_Penalty>
5.78034e-05

> <b_epik_Metal_Only>
0

> <s_lp_Force_Field>
OPLS_2005

> <r_lp_Energy>
12.4565

> <b_lp_Chiralities_Consistent>
1

> <s_lp_Variant>
AV-unprocessed.smi:1829-1

> <Gold.Version>
5.8.1

> <Gold.Id.Protein>
6NUR|6NUR_protein|mol2

> <Gold.PLP.Fitness>
45.5828

> <Gold.PLP.PLP>
-36.2422

> <Gold.PLP.part.hbond>
-4.3594

> <Gold.PLP.part.metal>
0.0000

> <Gold.PLP.part.buried>
0.8106

> <Gold.PLP.part.nonpolar>
-33.0535

> <Gold.PLP.part.repulsive>
0.2051

> <Gold.PLP.ligand.clash>
0.0000

> <Gold.PLP.ligand.torsion>
0.8801

> <Gold.PLP.Chemscore.Hbond>
3.6784

> <Gold.PLP.Chemscore.CHOScore>
0.0000

> <Gold.PLP.Chemscore.Metal>
0.0000

> <Gold.Chemscore.Hbonds>
donor molecule, donor type, donor heavy atom, donor atom, acceptor molecule, acceptor atom, score
      L1  H     9    34       P1  7957  1.00
      L1  H    14    39       P1  7948  0.80
      P1  H  7954  7966       L1    14  0.70
      P1  H  7989  7998       L1     9  0.96

> <Gold.PLP.Chemscore.Internal.Correction>
0.0656

> <Gold.Rescore>
     Score         DG    S(hbond)    S(metal)    S(lipo)     H(rot)  DE(clash)    DE(int)     intcor
     15.44     -17.54       2.25        0.00      97.40       2.68       1.21       0.90       ----

> <Gold.Chemscore.Fitness>
15.4379

> <Gold.Chemscore.DG>
-17.5437

> <Gold.Chemscore.ZeroCoef>
-5.4800

> <Gold.Chemscore.Hbond>
2.2510

> <Gold.Chemscore.Metal>
0.0000

> <Gold.Chemscore.Lipo>
97.4026

> <Gold.Chemscore.Internal_Hbond>
0.0000

> <Gold.Chemscore.DEClash>
1.2102

> <Gold.Chemscore.DEInternal>
0.8956

> <Gold.Chemscore.Rot>
2.6761

> <Gold.Chemscore.Internal.Correction>
   9.000000E+99

> <Gold.Chemscore.Hbonds>
donor molecule, donor type, donor heavy atom, donor atom, acceptor molecule, acceptor atom, score
      L1  H     9    34       P1  7957  0.89
      L1  H    14    39       P1  7948  0.79
      P1  H  7954  7966       L1    14  0.07
      P1  H  7989  7998       L1     9  0.12

> <Gold.Chemscore.Hbond.Weighted>
-7.5183

> <Gold.Chemscore.Metal.Weighted>
-0.0000

> <Gold.Chemscore.Lipo.Weighted>
-11.3961

> <Gold.Chemscore.Internal_Hbond.Weighted>
0.0000

> <Gold.Chemscore.DEClash.Weighted>
1.2102

> <Gold.Chemscore.DEInternal.Weighted>
0.8956

> <Gold.Chemscore.Rot.Weighted>
6.8507

> <Gold.Chemscore.Internal.Correction.Weighted>
   9.000000E+99

> <Gold.Protein.RotatedTorsions>
[ 6907 6896 6895 6894 ] final    5.28 input  -60.11 | X-H torsion
[ 7974 7965 7964 7962 ] final  161.18 input  175.53 | X-H torsion
[ 8008 7997 7996 7995 ] final -167.94 input   59.86 | X-H torsion
[ 10167 10162 10161 10158 ] final   47.00 input  -65.29 | X-H torsion
[ 10718 10713 10712 10709 ] final  122.31 input   66.30 | X-H torsion
[ 10763 10752 10751 10750 ] final  160.11 input  -60.55 | X-H torsion
[ 11005 11000 10999 10996 ] final -174.27 input  -57.11 | X-H torsion

> <Gold.Protein.ActiveResidues>
 VAL166  LYS551  ARG553  GLY616  TRP617  ASP618  TYR619  PRO620  LYS621  CYS622 
 ASP623  PHE694  ASN695  SER759  ASP760  ASP761  ALA762  ILE779  LEU786  VAL792 
 PHE793  MET794  SER795  GLU796  ALA797  LYS798  CYS799  TRP800  GLU811  SER814 

> <Gold.Protein.RotatedAtoms>
  151.6549  135.0997  160.0167 H   0  0  0  0  0  0  0  0  0  0  0  0  # atno 6907 bound_to 6896
  152.3980  133.6771  159.6301 H   0  0  0  0  0  0  0  0  0  0  0  0  # atno 6908 bound_to 6896
  150.7884  133.8758  159.3312 H   0  0  0  0  0  0  0  0  0  0  0  0  # atno 6909 bound_to 6896
  144.7699  139.7862  143.6301 H   0  0  0  0  0  0  0  0  0  0  0  0  # atno 7974 bound_to 7965
  155.8846  140.1014  157.1461 H   0  0  0  0  0  0  0  0  0  0  0  0  # atno 8008 bound_to 7997
  154.4008  140.1322  156.4303 H   0  0  0  0  0  0  0  0  0  0  0  0  # atno 8009 bound_to 7997
  155.7604  140.3463  155.5197 H   0  0  0  0  0  0  0  0  0  0  0  0  # atno 8010 bound_to 7997
  140.3081  144.2853  150.6205 H   0  0  0  0  0  0  0  0  0  0  0  0  # atno 10167 bound_to 10162
  157.5752  131.1080  150.8293 H   0  0  0  0  0  0  0  0  0  0  0  0  # atno 10718 bound_to 10713
  154.2423  135.2774  155.2849 H   0  0  0  0  0  0  0  0  0  0  0  0  # atno 10763 bound_to 10752
  154.5534  135.5668  153.6946 H   0  0  0  0  0  0  0  0  0  0  0  0  # atno 10764 bound_to 10752
  152.9997  135.6280  154.2567 H   0  0  0  0  0  0  0  0  0  0  0  0  # atno 10765 bound_to 10752
  140.4764  134.6117  157.4902 H   0  0  0  0  0  0  0  0  0  0  0  0  # atno 11005 bound_to 11000
  146.1837  139.5041  142.9850 LP  0  0  0  0  0  0  0  0  0  0  0  0  # atno 17320 bound_to 7965
  145.6356  141.0295  143.1839 LP  0  0  0  0  0  0  0  0  0  0  0  0  # atno 17321 bound_to 7965
  140.5592  143.2194  151.7794 LP  0  0  0  0  0  0  0  0  0  0  0  0  # atno 17342 bound_to 10162
  139.4900  144.4371  151.9806 LP  0  0  0  0  0  0  0  0  0  0  0  0  # atno 17343 bound_to 10162
  156.8754  130.5160  149.5294 LP  0  0  0  0  0  0  0  0  0  0  0  0  # atno 17370 bound_to 10713
  156.0796  130.5810  150.9539 LP  0  0  0  0  0  0  0  0  0  0  0  0  # atno 17371 bound_to 10713
  139.9853  134.7071  155.9785 LP  0  0  0  0  0  0  0  0  0  0  0  0  # atno 17394 bound_to 11000
  141.1552  133.6543  156.4140 LP  0  0  0  0  0  0  0  0  0  0  0  0  # atno 17395 bound_to 11000

$$$$
