AV-unprocessed.smi:1605|AV-procd|sdf|6456|dock5
  -GOLD-   22720 7113D 1   1.00000     0.00000
 Structure written by MMmdl.
 52 54  0  0  0  0  0  0  0  0  3 V2000
  143.5088  135.7300  152.6389 C   0  0  0  0  0  0  0  0  0  0  0  0
  144.5113  136.4502  151.9381 O   0  0  0  0  0  0  0  0  0  0  0  0
  145.2613  137.3482  152.7451 C   0  0  2  0  0  0  0  0  0  0  0  0
  146.0852  138.2402  151.8050 C   0  0  0  0  0  0  0  0  0  0  0  0
  147.0140  139.1767  152.5949 C   0  0  0  0  0  0  0  0  0  0  0  0
  147.9142  138.4053  153.4905 N   0  3  1  0  0  0  0  0  0  0  0  0
  148.9233  139.2698  154.1560 C   0  0  0  0  0  0  0  0  0  0  0  0
  150.0431  138.4629  154.8505 C   0  0  1  0  0  0  0  0  0  0  0  0
  150.4348  137.4012  154.0021 O   0  0  0  0  0  0  0  0  0  0  0  0
  151.2810  139.3183  155.2060 C   0  0  0  0  0  0  0  0  0  0  0  0
  150.9808  140.5264  155.9927 N   0  0  0  0  0  0  0  0  0  0  0  0
  150.1298  141.5546  155.7235 C   0  0  0  0  0  0  0  0  0  0  0  0
  150.2006  142.4310  156.7632 N   0  3  0  0  0  0  0  0  0  0  0  0
  151.1016  141.9522  157.7163 C   0  0  0  0  0  0  0  0  0  0  0  0
  151.5069  142.4857  158.9342 C   0  0  0  0  0  0  0  0  0  0  0  0
  152.4493  141.7440  159.6819 C   0  0  0  0  0  0  0  0  0  0  0  0
  152.9196  142.3019  161.0145 C   0  0  0  0  0  0  0  0  0  0  0  0
  152.9479  140.5050  159.2030 C   0  0  0  0  0  0  0  0  0  0  0  0
  153.9581  139.7127  160.0152 C   0  0  0  0  0  0  0  0  0  0  0  0
  152.5214  139.9791  157.9628 C   0  0  0  0  0  0  0  0  0  0  0  0
  151.5993  140.7263  157.2334 C   0  0  0  0  0  0  0  0  0  0  0  0
  147.1393  137.5621  154.4397 C   0  0  0  0  0  0  0  0  0  0  0  0
  146.2130  136.5906  153.6894 C   0  0  0  0  0  0  0  0  0  0  0  0
  142.9607  135.1000  151.9384 H   0  0  0  0  0  0  0  0  0  0  0  0
  142.7934  136.4051  153.1101 H   0  0  0  0  0  0  0  0  0  0  0  0
  143.9336  135.0798  153.4031 H   0  0  0  0  0  0  0  0  0  0  0  0
  144.5871  137.9827  153.3236 H   0  0  0  0  0  0  0  0  0  0  0  0
  146.6807  137.6191  151.1344 H   0  0  0  0  0  0  0  0  0  0  0  0
  145.4193  138.8272  151.1714 H   0  0  0  0  0  0  0  0  0  0  0  0
  147.6059  139.7637  151.8915 H   0  0  0  0  0  0  0  0  0  0  0  0
  146.4275  139.8833  153.1845 H   0  0  0  0  0  0  0  0  0  0  0  0
  149.3779  139.9319  153.4176 H   0  0  0  0  0  0  0  0  0  0  0  0
  148.4187  139.9182  154.8742 H   0  0  0  0  0  0  0  0  0  0  0  0
  149.6775  138.0233  155.7775 H   0  0  0  0  0  0  0  0  0  0  0  0
  149.9000  137.4154  153.2230 H   0  0  0  0  0  0  0  0  0  0  0  0
  151.9771  138.7209  155.7962 H   0  0  0  0  0  0  0  0  0  0  0  0
  151.8264  139.6083  154.3073 H   0  0  0  0  0  0  0  0  0  0  0  0
  149.5117  141.6589  154.8436 H   0  0  0  0  0  0  0  0  0  0  0  0
  151.1200  143.4277  159.2945 H   0  0  0  0  0  0  0  0  0  0  0  0
  152.6572  141.6244  161.8271 H   0  0  0  0  0  0  0  0  0  0  0  0
  152.4634  143.2695  161.2256 H   0  0  0  0  0  0  0  0  0  0  0  0
  154.0014  142.4384  161.0128 H   0  0  0  0  0  0  0  0  0  0  0  0
  154.2261  138.7801  159.5177 H   0  0  0  0  0  0  0  0  0  0  0  0
  153.5508  139.4619  160.9948 H   0  0  0  0  0  0  0  0  0  0  0  0
  154.8724  140.2897  160.1563 H   0  0  0  0  0  0  0  0  0  0  0  0
  152.9053  139.0379  157.5985 H   0  0  0  0  0  0  0  0  0  0  0  0
  147.8098  136.9856  155.0753 H   0  0  0  0  0  0  0  0  0  0  0  0
  146.5528  138.2015  155.1015 H   0  0  0  0  0  0  0  0  0  0  0  0
  145.6496  136.0021  154.4131 H   0  0  0  0  0  0  0  0  0  0  0  0
  146.8140  135.8832  153.1160 H   0  0  0  0  0  0  0  0  0  0  0  0
  148.4299  137.7779  152.8901 H   0  0  0  0  0  0  0  0  0  0  0  0
  149.6680  143.2898  156.8191 H   0  0  0  0  0  0  0  0  0  0  0  0
  1  2  1  0  0  0  0
  1 24  1  0  0  0  0
  1 25  1  0  0  0  0
  1 26  1  0  0  0  0
  2  3  1  0  0  0  0
  3 23  1  0  0  0  0
  3  4  1  0  0  0  0
  3 27  1  0  0  0  0
  4  5  1  0  0  0  0
  4 28  1  0  0  0  0
  4 29  1  0  0  0  0
  5  6  1  0  0  0  0
  5 30  1  0  0  0  0
  5 31  1  0  0  0  0
  6  7  1  0  0  0  0
  6 22  1  0  0  0  0
  6 51  1  0  0  0  0
  7  8  1  0  0  0  0
  7 32  1  0  0  0  0
  7 33  1  0  0  0  0
  8  9  1  0  0  0  0
  8 10  1  0  0  0  0
  8 34  1  0  0  0  0
  9 35  1  0  0  0  0
 10 11  1  0  0  0  0
 10 36  1  0  0  0  0
 10 37  1  0  0  0  0
 11 21  1  0  0  0  0
 11 12  1  0  0  0  0
 12 13  2  0  0  0  0
 12 38  1  0  0  0  0
 13 14  1  0  0  0  0
 13 52  1  0  0  0  0
 14 21  2  0  0  0  0
 14 15  1  0  0  0  0
 15 16  2  0  0  0  0
 15 39  1  0  0  0  0
 16 17  1  0  0  0  0
 16 18  1  0  0  0  0
 17 40  1  0  0  0  0
 17 41  1  0  0  0  0
 17 42  1  0  0  0  0
 18 19  1  0  0  0  0
 18 20  2  0  0  0  0
 19 43  1  0  0  0  0
 19 44  1  0  0  0  0
 19 45  1  0  0  0  0
 20 21  1  0  0  0  0
 20 46  1  0  0  0  0
 22 23  1  0  0  0  0
 22 47  1  0  0  0  0
 22 48  1  0  0  0  0
 23 49  1  0  0  0  0
 23 50  1  0  0  0  0
M  CHG  1   6   1
M  CHG  1  13   1
M  END
> <s_m_source_file>
AV-unprocessed.smi

> <i_m_source_file_index>
1605

> <i_lp_mmshare_version>
43012

> <i_f3d_flags>
0

> <s_epik_input>
W0NIM11PW0NIXTFbQ0gyXVtDSDJdTihbQ0gyXVtDSDJdMSlbQ0gyXVtDQEhdKFtPSF0pW0NIMl1uKFtjSF1uMiljKGMyMylbY0hdYyhbQ0gzXSljKFtjSF0zKVtDSDNd

> <s_epik_cmdline>
J2VwaWtfcHl0aG9uJywgJy1waCcsICc3LjAnLCAnLXRuJywgJzgnLCAnLW1hJywgJzIwMCcsICctbWV0YWxfYmluZGluZycsICctaW1hZScsICc8aW5maWxlLm1hZT4nLCAnLW9tYWUnLCAnPG91dGZpbGUubWFlPic=

> <r_epik_Ionization_Penalty>
1.19848

> <r_epik_Ionization_Penalty_Charging>
1.19848

> <r_epik_Ionization_Penalty_Neutral>
1.67134e-06

> <r_epik_State_Penalty>
1.2782

> <r_epik_Charging_Adjusted_Penalty>
2.47668

> <i_epik_Tot_Q>
2

> <i_epik_Tot_abs_Q>
2

> <r_epik_Metal_State_Penalty>
5.29544

> <b_epik_Metal_Only>
0

> <s_lp_Force_Field>
OPLS_2005

> <r_lp_Energy>
33.6993

> <b_lp_Chiralities_Consistent>
1

> <s_lp_Variant>
AV-unprocessed.smi:1605-6

> <Gold.Version>
5.8.1

> <Gold.Id.Protein>
6NUR|6NUR_protein|mol2

> <Gold.PLP.Fitness>
59.1739

> <Gold.PLP.PLP>
-44.6883

> <Gold.PLP.part.hbond>
-4.1821

> <Gold.PLP.part.metal>
0.0000

> <Gold.PLP.part.buried>
-1.4873

> <Gold.PLP.part.nonpolar>
-39.3331

> <Gold.PLP.part.repulsive>
0.2805

> <Gold.PLP.ligand.clash>
0.0000

> <Gold.PLP.ligand.torsion>
0.2742

> <Gold.PLP.Chemscore.Hbond>
4.9920

> <Gold.PLP.Chemscore.CHOScore>
0.0000

> <Gold.PLP.Chemscore.Metal>
0.0000

> <Gold.Chemscore.Hbonds>
donor molecule, donor type, donor heavy atom, donor atom, acceptor molecule, acceptor atom, score
      L1  H     6    51       P1  7948  2.00
      L1  H     9    35       P1  7948  0.86
      L1  H    13    52       P1  8028  1.66

> <Gold.PLP.Chemscore.Internal.Correction>
0.0580

> <Gold.Rescore>
     Score         DG    S(hbond)    S(metal)    S(lipo)     H(rot)  DE(clash)    DE(int)     intcor
     20.26     -20.67       2.67        0.00     103.47       2.28       0.11       0.30       ----

> <Gold.Chemscore.Fitness>
20.2628

> <Gold.Chemscore.DG>
-20.6720

> <Gold.Chemscore.ZeroCoef>
-5.4800

> <Gold.Chemscore.Hbond>
2.6744

> <Gold.Chemscore.Metal>
0.0000

> <Gold.Chemscore.Lipo>
103.4728

> <Gold.Chemscore.Internal_Hbond>
0.0000

> <Gold.Chemscore.DEClash>
0.1054

> <Gold.Chemscore.DEInternal>
0.3038

> <Gold.Chemscore.Rot>
2.2839

> <Gold.Chemscore.Internal.Correction>
   9.000000E+99

> <Gold.Chemscore.Hbonds>
donor molecule, donor type, donor heavy atom, donor atom, acceptor molecule, acceptor atom, score
      L1  H     6    51       P1  7948  1.00
      L1  H     9    35       P1  7948  0.33
      L1  H    13    52       P1  8028  0.80

> <Gold.Chemscore.Hbond.Weighted>
-8.9326

> <Gold.Chemscore.Metal.Weighted>
-0.0000

> <Gold.Chemscore.Lipo.Weighted>
-12.1063

> <Gold.Chemscore.Internal_Hbond.Weighted>
0.0000

> <Gold.Chemscore.DEClash.Weighted>
0.1054

> <Gold.Chemscore.DEInternal.Weighted>
0.3038

> <Gold.Chemscore.Rot.Weighted>
5.8469

> <Gold.Chemscore.Internal.Correction.Weighted>
   9.000000E+99

> <Gold.Protein.RotatedTorsions>
[ 6907 6896 6895 6894 ] final -160.02 input  -60.11 | X-H torsion
[ 7974 7965 7964 7962 ] final  -67.70 input  175.53 | X-H torsion
[ 8008 7997 7996 7995 ] final  -19.75 input   59.86 | X-H torsion
[ 10167 10162 10161 10158 ] final   47.69 input  -65.29 | X-H torsion
[ 10718 10713 10712 10709 ] final  -81.90 input   66.30 | X-H torsion
[ 10763 10752 10751 10750 ] final  165.70 input  -60.55 | X-H torsion
[ 11005 11000 10999 10996 ] final   32.84 input  -57.11 | X-H torsion

> <Gold.Protein.ActiveResidues>
 VAL166  LYS551  ARG553  GLY616  TRP617  ASP618  TYR619  PRO620  LYS621  CYS622 
 ASP623  PHE694  ASN695  SER759  ASP760  ASP761  ALA762  ILE779  LEU786  VAL792 
 PHE793  MET794  SER795  GLU796  ALA797  LYS798  CYS799  TRP800  GLU811  SER814 

> <Gold.Protein.RotatedAtoms>
  151.3426  133.3956  159.2672 H   0  0  0  0  0  0  0  0  0  0  0  0  # atno 6907 bound_to 6896
  150.9866  134.9210  159.7885 H   0  0  0  0  0  0  0  0  0  0  0  0  # atno 6908 bound_to 6896
  152.5234  134.3390  159.9263 H   0  0  0  0  0  0  0  0  0  0  0  0  # atno 6909 bound_to 6896
  145.7259  140.9018  143.0605 H   0  0  0  0  0  0  0  0  0  0  0  0  # atno 7974 bound_to 7965
  154.4815  140.2080  155.9752 H   0  0  0  0  0  0  0  0  0  0  0  0  # atno 8008 bound_to 7997
  156.1173  140.3219  155.8126 H   0  0  0  0  0  0  0  0  0  0  0  0  # atno 8009 bound_to 7997
  155.4531  140.0518  157.2990 H   0  0  0  0  0  0  0  0  0  0  0  0  # atno 8010 bound_to 7997
  140.3010  144.2934  150.6219 H   0  0  0  0  0  0  0  0  0  0  0  0  # atno 10167 bound_to 10162
  156.0042  130.4618  150.4023 H   0  0  0  0  0  0  0  0  0  0  0  0  # atno 10718 bound_to 10713
  154.3279  135.2755  155.2487 H   0  0  0  0  0  0  0  0  0  0  0  0  # atno 10763 bound_to 10752
  154.4811  135.5858  153.6394 H   0  0  0  0  0  0  0  0  0  0  0  0  # atno 10764 bound_to 10752
  152.9869  135.6111  154.3469 H   0  0  0  0  0  0  0  0  0  0  0  0  # atno 10765 bound_to 10752
  140.2693  134.3101  155.7833 H   0  0  0  0  0  0  0  0  0  0  0  0  # atno 11005 bound_to 11000
  144.6905  139.9265  143.7470 LP  0  0  0  0  0  0  0  0  0  0  0  0  # atno 17320 bound_to 7965
  146.0583  139.3578  143.0597 LP  0  0  0  0  0  0  0  0  0  0  0  0  # atno 17321 bound_to 7965
  140.5651  143.2187  151.7697 LP  0  0  0  0  0  0  0  0  0  0  0  0  # atno 17342 bound_to 10162
  139.4915  144.4295  151.9888 LP  0  0  0  0  0  0  0  0  0  0  0  0  # atno 17343 bound_to 10162
  157.2091  131.0456  151.2609 LP  0  0  0  0  0  0  0  0  0  0  0  0  # atno 17370 bound_to 10713
  157.3905  130.7279  149.6694 LP  0  0  0  0  0  0  0  0  0  0  0  0  # atno 17371 bound_to 10713
  141.2180  133.7457  156.9309 LP  0  0  0  0  0  0  0  0  0  0  0  0  # atno 17394 bound_to 11000
  140.1389  134.9307  157.2440 LP  0  0  0  0  0  0  0  0  0  0  0  0  # atno 17395 bound_to 11000

$$$$
