AV-unprocessed.smi:2115|AV-procd|sdf|8624|dock9
  -GOLD-   2272011373D 1   1.00000     0.00000
 Structure written by MMmdl.
 37 38  0  0  0  0  0  0  0  0  1 V2000
  152.5917  142.5884  159.6529 C   0  0  0  0  0  0  0  0  0  0  0  0
  151.5363  143.3662  159.1160 O   0  0  0  0  0  0  0  0  0  0  0  0
  151.3459  143.1397  157.7292 C   0  0  0  0  0  0  0  0  0  0  0  0
  151.1678  141.6383  157.4839 C   0  0  0  0  0  0  0  0  0  0  0  0
  150.6795  141.4427  156.1600 O   0  0  0  0  0  0  0  0  0  0  0  0
  150.4542  140.1530  155.7244 C   0  0  0  0  0  0  0  0  0  0  0  0
  150.3215  139.1314  156.6854 C   0  0  0  0  0  0  0  0  0  0  0  0
  150.0856  137.8147  156.2473 C   0  0  0  0  0  0  0  0  0  0  0  0
  149.9785  137.5583  154.8656 C   0  0  0  0  0  0  0  0  0  0  0  0
  149.7549  136.2183  154.4498 N   0  0  0  0  0  0  0  0  0  0  0  0
  149.8950  135.0860  155.1633 C   0  0  0  0  0  0  0  0  0  0  0  0
  150.2618  135.0408  156.3378 O   0  0  0  0  0  0  0  0  0  0  0  0
  149.5733  133.7862  154.4165 C   0  0  1  0  0  0  0  0  0  0  0  0
  149.6866  132.5205  155.2873 C   0  0  0  0  0  0  0  0  0  0  0  0
  148.2513  132.0552  155.4366 C   0  0  0  0  0  0  0  0  0  0  0  0
  147.6216  132.5647  154.1485 C   0  0  0  0  0  0  0  0  0  0  0  0
  148.2134  133.8442  153.9899 O   0  0  0  0  0  0  0  0  0  0  0  0
  150.1430  138.6497  153.9782 C   0  0  0  0  0  0  0  0  0  0  0  0
  150.3711  139.9144  154.3922 N   0  0  0  0  0  0  0  0  0  0  0  0
  152.6974  142.7987  160.7171 H   0  0  0  0  0  0  0  0  0  0  0  0
  153.5400  142.8225  159.1676 H   0  0  0  0  0  0  0  0  0  0  0  0
  152.3935  141.5218  159.5389 H   0  0  0  0  0  0  0  0  0  0  0  0
  150.4825  143.6927  157.3558 H   0  0  0  0  0  0  0  0  0  0  0  0
  152.2228  143.4942  157.1853 H   0  0  0  0  0  0  0  0  0  0  0  0
  152.1344  141.1432  157.5906 H   0  0  0  0  0  0  0  0  0  0  0  0
  150.4889  141.2131  158.2249 H   0  0  0  0  0  0  0  0  0  0  0  0
  150.3993  139.3540  157.7395 H   0  0  0  0  0  0  0  0  0  0  0  0
  149.9825  137.0150  156.9664 H   0  0  0  0  0  0  0  0  0  0  0  0
  149.5225  136.0987  153.4745 H   0  0  0  0  0  0  0  0  0  0  0  0
  150.2146  133.6843  153.5390 H   0  0  0  0  0  0  0  0  0  0  0  0
  150.2709  131.7646  154.7605 H   0  0  0  0  0  0  0  0  0  0  0  0
  150.1651  132.6840  156.2541 H   0  0  0  0  0  0  0  0  0  0  0  0
  148.1602  130.9758  155.5600 H   0  0  0  0  0  0  0  0  0  0  0  0
  147.7872  132.5409  156.2961 H   0  0  0  0  0  0  0  0  0  0  0  0
  147.8903  131.9289  153.3037 H   0  0  0  0  0  0  0  0  0  0  0  0
  146.5347  132.6276  154.2043 H   0  0  0  0  0  0  0  0  0  0  0  0
  150.1158  138.5242  152.9071 H   0  0  0  0  0  0  0  0  0  0  0  0
  1  2  1  0  0  0  0
  1 20  1  0  0  0  0
  1 21  1  0  0  0  0
  1 22  1  0  0  0  0
  2  3  1  0  0  0  0
  3  4  1  0  0  0  0
  3 23  1  0  0  0  0
  3 24  1  0  0  0  0
  4  5  1  0  0  0  0
  4 25  1  0  0  0  0
  4 26  1  0  0  0  0
  5  6  1  0  0  0  0
  6 19  1  0  0  0  0
  6  7  2  0  0  0  0
  7  8  1  0  0  0  0
  7 27  1  0  0  0  0
  8  9  2  0  0  0  0
  8 28  1  0  0  0  0
  9 10  1  0  0  0  0
  9 18  1  0  0  0  0
 10 11  1  0  0  0  0
 10 29  1  0  0  0  0
 11 12  2  0  0  0  0
 11 13  1  0  0  0  0
 13 17  1  0  0  0  0
 13 14  1  0  0  0  0
 13 30  1  0  0  0  0
 14 15  1  0  0  0  0
 14 31  1  0  0  0  0
 14 32  1  0  0  0  0
 15 16  1  0  0  0  0
 15 33  1  0  0  0  0
 15 34  1  0  0  0  0
 16 17  1  0  0  0  0
 16 35  1  0  0  0  0
 16 36  1  0  0  0  0
 18 19  2  0  0  0  0
 18 37  1  0  0  0  0
M  END
> <s_m_source_file>
AV-unprocessed.smi

> <i_m_source_file_index>
2115

> <i_lp_mmshare_version>
43012

> <i_f3d_flags>
0

> <s_epik_input>
W0NIM11PW0NIMl1bQ0gyXU9jMVtjSF1bY0hdYyhbY0hdbjEpW05IXUMoPU8pW0NAQEhdMltDSDJdW0NIMl1bQ0gyXU8y

> <s_epik_cmdline>
J2VwaWtfcHl0aG9uJywgJy1waCcsICc3LjAnLCAnLXRuJywgJzgnLCAnLW1hJywgJzIwMCcsICctbWV0YWxfYmluZGluZycsICctaW1hZScsICc8aW5maWxlLm1hZT4nLCAnLW9tYWUnLCAnPG91dGZpbGUubWFlPic=

> <r_lp_tautomer_probability>
1

> <r_epik_Ionization_Penalty>
1.60185e-05

> <r_epik_Ionization_Penalty_Charging>
0

> <r_epik_Ionization_Penalty_Neutral>
1.60185e-05

> <r_epik_State_Penalty>
-0

> <r_epik_Charging_Adjusted_Penalty>
0

> <i_epik_Tot_Q>
0

> <i_epik_Tot_abs_Q>
0

> <r_epik_Metal_State_Penalty>
-0

> <b_epik_Metal_Only>
0

> <s_lp_Force_Field>
OPLS_2005

> <r_lp_Energy>
23.9239

> <b_lp_Chiralities_Consistent>
1

> <s_lp_Variant>
AV-unprocessed.smi:2115-2

> <Gold.Version>
5.8.1

> <Gold.Id.Protein>
6NUR|6NUR_protein|mol2

> <Gold.PLP.Fitness>
37.5450

> <Gold.PLP.PLP>
-27.8704

> <Gold.PLP.part.hbond>
-2.5931

> <Gold.PLP.part.metal>
0.0000

> <Gold.PLP.part.buried>
-5.1696

> <Gold.PLP.part.nonpolar>
-21.7400

> <Gold.PLP.part.repulsive>
0.3995

> <Gold.PLP.ligand.clash>
0.0000

> <Gold.PLP.ligand.torsion>
0.3803

> <Gold.PLP.Chemscore.Hbond>
2.0000

> <Gold.PLP.Chemscore.CHOScore>
1.4416

> <Gold.PLP.Chemscore.Metal>
0.0000

> <Gold.Chemscore.Hbonds>
donor molecule, donor type, donor heavy atom, donor atom, acceptor molecule, acceptor atom, score
      L1  H    10    29       P1  7948  1.00
      P1  H  7989  7998       L1    19  1.00
      L1  C    18    37       P1  7948  0.42
      L1  C    18    37       P1  7957  1.00

> <Gold.PLP.Chemscore.Internal.Correction>
0.1104

> <Gold.Rescore>
     Score         DG    S(hbond)    S(metal)    S(lipo)     H(rot)  DE(clash)    DE(int)     intcor
     12.33     -14.04       1.77        0.00      62.79       1.84       0.00       1.71       ----

> <Gold.Chemscore.Fitness>
12.3305

> <Gold.Chemscore.DG>
-14.0396

> <Gold.Chemscore.ZeroCoef>
-5.4800

> <Gold.Chemscore.Hbond>
1.7734

> <Gold.Chemscore.Metal>
0.0000

> <Gold.Chemscore.Lipo>
62.7880

> <Gold.Chemscore.Internal_Hbond>
0.0000

> <Gold.Chemscore.DEClash>
0.0009

> <Gold.Chemscore.DEInternal>
1.7082

> <Gold.Chemscore.Rot>
1.8398

> <Gold.Chemscore.Internal.Correction>
   9.000000E+99

> <Gold.Chemscore.Hbonds>
donor molecule, donor type, donor heavy atom, donor atom, acceptor molecule, acceptor atom, score
      L1  H    10    29       P1  7948  0.45
      P1  H  7989  7998       L1    19  0.74

> <Gold.Chemscore.Hbond.Weighted>
-5.9233

> <Gold.Chemscore.Metal.Weighted>
-0.0000

> <Gold.Chemscore.Lipo.Weighted>
-7.3462

> <Gold.Chemscore.Internal_Hbond.Weighted>
0.0000

> <Gold.Chemscore.DEClash.Weighted>
0.0009

> <Gold.Chemscore.DEInternal.Weighted>
1.7082

> <Gold.Chemscore.Rot.Weighted>
4.7099

> <Gold.Chemscore.Internal.Correction.Weighted>
   9.000000E+99

> <Gold.Protein.RotatedTorsions>
[ 6907 6896 6895 6894 ] final -176.07 input  -60.11 | X-H torsion
[ 7974 7965 7964 7962 ] final    2.91 input  175.53 | X-H torsion
[ 8008 7997 7996 7995 ] final -133.99 input   59.86 | X-H torsion
[ 10167 10162 10161 10158 ] final   27.61 input  -65.29 | X-H torsion
[ 10718 10713 10712 10709 ] final  111.65 input   66.30 | X-H torsion
[ 10763 10752 10751 10750 ] final   41.08 input  -60.55 | X-H torsion
[ 11005 11000 10999 10996 ] final  -23.14 input  -57.11 | X-H torsion

> <Gold.Protein.ActiveResidues>
 VAL166  LYS551  ARG553  GLY616  TRP617  ASP618  TYR619  PRO620  LYS621  CYS622 
 ASP623  PHE694  ASN695  SER759  ASP760  ASP761  ALA762  ILE779  LEU786  VAL792 
 PHE793  MET794  SER795  GLU796  ALA797  LYS798  CYS799  TRP800  GLU811  SER814 

> <Gold.Protein.RotatedAtoms>
  151.5989  133.3358  159.3042 H   0  0  0  0  0  0  0  0  0  0  0  0  # atno 6907 bound_to 6896
  150.8219  134.7434  159.6791 H   0  0  0  0  0  0  0  0  0  0  0  0  # atno 6908 bound_to 6896
  152.4312  134.5780  159.9991 H   0  0  0  0  0  0  0  0  0  0  0  0  # atno 6909 bound_to 6896
  146.2444  140.0766  142.8359 H   0  0  0  0  0  0  0  0  0  0  0  0  # atno 7974 bound_to 7965
  155.3547  140.0479  157.3046 H   0  0  0  0  0  0  0  0  0  0  0  0  # atno 8008 bound_to 7997
  154.5209  140.2224  155.8942 H   0  0  0  0  0  0  0  0  0  0  0  0  # atno 8009 bound_to 7997
  156.1688  140.3100  155.8942 H   0  0  0  0  0  0  0  0  0  0  0  0  # atno 8010 bound_to 7997
  140.4924  144.0446  150.6302 H   0  0  0  0  0  0  0  0  0  0  0  0  # atno 10167 bound_to 10162
  157.6433  131.0954  150.6780 H   0  0  0  0  0  0  0  0  0  0  0  0  # atno 10718 bound_to 10713
  152.9918  135.6172  154.2730 H   0  0  0  0  0  0  0  0  0  0  0  0  # atno 10763 bound_to 10752
  154.2462  135.2787  155.2836 H   0  0  0  0  0  0  0  0  0  0  0  0  # atno 10764 bound_to 10752
  154.5327  135.5783  153.6830 H   0  0  0  0  0  0  0  0  0  0  0  0  # atno 10765 bound_to 10752
  140.8723  133.7712  156.0201 H   0  0  0  0  0  0  0  0  0  0  0  0  # atno 11005 bound_to 11000
  145.0770  140.9195  143.4848 LP  0  0  0  0  0  0  0  0  0  0  0  0  # atno 17320 bound_to 7965
  145.0911  139.2890  143.5734 LP  0  0  0  0  0  0  0  0  0  0  0  0  # atno 17321 bound_to 7965
  140.3719  143.2850  152.0269 LP  0  0  0  0  0  0  0  0  0  0  0  0  # atno 17342 bound_to 10162
  139.4854  144.6223  151.7231 LP  0  0  0  0  0  0  0  0  0  0  0  0  # atno 17343 bound_to 10162
  156.7101  130.4649  149.5549 LP  0  0  0  0  0  0  0  0  0  0  0  0  # atno 17370 bound_to 10713
  156.1736  130.6453  151.0867 LP  0  0  0  0  0  0  0  0  0  0  0  0  # atno 17371 bound_to 10713
  140.8559  134.2899  157.5256 LP  0  0  0  0  0  0  0  0  0  0  0  0  # atno 17394 bound_to 11000
  139.8713  134.9492  156.4019 LP  0  0  0  0  0  0  0  0  0  0  0  0  # atno 17395 bound_to 11000

$$$$
