AV-unprocessed.smi:281|AV-procd|sdf|2103|dock8
  -GOLD-   2262021393D 1   1.00000     0.00000
 Structure written by MMmdl.
 55 59  0  0  0  0  0  0  0  0  1 V2000
  141.5778  134.5067  152.9727 C   0  0  0  0  0  0  0  0  0  0  0  0
  143.1055  134.4149  152.9053 C   0  0  2  0  0  0  0  0  0  0  0  0
  143.7647  135.8024  152.8842 C   0  0  0  0  0  0  0  0  0  0  0  0
  145.2046  135.6615  152.7141 N   0  0  0  0  0  0  0  0  0  0  0  0
  145.9297  136.7717  153.0036 C   0  0  0  0  0  0  0  0  0  0  0  0
  145.7515  137.9086  152.2782 N   0  0  0  0  0  0  0  0  0  0  0  0
  146.4542  139.0088  152.5623 C   0  0  0  0  0  0  0  0  0  0  0  0
  147.3767  139.1878  153.5091 N   0  0  0  0  0  0  0  0  0  0  0  0
  147.5717  138.0479  154.2319 C   0  0  0  0  0  0  0  0  0  0  0  0
  146.8936  136.8091  154.0509 C   0  0  0  0  0  0  0  0  0  0  0  0
  147.3575  135.8782  154.9730 N   0  0  0  0  0  0  0  0  0  0  0  0
  148.2491  136.5321  155.6658 C   0  0  0  0  0  0  0  0  0  0  0  0
  148.4534  137.8373  155.2783 N   0  0  0  0  0  0  0  0  0  0  0  0
  149.3853  138.7875  155.8680 C   0  0  0  0  0  0  0  0  0  0  0  0
  150.3763  139.4195  154.8568 C   0  0  2  0  0  0  0  0  0  0  0  0
  149.6617  140.2360  153.9476 O   0  0  0  0  0  0  0  0  0  0  0  0
  151.2054  138.4020  154.0682 C   0  0  0  0  0  0  0  0  0  0  0  0
  152.5400  138.4034  154.7994 C   0  0  0  0  0  0  0  0  0  0  0  0
  152.7057  139.7722  155.1218 O   0  0  0  0  0  0  0  0  0  0  0  0
  151.4501  140.2654  155.5715 C   0  0  0  0  0  0  0  0  0  0  0  0
  145.5648  134.8967  151.5237 C   0  0  0  0  0  0  0  0  0  0  0  0
  144.8594  133.5206  151.5064 C   0  0  2  0  0  0  0  0  0  0  0  0
  145.4333  132.5237  152.5238 C   0  0  0  0  0  0  0  0  0  0  0  0
  146.1961  131.5137  151.6772 C   0  0  0  0  0  0  0  0  0  0  0  0
  145.4239  131.4620  150.4925 O   0  0  0  0  0  0  0  0  0  0  0  0
  145.1020  132.8033  150.1560 C   0  0  1  0  0  0  0  0  0  0  0  0
  143.9401  132.8437  149.1529 C   0  0  0  0  0  0  0  0  0  0  0  0
  143.4535  133.7050  151.7163 O   0  0  0  0  0  0  0  0  0  0  0  0
  141.2556  135.0336  153.8711 H   0  0  0  0  0  0  0  0  0  0  0  0
  141.1292  133.5132  152.9914 H   0  0  0  0  0  0  0  0  0  0  0  0
  141.1759  135.0376  152.1095 H   0  0  0  0  0  0  0  0  0  0  0  0
  143.4527  133.8648  153.7807 H   0  0  0  0  0  0  0  0  0  0  0  0
  143.3686  136.3954  152.0586 H   0  0  0  0  0  0  0  0  0  0  0  0
  143.5191  136.3358  153.8016 H   0  0  0  0  0  0  0  0  0  0  0  0
  146.2489  139.8679  151.9411 H   0  0  0  0  0  0  0  0  0  0  0  0
  148.7914  136.0737  156.4800 H   0  0  0  0  0  0  0  0  0  0  0  0
  148.8042  139.5691  156.3595 H   0  0  0  0  0  0  0  0  0  0  0  0
  149.9342  138.2755  156.6595 H   0  0  0  0  0  0  0  0  0  0  0  0
  149.9059  139.9901  153.0684 H   0  0  0  0  0  0  0  0  0  0  0  0
  150.7658  137.4079  154.0064 H   0  0  0  0  0  0  0  0  0  0  0  0
  151.3696  138.7461  153.0456 H   0  0  0  0  0  0  0  0  0  0  0  0
  152.4899  137.8086  155.7129 H   0  0  0  0  0  0  0  0  0  0  0  0
  153.3595  138.0306  154.1849 H   0  0  0  0  0  0  0  0  0  0  0  0
  151.3654  141.3341  155.3694 H   0  0  0  0  0  0  0  0  0  0  0  0
  151.3993  140.1352  156.6535 H   0  0  0  0  0  0  0  0  0  0  0  0
  145.2751  135.4681  150.6405 H   0  0  0  0  0  0  0  0  0  0  0  0
  146.6464  134.7595  151.4774 H   0  0  0  0  0  0  0  0  0  0  0  0
  146.0611  132.9872  153.2856 H   0  0  0  0  0  0  0  0  0  0  0  0
  144.6260  131.9994  153.0366 H   0  0  0  0  0  0  0  0  0  0  0  0
  147.2023  131.8698  151.4500 H   0  0  0  0  0  0  0  0  0  0  0  0
  146.2730  130.5359  152.1529 H   0  0  0  0  0  0  0  0  0  0  0  0
  145.9881  133.2232  149.6759 H   0  0  0  0  0  0  0  0  0  0  0  0
  143.6728  133.8715  148.9056 H   0  0  0  0  0  0  0  0  0  0  0  0
  143.0525  132.3493  149.5486 H   0  0  0  0  0  0  0  0  0  0  0  0
  144.2121  132.3389  148.2260 H   0  0  0  0  0  0  0  0  0  0  0  0
  1  2  1  0  0  0  0
  1 29  1  0  0  0  0
  1 30  1  0  0  0  0
  1 31  1  0  0  0  0
  2 28  1  0  0  0  0
  2  3  1  0  0  0  0
  2 32  1  0  0  0  0
  3  4  1  0  0  0  0
  3 33  1  0  0  0  0
  3 34  1  0  0  0  0
  4  5  1  0  0  0  0
  4 21  1  0  0  0  0
  5 10  1  0  0  0  0
  5  6  2  0  0  0  0
  6  7  1  0  0  0  0
  7  8  2  0  0  0  0
  7 35  1  0  0  0  0
  8  9  1  0  0  0  0
  9 13  1  0  0  0  0
  9 10  2  0  0  0  0
 10 11  1  0  0  0  0
 11 12  2  0  0  0  0
 12 13  1  0  0  0  0
 12 36  1  0  0  0  0
 13 14  1  0  0  0  0
 14 15  1  0  0  0  0
 14 37  1  0  0  0  0
 14 38  1  0  0  0  0
 15 20  1  0  0  0  0
 15 16  1  0  0  0  0
 15 17  1  0  0  0  0
 16 39  1  0  0  0  0
 17 18  1  0  0  0  0
 17 40  1  0  0  0  0
 17 41  1  0  0  0  0
 18 19  1  0  0  0  0
 18 42  1  0  0  0  0
 18 43  1  0  0  0  0
 19 20  1  0  0  0  0
 20 44  1  0  0  0  0
 20 45  1  0  0  0  0
 21 22  1  0  0  0  0
 21 46  1  0  0  0  0
 21 47  1  0  0  0  0
 22 26  1  0  0  0  0
 22 23  1  0  0  0  0
 22 28  1  0  0  0  0
 23 24  1  0  0  0  0
 23 48  1  0  0  0  0
 23 49  1  0  0  0  0
 24 25  1  0  0  0  0
 24 50  1  0  0  0  0
 24 51  1  0  0  0  0
 25 26  1  0  0  0  0
 26 27  1  0  0  0  0
 26 52  1  0  0  0  0
 27 53  1  0  0  0  0
 27 54  1  0  0  0  0
 27 55  1  0  0  0  0
M  END
> <s_m_source_file>
AV-unprocessed.smi

> <i_m_source_file_index>
281

> <i_lp_mmshare_version>
43012

> <i_f3d_flags>
0

> <s_epik_input>
W0NIM11bQ0BASF0xT1tDSDJdW0NIMl1bQ0BAXTEyW0NIMl1OKFtDSDJdW0NASF0oTzIpW0NIM10pYyhuW2NIXW4zKWMoYzM0KW5bY0hdbjRbQ0gyXVtDQEBdNShbT0hdKVtDSDJdW0NIMl1PW0NIMl01

> <s_epik_cmdline>
J2VwaWtfcHl0aG9uJywgJy1waCcsICc3LjAnLCAnLXRuJywgJzgnLCAnLW1hJywgJzIwMCcsICctbWV0YWxfYmluZGluZycsICctaW1hZScsICc8aW5maWxlLm1hZT4nLCAnLW9tYWUnLCAnPG91dGZpbGUubWFlPic=

> <r_lp_tautomer_probability>
1

> <r_epik_Ionization_Penalty>
0.00571331

> <r_epik_Ionization_Penalty_Charging>
0

> <r_epik_Ionization_Penalty_Neutral>
0.00571331

> <r_epik_State_Penalty>
0.00399586

> <r_epik_Charging_Adjusted_Penalty>
0.00399586

> <i_epik_Tot_Q>
0

> <i_epik_Tot_abs_Q>
0

> <r_epik_Metal_State_Penalty>
-0

> <b_epik_Metal_Only>
0

> <s_lp_Force_Field>
OPLS_2005

> <r_lp_Energy>
53.0608

> <b_lp_Chiralities_Consistent>
1

> <s_lp_Variant>
AV-unprocessed.smi:281-3

> <Gold.Version>
5.8.1

> <Gold.Id.Protein>
6NUR|6NUR_protein|mol2

> <Gold.PLP.Fitness>
45.7320

> <Gold.PLP.PLP>
-39.0022

> <Gold.PLP.part.hbond>
-4.0000

> <Gold.PLP.part.metal>
0.0000

> <Gold.PLP.part.buried>
-4.0665

> <Gold.PLP.part.nonpolar>
-32.4407

> <Gold.PLP.part.repulsive>
0.9602

> <Gold.PLP.ligand.clash>
0.0000

> <Gold.PLP.ligand.torsion>
0.2413

> <Gold.PLP.Chemscore.Hbond>
2.0000

> <Gold.PLP.Chemscore.CHOScore>
0.3041

> <Gold.PLP.Chemscore.Metal>
0.0000

> <Gold.Chemscore.Hbonds>
donor molecule, donor type, donor heavy atom, donor atom, acceptor molecule, acceptor atom, score
      L1  H    16    39       P1  7957  1.00
      P1  H  7997  8008       L1    19  1.00
      L1  C     7    35       P1 10175  0.32

> <Gold.PLP.Chemscore.Internal.Correction>
0.3001

> <Gold.Rescore>
     Score         DG    S(hbond)    S(metal)    S(lipo)     H(rot)  DE(clash)    DE(int)     intcor
     16.97     -17.45       1.87        0.00      94.67       2.09       0.20       0.27       ----

> <Gold.Chemscore.Fitness>
16.9742

> <Gold.Chemscore.DG>
-17.4481

> <Gold.Chemscore.ZeroCoef>
-5.4800

> <Gold.Chemscore.Hbond>
1.8710

> <Gold.Chemscore.Metal>
0.0000

> <Gold.Chemscore.Lipo>
94.6688

> <Gold.Chemscore.Internal_Hbond>
0.0000

> <Gold.Chemscore.DEClash>
0.2018

> <Gold.Chemscore.DEInternal>
0.2720

> <Gold.Chemscore.Rot>
2.0927

> <Gold.Chemscore.Internal.Correction>
   9.000000E+99

> <Gold.Chemscore.Hbonds>
donor molecule, donor type, donor heavy atom, donor atom, acceptor molecule, acceptor atom, score
      L1  H    16    39       P1  7957  0.95
      P1  H  7997  8008       L1    19  0.87

> <Gold.Chemscore.Hbond.Weighted>
-6.2492

> <Gold.Chemscore.Metal.Weighted>
-0.0000

> <Gold.Chemscore.Lipo.Weighted>
-11.0763

> <Gold.Chemscore.Internal_Hbond.Weighted>
0.0000

> <Gold.Chemscore.DEClash.Weighted>
0.2018

> <Gold.Chemscore.DEInternal.Weighted>
0.2720

> <Gold.Chemscore.Rot.Weighted>
5.3573

> <Gold.Chemscore.Internal.Correction.Weighted>
   9.000000E+99

> <Gold.Protein.RotatedTorsions>
[ 6907 6896 6895 6894 ] final   68.25 input  -60.11 | X-H torsion
[ 7974 7965 7964 7962 ] final -143.41 input  175.53 | X-H torsion
[ 8008 7997 7996 7995 ] final  -16.48 input   59.86 | X-H torsion
[ 10167 10162 10161 10158 ] final   63.30 input  -65.29 | X-H torsion
[ 10718 10713 10712 10709 ] final   51.75 input   66.30 | X-H torsion
[ 10763 10752 10751 10750 ] final -159.84 input  -60.55 | X-H torsion
[ 11005 11000 10999 10996 ] final -132.91 input  -57.11 | X-H torsion

> <Gold.Protein.ActiveResidues>
 VAL166  LYS551  ARG553  GLY616  TRP617  ASP618  TYR619  PRO620  LYS621  CYS622 
 ASP623  PHE694  ASN695  SER759  ASP760  ASP761  ALA762  ILE779  LEU786  VAL792 
 PHE793  MET794  SER795  GLU796  ALA797  LYS798  CYS799  TRP800  GLU811  SER814 

> <Gold.Protein.RotatedAtoms>
  152.4607  134.5189  159.9776 H   0  0  0  0  0  0  0  0  0  0  0  0  # atno 6907 bound_to 6896
  151.5239  133.3455  159.2914 H   0  0  0  0  0  0  0  0  0  0  0  0  # atno 6908 bound_to 6896
  150.8569  134.7940  159.7115 H   0  0  0  0  0  0  0  0  0  0  0  0  # atno 6909 bound_to 6896
  144.8372  140.5839  143.5476 H   0  0  0  0  0  0  0  0  0  0  0  0  # atno 7974 bound_to 7965
  154.5049  140.2168  155.9270 H   0  0  0  0  0  0  0  0  0  0  0  0  # atno 8008 bound_to 7997
  156.1481  140.3166  155.8571 H   0  0  0  0  0  0  0  0  0  0  0  0  # atno 8009 bound_to 7997
  155.3991  140.0483  157.3028 H   0  0  0  0  0  0  0  0  0  0  0  0  # atno 8010 bound_to 7997
  140.1345  144.4611  150.6846 H   0  0  0  0  0  0  0  0  0  0  0  0  # atno 10167 bound_to 10162
  157.5010  130.8438  149.8317 H   0  0  0  0  0  0  0  0  0  0  0  0  # atno 10718 bound_to 10713
  154.7441  135.3076  154.8676 H   0  0  0  0  0  0  0  0  0  0  0  0  # atno 10763 bound_to 10752
  153.9482  135.6767  153.4748 H   0  0  0  0  0  0  0  0  0  0  0  0  # atno 10764 bound_to 10752
  153.1038  135.4899  154.8840 H   0  0  0  0  0  0  0  0  0  0  0  0  # atno 10765 bound_to 10752
  140.9128  134.1546  157.4376 H   0  0  0  0  0  0  0  0  0  0  0  0  # atno 11005 bound_to 11000
  145.4770  139.1498  143.3783 LP  0  0  0  0  0  0  0  0  0  0  0  0  # atno 17320 bound_to 7965
  146.2669  140.4905  142.8830 LP  0  0  0  0  0  0  0  0  0  0  0  0  # atno 17321 bound_to 7965
  140.6797  143.2321  151.5416 LP  0  0  0  0  0  0  0  0  0  0  0  0  # atno 17342 bound_to 10162
  139.5503  144.2414  152.1517 LP  0  0  0  0  0  0  0  0  0  0  0  0  # atno 17343 bound_to 10162
  156.0229  130.3789  150.1908 LP  0  0  0  0  0  0  0  0  0  0  0  0  # atno 17370 bound_to 10713
  157.0097  130.9947  151.3369 LP  0  0  0  0  0  0  0  0  0  0  0  0  # atno 17371 bound_to 10713
  139.8760  134.9942  156.5682 LP  0  0  0  0  0  0  0  0  0  0  0  0  # atno 17394 bound_to 11000
  140.8088  133.8446  155.8791 LP  0  0  0  0  0  0  0  0  0  0  0  0  # atno 17395 bound_to 11000

$$$$
