AV-unprocessed.smi:672|AV-procd|sdf|3294|dock6
  -GOLD-   22720 0253D 1   1.00000     0.00000
 Structure written by MMmdl.
 35 36  0  0  0  0  0  0  0  0  2 V2000
  152.8672  142.7670  159.3300 C   0  0  0  0  0  0  0  0  0  0  0  0
  152.2711  141.3628  159.4761 C   0  0  0  0  0  0  0  0  0  0  0  0
  151.9360  140.7430  158.1606 C   0  0  0  0  0  0  0  0  0  0  0  0
  152.6908  139.8000  157.5904 N   0  0  0  0  0  0  0  0  0  0  0  0
  152.1892  139.4026  156.3597 N   0  0  0  0  0  0  0  0  0  0  0  0
  151.0799  140.0664  156.0044 C   0  0  0  0  0  0  0  0  0  0  0  0
  150.4393  139.8315  154.8474 N   0  5  0  0  0  0  0  0  0  0  0  0
  149.0895  139.7460  154.8282 C   0  0  0  0  0  0  0  0  0  0  0  0
  148.3475  139.6848  155.8114 O   0  0  0  0  0  0  0  0  0  0  0  0
  148.5661  139.7320  153.5938 N   0  0  0  0  0  0  0  0  0  0  0  0
  147.1442  139.6442  153.2678 C   0  0  1  0  0  0  0  0  0  0  0  0
  146.9138  139.5590  151.7451 C   0  0  0  0  0  0  0  0  0  0  0  0
  146.4013  138.1443  151.4717 C   0  0  0  0  0  0  0  0  0  0  0  0
  145.6624  137.7611  152.7526 C   0  0  1  0  0  0  0  0  0  0  0  0
  145.4370  135.9686  152.9428 S   0  0  0  0  0  0  0  0  0  0  0  0
  144.6843  135.5664  151.3441 C   0  0  0  0  0  0  0  0  0  0  0  0
  146.5218  138.3680  153.8648 C   0  0  0  0  0  0  0  0  0  0  0  0
  150.5499  141.2432  157.2060 S   0  0  0  0  0  0  0  0  0  0  0  0
  153.0988  143.1942  160.3056 H   0  0  0  0  0  0  0  0  0  0  0  0
  152.1706  143.4393  158.8281 H   0  0  0  0  0  0  0  0  0  0  0  0
  153.7890  142.7438  158.7479 H   0  0  0  0  0  0  0  0  0  0  0  0
  152.9710  140.7143  160.0042 H   0  0  0  0  0  0  0  0  0  0  0  0
  151.3660  141.4044  160.0828 H   0  0  0  0  0  0  0  0  0  0  0  0
  149.2096  139.7866  152.8179 H   0  0  0  0  0  0  0  0  0  0  0  0
  146.6228  140.5172  153.6653 H   0  0  0  0  0  0  0  0  0  0  0  0
  146.1493  140.2818  151.4581 H   0  0  0  0  0  0  0  0  0  0  0  0
  147.8038  139.7870  151.1571 H   0  0  0  0  0  0  0  0  0  0  0  0
  145.7671  138.0978  150.5862 H   0  0  0  0  0  0  0  0  0  0  0  0
  147.2478  137.4744  151.3135 H   0  0  0  0  0  0  0  0  0  0  0  0
  144.6839  138.2437  152.7623 H   0  0  0  0  0  0  0  0  0  0  0  0
  144.4433  134.5043  151.3009 H   0  0  0  0  0  0  0  0  0  0  0  0
  145.3683  135.7971  150.5276 H   0  0  0  0  0  0  0  0  0  0  0  0
  143.7653  136.1348  151.2019 H   0  0  0  0  0  0  0  0  0  0  0  0
  147.3049  137.6610  154.1448 H   0  0  0  0  0  0  0  0  0  0  0  0
  145.9406  138.5755  154.7639 H   0  0  0  0  0  0  0  0  0  0  0  0
  1  2  1  0  0  0  0
  1 19  1  0  0  0  0
  1 20  1  0  0  0  0
  1 21  1  0  0  0  0
  2  3  1  0  0  0  0
  2 22  1  0  0  0  0
  2 23  1  0  0  0  0
  3 18  1  0  0  0  0
  3  4  2  0  0  0  0
  4  5  1  0  0  0  0
  5  6  2  0  0  0  0
  6  7  1  0  0  0  0
  6 18  1  0  0  0  0
  7  8  1  0  0  0  0
  8  9  2  0  0  0  0
  8 10  1  0  0  0  0
 10 11  1  0  0  0  0
 10 24  1  0  0  0  0
 11 17  1  0  0  0  0
 11 12  1  0  0  0  0
 11 25  1  0  0  0  0
 12 13  1  0  0  0  0
 12 26  1  0  0  0  0
 12 27  1  0  0  0  0
 13 14  1  0  0  0  0
 13 28  1  0  0  0  0
 13 29  1  0  0  0  0
 14 15  1  0  0  0  0
 14 17  1  0  0  0  0
 14 30  1  0  0  0  0
 15 16  1  0  0  0  0
 16 31  1  0  0  0  0
 16 32  1  0  0  0  0
 16 33  1  0  0  0  0
 17 34  1  0  0  0  0
 17 35  1  0  0  0  0
M  CHG  1   7  -1
M  END
> <s_m_source_file>
AV-unprocessed.smi

> <i_m_source_file_index>
672

> <i_lp_mmshare_version>
43012

> <i_f3d_flags>
0

> <s_epik_input>
W0NIM11bQ0gyXWMxbm5jKHMxKVtOSF1DKD1PKVtOSF1bQ0BASF0yW0NIMl1bQ0gyXVtDQEhdKFtDSDJdMilTW0NIM10=

> <s_epik_cmdline>
J2VwaWtfcHl0aG9uJywgJy1waCcsICc3LjAnLCAnLXRuJywgJzgnLCAnLW1hJywgJzIwMCcsICctbWV0YWxfYmluZGluZycsICctaW1hZScsICc8aW5maWxlLm1hZT4nLCAnLW9tYWUnLCAnPG91dGZpbGUubWFlPic=

> <r_lp_tautomer_probability>
1

> <r_epik_Ionization_Penalty>
4.49964

> <r_epik_Ionization_Penalty_Charging>
4.32991

> <r_epik_Ionization_Penalty_Neutral>
0.169727

> <r_epik_State_Penalty>
4.32952

> <r_epik_Charging_Adjusted_Penalty>
8.65943

> <i_epik_Tot_Q>
-1

> <i_epik_Tot_abs_Q>
1

> <r_epik_Metal_State_Penalty>
0.740482

> <b_epik_Metal_Only>
1

> <s_lp_Force_Field>
OPLS_2005

> <r_lp_Energy>
10.5366

> <b_lp_Chiralities_Consistent>
1

> <s_lp_Variant>
AV-unprocessed.smi:672-6

> <Gold.Version>
5.8.1

> <Gold.Id.Protein>
6NUR|6NUR_protein|mol2

> <Gold.PLP.Fitness>
41.1073

> <Gold.PLP.PLP>
-33.2773

> <Gold.PLP.part.hbond>
-3.9025

> <Gold.PLP.part.metal>
0.0000

> <Gold.PLP.part.buried>
2.6343

> <Gold.PLP.part.nonpolar>
-32.5054

> <Gold.PLP.part.repulsive>
0.2073

> <Gold.PLP.ligand.clash>
0.0000

> <Gold.PLP.ligand.torsion>
0.6197

> <Gold.PLP.Chemscore.Hbond>
3.0000

> <Gold.PLP.Chemscore.CHOScore>
0.0000

> <Gold.PLP.Chemscore.Metal>
0.0000

> <Gold.Chemscore.Hbonds>
donor molecule, donor type, donor heavy atom, donor atom, acceptor molecule, acceptor atom, score
      L1  H    10    24       P1  7957  1.00
      P1  H  7989  7998       L1     7  0.88
      P1  H  7997  8010       L1     4  0.70

> <Gold.PLP.Chemscore.Internal.Correction>
0.0695

> <Gold.Rescore>
     Score         DG    S(hbond)    S(metal)    S(lipo)     H(rot)  DE(clash)    DE(int)     intcor
     12.59     -17.38       2.03        0.00      73.07       1.34       1.52       3.27       ----

> <Gold.Chemscore.Fitness>
12.5943

> <Gold.Chemscore.DG>
-17.3839

> <Gold.Chemscore.ZeroCoef>
-5.4800

> <Gold.Chemscore.Hbond>
2.0323

> <Gold.Chemscore.Metal>
0.0000

> <Gold.Chemscore.Lipo>
73.0671

> <Gold.Chemscore.Internal_Hbond>
0.0000

> <Gold.Chemscore.DEClash>
1.5151

> <Gold.Chemscore.DEInternal>
3.2745

> <Gold.Chemscore.Rot>
1.3410

> <Gold.Chemscore.Internal.Correction>
   9.000000E+99

> <Gold.Chemscore.Hbonds>
donor molecule, donor type, donor heavy atom, donor atom, acceptor molecule, acceptor atom, score
      L1  H    10    24       P1  7957  0.97
      P1  H  7989  7998       L1     7  0.30
      P1  H  7997  8010       L1     4  0.07

> <Gold.Chemscore.Hbond.Weighted>
-6.7880

> <Gold.Chemscore.Metal.Weighted>
-0.0000

> <Gold.Chemscore.Lipo.Weighted>
-8.5489

> <Gold.Chemscore.Internal_Hbond.Weighted>
0.0000

> <Gold.Chemscore.DEClash.Weighted>
1.5151

> <Gold.Chemscore.DEInternal.Weighted>
3.2745

> <Gold.Chemscore.Rot.Weighted>
3.4329

> <Gold.Chemscore.Internal.Correction.Weighted>
   9.000000E+99

> <Gold.Protein.RotatedTorsions>
[ 6907 6896 6895 6894 ] final   38.24 input  -60.11 | X-H torsion
[ 7974 7965 7964 7962 ] final  -62.82 input  175.53 | X-H torsion
[ 8008 7997 7996 7995 ] final   41.24 input   59.86 | X-H torsion
[ 10167 10162 10161 10158 ] final  -28.93 input  -65.29 | X-H torsion
[ 10718 10713 10712 10709 ] final   96.27 input   66.30 | X-H torsion
[ 10763 10752 10751 10750 ] final   98.34 input  -60.55 | X-H torsion
[ 11005 11000 10999 10996 ] final   95.10 input  -57.11 | X-H torsion

> <Gold.Protein.ActiveResidues>
 VAL166  LYS551  ARG553  GLY616  TRP617  ASP618  TYR619  PRO620  LYS621  CYS622 
 ASP623  PHE694  ASN695  SER759  ASP760  ASP761  ALA762  ILE779  LEU786  VAL792 
 PHE793  MET794  SER795  GLU796  ALA797  LYS798  CYS799  TRP800  GLU811  SER814 

> <Gold.Protein.RotatedAtoms>
  152.1538  134.8967  160.0546 H   0  0  0  0  0  0  0  0  0  0  0  0  # atno 6907 bound_to 6896
  151.9988  133.3813  159.4182 H   0  0  0  0  0  0  0  0  0  0  0  0  # atno 6908 bound_to 6896
  150.6879  134.3778  159.5064 H   0  0  0  0  0  0  0  0  0  0  0  0  # atno 6909 bound_to 6896
  145.7866  140.8732  143.0302 H   0  0  0  0  0  0  0  0  0  0  0  0  # atno 7974 bound_to 7965
  155.2663  140.3363  155.4269 H   0  0  0  0  0  0  0  0  0  0  0  0  # atno 8008 bound_to 7997
  156.2152  140.1786  156.7646 H   0  0  0  0  0  0  0  0  0  0  0  0  # atno 8009 bound_to 7997
  154.5744  140.0664  156.8996 H   0  0  0  0  0  0  0  0  0  0  0  0  # atno 8010 bound_to 7997
  140.7265  143.3969  151.1331 H   0  0  0  0  0  0  0  0  0  0  0  0  # atno 10167 bound_to 10162
  157.6929  131.0572  150.4465 H   0  0  0  0  0  0  0  0  0  0  0  0  # atno 10718 bound_to 10713
  153.2879  135.4151  155.1139 H   0  0  0  0  0  0  0  0  0  0  0  0  # atno 10763 bound_to 10752
  154.8511  135.3511  154.6022 H   0  0  0  0  0  0  0  0  0  0  0  0  # atno 10764 bound_to 10752
  153.6444  135.7055  153.5288 H   0  0  0  0  0  0  0  0  0  0  0  0  # atno 10765 bound_to 10752
  139.8792  134.8881  156.3962 H   0  0  0  0  0  0  0  0  0  0  0  0  # atno 11005 bound_to 11000
  144.6788  140.0065  143.7484 LP  0  0  0  0  0  0  0  0  0  0  0  0  # atno 17320 bound_to 7965
  146.0019  139.3098  143.0922 LP  0  0  0  0  0  0  0  0  0  0  0  0  # atno 17321 bound_to 7965
  139.7583  143.8674  152.3094 LP  0  0  0  0  0  0  0  0  0  0  0  0  # atno 17342 bound_to 10162
  139.8551  144.7145  150.9167 LP  0  0  0  0  0  0  0  0  0  0  0  0  # atno 17343 bound_to 10162
  156.4820  130.4076  149.6456 LP  0  0  0  0  0  0  0  0  0  0  0  0  # atno 17370 bound_to 10713
  156.3498  130.7426  151.2384 LP  0  0  0  0  0  0  0  0  0  0  0  0  # atno 17371 bound_to 10713
  140.9299  133.7587  156.0011 LP  0  0  0  0  0  0  0  0  0  0  0  0  # atno 17394 bound_to 11000
  140.8343  134.3141  157.5337 LP  0  0  0  0  0  0  0  0  0  0  0  0  # atno 17395 bound_to 11000

$$$$
