AV-unprocessed.smi:2020|AV-procd|sdf|8174|dock10
  -GOLD-   2272010423D 1   1.00000     0.00000
 Structure written by MMmdl.
 40 41  0  0  0  0  0  0  0  0  1 V2000
  151.3673  141.4679  156.6275 C   0  0  0  0  0  0  0  0  0  0  0  0
  150.7338  140.4831  155.7060 C   0  0  0  0  0  0  0  0  0  0  0  0
  149.4488  140.5338  155.3467 N   0  0  0  0  0  0  0  0  0  0  0  0
  149.0934  139.5043  154.4695 C   0  0  0  0  0  0  0  0  0  0  0  0
  147.6880  139.4090  153.9581 C   0  0  0  0  0  0  0  0  0  0  0  0
  146.9662  138.1528  154.4743 C   0  0  0  0  0  0  0  0  0  0  0  0
  147.1157  137.0293  153.5568 N   0  0  0  0  0  0  0  0  0  0  0  0
  146.2048  136.0640  153.3695 C   0  0  0  0  0  0  0  0  0  0  0  0
  145.1237  136.0122  153.9566 O   0  0  0  0  0  0  0  0  0  0  0  0
  146.6163  135.1602  152.4692 N   0  0  0  0  0  0  0  0  0  0  0  0
  145.8574  133.9870  152.0463 C   0  0  2  0  0  0  0  0  0  0  0  0
  146.7343  132.7198  152.1066 C   0  0  0  0  0  0  0  0  0  0  0  0
  145.9708  131.4817  151.6052 C   0  0  0  0  0  0  0  0  0  0  0  0
  145.3872  131.6873  150.1946 C   0  0  2  0  0  0  0  0  0  0  0  0
  146.4294  131.7246  149.2397 O   0  0  0  0  0  0  0  0  0  0  0  0
  144.5488  132.9767  150.1104 C   0  0  0  0  0  0  0  0  0  0  0  0
  145.3181  134.2077  150.6211 C   0  0  0  0  0  0  0  0  0  0  0  0
  150.1377  138.6660  154.1683 C   0  0  0  0  0  0  0  0  0  0  0  0
  151.6071  139.1421  154.9745 S   0  0  0  0  0  0  0  0  0  0  0  0
  150.6684  141.7547  157.4139 H   0  0  0  0  0  0  0  0  0  0  0  0
  151.6596  142.3601  156.0737 H   0  0  0  0  0  0  0  0  0  0  0  0
  152.2546  141.0357  157.0905 H   0  0  0  0  0  0  0  0  0  0  0  0
  147.1259  140.2962  154.2527 H   0  0  0  0  0  0  0  0  0  0  0  0
  147.6940  139.4090  152.8675 H   0  0  0  0  0  0  0  0  0  0  0  0
  147.3342  137.8776  155.4643 H   0  0  0  0  0  0  0  0  0  0  0  0
  145.9010  138.3572  154.5853 H   0  0  0  0  0  0  0  0  0  0  0  0
  147.9740  136.9845  153.0272 H   0  0  0  0  0  0  0  0  0  0  0  0
  147.5219  135.2924  152.0433 H   0  0  0  0  0  0  0  0  0  0  0  0
  145.0042  133.8590  152.7152 H   0  0  0  0  0  0  0  0  0  0  0  0
  147.6328  132.8631  151.5047 H   0  0  0  0  0  0  0  0  0  0  0  0
  147.0751  132.5453  153.1278 H   0  0  0  0  0  0  0  0  0  0  0  0
  146.6215  130.6068  151.6227 H   0  0  0  0  0  0  0  0  0  0  0  0
  145.1564  131.2669  152.2983 H   0  0  0  0  0  0  0  0  0  0  0  0
  144.7555  130.8351  149.9424 H   0  0  0  0  0  0  0  0  0  0  0  0
  147.1106  131.1302  149.5147 H   0  0  0  0  0  0  0  0  0  0  0  0
  144.2125  133.1428  149.0862 H   0  0  0  0  0  0  0  0  0  0  0  0
  143.6458  132.8524  150.7096 H   0  0  0  0  0  0  0  0  0  0  0  0
  144.6637  135.0801  150.6009 H   0  0  0  0  0  0  0  0  0  0  0  0
  146.1435  134.4273  149.9423 H   0  0  0  0  0  0  0  0  0  0  0  0
  150.1322  137.8010  153.5217 H   0  0  0  0  0  0  0  0  0  0  0  0
  1  2  1  0  0  0  0
  1 20  1  0  0  0  0
  1 21  1  0  0  0  0
  1 22  1  0  0  0  0
  2 19  1  0  0  0  0
  2  3  2  0  0  0  0
  3  4  1  0  0  0  0
  4  5  1  0  0  0  0
  4 18  2  0  0  0  0
  5  6  1  0  0  0  0
  5 23  1  0  0  0  0
  5 24  1  0  0  0  0
  6  7  1  0  0  0  0
  6 25  1  0  0  0  0
  6 26  1  0  0  0  0
  7  8  1  0  0  0  0
  7 27  1  0  0  0  0
  8  9  2  0  0  0  0
  8 10  1  0  0  0  0
 10 11  1  0  0  0  0
 10 28  1  0  0  0  0
 11 17  1  0  0  0  0
 11 12  1  0  0  0  0
 11 29  1  0  0  0  0
 12 13  1  0  0  0  0
 12 30  1  0  0  0  0
 12 31  1  0  0  0  0
 13 14  1  0  0  0  0
 13 32  1  0  0  0  0
 13 33  1  0  0  0  0
 14 15  1  0  0  0  0
 14 16  1  0  0  0  0
 14 34  1  0  0  0  0
 15 35  1  0  0  0  0
 16 17  1  0  0  0  0
 16 36  1  0  0  0  0
 16 37  1  0  0  0  0
 17 38  1  0  0  0  0
 17 39  1  0  0  0  0
 18 19  1  0  0  0  0
 18 40  1  0  0  0  0
M  END
> <s_m_source_file>
AV-unprocessed.smi

> <i_m_source_file_index>
2020

> <i_lp_mmshare_version>
43012

> <i_f3d_flags>
0

> <s_epik_input>
W0NIM11jMW5jKFtjSF1zMSlbQ0gyXVtDSDJdW05IXUMoPU8pW05IXVtDQEBIXTJbQ0gyXVtDSDJdW0NAQEhdKFtPSF0pW0NIMl1bQ0gyXTI=

> <s_epik_cmdline>
J2VwaWtfcHl0aG9uJywgJy1waCcsICc3LjAnLCAnLXRuJywgJzgnLCAnLW1hJywgJzIwMCcsICctbWV0YWxfYmluZGluZycsICctaW1hZScsICc8aW5maWxlLm1hZT4nLCAnLW9tYWUnLCAnPG91dGZpbGUubWFlPic=

> <r_epik_Ionization_Penalty>
0.00202099

> <r_epik_Ionization_Penalty_Charging>
0

> <r_epik_Ionization_Penalty_Neutral>
0.00202099

> <r_epik_State_Penalty>
0.00133629

> <r_epik_Charging_Adjusted_Penalty>
0.00133629

> <i_epik_Tot_Q>
0

> <i_epik_Tot_abs_Q>
0

> <r_epik_Metal_State_Penalty>
-0

> <b_epik_Metal_Only>
0

> <s_lp_Force_Field>
OPLS_2005

> <r_lp_Energy>
2.55027

> <b_lp_Chiralities_Consistent>
1

> <s_lp_Variant>
AV-unprocessed.smi:2020-2

> <Gold.Version>
5.8.1

> <Gold.Id.Protein>
6NUR|6NUR_protein|mol2

> <Gold.PLP.Fitness>
43.9248

> <Gold.PLP.PLP>
-33.1157

> <Gold.PLP.part.hbond>
-3.0000

> <Gold.PLP.part.metal>
0.0000

> <Gold.PLP.part.buried>
-3.6021

> <Gold.PLP.part.nonpolar>
-26.3905

> <Gold.PLP.part.repulsive>
0.1368

> <Gold.PLP.ligand.clash>
0.0000

> <Gold.PLP.ligand.torsion>
0.5633

> <Gold.PLP.Chemscore.Hbond>
2.9760

> <Gold.PLP.Chemscore.CHOScore>
0.9986

> <Gold.PLP.Chemscore.Metal>
0.0000

> <Gold.Chemscore.Hbonds>
donor molecule, donor type, donor heavy atom, donor atom, acceptor molecule, acceptor atom, score
      L1  H     7    27       P1  7948  1.00
      L1  H    10    28       P1  7948  1.00
      L1  H    15    35       P1 10747  0.99
      L1  C    18    40       P1  7948  1.00
      L1  C    18    40       P1  7949  0.01

> <Gold.PLP.Chemscore.Internal.Correction>
0.0119

> <Gold.Rescore>
     Score         DG    S(hbond)    S(metal)    S(lipo)     H(rot)  DE(clash)    DE(int)     intcor
     19.35     -19.93       2.84        0.00      88.22       2.10       0.07       0.51       ----

> <Gold.Chemscore.Fitness>
19.3466

> <Gold.Chemscore.DG>
-19.9272

> <Gold.Chemscore.ZeroCoef>
-5.4800

> <Gold.Chemscore.Hbond>
2.8444

> <Gold.Chemscore.Metal>
0.0000

> <Gold.Chemscore.Lipo>
88.2231

> <Gold.Chemscore.Internal_Hbond>
0.0000

> <Gold.Chemscore.DEClash>
0.0668

> <Gold.Chemscore.DEInternal>
0.5138

> <Gold.Chemscore.Rot>
2.0997

> <Gold.Chemscore.Internal.Correction>
   9.000000E+99

> <Gold.Chemscore.Hbonds>
donor molecule, donor type, donor heavy atom, donor atom, acceptor molecule, acceptor atom, score
      L1  H     7    27       P1  7948  0.95
      L1  H    10    28       P1  7948  0.94
      L1  H    15    35       P1 10747  0.89

> <Gold.Chemscore.Hbond.Weighted>
-9.5003

> <Gold.Chemscore.Metal.Weighted>
-0.0000

> <Gold.Chemscore.Lipo.Weighted>
-10.3221

> <Gold.Chemscore.Internal_Hbond.Weighted>
0.0000

> <Gold.Chemscore.DEClash.Weighted>
0.0668

> <Gold.Chemscore.DEInternal.Weighted>
0.5138

> <Gold.Chemscore.Rot.Weighted>
5.3752

> <Gold.Chemscore.Internal.Correction.Weighted>
   9.000000E+99

> <Gold.Protein.RotatedTorsions>
[ 6907 6896 6895 6894 ] final  154.09 input  -60.11 | X-H torsion
[ 7974 7965 7964 7962 ] final -152.84 input  175.53 | X-H torsion
[ 8008 7997 7996 7995 ] final   11.57 input   59.86 | X-H torsion
[ 10167 10162 10161 10158 ] final  -14.67 input  -65.29 | X-H torsion
[ 10718 10713 10712 10709 ] final   16.08 input   66.30 | X-H torsion
[ 10763 10752 10751 10750 ] final -138.98 input  -60.55 | X-H torsion
[ 11005 11000 10999 10996 ] final   64.29 input  -57.11 | X-H torsion

> <Gold.Protein.ActiveResidues>
 VAL166  LYS551  ARG553  GLY616  TRP617  ASP618  TYR619  PRO620  LYS621  CYS622 
 ASP623  PHE694  ASN695  SER759  ASP760  ASP761  ALA762  ILE779  LEU786  VAL792 
 PHE793  MET794  SER795  GLU796  ALA797  LYS798  CYS799  TRP800  GLU811  SER814 

> <Gold.Protein.RotatedAtoms>
  152.0634  133.4072  159.4427 H   0  0  0  0  0  0  0  0  0  0  0  0  # atno 6907 bound_to 6896
  150.6865  134.3175  159.4781 H   0  0  0  0  0  0  0  0  0  0  0  0  # atno 6908 bound_to 6896
  152.0998  134.9349  160.0620 H   0  0  0  0  0  0  0  0  0  0  0  0  # atno 6909 bound_to 6896
  144.7773  140.4608  143.5864 H   0  0  0  0  0  0  0  0  0  0  0  0  # atno 7974 bound_to 7965
  154.8088  140.2864  155.5868 H   0  0  0  0  0  0  0  0  0  0  0  0  # atno 8008 bound_to 7997
  156.2986  140.2572  156.2901 H   0  0  0  0  0  0  0  0  0  0  0  0  # atno 8009 bound_to 7997
  154.9472  140.0380  157.2115 H   0  0  0  0  0  0  0  0  0  0  0  0  # atno 8010 bound_to 7997
  140.7205  143.5298  150.9534 H   0  0  0  0  0  0  0  0  0  0  0  0  # atno 10167 bound_to 10162
  157.0627  130.6315  149.5789 H   0  0  0  0  0  0  0  0  0  0  0  0  # atno 10718 bound_to 10713
  154.8622  135.3596  154.5473 H   0  0  0  0  0  0  0  0  0  0  0  0  # atno 10763 bound_to 10752
  153.6092  135.7010  153.5358 H   0  0  0  0  0  0  0  0  0  0  0  0  # atno 10764 bound_to 10752
  153.3224  135.4147  155.1388 H   0  0  0  0  0  0  0  0  0  0  0  0  # atno 10765 bound_to 10752
  139.9969  134.6504  155.9996 H   0  0  0  0  0  0  0  0  0  0  0  0  # atno 11005 bound_to 11000
  145.6151  139.1517  143.3054 LP  0  0  0  0  0  0  0  0  0  0  0  0  # atno 17320 bound_to 7965
  146.1960  140.6264  142.9124 LP  0  0  0  0  0  0  0  0  0  0  0  0  # atno 17321 bound_to 7965
  139.9017  143.6827  152.3130 LP  0  0  0  0  0  0  0  0  0  0  0  0  # atno 17342 bound_to 10162
  139.7179  144.7608  151.1003 LP  0  0  0  0  0  0  0  0  0  0  0  0  # atno 17343 bound_to 10162
  155.9973  130.5045  150.7531 LP  0  0  0  0  0  0  0  0  0  0  0  0  # atno 17370 bound_to 10713
  157.4942  131.0913  151.0391 LP  0  0  0  0  0  0  0  0  0  0  0  0  # atno 17371 bound_to 10713
  141.1611  133.6539  156.4322 LP  0  0  0  0  0  0  0  0  0  0  0  0  # atno 17394 bound_to 11000
  140.4802  134.6672  157.5167 LP  0  0  0  0  0  0  0  0  0  0  0  0  # atno 17395 bound_to 11000

$$$$
