AV-unprocessed.smi:2082|AV-procd|sdf|8489|dock3
  -GOLD-   2272011193D 1   1.00000     0.00000
 Structure written by MMmdl.
 39 40  0  0  0  0  0  0  0  0  1 V2000
  146.8009  123.4475  148.9157 C   0  0  0  0  0  0  0  0  0  0  0  0
  147.7066  124.0517  149.8220 O   0  0  0  0  0  0  0  0  0  0  0  0
  147.6122  123.5079  151.1282 C   0  0  0  0  0  0  0  0  0  0  0  0
  148.7445  124.0740  151.9899 C   0  0  0  0  0  0  0  0  0  0  0  0
  148.1889  124.9888  152.9299 O   0  0  0  0  0  0  0  0  0  0  0  0
  147.7666  126.2226  152.4799 C   0  0  0  0  0  0  0  0  0  0  0  0
  147.9000  126.5206  151.1092 C   0  0  0  0  0  0  0  0  0  0  0  0
  147.4727  127.7776  150.6402 C   0  0  0  0  0  0  0  0  0  0  0  0
  146.9317  128.7034  151.5637 C   0  0  0  0  0  0  0  0  0  0  0  0
  146.4440  129.9908  151.2132 N   0  0  0  0  0  0  0  0  0  0  0  0
  146.2876  131.0778  151.9949 C   0  0  0  0  0  0  0  0  0  0  0  0
  146.5014  131.0685  153.2076 O   0  0  0  0  0  0  0  0  0  0  0  0
  145.8236  132.1747  151.3407 N   0  0  0  0  0  0  0  0  0  0  0  0
  145.3752  132.2117  149.9403 C   0  0  0  0  0  0  0  0  0  0  0  0
  143.8501  132.4136  149.9294 C   0  0  0  0  0  0  0  0  0  0  0  0
  143.4303  133.4804  150.8397 N   0  0  0  0  0  0  0  0  0  0  0  0
  144.1853  134.0058  151.8228 C   0  0  0  0  0  0  0  0  0  0  0  0
  143.7687  134.9112  152.5413 O   0  0  0  0  0  0  0  0  0  0  0  0
  145.6062  133.4505  152.0431 C   0  0  0  0  0  0  0  0  0  0  0  0
  146.8280  128.3023  152.9115 C   0  0  0  0  0  0  0  0  0  0  0  0
  147.2365  127.0998  153.3678 N   0  0  0  0  0  0  0  0  0  0  0  0
  146.9103  123.9020  147.9310 H   0  0  0  0  0  0  0  0  0  0  0  0
  145.7679  123.5855  149.2375 H   0  0  0  0  0  0  0  0  0  0  0  0
  146.9974  122.3792  148.8165 H   0  0  0  0  0  0  0  0  0  0  0  0
  146.6504  123.7848  151.5624 H   0  0  0  0  0  0  0  0  0  0  0  0
  147.6604  122.4180  151.1048 H   0  0  0  0  0  0  0  0  0  0  0  0
  149.2793  123.2640  152.4889 H   0  0  0  0  0  0  0  0  0  0  0  0
  149.4537  124.5999  151.3486 H   0  0  0  0  0  0  0  0  0  0  0  0
  148.3181  125.7949  150.4275 H   0  0  0  0  0  0  0  0  0  0  0  0
  147.5542  127.9982  149.5873 H   0  0  0  0  0  0  0  0  0  0  0  0
  146.1320  130.0892  150.2581 H   0  0  0  0  0  0  0  0  0  0  0  0
  145.8592  133.0583  149.4503 H   0  0  0  0  0  0  0  0  0  0  0  0
  145.6501  131.3416  149.3440 H   0  0  0  0  0  0  0  0  0  0  0  0
  143.5052  132.6443  148.9213 H   0  0  0  0  0  0  0  0  0  0  0  0
  143.3509  131.4925  150.2323 H   0  0  0  0  0  0  0  0  0  0  0  0
  142.4999  133.8513  150.7111 H   0  0  0  0  0  0  0  0  0  0  0  0
  145.7728  133.3815  153.1191 H   0  0  0  0  0  0  0  0  0  0  0  0
  146.3250  134.1807  151.6697 H   0  0  0  0  0  0  0  0  0  0  0  0
  146.4081  128.9685  153.6510 H   0  0  0  0  0  0  0  0  0  0  0  0
  1  2  1  0  0  0  0
  1 22  1  0  0  0  0
  1 23  1  0  0  0  0
  1 24  1  0  0  0  0
  2  3  1  0  0  0  0
  3  4  1  0  0  0  0
  3 25  1  0  0  0  0
  3 26  1  0  0  0  0
  4  5  1  0  0  0  0
  4 27  1  0  0  0  0
  4 28  1  0  0  0  0
  5  6  1  0  0  0  0
  6 21  1  0  0  0  0
  6  7  2  0  0  0  0
  7  8  1  0  0  0  0
  7 29  1  0  0  0  0
  8  9  2  0  0  0  0
  8 30  1  0  0  0  0
  9 10  1  0  0  0  0
  9 20  1  0  0  0  0
 10 11  1  0  0  0  0
 10 31  1  0  0  0  0
 11 12  2  0  0  0  0
 11 13  1  0  0  0  0
 13 19  1  0  0  0  0
 13 14  1  0  0  0  0
 14 15  1  0  0  0  0
 14 32  1  0  0  0  0
 14 33  1  0  0  0  0
 15 16  1  0  0  0  0
 15 34  1  0  0  0  0
 15 35  1  0  0  0  0
 16 17  1  0  0  0  0
 16 36  1  0  0  0  0
 17 18  2  0  0  0  0
 17 19  1  0  0  0  0
 19 37  1  0  0  0  0
 19 38  1  0  0  0  0
 20 21  2  0  0  0  0
 20 39  1  0  0  0  0
M  END
> <s_m_source_file>
AV-unprocessed.smi

> <i_m_source_file_index>
2082

> <i_lp_mmshare_version>
43012

> <i_f3d_flags>
0

> <s_epik_input>
W0NIM11PW0NIMl1bQ0gyXU9jMVtjSF1bY0hdYyhbY0hdbjEpW05IXUMoPU8pTjJbQ0gyXVtDSDJdW05IXUMoPU8pW0NIMl0y

> <s_epik_cmdline>
J2VwaWtfcHl0aG9uJywgJy1waCcsICc3LjAnLCAnLXRuJywgJzgnLCAnLW1hJywgJzIwMCcsICctbWV0YWxfYmluZGluZycsICctaW1hZScsICc8aW5maWxlLm1hZT4nLCAnLW9tYWUnLCAnPG91dGZpbGUubWFlPic=

> <r_lp_tautomer_probability>
1

> <r_epik_Ionization_Penalty>
5.92413e-05

> <r_epik_Ionization_Penalty_Charging>
0

> <r_epik_Ionization_Penalty_Neutral>
5.92413e-05

> <r_epik_State_Penalty>
-0

> <r_epik_Charging_Adjusted_Penalty>
0

> <i_epik_Tot_Q>
0

> <i_epik_Tot_abs_Q>
0

> <r_epik_Metal_State_Penalty>
-0

> <b_epik_Metal_Only>
0

> <s_lp_Force_Field>
OPLS_2005

> <r_lp_Energy>
31.1837

> <b_lp_Chiralities_Consistent>
1

> <s_lp_Variant>
AV-unprocessed.smi:2082-1

> <Gold.Version>
5.8.1

> <Gold.Id.Protein>
6NUR|6NUR_protein|mol2

> <Gold.PLP.Fitness>
41.2265

> <Gold.PLP.PLP>
-39.8214

> <Gold.PLP.part.hbond>
-2.7673

> <Gold.PLP.part.metal>
0.0000

> <Gold.PLP.part.buried>
-5.5880

> <Gold.PLP.part.nonpolar>
-31.6151

> <Gold.PLP.part.repulsive>
0.5152

> <Gold.PLP.ligand.clash>
0.5812

> <Gold.PLP.ligand.torsion>
0.5319

> <Gold.PLP.Chemscore.Hbond>
1.0000

> <Gold.PLP.Chemscore.CHOScore>
0.0000

> <Gold.PLP.Chemscore.Metal>
0.0000

> <Gold.Chemscore.Hbonds>
donor molecule, donor type, donor heavy atom, donor atom, acceptor molecule, acceptor atom, score
      L1  H    16    36       P1 10186  1.00

> <Gold.PLP.Chemscore.Internal.Correction>
0.0502

> <Gold.Rescore>
     Score         DG    S(hbond)    S(metal)    S(lipo)     H(rot)  DE(clash)    DE(int)     intcor
     11.22     -13.39       1.00        0.00      78.64       1.81       0.14       2.02       ----

> <Gold.Chemscore.Fitness>
11.2229

> <Gold.Chemscore.DG>
-13.3855

> <Gold.Chemscore.ZeroCoef>
-5.4800

> <Gold.Chemscore.Hbond>
0.9992

> <Gold.Chemscore.Metal>
0.0000

> <Gold.Chemscore.Lipo>
78.6355

> <Gold.Chemscore.Internal_Hbond>
0.0000

> <Gold.Chemscore.DEClash>
0.1447

> <Gold.Chemscore.DEInternal>
2.0179

> <Gold.Chemscore.Rot>
1.8095

> <Gold.Chemscore.Internal.Correction>
   9.000000E+99

> <Gold.Chemscore.Hbonds>
donor molecule, donor type, donor heavy atom, donor atom, acceptor molecule, acceptor atom, score
      L1  H    16    36       P1 10186  0.78

> <Gold.Chemscore.Hbond.Weighted>
-3.3374

> <Gold.Chemscore.Metal.Weighted>
-0.0000

> <Gold.Chemscore.Lipo.Weighted>
-9.2004

> <Gold.Chemscore.Internal_Hbond.Weighted>
0.0000

> <Gold.Chemscore.DEClash.Weighted>
0.1447

> <Gold.Chemscore.DEInternal.Weighted>
2.0179

> <Gold.Chemscore.Rot.Weighted>
4.6322

> <Gold.Chemscore.Internal.Correction.Weighted>
   9.000000E+99

> <Gold.Protein.RotatedTorsions>
[ 6907 6896 6895 6894 ] final  137.86 input  -60.11 | X-H torsion
[ 7974 7965 7964 7962 ] final -167.69 input  175.53 | X-H torsion
[ 8008 7997 7996 7995 ] final -101.03 input   59.86 | X-H torsion
[ 10167 10162 10161 10158 ] final  169.14 input  -65.29 | X-H torsion
[ 10718 10713 10712 10709 ] final -137.25 input   66.30 | X-H torsion
[ 10763 10752 10751 10750 ] final  -79.12 input  -60.55 | X-H torsion
[ 11005 11000 10999 10996 ] final   12.26 input  -57.11 | X-H torsion

> <Gold.Protein.ActiveResidues>
 VAL166  LYS551  ARG553  GLY616  TRP617  ASP618  TYR619  PRO620  LYS621  CYS622 
 ASP623  PHE694  ASN695  SER759  ASP760  ASP761  ALA762  ILE779  LEU786  VAL792 
 PHE793  MET794  SER795  GLU796  ALA797  LYS798  CYS799  TRP800  GLU811  SER814 

> <Gold.Protein.RotatedAtoms>
  152.2733  133.5402  159.5452 H   0  0  0  0  0  0  0  0  0  0  0  0  # atno 6907 bound_to 6896
  150.7167  134.0667  159.3859 H   0  0  0  0  0  0  0  0  0  0  0  0  # atno 6908 bound_to 6896
  151.8581  135.0534  160.0517 H   0  0  0  0  0  0  0  0  0  0  0  0  # atno 6909 bound_to 6896
  144.7218  140.2482  143.6282 H   0  0  0  0  0  0  0  0  0  0  0  0  # atno 7974 bound_to 7965
  154.8369  140.0437  157.1515 H   0  0  0  0  0  0  0  0  0  0  0  0  # atno 8008 bound_to 7997
  154.9090  140.3011  155.5256 H   0  0  0  0  0  0  0  0  0  0  0  0  # atno 8009 bound_to 7997
  156.2990  140.2362  156.4127 H   0  0  0  0  0  0  0  0  0  0  0  0  # atno 8010 bound_to 7997
  139.4985  144.3739  151.9695 H   0  0  0  0  0  0  0  0  0  0  0  0  # atno 10167 bound_to 10162
  156.2860  130.7348  151.1359 H   0  0  0  0  0  0  0  0  0  0  0  0  # atno 10718 bound_to 10713
  154.5346  135.5706  153.6788 H   0  0  0  0  0  0  0  0  0  0  0  0  # atno 10763 bound_to 10752
  152.9948  135.6213  154.2583 H   0  0  0  0  0  0  0  0  0  0  0  0  # atno 10764 bound_to 10752
  154.2511  135.2859  155.2796 H   0  0  0  0  0  0  0  0  0  0  0  0  # atno 10765 bound_to 10752
  140.4940  134.0812  155.7778 H   0  0  0  0  0  0  0  0  0  0  0  0  # atno 11005 bound_to 11000
  145.8254  139.2062  143.1913 LP  0  0  0  0  0  0  0  0  0  0  0  0  # atno 17320 bound_to 7965
  146.0477  140.8101  142.9797 LP  0  0  0  0  0  0  0  0  0  0  0  0  # atno 17321 bound_to 7965
  140.3175  144.3467  150.6018 LP  0  0  0  0  0  0  0  0  0  0  0  0  # atno 17342 bound_to 10162
  140.5749  143.2177  151.7532 LP  0  0  0  0  0  0  0  0  0  0  0  0  # atno 17343 bound_to 10162
  157.7328  131.0596  150.5607 LP  0  0  0  0  0  0  0  0  0  0  0  0  # atno 17370 bound_to 10713
  156.5718  130.4281  149.6016 LP  0  0  0  0  0  0  0  0  0  0  0  0  # atno 17371 bound_to 10713
  141.1469  133.9038  157.2192 LP  0  0  0  0  0  0  0  0  0  0  0  0  # atno 17394 bound_to 11000
  139.9752  135.0116  156.9613 LP  0  0  0  0  0  0  0  0  0  0  0  0  # atno 17395 bound_to 11000

$$$$
