AV-unprocessed.smi:2001|AV-procd|sdf|8102|dock2
  -GOLD-   2272010323D 1   1.00000     0.00000
 Structure written by MMmdl.
 50 51  0  0  0  0  0  0  0  0  1 V2000
  152.5806  142.0934  160.1149 C   0  0  0  0  0  0  0  0  0  0  0  0
  152.6739  141.7772  158.7369 O   0  0  0  0  0  0  0  0  0  0  0  0
  151.5474  141.0564  158.2675 C   0  0  0  0  0  0  0  0  0  0  0  0
  151.1476  141.6058  156.8899 C   0  0  0  0  0  0  0  0  0  0  0  0
  150.8704  140.5257  155.9376 N   0  0  0  0  0  0  0  0  0  0  0  0
  149.5986  140.5686  155.3904 N   0  0  0  0  0  0  0  0  0  0  0  0
  149.2259  139.6670  154.5401 C   0  0  0  0  0  0  0  0  0  0  0  0
  147.8651  139.6720  153.9353 C   0  0  0  0  0  0  0  0  0  0  0  0
  147.0330  140.5372  154.2137 O   0  0  0  0  0  0  0  0  0  0  0  0
  147.6163  138.6748  153.0675 N   0  0  0  0  0  0  0  0  0  0  0  0
  146.3686  138.4885  152.3376 C   0  0  0  0  0  0  0  0  0  0  0  0
  146.4340  137.2371  151.4435 C   0  0  0  0  0  0  0  0  0  0  0  0
  145.7655  136.0545  151.9833 N   0  0  0  0  0  0  0  0  0  0  0  0
  145.5294  135.0285  150.9706 C   0  0  0  0  0  0  0  0  0  0  0  0
  144.8052  133.7998  151.5538 C   0  0  2  0  0  0  0  0  0  0  0  0
  144.4819  132.7531  150.4825 C   0  0  0  0  0  0  0  0  0  0  0  0
  143.5825  134.2201  152.1522 O   0  0  0  0  0  0  0  0  0  0  0  0
  143.7634  135.1878  153.1821 C   0  0  2  0  0  0  0  0  0  0  0  0
  142.3868  135.5491  153.7499 C   0  0  0  0  0  0  0  0  0  0  0  0
  144.4922  136.4133  152.5980 C   0  0  0  0  0  0  0  0  0  0  0  0
  150.1306  138.6020  154.1407 C   0  0  0  0  0  0  0  0  0  0  0  0
  151.3707  138.5786  154.6765 C   0  0  0  0  0  0  0  0  0  0  0  0
  151.8175  139.5862  155.6395 C   0  0  0  0  0  0  0  0  0  0  0  0
  152.9438  139.5906  156.1352 O   0  0  0  0  0  0  0  0  0  0  0  0
  153.4640  142.6528  160.4227 H   0  0  0  0  0  0  0  0  0  0  0  0
  152.5257  141.1900  160.7238 H   0  0  0  0  0  0  0  0  0  0  0  0
  151.7040  142.7091  160.3207 H   0  0  0  0  0  0  0  0  0  0  0  0
  151.7890  139.9949  158.1921 H   0  0  0  0  0  0  0  0  0  0  0  0
  150.7212  141.1581  158.9731 H   0  0  0  0  0  0  0  0  0  0  0  0
  150.2809  142.2624  156.9854 H   0  0  0  0  0  0  0  0  0  0  0  0
  151.9499  142.2398  156.5073 H   0  0  0  0  0  0  0  0  0  0  0  0
  148.3511  138.0038  152.8946 H   0  0  0  0  0  0  0  0  0  0  0  0
  145.5728  138.3962  153.0760 H   0  0  0  0  0  0  0  0  0  0  0  0
  146.1412  139.3740  151.7417 H   0  0  0  0  0  0  0  0  0  0  0  0
  145.9740  137.4874  150.4864 H   0  0  0  0  0  0  0  0  0  0  0  0
  147.4763  137.0020  151.2214 H   0  0  0  0  0  0  0  0  0  0  0  0
  144.9391  135.4459  150.1532 H   0  0  0  0  0  0  0  0  0  0  0  0
  146.4745  134.7009  150.5388 H   0  0  0  0  0  0  0  0  0  0  0  0
  145.4318  133.3363  152.3179 H   0  0  0  0  0  0  0  0  0  0  0  0
  145.3897  132.3960  149.9955 H   0  0  0  0  0  0  0  0  0  0  0  0
  143.8283  133.1650  149.7132 H   0  0  0  0  0  0  0  0  0  0  0  0
  143.9788  131.8908  150.9204 H   0  0  0  0  0  0  0  0  0  0  0  0
  144.3674  134.7487  153.9781 H   0  0  0  0  0  0  0  0  0  0  0  0
  142.4737  136.2794  154.5546 H   0  0  0  0  0  0  0  0  0  0  0  0
  141.8884  134.6676  154.1539 H   0  0  0  0  0  0  0  0  0  0  0  0
  141.7415  135.9732  152.9800 H   0  0  0  0  0  0  0  0  0  0  0  0
  144.6595  137.1430  153.3913 H   0  0  0  0  0  0  0  0  0  0  0  0
  143.8511  136.8983  151.8598 H   0  0  0  0  0  0  0  0  0  0  0  0
  149.8279  137.8452  153.4317 H   0  0  0  0  0  0  0  0  0  0  0  0
  152.0542  137.7939  154.3868 H   0  0  0  0  0  0  0  0  0  0  0  0
  1  2  1  0  0  0  0
  1 25  1  0  0  0  0
  1 26  1  0  0  0  0
  1 27  1  0  0  0  0
  2  3  1  0  0  0  0
  3  4  1  0  0  0  0
  3 28  1  0  0  0  0
  3 29  1  0  0  0  0
  4  5  1  0  0  0  0
  4 30  1  0  0  0  0
  4 31  1  0  0  0  0
  5 23  1  0  0  0  0
  5  6  1  0  0  0  0
  6  7  2  0  0  0  0
  7  8  1  0  0  0  0
  7 21  1  0  0  0  0
  8  9  2  0  0  0  0
  8 10  1  0  0  0  0
 10 11  1  0  0  0  0
 10 32  1  0  0  0  0
 11 12  1  0  0  0  0
 11 33  1  0  0  0  0
 11 34  1  0  0  0  0
 12 13  1  0  0  0  0
 12 35  1  0  0  0  0
 12 36  1  0  0  0  0
 13 20  1  0  0  0  0
 13 14  1  0  0  0  0
 14 15  1  0  0  0  0
 14 37  1  0  0  0  0
 14 38  1  0  0  0  0
 15 16  1  0  0  0  0
 15 17  1  0  0  0  0
 15 39  1  0  0  0  0
 16 40  1  0  0  0  0
 16 41  1  0  0  0  0
 16 42  1  0  0  0  0
 17 18  1  0  0  0  0
 18 19  1  0  0  0  0
 18 20  1  0  0  0  0
 18 43  1  0  0  0  0
 19 44  1  0  0  0  0
 19 45  1  0  0  0  0
 19 46  1  0  0  0  0
 20 47  1  0  0  0  0
 20 48  1  0  0  0  0
 21 22  2  0  0  0  0
 21 49  1  0  0  0  0
 22 23  1  0  0  0  0
 22 50  1  0  0  0  0
 23 24  2  0  0  0  0
M  END
> <s_m_source_file>
AV-unprocessed.smi

> <i_m_source_file_index>
2001

> <i_lp_mmshare_version>
43012

> <i_f3d_flags>
0

> <s_epik_input>
W0NIM11PW0NIMl1bQ0gyXW4xbmMoW2NIXVtjSF1jMT1PKUMoPU8pW05IXVtDSDJdW0NIMl1OMltDSDJdW0NAQEhdKFtDSDNdKU9bQ0BASF0oW0NIM10pW0NIMl0y

> <s_epik_cmdline>
J2VwaWtfcHl0aG9uJywgJy1waCcsICc3LjAnLCAnLXRuJywgJzgnLCAnLW1hJywgJzIwMCcsICctbWV0YWxfYmluZGluZycsICctaW1hZScsICc8aW5maWxlLm1hZT4nLCAnLW9tYWUnLCAnPG91dGZpbGUubWFlPic=

> <r_lp_tautomer_probability>
1

> <r_epik_Ionization_Penalty>
0.206669

> <r_epik_Ionization_Penalty_Charging>
5.55992e-09

> <r_epik_Ionization_Penalty_Neutral>
0.206669

> <r_epik_State_Penalty>
0.196651

> <r_epik_Charging_Adjusted_Penalty>
0.196651

> <i_epik_Tot_Q>
0

> <i_epik_Tot_abs_Q>
0

> <r_epik_Metal_State_Penalty>
0.198372

> <b_epik_Metal_Only>
0

> <s_lp_Force_Field>
OPLS_2005

> <r_lp_Energy>
38.6275

> <b_lp_Chiralities_Consistent>
1

> <s_lp_Variant>
AV-unprocessed.smi:2001-1

> <Gold.Version>
5.8.1

> <Gold.Id.Protein>
6NUR|6NUR_protein|mol2

> <Gold.PLP.Fitness>
47.7784

> <Gold.PLP.PLP>
-44.5108

> <Gold.PLP.part.hbond>
-3.0000

> <Gold.PLP.part.metal>
0.0000

> <Gold.PLP.part.buried>
-1.2777

> <Gold.PLP.part.nonpolar>
-40.9681

> <Gold.PLP.part.repulsive>
0.6748

> <Gold.PLP.ligand.clash>
0.5535

> <Gold.PLP.ligand.torsion>
1.0513

> <Gold.PLP.Chemscore.Hbond>
1.9600

> <Gold.PLP.Chemscore.CHOScore>
0.0000

> <Gold.PLP.Chemscore.Metal>
0.0000

> <Gold.Chemscore.Hbonds>
donor molecule, donor type, donor heavy atom, donor atom, acceptor molecule, acceptor atom, score
      L1  H    10    32       P1  7948  0.74
      P1  H  7997  8008       L1    24  0.94

> <Gold.PLP.Chemscore.Internal.Correction>
0.0437

> <Gold.Rescore>
     Score         DG    S(hbond)    S(metal)    S(lipo)     H(rot)  DE(clash)    DE(int)     intcor
     15.33     -17.73       1.90        0.00      94.41       2.00       1.42       0.99       ----

> <Gold.Chemscore.Fitness>
15.3287

> <Gold.Chemscore.DG>
-17.7347

> <Gold.Chemscore.ZeroCoef>
-5.4800

> <Gold.Chemscore.Hbond>
1.8965

> <Gold.Chemscore.Metal>
0.0000

> <Gold.Chemscore.Lipo>
94.4057

> <Gold.Chemscore.Internal_Hbond>
0.0000

> <Gold.Chemscore.DEClash>
1.4184

> <Gold.Chemscore.DEInternal>
0.9877

> <Gold.Chemscore.Rot>
2.0020

> <Gold.Chemscore.Internal.Correction>
   9.000000E+99

> <Gold.Chemscore.Hbonds>
donor molecule, donor type, donor heavy atom, donor atom, acceptor molecule, acceptor atom, score
      L1  H    10    32       P1  7948  0.70
      P1  H  7997  8008       L1    24  0.90

> <Gold.Chemscore.Hbond.Weighted>
-6.3345

> <Gold.Chemscore.Metal.Weighted>
-0.0000

> <Gold.Chemscore.Lipo.Weighted>
-11.0455

> <Gold.Chemscore.Internal_Hbond.Weighted>
0.0000

> <Gold.Chemscore.DEClash.Weighted>
1.4184

> <Gold.Chemscore.DEInternal.Weighted>
0.9877

> <Gold.Chemscore.Rot.Weighted>
5.1252

> <Gold.Chemscore.Internal.Correction.Weighted>
   9.000000E+99

> <Gold.Protein.RotatedTorsions>
[ 6907 6896 6895 6894 ] final -131.03 input  -60.11 | X-H torsion
[ 7974 7965 7964 7962 ] final   71.09 input  175.53 | X-H torsion
[ 8008 7997 7996 7995 ] final  -35.10 input   59.86 | X-H torsion
[ 10167 10162 10161 10158 ] final   31.05 input  -65.29 | X-H torsion
[ 10718 10713 10712 10709 ] final  162.32 input   66.30 | X-H torsion
[ 10763 10752 10751 10750 ] final -173.37 input  -60.55 | X-H torsion
[ 11005 11000 10999 10996 ] final   83.49 input  -57.11 | X-H torsion

> <Gold.Protein.ActiveResidues>
 VAL166  LYS551  ARG553  GLY616  TRP617  ASP618  TYR619  PRO620  LYS621  CYS622 
 ASP623  PHE694  ASN695  SER759  ASP760  ASP761  ALA762  ILE779  LEU786  VAL792 
 PHE793  MET794  SER795  GLU796  ALA797  LYS798  CYS799  TRP800  GLU811  SER814 

> <Gold.Protein.RotatedAtoms>
  150.9464  133.6599  159.2780 H   0  0  0  0  0  0  0  0  0  0  0  0  # atno 6907 bound_to 6896
  151.3970  135.0964  159.9554 H   0  0  0  0  0  0  0  0  0  0  0  0  # atno 6908 bound_to 6896
  152.5091  133.8966  159.7475 H   0  0  0  0  0  0  0  0  0  0  0  0  # atno 6909 bound_to 6896
  145.7701  139.2839  143.1326 H   0  0  0  0  0  0  0  0  0  0  0  0  # atno 7974 bound_to 7965
  154.4104  140.1666  156.2157 H   0  0  0  0  0  0  0  0  0  0  0  0  # atno 8008 bound_to 7997
  155.9406  140.3408  155.6301 H   0  0  0  0  0  0  0  0  0  0  0  0  # atno 8009 bound_to 7997
  155.6993  140.0743  157.2407 H   0  0  0  0  0  0  0  0  0  0  0  0  # atno 8010 bound_to 7997
  140.4623  144.0887  150.6216 H   0  0  0  0  0  0  0  0  0  0  0  0  # atno 10167 bound_to 10162
  157.1242  131.0500  151.2401 H   0  0  0  0  0  0  0  0  0  0  0  0  # atno 10718 bound_to 10713
  154.6086  135.2862  155.0457 H   0  0  0  0  0  0  0  0  0  0  0  0  # atno 10763 bound_to 10752
  154.1695  135.6475  153.5009 H   0  0  0  0  0  0  0  0  0  0  0  0  # atno 10764 bound_to 10752
  153.0186  135.5397  154.6832 H   0  0  0  0  0  0  0  0  0  0  0  0  # atno 10765 bound_to 10752
  139.9029  134.8148  156.2316 H   0  0  0  0  0  0  0  0  0  0  0  0  # atno 11005 bound_to 11000
  146.0179  140.8375  142.9938 LP  0  0  0  0  0  0  0  0  0  0  0  0  # atno 17320 bound_to 7965
  144.6814  140.2585  143.7322 LP  0  0  0  0  0  0  0  0  0  0  0  0  # atno 17321 bound_to 7965
  140.4078  143.2672  151.9870 LP  0  0  0  0  0  0  0  0  0  0  0  0  # atno 17342 bound_to 10162
  139.4808  144.5942  151.7719 LP  0  0  0  0  0  0  0  0  0  0  0  0  # atno 17343 bound_to 10162
  157.4450  130.7565  149.7101 LP  0  0  0  0  0  0  0  0  0  0  0  0  # atno 17370 bound_to 10713
  155.9822  130.4012  150.3431 LP  0  0  0  0  0  0  0  0  0  0  0  0  # atno 17371 bound_to 10713
  141.0342  133.6972  156.1483 LP  0  0  0  0  0  0  0  0  0  0  0  0  # atno 17394 bound_to 11000
  140.7052  134.4521  157.5584 LP  0  0  0  0  0  0  0  0  0  0  0  0  # atno 17395 bound_to 11000

$$$$
