AV-unprocessed.smi:2509|AV-procd|sdf|9866|dock5
  -GOLD-   2272013493D 1   1.00000     0.00000
 Structure written by MMmdl.
 45 46  0  0  0  0  0  0  0  0  1 V2000
  151.0326  142.5884  156.4397 C   0  0  0  0  0  0  0  0  0  0  0  0
  150.6589  141.2153  157.0458 C   0  0  0  0  0  0  0  0  0  0  0  0
  151.9408  140.4438  157.4086 C   0  0  0  0  0  0  0  0  0  0  0  0
  149.8587  141.5203  158.3344 C   0  0  0  0  0  0  0  0  0  0  0  0
  149.8237  140.3839  156.0564 C   0  0  0  0  0  0  0  0  0  0  0  0
  150.4031  140.0622  154.8921 N   0  0  0  0  0  0  0  0  0  0  0  0
  149.7342  139.2276  154.0691 C   0  0  0  0  0  0  0  0  0  0  0  0
  148.4814  138.6840  154.4152 C   0  0  0  0  0  0  0  0  0  0  0  0
  147.8388  137.7960  153.5124 N   0  0  0  0  0  0  0  0  0  0  0  0
  146.5229  137.5609  153.3763 C   0  0  0  0  0  0  0  0  0  0  0  0
  145.6321  138.1288  154.0076 O   0  0  0  0  0  0  0  0  0  0  0  0
  146.2922  136.6346  152.4350 N   0  0  0  0  0  0  0  0  0  0  0  0
  144.9762  136.1646  152.0122 C   0  0  0  0  0  0  0  0  0  0  0  0
  144.9098  134.6259  151.9646 C   0  0  2  0  0  0  0  0  0  0  0  0
  145.6619  133.9916  150.7835 C   0  0  0  0  0  0  0  0  0  0  0  0
  144.9516  132.6631  150.4787 C   0  0  0  0  0  0  0  0  0  0  0  0
  143.7034  132.6265  151.3688 C   0  0  0  0  0  0  0  0  0  0  0  0
  143.4887  134.0745  151.8125 C   0  0  1  0  0  0  0  0  0  0  0  0
  142.7532  134.1433  153.0167 O   0  0  0  0  0  0  0  0  0  0  0  0
  147.9834  139.0479  155.6887 C   0  0  0  0  0  0  0  0  0  0  0  0
  148.6653  139.8808  156.5035 N   0  0  0  0  0  0  0  0  0  0  0  0
  151.5834  143.2012  157.1539 H   0  0  0  0  0  0  0  0  0  0  0  0
  150.1436  143.1476  156.1453 H   0  0  0  0  0  0  0  0  0  0  0  0
  151.6671  142.4871  155.5584 H   0  0  0  0  0  0  0  0  0  0  0  0
  152.5473  140.2461  156.5241 H   0  0  0  0  0  0  0  0  0  0  0  0
  151.7075  139.4828  157.8682 H   0  0  0  0  0  0  0  0  0  0  0  0
  152.5574  141.0046  158.1118 H   0  0  0  0  0  0  0  0  0  0  0  0
  150.4305  142.1492  159.0177 H   0  0  0  0  0  0  0  0  0  0  0  0
  149.6048  140.6120  158.8823 H   0  0  0  0  0  0  0  0  0  0  0  0
  148.9277  142.0426  158.1104 H   0  0  0  0  0  0  0  0  0  0  0  0
  150.2078  138.9901  153.1278 H   0  0  0  0  0  0  0  0  0  0  0  0
  148.4479  137.3187  152.8640 H   0  0  0  0  0  0  0  0  0  0  0  0
  147.0886  136.2275  151.9669 H   0  0  0  0  0  0  0  0  0  0  0  0
  144.2465  136.5393  152.7303 H   0  0  0  0  0  0  0  0  0  0  0  0
  144.6955  136.5896  151.0469 H   0  0  0  0  0  0  0  0  0  0  0  0
  145.3361  134.2243  152.8859 H   0  0  0  0  0  0  0  0  0  0  0  0
  145.5991  134.6380  149.9072 H   0  0  0  0  0  0  0  0  0  0  0  0
  146.7199  133.8497  151.0058 H   0  0  0  0  0  0  0  0  0  0  0  0
  144.6738  132.6218  149.4249 H   0  0  0  0  0  0  0  0  0  0  0  0
  145.5966  131.8069  150.6791 H   0  0  0  0  0  0  0  0  0  0  0  0
  142.8339  132.2126  150.8574 H   0  0  0  0  0  0  0  0  0  0  0  0
  143.9049  131.9961  152.2365 H   0  0  0  0  0  0  0  0  0  0  0  0
  142.9567  134.6213  151.0326 H   0  0  0  0  0  0  0  0  0  0  0  0
  142.7298  133.2822  153.4053 H   0  0  0  0  0  0  0  0  0  0  0  0
  147.0577  138.6609  156.0857 H   0  0  0  0  0  0  0  0  0  0  0  0
  1  2  1  0  0  0  0
  1 22  1  0  0  0  0
  1 23  1  0  0  0  0
  1 24  1  0  0  0  0
  2  3  1  0  0  0  0
  2  4  1  0  0  0  0
  2  5  1  0  0  0  0
  3 25  1  0  0  0  0
  3 26  1  0  0  0  0
  3 27  1  0  0  0  0
  4 28  1  0  0  0  0
  4 29  1  0  0  0  0
  4 30  1  0  0  0  0
  5 21  1  0  0  0  0
  5  6  2  0  0  0  0
  6  7  1  0  0  0  0
  7  8  2  0  0  0  0
  7 31  1  0  0  0  0
  8  9  1  0  0  0  0
  8 20  1  0  0  0  0
  9 10  1  0  0  0  0
  9 32  1  0  0  0  0
 10 11  2  0  0  0  0
 10 12  1  0  0  0  0
 12 13  1  0  0  0  0
 12 33  1  0  0  0  0
 13 14  1  0  0  0  0
 13 34  1  0  0  0  0
 13 35  1  0  0  0  0
 14 18  1  0  0  0  0
 14 15  1  0  0  0  0
 14 36  1  0  0  0  0
 15 16  1  0  0  0  0
 15 37  1  0  0  0  0
 15 38  1  0  0  0  0
 16 17  1  0  0  0  0
 16 39  1  0  0  0  0
 16 40  1  0  0  0  0
 17 18  1  0  0  0  0
 17 41  1  0  0  0  0
 17 42  1  0  0  0  0
 18 19  1  0  0  0  0
 18 43  1  0  0  0  0
 19 44  1  0  0  0  0
 20 21  2  0  0  0  0
 20 45  1  0  0  0  0
M  END
> <s_m_source_file>
AV-unprocessed.smi

> <i_m_source_file_index>
2509

> <i_lp_mmshare_version>
43012

> <i_f3d_flags>
0

> <s_epik_input>
W0NIM11DKFtDSDNdKShbQ0gzXSljMW5bY0hdYyhbY0hdbjEpW05IXUMoPU8pW05IXVtDSDJdW0NAQEhdMltDSDJdW0NIMl1bQ0gyXVtDQEhdMltPSF0=

> <s_epik_cmdline>
J2VwaWtfcHl0aG9uJywgJy1waCcsICc3LjAnLCAnLXRuJywgJzgnLCAnLW1hJywgJzIwMCcsICctbWV0YWxfYmluZGluZycsICctaW1hZScsICc8aW5maWxlLm1hZT4nLCAnLW9tYWUnLCAnPG91dGZpbGUubWFlPic=

> <r_lp_tautomer_probability>
1

> <r_epik_Ionization_Penalty>
2.77586e-05

> <r_epik_Ionization_Penalty_Charging>
0

> <r_epik_Ionization_Penalty_Neutral>
2.77586e-05

> <r_epik_State_Penalty>
-0

> <r_epik_Charging_Adjusted_Penalty>
0

> <i_epik_Tot_Q>
0

> <i_epik_Tot_abs_Q>
0

> <r_epik_Metal_State_Penalty>
-0

> <b_epik_Metal_Only>
0

> <s_lp_Force_Field>
OPLS_2005

> <r_lp_Energy>
20.4584

> <b_lp_Chiralities_Consistent>
1

> <s_lp_Variant>
AV-unprocessed.smi:2509-1

> <Gold.Version>
5.8.1

> <Gold.Id.Protein>
6NUR|6NUR_protein|mol2

> <Gold.PLP.Fitness>
42.2053

> <Gold.PLP.PLP>
-28.8888

> <Gold.PLP.part.hbond>
-4.0000

> <Gold.PLP.part.metal>
0.0000

> <Gold.PLP.part.buried>
-3.2333

> <Gold.PLP.part.nonpolar>
-22.0594

> <Gold.PLP.part.repulsive>
0.2592

> <Gold.PLP.ligand.clash>
0.0000

> <Gold.PLP.ligand.torsion>
0.4280

> <Gold.PLP.Chemscore.Hbond>
3.8120

> <Gold.PLP.Chemscore.CHOScore>
0.8612

> <Gold.PLP.Chemscore.Metal>
0.0000

> <Gold.Chemscore.Hbonds>
donor molecule, donor type, donor heavy atom, donor atom, acceptor molecule, acceptor atom, score
      L1  H     9    32       P1  7948  1.00
      L1  H    12    33       P1  7948  0.91
      L1  H    19    44       P1 10957  0.98
      P1  H  7989  7998       L1     6  0.85
      L1  C     7    31       P1  7957  0.86

> <Gold.PLP.Chemscore.Internal.Correction>
0.1530

> <Gold.Rescore>
     Score         DG    S(hbond)    S(metal)    S(lipo)     H(rot)  DE(clash)    DE(int)     intcor
     17.55     -19.00       3.01        0.00      71.37       1.91       0.11       1.34       ----

> <Gold.Chemscore.Fitness>
17.5529

> <Gold.Chemscore.DG>
-18.9990

> <Gold.Chemscore.ZeroCoef>
-5.4800

> <Gold.Chemscore.Hbond>
3.0127

> <Gold.Chemscore.Metal>
0.0000

> <Gold.Chemscore.Lipo>
71.3705

> <Gold.Chemscore.Internal_Hbond>
0.0000

> <Gold.Chemscore.DEClash>
0.1106

> <Gold.Chemscore.DEInternal>
1.3355

> <Gold.Chemscore.Rot>
1.9116

> <Gold.Chemscore.Internal.Correction>
   9.000000E+99

> <Gold.Chemscore.Hbonds>
donor molecule, donor type, donor heavy atom, donor atom, acceptor molecule, acceptor atom, score
      L1  H     9    32       P1  7948  0.95
      L1  H    12    33       P1  7948  0.90
      L1  H    19    44       P1 10957  0.87
      P1  H  7989  7998       L1     6  0.14

> <Gold.Chemscore.Hbond.Weighted>
-10.0623

> <Gold.Chemscore.Metal.Weighted>
-0.0000

> <Gold.Chemscore.Lipo.Weighted>
-8.3504

> <Gold.Chemscore.Internal_Hbond.Weighted>
0.0000

> <Gold.Chemscore.DEClash.Weighted>
0.1106

> <Gold.Chemscore.DEInternal.Weighted>
1.3355

> <Gold.Chemscore.Rot.Weighted>
4.8936

> <Gold.Chemscore.Internal.Correction.Weighted>
   9.000000E+99

> <Gold.Protein.RotatedTorsions>
[ 6907 6896 6895 6894 ] final  -30.87 input  -60.11 | X-H torsion
[ 7974 7965 7964 7962 ] final   35.48 input  175.53 | X-H torsion
[ 8008 7997 7996 7995 ] final   63.01 input   59.86 | X-H torsion
[ 10167 10162 10161 10158 ] final  -27.17 input  -65.29 | X-H torsion
[ 10718 10713 10712 10709 ] final    5.82 input   66.30 | X-H torsion
[ 10763 10752 10751 10750 ] final   53.33 input  -60.55 | X-H torsion
[ 11005 11000 10999 10996 ] final   81.54 input  -57.11 | X-H torsion

> <Gold.Protein.ActiveResidues>
 VAL166  LYS551  ARG553  GLY616  TRP617  ASP618  TYR619  PRO620  LYS621  CYS622 
 ASP623  PHE694  ASN695  SER759  ASP760  ASP761  ALA762  ILE779  LEU786  VAL792 
 PHE793  MET794  SER795  GLU796  ALA797  LYS798  CYS799  TRP800  GLU811  SER814 

> <Gold.Protein.RotatedAtoms>
  151.0997  134.9965  159.8442 H   0  0  0  0  0  0  0  0  0  0  0  0  # atno 6907 bound_to 6896
  152.5436  134.1965  159.8705 H   0  0  0  0  0  0  0  0  0  0  0  0  # atno 6908 bound_to 6896
  151.2007  133.4568  159.2629 H   0  0  0  0  0  0  0  0  0  0  0  0  # atno 6909 bound_to 6896
  146.1280  139.6137  142.9246 H   0  0  0  0  0  0  0  0  0  0  0  0  # atno 7974 bound_to 7965
  155.6235  140.3496  155.4659 H   0  0  0  0  0  0  0  0  0  0  0  0  # atno 8008 bound_to 7997
  156.0060  140.1223  157.0524 H   0  0  0  0  0  0  0  0  0  0  0  0  # atno 8009 bound_to 7997
  154.4264  140.1091  156.5750 H   0  0  0  0  0  0  0  0  0  0  0  0  # atno 8010 bound_to 7997
  140.7279  143.4116  151.1096 H   0  0  0  0  0  0  0  0  0  0  0  0  # atno 10167 bound_to 10162
  156.9131  130.5763  149.5647 H   0  0  0  0  0  0  0  0  0  0  0  0  # atno 10718 bound_to 10713
  152.9794  135.5782  154.4725 H   0  0  0  0  0  0  0  0  0  0  0  0  # atno 10763 bound_to 10752
  154.4285  135.2773  155.1930 H   0  0  0  0  0  0  0  0  0  0  0  0  # atno 10764 bound_to 10752
  154.3648  135.6180  153.5763 H   0  0  0  0  0  0  0  0  0  0  0  0  # atno 10765 bound_to 10752
  139.9095  134.8004  156.2054 H   0  0  0  0  0  0  0  0  0  0  0  0  # atno 11005 bound_to 11000
  145.5323  141.0426  143.2376 LP  0  0  0  0  0  0  0  0  0  0  0  0  # atno 17320 bound_to 7965
  144.7661  139.6841  143.7214 LP  0  0  0  0  0  0  0  0  0  0  0  0  # atno 17321 bound_to 7965
  139.7750  143.8438  152.3127 LP  0  0  0  0  0  0  0  0  0  0  0  0  # atno 17342 bound_to 10162
  139.8370  144.7228  150.9379 LP  0  0  0  0  0  0  0  0  0  0  0  0  # atno 17343 bound_to 10162
  156.0526  130.5593  150.9023 LP  0  0  0  0  0  0  0  0  0  0  0  0  # atno 17370 bound_to 10713
  157.5955  131.0943  150.9048 LP  0  0  0  0  0  0  0  0  0  0  0  0  # atno 17371 bound_to 10713
  141.0498  133.6894  156.1751 LP  0  0  0  0  0  0  0  0  0  0  0  0  # atno 17394 bound_to 11000
  140.6827  134.4750  157.5589 LP  0  0  0  0  0  0  0  0  0  0  0  0  # atno 17395 bound_to 11000

$$$$
