AV-unprocessed.smi:215|AV-procd|sdf|1651|dock6
  -GOLD-   2262020 33D 1   1.00000     0.00000
 Structure written by MMmdl.
 59 62  0  0  0  0  0  0  0  0  2 V2000
  145.6130  136.9530  155.1634 C   0  0  0  0  0  0  0  0  0  0  0  0
  146.5791  137.4138  154.0493 C   0  0  1  0  0  0  0  0  0  0  0  0
  145.8778  137.5545  152.6708 C   0  0  2  0  0  0  0  0  0  0  0  0
  146.0127  136.3785  151.7531 N   0  3  2  0  0  0  0  0  0  0  0  0
  145.3471  136.6264  150.4470 C   0  0  0  0  0  0  0  0  0  0  0  0
  145.6083  135.0733  152.3524 C   0  0  0  0  0  0  0  0  0  0  0  0
  145.9338  133.8514  151.4724 C   0  0  0  0  0  0  0  0  0  0  0  0
  147.2763  133.4546  151.6603 O   0  0  0  0  0  0  0  0  0  0  0  0
  146.5146  138.8254  152.0829 C   0  0  0  0  0  0  0  0  0  0  0  0
  146.8142  139.6925  153.2980 C   0  0  0  0  0  0  0  0  0  0  0  0
  147.1028  138.7413  154.3560 N   0  0  0  0  0  0  0  0  0  0  0  0
  147.9801  139.0269  155.3550 C   0  0  0  0  0  0  0  0  0  0  0  0
  148.1202  138.1111  156.3493 N   0  0  0  0  0  0  0  0  0  0  0  0
  148.9706  138.3241  157.3569 C   0  0  0  0  0  0  0  0  0  0  0  0
  149.7698  139.3705  157.5646 N   0  0  0  0  0  0  0  0  0  0  0  0
  149.6357  140.2990  156.5754 C   0  0  0  0  0  0  0  0  0  0  0  0
  148.7680  140.2141  155.4472 C   0  0  0  0  0  0  0  0  0  0  0  0
  148.8932  141.3696  154.6820 N   0  0  0  0  0  0  0  0  0  0  0  0
  149.7810  142.0864  155.3140 C   0  0  0  0  0  0  0  0  0  0  0  0
  150.3005  141.5060  156.4475 N   0  0  0  0  0  0  0  0  0  0  0  0
  151.2552  142.0806  157.3497 C   0  0  0  0  0  0  0  0  0  0  0  0
  150.8969  142.3781  158.8100 C   0  0  0  0  0  0  0  0  0  0  0  0
  151.8428  143.6011  158.7788 C   0  0  0  0  0  0  0  0  0  0  0  0
  151.3611  144.8649  159.5188 C   0  0  0  0  0  0  0  0  0  0  0  0
  152.2223  145.9693  159.3264 O   0  0  0  0  0  0  0  0  0  0  0  0
  153.2727  143.3036  159.2695 C   0  0  0  0  0  0  0  0  0  0  0  0
  153.2854  142.9108  160.6272 O   0  0  0  0  0  0  0  0  0  0  0  0
  151.6455  143.5578  157.2457 C   0  0  0  0  0  0  0  0  0  0  0  0
  147.4235  136.7325  153.9525 H   0  0  0  0  0  0  0  0  0  0  0  0
  144.8167  137.7509  152.8361 H   0  0  0  0  0  0  0  0  0  0  0  0
  145.1598  135.9865  154.9517 H   0  0  0  0  0  0  0  0  0  0  0  0
  144.7994  137.6675  155.2939 H   0  0  0  0  0  0  0  0  0  0  0  0
  146.1180  136.8644  156.1246 H   0  0  0  0  0  0  0  0  0  0  0  0
  144.2628  136.6542  150.5619 H   0  0  0  0  0  0  0  0  0  0  0  0
  145.5944  135.8608  149.7137 H   0  0  0  0  0  0  0  0  0  0  0  0
  145.6609  137.5693  150.0017 H   0  0  0  0  0  0  0  0  0  0  0  0
  146.1262  134.9100  153.2951 H   0  0  0  0  0  0  0  0  0  0  0  0
  144.5415  135.0972  152.5792 H   0  0  0  0  0  0  0  0  0  0  0  0
  145.2930  133.0166  151.7574 H   0  0  0  0  0  0  0  0  0  0  0  0
  145.7412  134.0311  150.4157 H   0  0  0  0  0  0  0  0  0  0  0  0
  147.3894  132.5857  151.3050 H   0  0  0  0  0  0  0  0  0  0  0  0
  147.4508  138.5775  151.5797 H   0  0  0  0  0  0  0  0  0  0  0  0
  145.8737  139.3409  151.3674 H   0  0  0  0  0  0  0  0  0  0  0  0
  147.6459  140.3705  153.1012 H   0  0  0  0  0  0  0  0  0  0  0  0
  145.9436  140.2856  153.5803 H   0  0  0  0  0  0  0  0  0  0  0  0
  149.0189  137.5437  158.1020 H   0  0  0  0  0  0  0  0  0  0  0  0
  150.0846  143.0624  154.9643 H   0  0  0  0  0  0  0  0  0  0  0  0
  152.1406  141.4453  157.2921 H   0  0  0  0  0  0  0  0  0  0  0  0
  149.8448  142.6393  158.9334 H   0  0  0  0  0  0  0  0  0  0  0  0
  151.1846  141.5943  159.5114 H   0  0  0  0  0  0  0  0  0  0  0  0
  150.3655  145.1555  159.1823 H   0  0  0  0  0  0  0  0  0  0  0  0
  151.2911  144.6883  160.5924 H   0  0  0  0  0  0  0  0  0  0  0  0
  152.5383  145.9521  158.4360 H   0  0  0  0  0  0  0  0  0  0  0  0
  153.7363  142.5170  158.6729 H   0  0  0  0  0  0  0  0  0  0  0  0
  153.9160  144.1783  159.1709 H   0  0  0  0  0  0  0  0  0  0  0  0
  152.8581  143.5810  161.1383 H   0  0  0  0  0  0  0  0  0  0  0  0
  152.5450  143.7425  156.6577 H   0  0  0  0  0  0  0  0  0  0  0  0
  150.8201  144.1781  156.8929 H   0  0  0  0  0  0  0  0  0  0  0  0
  147.0007  136.2929  151.5598 H   0  0  0  0  0  0  0  0  0  0  0  0
  1  2  1  0  0  0  0
  1 31  1  0  0  0  0
  1 32  1  0  0  0  0
  1 33  1  0  0  0  0
  2 29  1  0  0  0  0
  2 11  1  0  0  0  0
  2  3  1  0  0  0  0
  3 30  1  0  0  0  0
  3  4  1  0  0  0  0
  3  9  1  0  0  0  0
  4  5  1  0  0  0  0
  4  6  1  0  0  0  0
  4 59  1  0  0  0  0
  5 34  1  0  0  0  0
  5 35  1  0  0  0  0
  5 36  1  0  0  0  0
  6  7  1  0  0  0  0
  6 37  1  0  0  0  0
  6 38  1  0  0  0  0
  7  8  1  0  0  0  0
  7 39  1  0  0  0  0
  7 40  1  0  0  0  0
  8 41  1  0  0  0  0
  9 10  1  0  0  0  0
  9 42  1  0  0  0  0
  9 43  1  0  0  0  0
 10 11  1  0  0  0  0
 10 44  1  0  0  0  0
 10 45  1  0  0  0  0
 11 12  1  0  0  0  0
 12 17  1  0  0  0  0
 12 13  2  0  0  0  0
 13 14  1  0  0  0  0
 14 15  2  0  0  0  0
 14 46  1  0  0  0  0
 15 16  1  0  0  0  0
 16 20  1  0  0  0  0
 16 17  2  0  0  0  0
 17 18  1  0  0  0  0
 18 19  2  0  0  0  0
 19 20  1  0  0  0  0
 19 47  1  0  0  0  0
 20 21  1  0  0  0  0
 21 28  1  0  0  0  0
 21 22  1  0  0  0  0
 21 48  1  0  0  0  0
 22 23  1  0  0  0  0
 22 49  1  0  0  0  0
 22 50  1  0  0  0  0
 23 24  1  0  0  0  0
 23 26  1  0  0  0  0
 23 28  1  0  0  0  0
 24 25  1  0  0  0  0
 24 51  1  0  0  0  0
 24 52  1  0  0  0  0
 25 53  1  0  0  0  0
 26 27  1  0  0  0  0
 26 54  1  0  0  0  0
 26 55  1  0  0  0  0
 27 56  1  0  0  0  0
 28 57  1  0  0  0  0
 28 58  1  0  0  0  0
M  CHG  1   4   1
M  END
> <s_m_source_file>
AV-unprocessed.smi

> <i_m_source_file_index>
215

> <i_lp_mmshare_version>
43012

> <i_f3d_flags>
0

> <s_epik_input>
W09IXVtDSDJdW0NIMl1OKFtDSDNdKVtDQEBIXShbQ0BIXTFbQ0gzXSlbQ0gyXVtDSDJdTjFjKG5bY0hdbjIpYyhjMjMpbltjSF1uM1tDSF0oW0NIMl00KVtDSDJdQzQoW0NIMl1bT0hdKVtDSDJdW09IXQ==

> <s_epik_cmdline>
J2VwaWtfcHl0aG9uJywgJy1waCcsICc3LjAnLCAnLXRuJywgJzgnLCAnLW1hJywgJzIwMCcsICctbWV0YWxfYmluZGluZycsICctaW1hZScsICc8aW5maWxlLm1hZT4nLCAnLW9tYWUnLCAnPG91dGZpbGUubWFlPic=

> <r_lp_tautomer_probability>
1

> <r_epik_Ionization_Penalty>
0.0036237

> <r_epik_Ionization_Penalty_Charging>
0.0032725

> <r_epik_Ionization_Penalty_Neutral>
0.000351196

> <r_epik_State_Penalty>
-0

> <r_epik_Charging_Adjusted_Penalty>
0.0032725

> <i_epik_Tot_Q>
1

> <i_epik_Tot_abs_Q>
1

> <r_epik_Metal_State_Penalty>
-0

> <b_epik_Metal_Only>
0

> <s_lp_Force_Field>
OPLS_2005

> <r_lp_Energy>
68.3917

> <b_lp_Chiralities_Consistent>
1

> <s_lp_Variant>
AV-unprocessed.smi:215-2

> <Gold.Version>
5.8.1

> <Gold.Id.Protein>
6NUR|6NUR_protein|mol2

> <Gold.PLP.Fitness>
50.3286

> <Gold.PLP.PLP>
-39.1241

> <Gold.PLP.part.hbond>
-3.0000

> <Gold.PLP.part.metal>
0.0000

> <Gold.PLP.part.buried>
-2.1702

> <Gold.PLP.part.nonpolar>
-33.6996

> <Gold.PLP.part.repulsive>
0.1876

> <Gold.PLP.ligand.clash>
0.0000

> <Gold.PLP.ligand.torsion>
0.5749

> <Gold.PLP.Chemscore.Hbond>
3.0000

> <Gold.PLP.Chemscore.CHOScore>
0.9233

> <Gold.PLP.Chemscore.Metal>
0.0000

> <Gold.Chemscore.Hbonds>
donor molecule, donor type, donor heavy atom, donor atom, acceptor molecule, acceptor atom, score
      L1  H     4    59       P1  7948  2.00
      L1  C    19    47       P1  8028  0.73

> <Gold.PLP.Chemscore.Internal.Correction>
0.5844

> <Gold.Rescore>
     Score         DG    S(hbond)    S(metal)    S(lipo)     H(rot)  DE(clash)    DE(int)     intcor
      8.84     -11.73       1.95        0.00      95.69       4.48       0.46       2.43       ----

> <Gold.Chemscore.Fitness>
8.8444

> <Gold.Chemscore.DG>
-11.7335

> <Gold.Chemscore.ZeroCoef>
-5.4800

> <Gold.Chemscore.Hbond>
1.9532

> <Gold.Chemscore.Metal>
0.0000

> <Gold.Chemscore.Lipo>
95.6865

> <Gold.Chemscore.Internal_Hbond>
0.0000

> <Gold.Chemscore.DEClash>
0.4580

> <Gold.Chemscore.DEInternal>
2.4311

> <Gold.Chemscore.Rot>
4.4787

> <Gold.Chemscore.Internal.Correction>
   9.000000E+99

> <Gold.Chemscore.Hbonds>
donor molecule, donor type, donor heavy atom, donor atom, acceptor molecule, acceptor atom, score
      L1  H     4    59       P1  7948  0.99

> <Gold.Chemscore.Hbond.Weighted>
-6.5237

> <Gold.Chemscore.Metal.Weighted>
-0.0000

> <Gold.Chemscore.Lipo.Weighted>
-11.1953

> <Gold.Chemscore.Internal_Hbond.Weighted>
0.0000

> <Gold.Chemscore.DEClash.Weighted>
0.4580

> <Gold.Chemscore.DEInternal.Weighted>
2.4311

> <Gold.Chemscore.Rot.Weighted>
11.4655

> <Gold.Chemscore.Internal.Correction.Weighted>
   9.000000E+99

> <Gold.Protein.RotatedTorsions>
[ 6907 6896 6895 6894 ] final -109.03 input  -60.11 | X-H torsion
[ 7974 7965 7964 7962 ] final -176.97 input  175.53 | X-H torsion
[ 8008 7997 7996 7995 ] final   12.40 input   59.86 | X-H torsion
[ 10167 10162 10161 10158 ] final   73.11 input  -65.29 | X-H torsion
[ 10718 10713 10712 10709 ] final   18.25 input   66.30 | X-H torsion
[ 10763 10752 10751 10750 ] final  -66.07 input  -60.55 | X-H torsion
[ 11005 11000 10999 10996 ] final   67.13 input  -57.11 | X-H torsion

> <Gold.Protein.ActiveResidues>
 VAL166  LYS551  ARG553  GLY616  TRP617  ASP618  TYR619  PRO620  LYS621  CYS622 
 ASP623  PHE694  ASN695  SER759  ASP760  ASP761  ALA762  ILE779  LEU786  VAL792 
 PHE793  MET794  SER795  GLU796  ALA797  LYS798  CYS799  TRP800  GLU811  SER814 

> <Gold.Protein.RotatedAtoms>
  150.7537  133.9590  159.3509 H   0  0  0  0  0  0  0  0  0  0  0  0  # atno 6907 bound_to 6896
  151.7514  135.0830  160.0341 H   0  0  0  0  0  0  0  0  0  0  0  0  # atno 6908 bound_to 6896
  152.3463  133.6089  159.5949 H   0  0  0  0  0  0  0  0  0  0  0  0  # atno 6909 bound_to 6896
  144.7127  140.1089  143.6412 H   0  0  0  0  0  0  0  0  0  0  0  0  # atno 7974 bound_to 7965
  154.8201  140.2882  155.5793 H   0  0  0  0  0  0  0  0  0  0  0  0  # atno 8008 bound_to 7997
  156.2997  140.2552  156.3036 H   0  0  0  0  0  0  0  0  0  0  0  0  # atno 8009 bound_to 7997
  154.9349  140.0382  157.2056 H   0  0  0  0  0  0  0  0  0  0  0  0  # atno 8010 bound_to 7997
  140.0280  144.5488  150.7529 H   0  0  0  0  0  0  0  0  0  0  0  0  # atno 10167 bound_to 10162
  157.0936  130.6438  149.5855 H   0  0  0  0  0  0  0  0  0  0  0  0  # atno 10718 bound_to 10713
  154.3545  135.6129  153.5659 H   0  0  0  0  0  0  0  0  0  0  0  0  # atno 10763 bound_to 10752
  152.9796  135.5800  154.4705 H   0  0  0  0  0  0  0  0  0  0  0  0  # atno 10764 bound_to 10752
  154.4432  135.2851  155.1810 H   0  0  0  0  0  0  0  0  0  0  0  0  # atno 10765 bound_to 10752
  139.9789  134.6776  156.0300 H   0  0  0  0  0  0  0  0  0  0  0  0  # atno 11005 bound_to 11000
  145.9472  139.2709  143.1234 LP  0  0  0  0  0  0  0  0  0  0  0  0  # atno 17320 bound_to 7965
  145.9362  140.9013  143.0331 LP  0  0  0  0  0  0  0  0  0  0  0  0  # atno 17321 bound_to 7965
  140.7314  143.2694  151.3937 LP  0  0  0  0  0  0  0  0  0  0  0  0  # atno 17342 bound_to 10162
  139.6095  144.1127  152.2284 LP  0  0  0  0  0  0  0  0  0  0  0  0  # atno 17343 bound_to 10162
  155.9891  130.4938  150.7202 LP  0  0  0  0  0  0  0  0  0  0  0  0  # atno 17370 bound_to 10713
  157.4700  131.0892  151.0652 LP  0  0  0  0  0  0  0  0  0  0  0  0  # atno 17371 bound_to 10713
  141.1464  133.6555  156.3879 LP  0  0  0  0  0  0  0  0  0  0  0  0  # atno 17394 bound_to 11000
  140.5137  134.6371  157.5293 LP  0  0  0  0  0  0  0  0  0  0  0  0  # atno 17395 bound_to 11000

$$$$
