AV-unprocessed.smi:338|AV-procd|sdf|2375|dock4
  -GOLD-   2262022293D 1   1.00000     0.00000
 Structure written by MMmdl.
 41 43  0  0  0  0  0  0  0  0  1 V2000
  142.8715  135.7757  153.0952 C   0  0  0  0  0  0  0  0  0  0  0  0
  143.5832  136.7465  154.0363 C   0  0  0  0  0  0  0  0  0  0  0  0
  143.1345  136.9027  155.1715 O   0  0  0  0  0  0  0  0  0  0  0  0
  144.7908  137.4554  153.5228 C   0  0  0  0  0  0  0  0  0  0  0  0
  145.2351  137.2925  152.1899 C   0  0  0  0  0  0  0  0  0  0  0  0
  146.3768  137.9760  151.7335 C   0  0  0  0  0  0  0  0  0  0  0  0
  147.0853  138.8260  152.6015 C   0  0  0  0  0  0  0  0  0  0  0  0
  146.6649  139.0046  153.9338 C   0  0  0  0  0  0  0  0  0  0  0  0
  147.4177  139.8547  154.7154 O   0  0  0  0  0  0  0  0  0  0  0  0
  148.5516  140.4833  154.1318 C   0  0  0  0  0  0  0  0  0  0  0  0
  149.7427  140.3549  155.0924 C   0  0  1  0  0  0  0  0  0  0  0  0
  150.8565  139.8743  154.3656 O   0  0  0  0  0  0  0  0  0  0  0  0
  150.0998  141.6926  155.7695 C   0  0  0  0  0  0  0  0  0  0  0  0
  150.9801  141.5209  156.9114 N   0  0  0  0  0  0  0  0  0  0  0  0
  151.4906  140.3652  157.3786 C   0  0  0  0  0  0  0  0  0  0  0  0
  152.2822  140.4357  158.4449 N   0  0  0  0  0  0  0  0  0  0  0  0
  152.2906  141.7969  158.6971 C   0  0  0  0  0  0  0  0  0  0  0  0
  152.9493  142.5396  159.7030 C   0  0  0  0  0  0  0  0  0  0  0  0
  152.8084  143.9418  159.7638 C   0  0  0  0  0  0  0  0  0  0  0  0
  152.0086  144.6218  158.8224 C   0  0  0  0  0  0  0  0  0  0  0  0
  151.3429  143.9034  157.8105 C   0  0  0  0  0  0  0  0  0  0  0  0
  151.4858  142.5046  157.7538 C   0  0  0  0  0  0  0  0  0  0  0  0
  145.5121  138.3134  154.3862 C   0  0  0  0  0  0  0  0  0  0  0  0
  142.5224  136.2947  152.2021 H   0  0  0  0  0  0  0  0  0  0  0  0
  142.0078  135.3295  153.5891 H   0  0  0  0  0  0  0  0  0  0  0  0
  143.5446  134.9724  152.7950 H   0  0  0  0  0  0  0  0  0  0  0  0
  144.7148  136.6481  151.4973 H   0  0  0  0  0  0  0  0  0  0  0  0
  146.7100  137.8480  150.7141 H   0  0  0  0  0  0  0  0  0  0  0  0
  147.9609  139.3458  152.2412 H   0  0  0  0  0  0  0  0  0  0  0  0
  148.7894  139.9930  153.1861 H   0  0  0  0  0  0  0  0  0  0  0  0
  148.3485  141.5359  153.9267 H   0  0  0  0  0  0  0  0  0  0  0  0
  149.5041  139.6108  155.8535 H   0  0  0  0  0  0  0  0  0  0  0  0
  150.8200  138.9299  154.3524 H   0  0  0  0  0  0  0  0  0  0  0  0
  150.5792  142.3648  155.0561 H   0  0  0  0  0  0  0  0  0  0  0  0
  149.1959  142.1972  156.1128 H   0  0  0  0  0  0  0  0  0  0  0  0
  151.2656  139.4177  156.9107 H   0  0  0  0  0  0  0  0  0  0  0  0
  153.5650  142.0294  160.4288 H   0  0  0  0  0  0  0  0  0  0  0  0
  153.3173  144.4985  160.5369 H   0  0  0  0  0  0  0  0  0  0  0  0
  151.9072  145.6958  158.8768 H   0  0  0  0  0  0  0  0  0  0  0  0
  150.7299  144.4206  157.0873 H   0  0  0  0  0  0  0  0  0  0  0  0
  145.1675  138.4344  155.4022 H   0  0  0  0  0  0  0  0  0  0  0  0
  1  2  1  0  0  0  0
  1 24  1  0  0  0  0
  1 25  1  0  0  0  0
  1 26  1  0  0  0  0
  2  3  2  0  0  0  0
  2  4  1  0  0  0  0
  4 23  1  0  0  0  0
  4  5  2  0  0  0  0
  5  6  1  0  0  0  0
  5 27  1  0  0  0  0
  6  7  2  0  0  0  0
  6 28  1  0  0  0  0
  7  8  1  0  0  0  0
  7 29  1  0  0  0  0
  8  9  1  0  0  0  0
  8 23  2  0  0  0  0
  9 10  1  0  0  0  0
 10 11  1  0  0  0  0
 10 30  1  0  0  0  0
 10 31  1  0  0  0  0
 11 12  1  0  0  0  0
 11 13  1  0  0  0  0
 11 32  1  0  0  0  0
 12 33  1  0  0  0  0
 13 14  1  0  0  0  0
 13 34  1  0  0  0  0
 13 35  1  0  0  0  0
 14 22  1  0  0  0  0
 14 15  1  0  0  0  0
 15 16  2  0  0  0  0
 15 36  1  0  0  0  0
 16 17  1  0  0  0  0
 17 22  2  0  0  0  0
 17 18  1  0  0  0  0
 18 19  2  0  0  0  0
 18 37  1  0  0  0  0
 19 20  1  0  0  0  0
 19 38  1  0  0  0  0
 20 21  2  0  0  0  0
 20 39  1  0  0  0  0
 21 22  1  0  0  0  0
 21 40  1  0  0  0  0
 23 41  1  0  0  0  0
M  END
> <s_m_source_file>
AV-unprocessed.smi

> <i_m_source_file_index>
338

> <i_lp_mmshare_version>
43012

> <i_f3d_flags>
0

> <s_epik_input>
W0NIM11DKD1PKWMxW2NIXVtjSF1bY0hdYyhbY0hdMSlPW0NIMl1bQ0BIXShbT0hdKVtDSDJdbihbY0hdbjIpYyhjMjMpW2NIXVtjSF1bY0hdW2NIXTM=

> <s_epik_cmdline>
J2VwaWtfcHl0aG9uJywgJy1waCcsICc3LjAnLCAnLXRuJywgJzgnLCAnLW1hJywgJzIwMCcsICctbWV0YWxfYmluZGluZycsICctaW1hZScsICc8aW5maWxlLm1hZT4nLCAnLW9tYWUnLCAnPG91dGZpbGUubWFlPic=

> <r_lp_tautomer_probability>
0.99995

> <r_epik_Ionization_Penalty>
0.0640132

> <r_epik_Ionization_Penalty_Charging>
0

> <r_epik_Ionization_Penalty_Neutral>
0.0640132

> <r_epik_State_Penalty>
0.0557325

> <r_epik_Charging_Adjusted_Penalty>
0.0557325

> <i_epik_Tot_Q>
0

> <i_epik_Tot_abs_Q>
0

> <r_epik_Metal_State_Penalty>
5.8435e-05

> <b_epik_Metal_Only>
0

> <s_lp_Force_Field>
OPLS_2005

> <r_lp_Energy>
20.9332

> <b_lp_Chiralities_Consistent>
1

> <s_lp_Variant>
AV-unprocessed.smi:338-2

> <Gold.Version>
5.8.1

> <Gold.Id.Protein>
6NUR|6NUR_protein|mol2

> <Gold.PLP.Fitness>
41.7646

> <Gold.PLP.PLP>
-42.9718

> <Gold.PLP.part.hbond>
-1.0000

> <Gold.PLP.part.metal>
0.0000

> <Gold.PLP.part.buried>
0.1150

> <Gold.PLP.part.nonpolar>
-42.1461

> <Gold.PLP.part.repulsive>
0.1077

> <Gold.PLP.ligand.clash>
2.1427

> <Gold.PLP.ligand.torsion>
1.1195

> <Gold.PLP.Chemscore.Hbond>
1.0000

> <Gold.PLP.Chemscore.CHOScore>
0.0000

> <Gold.PLP.Chemscore.Metal>
0.0000

> <Gold.Chemscore.Hbonds>
donor molecule, donor type, donor heavy atom, donor atom, acceptor molecule, acceptor atom, score
      P1  H  7989  7998       L1    12  0.99

> <Gold.PLP.Chemscore.Internal.Correction>
0.1745

> <Gold.Rescore>
     Score         DG    S(hbond)    S(metal)    S(lipo)     H(rot)  DE(clash)    DE(int)     intcor
     15.86     -17.10       0.97        0.00     124.27       2.40       0.15       1.10       ----

> <Gold.Chemscore.Fitness>
15.8609

> <Gold.Chemscore.DG>
-17.1039

> <Gold.Chemscore.ZeroCoef>
-5.4800

> <Gold.Chemscore.Hbond>
0.9670

> <Gold.Chemscore.Metal>
0.0000

> <Gold.Chemscore.Lipo>
124.2683

> <Gold.Chemscore.Internal_Hbond>
0.0000

> <Gold.Chemscore.DEClash>
0.1480

> <Gold.Chemscore.DEInternal>
1.0950

> <Gold.Chemscore.Rot>
2.4005

> <Gold.Chemscore.Internal.Correction>
   9.000000E+99

> <Gold.Chemscore.Hbonds>
donor molecule, donor type, donor heavy atom, donor atom, acceptor molecule, acceptor atom, score
      P1  H  7989  7998       L1    12  0.88

> <Gold.Chemscore.Hbond.Weighted>
-3.2298

> <Gold.Chemscore.Metal.Weighted>
-0.0000

> <Gold.Chemscore.Lipo.Weighted>
-14.5394

> <Gold.Chemscore.Internal_Hbond.Weighted>
0.0000

> <Gold.Chemscore.DEClash.Weighted>
0.1480

> <Gold.Chemscore.DEInternal.Weighted>
1.0950

> <Gold.Chemscore.Rot.Weighted>
6.1453

> <Gold.Chemscore.Internal.Correction.Weighted>
   9.000000E+99

> <Gold.Protein.RotatedTorsions>
[ 6907 6896 6895 6894 ] final   27.64 input  -60.11 | X-H torsion
[ 7974 7965 7964 7962 ] final   22.70 input  175.53 | X-H torsion
[ 8008 7997 7996 7995 ] final   63.31 input   59.86 | X-H torsion
[ 10167 10162 10161 10158 ] final   22.89 input  -65.29 | X-H torsion
[ 10718 10713 10712 10709 ] final  -56.86 input   66.30 | X-H torsion
[ 10763 10752 10751 10750 ] final  -55.60 input  -60.55 | X-H torsion
[ 11005 11000 10999 10996 ] final   68.17 input  -57.11 | X-H torsion

> <Gold.Protein.ActiveResidues>
 VAL166  LYS551  ARG553  GLY616  TRP617  ASP618  TYR619  PRO620  LYS621  CYS622 
 ASP623  PHE694  ASN695  SER759  ASP760  ASP761  ALA762  ILE779  LEU786  VAL792 
 PHE793  MET794  SER795  GLU796  ALA797  LYS798  CYS799  TRP800  GLU811  SER814 

> <Gold.Protein.RotatedAtoms>
  152.0053  134.9906  160.0566 H   0  0  0  0  0  0  0  0  0  0  0  0  # atno 6907 bound_to 6896
  152.1480  133.4500  159.4808 H   0  0  0  0  0  0  0  0  0  0  0  0  # atno 6908 bound_to 6896
  150.6872  134.2142  159.4414 H   0  0  0  0  0  0  0  0  0  0  0  0  # atno 6909 bound_to 6896
  146.2017  139.7848  142.8756 H   0  0  0  0  0  0  0  0  0  0  0  0  # atno 7974 bound_to 7965
  155.6281  140.3496  155.4674 H   0  0  0  0  0  0  0  0  0  0  0  0  # atno 8008 bound_to 7997
  156.0025  140.1216  157.0557 H   0  0  0  0  0  0  0  0  0  0  0  0  # atno 8009 bound_to 7997
  154.4253  140.1097  156.5703 H   0  0  0  0  0  0  0  0  0  0  0  0  # atno 8010 bound_to 7997
  140.5312  143.9838  150.6467 H   0  0  0  0  0  0  0  0  0  0  0  0  # atno 10167 bound_to 10162
  156.1255  130.4163  150.0363 H   0  0  0  0  0  0  0  0  0  0  0  0  # atno 10718 bound_to 10713
  154.1933  135.6423  153.5066 H   0  0  0  0  0  0  0  0  0  0  0  0  # atno 10763 bound_to 10752
  153.0029  135.5434  154.6392 H   0  0  0  0  0  0  0  0  0  0  0  0  # atno 10764 bound_to 10752
  154.5786  135.2923  155.0728 H   0  0  0  0  0  0  0  0  0  0  0  0  # atno 10765 bound_to 10752
  139.9727  134.6873  156.0414 H   0  0  0  0  0  0  0  0  0  0  0  0  # atno 11005 bound_to 11000
  145.3460  141.0298  143.3365 LP  0  0  0  0  0  0  0  0  0  0  0  0  # atno 17320 bound_to 7965
  144.8699  139.5054  143.6773 LP  0  0  0  0  0  0  0  0  0  0  0  0  # atno 17321 bound_to 7965
  140.3213  143.3135  152.0781 LP  0  0  0  0  0  0  0  0  0  0  0  0  # atno 17342 bound_to 10162
  139.4955  144.6572  151.6547 LP  0  0  0  0  0  0  0  0  0  0  0  0  # atno 17343 bound_to 10162
  156.8289  130.9385  151.3638 LP  0  0  0  0  0  0  0  0  0  0  0  0  # atno 17370 bound_to 10713
  157.6437  130.8826  149.9497 LP  0  0  0  0  0  0  0  0  0  0  0  0  # atno 17371 bound_to 10713
  141.1406  133.6565  156.3719 LP  0  0  0  0  0  0  0  0  0  0  0  0  # atno 17394 bound_to 11000
  140.5259  134.6259  157.5334 LP  0  0  0  0  0  0  0  0  0  0  0  0  # atno 17395 bound_to 11000

$$$$
