AV-unprocessed.smi:219|AV-procd|sdf|1678|dock6
  -GOLD-   2262020113D 1   1.00000     0.00000
 Structure written by MMmdl.
 50 53  0  0  0  0  0  0  0  0  1 V2000
  152.3200  137.7655  156.6846 N   0  0  0  0  0  0  0  0  0  0  0  0
  152.4915  138.4562  155.5543 C   0  0  0  0  0  0  0  0  0  0  0  0
  153.5468  139.0285  155.2913 O   0  0  0  0  0  0  0  0  0  0  0  0
  151.3049  138.5084  154.5813 C   0  0  0  0  0  0  0  0  0  0  0  0
  150.2185  139.5770  154.9065 C   0  0  2  0  0  0  0  0  0  0  0  0
  150.8803  140.7485  155.6684 C   0  0  0  0  0  0  0  0  0  0  0  0
  149.8697  141.8427  156.0389 C   0  0  0  0  0  0  0  0  0  0  0  0
  148.7090  141.2347  156.8330 C   0  0  0  0  0  0  0  0  0  0  0  0
  148.0708  140.0854  156.0422 C   0  0  0  0  0  0  0  0  0  0  0  0
  149.0650  139.0732  155.6794 N   0  0  0  0  0  0  0  0  0  0  0  0
  148.4831  137.9420  155.2207 C   0  0  0  0  0  0  0  0  0  0  0  0
  148.8255  136.7370  155.7487 N   0  0  0  0  0  0  0  0  0  0  0  0
  148.2112  135.6272  155.3279 C   0  0  0  0  0  0  0  0  0  0  0  0
  147.2447  135.5023  154.4154 N   0  0  0  0  0  0  0  0  0  0  0  0
  146.9054  136.7115  153.8828 C   0  0  0  0  0  0  0  0  0  0  0  0
  147.4796  137.9687  154.2175 C   0  0  0  0  0  0  0  0  0  0  0  0
  146.8880  138.9801  153.4722 N   0  0  0  0  0  0  0  0  0  0  0  0
  146.0058  138.3560  152.7407 C   0  0  0  0  0  0  0  0  0  0  0  0
  145.9354  136.9946  152.9374 N   0  0  0  0  0  0  0  0  0  0  0  0
  145.0284  136.0643  152.2846 C   0  0  0  0  0  0  0  0  0  0  0  0
  145.6601  135.3514  151.0657 C   0  0  1  0  0  0  0  0  0  0  0  0
  146.0613  136.3225  150.1144 O   0  0  0  0  0  0  0  0  0  0  0  0
  146.8703  134.4854  151.4084 C   0  0  0  0  0  0  0  0  0  0  0  0
  146.7709  133.3458  150.4042 C   0  0  0  0  0  0  0  0  0  0  0  0
  145.3757  133.1038  150.3544 O   0  0  0  0  0  0  0  0  0  0  0  0
  144.7021  134.3581  150.3774 C   0  0  0  0  0  0  0  0  0  0  0  0
  153.0787  137.6952  157.3473 H   0  0  0  0  0  0  0  0  0  0  0  0
  151.4394  137.3068  156.8677 H   0  0  0  0  0  0  0  0  0  0  0  0
  151.6540  138.6271  153.5544 H   0  0  0  0  0  0  0  0  0  0  0  0
  150.8567  137.5153  154.6253 H   0  0  0  0  0  0  0  0  0  0  0  0
  149.8277  139.9792  153.9703 H   0  0  0  0  0  0  0  0  0  0  0  0
  151.3520  140.3727  156.5778 H   0  0  0  0  0  0  0  0  0  0  0  0
  151.6775  141.1858  155.0661 H   0  0  0  0  0  0  0  0  0  0  0  0
  150.3569  142.6245  156.6221 H   0  0  0  0  0  0  0  0  0  0  0  0
  149.4900  142.3168  155.1329 H   0  0  0  0  0  0  0  0  0  0  0  0
  149.0705  140.8648  157.7934 H   0  0  0  0  0  0  0  0  0  0  0  0
  147.9626  141.9984  157.0528 H   0  0  0  0  0  0  0  0  0  0  0  0
  147.2766  139.6301  156.6361 H   0  0  0  0  0  0  0  0  0  0  0  0
  147.6060  140.4812  155.1380 H   0  0  0  0  0  0  0  0  0  0  0  0
  148.5346  134.7089  155.7953 H   0  0  0  0  0  0  0  0  0  0  0  0
  145.3687  138.8784  152.0420 H   0  0  0  0  0  0  0  0  0  0  0  0
  144.7070  135.3298  153.0242 H   0  0  0  0  0  0  0  0  0  0  0  0
  144.1317  136.6079  151.9832 H   0  0  0  0  0  0  0  0  0  0  0  0
  145.4213  137.0179  150.1071 H   0  0  0  0  0  0  0  0  0  0  0  0
  147.8219  135.0173  151.3648 H   0  0  0  0  0  0  0  0  0  0  0  0
  146.7666  134.0725  152.4125 H   0  0  0  0  0  0  0  0  0  0  0  0
  147.1291  133.6535  149.4206 H   0  0  0  0  0  0  0  0  0  0  0  0
  147.3241  132.4588  150.7143 H   0  0  0  0  0  0  0  0  0  0  0  0
  143.7590  134.2479  150.9138 H   0  0  0  0  0  0  0  0  0  0  0  0
  144.4627  134.6597  149.3561 H   0  0  0  0  0  0  0  0  0  0  0  0
  1  2  1  0  0  0  0
  1 27  1  0  0  0  0
  1 28  1  0  0  0  0
  2  3  2  0  0  0  0
  2  4  1  0  0  0  0
  4  5  1  0  0  0  0
  4 29  1  0  0  0  0
  4 30  1  0  0  0  0
  5 10  1  0  0  0  0
  5  6  1  0  0  0  0
  5 31  1  0  0  0  0
  6  7  1  0  0  0  0
  6 32  1  0  0  0  0
  6 33  1  0  0  0  0
  7  8  1  0  0  0  0
  7 34  1  0  0  0  0
  7 35  1  0  0  0  0
  8  9  1  0  0  0  0
  8 36  1  0  0  0  0
  8 37  1  0  0  0  0
  9 10  1  0  0  0  0
  9 38  1  0  0  0  0
  9 39  1  0  0  0  0
 10 11  1  0  0  0  0
 11 16  1  0  0  0  0
 11 12  2  0  0  0  0
 12 13  1  0  0  0  0
 13 14  2  0  0  0  0
 13 40  1  0  0  0  0
 14 15  1  0  0  0  0
 15 19  1  0  0  0  0
 15 16  2  0  0  0  0
 16 17  1  0  0  0  0
 17 18  2  0  0  0  0
 18 19  1  0  0  0  0
 18 41  1  0  0  0  0
 19 20  1  0  0  0  0
 20 21  1  0  0  0  0
 20 42  1  0  0  0  0
 20 43  1  0  0  0  0
 21 26  1  0  0  0  0
 21 22  1  0  0  0  0
 21 23  1  0  0  0  0
 22 44  1  0  0  0  0
 23 24  1  0  0  0  0
 23 45  1  0  0  0  0
 23 46  1  0  0  0  0
 24 25  1  0  0  0  0
 24 47  1  0  0  0  0
 24 48  1  0  0  0  0
 25 26  1  0  0  0  0
 26 49  1  0  0  0  0
 26 50  1  0  0  0  0
M  END
> <s_m_source_file>
AV-unprocessed.smi

> <i_m_source_file_index>
219

> <i_lp_mmshare_version>
43012

> <i_f3d_flags>
0

> <s_epik_input>
W05IMl1DKD1PKVtDSDJdW0NAQEhdMVtDSDJdW0NIMl1bQ0gyXVtDSDJdTjFjKG5bY0hdbjIpYyhjMjMpbltjSF1uM1tDSDJdW0NAQF00KFtPSF0pW0NIMl1bQ0gyXU9bQ0gyXTQ=

> <s_epik_cmdline>
J2VwaWtfcHl0aG9uJywgJy1waCcsICc3LjAnLCAnLXRuJywgJzgnLCAnLW1hJywgJzIwMCcsICctbWV0YWxfYmluZGluZycsICctaW1hZScsICc8aW5maWxlLm1hZT4nLCAnLW9tYWUnLCAnPG91dGZpbGUubWFlPic=

> <r_lp_tautomer_probability>
1

> <r_epik_Ionization_Penalty>
0.00228532

> <r_epik_Ionization_Penalty_Charging>
0

> <r_epik_Ionization_Penalty_Neutral>
0.00228532

> <r_epik_State_Penalty>
0.00140978

> <r_epik_Charging_Adjusted_Penalty>
0.00140978

> <i_epik_Tot_Q>
0

> <i_epik_Tot_abs_Q>
0

> <r_epik_Metal_State_Penalty>
-0

> <b_epik_Metal_Only>
0

> <s_lp_Force_Field>
OPLS_2005

> <r_lp_Energy>
33.2766

> <b_lp_Chiralities_Consistent>
1

> <s_lp_Variant>
AV-unprocessed.smi:219-1

> <Gold.Version>
5.8.1

> <Gold.Id.Protein>
6NUR|6NUR_protein|mol2

> <Gold.PLP.Fitness>
39.3539

> <Gold.PLP.PLP>
-30.1812

> <Gold.PLP.part.hbond>
-3.0000

> <Gold.PLP.part.metal>
0.0000

> <Gold.PLP.part.buried>
-0.6746

> <Gold.PLP.part.nonpolar>
-27.1325

> <Gold.PLP.part.repulsive>
0.6534

> <Gold.PLP.ligand.clash>
0.0000

> <Gold.PLP.ligand.torsion>
1.5356

> <Gold.PLP.Chemscore.Hbond>
1.9920

> <Gold.PLP.Chemscore.CHOScore>
1.9917

> <Gold.PLP.Chemscore.Metal>
0.0000

> <Gold.Chemscore.Hbonds>
donor molecule, donor type, donor heavy atom, donor atom, acceptor molecule, acceptor atom, score
      L1  H    22    44       P1 10171  0.55
      P1  H  7997  8009       L1     3  1.00
      L1  C    18    41       P1 10171  0.60
      L1  C    18    41       P1 10175  1.00

> <Gold.PLP.Chemscore.Internal.Correction>
0.2929

> <Gold.Rescore>
     Score         DG    S(hbond)    S(metal)    S(lipo)     H(rot)  DE(clash)    DE(int)     intcor
      7.22     -11.09       1.87        0.00      68.25       3.37       1.16       2.71       ----

> <Gold.Chemscore.Fitness>
7.2248

> <Gold.Chemscore.DG>
-11.0881

> <Gold.Chemscore.ZeroCoef>
-5.4800

> <Gold.Chemscore.Hbond>
1.8708

> <Gold.Chemscore.Metal>
0.0000

> <Gold.Chemscore.Lipo>
68.2549

> <Gold.Chemscore.Internal_Hbond>
0.0000

> <Gold.Chemscore.DEClash>
1.1576

> <Gold.Chemscore.DEInternal>
2.7057

> <Gold.Chemscore.Rot>
3.3697

> <Gold.Chemscore.Internal.Correction>
   9.000000E+99

> <Gold.Chemscore.Hbonds>
donor molecule, donor type, donor heavy atom, donor atom, acceptor molecule, acceptor atom, score
      L1  H    22    44       P1 10171  0.54
      P1  H  7997  8009       L1     3  0.93

> <Gold.Chemscore.Hbond.Weighted>
-6.2486

> <Gold.Chemscore.Metal.Weighted>
-0.0000

> <Gold.Chemscore.Lipo.Weighted>
-7.9858

> <Gold.Chemscore.Internal_Hbond.Weighted>
0.0000

> <Gold.Chemscore.DEClash.Weighted>
1.1576

> <Gold.Chemscore.DEInternal.Weighted>
2.7057

> <Gold.Chemscore.Rot.Weighted>
8.6264

> <Gold.Chemscore.Internal.Correction.Weighted>
   9.000000E+99

> <Gold.Protein.RotatedTorsions>
[ 6907 6896 6895 6894 ] final  -52.94 input  -60.11 | X-H torsion
[ 7974 7965 7964 7962 ] final  140.11 input  175.53 | X-H torsion
[ 8008 7997 7996 7995 ] final -145.00 input   59.86 | X-H torsion
[ 10167 10162 10161 10158 ] final -152.53 input  -65.29 | X-H torsion
[ 10718 10713 10712 10709 ] final  -67.09 input   66.30 | X-H torsion
[ 10763 10752 10751 10750 ] final  161.46 input  -60.55 | X-H torsion
[ 11005 11000 10999 10996 ] final    5.34 input  -57.11 | X-H torsion

> <Gold.Protein.ActiveResidues>
 VAL166  LYS551  ARG553  GLY616  TRP617  ASP618  TYR619  PRO620  LYS621  CYS622 
 ASP623  PHE694  ASN695  SER759  ASP760  ASP761  ALA762  ILE779  LEU786  VAL792 
 PHE793  MET794  SER795  GLU796  ALA797  LYS798  CYS799  TRP800  GLU811  SER814 

> <Gold.Protein.RotatedAtoms>
  150.8472  134.7785  159.6979 H   0  0  0  0  0  0  0  0  0  0  0  0  # atno 6907 bound_to 6896
  152.4546  134.5316  159.9822 H   0  0  0  0  0  0  0  0  0  0  0  0  # atno 6908 bound_to 6896
  151.5444  133.3389  159.2977 H   0  0  0  0  0  0  0  0  0  0  0  0  # atno 6909 bound_to 6896
  144.9217  139.5159  143.5660 H   0  0  0  0  0  0  0  0  0  0  0  0  # atno 7974 bound_to 7965
  155.5361  140.0604  157.2879 H   0  0  0  0  0  0  0  0  0  0  0  0  # atno 8008 bound_to 7997
  154.4467  140.1927  156.0588 H   0  0  0  0  0  0  0  0  0  0  0  0  # atno 8009 bound_to 7997
  156.0617  140.3271  155.7474 H   0  0  0  0  0  0  0  0  0  0  0  0  # atno 8010 bound_to 7997
  139.7174  143.9012  152.2491 H   0  0  0  0  0  0  0  0  0  0  0  0  # atno 10167 bound_to 10162
  156.0576  130.4272  150.1804 H   0  0  0  0  0  0  0  0  0  0  0  0  # atno 10718 bound_to 10713
  154.2633  135.2768  155.2769 H   0  0  0  0  0  0  0  0  0  0  0  0  # atno 10763 bound_to 10752
  154.5365  135.5715  153.6806 H   0  0  0  0  0  0  0  0  0  0  0  0  # atno 10764 bound_to 10752
  152.9958  135.6240  154.2784 H   0  0  0  0  0  0  0  0  0  0  0  0  # atno 10765 bound_to 10752
  140.5718  134.0095  155.8012 H   0  0  0  0  0  0  0  0  0  0  0  0  # atno 11005 bound_to 11000
  146.3207  139.8101  142.8947 LP  0  0  0  0  0  0  0  0  0  0  0  0  # atno 17320 bound_to 7965
  145.3285  141.0261  143.3460 LP  0  0  0  0  0  0  0  0  0  0  0  0  # atno 17321 bound_to 7965
  139.8898  144.6972  150.8783 LP  0  0  0  0  0  0  0  0  0  0  0  0  # atno 17342 bound_to 10162
  140.7746  143.3595  151.1855 LP  0  0  0  0  0  0  0  0  0  0  0  0  # atno 17343 bound_to 10162
  156.9877  130.9884  151.3422 LP  0  0  0  0  0  0  0  0  0  0  0  0  # atno 17370 bound_to 10713
  157.5559  130.8213  149.8204 LP  0  0  0  0  0  0  0  0  0  0  0  0  # atno 17371 bound_to 10713
  141.1051  133.9706  157.3011 LP  0  0  0  0  0  0  0  0  0  0  0  0  # atno 17394 bound_to 11000
  139.9358  135.0196  156.8551 LP  0  0  0  0  0  0  0  0  0  0  0  0  # atno 17395 bound_to 11000

$$$$
