AV-unprocessed.smi:2144|AV-procd|sdf|8730|dock8
  -GOLD-   2272011503D 1   1.00000     0.00000
 Structure written by MMmdl.
 40 42  0  0  0  0  0  0  0  0  1 V2000
  151.0083  140.4345  155.2940 O   0  0  0  0  0  0  0  0  0  0  0  0
  151.6235  139.8954  156.4435 C   0  0  0  0  0  0  0  0  0  0  0  0
  151.8059  140.9053  157.5356 C   0  0  0  0  0  0  0  0  0  0  0  0
  151.5427  142.1981  157.3412 N   0  0  0  0  0  0  0  0  0  0  0  0
  151.8158  142.7545  158.5748 C   0  0  0  0  0  0  0  0  0  0  0  0
  151.7264  144.0934  159.0185 C   0  0  0  0  0  0  0  0  0  0  0  0
  152.0553  144.4281  160.3484 C   0  0  0  0  0  0  0  0  0  0  0  0
  152.4762  143.4310  161.2519 C   0  0  0  0  0  0  0  0  0  0  0  0
  152.5740  142.0914  160.8295 C   0  0  0  0  0  0  0  0  0  0  0  0
  152.2477  141.7629  159.4999 C   0  0  0  0  0  0  0  0  0  0  0  0
  152.2413  140.5726  158.7788 N   0  0  0  0  0  0  0  0  0  0  0  0
  152.6122  139.2615  159.2978 C   0  0  0  0  0  0  0  0  0  0  0  0
  153.9496  139.2801  160.0665 C   0  0  2  0  0  0  0  0  0  0  0  0
  154.9467  139.9104  159.2885 O   0  0  0  0  0  0  0  0  0  0  0  0
  154.4350  137.8688  160.4269 C   0  0  0  0  0  0  0  0  0  0  0  0
  154.0886  137.5980  161.7785 O   0  0  0  0  0  0  0  0  0  0  0  0
  154.3022  136.3271  162.2679 C   0  0  0  0  0  0  0  0  0  0  0  0
  154.6538  135.2133  161.4630 C   0  0  0  0  0  0  0  0  0  0  0  0
  154.8546  133.9470  162.0461 C   0  0  0  0  0  0  0  0  0  0  0  0
  154.7079  133.7770  163.4350 C   0  0  0  0  0  0  0  0  0  0  0  0
  154.3590  134.8759  164.2413 C   0  0  0  0  0  0  0  0  0  0  0  0
  154.1578  136.1425  163.6597 C   0  0  0  0  0  0  0  0  0  0  0  0
  153.8223  137.1925  164.4470 F   0  0  0  0  0  0  0  0  0  0  0  0
  150.2739  139.8872  155.0623 H   0  0  0  0  0  0  0  0  0  0  0  0
  151.0058  139.0758  156.8118 H   0  0  0  0  0  0  0  0  0  0  0  0
  152.5858  139.4583  156.1773 H   0  0  0  0  0  0  0  0  0  0  0  0
  151.4022  144.8636  158.3345 H   0  0  0  0  0  0  0  0  0  0  0  0
  151.9826  145.4546  160.6769 H   0  0  0  0  0  0  0  0  0  0  0  0
  152.7238  143.6951  162.2697 H   0  0  0  0  0  0  0  0  0  0  0  0
  152.8951  141.3255  161.5197 H   0  0  0  0  0  0  0  0  0  0  0  0
  151.8097  138.9281  159.9567 H   0  0  0  0  0  0  0  0  0  0  0  0
  152.6561  138.5358  158.4870 H   0  0  0  0  0  0  0  0  0  0  0  0
  153.8411  139.8588  160.9842 H   0  0  0  0  0  0  0  0  0  0  0  0
  155.3508  140.5871  159.8103 H   0  0  0  0  0  0  0  0  0  0  0  0
  153.9848  137.1358  159.7553 H   0  0  0  0  0  0  0  0  0  0  0  0
  155.5191  137.8121  160.3138 H   0  0  0  0  0  0  0  0  0  0  0  0
  154.7768  135.3040  160.3946 H   0  0  0  0  0  0  0  0  0  0  0  0
  155.1221  133.1045  161.4256 H   0  0  0  0  0  0  0  0  0  0  0  0
  154.8627  132.8054  163.8808 H   0  0  0  0  0  0  0  0  0  0  0  0
  154.2455  134.7482  165.3077 H   0  0  0  0  0  0  0  0  0  0  0  0
  1  2  1  0  0  0  0
  1 24  1  0  0  0  0
  2  3  1  0  0  0  0
  2 25  1  0  0  0  0
  2 26  1  0  0  0  0
  3 11  1  0  0  0  0
  3  4  2  0  0  0  0
  4  5  1  0  0  0  0
  5 10  2  0  0  0  0
  5  6  1  0  0  0  0
  6  7  2  0  0  0  0
  6 27  1  0  0  0  0
  7  8  1  0  0  0  0
  7 28  1  0  0  0  0
  8  9  2  0  0  0  0
  8 29  1  0  0  0  0
  9 10  1  0  0  0  0
  9 30  1  0  0  0  0
 10 11  1  0  0  0  0
 11 12  1  0  0  0  0
 12 13  1  0  0  0  0
 12 31  1  0  0  0  0
 12 32  1  0  0  0  0
 13 14  1  0  0  0  0
 13 15  1  0  0  0  0
 13 33  1  0  0  0  0
 14 34  1  0  0  0  0
 15 16  1  0  0  0  0
 15 35  1  0  0  0  0
 15 36  1  0  0  0  0
 16 17  1  0  0  0  0
 17 22  1  0  0  0  0
 17 18  2  0  0  0  0
 18 19  1  0  0  0  0
 18 37  1  0  0  0  0
 19 20  2  0  0  0  0
 19 38  1  0  0  0  0
 20 21  1  0  0  0  0
 20 39  1  0  0  0  0
 21 22  2  0  0  0  0
 21 40  1  0  0  0  0
 22 23  1  0  0  0  0
M  END
> <s_m_source_file>
AV-unprocessed.smi

> <i_m_source_file_index>
2144

> <i_lp_mmshare_version>
43012

> <i_f3d_flags>
0

> <s_epik_input>
W2NIXTFbY0hdW2NIXVtjSF1jKGMxMiluKGMobjIpW0NIMl1bT0hdKVtDSDJdW0NASF0oW09IXSlbQ0gyXU9jM1tjSF1bY0hdW2NIXVtjSF1jM0Y=

> <s_epik_cmdline>
J2VwaWtfcHl0aG9uJywgJy1waCcsICc3LjAnLCAnLXRuJywgJzgnLCAnLW1hJywgJzIwMCcsICctbWV0YWxfYmluZGluZycsICctaW1hZScsICc8aW5maWxlLm1hZT4nLCAnLW9tYWUnLCAnPG91dGZpbGUubWFlPic=

> <r_lp_tautomer_probability>
1

> <r_epik_Ionization_Penalty>
0.0547315

> <r_epik_Ionization_Penalty_Charging>
0

> <r_epik_Ionization_Penalty_Neutral>
0.0547315

> <r_epik_State_Penalty>
0.047032

> <r_epik_Charging_Adjusted_Penalty>
0.047032

> <i_epik_Tot_Q>
0

> <i_epik_Tot_abs_Q>
0

> <r_epik_Metal_State_Penalty>
4.89471e-05

> <b_epik_Metal_Only>
0

> <s_lp_Force_Field>
OPLS_2005

> <r_lp_Energy>
15.0425

> <b_lp_Chiralities_Consistent>
1

> <s_lp_Variant>
AV-unprocessed.smi:2144-1

> <Gold.Version>
5.8.1

> <Gold.Id.Protein>
6NUR|6NUR_protein|mol2

> <Gold.PLP.Fitness>
52.5502

> <Gold.PLP.PLP>
-48.3134

> <Gold.PLP.part.hbond>
-2.0000

> <Gold.PLP.part.metal>
0.0000

> <Gold.PLP.part.buried>
-5.2198

> <Gold.PLP.part.nonpolar>
-40.7847

> <Gold.PLP.part.repulsive>
0.0504

> <Gold.PLP.ligand.clash>
0.0000

> <Gold.PLP.ligand.torsion>
0.8979

> <Gold.PLP.Chemscore.Hbond>
2.0000

> <Gold.PLP.Chemscore.CHOScore>
0.0000

> <Gold.PLP.Chemscore.Metal>
0.0000

> <Gold.Chemscore.Hbonds>
donor molecule, donor type, donor heavy atom, donor atom, acceptor molecule, acceptor atom, score
      P1  H  7989  7998       L1     1  0.94
      P1  H  7997  8008       L1    14  1.00

> <Gold.PLP.Chemscore.Internal.Correction>
0.0325

> <Gold.Rescore>
     Score         DG    S(hbond)    S(metal)    S(lipo)     H(rot)  DE(clash)    DE(int)     intcor
     15.92     -16.99       1.65        0.00     121.69       3.22       0.07       1.00       ----

> <Gold.Chemscore.Fitness>
15.9230

> <Gold.Chemscore.DG>
-16.9871

> <Gold.Chemscore.ZeroCoef>
-5.4800

> <Gold.Chemscore.Hbond>
1.6502

> <Gold.Chemscore.Metal>
0.0000

> <Gold.Chemscore.Lipo>
121.6907

> <Gold.Chemscore.Internal_Hbond>
0.0000

> <Gold.Chemscore.DEClash>
0.0689

> <Gold.Chemscore.DEInternal>
0.9952

> <Gold.Chemscore.Rot>
3.2196

> <Gold.Chemscore.Internal.Correction>
   9.000000E+99

> <Gold.Chemscore.Hbonds>
donor molecule, donor type, donor heavy atom, donor atom, acceptor molecule, acceptor atom, score
      P1  H  7989  7998       L1     1  0.20
      P1  H  7997  8008       L1    14  0.79

> <Gold.Chemscore.Hbond.Weighted>
-5.5115

> <Gold.Chemscore.Metal.Weighted>
-0.0000

> <Gold.Chemscore.Lipo.Weighted>
-14.2378

> <Gold.Chemscore.Internal_Hbond.Weighted>
0.0000

> <Gold.Chemscore.DEClash.Weighted>
0.0689

> <Gold.Chemscore.DEInternal.Weighted>
0.9952

> <Gold.Chemscore.Rot.Weighted>
8.2422

> <Gold.Chemscore.Internal.Correction.Weighted>
   9.000000E+99

> <Gold.Protein.RotatedTorsions>
[ 6907 6896 6895 6894 ] final   90.59 input  -60.11 | X-H torsion
[ 7974 7965 7964 7962 ] final   94.80 input  175.53 | X-H torsion
[ 8008 7997 7996 7995 ] final -137.66 input   59.86 | X-H torsion
[ 10167 10162 10161 10158 ] final -121.56 input  -65.29 | X-H torsion
[ 10718 10713 10712 10709 ] final -106.40 input   66.30 | X-H torsion
[ 10763 10752 10751 10750 ] final   -9.11 input  -60.55 | X-H torsion
[ 11005 11000 10999 10996 ] final -119.18 input  -57.11 | X-H torsion

> <Gold.Protein.ActiveResidues>
 VAL166  LYS551  ARG553  GLY616  TRP617  ASP618  TYR619  PRO620  LYS621  CYS622 
 ASP623  PHE694  ASN695  SER759  ASP760  ASP761  ALA762  ILE779  LEU786  VAL792 
 PHE793  MET794  SER795  GLU796  ALA797  LYS798  CYS799  TRP800  GLU811  SER814 

> <Gold.Protein.RotatedAtoms>
  152.5445  134.1788  159.8626 H   0  0  0  0  0  0  0  0  0  0  0  0  # atno 6907 bound_to 6896
  151.1792  133.4729  159.2601 H   0  0  0  0  0  0  0  0  0  0  0  0  # atno 6908 bound_to 6896
  151.1196  135.0083  159.8587 H   0  0  0  0  0  0  0  0  0  0  0  0  # atno 6909 bound_to 6896
  145.4608  139.2287  143.2988 H   0  0  0  0  0  0  0  0  0  0  0  0  # atno 7974 bound_to 7965
  155.4154  140.0515  157.3029 H   0  0  0  0  0  0  0  0  0  0  0  0  # atno 8008 bound_to 7997
  154.4927  140.2126  155.9473 H   0  0  0  0  0  0  0  0  0  0  0  0  # atno 8009 bound_to 7997
  156.1363  140.3162  155.8432 H   0  0  0  0  0  0  0  0  0  0  0  0  # atno 8010 bound_to 7997
  140.0238  143.5318  152.2208 H   0  0  0  0  0  0  0  0  0  0  0  0  # atno 10167 bound_to 10162
  156.0389  130.5611  150.7676 H   0  0  0  0  0  0  0  0  0  0  0  0  # atno 10718 bound_to 10713
  153.4501  135.7015  153.6114 H   0  0  0  0  0  0  0  0  0  0  0  0  # atno 10763 bound_to 10752
  153.4452  135.3771  155.2252 H   0  0  0  0  0  0  0  0  0  0  0  0  # atno 10764 bound_to 10752
  154.8728  135.3983  154.3912 H   0  0  0  0  0  0  0  0  0  0  0  0  # atno 10765 bound_to 10752
  141.0233  134.0091  157.3251 H   0  0  0  0  0  0  0  0  0  0  0  0  # atno 11005 bound_to 11000
  146.2452  140.5376  142.8917 LP  0  0  0  0  0  0  0  0  0  0  0  0  # atno 17320 bound_to 7965
  144.8004  140.6202  143.6482 LP  0  0  0  0  0  0  0  0  0  0  0  0  # atno 17321 bound_to 7965
  139.6122  144.7611  151.2926 LP  0  0  0  0  0  0  0  0  0  0  0  0  # atno 17342 bound_to 10162
  140.7331  143.6803  150.8006 LP  0  0  0  0  0  0  0  0  0  0  0  0  # atno 17343 bound_to 10162
  157.5178  131.0929  151.0117 LP  0  0  0  0  0  0  0  0  0  0  0  0  # atno 17370 bound_to 10713
  157.0455  130.5766  149.5362 LP  0  0  0  0  0  0  0  0  0  0  0  0  # atno 17371 bound_to 10713
  139.9160  135.0196  156.7882 LP  0  0  0  0  0  0  0  0  0  0  0  0  # atno 17394 bound_to 11000
  140.6535  133.9710  155.7767 LP  0  0  0  0  0  0  0  0  0  0  0  0  # atno 17395 bound_to 11000

$$$$
