AV-unprocessed.smi:1893|AV-procd|sdf|7674|dock2
  -GOLD-   22720 9413D 1   1.00000     0.00000
 Structure written by MMmdl.
 43 44  0  0  0  0  0  0  0  0  2 V2000
  149.3081  137.8575  154.3129 C   0  0  0  0  0  0  0  0  0  0  0  0
  148.5561  139.1900  154.5012 C   0  0  1  0  0  0  0  0  0  0  0  0
  149.5853  140.3319  154.6523 C   0  0  0  0  0  0  0  0  0  0  0  0
  148.9096  141.6955  154.8245 C   0  0  0  0  0  0  0  0  0  0  0  0
  147.9587  141.9448  153.6525 C   0  0  0  0  0  0  0  0  0  0  0  0
  146.9390  140.8037  153.5363 C   0  0  0  0  0  0  0  0  0  0  0  0
  147.6009  139.4786  153.3841 N   0  3  2  0  0  0  0  0  0  0  0  0
  146.6021  138.4025  153.1371 C   0  0  0  0  0  0  0  0  0  0  0  0
  146.5434  138.0163  151.6475 C   0  0  0  0  0  0  0  0  0  0  0  0
  145.4526  137.0863  151.3836 N   0  0  0  0  0  0  0  0  0  0  0  0
  145.2669  135.9186  152.0198 C   0  0  0  0  0  0  0  0  0  0  0  0
  146.0004  135.5295  152.9297 O   0  0  0  0  0  0  0  0  0  0  0  0
  144.0812  135.0645  151.5427 C   0  0  2  0  0  0  0  0  0  0  0  0
  142.9862  134.9046  152.6169 C   0  0  0  0  0  0  0  0  0  0  0  0
  144.5550  133.7770  151.0496 N   0  0  0  0  0  0  0  0  0  0  0  0
  143.8708  132.7412  150.5587 C   0  0  0  0  0  0  0  0  0  0  0  0
  144.6331  131.7350  150.1547 N   0  0  0  0  0  0  0  0  0  0  0  0
  145.8646  132.2523  150.4405 C   0  0  0  0  0  0  0  0  0  0  0  0
  145.8754  133.4774  150.9654 N   0  0  0  0  0  0  0  0  0  0  0  0
  150.0311  137.7043  155.1146 H   0  0  0  0  0  0  0  0  0  0  0  0
  149.8571  137.8416  153.3709 H   0  0  0  0  0  0  0  0  0  0  0  0
  148.6404  136.9966  154.3292 H   0  0  0  0  0  0  0  0  0  0  0  0
  147.9791  139.1265  155.4254 H   0  0  0  0  0  0  0  0  0  0  0  0
  150.2333  140.1408  155.5085 H   0  0  0  0  0  0  0  0  0  0  0  0
  150.2359  140.3605  153.7768 H   0  0  0  0  0  0  0  0  0  0  0  0
  148.3580  141.7222  155.7652 H   0  0  0  0  0  0  0  0  0  0  0  0
  149.6599  142.4851  154.8770 H   0  0  0  0  0  0  0  0  0  0  0  0
  147.4413  142.8950  153.7885 H   0  0  0  0  0  0  0  0  0  0  0  0
  148.5263  142.0295  152.7248 H   0  0  0  0  0  0  0  0  0  0  0  0
  146.2926  140.7888  154.4156 H   0  0  0  0  0  0  0  0  0  0  0  0
  146.2982  140.9923  152.6737 H   0  0  0  0  0  0  0  0  0  0  0  0
  146.8085  137.5305  153.7594 H   0  0  0  0  0  0  0  0  0  0  0  0
  145.6092  138.7361  153.4427 H   0  0  0  0  0  0  0  0  0  0  0  0
  146.4325  138.9070  151.0264 H   0  0  0  0  0  0  0  0  0  0  0  0
  147.4701  137.5380  151.3335 H   0  0  0  0  0  0  0  0  0  0  0  0
  144.8035  137.3368  150.6517 H   0  0  0  0  0  0  0  0  0  0  0  0
  143.6292  135.5853  150.6966 H   0  0  0  0  0  0  0  0  0  0  0  0
  142.6063  135.8746  152.9393 H   0  0  0  0  0  0  0  0  0  0  0  0
  143.3520  134.3825  153.5020 H   0  0  0  0  0  0  0  0  0  0  0  0
  142.1405  134.3376  152.2269 H   0  0  0  0  0  0  0  0  0  0  0  0
  142.7928  132.7246  150.4902 H   0  0  0  0  0  0  0  0  0  0  0  0
  146.7809  131.7135  150.2482 H   0  0  0  0  0  0  0  0  0  0  0  0
  148.1553  139.5460  152.5424 H   0  0  0  0  0  0  0  0  0  0  0  0
  1  2  1  0  0  0  0
  1 20  1  0  0  0  0
  1 21  1  0  0  0  0
  1 22  1  0  0  0  0
  2  7  1  0  0  0  0
  2  3  1  0  0  0  0
  2 23  1  0  0  0  0
  3  4  1  0  0  0  0
  3 24  1  0  0  0  0
  3 25  1  0  0  0  0
  4  5  1  0  0  0  0
  4 26  1  0  0  0  0
  4 27  1  0  0  0  0
  5  6  1  0  0  0  0
  5 28  1  0  0  0  0
  5 29  1  0  0  0  0
  6  7  1  0  0  0  0
  6 30  1  0  0  0  0
  6 31  1  0  0  0  0
  7  8  1  0  0  0  0
  7 43  1  0  0  0  0
  8  9  1  0  0  0  0
  8 32  1  0  0  0  0
  8 33  1  0  0  0  0
  9 10  1  0  0  0  0
  9 34  1  0  0  0  0
  9 35  1  0  0  0  0
 10 11  1  0  0  0  0
 10 36  1  0  0  0  0
 11 12  2  0  0  0  0
 11 13  1  0  0  0  0
 13 14  1  0  0  0  0
 13 15  1  0  0  0  0
 13 37  1  0  0  0  0
 14 38  1  0  0  0  0
 14 39  1  0  0  0  0
 14 40  1  0  0  0  0
 15 19  1  0  0  0  0
 15 16  1  0  0  0  0
 16 17  2  0  0  0  0
 16 41  1  0  0  0  0
 17 18  1  0  0  0  0
 18 19  2  0  0  0  0
 18 42  1  0  0  0  0
M  CHG  1   7   1
M  END
> <s_m_source_file>
AV-unprocessed.smi

> <i_m_source_file_index>
1893

> <i_lp_mmshare_version>
43012

> <i_f3d_flags>
0

> <s_epik_input>
W0NIM11bQ0BASF0xW0NIMl1bQ0gyXVtDSDJdW0NIMl1OMVtDSDJdW0NIMl1bTkhdQyg9TylbQ0BIXShbQ0gzXSluMltjSF1uW2NIXW4y

> <s_epik_cmdline>
J2VwaWtfcHl0aG9uJywgJy1waCcsICc3LjAnLCAnLXRuJywgJzgnLCAnLW1hJywgJzIwMCcsICctbWV0YWxfYmluZGluZycsICctaW1hZScsICc8aW5maWxlLm1hZT4nLCAnLW9tYWUnLCAnPG91dGZpbGUubWFlPic=

> <r_lp_tautomer_probability>
1

> <r_epik_Ionization_Penalty>
0.00266409

> <r_epik_Ionization_Penalty_Charging>
0.00265606

> <r_epik_Ionization_Penalty_Neutral>
8.02794e-06

> <r_epik_State_Penalty>
0.00184955

> <r_epik_Charging_Adjusted_Penalty>
0.00450561

> <i_epik_Tot_Q>
1

> <i_epik_Tot_abs_Q>
1

> <r_epik_Metal_State_Penalty>
-0

> <b_epik_Metal_Only>
0

> <s_lp_Force_Field>
OPLS_2005

> <r_lp_Energy>
24.4169

> <b_lp_Chiralities_Consistent>
1

> <s_lp_Variant>
AV-unprocessed.smi:1893-4

> <Gold.Version>
5.8.1

> <Gold.Id.Protein>
6NUR|6NUR_protein|mol2

> <Gold.PLP.Fitness>
42.5693

> <Gold.PLP.PLP>
-31.9975

> <Gold.PLP.part.hbond>
-2.5439

> <Gold.PLP.part.metal>
0.0000

> <Gold.PLP.part.buried>
0.1293

> <Gold.PLP.part.nonpolar>
-31.4024

> <Gold.PLP.part.repulsive>
0.7266

> <Gold.PLP.ligand.clash>
0.0000

> <Gold.PLP.ligand.torsion>
0.7910

> <Gold.PLP.Chemscore.Hbond>
2.0000

> <Gold.PLP.Chemscore.CHOScore>
2.0000

> <Gold.PLP.Chemscore.Metal>
0.0000

> <Gold.Chemscore.Hbonds>
donor molecule, donor type, donor heavy atom, donor atom, acceptor molecule, acceptor atom, score
      L1  H     7    43       P1  7957  0.94
      L1  H    10    36       P1 10171  0.99
      L1  C    16    41       P1 10186  0.74
      L1  C    18    42       P1 10747  1.00

> <Gold.PLP.Chemscore.Internal.Correction>
0.1539

> <Gold.Rescore>
     Score         DG    S(hbond)    S(metal)    S(lipo)     H(rot)  DE(clash)    DE(int)     intcor
      8.07     -11.32       1.62        0.00      59.12       2.54       0.08       3.17       ----

> <Gold.Chemscore.Fitness>
8.0681

> <Gold.Chemscore.DG>
-11.3180

> <Gold.Chemscore.ZeroCoef>
-5.4800

> <Gold.Chemscore.Hbond>
1.6221

> <Gold.Chemscore.Metal>
0.0000

> <Gold.Chemscore.Lipo>
59.1189

> <Gold.Chemscore.Internal_Hbond>
0.0000

> <Gold.Chemscore.DEClash>
0.0790

> <Gold.Chemscore.DEInternal>
3.1710

> <Gold.Chemscore.Rot>
2.5377

> <Gold.Chemscore.Internal.Correction>
   9.000000E+99

> <Gold.Chemscore.Hbonds>
donor molecule, donor type, donor heavy atom, donor atom, acceptor molecule, acceptor atom, score
      L1  H     7    43       P1  7957  0.90
      L1  H    10    36       P1 10171  0.94

> <Gold.Chemscore.Hbond.Weighted>
-5.4177

> <Gold.Chemscore.Metal.Weighted>
-0.0000

> <Gold.Chemscore.Lipo.Weighted>
-6.9169

> <Gold.Chemscore.Internal_Hbond.Weighted>
0.0000

> <Gold.Chemscore.DEClash.Weighted>
0.0790

> <Gold.Chemscore.DEInternal.Weighted>
3.1710

> <Gold.Chemscore.Rot.Weighted>
6.4966

> <Gold.Chemscore.Internal.Correction.Weighted>
   9.000000E+99

> <Gold.Protein.RotatedTorsions>
[ 6907 6896 6895 6894 ] final -112.97 input  -60.11 | X-H torsion
[ 7974 7965 7964 7962 ] final  -63.97 input  175.53 | X-H torsion
[ 8008 7997 7996 7995 ] final -127.70 input   59.86 | X-H torsion
[ 10167 10162 10161 10158 ] final -161.39 input  -65.29 | X-H torsion
[ 10718 10713 10712 10709 ] final  150.19 input   66.30 | X-H torsion
[ 10763 10752 10751 10750 ] final  154.86 input  -60.55 | X-H torsion
[ 11005 11000 10999 10996 ] final   90.23 input  -57.11 | X-H torsion

> <Gold.Protein.ActiveResidues>
 VAL166  LYS551  ARG553  GLY616  TRP617  ASP618  TYR619  PRO620  LYS621  CYS622 
 ASP623  PHE694  ASN695  SER759  ASP760  ASP761  ALA762  ILE779  LEU786  VAL792 
 PHE793  MET794  SER795  GLU796  ALA797  LYS798  CYS799  TRP800  GLU811  SER814 

> <Gold.Protein.RotatedAtoms>
  150.7796  133.9012  159.3341 H   0  0  0  0  0  0  0  0  0  0  0  0  # atno 6907 bound_to 6896
  151.6878  135.0949  160.0237 H   0  0  0  0  0  0  0  0  0  0  0  0  # atno 6908 bound_to 6896
  152.3843  133.6551  159.6221 H   0  0  0  0  0  0  0  0  0  0  0  0  # atno 6909 bound_to 6896
  145.7724  140.8805  143.0373 H   0  0  0  0  0  0  0  0  0  0  0  0  # atno 7974 bound_to 7965
  155.2505  140.0432  157.2986 H   0  0  0  0  0  0  0  0  0  0  0  0  # atno 8008 bound_to 7997
  154.5772  140.2390  155.8076 H   0  0  0  0  0  0  0  0  0  0  0  0  # atno 8009 bound_to 7997
  156.2166  140.2983  155.9863 H   0  0  0  0  0  0  0  0  0  0  0  0  # atno 8010 bound_to 7997
  139.6469  144.0156  152.2133 H   0  0  0  0  0  0  0  0  0  0  0  0  # atno 10167 bound_to 10162
  157.2866  131.0845  151.1493 H   0  0  0  0  0  0  0  0  0  0  0  0  # atno 10718 bound_to 10713
  154.1590  135.2811  155.3114 H   0  0  0  0  0  0  0  0  0  0  0  0  # atno 10763 bound_to 10752
  154.6161  135.5483  153.7528 H   0  0  0  0  0  0  0  0  0  0  0  0  # atno 10764 bound_to 10752
  153.0198  135.6427  154.1733 H   0  0  0  0  0  0  0  0  0  0  0  0  # atno 10765 bound_to 10752
  139.8860  134.8600  156.3254 H   0  0  0  0  0  0  0  0  0  0  0  0  # atno 11005 bound_to 11000
  144.6810  139.9874  143.7484 LP  0  0  0  0  0  0  0  0  0  0  0  0  # atno 17320 bound_to 7965
  146.0156  139.3207  143.0844 LP  0  0  0  0  0  0  0  0  0  0  0  0  # atno 17321 bound_to 7965
  139.9860  144.6395  150.7858 LP  0  0  0  0  0  0  0  0  0  0  0  0  # atno 17342 bound_to 10162
  140.7519  143.2980  151.3153 LP  0  0  0  0  0  0  0  0  0  0  0  0  # atno 17343 bound_to 10162
  157.2906  130.6794  149.6112 LP  0  0  0  0  0  0  0  0  0  0  0  0  # atno 17370 bound_to 10713
  155.9666  130.4422  150.5371 LP  0  0  0  0  0  0  0  0  0  0  0  0  # atno 17371 bound_to 10713
  140.9758  133.7298  156.0600 LP  0  0  0  0  0  0  0  0  0  0  0  0  # atno 17394 bound_to 11000
  140.7812  134.3723  157.5487 LP  0  0  0  0  0  0  0  0  0  0  0  0  # atno 17395 bound_to 11000

$$$$
