AV-unprocessed.smi:1509|AV-procd|sdf|6091|dock8
  -GOLD-   22720 6213D 1   1.00000     0.00000
 Structure written by MMmdl.
 42 43  0  0  0  0  0  0  0  0  2 V2000
  146.0670  136.6289  150.7529 C   0  0  0  0  0  0  0  0  0  0  0  0
  145.2511  135.4906  151.3901 C   0  0  1  0  0  0  0  0  0  0  0  0
  145.2397  134.2119  150.5324 C   0  0  0  0  0  0  0  0  0  0  0  0
  146.5881  133.4823  150.6041 C   0  0  0  0  0  0  0  0  0  0  0  0
  146.9967  133.2209  152.0622 C   0  0  0  0  0  0  0  0  0  0  0  0
  147.0322  134.4824  152.8465 N   0  3  2  0  0  0  0  0  0  0  0  0
  147.5638  134.2737  154.2173 C   0  0  0  0  0  0  0  0  0  0  0  0
  148.9123  133.5333  154.2220 C   0  0  0  0  0  0  0  0  0  0  0  0
  149.9611  134.2471  155.0914 C   0  0  0  0  0  0  0  0  0  0  0  0
  150.1489  135.6349  154.6854 N   0  0  0  0  0  0  0  0  0  0  0  0
  151.0070  136.4943  155.2578 C   0  0  0  0  0  0  0  0  0  0  0  0
  151.7145  136.2022  156.2217 O   0  0  0  0  0  0  0  0  0  0  0  0
  151.0795  137.8972  154.6537 C   0  0  0  0  0  0  0  0  0  0  0  0
  151.6925  138.8332  155.5774 N   0  0  0  0  0  0  0  0  0  0  0  0
  151.2901  140.0297  156.0105 C   0  0  0  0  0  0  0  0  0  0  0  0
  152.1613  140.5638  156.8525 N   0  0  0  0  0  0  0  0  0  0  0  0
  153.1588  139.6056  156.9225 N   0  0  0  0  0  0  0  0  0  0  0  0
  152.8862  138.5766  156.1681 N   0  0  0  0  0  0  0  0  0  0  0  0
  145.7141  135.1745  152.8278 C   0  0  0  0  0  0  0  0  0  0  0  0
  147.1244  136.3778  150.6714 H   0  0  0  0  0  0  0  0  0  0  0  0
  145.9912  137.5417  151.3442 H   0  0  0  0  0  0  0  0  0  0  0  0
  145.7027  136.8580  149.7509 H   0  0  0  0  0  0  0  0  0  0  0  0
  144.2226  135.8485  151.4502 H   0  0  0  0  0  0  0  0  0  0  0  0
  144.4553  133.5451  150.8933 H   0  0  0  0  0  0  0  0  0  0  0  0
  144.9883  134.4455  149.4973 H   0  0  0  0  0  0  0  0  0  0  0  0
  146.5259  132.5383  150.0620 H   0  0  0  0  0  0  0  0  0  0  0  0
  147.3587  134.0700  150.1043 H   0  0  0  0  0  0  0  0  0  0  0  0
  146.3021  132.5206  152.5291 H   0  0  0  0  0  0  0  0  0  0  0  0
  147.9800  132.7489  152.0753 H   0  0  0  0  0  0  0  0  0  0  0  0
  147.6443  135.2313  154.7343 H   0  0  0  0  0  0  0  0  0  0  0  0
  146.8535  133.6748  154.7893 H   0  0  0  0  0  0  0  0  0  0  0  0
  148.7676  132.5167  154.5900 H   0  0  0  0  0  0  0  0  0  0  0  0
  149.2948  133.4424  153.2059 H   0  0  0  0  0  0  0  0  0  0  0  0
  149.6784  134.2033  156.1447 H   0  0  0  0  0  0  0  0  0  0  0  0
  150.9223  133.7391  155.0081 H   0  0  0  0  0  0  0  0  0  0  0  0
  149.6028  135.9591  153.9000 H   0  0  0  0  0  0  0  0  0  0  0  0
  151.6589  137.8794  153.7297 H   0  0  0  0  0  0  0  0  0  0  0  0
  150.0783  138.2490  154.3996 H   0  0  0  0  0  0  0  0  0  0  0  0
  150.3690  140.5068  155.7093 H   0  0  0  0  0  0  0  0  0  0  0  0
  145.7559  136.0998  153.4013 H   0  0  0  0  0  0  0  0  0  0  0  0
  144.9748  134.5409  153.3209 H   0  0  0  0  0  0  0  0  0  0  0  0
  147.6888  135.0870  152.3736 H   0  0  0  0  0  0  0  0  0  0  0  0
  1  2  1  0  0  0  0
  1 20  1  0  0  0  0
  1 21  1  0  0  0  0
  1 22  1  0  0  0  0
  2 19  1  0  0  0  0
  2  3  1  0  0  0  0
  2 23  1  0  0  0  0
  3  4  1  0  0  0  0
  3 24  1  0  0  0  0
  3 25  1  0  0  0  0
  4  5  1  0  0  0  0
  4 26  1  0  0  0  0
  4 27  1  0  0  0  0
  5  6  1  0  0  0  0
  5 28  1  0  0  0  0
  5 29  1  0  0  0  0
  6  7  1  0  0  0  0
  6 19  1  0  0  0  0
  6 42  1  0  0  0  0
  7  8  1  0  0  0  0
  7 30  1  0  0  0  0
  7 31  1  0  0  0  0
  8  9  1  0  0  0  0
  8 32  1  0  0  0  0
  8 33  1  0  0  0  0
  9 10  1  0  0  0  0
  9 34  1  0  0  0  0
  9 35  1  0  0  0  0
 10 11  1  0  0  0  0
 10 36  1  0  0  0  0
 11 12  2  0  0  0  0
 11 13  1  0  0  0  0
 13 14  1  0  0  0  0
 13 37  1  0  0  0  0
 13 38  1  0  0  0  0
 14 18  1  0  0  0  0
 14 15  1  0  0  0  0
 15 16  2  0  0  0  0
 15 39  1  0  0  0  0
 16 17  1  0  0  0  0
 17 18  2  0  0  0  0
 19 40  1  0  0  0  0
 19 41  1  0  0  0  0
M  CHG  1   6   1
M  END
> <s_m_source_file>
AV-unprocessed.smi

> <i_m_source_file_index>
1509

> <i_lp_mmshare_version>
43012

> <i_f3d_flags>
0

> <s_epik_input>
W0NIM11bQ0BASF0xW0NIMl1bQ0gyXVtDSDJdTihbQ0gyXTEpW0NIMl1bQ0gyXVtDSDJdW05IXUMoPU8pW0NIMl1uMltjSF1ubm4y

> <s_epik_cmdline>
J2VwaWtfcHl0aG9uJywgJy1waCcsICc3LjAnLCAnLXRuJywgJzgnLCAnLW1hJywgJzIwMCcsICctbWV0YWxfYmluZGluZycsICctaW1hZScsICc8aW5maWxlLm1hZT4nLCAnLW9tYWUnLCAnPG91dGZpbGUubWFlPic=

> <r_lp_tautomer_probability>
1

> <r_epik_Ionization_Penalty>
0.00044216

> <r_epik_Ionization_Penalty_Charging>
0.000440775

> <r_epik_Ionization_Penalty_Neutral>
1.38512e-06

> <r_epik_State_Penalty>
0.000271914

> <r_epik_Charging_Adjusted_Penalty>
0.000712689

> <i_epik_Tot_Q>
1

> <i_epik_Tot_abs_Q>
1

> <r_epik_Metal_State_Penalty>
-0

> <b_epik_Metal_Only>
0

> <s_lp_Force_Field>
OPLS_2005

> <r_lp_Energy>
22.736

> <b_lp_Chiralities_Consistent>
1

> <s_lp_Variant>
AV-unprocessed.smi:1509-2

> <Gold.Version>
5.8.1

> <Gold.Id.Protein>
6NUR|6NUR_protein|mol2

> <Gold.PLP.Fitness>
47.4379

> <Gold.PLP.PLP>
-33.7604

> <Gold.PLP.part.hbond>
-4.9418

> <Gold.PLP.part.metal>
0.0000

> <Gold.PLP.part.buried>
-1.9407

> <Gold.PLP.part.nonpolar>
-27.1929

> <Gold.PLP.part.repulsive>
0.1078

> <Gold.PLP.ligand.clash>
0.0000

> <Gold.PLP.ligand.torsion>
0.6918

> <Gold.PLP.Chemscore.Hbond>
5.0000

> <Gold.PLP.Chemscore.CHOScore>
0.0000

> <Gold.PLP.Chemscore.Metal>
0.0000

> <Gold.Chemscore.Hbonds>
donor molecule, donor type, donor heavy atom, donor atom, acceptor molecule, acceptor atom, score
      L1  H     6    42       P1  7948  2.00
      L1  H    10    36       P1  7948  0.76
      P1  H  7997  8008       L1    17  0.71
      P1  H 10752 10764       L1    12  0.35

> <Gold.PLP.Chemscore.Internal.Correction>
0.0610

> <Gold.Rescore>
     Score         DG    S(hbond)    S(metal)    S(lipo)     H(rot)  DE(clash)    DE(int)     intcor
     11.94     -14.25       2.97        0.00      55.28       2.97       0.27       2.04       ----

> <Gold.Chemscore.Fitness>
11.9448

> <Gold.Chemscore.DG>
-14.2535

> <Gold.Chemscore.ZeroCoef>
-5.4800

> <Gold.Chemscore.Hbond>
2.9651

> <Gold.Chemscore.Metal>
0.0000

> <Gold.Chemscore.Lipo>
55.2836

> <Gold.Chemscore.Internal_Hbond>
0.0000

> <Gold.Chemscore.DEClash>
0.2728

> <Gold.Chemscore.DEInternal>
2.0359

> <Gold.Chemscore.Rot>
2.9680

> <Gold.Chemscore.Internal.Correction>
   9.000000E+99

> <Gold.Chemscore.Hbonds>
donor molecule, donor type, donor heavy atom, donor atom, acceptor molecule, acceptor atom, score
      L1  H     6    42       P1  7948  0.97
      L1  H    10    36       P1  7948  0.34
      P1  H  7997  8008       L1    17  0.16
      P1  H 10752 10764       L1    12  0.01

> <Gold.Chemscore.Hbond.Weighted>
-9.9033

> <Gold.Chemscore.Metal.Weighted>
-0.0000

> <Gold.Chemscore.Lipo.Weighted>
-6.4682

> <Gold.Chemscore.Internal_Hbond.Weighted>
0.0000

> <Gold.Chemscore.DEClash.Weighted>
0.2728

> <Gold.Chemscore.DEInternal.Weighted>
2.0359

> <Gold.Chemscore.Rot.Weighted>
7.5980

> <Gold.Chemscore.Internal.Correction.Weighted>
   9.000000E+99

> <Gold.Protein.RotatedTorsions>
[ 6907 6896 6895 6894 ] final  168.73 input  -60.11 | X-H torsion
[ 7974 7965 7964 7962 ] final   13.37 input  175.53 | X-H torsion
[ 8008 7997 7996 7995 ] final  -37.84 input   59.86 | X-H torsion
[ 10167 10162 10161 10158 ] final   26.22 input  -65.29 | X-H torsion
[ 10718 10713 10712 10709 ] final  166.90 input   66.30 | X-H torsion
[ 10763 10752 10751 10750 ] final  -41.81 input  -60.55 | X-H torsion
[ 11005 11000 10999 10996 ] final   75.00 input  -57.11 | X-H torsion

> <Gold.Protein.ActiveResidues>
 VAL166  LYS551  ARG553  GLY616  TRP617  ASP618  TYR619  PRO620  LYS621  CYS622 
 ASP623  PHE694  ASN695  SER759  ASP760  ASP761  ALA762  ILE779  LEU786  VAL792 
 PHE793  MET794  SER795  GLU796  ALA797  LYS798  CYS799  TRP800  GLU811  SER814 

> <Gold.Protein.RotatedAtoms>
  151.8430  133.3427  159.3648 H   0  0  0  0  0  0  0  0  0  0  0  0  # atno 6907 bound_to 6896
  150.7229  134.5373  159.5739 H   0  0  0  0  0  0  0  0  0  0  0  0  # atno 6908 bound_to 6896
  152.2851  134.7786  160.0440 H   0  0  0  0  0  0  0  0  0  0  0  0  # atno 6909 bound_to 6896
  146.2331  139.9199  142.8511 H   0  0  0  0  0  0  0  0  0  0  0  0  # atno 7974 bound_to 7965
  154.4046  140.1593  156.2603 H   0  0  0  0  0  0  0  0  0  0  0  0  # atno 8008 bound_to 7997
  155.9042  140.3431  155.6027 H   0  0  0  0  0  0  0  0  0  0  0  0  # atno 8009 bound_to 7997
  155.7412  140.0793  157.2235 H   0  0  0  0  0  0  0  0  0  0  0  0  # atno 8010 bound_to 7997
  140.5041  144.0267  150.6345 H   0  0  0  0  0  0  0  0  0  0  0  0  # atno 10167 bound_to 10162
  157.0592  131.0335  151.2653 H   0  0  0  0  0  0  0  0  0  0  0  0  # atno 10718 bound_to 10713
  153.9687  135.6731  153.4746 H   0  0  0  0  0  0  0  0  0  0  0  0  # atno 10763 bound_to 10752
  153.0803  135.4927  154.8486 H   0  0  0  0  0  0  0  0  0  0  0  0  # atno 10764 bound_to 10752
  154.7231  135.3121  154.8975 H   0  0  0  0  0  0  0  0  0  0  0  0  # atno 10765 bound_to 10752
  139.9364  134.7481  156.1217 H   0  0  0  0  0  0  0  0  0  0  0  0  # atno 11005 bound_to 11000
  145.2147  140.9910  143.4080 LP  0  0  0  0  0  0  0  0  0  0  0  0  # atno 17320 bound_to 7965
  144.9661  139.3928  143.6332 LP  0  0  0  0  0  0  0  0  0  0  0  0  # atno 17321 bound_to 7965
  140.3571  143.2929  152.0424 LP  0  0  0  0  0  0  0  0  0  0  0  0  # atno 17342 bound_to 10162
  139.4879  144.6331  151.7031 LP  0  0  0  0  0  0  0  0  0  0  0  0  # atno 17343 bound_to 10162
  157.4968  130.7855  149.7563 LP  0  0  0  0  0  0  0  0  0  0  0  0  # atno 17370 bound_to 10713
  155.9983  130.3895  150.2705 LP  0  0  0  0  0  0  0  0  0  0  0  0  # atno 17371 bound_to 10713
  141.0980  133.6688  156.2688 LP  0  0  0  0  0  0  0  0  0  0  0  0  # atno 17394 bound_to 11000
  140.6064  134.5502  157.5526 LP  0  0  0  0  0  0  0  0  0  0  0  0  # atno 17395 bound_to 11000

$$$$
