AV-unprocessed.smi:3057|AV-procd|sdf|11667|dock2
  -GOLD-   2272017 73D 1   1.00000     0.00000
 Structure written by MMmdl.
 41 43  0  0  0  0  0  0  0  0  2 V2000
  147.2932  135.6669  154.3549 C   0  0  0  0  0  0  0  0  0  0  0  0
  147.9573  136.4747  155.4894 C   0  0  1  0  0  0  0  0  0  0  0  0
  148.3881  135.5600  156.6473 C   0  0  0  0  0  0  0  0  0  0  0  0
  149.8370  135.1816  156.3028 C   0  0  0  0  0  0  0  0  0  0  0  0
  150.2732  136.3314  155.4063 C   0  0  0  0  0  0  0  0  0  0  0  0
  151.4497  136.5605  155.1288 O   0  0  0  0  0  0  0  0  0  0  0  0
  149.2069  137.0622  155.0430 N   0  0  0  0  0  0  0  0  0  0  0  0
  149.1422  138.4267  154.4971 C   0  0  2  0  0  0  0  0  0  0  0  0
  150.1034  139.4076  155.1937 C   0  0  0  0  0  0  0  0  0  0  0  0
  151.0179  139.9375  154.5608 O   0  0  0  0  0  0  0  0  0  0  0  0
  149.8889  139.6335  156.4989 N   0  0  0  0  0  0  0  0  0  0  0  0
  150.6671  140.5518  157.3212 C   0  0  0  0  0  0  0  0  0  0  0  0
  149.8758  141.8333  157.6350 C   0  0  0  0  0  0  0  0  0  0  0  0
  150.7161  142.8644  158.3619 C   0  0  0  0  0  0  0  0  0  0  0  0
  151.6372  142.5098  159.3715 C   0  0  0  0  0  0  0  0  0  0  0  0
  152.3895  143.5221  160.0034 C   0  0  0  0  0  0  0  0  0  0  0  0
  152.2054  144.8649  159.6132 C   0  0  0  0  0  0  0  0  0  0  0  0
  151.2727  145.1621  158.5986 C   0  0  0  0  0  0  0  0  0  0  0  0
  150.5717  144.1644  158.0166 N   0  3  0  0  0  0  0  0  0  0  0  0
  147.6692  138.8780  154.6099 C   0  0  0  0  0  0  0  0  0  0  0  0
  146.9530  137.8986  155.9582 S   0  0  0  0  0  0  0  0  0  0  0  0
  147.9235  134.8380  154.0310 H   0  0  0  0  0  0  0  0  0  0  0  0
  147.0931  136.2833  153.4786 H   0  0  0  0  0  0  0  0  0  0  0  0
  146.3425  135.2460  154.6830 H   0  0  0  0  0  0  0  0  0  0  0  0
  148.3684  136.1034  157.5934 H   0  0  0  0  0  0  0  0  0  0  0  0
  147.7441  134.6870  156.7581 H   0  0  0  0  0  0  0  0  0  0  0  0
  150.4648  135.0937  157.1899 H   0  0  0  0  0  0  0  0  0  0  0  0
  149.8845  134.2482  155.7412 H   0  0  0  0  0  0  0  0  0  0  0  0
  149.4124  138.3727  153.4412 H   0  0  0  0  0  0  0  0  0  0  0  0
  149.1220  139.1525  156.9467 H   0  0  0  0  0  0  0  0  0  0  0  0
  150.9306  140.0413  158.2479 H   0  0  0  0  0  0  0  0  0  0  0  0
  151.6065  140.7915  156.8201 H   0  0  0  0  0  0  0  0  0  0  0  0
  149.4973  142.2821  156.7153 H   0  0  0  0  0  0  0  0  0  0  0  0
  149.0005  141.5922  158.2396 H   0  0  0  0  0  0  0  0  0  0  0  0
  151.7673  141.4766  159.6594 H   0  0  0  0  0  0  0  0  0  0  0  0
  153.0994  143.2710  160.7777 H   0  0  0  0  0  0  0  0  0  0  0  0
  152.7714  145.6548  160.0853 H   0  0  0  0  0  0  0  0  0  0  0  0
  151.0674  146.1594  158.2377 H   0  0  0  0  0  0  0  0  0  0  0  0
  147.5530  139.9461  154.7983 H   0  0  0  0  0  0  0  0  0  0  0  0
  147.1320  138.6492  153.6894 H   0  0  0  0  0  0  0  0  0  0  0  0
  149.9022  144.4019  157.2839 H   0  0  0  0  0  0  0  0  0  0  0  0
  1  2  1  0  0  0  0
  1 22  1  0  0  0  0
  1 23  1  0  0  0  0
  1 24  1  0  0  0  0
  2  7  1  0  0  0  0
  2 21  1  0  0  0  0
  2  3  1  0  0  0  0
  3  4  1  0  0  0  0
  3 25  1  0  0  0  0
  3 26  1  0  0  0  0
  4  5  1  0  0  0  0
  4 27  1  0  0  0  0
  4 28  1  0  0  0  0
  5  6  2  0  0  0  0
  5  7  1  0  0  0  0
  7  8  1  0  0  0  0
  8  9  1  0  0  0  0
  8 20  1  0  0  0  0
  8 29  1  0  0  0  0
  9 10  2  0  0  0  0
  9 11  1  0  0  0  0
 11 12  1  0  0  0  0
 11 30  1  0  0  0  0
 12 13  1  0  0  0  0
 12 31  1  0  0  0  0
 12 32  1  0  0  0  0
 13 14  1  0  0  0  0
 13 33  1  0  0  0  0
 13 34  1  0  0  0  0
 14 19  1  0  0  0  0
 14 15  2  0  0  0  0
 15 16  1  0  0  0  0
 15 35  1  0  0  0  0
 16 17  2  0  0  0  0
 16 36  1  0  0  0  0
 17 18  1  0  0  0  0
 17 37  1  0  0  0  0
 18 19  2  0  0  0  0
 18 38  1  0  0  0  0
 19 41  1  0  0  0  0
 20 21  1  0  0  0  0
 20 39  1  0  0  0  0
 20 40  1  0  0  0  0
M  CHG  1  19   1
M  END
> <s_m_source_file>
AV-unprocessed.smi

> <i_m_source_file_index>
3057

> <i_lp_mmshare_version>
43012

> <i_f3d_flags>
0

> <s_epik_input>
W0NIMl0xW0NIMl1DKD1PKU4oW0NAQF0xMltDSDNdKVtDQEhdKFtDSDJdUzIpQyg9TylbTkhdW0NIMl1bQ0gyXWMzW2NIXVtjSF1bY0hdW2NIXW4z

> <s_epik_cmdline>
J2VwaWtfcHl0aG9uJywgJy1waCcsICc3LjAnLCAnLXRuJywgJzgnLCAnLW1hJywgJzIwMCcsICctbWV0YWxfYmluZGluZycsICctaW1hZScsICc8aW5maWxlLm1hZT4nLCAnLW9tYWUnLCAnPG91dGZpbGUubWFlPic=

> <r_epik_Ionization_Penalty>
1.8888

> <r_epik_Ionization_Penalty_Charging>
1.8888

> <r_epik_Ionization_Penalty_Neutral>
1.66252e-07

> <r_epik_State_Penalty>
2.00916

> <r_epik_Charging_Adjusted_Penalty>
3.89796

> <i_epik_Tot_Q>
1

> <i_epik_Tot_abs_Q>
1

> <r_epik_Metal_State_Penalty>
2.03343

> <b_epik_Metal_Only>
0

> <s_lp_Force_Field>
OPLS_2005

> <r_lp_Energy>
30.9082

> <b_lp_Chiralities_Consistent>
1

> <s_lp_Variant>
AV-unprocessed.smi:3057-7

> <Gold.Version>
5.8.1

> <Gold.Id.Protein>
6NUR|6NUR_protein|mol2

> <Gold.PLP.Fitness>
43.3440

> <Gold.PLP.PLP>
-32.0954

> <Gold.PLP.part.hbond>
-3.2068

> <Gold.PLP.part.metal>
0.0000

> <Gold.PLP.part.buried>
-6.0422

> <Gold.PLP.part.nonpolar>
-23.6562

> <Gold.PLP.part.repulsive>
0.2621

> <Gold.PLP.ligand.clash>
0.0000

> <Gold.PLP.ligand.torsion>
0.3880

> <Gold.PLP.Chemscore.Hbond>
4.0000

> <Gold.PLP.Chemscore.CHOScore>
0.0000

> <Gold.PLP.Chemscore.Metal>
0.0000

> <Gold.Chemscore.Hbonds>
donor molecule, donor type, donor heavy atom, donor atom, acceptor molecule, acceptor atom, score
      L1  H    19    41       P1  8028  2.00
      P1  H  7989  7998       L1    10  1.00
      P1  H 10752 10763       L1     6  1.00

> <Gold.PLP.Chemscore.Internal.Correction>
0.0247

> <Gold.Rescore>
     Score         DG    S(hbond)    S(metal)    S(lipo)     H(rot)  DE(clash)    DE(int)     intcor
     20.12     -20.42       2.93        0.00      79.62       1.62       0.01       0.30       ----

> <Gold.Chemscore.Fitness>
20.1199

> <Gold.Chemscore.DG>
-20.4227

> <Gold.Chemscore.ZeroCoef>
-5.4800

> <Gold.Chemscore.Hbond>
2.9291

> <Gold.Chemscore.Metal>
0.0000

> <Gold.Chemscore.Lipo>
79.6185

> <Gold.Chemscore.Internal_Hbond>
0.0000

> <Gold.Chemscore.DEClash>
0.0060

> <Gold.Chemscore.DEInternal>
0.2968

> <Gold.Chemscore.Rot>
1.6234

> <Gold.Chemscore.Internal.Correction>
   9.000000E+99

> <Gold.Chemscore.Hbonds>
donor molecule, donor type, donor heavy atom, donor atom, acceptor molecule, acceptor atom, score
      L1  H    19    41       P1  8028  0.35
      P1  H  7989  7998       L1    10  0.94
      P1  H 10752 10763       L1     6  1.00

> <Gold.Chemscore.Hbond.Weighted>
-9.7831

> <Gold.Chemscore.Metal.Weighted>
-0.0000

> <Gold.Chemscore.Lipo.Weighted>
-9.3154

> <Gold.Chemscore.Internal_Hbond.Weighted>
0.0000

> <Gold.Chemscore.DEClash.Weighted>
0.0060

> <Gold.Chemscore.DEInternal.Weighted>
0.2968

> <Gold.Chemscore.Rot.Weighted>
4.1558

> <Gold.Chemscore.Internal.Correction.Weighted>
   9.000000E+99

> <Gold.Protein.RotatedTorsions>
[ 6907 6896 6895 6894 ] final   14.96 input  -60.11 | X-H torsion
[ 7974 7965 7964 7962 ] final -127.16 input  175.53 | X-H torsion
[ 8008 7997 7996 7995 ] final -128.71 input   59.86 | X-H torsion
[ 10167 10162 10161 10158 ] final  -52.36 input  -65.29 | X-H torsion
[ 10718 10713 10712 10709 ] final -143.34 input   66.30 | X-H torsion
[ 10763 10752 10751 10750 ] final   57.66 input  -60.55 | X-H torsion
[ 11005 11000 10999 10996 ] final  165.72 input  -57.11 | X-H torsion

> <Gold.Protein.ActiveResidues>
 VAL166  LYS551  ARG553  GLY616  TRP617  ASP618  TYR619  PRO620  LYS621  CYS622 
 ASP623  PHE694  ASN695  SER759  ASP760  ASP761  ALA762  ILE779  LEU786  VAL792 
 PHE793  MET794  SER795  GLU796  ALA797  LYS798  CYS799  TRP800  GLU811  SER814 

> <Gold.Protein.RotatedAtoms>
  151.8106  135.0682  160.0412 H   0  0  0  0  0  0  0  0  0  0  0  0  # atno 6907 bound_to 6896
  152.3023  133.5664  159.5635 H   0  0  0  0  0  0  0  0  0  0  0  0  # atno 6908 bound_to 6896
  150.7279  134.0189  159.3736 H   0  0  0  0  0  0  0  0  0  0  0  0  # atno 6909 bound_to 6896
  144.9798  140.7629  143.4619 H   0  0  0  0  0  0  0  0  0  0  0  0  # atno 7974 bound_to 7965
  155.2672  140.0438  157.3003 H   0  0  0  0  0  0  0  0  0  0  0  0  # atno 8008 bound_to 7997
  154.5675  140.2364  155.8210 H   0  0  0  0  0  0  0  0  0  0  0  0  # atno 8009 bound_to 7997
  156.2096  140.3002  155.9711 H   0  0  0  0  0  0  0  0  0  0  0  0  # atno 8010 bound_to 7997
  140.6541  143.2586  151.4637 H   0  0  0  0  0  0  0  0  0  0  0  0  # atno 10167 bound_to 10162
  156.3568  130.7717  151.1878 H   0  0  0  0  0  0  0  0  0  0  0  0  # atno 10718 bound_to 10713
  152.9854  135.5634  154.5426 H   0  0  0  0  0  0  0  0  0  0  0  0  # atno 10763 bound_to 10752
  154.4878  135.2791  155.1522 H   0  0  0  0  0  0  0  0  0  0  0  0  # atno 10764 bound_to 10752
  154.3004  135.6308  153.5475 H   0  0  0  0  0  0  0  0  0  0  0  0  # atno 10765 bound_to 10752
  140.2590  134.7917  157.3572 H   0  0  0  0  0  0  0  0  0  0  0  0  # atno 11005 bound_to 11000
  145.2437  139.2061  143.4979 LP  0  0  0  0  0  0  0  0  0  0  0  0  # atno 17320 bound_to 7965
  146.3405  140.2337  142.8594 LP  0  0  0  0  0  0  0  0  0  0  0  0  # atno 17321 bound_to 7965
  139.5761  144.1816  152.1904 LP  0  0  0  0  0  0  0  0  0  0  0  0  # atno 17342 bound_to 10162
  140.1127  144.5442  150.6914 LP  0  0  0  0  0  0  0  0  0  0  0  0  # atno 17343 bound_to 10162
  157.7468  131.0412  150.4633 LP  0  0  0  0  0  0  0  0  0  0  0  0  # atno 17370 bound_to 10713
  156.4837  130.4079  149.6446 LP  0  0  0  0  0  0  0  0  0  0  0  0  # atno 17371 bound_to 10713
  140.1483  134.4882  155.7980 LP  0  0  0  0  0  0  0  0  0  0  0  0  # atno 17394 bound_to 11000
  141.2192  133.6852  156.7333 LP  0  0  0  0  0  0  0  0  0  0  0  0  # atno 17395 bound_to 11000

$$$$
