AV-unprocessed.smi:3274|AV-procd|sdf|12523|dock1
  -GOLD-   2272018433D 1   1.00000     0.00000
 Structure written by MMmdl.
 43 44  0  0  0  0  0  0  0  0  2 V2000
  151.4589  145.4391  159.3014 C   0  0  0  0  0  0  0  0  0  0  0  0
  151.9309  144.1391  159.9317 C   0  0  0  0  0  0  0  0  0  0  0  0
  152.3041  144.1222  161.2257 C   0  0  0  0  0  0  0  0  0  0  0  0
  152.8624  142.9109  161.9356 C   0  0  0  0  0  0  0  0  0  0  0  0
  153.4254  141.9006  160.9338 C   0  0  0  0  0  0  0  0  0  0  0  0
  152.4161  141.5995  159.8139 C   0  0  2  0  0  0  0  0  0  0  0  0
  152.9913  140.5120  158.8856 C   0  0  0  0  0  0  0  0  0  0  0  0
  151.9882  142.8832  159.0366 C   0  0  1  0  0  0  0  0  0  0  0  0
  150.6595  142.6241  158.2775 C   0  0  0  0  0  0  0  0  0  0  0  0
  150.8068  142.7311  156.8092 N   0  3  0  0  0  0  0  0  0  0  0  0
  150.3087  141.5753  156.0308 C   0  0  2  0  0  0  0  0  0  0  0  0
  148.7828  141.6589  155.8283 C   0  0  0  0  0  0  0  0  0  0  0  0
  150.7452  140.2722  156.7307 C   0  0  0  0  0  0  0  0  0  0  0  0
  151.1585  139.2385  155.7988 N   0  0  0  0  0  0  0  0  0  0  0  0
  151.7702  138.0720  156.0115 C   0  0  0  0  0  0  0  0  0  0  0  0
  151.9907  137.3742  154.9064 N   0  0  0  0  0  0  0  0  0  0  0  0
  151.4458  138.2248  153.9860 C   0  0  0  0  0  0  0  0  0  0  0  0
  150.9328  139.3566  154.4693 N   0  0  0  0  0  0  0  0  0  0  0  0
  151.9975  145.6319  158.3733 H   0  0  0  0  0  0  0  0  0  0  0  0
  151.6346  146.2868  159.9647 H   0  0  0  0  0  0  0  0  0  0  0  0
  150.3896  145.4073  159.0939 H   0  0  0  0  0  0  0  0  0  0  0  0
  152.2278  145.0204  161.8214 H   0  0  0  0  0  0  0  0  0  0  0  0
  153.6492  143.2288  162.6201 H   0  0  0  0  0  0  0  0  0  0  0  0
  152.0725  142.4630  162.5394 H   0  0  0  0  0  0  0  0  0  0  0  0
  154.3465  142.2930  160.4995 H   0  0  0  0  0  0  0  0  0  0  0  0
  153.6985  140.9849  161.4594 H   0  0  0  0  0  0  0  0  0  0  0  0
  151.5285  141.1859  160.2958 H   0  0  0  0  0  0  0  0  0  0  0  0
  153.8788  140.8688  158.3621 H   0  0  0  0  0  0  0  0  0  0  0  0
  152.2752  140.1820  158.1350 H   0  0  0  0  0  0  0  0  0  0  0  0
  153.2809  139.6279  159.4546 H   0  0  0  0  0  0  0  0  0  0  0  0
  152.7682  143.0882  158.3015 H   0  0  0  0  0  0  0  0  0  0  0  0
  150.2785  141.6292  158.4967 H   0  0  0  0  0  0  0  0  0  0  0  0
  149.8998  143.3258  158.6247 H   0  0  0  0  0  0  0  0  0  0  0  0
  150.2759  143.5405  156.5209 H   0  0  0  0  0  0  0  0  0  0  0  0
  150.7890  141.5973  155.0512 H   0  0  0  0  0  0  0  0  0  0  0  0
  148.4129  140.8277  155.2279 H   0  0  0  0  0  0  0  0  0  0  0  0
  148.4920  142.5711  155.3081 H   0  0  0  0  0  0  0  0  0  0  0  0
  148.2559  141.6371  156.7827 H   0  0  0  0  0  0  0  0  0  0  0  0
  151.5807  140.4691  157.4040 H   0  0  0  0  0  0  0  0  0  0  0  0
  149.9332  139.8847  157.3489 H   0  0  0  0  0  0  0  0  0  0  0  0
  152.0638  137.7278  156.9925 H   0  0  0  0  0  0  0  0  0  0  0  0
  151.4268  138.0034  152.9289 H   0  0  0  0  0  0  0  0  0  0  0  0
  151.7777  142.8900  156.5800 H   0  0  0  0  0  0  0  0  0  0  0  0
  1  2  1  0  0  0  0
  1 19  1  0  0  0  0
  1 20  1  0  0  0  0
  1 21  1  0  0  0  0
  2  8  1  0  0  0  0
  2  3  2  0  0  0  0
  3  4  1  0  0  0  0
  3 22  1  0  0  0  0
  4  5  1  0  0  0  0
  4 23  1  0  0  0  0
  4 24  1  0  0  0  0
  5  6  1  0  0  0  0
  5 25  1  0  0  0  0
  5 26  1  0  0  0  0
  6  7  1  0  0  0  0
  6  8  1  0  0  0  0
  6 27  1  0  0  0  0
  7 28  1  0  0  0  0
  7 29  1  0  0  0  0
  7 30  1  0  0  0  0
  8  9  1  0  0  0  0
  8 31  1  0  0  0  0
  9 10  1  0  0  0  0
  9 32  1  0  0  0  0
  9 33  1  0  0  0  0
 10 11  1  0  0  0  0
 10 34  1  0  0  0  0
 10 43  1  0  0  0  0
 11 12  1  0  0  0  0
 11 13  1  0  0  0  0
 11 35  1  0  0  0  0
 12 36  1  0  0  0  0
 12 37  1  0  0  0  0
 12 38  1  0  0  0  0
 13 14  1  0  0  0  0
 13 39  1  0  0  0  0
 13 40  1  0  0  0  0
 14 18  1  0  0  0  0
 14 15  1  0  0  0  0
 15 16  2  0  0  0  0
 15 41  1  0  0  0  0
 16 17  1  0  0  0  0
 17 18  2  0  0  0  0
 17 42  1  0  0  0  0
M  CHG  1  10   1
M  END
> <s_m_source_file>
AV-unprocessed.smi

> <i_m_source_file_index>
3274

> <i_lp_mmshare_version>
43012

> <i_f3d_flags>
0

> <s_epik_input>
W0NIM11DMT1bQ0hdW0NIMl1bQ0gyXVtDQEBIXShbQ0gzXSlbQ0BIXTFbQ0gyXVtOSF1bQ0BIXShbQ0gzXSlbQ0gyXW4yW2NIXW5bY0hdbjI=

> <s_epik_cmdline>
J2VwaWtfcHl0aG9uJywgJy1waCcsICc3LjAnLCAnLXRuJywgJzgnLCAnLW1hJywgJzIwMCcsICctbWV0YWxfYmluZGluZycsICctaW1hZScsICc8aW5maWxlLm1hZT4nLCAnLW9tYWUnLCAnPG91dGZpbGUubWFlPic=

> <r_lp_tautomer_probability>
1

> <r_epik_Ionization_Penalty>
0.0017527

> <r_epik_Ionization_Penalty_Charging>
0.00175191

> <r_epik_Ionization_Penalty_Neutral>
7.94565e-07

> <r_epik_State_Penalty>
0.00118605

> <r_epik_Charging_Adjusted_Penalty>
0.00293796

> <i_epik_Tot_Q>
1

> <i_epik_Tot_abs_Q>
1

> <r_epik_Metal_State_Penalty>
-0

> <b_epik_Metal_Only>
0

> <s_lp_Force_Field>
OPLS_2005

> <r_lp_Energy>
18.9317

> <b_lp_Chiralities_Consistent>
1

> <s_lp_Variant>
AV-unprocessed.smi:3274-2

> <Gold.Version>
5.8.1

> <Gold.Id.Protein>
6NUR|6NUR_protein|mol2

> <Gold.PLP.Fitness>
54.1397

> <Gold.PLP.PLP>
-43.3828

> <Gold.PLP.part.hbond>
-3.0000

> <Gold.PLP.part.metal>
0.0000

> <Gold.PLP.part.buried>
-5.7265

> <Gold.PLP.part.nonpolar>
-35.3307

> <Gold.PLP.part.repulsive>
0.2408

> <Gold.PLP.ligand.clash>
0.0000

> <Gold.PLP.ligand.torsion>
1.9173

> <Gold.PLP.Chemscore.Hbond>
3.7520

> <Gold.PLP.Chemscore.CHOScore>
1.0000

> <Gold.PLP.Chemscore.Metal>
0.0000

> <Gold.Chemscore.Hbonds>
donor molecule, donor type, donor heavy atom, donor atom, acceptor molecule, acceptor atom, score
      L1  H    10    34       P1  8028  2.00
      P1  H  7989  7998       L1    18  1.00
      P1  H 10752 10764       L1    16  0.86
      L1  C    17    42       P1  7949  1.00

> <Gold.PLP.Chemscore.Internal.Correction>
0.3355

> <Gold.Rescore>
     Score         DG    S(hbond)    S(metal)    S(lipo)     H(rot)  DE(clash)    DE(int)     intcor
     19.80     -21.95       2.80        0.00     112.60       2.36       0.31       1.84       ----

> <Gold.Chemscore.Fitness>
19.8039

> <Gold.Chemscore.DG>
-21.9536

> <Gold.Chemscore.ZeroCoef>
-5.4800

> <Gold.Chemscore.Hbond>
2.7979

> <Gold.Chemscore.Metal>
0.0000

> <Gold.Chemscore.Lipo>
112.5985

> <Gold.Chemscore.Internal_Hbond>
0.0000

> <Gold.Chemscore.DEClash>
0.3105

> <Gold.Chemscore.DEInternal>
1.8392

> <Gold.Chemscore.Rot>
2.3615

> <Gold.Chemscore.Internal.Correction>
   9.000000E+99

> <Gold.Chemscore.Hbonds>
donor molecule, donor type, donor heavy atom, donor atom, acceptor molecule, acceptor atom, score
      L1  H    10    34       P1  8028  0.95
      P1  H  7989  7998       L1    18  0.69
      P1  H 10752 10764       L1    16  0.81

> <Gold.Chemscore.Hbond.Weighted>
-9.3450

> <Gold.Chemscore.Metal.Weighted>
-0.0000

> <Gold.Chemscore.Lipo.Weighted>
-13.1740

> <Gold.Chemscore.Internal_Hbond.Weighted>
0.0000

> <Gold.Chemscore.DEClash.Weighted>
0.3105

> <Gold.Chemscore.DEInternal.Weighted>
1.8392

> <Gold.Chemscore.Rot.Weighted>
6.0454

> <Gold.Chemscore.Internal.Correction.Weighted>
   9.000000E+99

> <Gold.Protein.RotatedTorsions>
[ 6907 6896 6895 6894 ] final   -9.37 input  -60.11 | X-H torsion
[ 7974 7965 7964 7962 ] final   83.24 input  175.53 | X-H torsion
[ 8008 7997 7996 7995 ] final -126.53 input   59.86 | X-H torsion
[ 10167 10162 10161 10158 ] final  -13.24 input  -65.29 | X-H torsion
[ 10718 10713 10712 10709 ] final -111.40 input   66.30 | X-H torsion
[ 10763 10752 10751 10750 ] final  -66.80 input  -60.55 | X-H torsion
[ 11005 11000 10999 10996 ] final  -20.30 input  -57.11 | X-H torsion

> <Gold.Protein.ActiveResidues>
 VAL166  LYS551  ARG553  GLY616  TRP617  ASP618  TYR619  PRO620  LYS621  CYS622 
 ASP623  PHE694  ASN695  SER759  ASP760  ASP761  ALA762  ILE779  LEU786  VAL792 
 PHE793  MET794  SER795  GLU796  ALA797  LYS798  CYS799  TRP800  GLU811  SER814 

> <Gold.Protein.RotatedAtoms>
  151.4188  135.0995  159.9607 H   0  0  0  0  0  0  0  0  0  0  0  0  # atno 6907 bound_to 6896
  152.4995  133.8727  159.7317 H   0  0  0  0  0  0  0  0  0  0  0  0  # atno 6908 bound_to 6896
  150.9238  133.6791  159.2854 H   0  0  0  0  0  0  0  0  0  0  0  0  # atno 6909 bound_to 6896
  145.6145  139.2374  143.2173 H   0  0  0  0  0  0  0  0  0  0  0  0  # atno 7974 bound_to 7965
  155.2313  140.0425  157.2962 H   0  0  0  0  0  0  0  0  0  0  0  0  # atno 8008 bound_to 7997
  154.5887  140.2420  155.7922 H   0  0  0  0  0  0  0  0  0  0  0  0  # atno 8009 bound_to 7997
  156.2244  140.2959  156.0039 H   0  0  0  0  0  0  0  0  0  0  0  0  # atno 8010 bound_to 7997
  140.7178  143.5447  150.9368 H   0  0  0  0  0  0  0  0  0  0  0  0  # atno 10167 bound_to 10162
  156.0645  130.5866  150.8369 H   0  0  0  0  0  0  0  0  0  0  0  0  # atno 10718 bound_to 10713
  154.3652  135.6107  153.5711 H   0  0  0  0  0  0  0  0  0  0  0  0  # atno 10763 bound_to 10752
  152.9792  135.5825  154.4586 H   0  0  0  0  0  0  0  0  0  0  0  0  # atno 10764 bound_to 10752
  154.4331  135.2848  155.1876 H   0  0  0  0  0  0  0  0  0  0  0  0  # atno 10765 bound_to 10752
  140.8450  133.7898  155.9903 H   0  0  0  0  0  0  0  0  0  0  0  0  # atno 11005 bound_to 11000
  146.1479  140.6967  142.9336 LP  0  0  0  0  0  0  0  0  0  0  0  0  # atno 17320 bound_to 7965
  144.7256  140.4514  143.6975 LP  0  0  0  0  0  0  0  0  0  0  0  0  # atno 17321 bound_to 7965
  139.9171  143.6651  152.3104 LP  0  0  0  0  0  0  0  0  0  0  0  0  # atno 17342 bound_to 10162
  139.7054  144.7629  151.1202 LP  0  0  0  0  0  0  0  0  0  0  0  0  # atno 17343 bound_to 10162
  157.5677  131.0946  150.9464 LP  0  0  0  0  0  0  0  0  0  0  0  0  # atno 17370 bound_to 10713
  156.9687  130.5483  149.5289 LP  0  0  0  0  0  0  0  0  0  0  0  0  # atno 17371 bound_to 10713
  140.8853  134.2562  157.5123 LP  0  0  0  0  0  0  0  0  0  0  0  0  # atno 17394 bound_to 11000
  139.8703  134.9635  156.4464 LP  0  0  0  0  0  0  0  0  0  0  0  0  # atno 17395 bound_to 11000

$$$$
