AV-unprocessed.smi:1337|AV-procd|sdf|5498|dock7
  -GOLD-   22720 5 83D 1   1.00000     0.00000
 Structure written by MMmdl.
 38 39  0  0  0  0  0  0  0  0  1 V2000
  153.0193  139.5609  154.7209 O   0  0  0  0  0  0  0  0  0  0  0  0
  152.1162  138.9042  155.2412 C   0  0  0  0  0  0  0  0  0  0  0  0
  151.4260  137.7698  154.4704 C   0  0  0  0  0  0  0  0  0  0  0  0
  150.8577  136.7347  155.3493 N   0  0  0  0  0  0  0  0  0  0  0  0
  149.5215  136.3589  155.1310 C   0  0  0  0  0  0  0  0  0  0  0  0
  148.9391  135.4174  155.8872 C   0  0  0  0  0  0  0  0  0  0  0  0
  149.7714  134.8162  156.9373 C   0  0  0  0  0  0  0  0  0  0  0  0
  150.9905  135.1543  157.1369 N   0  0  0  0  0  0  0  0  0  0  0  0
  151.6009  136.1407  156.3392 C   0  0  0  0  0  0  0  0  0  0  0  0
  152.7742  136.4660  156.5215 O   0  0  0  0  0  0  0  0  0  0  0  0
  151.6610  139.1360  156.4817 N   0  0  0  0  0  0  0  0  0  0  0  0
  152.1734  140.1625  157.3815 C   0  0  0  0  0  0  0  0  0  0  0  0
  151.0600  141.1235  157.8331 C   0  0  0  0  0  0  0  0  0  0  0  0
  151.6007  142.4331  158.3831 C   0  0  0  0  0  0  0  0  0  0  0  0
  152.1711  142.5122  159.6012 C   0  0  0  0  0  0  0  0  0  0  0  0
  152.7128  143.7941  160.2091 C   0  0  0  0  0  0  0  0  0  0  0  0
  152.2362  145.0462  159.4545 C   0  0  0  0  0  0  0  0  0  0  0  0
  152.3217  144.8431  157.9367 C   0  0  0  0  0  0  0  0  0  0  0  0
  151.4583  143.6534  157.4797 C   0  0  0  0  0  0  0  0  0  0  0  0
  150.6460  138.1841  153.8286 H   0  0  0  0  0  0  0  0  0  0  0  0
  152.1556  137.3316  153.7882 H   0  0  0  0  0  0  0  0  0  0  0  0
  149.0183  136.8703  154.3235 H   0  0  0  0  0  0  0  0  0  0  0  0
  147.9197  135.0801  155.7708 H   0  0  0  0  0  0  0  0  0  0  0  0
  149.2788  134.0527  157.5445 H   0  0  0  0  0  0  0  0  0  0  0  0
  150.9115  138.5555  156.8291 H   0  0  0  0  0  0  0  0  0  0  0  0
  152.6123  139.6608  158.2440 H   0  0  0  0  0  0  0  0  0  0  0  0
  152.9820  140.7144  156.8990 H   0  0  0  0  0  0  0  0  0  0  0  0
  150.3971  141.3379  156.9935 H   0  0  0  0  0  0  0  0  0  0  0  0
  150.4424  140.6502  158.5971 H   0  0  0  0  0  0  0  0  0  0  0  0
  152.2716  141.6229  160.2064 H   0  0  0  0  0  0  0  0  0  0  0  0
  152.4091  143.8531  161.2547 H   0  0  0  0  0  0  0  0  0  0  0  0
  153.8016  143.7384  160.1974 H   0  0  0  0  0  0  0  0  0  0  0  0
  151.2031  145.2655  159.7283 H   0  0  0  0  0  0  0  0  0  0  0  0
  152.8264  145.9116  159.7572 H   0  0  0  0  0  0  0  0  0  0  0  0
  152.0120  145.7491  157.4150 H   0  0  0  0  0  0  0  0  0  0  0  0
  153.3613  144.6666  157.6577 H   0  0  0  0  0  0  0  0  0  0  0  0
  151.7221  143.3841  156.4565 H   0  0  0  0  0  0  0  0  0  0  0  0
  150.4085  143.9471  157.4681 H   0  0  0  0  0  0  0  0  0  0  0  0
  1  2  2  0  0  0  0
  2  3  1  0  0  0  0
  2 11  1  0  0  0  0
  3  4  1  0  0  0  0
  3 20  1  0  0  0  0
  3 21  1  0  0  0  0
  4  9  1  0  0  0  0
  4  5  1  0  0  0  0
  5  6  2  0  0  0  0
  5 22  1  0  0  0  0
  6  7  1  0  0  0  0
  6 23  1  0  0  0  0
  7  8  2  0  0  0  0
  7 24  1  0  0  0  0
  8  9  1  0  0  0  0
  9 10  2  0  0  0  0
 11 12  1  0  0  0  0
 11 25  1  0  0  0  0
 12 13  1  0  0  0  0
 12 26  1  0  0  0  0
 12 27  1  0  0  0  0
 13 14  1  0  0  0  0
 13 28  1  0  0  0  0
 13 29  1  0  0  0  0
 14 19  1  0  0  0  0
 14 15  2  0  0  0  0
 15 16  1  0  0  0  0
 15 30  1  0  0  0  0
 16 17  1  0  0  0  0
 16 31  1  0  0  0  0
 16 32  1  0  0  0  0
 17 18  1  0  0  0  0
 17 33  1  0  0  0  0
 17 34  1  0  0  0  0
 18 19  1  0  0  0  0
 18 35  1  0  0  0  0
 18 36  1  0  0  0  0
 19 37  1  0  0  0  0
 19 38  1  0  0  0  0
M  END
> <s_m_source_file>
AV-unprocessed.smi

> <i_m_source_file_index>
1337

> <i_lp_mmshare_version>
43012

> <i_f3d_flags>
0

> <s_epik_input>
Tz1jMW5bY0hdW2NIXVtjSF1uMVtDSDJdQyg9TylbTkhdW0NIMl1bQ0gyXUMyPVtDSF1bQ0gyXVtDSDJdW0NIMl1bQ0gyXTI=

> <s_epik_cmdline>
J2VwaWtfcHl0aG9uJywgJy1waCcsICc3LjAnLCAnLXRuJywgJzgnLCAnLW1hJywgJzIwMCcsICctbWV0YWxfYmluZGluZycsICctaW1hZScsICc8aW5maWxlLm1hZT4nLCAnLW9tYWUnLCAnPG91dGZpbGUubWFlPic=

> <r_lp_tautomer_probability>
1

> <r_epik_Ionization_Penalty>
7.10509e-06

> <r_epik_Ionization_Penalty_Charging>
1.70435e-08

> <r_epik_Ionization_Penalty_Neutral>
7.08805e-06

> <r_epik_State_Penalty>
-0

> <r_epik_Charging_Adjusted_Penalty>
1.70435e-08

> <i_epik_Tot_Q>
0

> <i_epik_Tot_abs_Q>
0

> <r_epik_Metal_State_Penalty>
-0

> <b_epik_Metal_Only>
0

> <s_lp_Force_Field>
OPLS_2005

> <r_lp_Energy>
9.56824

> <b_lp_Chiralities_Consistent>
1

> <s_lp_Variant>
AV-unprocessed.smi:1337-1

> <Gold.Version>
5.8.1

> <Gold.Id.Protein>
6NUR|6NUR_protein|mol2

> <Gold.PLP.Fitness>
46.9369

> <Gold.PLP.PLP>
-39.2840

> <Gold.PLP.part.hbond>
-3.9888

> <Gold.PLP.part.metal>
0.0000

> <Gold.PLP.part.buried>
-3.9212

> <Gold.PLP.part.nonpolar>
-31.6252

> <Gold.PLP.part.repulsive>
0.1118

> <Gold.PLP.ligand.clash>
0.0225

> <Gold.PLP.ligand.torsion>
0.7104

> <Gold.PLP.Chemscore.Hbond>
2.0844

> <Gold.PLP.Chemscore.CHOScore>
0.9351

> <Gold.PLP.Chemscore.Metal>
0.0000

> <Gold.Chemscore.Hbonds>
donor molecule, donor type, donor heavy atom, donor atom, acceptor molecule, acceptor atom, score
      P1  H  7989  7998       L1     1  0.18
      P1  H  7997  8008       L1     1  1.00
      P1  H 10752 10765       L1    10  0.93
      L1  C     5    22       P1  7948  0.95

> <Gold.PLP.Chemscore.Internal.Correction>
0.0376

> <Gold.Rescore>
     Score         DG    S(hbond)    S(metal)    S(lipo)     H(rot)  DE(clash)    DE(int)     intcor
     15.04     -18.28       1.74        0.00     101.12       1.89       0.07       3.18       ----

> <Gold.Chemscore.Fitness>
15.0358

> <Gold.Chemscore.DG>
-18.2837

> <Gold.Chemscore.ZeroCoef>
-5.4800

> <Gold.Chemscore.Hbond>
1.7410

> <Gold.Chemscore.Metal>
0.0000

> <Gold.Chemscore.Lipo>
101.1215

> <Gold.Chemscore.Internal_Hbond>
0.0000

> <Gold.Chemscore.DEClash>
0.0658

> <Gold.Chemscore.DEInternal>
3.1822

> <Gold.Chemscore.Rot>
1.8916

> <Gold.Chemscore.Internal.Correction>
   9.000000E+99

> <Gold.Chemscore.Hbonds>
donor molecule, donor type, donor heavy atom, donor atom, acceptor molecule, acceptor atom, score
      P1  H  7989  7998       L1     1  0.03
      P1  H  7997  8008       L1     1  0.92
      P1  H 10752 10765       L1    10  0.27

> <Gold.Chemscore.Hbond.Weighted>
-5.8150

> <Gold.Chemscore.Metal.Weighted>
-0.0000

> <Gold.Chemscore.Lipo.Weighted>
-11.8312

> <Gold.Chemscore.Internal_Hbond.Weighted>
0.0000

> <Gold.Chemscore.DEClash.Weighted>
0.0658

> <Gold.Chemscore.DEInternal.Weighted>
3.1822

> <Gold.Chemscore.Rot.Weighted>
4.8425

> <Gold.Chemscore.Internal.Correction.Weighted>
   9.000000E+99

> <Gold.Protein.RotatedTorsions>
[ 6907 6896 6895 6894 ] final -125.97 input  -60.11 | X-H torsion
[ 7974 7965 7964 7962 ] final -164.59 input  175.53 | X-H torsion
[ 8008 7997 7996 7995 ] final    7.93 input   59.86 | X-H torsion
[ 10167 10162 10161 10158 ] final  -92.77 input  -65.29 | X-H torsion
[ 10718 10713 10712 10709 ] final   15.24 input   66.30 | X-H torsion
[ 10763 10752 10751 10750 ] final -115.84 input  -60.55 | X-H torsion
[ 11005 11000 10999 10996 ] final  136.94 input  -57.11 | X-H torsion

> <Gold.Protein.ActiveResidues>
 VAL166  LYS551  ARG553  GLY616  TRP617  ASP618  TYR619  PRO620  LYS621  CYS622 
 ASP623  PHE694  ASN695  SER759  ASP760  ASP761  ALA762  ILE779  LEU786  VAL792 
 PHE793  MET794  SER795  GLU796  ALA797  LYS798  CYS799  TRP800  GLU811  SER814 

> <Gold.Protein.RotatedAtoms>
  150.8921  133.7229  159.2901 H   0  0  0  0  0  0  0  0  0  0  0  0  # atno 6907 bound_to 6896
  151.4776  135.1048  159.9778 H   0  0  0  0  0  0  0  0  0  0  0  0  # atno 6908 bound_to 6896
  152.4826  133.8246  159.7127 H   0  0  0  0  0  0  0  0  0  0  0  0  # atno 6909 bound_to 6896
  144.7292  140.2938  143.6216 H   0  0  0  0  0  0  0  0  0  0  0  0  # atno 7974 bound_to 7965
  154.7602  140.2783  155.6221 H   0  0  0  0  0  0  0  0  0  0  0  0  # atno 8008 bound_to 7997
  156.2914  140.2661  156.2305 H   0  0  0  0  0  0  0  0  0  0  0  0  # atno 8009 bound_to 7997
  155.0027  140.0372  157.2356 H   0  0  0  0  0  0  0  0  0  0  0  0  # atno 8010 bound_to 7997
  140.3315  143.2992  151.9937 H   0  0  0  0  0  0  0  0  0  0  0  0  # atno 10167 bound_to 10162
  157.0506  130.6268  149.5767 H   0  0  0  0  0  0  0  0  0  0  0  0  # atno 10718 bound_to 10713
  154.8497  135.4367  154.1727 H   0  0  0  0  0  0  0  0  0  0  0  0  # atno 10763 bound_to 10752
  153.2836  135.6955  153.7367 H   0  0  0  0  0  0  0  0  0  0  0  0  # atno 10764 bound_to 10752
  153.6561  135.3443  155.3089 H   0  0  0  0  0  0  0  0  0  0  0  0  # atno 10765 bound_to 10752
  140.0080  134.9451  157.0217 H   0  0  0  0  0  0  0  0  0  0  0  0  # atno 11005 bound_to 11000
  145.7829  139.1898  143.2147 LP  0  0  0  0  0  0  0  0  0  0  0  0  # atno 17320 bound_to 7965
  146.0819  140.7754  142.9637 LP  0  0  0  0  0  0  0  0  0  0  0  0  # atno 17321 bound_to 7965
  139.4856  144.6231  151.7217 LP  0  0  0  0  0  0  0  0  0  0  0  0  # atno 17342 bound_to 10162
  140.5393  144.0605  150.6082 LP  0  0  0  0  0  0  0  0  0  0  0  0  # atno 17343 bound_to 10162
  156.0009  130.5087  150.7658 LP  0  0  0  0  0  0  0  0  0  0  0  0  # atno 17370 bound_to 10713
  157.5033  131.0920  151.0288 LP  0  0  0  0  0  0  0  0  0  0  0  0  # atno 17371 bound_to 10713
  140.4606  134.1488  155.7191 LP  0  0  0  0  0  0  0  0  0  0  0  0  # atno 17394 bound_to 11000
  141.1691  133.8645  157.1626 LP  0  0  0  0  0  0  0  0  0  0  0  0  # atno 17395 bound_to 11000

$$$$
