AV-unprocessed.smi:1046|AV-procd|sdf|4557|dock10
  -GOLD-   22720 2593D 1   1.00000     0.00000
 Structure written by MMmdl.
 54 56  0  0  0  0  0  0  0  0  3 V2000
  153.2292  141.7823  160.7359 C   0  0  0  0  0  0  0  0  0  0  0  0
  152.4396  141.6028  159.4512 C   0  0  0  0  0  0  0  0  0  0  0  0
  152.5457  140.3840  158.7440 C   0  0  0  0  0  0  0  0  0  0  0  0
  151.8277  140.1769  157.5461 C   0  0  0  0  0  0  0  0  0  0  0  0
  151.7868  139.0822  156.7000 N   0  0  0  0  0  0  0  0  0  0  0  0
  150.9423  139.4988  155.7616 C   0  0  0  0  0  0  0  0  0  0  0  0
  150.4387  140.7411  155.8933 N   0  0  0  0  0  0  0  0  0  0  0  0
  149.5192  141.4085  154.9903 C   0  0  0  0  0  0  0  0  0  0  0  0
  148.0592  140.9649  155.2062 C   0  0  1  0  0  0  0  0  0  0  0  0
  147.5584  141.6545  156.3335 O   0  0  0  0  0  0  0  0  0  0  0  0
  147.1388  141.2524  153.9991 C   0  0  0  0  0  0  0  0  0  0  0  0
  146.3234  140.0726  153.6126 N   0  3  2  0  0  0  0  0  0  0  0  0
  145.9919  139.1849  154.7573 C   0  0  0  0  0  0  0  0  0  0  0  0
  145.0767  138.0284  154.3138 C   0  0  0  0  0  0  0  0  0  0  0  0
  145.6754  137.2457  153.2040 N   0  3  2  0  0  0  0  0  0  0  0  0
  146.7547  136.3202  153.6434 C   0  0  0  0  0  0  0  0  0  0  0  0
  146.8033  135.0326  152.8031 C   0  0  0  0  0  0  0  0  0  0  0  0
  147.0327  135.3526  151.4473 O   0  0  0  0  0  0  0  0  0  0  0  0
  146.0358  138.1281  152.0635 C   0  0  0  0  0  0  0  0  0  0  0  0
  146.9326  139.3066  152.4965 C   0  0  0  0  0  0  0  0  0  0  0  0
  150.9934  141.2308  157.0713 C   0  0  0  0  0  0  0  0  0  0  0  0
  150.8791  142.4481  157.7662 C   0  0  0  0  0  0  0  0  0  0  0  0
  151.6039  142.6384  158.9612 C   0  0  0  0  0  0  0  0  0  0  0  0
  151.4729  143.9552  159.7058 C   0  0  0  0  0  0  0  0  0  0  0  0
  153.8082  140.8900  160.9758 H   0  0  0  0  0  0  0  0  0  0  0  0
  152.5585  141.9803  161.5722 H   0  0  0  0  0  0  0  0  0  0  0  0
  153.9243  142.6170  160.6437 H   0  0  0  0  0  0  0  0  0  0  0  0
  153.1817  139.5948  159.1176 H   0  0  0  0  0  0  0  0  0  0  0  0
  150.6802  138.8674  154.9251 H   0  0  0  0  0  0  0  0  0  0  0  0
  149.6143  142.4847  155.1436 H   0  0  0  0  0  0  0  0  0  0  0  0
  149.8332  141.2121  153.9643 H   0  0  0  0  0  0  0  0  0  0  0  0
  148.0587  139.9009  155.4400 H   0  0  0  0  0  0  0  0  0  0  0  0
  148.0595  142.4475  156.4527 H   0  0  0  0  0  0  0  0  0  0  0  0
  146.4865  142.0891  154.2549 H   0  0  0  0  0  0  0  0  0  0  0  0
  147.7137  141.5738  153.1301 H   0  0  0  0  0  0  0  0  0  0  0  0
  146.9110  138.7930  155.1958 H   0  0  0  0  0  0  0  0  0  0  0  0
  145.4893  139.7497  155.5415 H   0  0  0  0  0  0  0  0  0  0  0  0
  144.8417  137.3773  155.1567 H   0  0  0  0  0  0  0  0  0  0  0  0
  144.1235  138.4338  153.9716 H   0  0  0  0  0  0  0  0  0  0  0  0
  147.7209  136.8235  153.6136 H   0  0  0  0  0  0  0  0  0  0  0  0
  146.5960  136.0383  154.6854 H   0  0  0  0  0  0  0  0  0  0  0  0
  147.5676  134.3392  153.1527 H   0  0  0  0  0  0  0  0  0  0  0  0
  145.8489  134.5099  152.8737 H   0  0  0  0  0  0  0  0  0  0  0  0
  147.6693  136.0510  151.4044 H   0  0  0  0  0  0  0  0  0  0  0  0
  146.5128  137.5608  151.2652 H   0  0  0  0  0  0  0  0  0  0  0  0
  145.1110  138.5212  151.6388 H   0  0  0  0  0  0  0  0  0  0  0  0
  147.0860  139.9683  151.6431 H   0  0  0  0  0  0  0  0  0  0  0  0
  147.9194  138.9504  152.7950 H   0  0  0  0  0  0  0  0  0  0  0  0
  150.2380  143.2287  157.3846 H   0  0  0  0  0  0  0  0  0  0  0  0
  150.8100  144.6445  159.1822 H   0  0  0  0  0  0  0  0  0  0  0  0
  152.4455  144.4376  159.8056 H   0  0  0  0  0  0  0  0  0  0  0  0
  151.0639  143.7902  160.7030 H   0  0  0  0  0  0  0  0  0  0  0  0
  145.4506  140.4406  153.2596 H   0  0  0  0  0  0  0  0  0  0  0  0
  144.9396  136.6360  152.8744 H   0  0  0  0  0  0  0  0  0  0  0  0
  1  2  1  0  0  0  0
  1 25  1  0  0  0  0
  1 26  1  0  0  0  0
  1 27  1  0  0  0  0
  2 23  1  0  0  0  0
  2  3  2  0  0  0  0
  3  4  1  0  0  0  0
  3 28  1  0  0  0  0
  4 21  2  0  0  0  0
  4  5  1  0  0  0  0
  5  6  2  0  0  0  0
  6  7  1  0  0  0  0
  6 29  1  0  0  0  0
  7  8  1  0  0  0  0
  7 21  1  0  0  0  0
  8  9  1  0  0  0  0
  8 30  1  0  0  0  0
  8 31  1  0  0  0  0
  9 10  1  0  0  0  0
  9 11  1  0  0  0  0
  9 32  1  0  0  0  0
 10 33  1  0  0  0  0
 11 12  1  0  0  0  0
 11 34  1  0  0  0  0
 11 35  1  0  0  0  0
 12 20  1  0  0  0  0
 12 13  1  0  0  0  0
 12 53  1  0  0  0  0
 13 14  1  0  0  0  0
 13 36  1  0  0  0  0
 13 37  1  0  0  0  0
 14 15  1  0  0  0  0
 14 38  1  0  0  0  0
 14 39  1  0  0  0  0
 15 16  1  0  0  0  0
 15 19  1  0  0  0  0
 15 54  1  0  0  0  0
 16 17  1  0  0  0  0
 16 40  1  0  0  0  0
 16 41  1  0  0  0  0
 17 18  1  0  0  0  0
 17 42  1  0  0  0  0
 17 43  1  0  0  0  0
 18 44  1  0  0  0  0
 19 20  1  0  0  0  0
 19 45  1  0  0  0  0
 19 46  1  0  0  0  0
 20 47  1  0  0  0  0
 20 48  1  0  0  0  0
 21 22  1  0  0  0  0
 22 23  2  0  0  0  0
 22 49  1  0  0  0  0
 23 24  1  0  0  0  0
 24 50  1  0  0  0  0
 24 51  1  0  0  0  0
 24 52  1  0  0  0  0
M  CHG  1  12   1
M  CHG  1  15   1
M  END
> <s_m_source_file>
AV-unprocessed.smi

> <i_m_source_file_index>
1046

> <i_lp_mmshare_version>
43012

> <i_f3d_flags>
0

> <s_epik_input>
W0NIM11jKFtjSF0xKWMoW0NIM10pW2NIXWMoYzEyKW4oW2NIXW4yKVtDSDJdW0NASF0oW09IXSlbQ0gyXU4zW0NIMl1bQ0gyXU4oW0NIMl1bQ0gyXTMpW0NIMl1bQ0gyXVtPSF0=

> <s_epik_cmdline>
J2VwaWtfcHl0aG9uJywgJy1waCcsICc3LjAnLCAnLXRuJywgJzgnLCAnLW1hJywgJzIwMCcsICctbWV0YWxfYmluZGluZycsICctaW1hZScsICc8aW5maWxlLm1hZT4nLCAnLW9tYWUnLCAnPG91dGZpbGUubWFlPic=

> <r_epik_Ionization_Penalty>
3.17398

> <r_epik_Ionization_Penalty_Charging>
3.09061

> <r_epik_Ionization_Penalty_Neutral>
0.0833726

> <r_epik_State_Penalty>
2.17606

> <r_epik_Charging_Adjusted_Penalty>
5.26667

> <i_epik_Tot_Q>
2

> <i_epik_Tot_abs_Q>
2

> <r_epik_Metal_State_Penalty>
2.08587

> <b_epik_Metal_Only>
0

> <s_lp_Force_Field>
OPLS_2005

> <r_lp_Energy>
29.1343

> <b_lp_Chiralities_Consistent>
1

> <s_lp_Variant>
AV-unprocessed.smi:1046-10

> <Gold.Version>
5.8.1

> <Gold.Id.Protein>
6NUR|6NUR_protein|mol2

> <Gold.PLP.Fitness>
52.8423

> <Gold.PLP.PLP>
-44.6022

> <Gold.PLP.part.hbond>
-2.8465

> <Gold.PLP.part.metal>
0.0000

> <Gold.PLP.part.buried>
-3.2370

> <Gold.PLP.part.nonpolar>
-39.2906

> <Gold.PLP.part.repulsive>
0.0000

> <Gold.PLP.ligand.clash>
0.0000

> <Gold.PLP.ligand.torsion>
1.9356

> <Gold.PLP.Chemscore.Hbond>
4.0000

> <Gold.PLP.Chemscore.CHOScore>
0.0000

> <Gold.PLP.Chemscore.Metal>
0.0000

> <Gold.Chemscore.Hbonds>
donor molecule, donor type, donor heavy atom, donor atom, acceptor molecule, acceptor atom, score
      L1  H    12    53       P1 10175  2.00
      L1  H    18    44       P1  7948  0.34

> <Gold.PLP.Chemscore.Internal.Correction>
0.1113

> <Gold.Rescore>
     Score         DG    S(hbond)    S(metal)    S(lipo)     H(rot)  DE(clash)    DE(int)     intcor
     18.78     -21.05       2.85        0.00     123.68       3.28       0.19       2.09       ----

> <Gold.Chemscore.Fitness>
18.7761

> <Gold.Chemscore.DG>
-21.0528

> <Gold.Chemscore.ZeroCoef>
-5.4800

> <Gold.Chemscore.Hbond>
2.8462

> <Gold.Chemscore.Metal>
0.0000

> <Gold.Chemscore.Lipo>
123.6780

> <Gold.Chemscore.Internal_Hbond>
0.0000

> <Gold.Chemscore.DEClash>
0.1908

> <Gold.Chemscore.DEInternal>
2.0859

> <Gold.Chemscore.Rot>
3.2828

> <Gold.Chemscore.Internal.Correction>
   9.000000E+99

> <Gold.Chemscore.Hbonds>
donor molecule, donor type, donor heavy atom, donor atom, acceptor molecule, acceptor atom, score
      L1  H    12    53       P1 10175  0.96
      L1  H    18    44       P1  7948  0.35

> <Gold.Chemscore.Hbond.Weighted>
-9.5064

> <Gold.Chemscore.Metal.Weighted>
-0.0000

> <Gold.Chemscore.Lipo.Weighted>
-14.4703

> <Gold.Chemscore.Internal_Hbond.Weighted>
0.0000

> <Gold.Chemscore.DEClash.Weighted>
0.1908

> <Gold.Chemscore.DEInternal.Weighted>
2.0859

> <Gold.Chemscore.Rot.Weighted>
8.4039

> <Gold.Chemscore.Internal.Correction.Weighted>
   9.000000E+99

> <Gold.Protein.RotatedTorsions>
[ 6907 6896 6895 6894 ] final   -0.63 input  -60.11 | X-H torsion
[ 7974 7965 7964 7962 ] final  -95.24 input  175.53 | X-H torsion
[ 8008 7997 7996 7995 ] final  -41.97 input   59.86 | X-H torsion
[ 10167 10162 10161 10158 ] final  160.43 input  -65.29 | X-H torsion
[ 10718 10713 10712 10709 ] final   42.30 input   66.30 | X-H torsion
[ 10763 10752 10751 10750 ] final  -18.56 input  -60.55 | X-H torsion
[ 11005 11000 10999 10996 ] final  -25.79 input  -57.11 | X-H torsion

> <Gold.Protein.ActiveResidues>
 VAL166  LYS551  ARG553  GLY616  TRP617  ASP618  TYR619  PRO620  LYS621  CYS622 
 ASP623  PHE694  ASN695  SER759  ASP760  ASP761  ALA762  ILE779  LEU786  VAL792 
 PHE793  MET794  SER795  GLU796  ALA797  LYS798  CYS799  TRP800  GLU811  SER814 

> <Gold.Protein.RotatedAtoms>
  151.5591  135.1066  159.9967 H   0  0  0  0  0  0  0  0  0  0  0  0  # atno 6907 bound_to 6896
  152.4455  133.7524  159.6712 H   0  0  0  0  0  0  0  0  0  0  0  0  # atno 6908 bound_to 6896
  150.8370  133.7930  159.3099 H   0  0  0  0  0  0  0  0  0  0  0  0  # atno 6909 bound_to 6896
  145.3626  140.9494  143.2492 H   0  0  0  0  0  0  0  0  0  0  0  0  # atno 7974 bound_to 7965
  154.4001  140.1485  156.3278 H   0  0  0  0  0  0  0  0  0  0  0  0  # atno 8008 bound_to 7997
  155.8471  140.3459  155.5648 H   0  0  0  0  0  0  0  0  0  0  0  0  # atno 8009 bound_to 7997
  155.8024  140.0872  157.1940 H   0  0  0  0  0  0  0  0  0  0  0  0  # atno 8010 bound_to 7997
  139.4840  144.4634  151.8674 H   0  0  0  0  0  0  0  0  0  0  0  0  # atno 10167 bound_to 10162
  157.4032  130.7872  149.7367 H   0  0  0  0  0  0  0  0  0  0  0  0  # atno 10718 bound_to 10713
  153.5912  135.7002  153.5422 H   0  0  0  0  0  0  0  0  0  0  0  0  # atno 10763 bound_to 10752
  153.3177  135.4083  155.1390 H   0  0  0  0  0  0  0  0  0  0  0  0  # atno 10764 bound_to 10752
  154.8600  135.3688  154.5444 H   0  0  0  0  0  0  0  0  0  0  0  0  # atno 10765 bound_to 10752
  140.8970  133.7550  156.0494 H   0  0  0  0  0  0  0  0  0  0  0  0  # atno 11005 bound_to 11000
  144.8635  139.5142  143.6801 LP  0  0  0  0  0  0  0  0  0  0  0  0  # atno 17320 bound_to 7965
  146.2920  139.7168  142.9154 LP  0  0  0  0  0  0  0  0  0  0  0  0  # atno 17321 bound_to 7965
  140.4098  144.2384  150.5889 LP  0  0  0  0  0  0  0  0  0  0  0  0  # atno 17342 bound_to 10162
  140.4977  143.2327  151.8725 LP  0  0  0  0  0  0  0  0  0  0  0  0  # atno 17343 bound_to 10162
  155.9829  130.4005  150.3391 LP  0  0  0  0  0  0  0  0  0  0  0  0  # atno 17370 bound_to 10713
  157.1521  131.0323  151.2880 LP  0  0  0  0  0  0  0  0  0  0  0  0  # atno 17371 bound_to 10713
  140.8277  134.3215  157.5360 LP  0  0  0  0  0  0  0  0  0  0  0  0  # atno 17394 bound_to 11000
  139.8737  134.9345  156.3610 LP  0  0  0  0  0  0  0  0  0  0  0  0  # atno 17395 bound_to 11000

$$$$
