AV-unprocessed.smi:967|AV-procd|sdf|4288|dock1
  -GOLD-   22720 2193D 1   1.00000     0.00000
 Structure written by MMmdl.
 42 43  0  0  0  0  0  0  0  0  1 V2000
  150.6579  124.2165  155.1194 C   0  0  0  0  0  0  0  0  0  0  0  0
  149.2362  124.3720  154.8531 N   0  0  0  0  0  0  0  0  0  0  0  0
  148.5464  123.1954  154.3469 C   0  0  0  0  0  0  0  0  0  0  0  0
  148.9380  125.5323  154.1263 C   0  0  0  0  0  0  0  0  0  0  0  0
  149.2081  125.6224  152.7418 C   0  0  0  0  0  0  0  0  0  0  0  0
  148.8839  126.8129  152.0636 C   0  0  0  0  0  0  0  0  0  0  0  0
  148.2921  127.8737  152.7894 C   0  0  0  0  0  0  0  0  0  0  0  0
  147.9378  129.1282  152.2242 N   0  0  0  0  0  0  0  0  0  0  0  0
  146.8997  129.9222  152.5374 C   0  0  0  0  0  0  0  0  0  0  0  0
  146.0735  129.6948  153.4210 O   0  0  0  0  0  0  0  0  0  0  0  0
  146.8862  131.0216  151.7700 N   0  0  0  0  0  0  0  0  0  0  0  0
  145.9141  132.1091  151.8474 C   0  0  2  0  0  0  0  0  0  0  0  0
  144.5277  131.5975  151.4163 C   0  0  0  0  0  0  0  0  0  0  0  0
  143.4838  132.7281  151.4133 C   0  0  0  0  0  0  0  0  0  0  0  0
  143.9255  133.9279  150.5538 C   0  0  2  0  0  0  0  0  0  0  0  0
  143.8987  133.5786  149.1837 O   0  0  0  0  0  0  0  0  0  0  0  0
  145.3321  134.4182  150.9474 C   0  0  0  0  0  0  0  0  0  0  0  0
  146.3677  133.2798  150.9558 C   0  0  0  0  0  0  0  0  0  0  0  0
  148.0799  127.6855  154.1707 C   0  0  0  0  0  0  0  0  0  0  0  0
  148.3868  126.5467  154.8271 N   0  0  0  0  0  0  0  0  0  0  0  0
  151.0883  125.1477  155.4897 H   0  0  0  0  0  0  0  0  0  0  0  0
  151.1951  123.9219  154.2173 H   0  0  0  0  0  0  0  0  0  0  0  0
  150.8163  123.4484  155.8767 H   0  0  0  0  0  0  0  0  0  0  0  0
  147.4884  123.4051  154.1831 H   0  0  0  0  0  0  0  0  0  0  0  0
  148.6204  122.3786  155.0651 H   0  0  0  0  0  0  0  0  0  0  0  0
  148.9826  122.8616  153.4046 H   0  0  0  0  0  0  0  0  0  0  0  0
  149.6582  124.7989  152.2072 H   0  0  0  0  0  0  0  0  0  0  0  0
  149.1079  126.8923  151.0112 H   0  0  0  0  0  0  0  0  0  0  0  0
  148.5832  129.4912  151.5381 H   0  0  0  0  0  0  0  0  0  0  0  0
  147.6134  131.1196  151.0766 H   0  0  0  0  0  0  0  0  0  0  0  0
  145.8339  132.4725  152.8735 H   0  0  0  0  0  0  0  0  0  0  0  0
  144.5888  131.1562  150.4203 H   0  0  0  0  0  0  0  0  0  0  0  0
  144.2004  130.8007  152.0852 H   0  0  0  0  0  0  0  0  0  0  0  0
  142.5208  132.3491  151.0692 H   0  0  0  0  0  0  0  0  0  0  0  0
  143.3273  133.0657  152.4387 H   0  0  0  0  0  0  0  0  0  0  0  0
  143.2141  134.7436  150.6867 H   0  0  0  0  0  0  0  0  0  0  0  0
  144.7626  133.7092  148.8236 H   0  0  0  0  0  0  0  0  0  0  0  0
  145.6563  135.2155  150.2778 H   0  0  0  0  0  0  0  0  0  0  0  0
  145.2871  134.8592  151.9440 H   0  0  0  0  0  0  0  0  0  0  0  0
  147.3280  133.6625  151.3034 H   0  0  0  0  0  0  0  0  0  0  0  0
  146.5287  132.9275  149.9358 H   0  0  0  0  0  0  0  0  0  0  0  0
  147.6442  128.4715  154.7701 H   0  0  0  0  0  0  0  0  0  0  0  0
  1  2  1  0  0  0  0
  1 21  1  0  0  0  0
  1 22  1  0  0  0  0
  1 23  1  0  0  0  0
  2  3  1  0  0  0  0
  2  4  1  0  0  0  0
  3 24  1  0  0  0  0
  3 25  1  0  0  0  0
  3 26  1  0  0  0  0
  4 20  1  0  0  0  0
  4  5  2  0  0  0  0
  5  6  1  0  0  0  0
  5 27  1  0  0  0  0
  6  7  2  0  0  0  0
  6 28  1  0  0  0  0
  7  8  1  0  0  0  0
  7 19  1  0  0  0  0
  8  9  1  0  0  0  0
  8 29  1  0  0  0  0
  9 10  2  0  0  0  0
  9 11  1  0  0  0  0
 11 12  1  0  0  0  0
 11 30  1  0  0  0  0
 12 18  1  0  0  0  0
 12 13  1  0  0  0  0
 12 31  1  0  0  0  0
 13 14  1  0  0  0  0
 13 32  1  0  0  0  0
 13 33  1  0  0  0  0
 14 15  1  0  0  0  0
 14 34  1  0  0  0  0
 14 35  1  0  0  0  0
 15 16  1  0  0  0  0
 15 17  1  0  0  0  0
 15 36  1  0  0  0  0
 16 37  1  0  0  0  0
 17 18  1  0  0  0  0
 17 38  1  0  0  0  0
 17 39  1  0  0  0  0
 18 40  1  0  0  0  0
 18 41  1  0  0  0  0
 19 20  2  0  0  0  0
 19 42  1  0  0  0  0
M  END
> <s_m_source_file>
AV-unprocessed.smi

> <i_m_source_file_index>
967

> <i_lp_mmshare_version>
43012

> <i_f3d_flags>
0

> <s_epik_input>
W0NIM11OKFtDSDNdKWMxW2NIXVtjSF1jKFtjSF1uMSlbTkhdQyg9TylbTkhdW0NAQEhdMltDSDJdW0NIMl1bQ0BASF0oW09IXSlbQ0gyXVtDSDJdMg==

> <s_epik_cmdline>
J2VwaWtfcHl0aG9uJywgJy1waCcsICc3LjAnLCAnLXRuJywgJzgnLCAnLW1hJywgJzIwMCcsICctbWV0YWxfYmluZGluZycsICctaW1hZScsICc8aW5maWxlLm1hZT4nLCAnLW9tYWUnLCAnPG91dGZpbGUubWFlPic=

> <r_lp_tautomer_probability>
1

> <r_epik_Ionization_Penalty>
0.629464

> <r_epik_Ionization_Penalty_Charging>
0

> <r_epik_Ionization_Penalty_Neutral>
0.629464

> <r_epik_State_Penalty>
0.645019

> <r_epik_Charging_Adjusted_Penalty>
0.645019

> <i_epik_Tot_Q>
0

> <i_epik_Tot_abs_Q>
0

> <r_epik_Metal_State_Penalty>
0.308581

> <b_epik_Metal_Only>
0

> <s_lp_Force_Field>
OPLS_2005

> <r_lp_Energy>
18.5045

> <b_lp_Chiralities_Consistent>
1

> <s_lp_Variant>
AV-unprocessed.smi:967-4

> <Gold.Version>
5.8.1

> <Gold.Id.Protein>
6NUR|6NUR_protein|mol2

> <Gold.PLP.Fitness>
44.6292

> <Gold.PLP.PLP>
-37.5437

> <Gold.PLP.part.hbond>
-4.3566

> <Gold.PLP.part.metal>
0.0000

> <Gold.PLP.part.buried>
-4.6075

> <Gold.PLP.part.nonpolar>
-29.1530

> <Gold.PLP.part.repulsive>
0.3120

> <Gold.PLP.ligand.clash>
0.0000

> <Gold.PLP.ligand.torsion>
0.4975

> <Gold.PLP.Chemscore.Hbond>
2.6240

> <Gold.PLP.Chemscore.CHOScore>
0.0000

> <Gold.PLP.Chemscore.Metal>
0.0000

> <Gold.Chemscore.Hbonds>
donor molecule, donor type, donor heavy atom, donor atom, acceptor molecule, acceptor atom, score
      L1  H     8    29       P1 10747  0.74
      L1  H    11    30       P1 10747  1.00
      L1  H    16    37       P1  7921  0.78

> <Gold.PLP.Chemscore.Internal.Correction>
0.2084

> <Gold.Rescore>
     Score         DG    S(hbond)    S(metal)    S(lipo)     H(rot)  DE(clash)    DE(int)     intcor
     12.54     -14.81       1.46        0.00      75.55       1.71       0.65       1.62       ----

> <Gold.Chemscore.Fitness>
12.5423

> <Gold.Chemscore.DG>
-14.8077

> <Gold.Chemscore.ZeroCoef>
-5.4800

> <Gold.Chemscore.Hbond>
1.4557

> <Gold.Chemscore.Metal>
0.0000

> <Gold.Chemscore.Lipo>
75.5484

> <Gold.Chemscore.Internal_Hbond>
0.0000

> <Gold.Chemscore.DEClash>
0.6453

> <Gold.Chemscore.DEInternal>
1.6201

> <Gold.Chemscore.Rot>
1.7084

> <Gold.Chemscore.Internal.Correction>
   9.000000E+99

> <Gold.Chemscore.Hbonds>
donor molecule, donor type, donor heavy atom, donor atom, acceptor molecule, acceptor atom, score
      L1  H     8    29       P1 10747  0.09
      L1  H    11    30       P1 10747  0.98
      L1  H    16    37       P1  7921  0.72

> <Gold.Chemscore.Hbond.Weighted>
-4.8621

> <Gold.Chemscore.Metal.Weighted>
-0.0000

> <Gold.Chemscore.Lipo.Weighted>
-8.8392

> <Gold.Chemscore.Internal_Hbond.Weighted>
0.0000

> <Gold.Chemscore.DEClash.Weighted>
0.6453

> <Gold.Chemscore.DEInternal.Weighted>
1.6201

> <Gold.Chemscore.Rot.Weighted>
4.3735

> <Gold.Chemscore.Internal.Correction.Weighted>
   9.000000E+99

> <Gold.Protein.RotatedTorsions>
[ 6907 6896 6895 6894 ] final -177.39 input  -60.11 | X-H torsion
[ 7974 7965 7964 7962 ] final  112.19 input  175.53 | X-H torsion
[ 8008 7997 7996 7995 ] final   70.32 input   59.86 | X-H torsion
[ 10167 10162 10161 10158 ] final  154.38 input  -65.29 | X-H torsion
[ 10718 10713 10712 10709 ] final -175.50 input   66.30 | X-H torsion
[ 10763 10752 10751 10750 ] final -106.51 input  -60.55 | X-H torsion
[ 11005 11000 10999 10996 ] final  -35.48 input  -57.11 | X-H torsion

> <Gold.Protein.ActiveResidues>
 VAL166  LYS551  ARG553  GLY616  TRP617  ASP618  TYR619  PRO620  LYS621  CYS622 
 ASP623  PHE694  ASN695  SER759  ASP760  ASP761  ALA762  ILE779  LEU786  VAL792 
 PHE793  MET794  SER795  GLU796  ALA797  LYS798  CYS799  TRP800  GLU811  SER814 

> <Gold.Protein.RotatedAtoms>
  151.6202  133.3340  159.3086 H   0  0  0  0  0  0  0  0  0  0  0  0  # atno 6907 bound_to 6896
  150.8110  134.7268  159.6699 H   0  0  0  0  0  0  0  0  0  0  0  0  # atno 6908 bound_to 6896
  152.4206  134.5966  160.0040 H   0  0  0  0  0  0  0  0  0  0  0  0  # atno 6909 bound_to 6896
  145.2327  139.2812  143.4160 H   0  0  0  0  0  0  0  0  0  0  0  0  # atno 7974 bound_to 7965
  155.7370  140.3491  155.5086 H   0  0  0  0  0  0  0  0  0  0  0  0  # atno 8008 bound_to 7997
  155.9130  140.1053  157.1286 H   0  0  0  0  0  0  0  0  0  0  0  0  # atno 8009 bound_to 7997
  154.4058  140.1264  156.4568 H   0  0  0  0  0  0  0  0  0  0  0  0  # atno 8010 bound_to 7997
  139.4823  144.5192  151.7903 H   0  0  0  0  0  0  0  0  0  0  0  0  # atno 10167 bound_to 10162
  156.8008  130.9551  151.3118 H   0  0  0  0  0  0  0  0  0  0  0  0  # atno 10718 bound_to 10713
  154.8017  135.4709  154.0291 H   0  0  0  0  0  0  0  0  0  0  0  0  # atno 10763 bound_to 10752
  153.1792  135.6838  153.8508 H   0  0  0  0  0  0  0  0  0  0  0  0  # atno 10764 bound_to 10752
  153.8064  135.3223  155.3373 H   0  0  0  0  0  0  0  0  0  0  0  0  # atno 10765 bound_to 10752
  140.9800  133.7062  156.1667 H   0  0  0  0  0  0  0  0  0  0  0  0  # atno 11005 bound_to 11000
  146.3349  140.2666  142.8604 LP  0  0  0  0  0  0  0  0  0  0  0  0  # atno 17320 bound_to 7965
  144.9662  140.8324  143.5483 LP  0  0  0  0  0  0  0  0  0  0  0  0  # atno 17321 bound_to 7965
  140.4704  144.1595  150.5917 LP  0  0  0  0  0  0  0  0  0  0  0  0  # atno 17342 bound_to 10162
  140.4389  143.2535  151.9499 LP  0  0  0  0  0  0  0  0  0  0  0  0  # atno 17343 bound_to 10162
  157.6554  130.8920  149.9719 LP  0  0  0  0  0  0  0  0  0  0  0  0  # atno 17370 bound_to 10713
  156.1102  130.3650  150.0062 LP  0  0  0  0  0  0  0  0  0  0  0  0  # atno 17371 bound_to 10713
  140.7201  134.4367  157.5575 LP  0  0  0  0  0  0  0  0  0  0  0  0  # atno 17394 bound_to 11000
  139.8946  134.8702  156.2169 LP  0  0  0  0  0  0  0  0  0  0  0  0  # atno 17395 bound_to 11000

$$$$
