AV-unprocessed.smi:2013|AV-procd|sdf|8158|dock4
  -GOLD-   2272010403D 1   1.00000     0.00000
 Structure written by MMmdl.
 51 52  0  0  0  0  0  0  0  0  2 V2000
  147.6884  141.6464  154.3534 C   0  0  0  0  0  0  0  0  0  0  0  0
  146.9324  140.3967  153.8706 C   0  0  0  0  0  0  0  0  0  0  0  0
  145.8534  139.9832  154.8866 C   0  0  0  0  0  0  0  0  0  0  0  0
  147.8409  139.1985  153.4702 C   0  0  1  0  0  0  0  0  0  0  0  0
  148.6367  138.5660  154.6445 C   0  0  0  0  0  0  0  0  0  0  0  0
  149.8805  139.2708  154.9312 N   0  0  0  0  0  0  0  0  0  0  0  0
  150.0598  140.1543  155.9246 C   0  0  0  0  0  0  0  0  0  0  0  0
  149.1725  140.4663  156.7182 O   0  0  0  0  0  0  0  0  0  0  0  0
  151.4509  140.7856  156.0427 C   0  0  0  0  0  0  0  0  0  0  0  0
  151.6085  141.5454  157.2895 N   0  0  0  0  0  0  0  0  0  0  0  0
  150.9496  142.7533  157.4315 C   0  0  0  0  0  0  0  0  0  0  0  0
  151.0368  143.5259  158.5361 C   0  0  0  0  0  0  0  0  0  0  0  0
  151.8549  143.1162  159.6701 C   0  0  0  0  0  0  0  0  0  0  0  0
  151.9686  143.7817  160.7004 O   0  0  0  0  0  0  0  0  0  0  0  0
  152.5196  141.8803  159.5011 N   0  0  0  0  0  0  0  0  0  0  0  0
  153.3416  141.4377  160.6085 C   0  0  0  0  0  0  0  0  0  0  0  0
  152.4227  141.0729  158.3434 C   0  0  0  0  0  0  0  0  0  0  0  0
  153.0191  139.9989  158.2348 O   0  0  0  0  0  0  0  0  0  0  0  0
  147.0967  138.1968  152.6439 N   0  3  0  0  0  0  0  0  0  0  0  0
  146.1694  137.3501  153.4337 C   0  0  0  0  0  0  0  0  0  0  0  0
  145.5840  136.2329  152.5521 C   0  0  0  0  0  0  0  0  0  0  0  0
  144.9449  136.7958  151.4126 O   0  0  0  0  0  0  0  0  0  0  0  0
  145.8482  137.5432  150.6075 C   0  0  0  0  0  0  0  0  0  0  0  0
  146.4093  138.7130  151.4306 C   0  0  0  0  0  0  0  0  0  0  0  0
  148.1719  141.4793  155.3153 H   0  0  0  0  0  0  0  0  0  0  0  0
  147.0022  142.4839  154.4822 H   0  0  0  0  0  0  0  0  0  0  0  0
  148.4478  141.9620  153.6387 H   0  0  0  0  0  0  0  0  0  0  0  0
  146.3869  140.6987  152.9761 H   0  0  0  0  0  0  0  0  0  0  0  0
  146.2889  139.7034  155.8461 H   0  0  0  0  0  0  0  0  0  0  0  0
  145.2725  139.1349  154.5238 H   0  0  0  0  0  0  0  0  0  0  0  0
  145.1552  140.8008  155.0690 H   0  0  0  0  0  0  0  0  0  0  0  0
  148.5941  139.6399  152.8156 H   0  0  0  0  0  0  0  0  0  0  0  0
  148.0537  138.5728  155.5649 H   0  0  0  0  0  0  0  0  0  0  0  0
  148.8586  137.5189  154.4307 H   0  0  0  0  0  0  0  0  0  0  0  0
  150.6653  139.0790  154.3241 H   0  0  0  0  0  0  0  0  0  0  0  0
  152.2032  139.9963  155.9998 H   0  0  0  0  0  0  0  0  0  0  0  0
  151.6398  141.4111  155.1687 H   0  0  0  0  0  0  0  0  0  0  0  0
  150.3327  143.1004  156.6153 H   0  0  0  0  0  0  0  0  0  0  0  0
  150.4951  144.4594  158.5810 H   0  0  0  0  0  0  0  0  0  0  0  0
  153.8531  140.5040  160.3779 H   0  0  0  0  0  0  0  0  0  0  0  0
  152.6791  141.2986  161.4645 H   0  0  0  0  0  0  0  0  0  0  0  0
  154.0788  142.2197  160.7997 H   0  0  0  0  0  0  0  0  0  0  0  0
  146.6961  136.8998  154.2762 H   0  0  0  0  0  0  0  0  0  0  0  0
  145.3692  137.9669  153.8457 H   0  0  0  0  0  0  0  0  0  0  0  0
  146.3652  135.5393  152.2373 H   0  0  0  0  0  0  0  0  0  0  0  0
  144.8527  135.6536  153.1161 H   0  0  0  0  0  0  0  0  0  0  0  0
  146.6512  136.9015  150.2409 H   0  0  0  0  0  0  0  0  0  0  0  0
  145.3145  137.9192  149.7341 H   0  0  0  0  0  0  0  0  0  0  0  0
  145.5871  139.3719  151.7128 H   0  0  0  0  0  0  0  0  0  0  0  0
  147.0906  139.2984  150.8156 H   0  0  0  0  0  0  0  0  0  0  0  0
  147.8073  137.5612  152.3104 H   0  0  0  0  0  0  0  0  0  0  0  0
  1  2  1  0  0  0  0
  1 25  1  0  0  0  0
  1 26  1  0  0  0  0
  1 27  1  0  0  0  0
  2  3  1  0  0  0  0
  2  4  1  0  0  0  0
  2 28  1  0  0  0  0
  3 29  1  0  0  0  0
  3 30  1  0  0  0  0
  3 31  1  0  0  0  0
  4  5  1  0  0  0  0
  4 19  1  0  0  0  0
  4 32  1  0  0  0  0
  5  6  1  0  0  0  0
  5 33  1  0  0  0  0
  5 34  1  0  0  0  0
  6  7  1  0  0  0  0
  6 35  1  0  0  0  0
  7  8  2  0  0  0  0
  7  9  1  0  0  0  0
  9 10  1  0  0  0  0
  9 36  1  0  0  0  0
  9 37  1  0  0  0  0
 10 17  1  0  0  0  0
 10 11  1  0  0  0  0
 11 12  2  0  0  0  0
 11 38  1  0  0  0  0
 12 13  1  0  0  0  0
 12 39  1  0  0  0  0
 13 14  2  0  0  0  0
 13 15  1  0  0  0  0
 15 16  1  0  0  0  0
 15 17  1  0  0  0  0
 16 40  1  0  0  0  0
 16 41  1  0  0  0  0
 16 42  1  0  0  0  0
 17 18  2  0  0  0  0
 19 24  1  0  0  0  0
 19 20  1  0  0  0  0
 19 51  1  0  0  0  0
 20 21  1  0  0  0  0
 20 43  1  0  0  0  0
 20 44  1  0  0  0  0
 21 22  1  0  0  0  0
 21 45  1  0  0  0  0
 21 46  1  0  0  0  0
 22 23  1  0  0  0  0
 23 24  1  0  0  0  0
 23 47  1  0  0  0  0
 23 48  1  0  0  0  0
 24 49  1  0  0  0  0
 24 50  1  0  0  0  0
M  CHG  1  19   1
M  END
> <s_m_source_file>
AV-unprocessed.smi

> <i_m_source_file_index>
2013

> <i_lp_mmshare_version>
43012

> <i_f3d_flags>
0

> <s_epik_input>
W0NIMl0xW0NIMl1PW0NIMl1bQ0gyXU4xW0NASF0oW0NIXShbQ0gzXSlbQ0gzXSlbQ0gyXVtOSF1DKD1PKVtDSDJdbjJbY0hdW2NIXWMoPU8pbihbQ0gzXSljMj1P

> <s_epik_cmdline>
J2VwaWtfcHl0aG9uJywgJy1waCcsICc3LjAnLCAnLXRuJywgJzgnLCAnLW1hJywgJzIwMCcsICctbWV0YWxfYmluZGluZycsICctaW1hZScsICc8aW5maWxlLm1hZT4nLCAnLW9tYWUnLCAnPG91dGZpbGUubWFlPic=

> <r_lp_tautomer_probability>
1

> <r_epik_Ionization_Penalty>
0.370738

> <r_epik_Ionization_Penalty_Charging>
0.370738

> <r_epik_Ionization_Penalty_Neutral>
8.1827e-08

> <r_epik_State_Penalty>
0.368162

> <r_epik_Charging_Adjusted_Penalty>
0.7389

> <i_epik_Tot_Q>
1

> <i_epik_Tot_abs_Q>
1

> <r_epik_Metal_State_Penalty>
0.368194

> <b_epik_Metal_Only>
0

> <s_lp_Force_Field>
OPLS_2005

> <r_lp_Energy>
35.5949

> <b_lp_Chiralities_Consistent>
1

> <s_lp_Variant>
AV-unprocessed.smi:2013-2

> <Gold.Version>
5.8.1

> <Gold.Id.Protein>
6NUR|6NUR_protein|mol2

> <Gold.PLP.Fitness>
48.9298

> <Gold.PLP.PLP>
-38.3687

> <Gold.PLP.part.hbond>
-2.0000

> <Gold.PLP.part.metal>
0.0000

> <Gold.PLP.part.buried>
-1.7167

> <Gold.PLP.part.nonpolar>
-35.7749

> <Gold.PLP.part.repulsive>
0.9645

> <Gold.PLP.ligand.clash>
0.0000

> <Gold.PLP.ligand.torsion>
0.9039

> <Gold.PLP.Chemscore.Hbond>
2.9760

> <Gold.PLP.Chemscore.CHOScore>
1.0000

> <Gold.PLP.Chemscore.Metal>
0.0000

> <Gold.Chemscore.Hbonds>
donor molecule, donor type, donor heavy atom, donor atom, acceptor molecule, acceptor atom, score
      L1  H    19    51       P1  7948  2.00
      P1  H  7997  8008       L1    18  1.00
      L1  C    11    38       P1  8028  1.00

> <Gold.PLP.Chemscore.Internal.Correction>
0.4409

> <Gold.Rescore>
     Score         DG    S(hbond)    S(metal)    S(lipo)     H(rot)  DE(clash)    DE(int)     intcor
     12.07     -15.33       1.90        0.00      79.98       2.28       0.82       2.45       ----

> <Gold.Chemscore.Fitness>
12.0683

> <Gold.Chemscore.DG>
-15.3341

> <Gold.Chemscore.ZeroCoef>
-5.4800

> <Gold.Chemscore.Hbond>
1.8973

> <Gold.Chemscore.Metal>
0.0000

> <Gold.Chemscore.Lipo>
79.9783

> <Gold.Chemscore.Internal_Hbond>
0.0000

> <Gold.Chemscore.DEClash>
0.8194

> <Gold.Chemscore.DEInternal>
2.4465

> <Gold.Chemscore.Rot>
2.2814

> <Gold.Chemscore.Internal.Correction>
   9.000000E+99

> <Gold.Chemscore.Hbonds>
donor molecule, donor type, donor heavy atom, donor atom, acceptor molecule, acceptor atom, score
      L1  H    19    51       P1  7948  1.00
      P1  H  7997  8008       L1    18  0.84

> <Gold.Chemscore.Hbond.Weighted>
-6.3371

> <Gold.Chemscore.Metal.Weighted>
-0.0000

> <Gold.Chemscore.Lipo.Weighted>
-9.3575

> <Gold.Chemscore.Internal_Hbond.Weighted>
0.0000

> <Gold.Chemscore.DEClash.Weighted>
0.8194

> <Gold.Chemscore.DEInternal.Weighted>
2.4465

> <Gold.Chemscore.Rot.Weighted>
5.8404

> <Gold.Chemscore.Internal.Correction.Weighted>
   9.000000E+99

> <Gold.Protein.RotatedTorsions>
[ 6907 6896 6895 6894 ] final  -22.80 input  -60.11 | X-H torsion
[ 7974 7965 7964 7962 ] final   98.47 input  175.53 | X-H torsion
[ 8008 7997 7996 7995 ] final  -82.67 input   59.86 | X-H torsion
[ 10167 10162 10161 10158 ] final  -12.42 input  -65.29 | X-H torsion
[ 10718 10713 10712 10709 ] final -157.26 input   66.30 | X-H torsion
[ 10763 10752 10751 10750 ] final -160.92 input  -60.55 | X-H torsion
[ 11005 11000 10999 10996 ] final -160.40 input  -57.11 | X-H torsion

> <Gold.Protein.ActiveResidues>
 VAL166  LYS551  ARG553  GLY616  TRP617  ASP618  TYR619  PRO620  LYS621  CYS622 
 ASP623  PHE694  ASN695  SER759  ASP760  ASP761  ALA762  ILE779  LEU786  VAL792 
 PHE793  MET794  SER795  GLU796  ALA797  LYS798  CYS799  TRP800  GLU811  SER814 

> <Gold.Protein.RotatedAtoms>
  151.2133  135.0490  159.8919 H   0  0  0  0  0  0  0  0  0  0  0  0  # atno 6907 bound_to 6896
  152.5422  134.0721  159.8209 H   0  0  0  0  0  0  0  0  0  0  0  0  # atno 6908 bound_to 6896
  151.0877  133.5292  159.2648 H   0  0  0  0  0  0  0  0  0  0  0  0  # atno 6909 bound_to 6896
  145.4117  139.2333  143.3244 H   0  0  0  0  0  0  0  0  0  0  0  0  # atno 7974 bound_to 7965
  154.6111  140.0630  156.9494 H   0  0  0  0  0  0  0  0  0  0  0  0  # atno 8008 bound_to 7997
  155.1972  140.3312  155.4330 H   0  0  0  0  0  0  0  0  0  0  0  0  # atno 8009 bound_to 7997
  156.2377  140.1871  156.7058 H   0  0  0  0  0  0  0  0  0  0  0  0  # atno 8010 bound_to 7997
  140.7161  143.5535  150.9275 H   0  0  0  0  0  0  0  0  0  0  0  0  # atno 10167 bound_to 10162
  156.5379  130.8550  151.2738 H   0  0  0  0  0  0  0  0  0  0  0  0  # atno 10718 bound_to 10713
  154.7349  135.3055  154.8828 H   0  0  0  0  0  0  0  0  0  0  0  0  # atno 10763 bound_to 10752
  153.9660  135.6747  153.4750 H   0  0  0  0  0  0  0  0  0  0  0  0  # atno 10764 bound_to 10752
  153.0953  135.4939  154.8689 H   0  0  0  0  0  0  0  0  0  0  0  0  # atno 10765 bound_to 10752
  140.6320  134.4642  157.5230 H   0  0  0  0  0  0  0  0  0  0  0  0  # atno 11005 bound_to 11000
  146.2701  140.4829  142.8818 LP  0  0  0  0  0  0  0  0  0  0  0  0  # atno 17320 bound_to 7965
  144.8304  140.6698  143.6294 LP  0  0  0  0  0  0  0  0  0  0  0  0  # atno 17321 bound_to 7965
  139.9259  143.6550  152.3087 LP  0  0  0  0  0  0  0  0  0  0  0  0  # atno 17342 bound_to 10162
  139.6984  144.7638  151.1316 LP  0  0  0  0  0  0  0  0  0  0  0  0  # atno 17343 bound_to 10162
  157.7410  130.9862  150.2419 LP  0  0  0  0  0  0  0  0  0  0  0  0  # atno 17370 bound_to 10713
  156.2999  130.3757  149.7760 LP  0  0  0  0  0  0  0  0  0  0  0  0  # atno 17371 bound_to 10713
  139.9112  134.8340  156.1520 LP  0  0  0  0  0  0  0  0  0  0  0  0  # atno 17394 bound_to 11000
  141.0669  133.6815  156.2062 LP  0  0  0  0  0  0  0  0  0  0  0  0  # atno 17395 bound_to 11000

$$$$
