AV-unprocessed.smi:711|AV-procd|sdf|3465|dock6
  -GOLD-   22720 0453D 1   1.00000     0.00000
 Structure written by MMmdl.
 29 30  0  0  0  0  0  0  0  0  1 V2000
  152.2498  136.9583  156.0458 O   0  0  0  0  0  0  0  0  0  0  0  0
  151.9035  138.0884  156.3842 C   0  0  0  0  0  0  0  0  0  0  0  0
  151.2246  138.9088  155.4782 N   0  0  0  0  0  0  0  0  0  0  0  0
  150.7753  140.2048  155.7334 C   0  0  0  0  0  0  0  0  0  0  0  0
  150.1934  140.8345  154.8502 O   0  0  0  0  0  0  0  0  0  0  0  0
  151.0260  140.7219  157.0255 N   0  0  0  0  0  0  0  0  0  0  0  0
  150.5824  142.0625  157.3251 C   0  0  0  0  0  0  0  0  0  0  0  0
  151.7424  143.0475  157.5855 C   0  0  1  0  0  0  0  0  0  0  0  0
  151.3742  144.3351  157.1299 O   0  0  0  0  0  0  0  0  0  0  0  0
  152.1075  143.0645  159.0650 C   0  0  0  0  0  0  0  0  0  0  0  0
  153.0407  142.1376  159.5823 C   0  0  0  0  0  0  0  0  0  0  0  0
  153.3915  142.1649  160.9459 C   0  0  0  0  0  0  0  0  0  0  0  0
  152.8153  143.1221  161.8020 C   0  0  0  0  0  0  0  0  0  0  0  0
  153.1536  143.1502  163.1127 F   0  0  0  0  0  0  0  0  0  0  0  0
  151.8897  144.0525  161.2928 C   0  0  0  0  0  0  0  0  0  0  0  0
  151.5380  144.0277  159.9290 C   0  0  0  0  0  0  0  0  0  0  0  0
  150.6549  144.9393  159.4547 F   0  0  0  0  0  0  0  0  0  0  0  0
  151.7053  139.9469  157.9532 C   0  0  0  0  0  0  0  0  0  0  0  0
  152.1407  138.6901  157.6956 C   0  0  0  0  0  0  0  0  0  0  0  0
  152.9790  137.7870  158.9061 Cl  0  0  0  0  0  0  0  0  0  0  0  0
  151.0447  138.5314  154.5592 H   0  0  0  0  0  0  0  0  0  0  0  0
  149.8821  142.3982  156.5573 H   0  0  0  0  0  0  0  0  0  0  0  0
  149.9836  141.9461  158.2306 H   0  0  0  0  0  0  0  0  0  0  0  0
  152.6191  142.7429  157.0125 H   0  0  0  0  0  0  0  0  0  0  0  0
  150.5358  144.2729  156.6982 H   0  0  0  0  0  0  0  0  0  0  0  0
  153.4962  141.4034  158.9338 H   0  0  0  0  0  0  0  0  0  0  0  0
  154.1048  141.4530  161.3342 H   0  0  0  0  0  0  0  0  0  0  0  0
  151.4511  144.7900  161.9485 H   0  0  0  0  0  0  0  0  0  0  0  0
  151.9001  140.3646  158.9313 H   0  0  0  0  0  0  0  0  0  0  0  0
  1  2  2  0  0  0  0
  2 19  1  0  0  0  0
  2  3  1  0  0  0  0
  3 21  1  0  0  0  0
  3  4  1  0  0  0  0
  4  5  2  0  0  0  0
  4  6  1  0  0  0  0
  6  7  1  0  0  0  0
  6 18  1  0  0  0  0
  7  8  1  0  0  0  0
  7 22  1  0  0  0  0
  7 23  1  0  0  0  0
  8  9  1  0  0  0  0
  8 10  1  0  0  0  0
  8 24  1  0  0  0  0
  9 25  1  0  0  0  0
 10 16  1  0  0  0  0
 10 11  2  0  0  0  0
 11 12  1  0  0  0  0
 11 26  1  0  0  0  0
 12 13  2  0  0  0  0
 12 27  1  0  0  0  0
 13 14  1  0  0  0  0
 13 15  1  0  0  0  0
 15 16  2  0  0  0  0
 15 28  1  0  0  0  0
 16 17  1  0  0  0  0
 18 19  2  0  0  0  0
 18 29  1  0  0  0  0
 19 20  1  0  0  0  0
M  END
> <s_m_source_file>
AV-unprocessed.smi

> <i_m_source_file_index>
711

> <i_lp_mmshare_version>
43012

> <i_f3d_flags>
0

> <s_epik_input>
Tz1jMVtuSF1jKD1PKW4oW2NIXWMxQ2wpW0NIMl1bQ0BIXShbT0hdKWMyW2NIXVtjSF1jKEYpW2NIXWMyRg==

> <s_epik_cmdline>
J2VwaWtfcHl0aG9uJywgJy1waCcsICc3LjAnLCAnLXRuJywgJzgnLCAnLW1hJywgJzIwMCcsICctbWV0YWxfYmluZGluZycsICctaW1hZScsICc8aW5maWxlLm1hZT4nLCAnLW9tYWUnLCAnPG91dGZpbGUubWFlPic=

> <r_lp_tautomer_probability>
0.999537

> <r_epik_Ionization_Penalty>
0.0292058

> <r_epik_Ionization_Penalty_Charging>
0.0292057

> <r_epik_Ionization_Penalty_Neutral>
9.07348e-08

> <r_epik_State_Penalty>
0.0240115

> <r_epik_Charging_Adjusted_Penalty>
0.0532172

> <i_epik_Tot_Q>
0

> <i_epik_Tot_abs_Q>
0

> <r_epik_Metal_State_Penalty>
2.21956

> <b_epik_Metal_Only>
0

> <s_lp_Force_Field>
OPLS_2005

> <r_lp_Energy>
13.2316

> <b_lp_Chiralities_Consistent>
1

> <s_lp_Variant>
AV-unprocessed.smi:711-2

> <Gold.Version>
5.8.1

> <Gold.Id.Protein>
6NUR|6NUR_protein|mol2

> <Gold.PLP.Fitness>
52.0561

> <Gold.PLP.PLP>
-46.5420

> <Gold.PLP.part.hbond>
-3.0000

> <Gold.PLP.part.metal>
0.0000

> <Gold.PLP.part.buried>
-6.8042

> <Gold.PLP.part.nonpolar>
-36.9057

> <Gold.PLP.part.repulsive>
0.2186

> <Gold.PLP.ligand.clash>
0.0000

> <Gold.PLP.ligand.torsion>
1.1644

> <Gold.PLP.Chemscore.Hbond>
2.6087

> <Gold.PLP.Chemscore.CHOScore>
0.0000

> <Gold.PLP.Chemscore.Metal>
0.0000

> <Gold.Chemscore.Hbonds>
donor molecule, donor type, donor heavy atom, donor atom, acceptor molecule, acceptor atom, score
      L1  H     9    25       P1  8028  1.00
      P1  H  7989  7998       L1     5  0.78
      P1  H 10752 10765       L1     1  0.81

> <Gold.PLP.Chemscore.Internal.Correction>
0.0166

> <Gold.Rescore>
     Score         DG    S(hbond)    S(metal)    S(lipo)     H(rot)  DE(clash)    DE(int)     intcor
     14.74     -17.11       1.96        0.00      95.28       2.37       0.17       2.20       ----

> <Gold.Chemscore.Fitness>
14.7432

> <Gold.Chemscore.DG>
-17.1073

> <Gold.Chemscore.ZeroCoef>
-5.4800

> <Gold.Chemscore.Hbond>
1.9566

> <Gold.Chemscore.Metal>
0.0000

> <Gold.Chemscore.Lipo>
95.2750

> <Gold.Chemscore.Internal_Hbond>
0.0000

> <Gold.Chemscore.DEClash>
0.1659

> <Gold.Chemscore.DEInternal>
2.1982

> <Gold.Chemscore.Rot>
2.3652

> <Gold.Chemscore.Internal.Correction>
   9.000000E+99

> <Gold.Chemscore.Hbonds>
donor molecule, donor type, donor heavy atom, donor atom, acceptor molecule, acceptor atom, score
      L1  H     9    25       P1  8028  0.97
      P1  H  7989  7998       L1     5  0.20
      P1  H 10752 10765       L1     1  0.74

> <Gold.Chemscore.Hbond.Weighted>
-6.5349

> <Gold.Chemscore.Metal.Weighted>
-0.0000

> <Gold.Chemscore.Lipo.Weighted>
-11.1472

> <Gold.Chemscore.Internal_Hbond.Weighted>
0.0000

> <Gold.Chemscore.DEClash.Weighted>
0.1659

> <Gold.Chemscore.DEInternal.Weighted>
2.1982

> <Gold.Chemscore.Rot.Weighted>
6.0548

> <Gold.Chemscore.Internal.Correction.Weighted>
   9.000000E+99

> <Gold.Protein.RotatedTorsions>
[ 6907 6896 6895 6894 ] final  -59.31 input  -60.11 | X-H torsion
[ 7974 7965 7964 7962 ] final -128.06 input  175.53 | X-H torsion
[ 8008 7997 7996 7995 ] final   70.84 input   59.86 | X-H torsion
[ 10167 10162 10161 10158 ] final  -77.94 input  -65.29 | X-H torsion
[ 10718 10713 10712 10709 ] final   15.35 input   66.30 | X-H torsion
[ 10763 10752 10751 10750 ] final -173.49 input  -60.55 | X-H torsion
[ 11005 11000 10999 10996 ] final  109.37 input  -57.11 | X-H torsion

> <Gold.Protein.ActiveResidues>
 VAL166  LYS551  ARG553  GLY616  TRP617  ASP618  TYR619  PRO620  LYS621  CYS622 
 ASP623  PHE694  ASN695  SER759  ASP760  ASP761  ALA762  ILE779  LEU786  VAL792 
 PHE793  MET794  SER795  GLU796  ALA797  LYS798  CYS799  TRP800  GLU811  SER814 

> <Gold.Protein.RotatedAtoms>
  150.7940  134.6985  159.6536 H   0  0  0  0  0  0  0  0  0  0  0  0  # atno 6907 bound_to 6896
  152.4049  134.6220  160.0063 H   0  0  0  0  0  0  0  0  0  0  0  0  # atno 6908 bound_to 6896
  151.6480  133.3285  159.3181 H   0  0  0  0  0  0  0  0  0  0  0  0  # atno 6909 bound_to 6896
  144.9709  140.7544  143.4671 H   0  0  0  0  0  0  0  0  0  0  0  0  # atno 7974 bound_to 7965
  155.7449  140.3489  155.5122 H   0  0  0  0  0  0  0  0  0  0  0  0  # atno 8008 bound_to 7997
  155.9060  140.1042  157.1336 H   0  0  0  0  0  0  0  0  0  0  0  0  # atno 8009 bound_to 7997
  154.4049  140.1277  156.4483 H   0  0  0  0  0  0  0  0  0  0  0  0  # atno 8010 bound_to 7997
  140.4726  143.2422  151.8181 H   0  0  0  0  0  0  0  0  0  0  0  0  # atno 10167 bound_to 10162
  157.0523  130.6275  149.5770 H   0  0  0  0  0  0  0  0  0  0  0  0  # atno 10718 bound_to 10713
  154.6072  135.2860  155.0471 H   0  0  0  0  0  0  0  0  0  0  0  0  # atno 10763 bound_to 10752
  154.1715  135.6472  153.5014 H   0  0  0  0  0  0  0  0  0  0  0  0  # atno 10764 bound_to 10752
  153.0180  135.5402  154.6812 H   0  0  0  0  0  0  0  0  0  0  0  0  # atno 10765 bound_to 10752
  139.8861  134.9456  156.6115 H   0  0  0  0  0  0  0  0  0  0  0  0  # atno 11005 bound_to 11000
  145.2561  139.2011  143.4917 LP  0  0  0  0  0  0  0  0  0  0  0  0  # atno 17320 bound_to 7965
  146.3381  140.2483  142.8598 LP  0  0  0  0  0  0  0  0  0  0  0  0  # atno 17321 bound_to 7965
  139.4821  144.4872  151.9231 LP  0  0  0  0  0  0  0  0  0  0  0  0  # atno 17342 bound_to 10162
  140.3958  144.2557  150.5896 LP  0  0  0  0  0  0  0  0  0  0  0  0  # atno 17343 bound_to 10162
  156.0004  130.5082  150.7641 LP  0  0  0  0  0  0  0  0  0  0  0  0  # atno 17370 bound_to 10713
  157.5021  131.0919  151.0302 LP  0  0  0  0  0  0  0  0  0  0  0  0  # atno 17371 bound_to 10713
  140.7808  133.8662  155.8566 LP  0  0  0  0  0  0  0  0  0  0  0  0  # atno 17394 bound_to 11000
  140.9762  134.1466  157.4534 LP  0  0  0  0  0  0  0  0  0  0  0  0  # atno 17395 bound_to 11000

$$$$
