AV-unprocessed.smi:1005|AV-procd|sdf|4372|dock1
  -GOLD-   22720 2283D 1   1.00000     0.00000
 Structure written by MMmdl.
 57 59  0  0  0  0  0  0  0  0  3 V2000
  153.2857  142.9085  161.2572 C   0  0  0  0  0  0  0  0  0  0  0  0
  152.5827  142.6375  159.9387 C   0  0  0  0  0  0  0  0  0  0  0  0
  152.8182  141.4131  159.2733 C   0  0  0  0  0  0  0  0  0  0  0  0
  152.1871  141.1241  158.0437 C   0  0  0  0  0  0  0  0  0  0  0  0
  152.2765  140.0101  157.2267 N   0  0  0  0  0  0  0  0  0  0  0  0
  151.4595  140.3406  156.2310 C   0  0  0  0  0  0  0  0  0  0  0  0
  150.8518  141.5404  156.3042 N   0  0  0  0  0  0  0  0  0  0  0  0
  149.9286  142.1116  155.3394 C   0  0  0  0  0  0  0  0  0  0  0  0
  149.0445  141.0444  154.6652 C   0  0  2  0  0  0  0  0  0  0  0  0
  149.7549  140.4511  153.5948 O   0  0  0  0  0  0  0  0  0  0  0  0
  147.7396  141.6528  154.1131 C   0  0  0  0  0  0  0  0  0  0  0  0
  147.1064  142.6124  155.0540 N   0  3  2  0  0  0  0  0  0  0  0  0
  146.9149  142.0372  156.4061 C   0  0  0  0  0  0  0  0  0  0  0  0
  146.3261  143.0908  157.3580 C   0  0  0  0  0  0  0  0  0  0  0  0
  145.1067  143.5902  156.8212 O   0  0  0  0  0  0  0  0  0  0  0  0
  145.2898  144.2319  155.5631 C   0  0  2  0  0  0  0  0  0  0  0  0
  143.9312  144.8016  155.1125 C   0  0  0  0  0  0  0  0  0  0  0  0
  143.5874  146.0808  155.7856 N   0  3  0  0  0  0  0  0  0  0  0  0
  143.9307  146.1003  157.2269 C   0  0  0  0  0  0  0  0  0  0  0  0
  144.1566  147.2502  155.0799 C   0  0  0  0  0  0  0  0  0  0  0  0
  145.8350  143.1961  154.5589 C   0  0  0  0  0  0  0  0  0  0  0  0
  151.3033  142.0993  157.4955 C   0  0  0  0  0  0  0  0  0  0  0  0
  151.0585  143.3197  158.1496 C   0  0  0  0  0  0  0  0  0  0  0  0
  151.7020  143.5951  159.3742 C   0  0  0  0  0  0  0  0  0  0  0  0
  151.4397  144.9209  160.0664 C   0  0  0  0  0  0  0  0  0  0  0  0
  153.8964  142.0593  161.5648 H   0  0  0  0  0  0  0  0  0  0  0  0
  152.5588  143.1003  162.0466 H   0  0  0  0  0  0  0  0  0  0  0  0
  153.9397  143.7764  161.1694 H   0  0  0  0  0  0  0  0  0  0  0  0
  153.4902  140.6843  159.7021 H   0  0  0  0  0  0  0  0  0  0  0  0
  151.2949  139.6727  155.3979 H   0  0  0  0  0  0  0  0  0  0  0  0
  149.3055  142.8425  155.8567 H   0  0  0  0  0  0  0  0  0  0  0  0
  150.5019  142.6653  154.5946 H   0  0  0  0  0  0  0  0  0  0  0  0
  148.8223  140.2695  155.3983 H   0  0  0  0  0  0  0  0  0  0  0  0
  149.1606  139.8973  153.1101 H   0  0  0  0  0  0  0  0  0  0  0  0
  147.9213  142.1477  153.1579 H   0  0  0  0  0  0  0  0  0  0  0  0
  147.0420  140.8391  153.9072 H   0  0  0  0  0  0  0  0  0  0  0  0
  146.2508  141.1733  156.3458 H   0  0  0  0  0  0  0  0  0  0  0  0
  147.8688  141.6828  156.7987 H   0  0  0  0  0  0  0  0  0  0  0  0
  146.1276  142.6456  158.3331 H   0  0  0  0  0  0  0  0  0  0  0  0
  147.0300  143.9092  157.5185 H   0  0  0  0  0  0  0  0  0  0  0  0
  146.0181  145.0370  155.6655 H   0  0  0  0  0  0  0  0  0  0  0  0
  143.9175  144.9508  154.0318 H   0  0  0  0  0  0  0  0  0  0  0  0
  143.1610  144.0590  155.3280 H   0  0  0  0  0  0  0  0  0  0  0  0
  145.0022  145.9612  157.3759 H   0  0  0  0  0  0  0  0  0  0  0  0
  143.4050  145.3211  157.7771 H   0  0  0  0  0  0  0  0  0  0  0  0
  143.6492  147.0540  157.6748 H   0  0  0  0  0  0  0  0  0  0  0  0
  145.2470  147.2190  155.0863 H   0  0  0  0  0  0  0  0  0  0  0  0
  143.8384  148.1798  155.5533 H   0  0  0  0  0  0  0  0  0  0  0  0
  143.8205  147.2796  154.0428 H   0  0  0  0  0  0  0  0  0  0  0  0
  145.9904  143.6806  153.5958 H   0  0  0  0  0  0  0  0  0  0  0  0
  145.1053  142.3998  154.4021 H   0  0  0  0  0  0  0  0  0  0  0  0
  150.3850  144.0401  157.7094 H   0  0  0  0  0  0  0  0  0  0  0  0
  150.7824  145.5567  159.4723 H   0  0  0  0  0  0  0  0  0  0  0  0
  152.3730  145.4622  160.2232 H   0  0  0  0  0  0  0  0  0  0  0  0
  150.9656  144.7589  161.0346 H   0  0  0  0  0  0  0  0  0  0  0  0
  142.5839  146.1809  155.7197 H   0  0  0  0  0  0  0  0  0  0  0  0
  147.7640  143.3725  155.1599 H   0  0  0  0  0  0  0  0  0  0  0  0
  1  2  1  0  0  0  0
  1 26  1  0  0  0  0
  1 27  1  0  0  0  0
  1 28  1  0  0  0  0
  2 24  1  0  0  0  0
  2  3  2  0  0  0  0
  3  4  1  0  0  0  0
  3 29  1  0  0  0  0
  4 22  2  0  0  0  0
  4  5  1  0  0  0  0
  5  6  2  0  0  0  0
  6  7  1  0  0  0  0
  6 30  1  0  0  0  0
  7  8  1  0  0  0  0
  7 22  1  0  0  0  0
  8  9  1  0  0  0  0
  8 31  1  0  0  0  0
  8 32  1  0  0  0  0
  9 10  1  0  0  0  0
  9 11  1  0  0  0  0
  9 33  1  0  0  0  0
 10 34  1  0  0  0  0
 11 12  1  0  0  0  0
 11 35  1  0  0  0  0
 11 36  1  0  0  0  0
 12 21  1  0  0  0  0
 12 13  1  0  0  0  0
 12 57  1  0  0  0  0
 13 14  1  0  0  0  0
 13 37  1  0  0  0  0
 13 38  1  0  0  0  0
 14 15  1  0  0  0  0
 14 39  1  0  0  0  0
 14 40  1  0  0  0  0
 15 16  1  0  0  0  0
 16 17  1  0  0  0  0
 16 21  1  0  0  0  0
 16 41  1  0  0  0  0
 17 18  1  0  0  0  0
 17 42  1  0  0  0  0
 17 43  1  0  0  0  0
 18 19  1  0  0  0  0
 18 20  1  0  0  0  0
 18 56  1  0  0  0  0
 19 44  1  0  0  0  0
 19 45  1  0  0  0  0
 19 46  1  0  0  0  0
 20 47  1  0  0  0  0
 20 48  1  0  0  0  0
 20 49  1  0  0  0  0
 21 50  1  0  0  0  0
 21 51  1  0  0  0  0
 22 23  1  0  0  0  0
 23 24  2  0  0  0  0
 23 52  1  0  0  0  0
 24 25  1  0  0  0  0
 25 53  1  0  0  0  0
 25 54  1  0  0  0  0
 25 55  1  0  0  0  0
M  CHG  1  12   1
M  CHG  1  18   1
M  END
> <s_m_source_file>
AV-unprocessed.smi

> <i_m_source_file_index>
1005

> <i_lp_mmshare_version>
43012

> <i_f3d_flags>
0

> <s_epik_input>
W0NIM11jKFtjSF0xKWMoW0NIM10pW2NIXWMoYzEyKW4oW2NIXW4yKVtDSDJdW0NASF0oW09IXSlbQ0gyXU4zW0NIMl1bQ0gyXU9bQ0BIXShbQ0gyXTMpW0NIMl1OKFtDSDNdKVtDSDNd

> <s_epik_cmdline>
J2VwaWtfcHl0aG9uJywgJy1waCcsICc3LjAnLCAnLXRuJywgJzgnLCAnLW1hJywgJzIwMCcsICctbWV0YWxfYmluZGluZycsICctaW1hZScsICc8aW5maWxlLm1hZT4nLCAnLW9tYWUnLCAnPG91dGZpbGUubWFlPic=

> <r_epik_Ionization_Penalty>
1.0968

> <r_epik_Ionization_Penalty_Charging>
1.0096

> <r_epik_Ionization_Penalty_Neutral>
0.0871956

> <r_epik_State_Penalty>
1.31185

> <r_epik_Charging_Adjusted_Penalty>
2.32145

> <i_epik_Tot_Q>
2

> <i_epik_Tot_abs_Q>
2

> <r_epik_Metal_State_Penalty>
1.22442

> <b_epik_Metal_Only>
0

> <s_lp_Force_Field>
OPLS_2005

> <r_lp_Energy>
33.8105

> <b_lp_Chiralities_Consistent>
1

> <s_lp_Variant>
AV-unprocessed.smi:1005-11

> <Gold.Version>
5.8.1

> <Gold.Id.Protein>
6NUR|6NUR_protein|mol2

> <Gold.PLP.Fitness>
62.8907

> <Gold.PLP.PLP>
-50.3488

> <Gold.PLP.part.hbond>
-4.1594

> <Gold.PLP.part.metal>
0.0000

> <Gold.PLP.part.buried>
-3.4177

> <Gold.PLP.part.nonpolar>
-41.5670

> <Gold.PLP.part.repulsive>
0.1657

> <Gold.PLP.ligand.clash>
0.0000

> <Gold.PLP.ligand.torsion>
1.1476

> <Gold.PLP.Chemscore.Hbond>
4.7360

> <Gold.PLP.Chemscore.CHOScore>
0.0000

> <Gold.PLP.Chemscore.Metal>
0.0000

> <Gold.Chemscore.Hbonds>
donor molecule, donor type, donor heavy atom, donor atom, acceptor molecule, acceptor atom, score
      L1  H    10    34       P1  7957  0.18
      L1  H    12    57       P1  8028  2.00
      P1  H  7989  7998       L1    10  0.53
      P1  H  7997  8008       L1     5  0.55
      P1  H  8011  8017       L1    10  0.18

> <Gold.PLP.Chemscore.Internal.Correction>
0.6291

> <Gold.Rescore>
     Score         DG    S(hbond)    S(metal)    S(lipo)     H(rot)  DE(clash)    DE(int)     intcor
     17.31     -21.09       2.04        0.00     129.53       2.48       1.25       2.53       ----

> <Gold.Chemscore.Fitness>
17.3143

> <Gold.Chemscore.DG>
-21.0937

> <Gold.Chemscore.ZeroCoef>
-5.4800

> <Gold.Chemscore.Hbond>
2.0394

> <Gold.Chemscore.Metal>
0.0000

> <Gold.Chemscore.Lipo>
129.5253

> <Gold.Chemscore.Internal_Hbond>
0.0000

> <Gold.Chemscore.DEClash>
1.2538

> <Gold.Chemscore.DEInternal>
2.5256

> <Gold.Chemscore.Rot>
2.4814

> <Gold.Chemscore.Internal.Correction>
   9.000000E+99

> <Gold.Chemscore.Hbonds>
donor molecule, donor type, donor heavy atom, donor atom, acceptor molecule, acceptor atom, score
      L1  H    10    34       P1  7957  0.18
      L1  H    12    57       P1  8028  0.45
      P1  H  7989  7998       L1    10  0.49
      P1  H  7997  8008       L1     5  0.13
      P1  H  8011  8017       L1    10  0.01

> <Gold.Chemscore.Hbond.Weighted>
-6.8116

> <Gold.Chemscore.Metal.Weighted>
-0.0000

> <Gold.Chemscore.Lipo.Weighted>
-15.1545

> <Gold.Chemscore.Internal_Hbond.Weighted>
0.0000

> <Gold.Chemscore.DEClash.Weighted>
1.2538

> <Gold.Chemscore.DEInternal.Weighted>
2.5256

> <Gold.Chemscore.Rot.Weighted>
6.3524

> <Gold.Chemscore.Internal.Correction.Weighted>
   9.000000E+99

> <Gold.Protein.RotatedTorsions>
[ 6907 6896 6895 6894 ] final   38.68 input  -60.11 | X-H torsion
[ 7974 7965 7964 7962 ] final -155.06 input  175.53 | X-H torsion
[ 8008 7997 7996 7995 ] final  -47.40 input   59.86 | X-H torsion
[ 10167 10162 10161 10158 ] final -114.52 input  -65.29 | X-H torsion
[ 10718 10713 10712 10709 ] final  111.89 input   66.30 | X-H torsion
[ 10763 10752 10751 10750 ] final -172.29 input  -60.55 | X-H torsion
[ 11005 11000 10999 10996 ] final  160.59 input  -57.11 | X-H torsion

> <Gold.Protein.ActiveResidues>
 VAL166  LYS551  ARG553  GLY616  TRP617  ASP618  TYR619  PRO620  LYS621  CYS622 
 ASP623  PHE694  ASN695  SER759  ASP760  ASP761  ALA762  ILE779  LEU786  VAL792 
 PHE793  MET794  SER795  GLU796  ALA797  LYS798  CYS799  TRP800  GLU811  SER814 

> <Gold.Protein.RotatedAtoms>
  152.1596  134.8923  160.0542 H   0  0  0  0  0  0  0  0  0  0  0  0  # atno 6907 bound_to 6896
  151.9923  133.3790  159.4157 H   0  0  0  0  0  0  0  0  0  0  0  0  # atno 6908 bound_to 6896
  150.6886  134.3845  159.5093 H   0  0  0  0  0  0  0  0  0  0  0  0  # atno 6909 bound_to 6896
  144.7659  140.4302  143.5943 H   0  0  0  0  0  0  0  0  0  0  0  0  # atno 7974 bound_to 7965
  154.4016  140.1347  156.4169 H   0  0  0  0  0  0  0  0  0  0  0  0  # atno 8008 bound_to 7997
  155.7680  140.3484  155.5212 H   0  0  0  0  0  0  0  0  0  0  0  0  # atno 8009 bound_to 7997
  155.8795  140.0985  157.1485 H   0  0  0  0  0  0  0  0  0  0  0  0  # atno 8010 bound_to 7997
  140.1000  143.4621  152.1818 H   0  0  0  0  0  0  0  0  0  0  0  0  # atno 10167 bound_to 10162
  157.6421  131.0958  150.6814 H   0  0  0  0  0  0  0  0  0  0  0  0  # atno 10718 bound_to 10713
  154.6209  135.2875  155.0327 H   0  0  0  0  0  0  0  0  0  0  0  0  # atno 10763 bound_to 10752
  154.1522  135.6501  153.4970 H   0  0  0  0  0  0  0  0  0  0  0  0  # atno 10764 bound_to 10752
  153.0235  135.5358  154.6998 H   0  0  0  0  0  0  0  0  0  0  0  0  # atno 10765 bound_to 10752
  140.2075  134.8292  157.3084 H   0  0  0  0  0  0  0  0  0  0  0  0  # atno 11005 bound_to 11000
  145.6473  139.1559  143.2882 LP  0  0  0  0  0  0  0  0  0  0  0  0  # atno 17320 bound_to 7965
  146.1765  140.6565  142.9209 LP  0  0  0  0  0  0  0  0  0  0  0  0  # atno 17321 bound_to 7965
  139.5676  144.7444  151.3978 LP  0  0  0  0  0  0  0  0  0  0  0  0  # atno 17342 bound_to 10162
  140.6983  143.7695  150.7361 LP  0  0  0  0  0  0  0  0  0  0  0  0  # atno 17343 bound_to 10162
  156.7137  130.4659  149.5541 LP  0  0  0  0  0  0  0  0  0  0  0  0  # atno 17370 bound_to 10713
  156.1713  130.6438  151.0840 LP  0  0  0  0  0  0  0  0  0  0  0  0  # atno 17371 bound_to 10713
  140.1987  134.4281  155.7674 LP  0  0  0  0  0  0  0  0  0  0  0  0  # atno 17394 bound_to 11000
  141.2227  133.7061  156.8148 LP  0  0  0  0  0  0  0  0  0  0  0  0  # atno 17395 bound_to 11000

$$$$
