AV-unprocessed.smi:1487|AV-procd|sdf|6013|dock3
  -GOLD-   22720 6113D 1   1.00000     0.00000
 Structure written by MMmdl.
 48 50  0  0  0  0  0  0  0  0  2 V2000
  152.6779  143.1853  160.7880 C   0  0  0  0  0  0  0  0  0  0  0  0
  152.1032  142.5482  159.5347 C   0  0  0  0  0  0  0  0  0  0  0  0
  152.6300  141.3157  159.0868 C   0  0  0  0  0  0  0  0  0  0  0  0
  152.1233  140.6905  157.9268 C   0  0  0  0  0  0  0  0  0  0  0  0
  152.4794  139.4984  157.3194 N   0  0  0  0  0  0  0  0  0  0  0  0
  151.6477  139.4663  156.2823 C   0  0  0  0  0  0  0  0  0  0  0  0
  150.7885  140.4948  156.1494 N   0  0  0  0  0  0  0  0  0  0  0  0
  149.7947  140.6708  155.1061 C   0  0  0  0  0  0  0  0  0  0  0  0
  149.2587  139.3320  154.5613 C   0  0  2  0  0  0  0  0  0  0  0  0
  150.2268  138.8292  153.6619 O   0  0  0  0  0  0  0  0  0  0  0  0
  147.9030  139.4694  153.8301 C   0  0  0  0  0  0  0  0  0  0  0  0
  147.3323  138.1667  153.3992 N   0  3  2  0  0  0  0  0  0  0  0  0
  146.2952  138.3333  152.3472 C   0  0  0  0  0  0  0  0  0  0  0  0
  145.8250  136.9722  151.8073 C   0  0  0  0  0  0  0  0  0  0  0  0
  145.3076  136.0799  152.9427 C   0  0  0  0  0  0  0  0  0  0  0  0
  146.3824  135.9470  154.0314 C   0  0  2  0  0  0  0  0  0  0  0  0
  145.8628  135.2020  155.1121 O   0  0  0  0  0  0  0  0  0  0  0  0
  146.8355  137.3330  154.5273 C   0  0  0  0  0  0  0  0  0  0  0  0
  151.0693  141.3387  157.2190 C   0  0  0  0  0  0  0  0  0  0  0  0
  150.5377  142.5658  157.6538 C   0  0  0  0  0  0  0  0  0  0  0  0
  151.0530  143.1750  158.8170 C   0  0  0  0  0  0  0  0  0  0  0  0
  150.4698  144.4981  159.2807 C   0  0  0  0  0  0  0  0  0  0  0  0
  153.4688  142.5720  161.2205 H   0  0  0  0  0  0  0  0  0  0  0  0
  151.9027  143.3114  161.5440 H   0  0  0  0  0  0  0  0  0  0  0  0
  153.1016  144.1633  160.5592 H   0  0  0  0  0  0  0  0  0  0  0  0
  153.4306  140.8383  159.6329 H   0  0  0  0  0  0  0  0  0  0  0  0
  151.6610  138.6459  155.5796 H   0  0  0  0  0  0  0  0  0  0  0  0
  148.9788  141.2768  155.5023 H   0  0  0  0  0  0  0  0  0  0  0  0
  150.2478  141.2518  154.3013 H   0  0  0  0  0  0  0  0  0  0  0  0
  149.1779  138.6350  155.3947 H   0  0  0  0  0  0  0  0  0  0  0  0
  149.9180  138.9507  152.7773 H   0  0  0  0  0  0  0  0  0  0  0  0
  147.1697  139.9777  154.4572 H   0  0  0  0  0  0  0  0  0  0  0  0
  148.0507  140.1080  152.9578 H   0  0  0  0  0  0  0  0  0  0  0  0
  145.4495  138.8912  152.7528 H   0  0  0  0  0  0  0  0  0  0  0  0
  146.6971  138.9226  151.5220 H   0  0  0  0  0  0  0  0  0  0  0  0
  145.0426  137.1167  151.0615 H   0  0  0  0  0  0  0  0  0  0  0  0
  146.6508  136.4750  151.2965 H   0  0  0  0  0  0  0  0  0  0  0  0
  144.3991  136.5139  153.3631 H   0  0  0  0  0  0  0  0  0  0  0  0
  145.0349  135.0981  152.5535 H   0  0  0  0  0  0  0  0  0  0  0  0
  147.2399  135.4049  153.6306 H   0  0  0  0  0  0  0  0  0  0  0  0
  145.1539  134.6614  154.7979 H   0  0  0  0  0  0  0  0  0  0  0  0
  147.6162  137.2022  155.2756 H   0  0  0  0  0  0  0  0  0  0  0  0
  146.0093  137.8483  155.0202 H   0  0  0  0  0  0  0  0  0  0  0  0
  149.7391  143.0340  157.0978 H   0  0  0  0  0  0  0  0  0  0  0  0
  149.6744  144.8373  158.6168 H   0  0  0  0  0  0  0  0  0  0  0  0
  151.2403  145.2691  159.3009 H   0  0  0  0  0  0  0  0  0  0  0  0
  150.0505  144.4003  160.2824 H   0  0  0  0  0  0  0  0  0  0  0  0
  148.0882  137.6570  152.9652 H   0  0  0  0  0  0  0  0  0  0  0  0
  1  2  1  0  0  0  0
  1 23  1  0  0  0  0
  1 24  1  0  0  0  0
  1 25  1  0  0  0  0
  2 21  1  0  0  0  0
  2  3  2  0  0  0  0
  3  4  1  0  0  0  0
  3 26  1  0  0  0  0
  4 19  2  0  0  0  0
  4  5  1  0  0  0  0
  5  6  2  0  0  0  0
  6  7  1  0  0  0  0
  6 27  1  0  0  0  0
  7  8  1  0  0  0  0
  7 19  1  0  0  0  0
  8  9  1  0  0  0  0
  8 28  1  0  0  0  0
  8 29  1  0  0  0  0
  9 10  1  0  0  0  0
  9 11  1  0  0  0  0
  9 30  1  0  0  0  0
 10 31  1  0  0  0  0
 11 12  1  0  0  0  0
 11 32  1  0  0  0  0
 11 33  1  0  0  0  0
 12 18  1  0  0  0  0
 12 13  1  0  0  0  0
 12 48  1  0  0  0  0
 13 14  1  0  0  0  0
 13 34  1  0  0  0  0
 13 35  1  0  0  0  0
 14 15  1  0  0  0  0
 14 36  1  0  0  0  0
 14 37  1  0  0  0  0
 15 16  1  0  0  0  0
 15 38  1  0  0  0  0
 15 39  1  0  0  0  0
 16 17  1  0  0  0  0
 16 18  1  0  0  0  0
 16 40  1  0  0  0  0
 17 41  1  0  0  0  0
 18 42  1  0  0  0  0
 18 43  1  0  0  0  0
 19 20  1  0  0  0  0
 20 21  2  0  0  0  0
 20 44  1  0  0  0  0
 21 22  1  0  0  0  0
 22 45  1  0  0  0  0
 22 46  1  0  0  0  0
 22 47  1  0  0  0  0
M  CHG  1  12   1
M  END
> <s_m_source_file>
AV-unprocessed.smi

> <i_m_source_file_index>
1487

> <i_lp_mmshare_version>
43012

> <i_f3d_flags>
0

> <s_epik_input>
W0NIM11jKFtjSF0xKWMoW0NIM10pW2NIXWMoYzEyKW4oW2NIXW4yKVtDSDJdW0NASF0oW09IXSlbQ0gyXU4zW0NIMl1bQ0gyXVtDSDJdW0NAQEhdKFtPSF0pW0NIMl0z

> <s_epik_cmdline>
J2VwaWtfcHl0aG9uJywgJy1waCcsICc3LjAnLCAnLXRuJywgJzgnLCAnLW1hJywgJzIwMCcsICctbWV0YWxfYmluZGluZycsICctaW1hZScsICc8aW5maWxlLm1hZT4nLCAnLW9tYWUnLCAnPG91dGZpbGUubWFlPic=

> <r_epik_Ionization_Penalty>
0.0940186

> <r_epik_Ionization_Penalty_Charging>
0.00679686

> <r_epik_Ionization_Penalty_Neutral>
0.0872218

> <r_epik_State_Penalty>
0.0799311

> <r_epik_Charging_Adjusted_Penalty>
0.086728

> <i_epik_Tot_Q>
1

> <i_epik_Tot_abs_Q>
1

> <r_epik_Metal_State_Penalty>
7.95545e-05

> <b_epik_Metal_Only>
0

> <s_lp_Force_Field>
OPLS_2005

> <r_lp_Energy>
23.9156

> <b_lp_Chiralities_Consistent>
1

> <s_lp_Variant>
AV-unprocessed.smi:1487-7

> <Gold.Version>
5.8.1

> <Gold.Id.Protein>
6NUR|6NUR_protein|mol2

> <Gold.PLP.Fitness>
50.0485

> <Gold.PLP.PLP>
-38.9072

> <Gold.PLP.part.hbond>
-3.5154

> <Gold.PLP.part.metal>
0.0000

> <Gold.PLP.part.buried>
0.9783

> <Gold.PLP.part.nonpolar>
-36.3034

> <Gold.PLP.part.repulsive>
0.0287

> <Gold.PLP.ligand.clash>
0.0000

> <Gold.PLP.ligand.torsion>
0.6716

> <Gold.PLP.Chemscore.Hbond>
4.1451

> <Gold.PLP.Chemscore.CHOScore>
0.0000

> <Gold.PLP.Chemscore.Metal>
0.0000

> <Gold.Chemscore.Hbonds>
donor molecule, donor type, donor heavy atom, donor atom, acceptor molecule, acceptor atom, score
      L1  H    10    31       P1  7957  1.00
      L1  H    12    48       P1  7948  2.00
      P1  H  7997  8010       L1     5  0.71

> <Gold.PLP.Chemscore.Internal.Correction>
0.0491

> <Gold.Rescore>
     Score         DG    S(hbond)    S(metal)    S(lipo)     H(rot)  DE(clash)    DE(int)     intcor
     17.10     -18.77       1.93        0.00     116.93       2.67       0.47       1.20       ----

> <Gold.Chemscore.Fitness>
17.0988

> <Gold.Chemscore.DG>
-18.7673

> <Gold.Chemscore.ZeroCoef>
-5.4800

> <Gold.Chemscore.Hbond>
1.9297

> <Gold.Chemscore.Metal>
0.0000

> <Gold.Chemscore.Lipo>
116.9261

> <Gold.Chemscore.Internal_Hbond>
0.0000

> <Gold.Chemscore.DEClash>
0.4722

> <Gold.Chemscore.DEInternal>
1.1963

> <Gold.Chemscore.Rot>
2.6712

> <Gold.Chemscore.Internal.Correction>
   9.000000E+99

> <Gold.Chemscore.Hbonds>
donor molecule, donor type, donor heavy atom, donor atom, acceptor molecule, acceptor atom, score
      L1  H    10    31       P1  7957  0.75
      L1  H    12    48       P1  7948  0.96
      P1  H  7997  8010       L1     5  0.08

> <Gold.Chemscore.Hbond.Weighted>
-6.4452

> <Gold.Chemscore.Metal.Weighted>
-0.0000

> <Gold.Chemscore.Lipo.Weighted>
-13.6804

> <Gold.Chemscore.Internal_Hbond.Weighted>
0.0000

> <Gold.Chemscore.DEClash.Weighted>
0.4722

> <Gold.Chemscore.DEInternal.Weighted>
1.1963

> <Gold.Chemscore.Rot.Weighted>
6.8383

> <Gold.Chemscore.Internal.Correction.Weighted>
   9.000000E+99

> <Gold.Protein.RotatedTorsions>
[ 6907 6896 6895 6894 ] final -107.63 input  -60.11 | X-H torsion
[ 7974 7965 7964 7962 ] final -129.66 input  175.53 | X-H torsion
[ 8008 7997 7996 7995 ] final   69.99 input   59.86 | X-H torsion
[ 10167 10162 10161 10158 ] final -149.57 input  -65.29 | X-H torsion
[ 10718 10713 10712 10709 ] final  142.32 input   66.30 | X-H torsion
[ 10763 10752 10751 10750 ] final -178.74 input  -60.55 | X-H torsion
[ 11005 11000 10999 10996 ] final   12.04 input  -57.11 | X-H torsion

> <Gold.Protein.ActiveResidues>
 VAL166  LYS551  ARG553  GLY616  TRP617  ASP618  TYR619  PRO620  LYS621  CYS622 
 ASP623  PHE694  ASN695  SER759  ASP760  ASP761  ALA762  ILE779  LEU786  VAL792 
 PHE793  MET794  SER795  GLU796  ALA797  LYS798  CYS799  TRP800  GLU811  SER814 

> <Gold.Protein.RotatedAtoms>
  150.7455  133.9797  159.3572 H   0  0  0  0  0  0  0  0  0  0  0  0  # atno 6907 bound_to 6896
  151.7737  135.0777  160.0373 H   0  0  0  0  0  0  0  0  0  0  0  0  # atno 6908 bound_to 6896
  152.3321  133.5933  159.5853 H   0  0  0  0  0  0  0  0  0  0  0  0  # atno 6909 bound_to 6896
  144.9550  140.7386  143.4764 H   0  0  0  0  0  0  0  0  0  0  0  0  # atno 7974 bound_to 7965
  155.7320  140.3492  155.5064 H   0  0  0  0  0  0  0  0  0  0  0  0  # atno 8008 bound_to 7997
  155.9174  140.1061  157.1255 H   0  0  0  0  0  0  0  0  0  0  0  0  # atno 8009 bound_to 7997
  154.4064  140.1256  156.4622 H   0  0  0  0  0  0  0  0  0  0  0  0  # atno 8010 bound_to 7997
  139.7431  143.8632  152.2567 H   0  0  0  0  0  0  0  0  0  0  0  0  # atno 10167 bound_to 10162
  157.3819  131.0993  151.0730 H   0  0  0  0  0  0  0  0  0  0  0  0  # atno 10718 bound_to 10713
  154.5439  135.2808  155.1070 H   0  0  0  0  0  0  0  0  0  0  0  0  # atno 10763 bound_to 10752
  154.2542  135.6334  153.5255 H   0  0  0  0  0  0  0  0  0  0  0  0  # atno 10764 bound_to 10752
  152.9986  135.5590  154.5986 H   0  0  0  0  0  0  0  0  0  0  0  0  # atno 10765 bound_to 10752
  140.4965  134.0788  155.7783 H   0  0  0  0  0  0  0  0  0  0  0  0  # atno 11005 bound_to 11000
  145.2786  139.1927  143.4803 LP  0  0  0  0  0  0  0  0  0  0  0  0  # atno 17320 bound_to 7965
  146.3334  140.2744  142.8607 LP  0  0  0  0  0  0  0  0  0  0  0  0  # atno 17321 bound_to 7965
  139.8588  144.7127  150.9124 LP  0  0  0  0  0  0  0  0  0  0  0  0  # atno 17342 bound_to 10162
  140.7788  143.3835  151.1435 LP  0  0  0  0  0  0  0  0  0  0  0  0  # atno 17343 bound_to 10162
  157.1796  130.6303  149.5667 LP  0  0  0  0  0  0  0  0  0  0  0  0  # atno 17370 bound_to 10713
  155.9778  130.4758  150.6614 LP  0  0  0  0  0  0  0  0  0  0  0  0  # atno 17371 bound_to 10713
  141.1457  133.9058  157.2220 LP  0  0  0  0  0  0  0  0  0  0  0  0  # atno 17394 bound_to 11000
  139.9738  135.0120  156.9580 LP  0  0  0  0  0  0  0  0  0  0  0  0  # atno 17395 bound_to 11000

$$$$
