AV-unprocessed.smi:1427|AV-procd|sdf|5811|dock5
  -GOLD-   22720 5463D 1   1.00000     0.00000
 Structure written by MMmdl.
 33 34  0  0  0  0  0  0  0  0  1 V2000
  151.1053  140.7180  157.8559 C   0  0  0  0  0  0  0  0  0  0  0  0
  151.1699  142.0571  157.1092 C   0  0  2  0  0  0  0  0  0  0  0  0
  151.0353  143.2491  158.0794 C   0  0  0  0  0  0  0  0  0  0  0  0
  151.7872  143.0571  159.3074 N   0  0  0  0  0  0  0  0  0  0  0  0
  153.0319  142.4854  159.4675 C   0  0  0  0  0  0  0  0  0  0  0  0
  153.3337  142.5356  160.7981 C   0  0  0  0  0  0  0  0  0  0  0  0
  152.1957  143.1616  161.3793 C   0  0  0  0  0  0  0  0  0  0  0  0
  151.2703  143.4704  160.4851 N   0  0  0  0  0  0  0  0  0  0  0  0
  150.1122  142.0886  156.1003 N   0  0  0  0  0  0  0  0  0  0  0  0
  149.9596  141.2183  155.0862 C   0  0  0  0  0  0  0  0  0  0  0  0
  150.7176  140.2660  154.9034 O   0  0  0  0  0  0  0  0  0  0  0  0
  148.7962  141.4461  154.1039 C   0  0  1  0  0  0  0  0  0  0  0  0
  147.7994  140.2645  154.1137 C   0  0  0  0  0  0  0  0  0  0  0  0
  146.3970  140.8766  154.2369 C   0  0  0  0  0  0  0  0  0  0  0  0
  146.6735  142.3423  154.5164 C   0  0  0  0  0  0  0  0  0  0  0  0
  145.7946  143.1593  154.7805 O   0  0  0  0  0  0  0  0  0  0  0  0
  147.9761  142.6039  154.4321 N   0  0  0  0  0  0  0  0  0  0  0  0
  151.8931  140.6495  158.6066 H   0  0  0  0  0  0  0  0  0  0  0  0
  151.2317  139.8794  157.1704 H   0  0  0  0  0  0  0  0  0  0  0  0
  150.1488  140.5917  158.3648 H   0  0  0  0  0  0  0  0  0  0  0  0
  152.1478  142.1085  156.6270 H   0  0  0  0  0  0  0  0  0  0  0  0
  151.3584  144.1744  157.5989 H   0  0  0  0  0  0  0  0  0  0  0  0
  149.9892  143.3914  158.3524 H   0  0  0  0  0  0  0  0  0  0  0  0
  153.5943  142.1003  158.6296 H   0  0  0  0  0  0  0  0  0  0  0  0
  154.2315  142.1806  161.2822 H   0  0  0  0  0  0  0  0  0  0  0  0
  152.0152  143.3986  162.4175 H   0  0  0  0  0  0  0  0  0  0  0  0
  149.4433  142.8417  156.1718 H   0  0  0  0  0  0  0  0  0  0  0  0
  149.2014  141.5913  153.1016 H   0  0  0  0  0  0  0  0  0  0  0  0
  147.8901  139.6716  153.2028 H   0  0  0  0  0  0  0  0  0  0  0  0
  147.9746  139.5870  154.9516 H   0  0  0  0  0  0  0  0  0  0  0  0
  145.8342  140.7792  153.3079 H   0  0  0  0  0  0  0  0  0  0  0  0
  145.8220  140.4246  155.0457 H   0  0  0  0  0  0  0  0  0  0  0  0
  148.3742  143.5211  154.5738 H   0  0  0  0  0  0  0  0  0  0  0  0
  1  2  1  0  0  0  0
  1 18  1  0  0  0  0
  1 19  1  0  0  0  0
  1 20  1  0  0  0  0
  2  3  1  0  0  0  0
  2  9  1  0  0  0  0
  2 21  1  0  0  0  0
  3  4  1  0  0  0  0
  3 22  1  0  0  0  0
  3 23  1  0  0  0  0
  4  8  1  0  0  0  0
  4  5  1  0  0  0  0
  5  6  2  0  0  0  0
  5 24  1  0  0  0  0
  6  7  1  0  0  0  0
  6 25  1  0  0  0  0
  7  8  2  0  0  0  0
  7 26  1  0  0  0  0
  9 10  1  0  0  0  0
  9 27  1  0  0  0  0
 10 11  2  0  0  0  0
 10 12  1  0  0  0  0
 12 17  1  0  0  0  0
 12 13  1  0  0  0  0
 12 28  1  0  0  0  0
 13 14  1  0  0  0  0
 13 29  1  0  0  0  0
 13 30  1  0  0  0  0
 14 15  1  0  0  0  0
 14 31  1  0  0  0  0
 14 32  1  0  0  0  0
 15 16  2  0  0  0  0
 15 17  1  0  0  0  0
 17 33  1  0  0  0  0
M  END
> <s_m_source_file>
AV-unprocessed.smi

> <i_m_source_file_index>
1427

> <i_lp_mmshare_version>
43012

> <i_f3d_flags>
0

> <s_epik_input>
bjFbY0hdW2NIXVtjSF1uMVtDSDJdW0NAQEhdKFtDSDNdKVtOSF1DKD1PKVtDQEBIXTJbQ0gyXVtDSDJdQyg9TylbTkhdMg==

> <s_epik_cmdline>
J2VwaWtfcHl0aG9uJywgJy1waCcsICc3LjAnLCAnLXRuJywgJzgnLCAnLW1hJywgJzIwMCcsICctbWV0YWxfYmluZGluZycsICctaW1hZScsICc8aW5maWxlLm1hZT4nLCAnLW9tYWUnLCAnPG91dGZpbGUubWFlPic=

> <r_lp_tautomer_probability>
1

> <r_epik_Ionization_Penalty>
0.000310707

> <r_epik_Ionization_Penalty_Charging>
0

> <r_epik_Ionization_Penalty_Neutral>
0.000310707

> <r_epik_State_Penalty>
-0

> <r_epik_Charging_Adjusted_Penalty>
0

> <i_epik_Tot_Q>
0

> <i_epik_Tot_abs_Q>
0

> <r_epik_Metal_State_Penalty>
-0

> <b_epik_Metal_Only>
0

> <s_lp_Force_Field>
OPLS_2005

> <r_lp_Energy>
14.9883

> <b_lp_Chiralities_Consistent>
1

> <s_lp_Variant>
AV-unprocessed.smi:1427-3

> <Gold.Version>
5.8.1

> <Gold.Id.Protein>
6NUR|6NUR_protein|mol2

> <Gold.PLP.Fitness>
45.7416

> <Gold.PLP.PLP>
-37.7030

> <Gold.PLP.part.hbond>
-3.5977

> <Gold.PLP.part.metal>
0.0000

> <Gold.PLP.part.buried>
-3.9985

> <Gold.PLP.part.nonpolar>
-29.9754

> <Gold.PLP.part.repulsive>
0.6795

> <Gold.PLP.ligand.clash>
0.0000

> <Gold.PLP.ligand.torsion>
0.4655

> <Gold.PLP.Chemscore.Hbond>
2.9840

> <Gold.PLP.Chemscore.CHOScore>
0.0000

> <Gold.PLP.Chemscore.Metal>
0.0000

> <Gold.Chemscore.Hbonds>
donor molecule, donor type, donor heavy atom, donor atom, acceptor molecule, acceptor atom, score
      L1  H     9    27       P1  8028  0.98
      L1  H    17    33       P1  8028  0.99
      P1  H  7989  7998       L1    11  1.00

> <Gold.PLP.Chemscore.Internal.Correction>
0.0178

> <Gold.Rescore>
     Score         DG    S(hbond)    S(metal)    S(lipo)     H(rot)  DE(clash)    DE(int)     intcor
     16.23     -17.53       2.30        0.00      78.57       1.88       0.11       1.19       ----

> <Gold.Chemscore.Fitness>
16.2319

> <Gold.Chemscore.DG>
-17.5291

> <Gold.Chemscore.ZeroCoef>
-5.4800

> <Gold.Chemscore.Hbond>
2.2978

> <Gold.Chemscore.Metal>
0.0000

> <Gold.Chemscore.Lipo>
78.5672

> <Gold.Chemscore.Internal_Hbond>
0.0000

> <Gold.Chemscore.DEClash>
0.1067

> <Gold.Chemscore.DEInternal>
1.1906

> <Gold.Chemscore.Rot>
1.8821

> <Gold.Chemscore.Internal.Correction>
   9.000000E+99

> <Gold.Chemscore.Hbonds>
donor molecule, donor type, donor heavy atom, donor atom, acceptor molecule, acceptor atom, score
      L1  H     9    27       P1  8028  0.87
      L1  H    17    33       P1  8028  0.93
      P1  H  7989  7998       L1    11  0.25

> <Gold.Chemscore.Hbond.Weighted>
-7.6748

> <Gold.Chemscore.Metal.Weighted>
-0.0000

> <Gold.Chemscore.Lipo.Weighted>
-9.1924

> <Gold.Chemscore.Internal_Hbond.Weighted>
0.0000

> <Gold.Chemscore.DEClash.Weighted>
0.1067

> <Gold.Chemscore.DEInternal.Weighted>
1.1906

> <Gold.Chemscore.Rot.Weighted>
4.8181

> <Gold.Chemscore.Internal.Correction.Weighted>
   9.000000E+99

> <Gold.Protein.RotatedTorsions>
[ 6907 6896 6895 6894 ] final    0.43 input  -60.11 | X-H torsion
[ 7974 7965 7964 7962 ] final   48.98 input  175.53 | X-H torsion
[ 8008 7997 7996 7995 ] final  117.70 input   59.86 | X-H torsion
[ 10167 10162 10161 10158 ] final   41.64 input  -65.29 | X-H torsion
[ 10718 10713 10712 10709 ] final -162.49 input   66.30 | X-H torsion
[ 10763 10752 10751 10750 ] final   63.77 input  -60.55 | X-H torsion
[ 11005 11000 10999 10996 ] final  -87.41 input  -57.11 | X-H torsion

> <Gold.Protein.ActiveResidues>
 VAL166  LYS551  ARG553  GLY616  TRP617  ASP618  TYR619  PRO620  LYS621  CYS622 
 ASP623  PHE694  ASN695  SER759  ASP760  ASP761  ALA762  ILE779  LEU786  VAL792 
 PHE793  MET794  SER795  GLU796  ALA797  LYS798  CYS799  TRP800  GLU811  SER814 

> <Gold.Protein.RotatedAtoms>
  151.5763  135.1060  160.0006 H   0  0  0  0  0  0  0  0  0  0  0  0  # atno 6907 bound_to 6896
  152.4376  133.7385  159.6638 H   0  0  0  0  0  0  0  0  0  0  0  0  # atno 6908 bound_to 6896
  150.8276  133.8076  159.3135 H   0  0  0  0  0  0  0  0  0  0  0  0  # atno 6909 bound_to 6896
  146.0153  139.4589  142.9931 H   0  0  0  0  0  0  0  0  0  0  0  0  # atno 7974 bound_to 7965
  156.2508  140.2890  156.0720 H   0  0  0  0  0  0  0  0  0  0  0  0  # atno 8008 bound_to 7997
  155.1661  140.0400  157.2870 H   0  0  0  0  0  0  0  0  0  0  0  0  # atno 8009 bound_to 7997
  154.6359  140.2510  155.7386 H   0  0  0  0  0  0  0  0  0  0  0  0  # atno 8010 bound_to 7997
  140.3623  144.2212  150.6137 H   0  0  0  0  0  0  0  0  0  0  0  0  # atno 10167 bound_to 10162
  156.6111  130.8851  151.2936 H   0  0  0  0  0  0  0  0  0  0  0  0  # atno 10718 bound_to 10713
  153.0030  135.5417  154.6405 H   0  0  0  0  0  0  0  0  0  0  0  0  # atno 10763 bound_to 10752
  154.5661  135.2838  155.0874 H   0  0  0  0  0  0  0  0  0  0  0  0  # atno 10764 bound_to 10752
  154.2058  135.6476  153.5153 H   0  0  0  0  0  0  0  0  0  0  0  0  # atno 10765 bound_to 10752
  141.1617  133.7509  156.9302 H   0  0  0  0  0  0  0  0  0  0  0  0  # atno 11005 bound_to 11000
  145.7278  141.0053  143.1368 LP  0  0  0  0  0  0  0  0  0  0  0  0  # atno 17320 bound_to 7965
  144.6968  139.8948  143.7455 LP  0  0  0  0  0  0  0  0  0  0  0  0  # atno 17321 bound_to 7965
  140.5115  143.2289  151.8528 LP  0  0  0  0  0  0  0  0  0  0  0  0  # atno 17342 bound_to 10162
  139.4813  144.4944  151.9143 LP  0  0  0  0  0  0  0  0  0  0  0  0  # atno 17343 bound_to 10162
  157.7254  130.9615  150.1612 LP  0  0  0  0  0  0  0  0  0  0  0  0  # atno 17370 bound_to 10713
  156.2389  130.3689  149.8360 LP  0  0  0  0  0  0  0  0  0  0  0  0  # atno 17371 bound_to 10713
  140.1391  134.9305  157.2443 LP  0  0  0  0  0  0  0  0  0  0  0  0  # atno 17394 bound_to 11000
  140.2858  134.3297  155.7329 LP  0  0  0  0  0  0  0  0  0  0  0  0  # atno 17395 bound_to 11000

$$$$
