AV-unprocessed.smi:1795|AV-procd|sdf|7248|dock1
  -GOLD-   22720 8493D 1   1.00000     0.00000
 Structure written by MMmdl.
 48 49  0  0  0  0  0  0  0  0  2 V2000
  147.7455  138.3813  153.9805 C   0  0  0  0  0  0  0  0  0  0  0  0
  148.3423  137.8951  155.3136 C   0  0  1  0  0  0  0  0  0  0  0  0
  148.5499  136.3678  155.3746 C   0  0  0  0  0  0  0  0  0  0  0  0
  149.7246  135.9277  154.5711 N   0  3  2  0  0  0  0  0  0  0  0  0
  149.9811  134.4487  154.5645 C   0  0  2  0  0  0  0  0  0  0  0  0
  148.8129  133.7020  153.8785 C   0  0  0  0  0  0  0  0  0  0  0  0
  150.2348  133.8524  155.9790 C   0  0  0  0  0  0  0  0  0  0  0  0
  149.0249  133.7656  156.7925 N   0  0  0  0  0  0  0  0  0  0  0  0
  148.9146  133.0610  157.9290 C   0  0  0  0  0  0  0  0  0  0  0  0
  149.8343  132.3843  158.3911 O   0  0  0  0  0  0  0  0  0  0  0  0
  147.5507  133.1167  158.6312 C   0  0  0  0  0  0  0  0  0  0  0  0
  147.6271  133.6584  159.9983 N   0  0  0  0  0  0  0  0  0  0  0  0
  147.2323  132.8075  161.0501 C   0  0  0  0  0  0  0  0  0  0  0  0
  147.2681  133.2010  162.3332 C   0  0  0  0  0  0  0  0  0  0  0  0
  147.7265  134.5386  162.6246 C   0  0  0  0  0  0  0  0  0  0  0  0
  148.1096  135.3595  161.6265 C   0  0  0  0  0  0  0  0  0  0  0  0
  148.0757  134.9323  160.2228 C   0  0  0  0  0  0  0  0  0  0  0  0
  148.4296  135.6732  159.3049 O   0  0  0  0  0  0  0  0  0  0  0  0
  150.9205  136.7135  154.9793 C   0  0  0  0  0  0  0  0  0  0  0  0
  150.6657  138.2245  154.8471 C   0  0  2  0  0  0  0  0  0  0  0  0
  151.8642  139.0541  155.3217 C   0  0  0  0  0  0  0  0  0  0  0  0
  149.5455  138.5811  155.6472 O   0  0  0  0  0  0  0  0  0  0  0  0
  146.7555  137.9533  153.8217 H   0  0  0  0  0  0  0  0  0  0  0  0
  148.3586  138.1017  153.1243 H   0  0  0  0  0  0  0  0  0  0  0  0
  147.6375  139.4662  153.9763 H   0  0  0  0  0  0  0  0  0  0  0  0
  147.6237  138.1601  156.0900 H   0  0  0  0  0  0  0  0  0  0  0  0
  148.6937  136.0563  156.4106 H   0  0  0  0  0  0  0  0  0  0  0  0
  147.6312  135.9016  155.0211 H   0  0  0  0  0  0  0  0  0  0  0  0
  150.8856  134.2820  153.9770 H   0  0  0  0  0  0  0  0  0  0  0  0
  148.9790  132.6252  153.8521 H   0  0  0  0  0  0  0  0  0  0  0  0
  148.6706  134.0001  152.8417 H   0  0  0  0  0  0  0  0  0  0  0  0
  147.8738  133.8754  154.4049 H   0  0  0  0  0  0  0  0  0  0  0  0
  150.6493  132.8453  155.9227 H   0  0  0  0  0  0  0  0  0  0  0  0
  150.9608  134.4617  156.5181 H   0  0  0  0  0  0  0  0  0  0  0  0
  148.2208  134.2894  156.4777 H   0  0  0  0  0  0  0  0  0  0  0  0
  146.8542  133.7082  158.0335 H   0  0  0  0  0  0  0  0  0  0  0  0
  147.1334  132.1089  158.6408 H   0  0  0  0  0  0  0  0  0  0  0  0
  146.9096  131.8215  160.7487 H   0  0  0  0  0  0  0  0  0  0  0  0
  146.9656  132.5334  163.1267 H   0  0  0  0  0  0  0  0  0  0  0  0
  147.7634  134.8825  163.6478 H   0  0  0  0  0  0  0  0  0  0  0  0
  148.4505  136.3567  161.8639 H   0  0  0  0  0  0  0  0  0  0  0  0
  151.1821  136.4662  156.0098 H   0  0  0  0  0  0  0  0  0  0  0  0
  151.7841  136.4618  154.3675 H   0  0  0  0  0  0  0  0  0  0  0  0
  150.4755  138.4759  153.8036 H   0  0  0  0  0  0  0  0  0  0  0  0
  152.7563  138.8264  154.7376 H   0  0  0  0  0  0  0  0  0  0  0  0
  152.0913  138.8582  156.3701 H   0  0  0  0  0  0  0  0  0  0  0  0
  151.6644  140.1209  155.2183 H   0  0  0  0  0  0  0  0  0  0  0  0
  149.5171  136.1830  153.6161 H   0  0  0  0  0  0  0  0  0  0  0  0
  1  2  1  0  0  0  0
  1 23  1  0  0  0  0
  1 24  1  0  0  0  0
  1 25  1  0  0  0  0
  2 22  1  0  0  0  0
  2  3  1  0  0  0  0
  2 26  1  0  0  0  0
  3  4  1  0  0  0  0
  3 27  1  0  0  0  0
  3 28  1  0  0  0  0
  4  5  1  0  0  0  0
  4 19  1  0  0  0  0
  4 48  1  0  0  0  0
  5  6  1  0  0  0  0
  5  7  1  0  0  0  0
  5 29  1  0  0  0  0
  6 30  1  0  0  0  0
  6 31  1  0  0  0  0
  6 32  1  0  0  0  0
  7  8  1  0  0  0  0
  7 33  1  0  0  0  0
  7 34  1  0  0  0  0
  8  9  1  0  0  0  0
  8 35  1  0  0  0  0
  9 10  2  0  0  0  0
  9 11  1  0  0  0  0
 11 12  1  0  0  0  0
 11 36  1  0  0  0  0
 11 37  1  0  0  0  0
 12 17  1  0  0  0  0
 12 13  1  0  0  0  0
 13 14  2  0  0  0  0
 13 38  1  0  0  0  0
 14 15  1  0  0  0  0
 14 39  1  0  0  0  0
 15 16  2  0  0  0  0
 15 40  1  0  0  0  0
 16 17  1  0  0  0  0
 16 41  1  0  0  0  0
 17 18  2  0  0  0  0
 19 20  1  0  0  0  0
 19 42  1  0  0  0  0
 19 43  1  0  0  0  0
 20 21  1  0  0  0  0
 20 22  1  0  0  0  0
 20 44  1  0  0  0  0
 21 45  1  0  0  0  0
 21 46  1  0  0  0  0
 21 47  1  0  0  0  0
M  CHG  1   4   1
M  END
> <s_m_source_file>
AV-unprocessed.smi

> <i_m_source_file_index>
1795

> <i_lp_mmshare_version>
43012

> <i_f3d_flags>
0

> <s_epik_input>
W0NIM11bQ0BASF0xW0NIMl1OKFtDSDJdW0NASF0oTzEpW0NIM10pW0NASF0oW0NIM10pW0NIMl1bTkhdQyg9TylbQ0gyXW4yW2NIXVtjSF1bY0hdW2NIXWMyPU8=

> <s_epik_cmdline>
J2VwaWtfcHl0aG9uJywgJy1waCcsICc3LjAnLCAnLXRuJywgJzgnLCAnLW1hJywgJzIwMCcsICctbWV0YWxfYmluZGluZycsICctaW1hZScsICc8aW5maWxlLm1hZT4nLCAnLW9tYWUnLCAnPG91dGZpbGUubWFlPic=

> <r_lp_tautomer_probability>
1

> <r_epik_Ionization_Penalty>
0.656654

> <r_epik_Ionization_Penalty_Charging>
0.656654

> <r_epik_Ionization_Penalty_Neutral>
8.90321e-08

> <r_epik_State_Penalty>
0.675641

> <r_epik_Charging_Adjusted_Penalty>
1.33229

> <i_epik_Tot_Q>
1

> <i_epik_Tot_abs_Q>
1

> <r_epik_Metal_State_Penalty>
0.675691

> <b_epik_Metal_Only>
0

> <s_lp_Force_Field>
OPLS_2005

> <r_lp_Energy>
31.4881

> <b_lp_Chiralities_Consistent>
1

> <s_lp_Variant>
AV-unprocessed.smi:1795-12

> <Gold.Version>
5.8.1

> <Gold.Id.Protein>
6NUR|6NUR_protein|mol2

> <Gold.PLP.Fitness>
43.9917

> <Gold.PLP.PLP>
-35.3287

> <Gold.PLP.part.hbond>
-2.0000

> <Gold.PLP.part.metal>
0.0000

> <Gold.PLP.part.buried>
-3.7221

> <Gold.PLP.part.nonpolar>
-31.0065

> <Gold.PLP.part.repulsive>
0.1288

> <Gold.PLP.ligand.clash>
0.0000

> <Gold.PLP.ligand.torsion>
0.1941

> <Gold.PLP.Chemscore.Hbond>
3.0000

> <Gold.PLP.Chemscore.CHOScore>
0.0000

> <Gold.PLP.Chemscore.Metal>
0.0000

> <Gold.Chemscore.Hbonds>
donor molecule, donor type, donor heavy atom, donor atom, acceptor molecule, acceptor atom, score
      L1  H     4    48       P1  7948  2.00
      P1  H  6896  6909       L1    10  1.00

> <Gold.PLP.Chemscore.Internal.Correction>
0.0512

> <Gold.Rescore>
     Score         DG    S(hbond)    S(metal)    S(lipo)     H(rot)  DE(clash)    DE(int)     intcor
     16.36     -16.68       1.97        0.00      80.83       1.89       0.01       0.30       ----

> <Gold.Chemscore.Fitness>
16.3645

> <Gold.Chemscore.DG>
-16.6784

> <Gold.Chemscore.ZeroCoef>
-5.4800

> <Gold.Chemscore.Hbond>
1.9677

> <Gold.Chemscore.Metal>
0.0000

> <Gold.Chemscore.Lipo>
80.8297

> <Gold.Chemscore.Internal_Hbond>
0.0000

> <Gold.Chemscore.DEClash>
0.0126

> <Gold.Chemscore.DEInternal>
0.3013

> <Gold.Chemscore.Rot>
1.8870

> <Gold.Chemscore.Internal.Correction>
   9.000000E+99

> <Gold.Chemscore.Hbonds>
donor molecule, donor type, donor heavy atom, donor atom, acceptor molecule, acceptor atom, score
      L1  H     4    48       P1  7948  0.55
      P1  H  6896  6909       L1    10  0.50

> <Gold.Chemscore.Hbond.Weighted>
-6.5721

> <Gold.Chemscore.Metal.Weighted>
-0.0000

> <Gold.Chemscore.Lipo.Weighted>
-9.4571

> <Gold.Chemscore.Internal_Hbond.Weighted>
0.0000

> <Gold.Chemscore.DEClash.Weighted>
0.0126

> <Gold.Chemscore.DEInternal.Weighted>
0.3013

> <Gold.Chemscore.Rot.Weighted>
4.8308

> <Gold.Chemscore.Internal.Correction.Weighted>
   9.000000E+99

> <Gold.Protein.RotatedTorsions>
[ 6907 6896 6895 6894 ] final  -13.05 input  -60.11 | X-H torsion
[ 7974 7965 7964 7962 ] final  111.91 input  175.53 | X-H torsion
[ 8008 7997 7996 7995 ] final  -53.38 input   59.86 | X-H torsion
[ 10167 10162 10161 10158 ] final   29.75 input  -65.29 | X-H torsion
[ 10718 10713 10712 10709 ] final   16.10 input   66.30 | X-H torsion
[ 10763 10752 10751 10750 ] final  -96.16 input  -60.55 | X-H torsion
[ 11005 11000 10999 10996 ] final  154.63 input  -57.11 | X-H torsion

> <Gold.Protein.ActiveResidues>
 VAL166  LYS551  ARG553  GLY616  TRP617  ASP618  TYR619  PRO620  LYS621  CYS622 
 ASP623  PHE694  ASN695  SER759  ASP760  ASP761  ALA762  ILE779  LEU786  VAL792 
 PHE793  MET794  SER795  GLU796  ALA797  LYS798  CYS799  TRP800  GLU811  SER814 

> <Gold.Protein.RotatedAtoms>
  151.3610  135.0904  159.9434 H   0  0  0  0  0  0  0  0  0  0  0  0  # atno 6907 bound_to 6896
  152.5162  133.9259  159.7567 H   0  0  0  0  0  0  0  0  0  0  0  0  # atno 6908 bound_to 6896
  150.9653  133.6347  159.2776 H   0  0  0  0  0  0  0  0  0  0  0  0  # atno 6909 bound_to 6896
  145.2363  139.2798  143.4141 H   0  0  0  0  0  0  0  0  0  0  0  0  # atno 7974 bound_to 7965
  154.4132  140.1201  156.5145 H   0  0  0  0  0  0  0  0  0  0  0  0  # atno 8008 bound_to 7997
  155.6765  140.3496  155.4819 H   0  0  0  0  0  0  0  0  0  0  0  0  # atno 8009 bound_to 7997
  155.9588  140.1119  157.0904 H   0  0  0  0  0  0  0  0  0  0  0  0  # atno 8010 bound_to 7997
  140.4738  144.0721  150.6245 H   0  0  0  0  0  0  0  0  0  0  0  0  # atno 10167 bound_to 10162
  157.0631  130.6317  149.5790 H   0  0  0  0  0  0  0  0  0  0  0  0  # atno 10718 bound_to 10713
  154.7214  135.5094  153.8818 H   0  0  0  0  0  0  0  0  0  0  0  0  # atno 10763 bound_to 10752
  153.0865  135.6647  153.9946 H   0  0  0  0  0  0  0  0  0  0  0  0  # atno 10764 bound_to 10752
  153.9768  135.3033  155.3402 H   0  0  0  0  0  0  0  0  0  0  0  0  # atno 10765 bound_to 10752
  140.1507  134.8677  157.2450 H   0  0  0  0  0  0  0  0  0  0  0  0  # atno 11005 bound_to 11000
  146.3340  140.2713  142.8606 LP  0  0  0  0  0  0  0  0  0  0  0  0  # atno 17320 bound_to 7965
  144.9630  140.8294  143.5502 LP  0  0  0  0  0  0  0  0  0  0  0  0  # atno 17321 bound_to 7965
  140.3943  143.2736  152.0023 LP  0  0  0  0  0  0  0  0  0  0  0  0  # atno 17342 bound_to 10162
  139.4822  144.6051  151.7536 LP  0  0  0  0  0  0  0  0  0  0  0  0  # atno 17343 bound_to 10162
  155.9972  130.5044  150.7527 LP  0  0  0  0  0  0  0  0  0  0  0  0  # atno 17370 bound_to 10713
  157.4939  131.0913  151.0394 LP  0  0  0  0  0  0  0  0  0  0  0  0  # atno 17371 bound_to 10713
  140.2609  134.3573  155.7407 LP  0  0  0  0  0  0  0  0  0  0  0  0  # atno 17394 bound_to 11000
  141.2198  133.7369  156.9078 LP  0  0  0  0  0  0  0  0  0  0  0  0  # atno 17395 bound_to 11000

$$$$
