AV-unprocessed.smi:1900|AV-procd|sdf|7710|dock2
  -GOLD-   22720 9443D 1   1.00000     0.00000
 Structure written by MMmdl.
 44 45  0  0  0  0  0  0  0  0  2 V2000
  152.5967  137.9723  155.0610 C   0  0  0  0  0  0  0  0  0  0  0  0
  151.5254  139.0024  154.6859 C   0  0  1  0  0  0  0  0  0  0  0  0
  150.1368  138.3593  154.5078 C   0  0  0  0  0  0  0  0  0  0  0  0
  149.1141  139.3937  154.2217 N   0  3  1  0  0  0  0  0  0  0  0  0
  147.7698  138.8081  153.9888 C   0  0  0  0  0  0  0  0  0  0  0  0
  146.8387  139.7536  153.2104 C   0  0  0  0  0  0  0  0  0  0  0  0
  146.8610  139.4765  151.6981 C   0  0  0  0  0  0  0  0  0  0  0  0
  145.8231  138.5298  151.3053 N   0  0  0  0  0  0  0  0  0  0  0  0
  145.6980  137.2837  151.7837 C   0  0  0  0  0  0  0  0  0  0  0  0
  146.4699  136.7913  152.6070 O   0  0  0  0  0  0  0  0  0  0  0  0
  144.6345  136.6596  151.2510 N   0  0  0  0  0  0  0  0  0  0  0  0
  144.1888  135.3400  151.5164 C   0  0  0  0  0  0  0  0  0  0  0  0
  144.3766  134.2321  150.6462 C   0  0  0  0  0  0  0  0  0  0  0  0
  143.8575  133.1238  151.1547 N   0  0  0  0  0  0  0  0  0  0  0  0
  143.3411  133.5135  152.3420 N   0  0  0  0  0  0  0  0  0  0  0  0
  143.5191  134.8539  152.6042 C   0  0  0  0  0  0  0  0  0  0  0  0
  149.1316  140.4399  155.2739 C   0  0  0  0  0  0  0  0  0  0  0  0
  150.5477  141.0254  155.4322 C   0  0  1  0  0  0  0  0  0  0  0  0
  150.6243  142.0528  156.5670 C   0  0  0  0  0  0  0  0  0  0  0  0
  151.4575  139.9712  155.7262 O   0  0  0  0  0  0  0  0  0  0  0  0
  142.8748  132.8603  152.9554 H   0  0  0  0  0  0  0  0  0  0  0  0
  152.6996  137.2125  154.2859 H   0  0  0  0  0  0  0  0  0  0  0  0
  152.3497  137.4665  155.9949 H   0  0  0  0  0  0  0  0  0  0  0  0
  153.5687  138.4496  155.1886 H   0  0  0  0  0  0  0  0  0  0  0  0
  151.8259  139.4924  153.7580 H   0  0  0  0  0  0  0  0  0  0  0  0
  150.1696  137.6387  153.6893 H   0  0  0  0  0  0  0  0  0  0  0  0
  149.8561  137.8099  155.4081 H   0  0  0  0  0  0  0  0  0  0  0  0
  147.8818  137.8918  153.4072 H   0  0  0  0  0  0  0  0  0  0  0  0
  147.3207  138.5171  154.9396 H   0  0  0  0  0  0  0  0  0  0  0  0
  145.8137  139.6586  153.5685 H   0  0  0  0  0  0  0  0  0  0  0  0
  147.1385  140.7854  153.3985 H   0  0  0  0  0  0  0  0  0  0  0  0
  146.7490  140.4050  151.1356 H   0  0  0  0  0  0  0  0  0  0  0  0
  147.8255  139.0558  151.4128 H   0  0  0  0  0  0  0  0  0  0  0  0
  145.1433  138.8512  150.6313 H   0  0  0  0  0  0  0  0  0  0  0  0
  144.0794  137.1858  150.5923 H   0  0  0  0  0  0  0  0  0  0  0  0
  144.8616  134.1959  149.6818 H   0  0  0  0  0  0  0  0  0  0  0  0
  143.1641  135.3173  153.5126 H   0  0  0  0  0  0  0  0  0  0  0  0
  148.4394  141.2423  155.0219 H   0  0  0  0  0  0  0  0  0  0  0  0
  148.7937  140.0111  156.2189 H   0  0  0  0  0  0  0  0  0  0  0  0
  150.8502  141.5125  154.5034 H   0  0  0  0  0  0  0  0  0  0  0  0
  149.9490  142.8893  156.3856 H   0  0  0  0  0  0  0  0  0  0  0  0
  151.6332  142.4554  156.6609 H   0  0  0  0  0  0  0  0  0  0  0  0
  150.3541  141.6060  157.5243 H   0  0  0  0  0  0  0  0  0  0  0  0
  149.3924  139.8359  153.3572 H   0  0  0  0  0  0  0  0  0  0  0  0
  1  2  1  0  0  0  0
  1 22  1  0  0  0  0
  1 23  1  0  0  0  0
  1 24  1  0  0  0  0
  2 20  1  0  0  0  0
  2  3  1  0  0  0  0
  2 25  1  0  0  0  0
  3  4  1  0  0  0  0
  3 26  1  0  0  0  0
  3 27  1  0  0  0  0
  4  5  1  0  0  0  0
  4 17  1  0  0  0  0
  4 44  1  0  0  0  0
  5  6  1  0  0  0  0
  5 28  1  0  0  0  0
  5 29  1  0  0  0  0
  6  7  1  0  0  0  0
  6 30  1  0  0  0  0
  6 31  1  0  0  0  0
  7  8  1  0  0  0  0
  7 32  1  0  0  0  0
  7 33  1  0  0  0  0
  8  9  1  0  0  0  0
  8 34  1  0  0  0  0
  9 10  2  0  0  0  0
  9 11  1  0  0  0  0
 11 12  1  0  0  0  0
 11 35  1  0  0  0  0
 12 16  2  0  0  0  0
 12 13  1  0  0  0  0
 13 14  2  0  0  0  0
 13 36  1  0  0  0  0
 14 15  1  0  0  0  0
 15 21  1  0  0  0  0
 15 16  1  0  0  0  0
 16 37  1  0  0  0  0
 17 18  1  0  0  0  0
 17 38  1  0  0  0  0
 17 39  1  0  0  0  0
 18 19  1  0  0  0  0
 18 20  1  0  0  0  0
 18 40  1  0  0  0  0
 19 41  1  0  0  0  0
 19 42  1  0  0  0  0
 19 43  1  0  0  0  0
M  CHG  1   4   1
M  END
> <s_m_source_file>
AV-unprocessed.smi

> <i_m_source_file_index>
1900

> <i_lp_mmshare_version>
43012

> <i_f3d_flags>
0

> <s_epik_input>
W0NIM11bQ0BASF0xW0NIMl1OKFtDSDJdW0NASF0oTzEpW0NIM10pW0NIMl1bQ0gyXVtDSDJdW05IXUMoPU8pW05IXWMyW2NIXW5bbkhdW2NIXTI=

> <s_epik_cmdline>
J2VwaWtfcHl0aG9uJywgJy1waCcsICc3LjAnLCAnLXRuJywgJzgnLCAnLW1hJywgJzIwMCcsICctbWV0YWxfYmluZGluZycsICctaW1hZScsICc8aW5maWxlLm1hZT4nLCAnLW9tYWUnLCAnPG91dGZpbGUubWFlPic=

> <r_lp_tautomer_probability>
0.5

> <r_epik_Ionization_Penalty>
0.270543

> <r_epik_Ionization_Penalty_Charging>
0.270496

> <r_epik_Ionization_Penalty_Neutral>
4.67091e-05

> <r_epik_State_Penalty>
0.262618

> <r_epik_Charging_Adjusted_Penalty>
0.533114

> <i_epik_Tot_Q>
1

> <i_epik_Tot_abs_Q>
1

> <r_epik_Metal_State_Penalty>
0.262618

> <b_epik_Metal_Only>
0

> <s_lp_Force_Field>
OPLS_2005

> <r_lp_Energy>
18.2287

> <b_lp_Chiralities_Consistent>
1

> <s_lp_Variant>
AV-unprocessed.smi:1900-2

> <Gold.Version>
5.8.1

> <Gold.Id.Protein>
6NUR|6NUR_protein|mol2

> <Gold.PLP.Fitness>
41.3911

> <Gold.PLP.PLP>
-30.5424

> <Gold.PLP.part.hbond>
-4.0676

> <Gold.PLP.part.metal>
0.0000

> <Gold.PLP.part.buried>
-0.8991

> <Gold.PLP.part.nonpolar>
-29.8901

> <Gold.PLP.part.repulsive>
3.7695

> <Gold.PLP.ligand.clash>
0.0000

> <Gold.PLP.ligand.torsion>
1.2991

> <Gold.PLP.Chemscore.Hbond>
3.4638

> <Gold.PLP.Chemscore.CHOScore>
1.0000

> <Gold.PLP.Chemscore.Metal>
0.0000

> <Gold.Chemscore.Hbonds>
donor molecule, donor type, donor heavy atom, donor atom, acceptor molecule, acceptor atom, score
      L1  H     4    44       P1  7957  0.54
      L1  H     8    34       P1 10171  0.96
      L1  H    11    35       P1 10171  0.96
      L1  H    15    21       P1 10957  0.76
      L1  C    13    36       P1  7921  1.00

> <Gold.PLP.Chemscore.Internal.Correction>
0.0556

> <Gold.Rescore>
     Score         DG    S(hbond)    S(metal)    S(lipo)     H(rot)  DE(clash)    DE(int)     intcor
     14.49     -20.20       3.12        0.00      79.06       1.93       2.38       3.34       ----

> <Gold.Chemscore.Fitness>
14.4890

> <Gold.Chemscore.DG>
-20.2039

> <Gold.Chemscore.ZeroCoef>
-5.4800

> <Gold.Chemscore.Hbond>
3.1218

> <Gold.Chemscore.Metal>
0.0000

> <Gold.Chemscore.Lipo>
79.0601

> <Gold.Chemscore.Internal_Hbond>
0.0000

> <Gold.Chemscore.DEClash>
2.3754

> <Gold.Chemscore.DEInternal>
3.3395

> <Gold.Chemscore.Rot>
1.9347

> <Gold.Chemscore.Internal.Correction>
   9.000000E+99

> <Gold.Chemscore.Hbonds>
donor molecule, donor type, donor heavy atom, donor atom, acceptor molecule, acceptor atom, score
      L1  H     4    44       P1  7957  0.53
      L1  H     8    34       P1 10171  0.87
      L1  H    11    35       P1 10171  0.91
      L1  H    15    21       P1 10957  0.26

> <Gold.Chemscore.Hbond.Weighted>
-10.4267

> <Gold.Chemscore.Metal.Weighted>
-0.0000

> <Gold.Chemscore.Lipo.Weighted>
-9.2500

> <Gold.Chemscore.Internal_Hbond.Weighted>
0.0000

> <Gold.Chemscore.DEClash.Weighted>
2.3754

> <Gold.Chemscore.DEInternal.Weighted>
3.3395

> <Gold.Chemscore.Rot.Weighted>
4.9528

> <Gold.Chemscore.Internal.Correction.Weighted>
   9.000000E+99

> <Gold.Protein.RotatedTorsions>
[ 6907 6896 6895 6894 ] final  150.06 input  -60.11 | X-H torsion
[ 7974 7965 7964 7962 ] final  116.61 input  175.53 | X-H torsion
[ 8008 7997 7996 7995 ] final   91.64 input   59.86 | X-H torsion
[ 10167 10162 10161 10158 ] final   65.50 input  -65.29 | X-H torsion
[ 10718 10713 10712 10709 ] final  -85.62 input   66.30 | X-H torsion
[ 10763 10752 10751 10750 ] final  -71.51 input  -60.55 | X-H torsion
[ 11005 11000 10999 10996 ] final  126.44 input  -57.11 | X-H torsion

> <Gold.Protein.ActiveResidues>
 VAL166  LYS551  ARG553  GLY616  TRP617  ASP618  TYR619  PRO620  LYS621  CYS622 
 ASP623  PHE694  ASN695  SER759  ASP760  ASP761  ALA762  ILE779  LEU786  VAL792 
 PHE793  MET794  SER795  GLU796  ALA797  LYS798  CYS799  TRP800  GLU811  SER814 

> <Gold.Protein.RotatedAtoms>
  152.1196  133.4346  159.4669 H   0  0  0  0  0  0  0  0  0  0  0  0  # atno 6907 bound_to 6896
  150.6871  134.2551  159.4535 H   0  0  0  0  0  0  0  0  0  0  0  0  # atno 6908 bound_to 6896
  152.0426  134.9702  160.0624 H   0  0  0  0  0  0  0  0  0  0  0  0  # atno 6909 bound_to 6896
  145.1775  139.3068  143.4435 H   0  0  0  0  0  0  0  0  0  0  0  0  # atno 7974 bound_to 7965
  156.0261  140.3335  155.7089 H   0  0  0  0  0  0  0  0  0  0  0  0  # atno 8008 bound_to 7997
  155.5953  140.0650  157.2765 H   0  0  0  0  0  0  0  0  0  0  0  0  # atno 8009 bound_to 7997
  154.4334  140.1820  156.1105 H   0  0  0  0  0  0  0  0  0  0  0  0  # atno 8010 bound_to 7997
  140.1106  144.4821  150.6980 H   0  0  0  0  0  0  0  0  0  0  0  0  # atno 10167 bound_to 10162
  155.9995  130.4737  150.4591 H   0  0  0  0  0  0  0  0  0  0  0  0  # atno 10718 bound_to 10713
  154.4327  135.5960  153.6079 H   0  0  0  0  0  0  0  0  0  0  0  0  # atno 10763 bound_to 10752
  152.9800  135.5979  154.3819 H   0  0  0  0  0  0  0  0  0  0  0  0  # atno 10764 bound_to 10752
  154.3659  135.2841  155.2272 H   0  0  0  0  0  0  0  0  0  0  0  0  # atno 10765 bound_to 10752
  139.9456  134.9630  156.8707 H   0  0  0  0  0  0  0  0  0  0  0  0  # atno 11005 bound_to 11000
  146.3459  140.1942  142.8589 LP  0  0  0  0  0  0  0  0  0  0  0  0  # atno 17320 bound_to 7965
  145.0170  140.8762  143.5190 LP  0  0  0  0  0  0  0  0  0  0  0  0  # atno 17321 bound_to 7965
  140.6927  143.2385  151.5085 LP  0  0  0  0  0  0  0  0  0  0  0  0  # atno 17342 bound_to 10162
  139.5621  144.2131  152.1708 LP  0  0  0  0  0  0  0  0  0  0  0  0  # atno 17343 bound_to 10162
  157.2616  131.0568  151.2316 LP  0  0  0  0  0  0  0  0  0  0  0  0  # atno 17370 bound_to 10713
  157.3429  130.7042  149.6392 LP  0  0  0  0  0  0  0  0  0  0  0  0  # atno 17371 bound_to 10713
  140.5843  134.0322  155.7475 LP  0  0  0  0  0  0  0  0  0  0  0  0  # atno 17394 bound_to 11000
  141.1105  133.9624  157.2918 LP  0  0  0  0  0  0  0  0  0  0  0  0  # atno 17395 bound_to 11000

$$$$
