AV-unprocessed.smi:1330|AV-procd|sdf|5485|dock6
  -GOLD-   22720 5 63D 1   1.00000     0.00000
 Structure written by MMmdl.
 42 43  0  0  0  0  0  0  0  0  1 V2000
  145.2235  139.5351  158.2062 C   0  0  0  0  0  0  0  0  0  0  0  0
  146.3020  138.6949  157.5768 C   0  0  0  0  0  0  0  0  0  0  0  0
  146.7635  139.0993  156.4390 N   0  0  0  0  0  0  0  0  0  0  0  0
  147.7543  138.4023  155.7772 N   0  0  0  0  0  0  0  0  0  0  0  0
  148.1586  139.0073  154.5032 C   0  0  0  0  0  0  0  0  0  0  0  0
  149.1490  140.1755  154.7079 C   0  0  2  0  0  0  0  0  0  0  0  0
  149.5151  140.6872  153.4423 O   0  0  0  0  0  0  0  0  0  0  0  0
  150.4385  139.7265  155.4107 C   0  0  0  0  0  0  0  0  0  0  0  0
  151.3352  140.8237  155.4525 O   0  0  0  0  0  0  0  0  0  0  0  0
  150.7944  141.9615  156.1032 C   0  0  0  0  0  0  0  0  0  0  0  0
  151.4339  142.2023  157.4583 C   0  0  0  0  0  0  0  0  0  0  0  0
  151.5861  141.1428  158.3792 C   0  0  0  0  0  0  0  0  0  0  0  0
  152.1641  141.3788  159.6417 C   0  0  0  0  0  0  0  0  0  0  0  0
  152.5869  142.6755  159.9925 C   0  0  0  0  0  0  0  0  0  0  0  0
  153.2933  142.9645  161.5398 Cl  0  0  0  0  0  0  0  0  0  0  0  0
  152.4291  143.7370  159.0802 C   0  0  0  0  0  0  0  0  0  0  0  0
  151.8513  143.5012  157.8174 C   0  0  0  0  0  0  0  0  0  0  0  0
  148.3398  137.2586  156.2350 C   0  0  0  0  0  0  0  0  0  0  0  0
  149.2329  136.6774  155.6164 O   0  0  0  0  0  0  0  0  0  0  0  0
  147.8097  136.8039  157.5223 C   0  0  0  0  0  0  0  0  0  0  0  0
  148.3926  135.6069  158.0370 C   0  0  0  0  0  0  0  0  0  0  0  0
  148.8813  134.6392  158.4429 N   0  0  0  0  0  0  0  0  0  0  0  0
  146.8328  137.4768  158.1807 C   0  0  0  0  0  0  0  0  0  0  0  0
  146.2504  137.0487  159.5208 C   0  0  0  0  0  0  0  0  0  0  0  0
  145.5200  139.8641  159.2023 H   0  0  0  0  0  0  0  0  0  0  0  0
  144.2972  138.9679  158.2987 H   0  0  0  0  0  0  0  0  0  0  0  0
  145.0065  140.4274  157.6168 H   0  0  0  0  0  0  0  0  0  0  0  0
  148.6164  138.2325  153.8853 H   0  0  0  0  0  0  0  0  0  0  0  0
  147.2893  139.3351  153.9294 H   0  0  0  0  0  0  0  0  0  0  0  0
  148.6967  140.9808  155.2883 H   0  0  0  0  0  0  0  0  0  0  0  0
  149.3961  140.0055  152.7987 H   0  0  0  0  0  0  0  0  0  0  0  0
  150.2230  139.3656  156.4179 H   0  0  0  0  0  0  0  0  0  0  0  0
  150.9014  138.9067  154.8582 H   0  0  0  0  0  0  0  0  0  0  0  0
  150.9381  142.8427  155.4757 H   0  0  0  0  0  0  0  0  0  0  0  0
  149.7207  141.8340  156.2477 H   0  0  0  0  0  0  0  0  0  0  0  0
  151.2609  140.1448  158.1234 H   0  0  0  0  0  0  0  0  0  0  0  0
  152.2803  140.5636  160.3407 H   0  0  0  0  0  0  0  0  0  0  0  0
  152.7492  144.7332  159.3482 H   0  0  0  0  0  0  0  0  0  0  0  0
  151.7298  144.3214  157.1250 H   0  0  0  0  0  0  0  0  0  0  0  0
  146.6572  136.0975  159.8624 H   0  0  0  0  0  0  0  0  0  0  0  0
  145.1685  136.9326  159.4514 H   0  0  0  0  0  0  0  0  0  0  0  0
  146.4680  137.7941  160.2861 H   0  0  0  0  0  0  0  0  0  0  0  0
  1  2  1  0  0  0  0
  1 25  1  0  0  0  0
  1 26  1  0  0  0  0
  1 27  1  0  0  0  0
  2 23  1  0  0  0  0
  2  3  2  0  0  0  0
  3  4  1  0  0  0  0
  4  5  1  0  0  0  0
  4 18  1  0  0  0  0
  5  6  1  0  0  0  0
  5 28  1  0  0  0  0
  5 29  1  0  0  0  0
  6  7  1  0  0  0  0
  6  8  1  0  0  0  0
  6 30  1  0  0  0  0
  7 31  1  0  0  0  0
  8  9  1  0  0  0  0
  8 32  1  0  0  0  0
  8 33  1  0  0  0  0
  9 10  1  0  0  0  0
 10 11  1  0  0  0  0
 10 34  1  0  0  0  0
 10 35  1  0  0  0  0
 11 17  1  0  0  0  0
 11 12  2  0  0  0  0
 12 13  1  0  0  0  0
 12 36  1  0  0  0  0
 13 14  2  0  0  0  0
 13 37  1  0  0  0  0
 14 15  1  0  0  0  0
 14 16  1  0  0  0  0
 16 17  2  0  0  0  0
 16 38  1  0  0  0  0
 17 39  1  0  0  0  0
 18 19  2  0  0  0  0
 18 20  1  0  0  0  0
 20 21  1  0  0  0  0
 20 23  2  0  0  0  0
 21 22  3  0  0  0  0
 23 24  1  0  0  0  0
 24 40  1  0  0  0  0
 24 41  1  0  0  0  0
 24 42  1  0  0  0  0
M  END
> <s_m_source_file>
AV-unprocessed.smi

> <i_m_source_file_index>
1330

> <i_lp_mmshare_version>
43012

> <i_f3d_flags>
0

> <s_epik_input>
TiNDYyhjMVtDSDNdKWMoPU8pbihuYzFbQ0gzXSlbQ0gyXVtDQEhdKFtPSF0pW0NIMl1PW0NIMl1jMltjSF1bY0hdYyhDbClbY0hdW2NIXTI=

> <s_epik_cmdline>
J2VwaWtfcHl0aG9uJywgJy1waCcsICc3LjAnLCAnLXRuJywgJzgnLCAnLW1hJywgJzIwMCcsICctbWV0YWxfYmluZGluZycsICctaW1hZScsICc8aW5maWxlLm1hZT4nLCAnLW9tYWUnLCAnPG91dGZpbGUubWFlPic=

> <r_lp_tautomer_probability>
1

> <r_epik_Ionization_Penalty>
6.27695e-08

> <r_epik_Ionization_Penalty_Charging>
2.19172e-10

> <r_epik_Ionization_Penalty_Neutral>
6.25504e-08

> <r_epik_State_Penalty>
-0

> <r_epik_Charging_Adjusted_Penalty>
2.19172e-10

> <i_epik_Tot_Q>
0

> <i_epik_Tot_abs_Q>
0

> <r_epik_Metal_State_Penalty>
-0

> <b_epik_Metal_Only>
0

> <s_lp_Force_Field>
OPLS_2005

> <r_lp_Energy>
28.5495

> <b_lp_Chiralities_Consistent>
1

> <s_lp_Variant>
AV-unprocessed.smi:1330-1

> <Gold.Version>
5.8.1

> <Gold.Id.Protein>
6NUR|6NUR_protein|mol2

> <Gold.PLP.Fitness>
44.1291

> <Gold.PLP.PLP>
-36.2324

> <Gold.PLP.part.hbond>
-4.4275

> <Gold.PLP.part.metal>
0.0000

> <Gold.PLP.part.buried>
-4.8640

> <Gold.PLP.part.nonpolar>
-27.7210

> <Gold.PLP.part.repulsive>
0.1652

> <Gold.PLP.ligand.clash>
0.0000

> <Gold.PLP.ligand.torsion>
0.8001

> <Gold.PLP.Chemscore.Hbond>
3.1372

> <Gold.PLP.Chemscore.CHOScore>
0.0000

> <Gold.PLP.Chemscore.Metal>
0.0000

> <Gold.Chemscore.Hbonds>
donor molecule, donor type, donor heavy atom, donor atom, acceptor molecule, acceptor atom, score
      L1  H     7    31       P1  7957  0.61
      P1  H  6896  6909       L1    22  0.99
      P1  H  7989  7998       L1     9  0.58
      P1  H  8011  8017       L1     7  0.91

> <Gold.PLP.Chemscore.Internal.Correction>
0.0852

> <Gold.Rescore>
     Score         DG    S(hbond)    S(metal)    S(lipo)     H(rot)  DE(clash)    DE(int)     intcor
     16.39     -17.62       1.97        0.00     101.78       2.48       0.44       0.79       ----

> <Gold.Chemscore.Fitness>
16.3870

> <Gold.Chemscore.DG>
-17.6230

> <Gold.Chemscore.ZeroCoef>
-5.4800

> <Gold.Chemscore.Hbond>
1.9692

> <Gold.Chemscore.Metal>
0.0000

> <Gold.Chemscore.Lipo>
101.7829

> <Gold.Chemscore.Internal_Hbond>
0.0000

> <Gold.Chemscore.DEClash>
0.4420

> <Gold.Chemscore.DEInternal>
0.7940

> <Gold.Chemscore.Rot>
2.4777

> <Gold.Chemscore.Internal.Correction>
   9.000000E+99

> <Gold.Chemscore.Hbonds>
donor molecule, donor type, donor heavy atom, donor atom, acceptor molecule, acceptor atom, score
      L1  H     7    31       P1  7957  0.60
      P1  H  6896  6909       L1    22  0.92
      P1  H  7989  7998       L1     9  0.08
      P1  H  8011  8017       L1     7  0.39

> <Gold.Chemscore.Hbond.Weighted>
-6.5773

> <Gold.Chemscore.Metal.Weighted>
-0.0000

> <Gold.Chemscore.Lipo.Weighted>
-11.9086

> <Gold.Chemscore.Internal_Hbond.Weighted>
0.0000

> <Gold.Chemscore.DEClash.Weighted>
0.4420

> <Gold.Chemscore.DEInternal.Weighted>
0.7940

> <Gold.Chemscore.Rot.Weighted>
6.3428

> <Gold.Chemscore.Internal.Correction.Weighted>
   9.000000E+99

> <Gold.Protein.RotatedTorsions>
[ 6907 6896 6895 6894 ] final   34.58 input  -60.11 | X-H torsion
[ 7974 7965 7964 7962 ] final  -79.47 input  175.53 | X-H torsion
[ 8008 7997 7996 7995 ] final -100.03 input   59.86 | X-H torsion
[ 10167 10162 10161 10158 ] final -175.44 input  -65.29 | X-H torsion
[ 10718 10713 10712 10709 ] final  -86.10 input   66.30 | X-H torsion
[ 10763 10752 10751 10750 ] final  114.50 input  -60.55 | X-H torsion
[ 11005 11000 10999 10996 ] final   33.72 input  -57.11 | X-H torsion

> <Gold.Protein.ActiveResidues>
 VAL166  LYS551  ARG553  GLY616  TRP617  ASP618  TYR619  PRO620  LYS621  CYS622 
 ASP623  PHE694  ASN695  SER759  ASP760  ASP761  ALA762  ILE779  LEU786  VAL792 
 PHE793  MET794  SER795  GLU796  ALA797  LYS798  CYS799  TRP800  GLU811  SER814 

> <Gold.Protein.RotatedAtoms>
  152.1043  134.9319  160.0568 H   0  0  0  0  0  0  0  0  0  0  0  0  # atno 6907 bound_to 6896
  152.0522  133.4019  159.4390 H   0  0  0  0  0  0  0  0  0  0  0  0  # atno 6908 bound_to 6896
  150.6840  134.3216  159.4832 H   0  0  0  0  0  0  0  0  0  0  0  0  # atno 6909 bound_to 6896
  145.5727  140.9463  143.1386 H   0  0  0  0  0  0  0  0  0  0  0  0  # atno 7974 bound_to 7965
  154.8230  140.0443  157.1424 H   0  0  0  0  0  0  0  0  0  0  0  0  # atno 8008 bound_to 7997
  154.9238  140.3030  155.5183 H   0  0  0  0  0  0  0  0  0  0  0  0  # atno 8009 bound_to 7997
  156.2981  140.2336  156.4290 H   0  0  0  0  0  0  0  0  0  0  0  0  # atno 8010 bound_to 7997
  139.5581  144.1938  152.1193 H   0  0  0  0  0  0  0  0  0  0  0  0  # atno 10167 bound_to 10162
  155.9992  130.4753  150.4663 H   0  0  0  0  0  0  0  0  0  0  0  0  # atno 10718 bound_to 10713
  153.5082  135.3623  155.2573 H   0  0  0  0  0  0  0  0  0  0  0  0  # atno 10763 bound_to 10752
  154.8743  135.4016  154.3399 H   0  0  0  0  0  0  0  0  0  0  0  0  # atno 10764 bound_to 10752
  153.4048  135.7076  153.6467 H   0  0  0  0  0  0  0  0  0  0  0  0  # atno 10765 bound_to 10752
  140.2602  134.3201  155.7860 H   0  0  0  0  0  0  0  0  0  0  0  0  # atno 11005 bound_to 11000
  144.7430  139.7397  143.7303 LP  0  0  0  0  0  0  0  0  0  0  0  0  # atno 17320 bound_to 7965
  146.1772  139.4948  142.9889 LP  0  0  0  0  0  0  0  0  0  0  0  0  # atno 17321 bound_to 7965
  140.1446  144.5170  150.6723 LP  0  0  0  0  0  0  0  0  0  0  0  0  # atno 17342 bound_to 10162
  140.6857  143.2349  151.5267 LP  0  0  0  0  0  0  0  0  0  0  0  0  # atno 17343 bound_to 10162
  157.2682  131.0581  151.2277 LP  0  0  0  0  0  0  0  0  0  0  0  0  # atno 17370 bound_to 10713
  157.3367  130.7012  149.6356 LP  0  0  0  0  0  0  0  0  0  0  0  0  # atno 17371 bound_to 10713
  141.2191  133.7405  156.9175 LP  0  0  0  0  0  0  0  0  0  0  0  0  # atno 17394 bound_to 11000
  140.1472  134.9254  157.2545 LP  0  0  0  0  0  0  0  0  0  0  0  0  # atno 17395 bound_to 11000

$$$$
