AV-unprocessed.smi:1018|AV-procd|sdf|4442|dock1
  -GOLD-   22720 2403D 1   1.00000     0.00000
 Structure written by MMmdl.
 52 53  0  0  0  0  0  0  0  0  1 V2000
  152.7930  144.7210  157.9830 C   0  0  0  0  0  0  0  0  0  0  0  0
  151.8036  143.9229  158.8508 C   0  0  1  0  0  0  0  0  0  0  0  0
  150.9052  142.9700  158.0376 C   0  0  0  0  0  0  0  0  0  0  0  0
  151.6466  141.7882  157.6060 N   0  0  0  0  0  0  0  0  0  0  0  0
  151.0049  140.9956  156.6301 C   0  0  0  0  0  0  0  0  0  0  0  0
  151.7336  140.0097  155.9243 C   0  0  0  0  0  0  0  0  0  0  0  0
  151.0791  139.2340  154.9480 C   0  0  0  0  0  0  0  0  0  0  0  0
  149.7036  139.4568  154.7049 C   0  0  0  0  0  0  0  0  0  0  0  0
  148.9311  138.7620  153.7345 N   0  0  0  0  0  0  0  0  0  0  0  0
  147.6291  138.9022  153.4325 C   0  0  0  0  0  0  0  0  0  0  0  0
  146.8625  139.7195  153.9411 O   0  0  0  0  0  0  0  0  0  0  0  0
  147.2642  138.0402  152.4727 N   0  0  0  0  0  0  0  0  0  0  0  0
  145.9308  137.9318  151.8782 C   0  0  0  0  0  0  0  0  0  0  0  0
  145.2768  136.5344  152.0769 C   0  0  0  0  0  0  0  0  0  0  0  0
  145.7914  135.9117  153.3983 C   0  0  0  0  0  0  0  0  0  0  0  0
  143.7471  136.7010  152.1927 C   0  0  0  0  0  0  0  0  0  0  0  0
  145.5790  135.5895  150.8857 C   0  0  0  0  0  0  0  0  0  0  0  0
  145.2126  135.9947  149.6653 N   0  0  0  0  0  0  0  0  0  0  0  0
  146.1328  134.5041  151.0553 O   0  0  0  0  0  0  0  0  0  0  0  0
  149.0642  140.4631  155.4557 C   0  0  0  0  0  0  0  0  0  0  0  0
  149.6872  141.2075  156.3926 N   0  0  0  0  0  0  0  0  0  0  0  0
  152.3264  141.1054  158.7035 C   0  0  0  0  0  0  0  0  0  0  0  0
  153.2290  142.0874  159.4718 C   0  0  2  0  0  0  0  0  0  0  0  0
  153.8527  141.4377  160.7114 C   0  0  0  0  0  0  0  0  0  0  0  0
  152.4591  143.2094  159.9016 O   0  0  0  0  0  0  0  0  0  0  0  0
  152.2593  145.3581  157.2775 H   0  0  0  0  0  0  0  0  0  0  0  0
  153.4482  144.0741  157.4003 H   0  0  0  0  0  0  0  0  0  0  0  0
  153.4196  145.3654  158.5999 H   0  0  0  0  0  0  0  0  0  0  0  0
  151.1554  144.6515  159.3385 H   0  0  0  0  0  0  0  0  0  0  0  0
  150.0709  142.6385  158.6574 H   0  0  0  0  0  0  0  0  0  0  0  0
  150.4719  143.5111  157.1975 H   0  0  0  0  0  0  0  0  0  0  0  0
  152.7802  139.8350  156.1250 H   0  0  0  0  0  0  0  0  0  0  0  0
  151.6494  138.4983  154.4034 H   0  0  0  0  0  0  0  0  0  0  0  0
  149.4447  138.0993  153.1721 H   0  0  0  0  0  0  0  0  0  0  0  0
  147.9679  137.4129  152.1119 H   0  0  0  0  0  0  0  0  0  0  0  0
  145.3094  138.6927  152.3513 H   0  0  0  0  0  0  0  0  0  0  0  0
  145.9503  138.1996  150.8202 H   0  0  0  0  0  0  0  0  0  0  0  0
  145.6153  136.5788  154.2426 H   0  0  0  0  0  0  0  0  0  0  0  0
  146.8624  135.7069  153.3662 H   0  0  0  0  0  0  0  0  0  0  0  0
  145.2867  134.9710  153.6231 H   0  0  0  0  0  0  0  0  0  0  0  0
  143.4817  137.3098  153.0577 H   0  0  0  0  0  0  0  0  0  0  0  0
  143.2455  135.7389  152.3067 H   0  0  0  0  0  0  0  0  0  0  0  0
  143.3245  137.1898  151.3140 H   0  0  0  0  0  0  0  0  0  0  0  0
  145.3800  135.4022  148.8650 H   0  0  0  0  0  0  0  0  0  0  0  0
  144.7569  136.8883  149.5500 H   0  0  0  0  0  0  0  0  0  0  0  0
  148.0170  140.6798  155.3028 H   0  0  0  0  0  0  0  0  0  0  0  0
  151.5811  140.6745  159.3738 H   0  0  0  0  0  0  0  0  0  0  0  0
  152.9325  140.2844  158.3181 H   0  0  0  0  0  0  0  0  0  0  0  0
  154.0389  142.4234  158.8240 H   0  0  0  0  0  0  0  0  0  0  0  0
  154.4646  140.5778  160.4377 H   0  0  0  0  0  0  0  0  0  0  0  0
  153.0849  141.0949  161.4058 H   0  0  0  0  0  0  0  0  0  0  0  0
  154.4909  142.1441  161.2424 H   0  0  0  0  0  0  0  0  0  0  0  0
  1  2  1  0  0  0  0
  1 26  1  0  0  0  0
  1 27  1  0  0  0  0
  1 28  1  0  0  0  0
  2 25  1  0  0  0  0
  2  3  1  0  0  0  0
  2 29  1  0  0  0  0
  3  4  1  0  0  0  0
  3 30  1  0  0  0  0
  3 31  1  0  0  0  0
  4  5  1  0  0  0  0
  4 22  1  0  0  0  0
  5 21  1  0  0  0  0
  5  6  2  0  0  0  0
  6  7  1  0  0  0  0
  6 32  1  0  0  0  0
  7  8  2  0  0  0  0
  7 33  1  0  0  0  0
  8  9  1  0  0  0  0
  8 20  1  0  0  0  0
  9 10  1  0  0  0  0
  9 34  1  0  0  0  0
 10 11  2  0  0  0  0
 10 12  1  0  0  0  0
 12 13  1  0  0  0  0
 12 35  1  0  0  0  0
 13 14  1  0  0  0  0
 13 36  1  0  0  0  0
 13 37  1  0  0  0  0
 14 15  1  0  0  0  0
 14 16  1  0  0  0  0
 14 17  1  0  0  0  0
 15 38  1  0  0  0  0
 15 39  1  0  0  0  0
 15 40  1  0  0  0  0
 16 41  1  0  0  0  0
 16 42  1  0  0  0  0
 16 43  1  0  0  0  0
 17 18  1  0  0  0  0
 17 19  2  0  0  0  0
 18 44  1  0  0  0  0
 18 45  1  0  0  0  0
 20 21  2  0  0  0  0
 20 46  1  0  0  0  0
 22 23  1  0  0  0  0
 22 47  1  0  0  0  0
 22 48  1  0  0  0  0
 23 24  1  0  0  0  0
 23 25  1  0  0  0  0
 23 49  1  0  0  0  0
 24 50  1  0  0  0  0
 24 51  1  0  0  0  0
 24 52  1  0  0  0  0
M  END
> <s_m_source_file>
AV-unprocessed.smi

> <i_m_source_file_index>
1018

> <i_lp_mmshare_version>
43012

> <i_f3d_flags>
0

> <s_epik_input>
W0NIM11bQ0BASF0xW0NIMl1OKFtDSDJdW0NASF0oTzEpW0NIM10pYzJbY0hdW2NIXWMoW2NIXW4yKVtOSF1DKD1PKVtOSF1bQ0gyXUMoW0NIM10pKFtDSDNdKUMoPU8pW05IMl0=

> <s_epik_cmdline>
J2VwaWtfcHl0aG9uJywgJy1waCcsICc3LjAnLCAnLXRuJywgJzgnLCAnLW1hJywgJzIwMCcsICctbWV0YWxfYmluZGluZycsICctaW1hZScsICc8aW5maWxlLm1hZT4nLCAnLW9tYWUnLCAnPG91dGZpbGUubWFlPic=

> <r_lp_tautomer_probability>
1

> <r_epik_Ionization_Penalty>
0.002562

> <r_epik_Ionization_Penalty_Charging>
0

> <r_epik_Ionization_Penalty_Neutral>
0.002562

> <r_epik_State_Penalty>
0.00175377

> <r_epik_Charging_Adjusted_Penalty>
0.00175377

> <i_epik_Tot_Q>
0

> <i_epik_Tot_abs_Q>
0

> <r_epik_Metal_State_Penalty>
-0

> <b_epik_Metal_Only>
0

> <s_lp_Force_Field>
OPLS_2005

> <r_lp_Energy>
25.8871

> <b_lp_Chiralities_Consistent>
1

> <s_lp_Variant>
AV-unprocessed.smi:1018-3

> <Gold.Version>
5.8.1

> <Gold.Id.Protein>
6NUR|6NUR_protein|mol2

> <Gold.PLP.Fitness>
57.3356

> <Gold.PLP.PLP>
-48.8714

> <Gold.PLP.part.hbond>
-4.6603

> <Gold.PLP.part.metal>
0.0000

> <Gold.PLP.part.buried>
-4.1654

> <Gold.PLP.part.nonpolar>
-41.6041

> <Gold.PLP.part.repulsive>
0.7077

> <Gold.PLP.ligand.clash>
0.0425

> <Gold.PLP.ligand.torsion>
0.8087

> <Gold.PLP.Chemscore.Hbond>
3.2496

> <Gold.PLP.Chemscore.CHOScore>
0.0000

> <Gold.PLP.Chemscore.Metal>
0.0000

> <Gold.Chemscore.Hbonds>
donor molecule, donor type, donor heavy atom, donor atom, acceptor molecule, acceptor atom, score
      L1  H     9    34       P1  7948  0.25
      L1  H    12    35       P1  7948  1.00
      L1  H    18    44       P1  7921  1.00
      L1  H    18    45       P1 10171  1.00

> <Gold.PLP.Chemscore.Internal.Correction>
0.3753

> <Gold.Rescore>
     Score         DG    S(hbond)    S(metal)    S(lipo)     H(rot)  DE(clash)    DE(int)     intcor
     21.21     -23.70       3.10        0.00     113.20       2.09       0.28       2.21       ----

> <Gold.Chemscore.Fitness>
21.2095

> <Gold.Chemscore.DG>
-23.7024

> <Gold.Chemscore.ZeroCoef>
-5.4800

> <Gold.Chemscore.Hbond>
3.0960

> <Gold.Chemscore.Metal>
0.0000

> <Gold.Chemscore.Lipo>
113.1974

> <Gold.Chemscore.Internal_Hbond>
0.0000

> <Gold.Chemscore.DEClash>
0.2800

> <Gold.Chemscore.DEInternal>
2.2129

> <Gold.Chemscore.Rot>
2.0947

> <Gold.Chemscore.Internal.Correction>
   9.000000E+99

> <Gold.Chemscore.Hbonds>
donor molecule, donor type, donor heavy atom, donor atom, acceptor molecule, acceptor atom, score
      L1  H     9    34       P1  7948  0.23
      L1  H    12    35       P1  7948  0.93
      L1  H    18    44       P1  7921  0.94
      L1  H    18    45       P1 10171  1.00

> <Gold.Chemscore.Hbond.Weighted>
-10.3407

> <Gold.Chemscore.Metal.Weighted>
-0.0000

> <Gold.Chemscore.Lipo.Weighted>
-13.2441

> <Gold.Chemscore.Internal_Hbond.Weighted>
0.0000

> <Gold.Chemscore.DEClash.Weighted>
0.2800

> <Gold.Chemscore.DEInternal.Weighted>
2.2129

> <Gold.Chemscore.Rot.Weighted>
5.3624

> <Gold.Chemscore.Internal.Correction.Weighted>
   9.000000E+99

> <Gold.Protein.RotatedTorsions>
[ 6907 6896 6895 6894 ] final   46.43 input  -60.11 | X-H torsion
[ 7974 7965 7964 7962 ] final   43.97 input  175.53 | X-H torsion
[ 8008 7997 7996 7995 ] final  179.99 input   59.86 | X-H torsion
[ 10167 10162 10161 10158 ] final  -41.06 input  -65.29 | X-H torsion
[ 10718 10713 10712 10709 ] final   93.48 input   66.30 | X-H torsion
[ 10763 10752 10751 10750 ] final  -74.22 input  -60.55 | X-H torsion
[ 11005 11000 10999 10996 ] final  102.93 input  -57.11 | X-H torsion

> <Gold.Protein.ActiveResidues>
 VAL166  LYS551  ARG553  GLY616  TRP617  ASP618  TYR619  PRO620  LYS621  CYS622 
 ASP623  PHE694  ASN695  SER759  ASP760  ASP761  ALA762  ILE779  LEU786  VAL792 
 PHE793  MET794  SER795  GLU796  ALA797  LYS798  CYS799  TRP800  GLU811  SER814 

> <Gold.Protein.RotatedAtoms>
  152.2563  134.8081  160.0437 H   0  0  0  0  0  0  0  0  0  0  0  0  # atno 6907 bound_to 6896
  151.8743  133.3477  159.3753 H   0  0  0  0  0  0  0  0  0  0  0  0  # atno 6908 bound_to 6896
  150.7101  134.5008  159.5605 H   0  0  0  0  0  0  0  0  0  0  0  0  # atno 6909 bound_to 6896
  146.0610  139.5127  142.9658 H   0  0  0  0  0  0  0  0  0  0  0  0  # atno 7974 bound_to 7965
  156.0371  140.1295  157.0196 H   0  0  0  0  0  0  0  0  0  0  0  0  # atno 8008 bound_to 7997
  154.4374  140.1038  156.6253 H   0  0  0  0  0  0  0  0  0  0  0  0  # atno 8009 bound_to 7997
  155.5722  140.3466  155.4520 H   0  0  0  0  0  0  0  0  0  0  0  0  # atno 8010 bound_to 7997
  140.7014  143.3116  151.3013 H   0  0  0  0  0  0  0  0  0  0  0  0  # atno 10167 bound_to 10162
  157.6954  131.0479  150.4040 H   0  0  0  0  0  0  0  0  0  0  0  0  # atno 10718 bound_to 10713
  154.4701  135.5871  153.6315 H   0  0  0  0  0  0  0  0  0  0  0  0  # atno 10763 bound_to 10752
  152.9833  135.6064  154.3378 H   0  0  0  0  0  0  0  0  0  0  0  0  # atno 10764 bound_to 10752
  154.3259  135.2843  155.2475 H   0  0  0  0  0  0  0  0  0  0  0  0  # atno 10765 bound_to 10752
  139.8780  134.9243  156.5133 H   0  0  0  0  0  0  0  0  0  0  0  0  # atno 11005 bound_to 11000
  145.6561  141.0252  143.1734 LP  0  0  0  0  0  0  0  0  0  0  0  0  # atno 17320 bound_to 7965
  144.7175  139.8147  143.7394 LP  0  0  0  0  0  0  0  0  0  0  0  0  # atno 17321 bound_to 7965
  139.6541  144.0308  152.2647 LP  0  0  0  0  0  0  0  0  0  0  0  0  # atno 17342 bound_to 10162
  139.9854  144.6399  150.7862 LP  0  0  0  0  0  0  0  0  0  0  0  0  # atno 17343 bound_to 10162
  156.4431  130.3996  149.6684 LP  0  0  0  0  0  0  0  0  0  0  0  0  # atno 17370 bound_to 10713
  156.3861  130.7603  151.2600 LP  0  0  0  0  0  0  0  0  0  0  0  0  # atno 17371 bound_to 10713
  140.8504  133.8136  155.9163 LP  0  0  0  0  0  0  0  0  0  0  0  0  # atno 17394 bound_to 11000
  140.9149  134.2214  157.4962 LP  0  0  0  0  0  0  0  0  0  0  0  0  # atno 17395 bound_to 11000

$$$$
