AV-unprocessed.smi:646|AV-procd|sdf|3167|dock10
  -GOLD-   22720 0 93D 1   1.00000     0.00000
 Structure written by MMmdl.
 44 45  0  0  0  0  0  0  0  0  1 V2000
  145.1370  140.1597  155.6382 C   0  0  0  0  0  0  0  0  0  0  0  0
  146.4725  139.6999  155.8052 O   0  0  0  0  0  0  0  0  0  0  0  0
  147.5049  140.4000  155.0971 C   0  0  1  0  0  0  0  0  0  0  0  0
  147.4477  140.0705  153.6003 C   0  0  0  0  0  0  0  0  0  0  0  0
  147.5570  141.8738  155.5444 C   0  0  0  0  0  0  0  0  0  0  0  0
  148.4026  141.4075  156.7274 C   0  0  2  0  0  0  0  0  0  0  0  0
  149.4677  142.3448  157.0615 N   0  0  0  0  0  0  0  0  0  0  0  0
  150.5441  142.0370  157.7999 C   0  0  0  0  0  0  0  0  0  0  0  0
  150.7031  140.9467  158.3482 O   0  0  0  0  0  0  0  0  0  0  0  0
  151.6219  143.1146  157.9095 C   0  0  0  0  0  0  0  0  0  0  0  0
  152.0411  143.2577  159.3511 C   0  0  0  0  0  0  0  0  0  0  0  0
  152.7012  142.2985  160.1723 C   0  0  0  0  0  0  0  0  0  0  0  0
  153.1462  140.9098  159.8140 C   0  0  0  0  0  0  0  0  0  0  0  0
  152.9360  142.7662  161.3867 N   0  0  0  0  0  0  0  0  0  0  0  0
  152.4284  144.0688  161.4006 O   0  0  0  0  0  0  0  0  0  0  0  0
  151.9049  144.3387  160.1779 C   0  0  0  0  0  0  0  0  0  0  0  0
  151.3206  145.6968  159.9846 C   0  0  0  0  0  0  0  0  0  0  0  0
  148.8524  140.1992  155.8651 C   0  0  0  0  0  0  0  0  0  0  0  0
  149.0269  138.8723  156.6118 C   0  0  0  0  0  0  0  0  0  0  0  0
  150.1375  140.3810  155.0334 C   0  0  0  0  0  0  0  0  0  0  0  0
  144.4897  139.6285  156.3359 H   0  0  0  0  0  0  0  0  0  0  0  0
  144.7625  139.9559  154.6353 H   0  0  0  0  0  0  0  0  0  0  0  0
  145.0349  141.2252  155.8404 H   0  0  0  0  0  0  0  0  0  0  0  0
  148.2875  140.5029  153.0575 H   0  0  0  0  0  0  0  0  0  0  0  0
  146.5486  140.4671  153.1294 H   0  0  0  0  0  0  0  0  0  0  0  0
  147.4689  138.9937  153.4310 H   0  0  0  0  0  0  0  0  0  0  0  0
  148.0997  142.5102  154.8429 H   0  0  0  0  0  0  0  0  0  0  0  0
  146.6065  142.3258  155.8252 H   0  0  0  0  0  0  0  0  0  0  0  0
  147.7817  141.1179  157.5786 H   0  0  0  0  0  0  0  0  0  0  0  0
  149.4167  143.2653  156.6502 H   0  0  0  0  0  0  0  0  0  0  0  0
  152.4619  142.8416  157.2696 H   0  0  0  0  0  0  0  0  0  0  0  0
  151.2330  144.0544  157.5161 H   0  0  0  0  0  0  0  0  0  0  0  0
  152.4264  140.4250  159.1543 H   0  0  0  0  0  0  0  0  0  0  0  0
  153.2574  140.2817  160.6985 H   0  0  0  0  0  0  0  0  0  0  0  0
  154.1058  140.9317  159.2969 H   0  0  0  0  0  0  0  0  0  0  0  0
  151.5627  146.0846  158.9948 H   0  0  0  0  0  0  0  0  0  0  0  0
  151.7065  146.3993  160.7239 H   0  0  0  0  0  0  0  0  0  0  0  0
  150.2354  145.6660  160.0803 H   0  0  0  0  0  0  0  0  0  0  0  0
  149.9610  138.8476  157.1744 H   0  0  0  0  0  0  0  0  0  0  0  0
  149.0328  138.0265  155.9238 H   0  0  0  0  0  0  0  0  0  0  0  0
  148.2263  138.7004  157.3314 H   0  0  0  0  0  0  0  0  0  0  0  0
  151.0276  140.3909  155.6630 H   0  0  0  0  0  0  0  0  0  0  0  0
  150.1373  141.3151  154.4714 H   0  0  0  0  0  0  0  0  0  0  0  0
  150.2650  139.5723  154.3132 H   0  0  0  0  0  0  0  0  0  0  0  0
  1  2  1  0  0  0  0
  1 21  1  0  0  0  0
  1 22  1  0  0  0  0
  1 23  1  0  0  0  0
  2  3  1  0  0  0  0
  3 18  1  0  0  0  0
  3  4  1  0  0  0  0
  3  5  1  0  0  0  0
  4 24  1  0  0  0  0
  4 25  1  0  0  0  0
  4 26  1  0  0  0  0
  5  6  1  0  0  0  0
  5 27  1  0  0  0  0
  5 28  1  0  0  0  0
  6  7  1  0  0  0  0
  6 18  1  0  0  0  0
  6 29  1  0  0  0  0
  7  8  1  0  0  0  0
  7 30  1  0  0  0  0
  8  9  2  0  0  0  0
  8 10  1  0  0  0  0
 10 11  1  0  0  0  0
 10 31  1  0  0  0  0
 10 32  1  0  0  0  0
 11 16  2  0  0  0  0
 11 12  1  0  0  0  0
 12 13  1  0  0  0  0
 12 14  2  0  0  0  0
 13 33  1  0  0  0  0
 13 34  1  0  0  0  0
 13 35  1  0  0  0  0
 14 15  1  0  0  0  0
 15 16  1  0  0  0  0
 16 17  1  0  0  0  0
 17 36  1  0  0  0  0
 17 37  1  0  0  0  0
 17 38  1  0  0  0  0
 18 19  1  0  0  0  0
 18 20  1  0  0  0  0
 19 39  1  0  0  0  0
 19 40  1  0  0  0  0
 19 41  1  0  0  0  0
 20 42  1  0  0  0  0
 20 43  1  0  0  0  0
 20 44  1  0  0  0  0
M  END
> <s_m_source_file>
AV-unprocessed.smi

> <i_m_source_file_index>
646

> <i_lp_mmshare_version>
43012

> <i_f3d_flags>
0

> <s_epik_input>
W0NIM11PW0NAQF0xKFtDSDNdKVtDSDJdW0NASF0oQzEoW0NIM10pW0NIM10pW05IXUMoPU8pW0NIMl1jMmMoW0NIM10pbm9jMltDSDNd

> <s_epik_cmdline>
J2VwaWtfcHl0aG9uJywgJy1waCcsICc3LjAnLCAnLXRuJywgJzgnLCAnLW1hJywgJzIwMCcsICctbWV0YWxfYmluZGluZycsICctaW1hZScsICc8aW5maWxlLm1hZT4nLCAnLW9tYWUnLCAnPG91dGZpbGUubWFlPic=

> <r_lp_tautomer_probability>
1

> <r_epik_Ionization_Penalty>
2.13169e-08

> <r_epik_Ionization_Penalty_Charging>
0

> <r_epik_Ionization_Penalty_Neutral>
2.13169e-08

> <r_epik_State_Penalty>
-0

> <r_epik_Charging_Adjusted_Penalty>
0

> <i_epik_Tot_Q>
0

> <i_epik_Tot_abs_Q>
0

> <r_epik_Metal_State_Penalty>
-0

> <b_epik_Metal_Only>
0

> <s_lp_Force_Field>
OPLS_2005

> <r_lp_Energy>
15.7725

> <b_lp_Chiralities_Consistent>
1

> <s_lp_Variant>
AV-unprocessed.smi:646-3

> <Gold.Version>
5.8.1

> <Gold.Id.Protein>
6NUR|6NUR_protein|mol2

> <Gold.PLP.Fitness>
35.2268

> <Gold.PLP.PLP>
-32.7875

> <Gold.PLP.part.hbond>
-1.0000

> <Gold.PLP.part.metal>
0.0000

> <Gold.PLP.part.buried>
-3.3381

> <Gold.PLP.part.nonpolar>
-28.0536

> <Gold.PLP.part.repulsive>
0.2100

> <Gold.PLP.ligand.clash>
0.0000

> <Gold.PLP.ligand.torsion>
0.4721

> <Gold.PLP.Chemscore.Hbond>
1.0000

> <Gold.PLP.Chemscore.CHOScore>
0.0000

> <Gold.PLP.Chemscore.Metal>
0.0000

> <Gold.Chemscore.Hbonds>
donor molecule, donor type, donor heavy atom, donor atom, acceptor molecule, acceptor atom, score
      L1  H     7    30       P1  8028  1.00

> <Gold.PLP.Chemscore.Internal.Correction>
0.3835

> <Gold.Rescore>
     Score         DG    S(hbond)    S(metal)    S(lipo)     H(rot)  DE(clash)    DE(int)     intcor
     15.52     -16.03       1.00        0.00      94.41       1.49       0.02       0.49       ----

> <Gold.Chemscore.Fitness>
15.5249

> <Gold.Chemscore.DG>
-16.0326

> <Gold.Chemscore.ZeroCoef>
-5.4800

> <Gold.Chemscore.Hbond>
0.9963

> <Gold.Chemscore.Metal>
0.0000

> <Gold.Chemscore.Lipo>
94.4141

> <Gold.Chemscore.Internal_Hbond>
0.0000

> <Gold.Chemscore.DEClash>
0.0186

> <Gold.Chemscore.DEInternal>
0.4890

> <Gold.Chemscore.Rot>
1.4928

> <Gold.Chemscore.Internal.Correction>
   9.000000E+99

> <Gold.Chemscore.Hbonds>
donor molecule, donor type, donor heavy atom, donor atom, acceptor molecule, acceptor atom, score
      L1  H     7    30       P1  8028  1.00

> <Gold.Chemscore.Hbond.Weighted>
-3.3278

> <Gold.Chemscore.Metal.Weighted>
-0.0000

> <Gold.Chemscore.Lipo.Weighted>
-11.0465

> <Gold.Chemscore.Internal_Hbond.Weighted>
0.0000

> <Gold.Chemscore.DEClash.Weighted>
0.0186

> <Gold.Chemscore.DEInternal.Weighted>
0.4890

> <Gold.Chemscore.Rot.Weighted>
3.8217

> <Gold.Chemscore.Internal.Correction.Weighted>
   9.000000E+99

> <Gold.Protein.RotatedTorsions>
[ 6907 6896 6895 6894 ] final -136.36 input  -60.11 | X-H torsion
[ 7974 7965 7964 7962 ] final -178.60 input  175.53 | X-H torsion
[ 8008 7997 7996 7995 ] final  155.54 input   59.86 | X-H torsion
[ 10167 10162 10161 10158 ] final  -24.71 input  -65.29 | X-H torsion
[ 10718 10713 10712 10709 ] final -163.61 input   66.30 | X-H torsion
[ 10763 10752 10751 10750 ] final   -7.99 input  -60.55 | X-H torsion
[ 11005 11000 10999 10996 ] final -120.06 input  -57.11 | X-H torsion

> <Gold.Protein.ActiveResidues>
 VAL166  LYS551  ARG553  GLY616  TRP617  ASP618  TYR619  PRO620  LYS621  CYS622 
 ASP623  PHE694  ASN695  SER759  ASP760  ASP761  ALA762  ILE779  LEU786  VAL792 
 PHE793  MET794  SER795  GLU796  ALA797  LYS798  CYS799  TRP800  GLU811  SER814 

> <Gold.Protein.RotatedAtoms>
  151.0091  133.5982  159.2684 H   0  0  0  0  0  0  0  0  0  0  0  0  # atno 6907 bound_to 6896
  151.3141  135.0801  159.9292 H   0  0  0  0  0  0  0  0  0  0  0  0  # atno 6908 bound_to 6896
  152.5295  133.9750  159.7834 H   0  0  0  0  0  0  0  0  0  0  0  0  # atno 6909 bound_to 6896
  144.7132  140.0843  143.6424 H   0  0  0  0  0  0  0  0  0  0  0  0  # atno 7974 bound_to 7965
  156.2472  140.1937  156.6817 H   0  0  0  0  0  0  0  0  0  0  0  0  # atno 8008 bound_to 7997
  154.6317  140.0595  156.9766 H   0  0  0  0  0  0  0  0  0  0  0  0  # atno 8009 bound_to 7997
  155.1700  140.3267  155.4397 H   0  0  0  0  0  0  0  0  0  0  0  0  # atno 8010 bound_to 7997
  140.7288  143.4329  151.0774 H   0  0  0  0  0  0  0  0  0  0  0  0  # atno 10167 bound_to 10162
  156.6272  130.8915  151.2970 H   0  0  0  0  0  0  0  0  0  0  0  0  # atno 10718 bound_to 10713
  153.4341  135.7012  153.6211 H   0  0  0  0  0  0  0  0  0  0  0  0  # atno 10763 bound_to 10752
  153.4613  135.3735  155.2340 H   0  0  0  0  0  0  0  0  0  0  0  0  # atno 10764 bound_to 10752
  154.8726  135.4020  154.3730 H   0  0  0  0  0  0  0  0  0  0  0  0  # atno 10765 bound_to 10752
  141.0171  134.0179  157.3334 H   0  0  0  0  0  0  0  0  0  0  0  0  # atno 11005 bound_to 11000
  145.9675  139.2845  143.1119 LP  0  0  0  0  0  0  0  0  0  0  0  0  # atno 17320 bound_to 7965
  145.9153  140.9152  143.0433 LP  0  0  0  0  0  0  0  0  0  0  0  0  # atno 17321 bound_to 7965
  139.7988  143.8114  152.3160 LP  0  0  0  0  0  0  0  0  0  0  0  0  # atno 17342 bound_to 10162
  139.8123  144.7330  150.9681 LP  0  0  0  0  0  0  0  0  0  0  0  0  # atno 17343 bound_to 10162
  157.7210  130.9559  150.1441 LP  0  0  0  0  0  0  0  0  0  0  0  0  # atno 17370 bound_to 10713
  156.2264  130.3678  149.8496 LP  0  0  0  0  0  0  0  0  0  0  0  0  # atno 17371 bound_to 10713
  139.9123  135.0192  156.7744 LP  0  0  0  0  0  0  0  0  0  0  0  0  # atno 17394 bound_to 11000
  140.6636  133.9623  155.7818 LP  0  0  0  0  0  0  0  0  0  0  0  0  # atno 17395 bound_to 11000

$$$$
