AV-unprocessed.smi:283|AV-procd|sdf|2135|dock1
  -GOLD-   2262021453D 1   1.00000     0.00000
 Structure written by MMmdl.
 48 51  0  0  0  0  0  0  0  0  1 V2000
  150.1113  140.9091  157.7664 C   0  0  0  0  0  0  0  0  0  0  0  0
  151.5246  141.4990  157.8620 C   0  0  2  0  0  0  0  0  0  0  0  0
  152.5202  140.4386  157.7147 N   0  0  0  0  0  0  0  0  0  0  0  0
  152.3343  139.4343  156.8292 C   0  0  0  0  0  0  0  0  0  0  0  0
  152.7680  139.5397  155.5460 N   0  0  0  0  0  0  0  0  0  0  0  0
  152.5746  138.5318  154.6913 C   0  0  0  0  0  0  0  0  0  0  0  0
  151.9784  137.3581  154.9087 N   0  0  0  0  0  0  0  0  0  0  0  0
  151.5347  137.2466  156.1943 C   0  0  0  0  0  0  0  0  0  0  0  0
  151.6745  138.2367  157.2072 C   0  0  0  0  0  0  0  0  0  0  0  0
  151.1116  137.7827  158.3921 N   0  0  0  0  0  0  0  0  0  0  0  0
  150.6654  136.5930  158.0926 C   0  0  0  0  0  0  0  0  0  0  0  0
  150.8786  136.1878  156.7935 N   0  0  0  0  0  0  0  0  0  0  0  0
  150.4778  134.8776  156.1824 C   0  0  1  0  0  0  0  0  0  0  0  0
  149.7351  134.1344  157.1036 O   0  0  0  0  0  0  0  0  0  0  0  0
  148.4183  133.8938  156.6091 C   0  0  2  0  0  0  0  0  0  0  0  0
  147.8462  132.5818  157.1730 C   0  0  0  0  0  0  0  0  0  0  0  0
  148.6844  131.5013  156.8234 O   0  0  0  0  0  0  0  0  0  0  0  0
  148.5842  133.9449  155.0846 C   0  0  2  0  0  0  0  0  0  0  0  0
  149.0579  132.7094  154.5793 O   0  0  0  0  0  0  0  0  0  0  0  0
  149.6301  135.0336  154.9032 C   0  0  1  0  0  0  0  0  0  0  0  0
  149.0112  136.3016  154.7746 O   0  0  0  0  0  0  0  0  0  0  0  0
  151.6754  142.3240  159.1421 C   0  0  0  0  0  0  0  0  0  0  0  0
  150.8041  143.4129  159.3772 C   0  0  0  0  0  0  0  0  0  0  0  0
  150.9203  144.1861  160.5475 C   0  0  0  0  0  0  0  0  0  0  0  0
  151.9142  143.8813  161.4947 C   0  0  0  0  0  0  0  0  0  0  0  0
  152.7931  142.8064  161.2666 C   0  0  0  0  0  0  0  0  0  0  0  0
  152.6821  142.0291  160.0959 C   0  0  0  0  0  0  0  0  0  0  0  0
  153.7970  140.7277  159.8649 Cl  0  0  0  0  0  0  0  0  0  0  0  0
  151.4215  134.3622  155.9999 H   0  0  0  0  0  0  0  0  0  0  0  0
  147.7757  134.7272  156.8956 H   0  0  0  0  0  0  0  0  0  0  0  0
  147.6456  134.1778  154.5796 H   0  0  0  0  0  0  0  0  0  0  0  0
  150.2558  134.8725  154.0244 H   0  0  0  0  0  0  0  0  0  0  0  0
  149.3568  141.6957  157.7942 H   0  0  0  0  0  0  0  0  0  0  0  0
  149.9089  140.2242  158.5906 H   0  0  0  0  0  0  0  0  0  0  0  0
  149.9773  140.3585  156.8347 H   0  0  0  0  0  0  0  0  0  0  0  0
  151.6552  142.1524  157.0004 H   0  0  0  0  0  0  0  0  0  0  0  0
  153.4059  140.6054  158.1703 H   0  0  0  0  0  0  0  0  0  0  0  0
  152.9509  138.6880  153.6911 H   0  0  0  0  0  0  0  0  0  0  0  0
  150.1651  135.9699  158.8197 H   0  0  0  0  0  0  0  0  0  0  0  0
  147.8072  132.6255  158.2618 H   0  0  0  0  0  0  0  0  0  0  0  0
  146.8315  132.4029  156.8164 H   0  0  0  0  0  0  0  0  0  0  0  0
  148.4056  131.1662  155.9848 H   0  0  0  0  0  0  0  0  0  0  0  0
  149.9942  132.6741  154.7021 H   0  0  0  0  0  0  0  0  0  0  0  0
  148.7343  136.4104  153.8778 H   0  0  0  0  0  0  0  0  0  0  0  0
  150.0373  143.6609  158.6580 H   0  0  0  0  0  0  0  0  0  0  0  0
  150.2468  145.0130  160.7178 H   0  0  0  0  0  0  0  0  0  0  0  0
  152.0041  144.4728  162.3938 H   0  0  0  0  0  0  0  0  0  0  0  0
  153.5579  142.5778  161.9941 H   0  0  0  0  0  0  0  0  0  0  0  0
  1  2  1  0  0  0  0
  1 33  1  0  0  0  0
  1 34  1  0  0  0  0
  1 35  1  0  0  0  0
  2  3  1  0  0  0  0
  2 22  1  0  0  0  0
  2 36  1  0  0  0  0
  3  4  1  0  0  0  0
  3 37  1  0  0  0  0
  4  9  1  0  0  0  0
  4  5  2  0  0  0  0
  5  6  1  0  0  0  0
  6  7  2  0  0  0  0
  6 38  1  0  0  0  0
  7  8  1  0  0  0  0
  8 12  1  0  0  0  0
  8  9  2  0  0  0  0
  9 10  1  0  0  0  0
 10 11  2  0  0  0  0
 11 12  1  0  0  0  0
 11 39  1  0  0  0  0
 12 13  1  0  0  0  0
 13 29  1  0  0  0  0
 13 20  1  0  0  0  0
 13 14  1  0  0  0  0
 14 15  1  0  0  0  0
 15 30  1  0  0  0  0
 15 16  1  0  0  0  0
 15 18  1  0  0  0  0
 16 17  1  0  0  0  0
 16 40  1  0  0  0  0
 16 41  1  0  0  0  0
 17 42  1  0  0  0  0
 18 31  1  0  0  0  0
 18 19  1  0  0  0  0
 18 20  1  0  0  0  0
 19 43  1  0  0  0  0
 20 32  1  0  0  0  0
 20 21  1  0  0  0  0
 21 44  1  0  0  0  0
 22 27  1  0  0  0  0
 22 23  2  0  0  0  0
 23 24  1  0  0  0  0
 23 45  1  0  0  0  0
 24 25  2  0  0  0  0
 24 46  1  0  0  0  0
 25 26  1  0  0  0  0
 25 47  1  0  0  0  0
 26 27  2  0  0  0  0
 26 48  1  0  0  0  0
 27 28  1  0  0  0  0
M  END
> <s_m_source_file>
AV-unprocessed.smi

> <i_m_source_file_index>
283

> <i_lp_mmshare_version>
43012

> <i_f3d_flags>
0

> <s_epik_input>
Q2xjMVtjSF1bY0hdW2NIXVtjSF1jMVtDQEhdKFtDSDNdKVtOSF1jKG5bY0hdbjIpYyhjMjMpbltjSF1uM1tDQEBIXTRPW0NASF0oW0NIMl1bT0hdKVtDQEBIXShbT0hdKVtDQEhdNFtPSF0=

> <s_epik_cmdline>
J2VwaWtfcHl0aG9uJywgJy1waCcsICc3LjAnLCAnLXRuJywgJzgnLCAnLW1hJywgJzIwMCcsICctbWV0YWxfYmluZGluZycsICctaW1hZScsICc8aW5maWxlLm1hZT4nLCAnLW9tYWUnLCAnPG91dGZpbGUubWFlPic=

> <r_lp_tautomer_probability>
1

> <r_epik_Ionization_Penalty>
0.000266407

> <r_epik_Ionization_Penalty_Charging>
0

> <r_epik_Ionization_Penalty_Neutral>
0.000266407

> <r_epik_State_Penalty>
-0

> <r_epik_Charging_Adjusted_Penalty>
0

> <i_epik_Tot_Q>
0

> <i_epik_Tot_abs_Q>
0

> <r_epik_Metal_State_Penalty>
-0

> <b_epik_Metal_Only>
0

> <s_epik_Chemistry_Notes>
This compound contains an acetal/aminal-like group ( X-CH(R)-Y where X, Y are N, S, or O) that may be acid/base labile, releasing an aldehyde.

> <s_lp_Force_Field>
OPLS_2005

> <r_lp_Energy>
46.2986

> <b_lp_Chiralities_Consistent>
1

> <s_lp_Variant>
AV-unprocessed.smi:283-11

> <Gold.Version>
5.8.1

> <Gold.Id.Protein>
6NUR|6NUR_protein|mol2

> <Gold.PLP.Fitness>
46.6779

> <Gold.PLP.PLP>
-40.0410

> <Gold.PLP.part.hbond>
-3.0000

> <Gold.PLP.part.metal>
0.0000

> <Gold.PLP.part.buried>
-6.0844

> <Gold.PLP.part.nonpolar>
-31.7335

> <Gold.PLP.part.repulsive>
0.9165

> <Gold.PLP.ligand.clash>
0.0000

> <Gold.PLP.ligand.torsion>
1.0732

> <Gold.PLP.Chemscore.Hbond>
2.9120

> <Gold.PLP.Chemscore.CHOScore>
0.0000

> <Gold.PLP.Chemscore.Metal>
0.0000

> <Gold.Chemscore.Hbonds>
donor molecule, donor type, donor heavy atom, donor atom, acceptor molecule, acceptor atom, score
      L1  H    21    44       P1  7948  1.00
      P1  H  7997  8008       L1     5  1.00
      P1  H 10752 10764       L1     7  0.88

> <Gold.PLP.Chemscore.Internal.Correction>
0.0473

> <Gold.Rescore>
     Score         DG    S(hbond)    S(metal)    S(lipo)     H(rot)  DE(clash)    DE(int)     intcor
     10.64     -14.45       2.46        0.00      96.11       4.10       0.10       3.71       ----

> <Gold.Chemscore.Fitness>
10.6412

> <Gold.Chemscore.DG>
-14.4466

> <Gold.Chemscore.ZeroCoef>
-5.4800

> <Gold.Chemscore.Hbond>
2.4580

> <Gold.Chemscore.Metal>
0.0000

> <Gold.Chemscore.Lipo>
96.1102

> <Gold.Chemscore.Internal_Hbond>
0.0000

> <Gold.Chemscore.DEClash>
0.0985

> <Gold.Chemscore.DEInternal>
3.7070

> <Gold.Chemscore.Rot>
4.0968

> <Gold.Chemscore.Internal.Correction>
   9.000000E+99

> <Gold.Chemscore.Hbonds>
donor molecule, donor type, donor heavy atom, donor atom, acceptor molecule, acceptor atom, score
      L1  H    21    44       P1  7948  0.91
      P1  H  7997  8008       L1     5  0.24
      P1  H 10752 10764       L1     7  0.40

> <Gold.Chemscore.Hbond.Weighted>
-8.2096

> <Gold.Chemscore.Metal.Weighted>
-0.0000

> <Gold.Chemscore.Lipo.Weighted>
-11.2449

> <Gold.Chemscore.Internal_Hbond.Weighted>
0.0000

> <Gold.Chemscore.DEClash.Weighted>
0.0985

> <Gold.Chemscore.DEInternal.Weighted>
3.7070

> <Gold.Chemscore.Rot.Weighted>
10.4879

> <Gold.Chemscore.Internal.Correction.Weighted>
   9.000000E+99

> <Gold.Protein.RotatedTorsions>
[ 6907 6896 6895 6894 ] final  -56.09 input  -60.11 | X-H torsion
[ 7974 7965 7964 7962 ] final   96.12 input  175.53 | X-H torsion
[ 8008 7997 7996 7995 ] final   -9.87 input   59.86 | X-H torsion
[ 10167 10162 10161 10158 ] final  -27.46 input  -65.29 | X-H torsion
[ 10718 10713 10712 10709 ] final -150.34 input   66.30 | X-H torsion
[ 10763 10752 10751 10750 ] final  -62.92 input  -60.55 | X-H torsion
[ 11005 11000 10999 10996 ] final  -29.37 input  -57.11 | X-H torsion

> <Gold.Protein.ActiveResidues>
 VAL166  LYS551  ARG553  GLY616  TRP617  ASP618  TYR619  PRO620  LYS621  CYS622 
 ASP623  PHE694  ASN695  SER759  ASP760  ASP761  ALA762  ILE779  LEU786  VAL792 
 PHE793  MET794  SER795  GLU796  ALA797  LYS798  CYS799  TRP800  GLU811  SER814 

> <Gold.Protein.RotatedAtoms>
  150.8196  134.7397  159.6760 H   0  0  0  0  0  0  0  0  0  0  0  0  # atno 6907 bound_to 6896
  152.4313  134.5769  159.9947 H   0  0  0  0  0  0  0  0  0  0  0  0  # atno 6908 bound_to 6896
  151.5957  133.3324  159.3073 H   0  0  0  0  0  0  0  0  0  0  0  0  # atno 6909 bound_to 6896
  145.4431  139.2299  143.3081 H   0  0  0  0  0  0  0  0  0  0  0  0  # atno 7974 bound_to 7965
  154.5606  140.2343  155.8341 H   0  0  0  0  0  0  0  0  0  0  0  0  # atno 8008 bound_to 7997
  156.2026  140.3048  155.9518 H   0  0  0  0  0  0  0  0  0  0  0  0  # atno 8009 bound_to 7997
  155.2896  140.0426  157.3012 H   0  0  0  0  0  0  0  0  0  0  0  0  # atno 8010 bound_to 7997
  140.7277  143.4091  151.1135 H   0  0  0  0  0  0  0  0  0  0  0  0  # atno 10167 bound_to 10162
  156.4449  130.8140  151.2370 H   0  0  0  0  0  0  0  0  0  0  0  0  # atno 10718 bound_to 10713
  154.3072  135.6223  153.5450 H   0  0  0  0  0  0  0  0  0  0  0  0  # atno 10763 bound_to 10752
  152.9833  135.5692  154.5218 H   0  0  0  0  0  0  0  0  0  0  0  0  # atno 10764 bound_to 10752
  154.4860  135.2865  155.1510 H   0  0  0  0  0  0  0  0  0  0  0  0  # atno 10765 bound_to 10752
  140.9290  133.7350  156.0909 H   0  0  0  0  0  0  0  0  0  0  0  0  # atno 11005 bound_to 11000
  146.2545  140.5182  142.8879 LP  0  0  0  0  0  0  0  0  0  0  0  0  # atno 17320 bound_to 7965
  144.8109  140.6383  143.6416 LP  0  0  0  0  0  0  0  0  0  0  0  0  # atno 17321 bound_to 7965
  139.7722  143.8478  152.3122 LP  0  0  0  0  0  0  0  0  0  0  0  0  # atno 17342 bound_to 10162
  139.8400  144.7214  150.9343 LP  0  0  0  0  0  0  0  0  0  0  0  0  # atno 17343 bound_to 10162
  157.7505  131.0156  150.3512 LP  0  0  0  0  0  0  0  0  0  0  0  0  # atno 17370 bound_to 10713
  156.3878  130.3892  149.7053 LP  0  0  0  0  0  0  0  0  0  0  0  0  # atno 17371 bound_to 10713
  140.7888  134.3642  157.5470 LP  0  0  0  0  0  0  0  0  0  0  0  0  # atno 17394 bound_to 11000
  139.8792  134.9127  156.3066 LP  0  0  0  0  0  0  0  0  0  0  0  0  # atno 17395 bound_to 11000

$$$$
