AV-unprocessed.smi:196|AV-procd|sdf|1532|dock9
  -GOLD-   2262019383D 1   1.00000     0.00000
 Structure written by MMmdl.
 47 50  0  0  0  0  0  0  0  0  1 V2000
  142.8697  133.0523  151.0239 C   0  0  0  0  0  0  0  0  0  0  0  0
  144.1826  133.3849  150.2981 C   0  0  2  0  0  0  0  0  0  0  0  0
  145.0714  132.2842  150.4643 O   0  0  0  0  0  0  0  0  0  0  0  0
  146.4005  132.7649  150.3815 C   0  0  0  0  0  0  0  0  0  0  0  0
  146.3266  134.0555  151.1830 C   0  0  0  0  0  0  0  0  0  0  0  0
  144.9668  134.6340  150.7933 C   0  0  1  0  0  0  0  0  0  0  0  0
  145.1618  135.4887  149.6794 O   0  0  0  0  0  0  0  0  0  0  0  0
  144.3015  135.4599  151.9260 C   0  0  0  0  0  0  0  0  0  0  0  0
  145.1494  136.5242  152.4420 N   0  0  0  0  0  0  0  0  0  0  0  0
  145.1454  137.8453  152.0523 C   0  0  0  0  0  0  0  0  0  0  0  0
  146.0041  138.6113  152.6684 N   0  0  0  0  0  0  0  0  0  0  0  0
  146.6545  137.7506  153.5429 C   0  0  0  0  0  0  0  0  0  0  0  0
  147.6880  137.9135  154.5018 C   0  0  0  0  0  0  0  0  0  0  0  0
  148.2637  139.1148  154.7408 N   0  0  0  0  0  0  0  0  0  0  0  0
  147.3425  140.2491  154.7604 C   0  0  0  0  0  0  0  0  0  0  0  0
  147.7769  141.1550  153.6134 C   0  0  1  0  0  0  0  0  0  0  0  0
  147.4489  142.4313  153.8122 F   0  0  0  0  0  0  0  0  0  0  0  0
  149.2817  140.9344  153.5794 C   0  0  0  0  0  0  0  0  0  0  0  0
  149.4186  139.4332  153.8851 C   0  0  1  0  0  0  0  0  0  0  0  0
  150.7837  139.1029  154.5153 C   0  0  0  0  0  0  0  0  0  0  0  0
  151.0781  137.8281  154.7892 N   0  0  0  0  0  0  0  0  0  0  0  0
  151.5801  140.0094  154.7483 O   0  0  0  0  0  0  0  0  0  0  0  0
  148.0961  136.8149  155.1910 N   0  0  0  0  0  0  0  0  0  0  0  0
  147.5216  135.6307  154.9589 C   0  0  0  0  0  0  0  0  0  0  0  0
  146.5431  135.3311  154.1016 N   0  0  0  0  0  0  0  0  0  0  0  0
  146.1363  136.4328  153.4079 C   0  0  0  0  0  0  0  0  0  0  0  0
  147.3224  140.8329  152.6754 H   0  0  0  0  0  0  0  0  0  0  0  0
  149.3523  138.8849  152.9430 H   0  0  0  0  0  0  0  0  0  0  0  0
  142.1427  133.8579  150.9199 H   0  0  0  0  0  0  0  0  0  0  0  0
  143.0316  132.8714  152.0867 H   0  0  0  0  0  0  0  0  0  0  0  0
  142.4191  132.1517  150.6064 H   0  0  0  0  0  0  0  0  0  0  0  0
  143.9714  133.4702  149.2303 H   0  0  0  0  0  0  0  0  0  0  0  0
  147.1139  132.0512  150.7939 H   0  0  0  0  0  0  0  0  0  0  0  0
  146.6626  132.9596  149.3403 H   0  0  0  0  0  0  0  0  0  0  0  0
  146.3369  133.8032  152.2440 H   0  0  0  0  0  0  0  0  0  0  0  0
  147.1655  134.7267  150.9942 H   0  0  0  0  0  0  0  0  0  0  0  0
  145.3773  134.9585  148.9273 H   0  0  0  0  0  0  0  0  0  0  0  0
  143.3692  135.9059  151.5771 H   0  0  0  0  0  0  0  0  0  0  0  0
  144.0403  134.8144  152.7649 H   0  0  0  0  0  0  0  0  0  0  0  0
  144.4777  138.2275  151.2937 H   0  0  0  0  0  0  0  0  0  0  0  0
  146.2901  139.9708  154.6786 H   0  0  0  0  0  0  0  0  0  0  0  0
  147.4668  140.7599  155.7160 H   0  0  0  0  0  0  0  0  0  0  0  0
  149.7224  141.2118  152.6213 H   0  0  0  0  0  0  0  0  0  0  0  0
  149.7587  141.5364  154.3554 H   0  0  0  0  0  0  0  0  0  0  0  0
  151.9689  137.5956  155.2049 H   0  0  0  0  0  0  0  0  0  0  0  0
  150.4079  137.1023  154.5816 H   0  0  0  0  0  0  0  0  0  0  0  0
  147.8990  134.8055  155.5448 H   0  0  0  0  0  0  0  0  0  0  0  0
  1  2  1  0  0  0  0
  1 29  1  0  0  0  0
  1 30  1  0  0  0  0
  1 31  1  0  0  0  0
  2  6  1  0  0  0  0
  2  3  1  0  0  0  0
  2 32  1  0  0  0  0
  3  4  1  0  0  0  0
  4  5  1  0  0  0  0
  4 33  1  0  0  0  0
  4 34  1  0  0  0  0
  5  6  1  0  0  0  0
  5 35  1  0  0  0  0
  5 36  1  0  0  0  0
  6  7  1  0  0  0  0
  6  8  1  0  0  0  0
  7 37  1  0  0  0  0
  8  9  1  0  0  0  0
  8 38  1  0  0  0  0
  8 39  1  0  0  0  0
  9 26  1  0  0  0  0
  9 10  1  0  0  0  0
 10 11  2  0  0  0  0
 10 40  1  0  0  0  0
 11 12  1  0  0  0  0
 12 26  2  0  0  0  0
 12 13  1  0  0  0  0
 13 14  1  0  0  0  0
 13 23  2  0  0  0  0
 14 19  1  0  0  0  0
 14 15  1  0  0  0  0
 15 16  1  0  0  0  0
 15 41  1  0  0  0  0
 15 42  1  0  0  0  0
 16 27  1  0  0  0  0
 16 17  1  0  0  0  0
 16 18  1  0  0  0  0
 18 19  1  0  0  0  0
 18 43  1  0  0  0  0
 18 44  1  0  0  0  0
 19 28  1  0  0  0  0
 19 20  1  0  0  0  0
 20 21  1  0  0  0  0
 20 22  2  0  0  0  0
 21 45  1  0  0  0  0
 21 46  1  0  0  0  0
 23 24  1  0  0  0  0
 24 25  2  0  0  0  0
 24 47  1  0  0  0  0
 25 26  1  0  0  0  0
M  END
> <s_m_source_file>
AV-unprocessed.smi

> <i_m_source_file_index>
196

> <i_lp_mmshare_version>
43012

> <i_f3d_flags>
0

> <s_epik_input>
W0NIMl0xW0NIMl1PW0NAQEhdKFtDSDNdKVtDQEBdMShbT0hdKVtDSDJdbihbY0hdbjIpYyhjMjMpbltjSF1uYzNONFtDSDJdW0NASF0oRilbQ0gyXVtDQEhdNEMoPU8pW05IMl0=

> <s_epik_cmdline>
J2VwaWtfcHl0aG9uJywgJy1waCcsICc3LjAnLCAnLXRuJywgJzgnLCAnLW1hJywgJzIwMCcsICctbWV0YWxfYmluZGluZycsICctaW1hZScsICc8aW5maWxlLm1hZT4nLCAnLW9tYWUnLCAnPG91dGZpbGUubWFlPic=

> <r_lp_tautomer_probability>
1

> <r_epik_Ionization_Penalty>
0.000857933

> <r_epik_Ionization_Penalty_Charging>
0

> <r_epik_Ionization_Penalty_Neutral>
0.000857933

> <r_epik_State_Penalty>
0.000462053

> <r_epik_Charging_Adjusted_Penalty>
0.000462053

> <i_epik_Tot_Q>
0

> <i_epik_Tot_abs_Q>
0

> <r_epik_Metal_State_Penalty>
-0

> <b_epik_Metal_Only>
0

> <s_lp_Force_Field>
OPLS_2005

> <r_lp_Energy>
45.3025

> <b_lp_Chiralities_Consistent>
1

> <s_lp_Variant>
AV-unprocessed.smi:196-5

> <Gold.Version>
5.8.1

> <Gold.Id.Protein>
6NUR|6NUR_protein|mol2

> <Gold.PLP.Fitness>
42.1673

> <Gold.PLP.PLP>
-32.9399

> <Gold.PLP.part.hbond>
-2.4387

> <Gold.PLP.part.metal>
0.0000

> <Gold.PLP.part.buried>
-1.1001

> <Gold.PLP.part.nonpolar>
-29.0999

> <Gold.PLP.part.repulsive>
0.7411

> <Gold.PLP.ligand.clash>
0.0000

> <Gold.PLP.ligand.torsion>
1.0356

> <Gold.PLP.Chemscore.Hbond>
2.0000

> <Gold.PLP.Chemscore.CHOScore>
1.7394

> <Gold.PLP.Chemscore.Metal>
0.0000

> <Gold.Chemscore.Hbonds>
donor molecule, donor type, donor heavy atom, donor atom, acceptor molecule, acceptor atom, score
      L1  H     7    37       P1  7921  0.89
      P1  H  7989  7998       L1    22  0.96
      L1  C    10    40       P1 10171  0.02
      L1  C    10    40       P1 10175  0.33

> <Gold.PLP.Chemscore.Internal.Correction>
0.0806

> <Gold.Rescore>
     Score         DG    S(hbond)    S(metal)    S(lipo)     H(rot)  DE(clash)    DE(int)     intcor
      9.40     -11.64       1.89        0.00      65.16       3.04       1.58       0.66       ----

> <Gold.Chemscore.Fitness>
9.4037

> <Gold.Chemscore.DG>
-11.6429

> <Gold.Chemscore.ZeroCoef>
-5.4800

> <Gold.Chemscore.Hbond>
1.8938

> <Gold.Chemscore.Metal>
0.0000

> <Gold.Chemscore.Lipo>
65.1571

> <Gold.Chemscore.Internal_Hbond>
0.0000

> <Gold.Chemscore.DEClash>
1.5797

> <Gold.Chemscore.DEInternal>
0.6596

> <Gold.Chemscore.Rot>
3.0413

> <Gold.Chemscore.Internal.Correction>
   9.000000E+99

> <Gold.Chemscore.Hbonds>
donor molecule, donor type, donor heavy atom, donor atom, acceptor molecule, acceptor atom, score
      L1  H     7    37       P1  7921  0.82
      P1  H  7989  7998       L1    22  0.53

> <Gold.Chemscore.Hbond.Weighted>
-6.3252

> <Gold.Chemscore.Metal.Weighted>
-0.0000

> <Gold.Chemscore.Lipo.Weighted>
-7.6234

> <Gold.Chemscore.Internal_Hbond.Weighted>
0.0000

> <Gold.Chemscore.DEClash.Weighted>
1.5797

> <Gold.Chemscore.DEInternal.Weighted>
0.6596

> <Gold.Chemscore.Rot.Weighted>
7.7856

> <Gold.Chemscore.Internal.Correction.Weighted>
   9.000000E+99

> <Gold.Protein.RotatedTorsions>
[ 6907 6896 6895 6894 ] final    2.13 input  -60.11 | X-H torsion
[ 7974 7965 7964 7962 ] final   17.55 input  175.53 | X-H torsion
[ 8008 7997 7996 7995 ] final   97.81 input   59.86 | X-H torsion
[ 10167 10162 10161 10158 ] final  111.28 input  -65.29 | X-H torsion
[ 10718 10713 10712 10709 ] final  159.40 input   66.30 | X-H torsion
[ 10763 10752 10751 10750 ] final -167.14 input  -60.55 | X-H torsion
[ 11005 11000 10999 10996 ] final  158.69 input  -57.11 | X-H torsion

> <Gold.Protein.ActiveResidues>
 VAL166  LYS551  ARG553  GLY616  TRP617  ASP618  TYR619  PRO620  LYS621  CYS622 
 ASP623  PHE694  ASN695  SER759  ASP760  ASP761  ALA762  ILE779  LEU786  VAL792 
 PHE793  MET794  SER795  GLU796  ALA797  LYS798  CYS799  TRP800  GLU811  SER814 

> <Gold.Protein.RotatedAtoms>
  151.6039  135.1045  160.0066 H   0  0  0  0  0  0  0  0  0  0  0  0  # atno 6907 bound_to 6896
  152.4243  133.7165  159.6519 H   0  0  0  0  0  0  0  0  0  0  0  0  # atno 6908 bound_to 6896
  150.8132  133.8312  159.3195 H   0  0  0  0  0  0  0  0  0  0  0  0  # atno 6909 bound_to 6896
  146.2214  139.8585  142.8609 H   0  0  0  0  0  0  0  0  0  0  0  0  # atno 7974 bound_to 7965
  156.0940  140.3253  155.7852 H   0  0  0  0  0  0  0  0  0  0  0  0  # atno 8008 bound_to 7997
  155.4950  140.0564  157.2965 H   0  0  0  0  0  0  0  0  0  0  0  0  # atno 8009 bound_to 7997
  154.4655  140.1987  156.0146 H   0  0  0  0  0  0  0  0  0  0  0  0  # atno 8010 bound_to 7997
  139.6624  144.7128  151.1841 H   0  0  0  0  0  0  0  0  0  0  0  0  # atno 10167 bound_to 10162
  157.1647  131.0595  151.2214 H   0  0  0  0  0  0  0  0  0  0  0  0  # atno 10718 bound_to 10713
  154.6762  135.2947  154.9675 H   0  0  0  0  0  0  0  0  0  0  0  0  # atno 10763 bound_to 10752
  154.0685  135.6621  153.4825 H   0  0  0  0  0  0  0  0  0  0  0  0  # atno 10764 bound_to 10752
  153.0518  135.5169  154.7782 H   0  0  0  0  0  0  0  0  0  0  0  0  # atno 10765 bound_to 10752
  140.1890  134.8421  157.2890 H   0  0  0  0  0  0  0  0  0  0  0  0  # atno 11005 bound_to 11000
  145.2728  141.0114  143.3762 LP  0  0  0  0  0  0  0  0  0  0  0  0  # atno 17320 bound_to 7965
  144.9210  139.4412  143.6541 LP  0  0  0  0  0  0  0  0  0  0  0  0  # atno 17321 bound_to 7965
  140.7585  143.5974  150.8734 LP  0  0  0  0  0  0  0  0  0  0  0  0  # atno 17342 bound_to 10162
  139.9632  143.6140  152.2996 LP  0  0  0  0  0  0  0  0  0  0  0  0  # atno 17343 bound_to 10162
  157.4100  130.7380  149.6831 LP  0  0  0  0  0  0  0  0  0  0  0  0  # atno 17370 bound_to 10713
  155.9748  130.4098  150.3897 LP  0  0  0  0  0  0  0  0  0  0  0  0  # atno 17371 bound_to 10713
  140.2181  134.4056  155.7579 LP  0  0  0  0  0  0  0  0  0  0  0  0  # atno 17394 bound_to 11000
  141.2226  133.7152  156.8447 LP  0  0  0  0  0  0  0  0  0  0  0  0  # atno 17395 bound_to 11000

$$$$
