AV-unprocessed.smi:2706|AV-procd|sdf|10452|dock4
  -GOLD-   2272014493D 1   1.00000     0.00000
 Structure written by MMmdl.
 43 46  0  0  0  0  0  0  0  0  1 V2000
  153.6252  142.9578  163.3456 C   0  0  0  0  0  0  0  0  0  0  0  0
  153.1363  142.6280  162.0106 N   0  0  0  0  0  0  0  0  0  0  0  0
  153.4063  141.2586  161.5878 C   0  0  0  0  0  0  0  0  0  0  0  0
  152.4998  143.5420  161.1689 C   0  0  0  0  0  0  0  0  0  0  0  0
  152.2977  144.8216  161.5558 C   0  0  0  0  0  0  0  0  0  0  0  0
  151.6420  145.7563  160.6645 C   0  0  0  0  0  0  0  0  0  0  0  0
  151.2135  145.3750  159.4453 C   0  0  0  0  0  0  0  0  0  0  0  0
  151.3901  144.0089  158.9897 C   0  0  0  0  0  0  0  0  0  0  0  0
  150.9806  143.6554  157.8037 N   0  0  0  0  0  0  0  0  0  0  0  0
  151.0151  142.3396  157.3422 C   0  0  0  0  0  0  0  0  0  0  0  0
  151.7945  141.5006  157.7925 O   0  0  0  0  0  0  0  0  0  0  0  0
  150.2201  142.0596  156.2885 N   0  0  0  0  0  0  0  0  0  0  0  0
  150.1100  140.7966  155.6338 C   0  0  2  0  0  0  0  0  0  0  0  0
  150.2438  139.5567  156.4927 C   0  0  1  0  0  0  0  0  0  0  0  0
  149.9458  138.1171  156.0801 C   0  0  1  0  0  0  0  0  0  0  0  0
  149.2640  138.0603  154.6969 C   0  0  0  0  0  0  0  0  0  0  0  0
  150.4099  138.4670  153.7435 C   0  0  0  0  0  0  0  0  0  0  0  0
  151.5846  138.7004  154.7157 C   0  0  2  0  0  0  0  0  0  0  0  0
  151.3367  137.5936  155.7362 C   0  0  0  0  0  0  0  0  0  0  0  0
  151.3692  139.9581  155.5543 C   0  0  1  0  0  0  0  0  0  0  0  0
  152.0539  143.1633  159.8993 N   0  0  0  0  0  0  0  0  0  0  0  0
  152.7879  143.1288  164.0228 H   0  0  0  0  0  0  0  0  0  0  0  0
  154.2354  143.8608  163.3164 H   0  0  0  0  0  0  0  0  0  0  0  0
  154.2417  142.1630  163.7664 H   0  0  0  0  0  0  0  0  0  0  0  0
  154.2942  141.2282  160.9559 H   0  0  0  0  0  0  0  0  0  0  0  0
  152.5683  140.8548  161.0202 H   0  0  0  0  0  0  0  0  0  0  0  0
  153.5681  140.5950  162.4377 H   0  0  0  0  0  0  0  0  0  0  0  0
  152.6135  145.1772  162.5251 H   0  0  0  0  0  0  0  0  0  0  0  0
  151.4980  146.7783  160.9823 H   0  0  0  0  0  0  0  0  0  0  0  0
  150.7334  146.1179  158.8247 H   0  0  0  0  0  0  0  0  0  0  0  0
  149.6449  142.8065  155.9263 H   0  0  0  0  0  0  0  0  0  0  0  0
  149.4296  140.7559  154.7867 H   0  0  0  0  0  0  0  0  0  0  0  0
  150.4443  139.6948  157.5540 H   0  0  0  0  0  0  0  0  0  0  0  0
  149.4252  137.5621  156.8609 H   0  0  0  0  0  0  0  0  0  0  0  0
  148.9259  137.0473  154.4748 H   0  0  0  0  0  0  0  0  0  0  0  0
  148.3965  138.7172  154.6289 H   0  0  0  0  0  0  0  0  0  0  0  0
  150.6367  137.6535  153.0533 H   0  0  0  0  0  0  0  0  0  0  0  0
  150.1784  139.3488  153.1455 H   0  0  0  0  0  0  0  0  0  0  0  0
  152.5677  138.6812  154.2446 H   0  0  0  0  0  0  0  0  0  0  0  0
  152.0294  137.6229  156.5793 H   0  0  0  0  0  0  0  0  0  0  0  0
  151.3360  136.5900  155.3066 H   0  0  0  0  0  0  0  0  0  0  0  0
  152.2659  140.3395  156.0394 H   0  0  0  0  0  0  0  0  0  0  0  0
  152.2406  142.2033  159.6483 H   0  0  0  0  0  0  0  0  0  0  0  0
  1  2  1  0  0  0  0
  1 22  1  0  0  0  0
  1 23  1  0  0  0  0
  1 24  1  0  0  0  0
  2  3  1  0  0  0  0
  2  4  1  0  0  0  0
  3 25  1  0  0  0  0
  3 26  1  0  0  0  0
  3 27  1  0  0  0  0
  4 21  1  0  0  0  0
  4  5  2  0  0  0  0
  5  6  1  0  0  0  0
  5 28  1  0  0  0  0
  6  7  2  0  0  0  0
  6 29  1  0  0  0  0
  7  8  1  0  0  0  0
  7 30  1  0  0  0  0
  8  9  2  0  0  0  0
  8 21  1  0  0  0  0
  9 10  1  0  0  0  0
 10 11  2  0  0  0  0
 10 12  1  0  0  0  0
 12 13  1  0  0  0  0
 12 31  1  0  0  0  0
 13 20  1  0  0  0  0
 13 14  1  0  0  0  0
 13 32  1  0  0  0  0
 14 20  1  0  0  0  0
 14 15  1  0  0  0  0
 14 33  1  0  0  0  0
 15 19  1  0  0  0  0
 15 16  1  0  0  0  0
 15 34  1  0  0  0  0
 16 17  1  0  0  0  0
 16 35  1  0  0  0  0
 16 36  1  0  0  0  0
 17 18  1  0  0  0  0
 17 37  1  0  0  0  0
 17 38  1  0  0  0  0
 18 19  1  0  0  0  0
 18 20  1  0  0  0  0
 18 39  1  0  0  0  0
 19 40  1  0  0  0  0
 19 41  1  0  0  0  0
 20 42  1  0  0  0  0
 21 43  1  0  0  0  0
M  END
> <s_m_source_file>
AV-unprocessed.smi

> <i_m_source_file_index>
2706

> <i_lp_mmshare_version>
43012

> <i_f3d_flags>
0

> <s_epik_input>
W0NIM11OKFtDSDNdKWMxW2NIXVtjSF1bY0hdYyhuMSlbTkhdQyg9TylbTkhdW0NASF0yW0NAQEhdM1tDQEBIXShbQ0gyXTQpW0NIMl1bQ0gyXVtDQEBIXTRbQ0BIXTIz

> <s_epik_cmdline>
J2VwaWtfcHl0aG9uJywgJy1waCcsICc3LjAnLCAnLXRuJywgJzgnLCAnLW1hJywgJzIwMCcsICctbWV0YWxfYmluZGluZycsICctaW1hZScsICc8aW5maWxlLm1hZT4nLCAnLW9tYWUnLCAnPG91dGZpbGUubWFlPic=

> <r_lp_tautomer_probability>
0.999994

> <r_epik_Ionization_Penalty>
2.07242

> <r_epik_Ionization_Penalty_Charging>
2.07242

> <r_epik_Ionization_Penalty_Neutral>
9.73808e-07

> <r_epik_State_Penalty>
3.96009

> <r_epik_Charging_Adjusted_Penalty>
6.03251

> <i_epik_Tot_Q>
0

> <i_epik_Tot_abs_Q>
0

> <r_epik_Metal_State_Penalty>
3.98849

> <b_epik_Metal_Only>
1

> <s_lp_Force_Field>
OPLS_2005

> <r_lp_Energy>
91.2091

> <b_lp_Chiralities_Consistent>
1

> <s_lp_Variant>
AV-unprocessed.smi:2706-9

> <Gold.Version>
5.8.1

> <Gold.Id.Protein>
6NUR|6NUR_protein|mol2

> <Gold.PLP.Fitness>
42.6362

> <Gold.PLP.PLP>
-40.8327

> <Gold.PLP.part.hbond>
-0.9637

> <Gold.PLP.part.metal>
0.0000

> <Gold.PLP.part.buried>
-1.4544

> <Gold.PLP.part.nonpolar>
-39.3796

> <Gold.PLP.part.repulsive>
0.3157

> <Gold.PLP.ligand.clash>
0.0000

> <Gold.PLP.ligand.torsion>
0.4600

> <Gold.PLP.Chemscore.Hbond>
0.8938

> <Gold.PLP.Chemscore.CHOScore>
0.0000

> <Gold.PLP.Chemscore.Metal>
0.0000

> <Gold.Chemscore.Hbonds>
donor molecule, donor type, donor heavy atom, donor atom, acceptor molecule, acceptor atom, score
      L1  H    12    31       P1  8028  0.89

> <Gold.PLP.Chemscore.Internal.Correction>
0.0423

> <Gold.Rescore>
     Score         DG    S(hbond)    S(metal)    S(lipo)     H(rot)  DE(clash)    DE(int)     intcor
     12.92     -17.58       0.80        0.00     102.38       1.00       1.37       3.29       ----

> <Gold.Chemscore.Fitness>
12.9200

> <Gold.Chemscore.DG>
-17.5817

> <Gold.Chemscore.ZeroCoef>
-5.4800

> <Gold.Chemscore.Hbond>
0.8032

> <Gold.Chemscore.Metal>
0.0000

> <Gold.Chemscore.Lipo>
102.3839

> <Gold.Chemscore.Internal_Hbond>
0.0000

> <Gold.Chemscore.DEClash>
1.3731

> <Gold.Chemscore.DEInternal>
3.2887

> <Gold.Chemscore.Rot>
1.0000

> <Gold.Chemscore.Internal.Correction>
   9.000000E+99

> <Gold.Chemscore.Hbonds>
donor molecule, donor type, donor heavy atom, donor atom, acceptor molecule, acceptor atom, score
      L1  H    12    31       P1  8028  0.85

> <Gold.Chemscore.Hbond.Weighted>
-2.6828

> <Gold.Chemscore.Metal.Weighted>
-0.0000

> <Gold.Chemscore.Lipo.Weighted>
-11.9789

> <Gold.Chemscore.Internal_Hbond.Weighted>
0.0000

> <Gold.Chemscore.DEClash.Weighted>
1.3731

> <Gold.Chemscore.DEInternal.Weighted>
3.2887

> <Gold.Chemscore.Rot.Weighted>
2.5600

> <Gold.Chemscore.Internal.Correction.Weighted>
   9.000000E+99

> <Gold.Protein.RotatedTorsions>
[ 6907 6896 6895 6894 ] final  124.67 input  -60.11 | X-H torsion
[ 7974 7965 7964 7962 ] final   75.57 input  175.53 | X-H torsion
[ 8008 7997 7996 7995 ] final  -20.05 input   59.86 | X-H torsion
[ 10167 10162 10161 10158 ] final   -3.68 input  -65.29 | X-H torsion
[ 10718 10713 10712 10709 ] final  -23.00 input   66.30 | X-H torsion
[ 10763 10752 10751 10750 ] final  -90.16 input  -60.55 | X-H torsion
[ 11005 11000 10999 10996 ] final  -45.25 input  -57.11 | X-H torsion

> <Gold.Protein.ActiveResidues>
 VAL166  LYS551  ARG553  GLY616  TRP617  ASP618  TYR619  PRO620  LYS621  CYS622 
 ASP623  PHE694  ASN695  SER759  ASP760  ASP761  ALA762  ILE779  LEU786  VAL792 
 PHE793  MET794  SER795  GLU796  ALA797  LYS798  CYS799  TRP800  GLU811  SER814 

> <Gold.Protein.RotatedAtoms>
  152.4058  133.6887  159.6354 H   0  0  0  0  0  0  0  0  0  0  0  0  # atno 6907 bound_to 6896
  150.7943  133.8711  159.3268 H   0  0  0  0  0  0  0  0  0  0  0  0  # atno 6908 bound_to 6896
  151.6466  135.1008  160.0203 H   0  0  0  0  0  0  0  0  0  0  0  0  # atno 6909 bound_to 6896
  145.7139  139.2624  143.1635 H   0  0  0  0  0  0  0  0  0  0  0  0  # atno 7974 bound_to 7965
  154.4796  140.2072  155.9796 H   0  0  0  0  0  0  0  0  0  0  0  0  # atno 8008 bound_to 7997
  156.1143  140.3224  155.8087 H   0  0  0  0  0  0  0  0  0  0  0  0  # atno 8009 bound_to 7997
  155.4579  140.0522  157.2985 H   0  0  0  0  0  0  0  0  0  0  0  0  # atno 8010 bound_to 7997
  140.6899  143.6511  150.8349 H   0  0  0  0  0  0  0  0  0  0  0  0  # atno 10167 bound_to 10162
  156.4970  130.4579  149.6723 H   0  0  0  0  0  0  0  0  0  0  0  0  # atno 10718 bound_to 10713
  154.6629  135.5314  153.8041 H   0  0  0  0  0  0  0  0  0  0  0  0  # atno 10763 bound_to 10752
  153.0453  135.6510  154.0844 H   0  0  0  0  0  0  0  0  0  0  0  0  # atno 10764 bound_to 10752
  154.0751  135.2951  155.3281 H   0  0  0  0  0  0  0  0  0  0  0  0  # atno 10765 bound_to 10752
  141.0503  133.6745  156.2986 H   0  0  0  0  0  0  0  0  0  0  0  0  # atno 11005 bound_to 11000
  146.0687  140.7892  142.9699 LP  0  0  0  0  0  0  0  0  0  0  0  0  # atno 17320 bound_to 7965
  144.6934  140.3309  143.7216 LP  0  0  0  0  0  0  0  0  0  0  0  0  # atno 17321 bound_to 7965
  140.0223  143.5530  152.2795 LP  0  0  0  0  0  0  0  0  0  0  0  0  # atno 17342 bound_to 10162
  139.6292  144.7642  151.2572 LP  0  0  0  0  0  0  0  0  0  0  0  0  # atno 17343 bound_to 10162
  156.3370  130.7362  151.2301 LP  0  0  0  0  0  0  0  0  0  0  0  0  # atno 17370 bound_to 10713
  157.7467  131.0414  150.4644 LP  0  0  0  0  0  0  0  0  0  0  0  0  # atno 17371 bound_to 10713
  140.6068  134.5499  157.5527 LP  0  0  0  0  0  0  0  0  0  0  0  0  # atno 17394 bound_to 11000
  139.9345  134.7901  156.0840 LP  0  0  0  0  0  0  0  0  0  0  0  0  # atno 17395 bound_to 11000

$$$$
