AV-unprocessed.smi:52|AV-procd|sdf|512|dock5
  -GOLD-   2262016383D 1   1.00000     0.00000
 Structure written by MMmdl.
 26 27  0  0  0  0  0  0  0  0  2 V2000
  153.8571  137.8516  157.7268 O   0  0  0  0  0  0  0  0  0  0  0  0
  152.8370  137.6937  157.0198 C   0  0  0  0  0  0  0  0  0  0  0  0
  152.3952  136.5562  156.7447 O   0  5  0  0  0  0  0  0  0  0  0  0
  152.1321  138.8915  156.4933 C   0  0  0  0  0  0  0  0  0  0  0  0
  151.3916  138.9667  155.3405 C   0  0  0  0  0  0  0  0  0  0  0  0
  150.9060  140.2384  155.1991 O   0  0  0  0  0  0  0  0  0  0  0  0
  151.3781  140.9001  156.2902 C   0  0  0  0  0  0  0  0  0  0  0  0
  151.0472  142.3465  156.4574 C   0  0  0  0  0  0  0  0  0  0  0  0
  151.7042  142.9533  157.6103 N   0  0  0  0  0  0  0  0  0  0  0  0
  151.7806  144.4041  157.5500 C   0  0  0  0  0  0  0  0  0  0  0  0
  152.0068  144.8899  158.9887 C   0  0  0  0  0  0  0  0  0  0  0  0
  151.6401  143.6739  159.8553 C   0  0  1  0  0  0  0  0  0  0  0  0
  150.7513  143.9956  160.9041 O   0  0  0  0  0  0  0  0  0  0  0  0
  151.0176  142.6953  158.8584 C   0  0  0  0  0  0  0  0  0  0  0  0
  152.1156  140.1422  157.0988 N   0  0  0  0  0  0  0  0  0  0  0  0
  152.5477  143.2390  160.2766 H   0  0  0  0  0  0  0  0  0  0  0  0
  151.1348  138.2565  154.5685 H   0  0  0  0  0  0  0  0  0  0  0  0
  151.3134  142.8777  155.5424 H   0  0  0  0  0  0  0  0  0  0  0  0
  149.9654  142.4325  156.5665 H   0  0  0  0  0  0  0  0  0  0  0  0
  152.5698  144.7347  156.8737 H   0  0  0  0  0  0  0  0  0  0  0  0
  150.8380  144.8118  157.1807 H   0  0  0  0  0  0  0  0  0  0  0  0
  153.0470  145.1751  159.1507 H   0  0  0  0  0  0  0  0  0  0  0  0
  151.3852  145.7608  159.2014 H   0  0  0  0  0  0  0  0  0  0  0  0
  151.0628  144.7785  161.3320 H   0  0  0  0  0  0  0  0  0  0  0  0
  149.9522  142.9045  158.7449 H   0  0  0  0  0  0  0  0  0  0  0  0
  151.1243  141.6562  159.1715 H   0  0  0  0  0  0  0  0  0  0  0  0
  1  2  2  0  0  0  0
  2  3  1  0  0  0  0
  2  4  1  0  0  0  0
  4 15  1  0  0  0  0
  4  5  2  0  0  0  0
  5  6  1  0  0  0  0
  5 17  1  0  0  0  0
  6  7  1  0  0  0  0
  7  8  1  0  0  0  0
  7 15  2  0  0  0  0
  8  9  1  0  0  0  0
  8 18  1  0  0  0  0
  8 19  1  0  0  0  0
  9 14  1  0  0  0  0
  9 10  1  0  0  0  0
 10 11  1  0  0  0  0
 10 20  1  0  0  0  0
 10 21  1  0  0  0  0
 11 12  1  0  0  0  0
 11 22  1  0  0  0  0
 11 23  1  0  0  0  0
 12 16  1  0  0  0  0
 12 13  1  0  0  0  0
 12 14  1  0  0  0  0
 13 24  1  0  0  0  0
 14 25  1  0  0  0  0
 14 26  1  0  0  0  0
M  CHG  1   3  -1
M  END
> <s_m_source_file>
AV-unprocessed.smi

> <i_m_source_file_index>
52

> <i_lp_mmshare_version>
43012

> <i_f3d_flags>
0

> <s_epik_input>
Tz1DKFtPSF0pYzFbY0hdb2MobjEpW0NIMl1OMltDSDJdW0NIMl1bQ0BIXShbT0hdKVtDSDJdMg==

> <s_epik_cmdline>
J2VwaWtfcHl0aG9uJywgJy1waCcsICc3LjAnLCAnLXRuJywgJzgnLCAnLW1hJywgJzIwMCcsICctbWV0YWxfYmluZGluZycsICctaW1hZScsICc8aW5maWxlLm1hZT4nLCAnLW9tYWUnLCAnPG91dGZpbGUubWFlPic=

> <r_epik_Ionization_Penalty>
1.6537

> <r_epik_Ionization_Penalty_Charging>
0.000221913

> <r_epik_Ionization_Penalty_Neutral>
1.65348

> <r_epik_State_Penalty>
1.75577

> <r_epik_Charging_Adjusted_Penalty>
1.75599

> <i_epik_Tot_Q>
-1

> <i_epik_Tot_abs_Q>
1

> <r_epik_Metal_State_Penalty>
1.75577

> <b_epik_Metal_Only>
0

> <s_lp_Force_Field>
OPLS_2005

> <r_lp_Energy>
35.559

> <b_lp_Chiralities_Consistent>
1

> <s_lp_Variant>
AV-unprocessed.smi:52-6

> <Gold.Version>
5.8.1

> <Gold.Id.Protein>
6NUR|6NUR_protein|mol2

> <Gold.PLP.Fitness>
42.3181

> <Gold.PLP.PLP>
-30.3887

> <Gold.PLP.part.hbond>
-4.9493

> <Gold.PLP.part.metal>
0.0000

> <Gold.PLP.part.buried>
-3.4368

> <Gold.PLP.part.nonpolar>
-21.8775

> <Gold.PLP.part.repulsive>
0.1058

> <Gold.PLP.ligand.clash>
0.0000

> <Gold.PLP.ligand.torsion>
0.5524

> <Gold.PLP.Chemscore.Hbond>
4.3440

> <Gold.PLP.Chemscore.CHOScore>
0.0000

> <Gold.PLP.Chemscore.Metal>
0.0000

> <Gold.Chemscore.Hbonds>
donor molecule, donor type, donor heavy atom, donor atom, acceptor molecule, acceptor atom, score
      P1  H  7989  7998       L1     6  1.00
      P1  H  7997  8009       L1     1  0.20
      P1  H 10752 10765       L1     3  1.62

> <Gold.PLP.Chemscore.Internal.Correction>
0.0021

> <Gold.Rescore>
     Score         DG    S(hbond)    S(metal)    S(lipo)     H(rot)  DE(clash)    DE(int)     intcor
     13.44     -14.19       1.68        0.00      69.31       1.95       0.09       0.66       ----

> <Gold.Chemscore.Fitness>
13.4449

> <Gold.Chemscore.DG>
-14.1925

> <Gold.Chemscore.ZeroCoef>
-5.4800

> <Gold.Chemscore.Hbond>
1.6751

> <Gold.Chemscore.Metal>
0.0000

> <Gold.Chemscore.Lipo>
69.3084

> <Gold.Chemscore.Internal_Hbond>
0.0000

> <Gold.Chemscore.DEClash>
0.0922

> <Gold.Chemscore.DEInternal>
0.6555

> <Gold.Chemscore.Rot>
1.9497

> <Gold.Chemscore.Internal.Correction>
   9.000000E+99

> <Gold.Chemscore.Hbonds>
donor molecule, donor type, donor heavy atom, donor atom, acceptor molecule, acceptor atom, score
      P1  H  7989  7998       L1     6  0.43
      P1  H  7997  8009       L1     1  0.05
      P1  H 10752 10765       L1     3  0.76

> <Gold.Chemscore.Hbond.Weighted>
-5.5947

> <Gold.Chemscore.Metal.Weighted>
-0.0000

> <Gold.Chemscore.Lipo.Weighted>
-8.1091

> <Gold.Chemscore.Internal_Hbond.Weighted>
0.0000

> <Gold.Chemscore.DEClash.Weighted>
0.0922

> <Gold.Chemscore.DEInternal.Weighted>
0.6555

> <Gold.Chemscore.Rot.Weighted>
4.9912

> <Gold.Chemscore.Internal.Correction.Weighted>
   9.000000E+99

> <Gold.Protein.RotatedTorsions>
[ 6907 6896 6895 6894 ] final   16.25 input  -60.11 | X-H torsion
[ 7974 7965 7964 7962 ] final    1.54 input  175.53 | X-H torsion
[ 8008 7997 7996 7995 ] final  152.12 input   59.86 | X-H torsion
[ 10167 10162 10161 10158 ] final  -21.89 input  -65.29 | X-H torsion
[ 10718 10713 10712 10709 ] final  138.93 input   66.30 | X-H torsion
[ 10763 10752 10751 10750 ] final -136.84 input  -60.55 | X-H torsion
[ 11005 11000 10999 10996 ] final  -51.04 input  -57.11 | X-H torsion

> <Gold.Protein.ActiveResidues>
 VAL166  LYS551  ARG553  GLY616  TRP617  ASP618  TYR619  PRO620  LYS621  CYS622 
 ASP623  PHE694  ASN695  SER759  ASP760  ASP761  ALA762  ILE779  LEU786  VAL792 
 PHE793  MET794  SER795  GLU796  ALA797  LYS798  CYS799  TRP800  GLU811  SER814 

> <Gold.Protein.RotatedAtoms>
  151.8310  135.0621  160.0436 H   0  0  0  0  0  0  0  0  0  0  0  0  # atno 6907 bound_to 6896
  152.2880  133.5529  159.5548 H   0  0  0  0  0  0  0  0  0  0  0  0  # atno 6908 bound_to 6896
  150.7218  134.0385  159.3800 H   0  0  0  0  0  0  0  0  0  0  0  0  # atno 6909 bound_to 6896
  146.2440  140.0972  142.8349 H   0  0  0  0  0  0  0  0  0  0  0  0  # atno 7974 bound_to 7965
  156.2643  140.2029  156.6283 H   0  0  0  0  0  0  0  0  0  0  0  0  # atno 8008 bound_to 7997
  154.6703  140.0551  157.0182 H   0  0  0  0  0  0  0  0  0  0  0  0  # atno 8009 bound_to 7997
  155.1147  140.3219  155.4515 H   0  0  0  0  0  0  0  0  0  0  0  0  # atno 8010 bound_to 7997
  140.7284  143.4586  151.0413 H   0  0  0  0  0  0  0  0  0  0  0  0  # atno 10167 bound_to 10162
  157.4199  131.1037  151.0364 H   0  0  0  0  0  0  0  0  0  0  0  0  # atno 10718 bound_to 10713
  154.8675  135.3660  154.5127 H   0  0  0  0  0  0  0  0  0  0  0  0  # atno 10763 bound_to 10752
  153.5761  135.7019  153.5488 H   0  0  0  0  0  0  0  0  0  0  0  0  # atno 10764 bound_to 10752
  153.3499  135.4075  155.1600 H   0  0  0  0  0  0  0  0  0  0  0  0  # atno 10765 bound_to 10752
  141.0849  133.6645  156.3819 H   0  0  0  0  0  0  0  0  0  0  0  0  # atno 11005 bound_to 11000
  145.0600  140.9080  143.4944 LP  0  0  0  0  0  0  0  0  0  0  0  0  # atno 17320 bound_to 7965
  145.1085  139.2773  143.5649 LP  0  0  0  0  0  0  0  0  0  0  0  0  # atno 17321 bound_to 7965
  139.8268  143.7745  152.3179 LP  0  0  0  0  0  0  0  0  0  0  0  0  # atno 17342 bound_to 10162
  139.7846  144.7432  151.0039 LP  0  0  0  0  0  0  0  0  0  0  0  0  # atno 17343 bound_to 10162
  157.1298  130.6097  149.5526 LP  0  0  0  0  0  0  0  0  0  0  0  0  # atno 17370 bound_to 10713
  155.9877  130.4918  150.7138 LP  0  0  0  0  0  0  0  0  0  0  0  0  # atno 17371 bound_to 10713
  140.5385  134.6143  157.5372 LP  0  0  0  0  0  0  0  0  0  0  0  0  # atno 17394 bound_to 11000
  139.9666  134.7362  156.0125 LP  0  0  0  0  0  0  0  0  0  0  0  0  # atno 17395 bound_to 11000

$$$$
