AV-unprocessed.smi:2858|AV-procd|sdf|11003|dock4
  -GOLD-   2272015463D 1   1.00000     0.00000
 Structure written by MMmdl.
 39 40  0  0  0  0  0  0  0  0  3 V2000
  145.8642  134.4549  154.1844 O   0  0  0  0  0  0  0  0  0  0  0  0
  147.0907  134.4742  154.2600 C   0  0  0  0  0  0  0  0  0  0  0  0
  147.7342  135.7358  154.8974 C   0  0  0  0  0  0  0  0  0  0  0  0
  149.1735  135.8832  154.5332 N   0  3  1  0  0  0  0  0  0  0  0  0
  149.8318  137.0421  155.1884 C   0  0  0  0  0  0  0  0  0  0  0  0
  151.1365  137.4604  154.4893 C   0  0  0  0  0  0  0  0  0  0  0  0
  152.1284  138.1276  155.4570 C   0  0  0  0  0  0  0  0  0  0  0  0
  151.6348  139.4138  155.9360 N   0  0  0  0  0  0  0  0  0  0  0  0
  152.1422  140.0930  156.9751 C   0  0  0  0  0  0  0  0  0  0  0  0
  153.0988  139.6953  157.6409 O   0  0  0  0  0  0  0  0  0  0  0  0
  151.4715  141.2401  157.1826 N   0  0  0  0  0  0  0  0  0  0  0  0
  151.7206  142.2377  158.1628 C   0  0  0  0  0  0  0  0  0  0  0  0
  151.4421  143.5615  157.7537 C   0  0  0  0  0  0  0  0  0  0  0  0
  151.6594  144.6244  158.6521 C   0  0  0  0  0  0  0  0  0  0  0  0
  152.1502  144.3357  159.9379 C   0  0  0  0  0  0  0  0  0  0  0  0
  152.4024  142.9906  160.2646 C   0  0  0  0  0  0  0  0  0  0  0  0
  152.1956  141.9705  159.4050 N   0  0  0  0  0  0  0  0  0  0  0  0
  149.9263  134.6182  154.7355 C   0  0  0  0  0  0  0  0  0  0  0  0
  149.3895  133.5166  153.8021 C   0  0  0  0  0  0  0  0  0  0  0  0
  147.9253  133.4603  153.8719 N   0  5  0  0  0  0  0  0  0  0  0  0
  147.1708  136.6086  154.5693 H   0  0  0  0  0  0  0  0  0  0  0  0
  147.6300  135.6685  155.9812 H   0  0  0  0  0  0  0  0  0  0  0  0
  149.1368  137.8812  155.2419 H   0  0  0  0  0  0  0  0  0  0  0  0
  150.0724  136.7727  156.2177 H   0  0  0  0  0  0  0  0  0  0  0  0
  151.5982  136.5803  154.0396 H   0  0  0  0  0  0  0  0  0  0  0  0
  150.9246  138.1522  153.6742 H   0  0  0  0  0  0  0  0  0  0  0  0
  152.2912  137.4857  156.3232 H   0  0  0  0  0  0  0  0  0  0  0  0
  153.1012  138.2582  154.9800 H   0  0  0  0  0  0  0  0  0  0  0  0
  150.8474  139.8118  155.4450 H   0  0  0  0  0  0  0  0  0  0  0  0
  150.6937  141.4237  156.5662 H   0  0  0  0  0  0  0  0  0  0  0  0
  151.0638  143.7658  156.7624 H   0  0  0  0  0  0  0  0  0  0  0  0
  151.4522  145.6430  158.3591 H   0  0  0  0  0  0  0  0  0  0  0  0
  152.3285  145.1234  160.6548 H   0  0  0  0  0  0  0  0  0  0  0  0
  152.7805  142.7262  161.2410 H   0  0  0  0  0  0  0  0  0  0  0  0
  150.9873  134.7674  154.5321 H   0  0  0  0  0  0  0  0  0  0  0  0
  149.8444  134.3096  155.7792 H   0  0  0  0  0  0  0  0  0  0  0  0
  149.7193  133.7314  152.7854 H   0  0  0  0  0  0  0  0  0  0  0  0
  149.8471  132.5639  154.0679 H   0  0  0  0  0  0  0  0  0  0  0  0
  149.2008  136.0536  153.5381 H   0  0  0  0  0  0  0  0  0  0  0  0
  1  2  2  0  0  0  0
  2 20  1  0  0  0  0
  2  3  1  0  0  0  0
  3  4  1  0  0  0  0
  3 21  1  0  0  0  0
  3 22  1  0  0  0  0
  4  5  1  0  0  0  0
  4 18  1  0  0  0  0
  4 39  1  0  0  0  0
  5  6  1  0  0  0  0
  5 23  1  0  0  0  0
  5 24  1  0  0  0  0
  6  7  1  0  0  0  0
  6 25  1  0  0  0  0
  6 26  1  0  0  0  0
  7  8  1  0  0  0  0
  7 27  1  0  0  0  0
  7 28  1  0  0  0  0
  8  9  1  0  0  0  0
  8 29  1  0  0  0  0
  9 10  2  0  0  0  0
  9 11  1  0  0  0  0
 11 12  1  0  0  0  0
 11 30  1  0  0  0  0
 12 17  1  0  0  0  0
 12 13  2  0  0  0  0
 13 14  1  0  0  0  0
 13 31  1  0  0  0  0
 14 15  2  0  0  0  0
 14 32  1  0  0  0  0
 15 16  1  0  0  0  0
 15 33  1  0  0  0  0
 16 17  2  0  0  0  0
 16 34  1  0  0  0  0
 18 19  1  0  0  0  0
 18 35  1  0  0  0  0
 18 36  1  0  0  0  0
 19 20  1  0  0  0  0
 19 37  1  0  0  0  0
 19 38  1  0  0  0  0
M  CHG  1   4   1
M  CHG  1  20  -1
M  END
> <s_m_source_file>
AV-unprocessed.smi

> <i_m_source_file_index>
2858

> <i_lp_mmshare_version>
43012

> <i_f3d_flags>
0

> <s_epik_input>
Tz1DMVtDSDJdTihbQ0gyXVtDSDJdW05IXTEpW0NIMl1bQ0gyXVtDSDJdW05IXUMoPU8pW05IXWMyW2NIXVtjSF1bY0hdW2NIXW4y

> <s_epik_cmdline>
J2VwaWtfcHl0aG9uJywgJy1waCcsICc3LjAnLCAnLXRuJywgJzgnLCAnLW1hJywgJzIwMCcsICctbWV0YWxfYmluZGluZycsICctaW1hZScsICc8aW5maWxlLm1hZT4nLCAnLW9tYWUnLCAnPG91dGZpbGUubWFlPic=

> <r_epik_Ionization_Penalty>
5.09835

> <r_epik_Ionization_Penalty_Charging>
5.09831

> <r_epik_Ionization_Penalty_Neutral>
4.20822e-05

> <r_epik_State_Penalty>
5.19693

> <r_epik_Charging_Adjusted_Penalty>
10.2952

> <i_epik_Tot_Q>
0

> <i_epik_Tot_abs_Q>
2

> <r_epik_Metal_State_Penalty>
1.27693

> <b_epik_Metal_Only>
1

> <s_lp_Force_Field>
OPLS_2005

> <r_lp_Energy>
14.6847

> <b_lp_Chiralities_Consistent>
1

> <s_lp_Variant>
AV-unprocessed.smi:2858-5

> <Gold.Version>
5.8.1

> <Gold.Id.Protein>
6NUR|6NUR_protein|mol2

> <Gold.PLP.Fitness>
42.8648

> <Gold.PLP.PLP>
-35.0219

> <Gold.PLP.part.hbond>
-2.0000

> <Gold.PLP.part.metal>
0.0000

> <Gold.PLP.part.buried>
-3.7146

> <Gold.PLP.part.nonpolar>
-29.3965

> <Gold.PLP.part.repulsive>
0.4047

> <Gold.PLP.ligand.clash>
0.0000

> <Gold.PLP.ligand.torsion>
0.6050

> <Gold.PLP.Chemscore.Hbond>
3.0000

> <Gold.PLP.Chemscore.CHOScore>
0.0000

> <Gold.PLP.Chemscore.Metal>
0.0000

> <Gold.Chemscore.Hbonds>
donor molecule, donor type, donor heavy atom, donor atom, acceptor molecule, acceptor atom, score
      L1  H     4    39       P1  7948  2.00
      P1  H  7997  8010       L1    10  1.00

> <Gold.PLP.Chemscore.Internal.Correction>
0.0529

> <Gold.Rescore>
     Score         DG    S(hbond)    S(metal)    S(lipo)     H(rot)  DE(clash)    DE(int)     intcor
     14.76     -16.31       1.98        0.00      80.16       2.02       0.00       1.55       ----

> <Gold.Chemscore.Fitness>
14.7551

> <Gold.Chemscore.DG>
-16.3090

> <Gold.Chemscore.ZeroCoef>
-5.4800

> <Gold.Chemscore.Hbond>
1.9833

> <Gold.Chemscore.Metal>
0.0000

> <Gold.Chemscore.Lipo>
80.1641

> <Gold.Chemscore.Internal_Hbond>
0.0000

> <Gold.Chemscore.DEClash>
0.0044

> <Gold.Chemscore.DEInternal>
1.5496

> <Gold.Chemscore.Rot>
2.0213

> <Gold.Chemscore.Internal.Correction>
   9.000000E+99

> <Gold.Chemscore.Hbonds>
donor molecule, donor type, donor heavy atom, donor atom, acceptor molecule, acceptor atom, score
      L1  H     4    39       P1  7948  0.85
      P1  H  7997  8010       L1    10  0.39

> <Gold.Chemscore.Hbond.Weighted>
-6.6242

> <Gold.Chemscore.Metal.Weighted>
-0.0000

> <Gold.Chemscore.Lipo.Weighted>
-9.3792

> <Gold.Chemscore.Internal_Hbond.Weighted>
0.0000

> <Gold.Chemscore.DEClash.Weighted>
0.0044

> <Gold.Chemscore.DEInternal.Weighted>
1.5496

> <Gold.Chemscore.Rot.Weighted>
5.1744

> <Gold.Chemscore.Internal.Correction.Weighted>
   9.000000E+99

> <Gold.Protein.RotatedTorsions>
[ 6907 6896 6895 6894 ] final  140.56 input  -60.11 | X-H torsion
[ 7974 7965 7964 7962 ] final  164.36 input  175.53 | X-H torsion
[ 8008 7997 7996 7995 ] final   58.70 input   59.86 | X-H torsion
[ 10167 10162 10161 10158 ] final  138.37 input  -65.29 | X-H torsion
[ 10718 10713 10712 10709 ] final   91.13 input   66.30 | X-H torsion
[ 10763 10752 10751 10750 ] final  -73.64 input  -60.55 | X-H torsion
[ 11005 11000 10999 10996 ] final -144.98 input  -57.11 | X-H torsion

> <Gold.Protein.ActiveResidues>
 VAL166  LYS551  ARG553  GLY616  TRP617  ASP618  TYR619  PRO620  LYS621  CYS622 
 ASP623  PHE694  ASN695  SER759  ASP760  ASP761  ALA762  ILE779  LEU786  VAL792 
 PHE793  MET794  SER795  GLU796  ALA797  LYS798  CYS799  TRP800  GLU811  SER814 

> <Gold.Protein.RotatedAtoms>
  152.2416  133.5140  159.5272 H   0  0  0  0  0  0  0  0  0  0  0  0  # atno 6907 bound_to 6896
  150.7066  134.1081  159.3999 H   0  0  0  0  0  0  0  0  0  0  0  0  # atno 6908 bound_to 6896
  151.9002  135.0381  160.0556 H   0  0  0  0  0  0  0  0  0  0  0  0  # atno 6909 bound_to 6896
  144.7548  139.8315  143.6353 H   0  0  0  0  0  0  0  0  0  0  0  0  # atno 7974 bound_to 7965
  155.5543  140.3487  155.4476 H   0  0  0  0  0  0  0  0  0  0  0  0  # atno 8008 bound_to 7997
  156.0560  140.1329  157.0021 H   0  0  0  0  0  0  0  0  0  0  0  0  # atno 8009 bound_to 7997
  154.4457  140.0995  156.6432 H   0  0  0  0  0  0  0  0  0  0  0  0  # atno 8010 bound_to 7997
  139.5113  144.6357  151.5702 H   0  0  0  0  0  0  0  0  0  0  0  0  # atno 10167 bound_to 10162
  157.6960  131.0396  150.3683 H   0  0  0  0  0  0  0  0  0  0  0  0  # atno 10718 bound_to 10713
  154.4622  135.5890  153.6264 H   0  0  0  0  0  0  0  0  0  0  0  0  # atno 10763 bound_to 10752
  152.9824  135.6047  154.3471 H   0  0  0  0  0  0  0  0  0  0  0  0  # atno 10764 bound_to 10752
  154.3344  135.2842  155.2434 H   0  0  0  0  0  0  0  0  0  0  0  0  # atno 10765 bound_to 10752
  140.7969  134.2903  157.4993 H   0  0  0  0  0  0  0  0  0  0  0  0  # atno 11005 bound_to 11000
  146.1546  139.4639  143.0027 LP  0  0  0  0  0  0  0  0  0  0  0  0  # atno 17320 bound_to 7965
  145.6816  141.0189  143.1603 LP  0  0  0  0  0  0  0  0  0  0  0  0  # atno 17321 bound_to 7965
  140.6105  143.9444  150.6450 LP  0  0  0  0  0  0  0  0  0  0  0  0  # atno 17342 bound_to 10162
  140.2685  143.3472  152.1259 LP  0  0  0  0  0  0  0  0  0  0  0  0  # atno 17343 bound_to 10162
  156.4111  130.3934  149.6891 LP  0  0  0  0  0  0  0  0  0  0  0  0  # atno 17370 bound_to 10713
  156.4174  130.7752  151.2768 LP  0  0  0  0  0  0  0  0  0  0  0  0  # atno 17371 bound_to 10713
  139.8725  134.9407  156.3776 LP  0  0  0  0  0  0  0  0  0  0  0  0  # atno 17394 bound_to 11000
  140.9334  133.7564  156.0053 LP  0  0  0  0  0  0  0  0  0  0  0  0  # atno 17395 bound_to 11000

$$$$
