AV-unprocessed.smi:2476|AV-procd|sdf|9758|dock1
  -GOLD-   2272013403D 1   1.00000     0.00000
 Structure written by MMmdl.
 34 35  0  0  0  0  0  0  0  0  1 V2000
  149.0737  133.2292  153.0934 C   0  0  0  0  0  0  0  0  0  0  0  0
  149.4421  133.8399  154.4415 C   0  0  0  0  0  0  0  0  0  0  0  0
  149.8032  133.1125  155.3660 O   0  0  0  0  0  0  0  0  0  0  0  0
  149.3465  135.1743  154.5418 N   0  0  0  0  0  0  0  0  0  0  0  0
  149.6594  135.9500  155.7376 C   0  0  0  0  0  0  0  0  0  0  0  0
  150.3799  137.2713  155.4118 C   0  0  1  0  0  0  0  0  0  0  0  0
  150.6903  138.1154  156.6667 C   0  0  0  0  0  0  0  0  0  0  0  0
  151.4584  139.2983  156.2993 N   0  0  0  0  0  0  0  0  0  0  0  0
  151.6738  140.1825  157.3668 C   0  0  0  0  0  0  0  0  0  0  0  0
  152.2913  139.7088  158.4768 N   0  0  0  0  0  0  0  0  0  0  0  0
  152.5025  140.5590  159.5046 C   0  0  0  0  0  0  0  0  0  0  0  0
  152.1127  141.9124  159.4813 C   0  0  0  0  0  0  0  0  0  0  0  0
  151.4703  142.4027  158.3285 C   0  0  0  0  0  0  0  0  0  0  0  0
  151.2459  141.5238  157.2510 C   0  0  0  0  0  0  0  0  0  0  0  0
  150.6309  141.9644  156.1270 F   0  0  0  0  0  0  0  0  0  0  0  0
  152.6707  138.9689  155.5614 C   0  0  0  0  0  0  0  0  0  0  0  0
  152.3198  138.1079  154.3370 C   0  0  0  0  0  0  0  0  0  0  0  0
  151.6065  136.9489  154.7591 O   0  0  0  0  0  0  0  0  0  0  0  0
  149.1208  133.9704  152.2946 H   0  0  0  0  0  0  0  0  0  0  0  0
  148.0626  132.8234  153.1279 H   0  0  0  0  0  0  0  0  0  0  0  0
  149.7598  132.4192  152.8448 H   0  0  0  0  0  0  0  0  0  0  0  0
  149.0367  135.6903  153.7312 H   0  0  0  0  0  0  0  0  0  0  0  0
  148.7254  136.1568  156.2611 H   0  0  0  0  0  0  0  0  0  0  0  0
  150.2652  135.3489  156.4179 H   0  0  0  0  0  0  0  0  0  0  0  0
  149.7622  137.8522  154.7243 H   0  0  0  0  0  0  0  0  0  0  0  0
  149.7653  138.4239  157.1553 H   0  0  0  0  0  0  0  0  0  0  0  0
  151.2535  137.5192  157.3861 H   0  0  0  0  0  0  0  0  0  0  0  0
  152.9980  140.1482  160.3720 H   0  0  0  0  0  0  0  0  0  0  0  0
  152.3020  142.5575  160.3265 H   0  0  0  0  0  0  0  0  0  0  0  0
  151.1560  143.4344  158.2715 H   0  0  0  0  0  0  0  0  0  0  0  0
  153.1725  139.8844  155.2455 H   0  0  0  0  0  0  0  0  0  0  0  0
  153.3618  138.4271  156.2088 H   0  0  0  0  0  0  0  0  0  0  0  0
  151.7243  138.6748  153.6194 H   0  0  0  0  0  0  0  0  0  0  0  0
  153.2291  137.7977  153.8226 H   0  0  0  0  0  0  0  0  0  0  0  0
  1  2  1  0  0  0  0
  1 19  1  0  0  0  0
  1 20  1  0  0  0  0
  1 21  1  0  0  0  0
  2  3  2  0  0  0  0
  2  4  1  0  0  0  0
  4  5  1  0  0  0  0
  4 22  1  0  0  0  0
  5  6  1  0  0  0  0
  5 23  1  0  0  0  0
  5 24  1  0  0  0  0
  6 18  1  0  0  0  0
  6  7  1  0  0  0  0
  6 25  1  0  0  0  0
  7  8  1  0  0  0  0
  7 26  1  0  0  0  0
  7 27  1  0  0  0  0
  8  9  1  0  0  0  0
  8 16  1  0  0  0  0
  9 14  1  0  0  0  0
  9 10  2  0  0  0  0
 10 11  1  0  0  0  0
 11 12  2  0  0  0  0
 11 28  1  0  0  0  0
 12 13  1  0  0  0  0
 12 29  1  0  0  0  0
 13 14  2  0  0  0  0
 13 30  1  0  0  0  0
 14 15  1  0  0  0  0
 16 17  1  0  0  0  0
 16 31  1  0  0  0  0
 16 32  1  0  0  0  0
 17 18  1  0  0  0  0
 17 33  1  0  0  0  0
 17 34  1  0  0  0  0
M  END
> <s_m_source_file>
AV-unprocessed.smi

> <i_m_source_file_index>
2476

> <i_lp_mmshare_version>
43012

> <i_f3d_flags>
0

> <s_epik_input>
W0NIM11DKD1PKVtOSF1bQ0gyXVtDQEBIXTFbQ0gyXU4oW0NIMl1bQ0gyXU8xKWMybltjSF1bY0hdW2NIXWMyRg==

> <s_epik_cmdline>
J2VwaWtfcHl0aG9uJywgJy1waCcsICc3LjAnLCAnLXRuJywgJzgnLCAnLW1hJywgJzIwMCcsICctbWV0YWxfYmluZGluZycsICctaW1hZScsICc8aW5maWxlLm1hZT4nLCAnLW9tYWUnLCAnPG91dGZpbGUubWFlPic=

> <r_lp_tautomer_probability>
1

> <r_epik_Ionization_Penalty>
1.69306e-05

> <r_epik_Ionization_Penalty_Charging>
0

> <r_epik_Ionization_Penalty_Neutral>
1.69306e-05

> <r_epik_State_Penalty>
-0

> <r_epik_Charging_Adjusted_Penalty>
0

> <i_epik_Tot_Q>
0

> <i_epik_Tot_abs_Q>
0

> <r_epik_Metal_State_Penalty>
-0

> <b_epik_Metal_Only>
0

> <s_lp_Force_Field>
OPLS_2005

> <r_lp_Energy>
19.3351

> <b_lp_Chiralities_Consistent>
1

> <s_lp_Variant>
AV-unprocessed.smi:2476-2

> <Gold.Version>
5.8.1

> <Gold.Id.Protein>
6NUR|6NUR_protein|mol2

> <Gold.PLP.Fitness>
35.3866

> <Gold.PLP.PLP>
-29.9000

> <Gold.PLP.part.hbond>
-2.0000

> <Gold.PLP.part.metal>
0.0000

> <Gold.PLP.part.buried>
-4.0265

> <Gold.PLP.part.nonpolar>
-23.5209

> <Gold.PLP.part.repulsive>
0.1710

> <Gold.PLP.ligand.clash>
0.0000

> <Gold.PLP.ligand.torsion>
0.3104

> <Gold.PLP.Chemscore.Hbond>
2.0000

> <Gold.PLP.Chemscore.CHOScore>
0.0000

> <Gold.PLP.Chemscore.Metal>
0.0000

> <Gold.Chemscore.Hbonds>
donor molecule, donor type, donor heavy atom, donor atom, acceptor molecule, acceptor atom, score
      L1  H     4    22       P1  7948  1.00
      P1  H 10752 10765       L1    18  1.00

> <Gold.PLP.Chemscore.Internal.Correction>
0.1074

> <Gold.Rescore>
     Score         DG    S(hbond)    S(metal)    S(lipo)     H(rot)  DE(clash)    DE(int)     intcor
     13.16     -13.53       1.33        0.00      66.01       1.61       0.17       0.21       ----

> <Gold.Chemscore.Fitness>
13.1605

> <Gold.Chemscore.DG>
-13.5340

> <Gold.Chemscore.ZeroCoef>
-5.4800

> <Gold.Chemscore.Hbond>
1.3312

> <Gold.Chemscore.Metal>
0.0000

> <Gold.Chemscore.Lipo>
66.0141

> <Gold.Chemscore.Internal_Hbond>
0.0000

> <Gold.Chemscore.DEClash>
0.1657

> <Gold.Chemscore.DEInternal>
0.2078

> <Gold.Chemscore.Rot>
1.6078

> <Gold.Chemscore.Internal.Correction>
   9.000000E+99

> <Gold.Chemscore.Hbonds>
donor molecule, donor type, donor heavy atom, donor atom, acceptor molecule, acceptor atom, score
      L1  H     4    22       P1  7948  0.84
      P1  H 10752 10765       L1    18  0.30

> <Gold.Chemscore.Hbond.Weighted>
-4.4462

> <Gold.Chemscore.Metal.Weighted>
-0.0000

> <Gold.Chemscore.Lipo.Weighted>
-7.7237

> <Gold.Chemscore.Internal_Hbond.Weighted>
0.0000

> <Gold.Chemscore.DEClash.Weighted>
0.1657

> <Gold.Chemscore.DEInternal.Weighted>
0.2078

> <Gold.Chemscore.Rot.Weighted>
4.1159

> <Gold.Chemscore.Internal.Correction.Weighted>
   9.000000E+99

> <Gold.Protein.RotatedTorsions>
[ 6907 6896 6895 6894 ] final  171.78 input  -60.11 | X-H torsion
[ 7974 7965 7964 7962 ] final -144.72 input  175.53 | X-H torsion
[ 8008 7997 7996 7995 ] final  -17.41 input   59.86 | X-H torsion
[ 10167 10162 10161 10158 ] final  149.01 input  -65.29 | X-H torsion
[ 10718 10713 10712 10709 ] final  132.25 input   66.30 | X-H torsion
[ 10763 10752 10751 10750 ] final -179.57 input  -60.55 | X-H torsion
[ 11005 11000 10999 10996 ] final -111.09 input  -57.11 | X-H torsion

> <Gold.Protein.ActiveResidues>
 VAL166  LYS551  ARG553  GLY616  TRP617  ASP618  TYR619  PRO620  LYS621  CYS622 
 ASP623  PHE694  ASN695  SER759  ASP760  ASP761  ALA762  ILE779  LEU786  VAL792 
 PHE793  MET794  SER795  GLU796  ALA797  LYS798  CYS799  TRP800  GLU811  SER814 

> <Gold.Protein.RotatedAtoms>
  151.7947  133.3363  159.3509 H   0  0  0  0  0  0  0  0  0  0  0  0  # atno 6907 bound_to 6896
  150.7379  134.5810  159.5948 H   0  0  0  0  0  0  0  0  0  0  0  0  # atno 6908 bound_to 6896
  152.3185  134.7411  160.0371 H   0  0  0  0  0  0  0  0  0  0  0  0  # atno 6909 bound_to 6896
  144.8278  140.5675  143.5535 H   0  0  0  0  0  0  0  0  0  0  0  0  # atno 7974 bound_to 7965
  154.4980  140.2143  155.9406 H   0  0  0  0  0  0  0  0  0  0  0  0  # atno 8008 bound_to 7997
  156.1396  140.3182  155.8442 H   0  0  0  0  0  0  0  0  0  0  0  0  # atno 8009 bound_to 7997
  155.4145  140.0492  157.3020 H   0  0  0  0  0  0  0  0  0  0  0  0  # atno 8010 bound_to 7997
  139.4867  144.5635  151.7188 H   0  0  0  0  0  0  0  0  0  0  0  0  # atno 10167 bound_to 10162
  157.4889  131.1089  150.9583 H   0  0  0  0  0  0  0  0  0  0  0  0  # atno 10718 bound_to 10713
  154.5334  135.2801  155.1160 H   0  0  0  0  0  0  0  0  0  0  0  0  # atno 10763 bound_to 10752
  154.2671  135.6310  153.5300 H   0  0  0  0  0  0  0  0  0  0  0  0  # atno 10764 bound_to 10752
  152.9962  135.5619  154.5853 H   0  0  0  0  0  0  0  0  0  0  0  0  # atno 10765 bound_to 10752
  141.0754  133.9310  157.2400 H   0  0  0  0  0  0  0  0  0  0  0  0  # atno 11005 bound_to 11000
  145.4963  139.1486  143.3682 LP  0  0  0  0  0  0  0  0  0  0  0  0  # atno 17320 bound_to 7965
  146.2582  140.5102  142.8864 LP  0  0  0  0  0  0  0  0  0  0  0  0  # atno 17321 bound_to 7965
  140.5209  144.0881  150.6022 LP  0  0  0  0  0  0  0  0  0  0  0  0  # atno 17342 bound_to 10162
  140.3838  143.2788  152.0139 LP  0  0  0  0  0  0  0  0  0  0  0  0  # atno 17343 bound_to 10162
  157.0291  130.5704  149.5341 LP  0  0  0  0  0  0  0  0  0  0  0  0  # atno 17370 bound_to 10713
  156.0162  130.5256  150.8142 LP  0  0  0  0  0  0  0  0  0  0  0  0  # atno 17371 bound_to 10713
  139.9566  135.0164  156.9146 LP  0  0  0  0  0  0  0  0  0  0  0  0  # atno 17394 bound_to 11000
  140.5584  134.0558  155.7391 LP  0  0  0  0  0  0  0  0  0  0  0  0  # atno 17395 bound_to 11000

$$$$
