AV-unprocessed.smi:1165|AV-procd|sdf|4933|dock8
  -GOLD-   22720 3513D 1   1.00000     0.00000
 Structure written by MMmdl.
 40 41  0  0  0  0  0  0  0  0  2 V2000
  153.8607  140.6093  159.5604 C   0  0  0  0  0  0  0  0  0  0  0  0
  154.3379  142.0647  159.7175 C   0  0  1  0  0  0  0  0  0  0  0  0
  153.3586  143.0899  159.1151 C   0  0  0  0  0  0  0  0  0  0  0  0
  152.1787  143.2673  159.9746 N   0  0  0  0  0  0  0  0  0  0  0  0
  150.7901  144.0676  159.2919 S   0  0  0  0  0  0  0  0  0  0  0  0
  149.6603  143.6790  160.1499 O   0  0  0  0  0  0  0  0  0  0  0  0
  151.1203  145.5012  159.2151 O   0  0  0  0  0  0  0  0  0  0  0  0
  150.7580  143.3220  157.8440 N   0  5  0  0  0  0  0  0  0  0  0  0
  150.5175  141.8866  157.7327 C   0  0  0  0  0  0  0  0  0  0  0  0
  149.6558  141.5809  156.4889 C   0  0  0  0  0  0  0  0  0  0  0  0
  150.3049  140.6352  155.4835 C   0  0  0  0  0  0  0  0  0  0  0  0
  151.6948  140.3878  155.5110 C   0  0  0  0  0  0  0  0  0  0  0  0
  152.2496  139.5117  154.5585 C   0  0  0  0  0  0  0  0  0  0  0  0
  151.3903  138.9204  153.6117 C   0  0  0  0  0  0  0  0  0  0  0  0
  150.0612  139.1538  153.5671 N   0  0  0  0  0  0  0  0  0  0  0  0
  149.5370  139.9932  154.4863 C   0  0  0  0  0  0  0  0  0  0  0  0
  152.5332  143.5596  161.3741 C   0  0  0  0  0  0  0  0  0  0  0  0
  153.5007  142.4974  161.9226 C   0  0  2  0  0  0  0  0  0  0  0  0
  153.9952  142.8479  163.3306 C   0  0  0  0  0  0  0  0  0  0  0  0
  154.6379  142.3907  161.0728 O   0  0  0  0  0  0  0  0  0  0  0  0
  153.7807  140.3420  158.5064 H   0  0  0  0  0  0  0  0  0  0  0  0
  152.8804  140.4455  160.0075 H   0  0  0  0  0  0  0  0  0  0  0  0
  154.5627  139.9159  160.0239 H   0  0  0  0  0  0  0  0  0  0  0  0
  155.2791  142.1469  159.1733 H   0  0  0  0  0  0  0  0  0  0  0  0
  153.8506  144.0563  158.9999 H   0  0  0  0  0  0  0  0  0  0  0  0
  153.0559  142.7688  158.1189 H   0  0  0  0  0  0  0  0  0  0  0  0
  151.4464  141.3195  157.6680 H   0  0  0  0  0  0  0  0  0  0  0  0
  149.9998  141.5084  158.6148 H   0  0  0  0  0  0  0  0  0  0  0  0
  148.7137  141.1359  156.8109 H   0  0  0  0  0  0  0  0  0  0  0  0
  149.3865  142.5100  155.9845 H   0  0  0  0  0  0  0  0  0  0  0  0
  152.3237  140.8568  156.2536 H   0  0  0  0  0  0  0  0  0  0  0  0
  153.3077  139.2961  154.5564 H   0  0  0  0  0  0  0  0  0  0  0  0
  151.7820  138.2426  152.8677 H   0  0  0  0  0  0  0  0  0  0  0  0
  148.4712  140.1574  154.4247 H   0  0  0  0  0  0  0  0  0  0  0  0
  152.9861  144.5508  161.4205 H   0  0  0  0  0  0  0  0  0  0  0  0
  151.6377  143.5932  161.9937 H   0  0  0  0  0  0  0  0  0  0  0  0
  152.9897  141.5358  161.9769 H   0  0  0  0  0  0  0  0  0  0  0  0
  153.1623  142.9322  164.0290 H   0  0  0  0  0  0  0  0  0  0  0  0
  154.5332  143.7962  163.3353 H   0  0  0  0  0  0  0  0  0  0  0  0
  154.6697  142.0798  163.7092 H   0  0  0  0  0  0  0  0  0  0  0  0
  1  2  1  0  0  0  0
  1 21  1  0  0  0  0
  1 22  1  0  0  0  0
  1 23  1  0  0  0  0
  2 20  1  0  0  0  0
  2  3  1  0  0  0  0
  2 24  1  0  0  0  0
  3  4  1  0  0  0  0
  3 25  1  0  0  0  0
  3 26  1  0  0  0  0
  4  5  1  0  0  0  0
  4 17  1  0  0  0  0
  5  6  2  0  0  0  0
  5  7  2  0  0  0  0
  5  8  1  0  0  0  0
  8  9  1  0  0  0  0
  9 10  1  0  0  0  0
  9 27  1  0  0  0  0
  9 28  1  0  0  0  0
 10 11  1  0  0  0  0
 10 29  1  0  0  0  0
 10 30  1  0  0  0  0
 11 16  1  0  0  0  0
 11 12  2  0  0  0  0
 12 13  1  0  0  0  0
 12 31  1  0  0  0  0
 13 14  2  0  0  0  0
 13 32  1  0  0  0  0
 14 15  1  0  0  0  0
 14 33  1  0  0  0  0
 15 16  2  0  0  0  0
 16 34  1  0  0  0  0
 17 18  1  0  0  0  0
 17 35  1  0  0  0  0
 17 36  1  0  0  0  0
 18 19  1  0  0  0  0
 18 20  1  0  0  0  0
 18 37  1  0  0  0  0
 19 38  1  0  0  0  0
 19 39  1  0  0  0  0
 19 40  1  0  0  0  0
M  CHG  1   8  -1
M  END
> <s_m_source_file>
AV-unprocessed.smi

> <i_m_source_file_index>
1165

> <i_lp_mmshare_version>
43012

> <i_f3d_flags>
0

> <s_epik_input>
W0NIM11bQ0BASF0xW0NIMl1OKFtDSDJdW0NASF0oTzEpW0NIM10pUyg9TykoPU8pW05IXVtDSDJdW0NIMl1jMltjSF1bY0hdW2NIXW5bY0hdMg==

> <s_epik_cmdline>
J2VwaWtfcHl0aG9uJywgJy1waCcsICc3LjAnLCAnLXRuJywgJzgnLCAnLW1hJywgJzIwMCcsICctbWV0YWxfYmluZGluZycsICctaW1hZScsICc8aW5maWxlLm1hZT4nLCAnLW9tYWUnLCAnPG91dGZpbGUubWFlPic=

> <r_epik_Ionization_Penalty>
1.23471

> <r_epik_Ionization_Penalty_Charging>
1.20871

> <r_epik_Ionization_Penalty_Neutral>
0.025996

> <r_epik_State_Penalty>
1.46261

> <r_epik_Charging_Adjusted_Penalty>
2.67132

> <i_epik_Tot_Q>
-1

> <i_epik_Tot_abs_Q>
1

> <r_epik_Metal_State_Penalty>
0.521406

> <b_epik_Metal_Only>
0

> <s_lp_Force_Field>
OPLS_2005

> <r_lp_Energy>
6.37225

> <b_lp_Chiralities_Consistent>
1

> <s_lp_Variant>
AV-unprocessed.smi:1165-6

> <Gold.Version>
5.8.1

> <Gold.Id.Protein>
6NUR|6NUR_protein|mol2

> <Gold.PLP.Fitness>
46.4622

> <Gold.PLP.PLP>
-45.1257

> <Gold.PLP.part.hbond>
-1.4949

> <Gold.PLP.part.metal>
0.0000

> <Gold.PLP.part.buried>
-4.4501

> <Gold.PLP.part.nonpolar>
-38.5858

> <Gold.PLP.part.repulsive>
1.1850

> <Gold.PLP.ligand.clash>
0.0000

> <Gold.PLP.ligand.torsion>
1.6287

> <Gold.PLP.Chemscore.Hbond>
0.0000

> <Gold.PLP.Chemscore.CHOScore>
1.0000

> <Gold.PLP.Chemscore.Metal>
0.0000

> <Gold.Chemscore.Hbonds>
donor molecule, donor type, donor heavy atom, donor atom, acceptor molecule, acceptor atom, score
      P1  H  6933  6944       L1     6  0.18
      L1  C    14    33       P1  7949  0.57

> <Gold.PLP.Chemscore.Internal.Correction>
1.5940

> <Gold.Rescore>
     Score         DG    S(hbond)    S(metal)    S(lipo)     H(rot)  DE(clash)    DE(int)     intcor
     12.19     -14.21       0.04        0.00     105.62       1.47       0.55       1.47       ----

> <Gold.Chemscore.Fitness>
12.1897

> <Gold.Chemscore.DG>
-14.2103

> <Gold.Chemscore.ZeroCoef>
-5.4800

> <Gold.Chemscore.Hbond>
0.0432

> <Gold.Chemscore.Metal>
0.0000

> <Gold.Chemscore.Lipo>
105.6181

> <Gold.Chemscore.Internal_Hbond>
0.0000

> <Gold.Chemscore.DEClash>
0.5524

> <Gold.Chemscore.DEInternal>
1.4682

> <Gold.Chemscore.Rot>
1.4731

> <Gold.Chemscore.Internal.Correction>
   9.000000E+99

> <Gold.Chemscore.Hbonds>
donor molecule, donor type, donor heavy atom, donor atom, acceptor molecule, acceptor atom, score
      P1  H  6933  6944       L1     6  0.18

> <Gold.Chemscore.Hbond.Weighted>
-0.1442

> <Gold.Chemscore.Metal.Weighted>
-0.0000

> <Gold.Chemscore.Lipo.Weighted>
-12.3573

> <Gold.Chemscore.Internal_Hbond.Weighted>
0.0000

> <Gold.Chemscore.DEClash.Weighted>
0.5524

> <Gold.Chemscore.DEInternal.Weighted>
1.4682

> <Gold.Chemscore.Rot.Weighted>
3.7712

> <Gold.Chemscore.Internal.Correction.Weighted>
   9.000000E+99

> <Gold.Protein.RotatedTorsions>
[ 6907 6896 6895 6894 ] final   44.32 input  -60.11 | X-H torsion
[ 7974 7965 7964 7962 ] final   98.37 input  175.53 | X-H torsion
[ 8008 7997 7996 7995 ] final   14.07 input   59.86 | X-H torsion
[ 10167 10162 10161 10158 ] final  -99.64 input  -65.29 | X-H torsion
[ 10718 10713 10712 10709 ] final   35.29 input   66.30 | X-H torsion
[ 10763 10752 10751 10750 ] final   54.35 input  -60.55 | X-H torsion
[ 11005 11000 10999 10996 ] final -130.03 input  -57.11 | X-H torsion

> <Gold.Protein.ActiveResidues>
 VAL166  LYS551  ARG553  GLY616  TRP617  ASP618  TYR619  PRO620  LYS621  CYS622 
 ASP623  PHE694  ASN695  SER759  ASP760  ASP761  ALA762  ILE779  LEU786  VAL792 
 PHE793  MET794  SER795  GLU796  ALA797  LYS798  CYS799  TRP800  GLU811  SER814 

> <Gold.Protein.RotatedAtoms>
  152.2310  134.8321  160.0473 H   0  0  0  0  0  0  0  0  0  0  0  0  # atno 6907 bound_to 6896
  151.9070  133.3547  159.3858 H   0  0  0  0  0  0  0  0  0  0  0  0  # atno 6908 bound_to 6896
  150.7026  134.4696  159.5463 H   0  0  0  0  0  0  0  0  0  0  0  0  # atno 6909 bound_to 6896
  145.4131  139.2331  143.3237 H   0  0  0  0  0  0  0  0  0  0  0  0  # atno 7974 bound_to 7965
  154.8433  140.2918  155.5645 H   0  0  0  0  0  0  0  0  0  0  0  0  # atno 8008 bound_to 7997
  156.3013  140.2510  156.3311 H   0  0  0  0  0  0  0  0  0  0  0  0  # atno 8009 bound_to 7997
  154.9101  140.0389  157.1931 H   0  0  0  0  0  0  0  0  0  0  0  0  # atno 8010 bound_to 7997
  140.2603  143.3412  152.0632 H   0  0  0  0  0  0  0  0  0  0  0  0  # atno 10167 bound_to 10162
  157.3209  130.7447  149.6784 H   0  0  0  0  0  0  0  0  0  0  0  0  # atno 10718 bound_to 10713
  152.9804  135.5748  154.4890 H   0  0  0  0  0  0  0  0  0  0  0  0  # atno 10763 bound_to 10752
  154.4427  135.2776  155.1838 H   0  0  0  0  0  0  0  0  0  0  0  0  # atno 10764 bound_to 10752
  154.3499  135.6211  153.5691 H   0  0  0  0  0  0  0  0  0  0  0  0  # atno 10765 bound_to 10752
  140.9381  134.1230  157.4175 H   0  0  0  0  0  0  0  0  0  0  0  0  # atno 11005 bound_to 11000
  146.2695  140.4845  142.8820 LP  0  0  0  0  0  0  0  0  0  0  0  0  # atno 17320 bound_to 7965
  144.8295  140.6684  143.6300 LP  0  0  0  0  0  0  0  0  0  0  0  0  # atno 17321 bound_to 7965
  139.5019  144.6723  151.6213 LP  0  0  0  0  0  0  0  0  0  0  0  0  # atno 17342 bound_to 10162
  140.5971  143.9676  150.6362 LP  0  0  0  0  0  0  0  0  0  0  0  0  # atno 17343 bound_to 10162
  155.9686  130.4223  150.4512 LP  0  0  0  0  0  0  0  0  0  0  0  0  # atno 17370 bound_to 10713
  157.2527  131.0550  151.2369 LP  0  0  0  0  0  0  0  0  0  0  0  0  # atno 17371 bound_to 10713
  139.8813  135.0027  156.6145 LP  0  0  0  0  0  0  0  0  0  0  0  0  # atno 17394 bound_to 11000
  140.7772  133.8690  155.8538 LP  0  0  0  0  0  0  0  0  0  0  0  0  # atno 17395 bound_to 11000

$$$$
