AV-unprocessed.smi:2928|AV-procd|sdf|11235|dock4
  -GOLD-   2272016133D 1   1.00000     0.00000
 Structure written by MMmdl.
 56 59  0  0  0  0  0  0  0  0  3 V2000
  150.0453  141.0311  156.7064 C   0  0  0  0  0  0  0  0  0  0  0  0
  150.4854  139.6849  156.2685 N   0  3  2  0  0  0  0  0  0  0  0  0
  150.6318  139.5238  154.8020 C   0  0  2  0  0  0  0  0  0  0  0  0
  149.2542  139.5333  154.0911 C   0  0  0  0  0  0  0  0  0  0  0  0
  148.2213  138.5624  154.6934 C   0  0  0  0  0  0  0  0  0  0  0  0
  148.2666  138.5217  156.2316 C   0  0  0  0  0  0  0  0  0  0  0  0
  149.6966  138.5609  156.8266 C   0  0  1  0  0  0  0  0  0  0  0  0
  150.5070  137.2518  156.6807 C   0  0  0  0  0  0  0  0  0  0  0  0
  151.1286  136.9943  155.2798 C   0  0  1  0  0  0  0  0  0  0  0  0
  150.3219  136.1064  154.4470 N   0  0  0  0  0  0  0  0  0  0  0  0
  150.1206  134.7975  154.6551 C   0  0  0  0  0  0  0  0  0  0  0  0
  150.6258  134.1676  155.5836 O   0  0  0  0  0  0  0  0  0  0  0  0
  149.2820  134.2889  153.7384 N   0  0  0  0  0  0  0  0  0  0  0  0
  148.7392  132.9751  153.6807 C   0  0  0  0  0  0  0  0  0  0  0  0
  149.4200  131.8428  154.1953 C   0  0  0  0  0  0  0  0  0  0  0  0
  148.8307  130.5672  154.0878 C   0  0  0  0  0  0  0  0  0  0  0  0
  147.5765  130.4424  153.4616 C   0  0  0  0  0  0  0  0  0  0  0  0
  146.9622  131.5379  152.9682 N   0  3  0  0  0  0  0  0  0  0  0  0
  147.4863  132.7858  153.0446 C   0  0  0  0  0  0  0  0  0  0  0  0
  146.7661  133.8632  152.5003 N   0  0  0  0  0  0  0  0  0  0  0  0
  146.4447  133.7508  151.0877 C   0  0  0  0  0  0  0  0  0  0  0  0
  145.3695  134.8099  150.8302 C   0  0  0  0  0  0  0  0  0  0  0  0
  144.7606  135.0983  152.2082 C   0  0  0  0  0  0  0  0  0  0  0  0
  145.5180  134.1820  153.1725 C   0  0  0  0  0  0  0  0  0  0  0  0
  151.5161  138.2866  154.5170 C   0  0  0  0  0  0  0  0  0  0  0  0
  149.0442  141.2756  156.3529 H   0  0  0  0  0  0  0  0  0  0  0  0
  150.7301  141.7939  156.3350 H   0  0  0  0  0  0  0  0  0  0  0  0
  150.0430  141.0939  157.7949 H   0  0  0  0  0  0  0  0  0  0  0  0
  151.1870  140.3853  154.4279 H   0  0  0  0  0  0  0  0  0  0  0  0
  148.8435  140.5421  154.1426 H   0  0  0  0  0  0  0  0  0  0  0  0
  149.3777  139.3279  153.0274 H   0  0  0  0  0  0  0  0  0  0  0  0
  147.2212  138.8518  154.3695 H   0  0  0  0  0  0  0  0  0  0  0  0
  148.3538  137.5663  154.2861 H   0  0  0  0  0  0  0  0  0  0  0  0
  147.7067  139.3759  156.6131 H   0  0  0  0  0  0  0  0  0  0  0  0
  147.7326  137.6426  156.5937 H   0  0  0  0  0  0  0  0  0  0  0  0
  149.5888  138.7327  157.8987 H   0  0  0  0  0  0  0  0  0  0  0  0
  151.3352  137.3129  157.3882 H   0  0  0  0  0  0  0  0  0  0  0  0
  149.9149  136.4011  157.0191 H   0  0  0  0  0  0  0  0  0  0  0  0
  152.0603  136.4482  155.4413 H   0  0  0  0  0  0  0  0  0  0  0  0
  149.8644  136.5301  153.6531 H   0  0  0  0  0  0  0  0  0  0  0  0
  148.8891  134.9486  153.0831 H   0  0  0  0  0  0  0  0  0  0  0  0
  150.3907  131.9293  154.6593 H   0  0  0  0  0  0  0  0  0  0  0  0
  149.3372  129.6962  154.4771 H   0  0  0  0  0  0  0  0  0  0  0  0
  147.0525  129.5058  153.3361 H   0  0  0  0  0  0  0  0  0  0  0  0
  147.3274  133.9173  150.4693 H   0  0  0  0  0  0  0  0  0  0  0  0
  146.0557  132.7574  150.8601 H   0  0  0  0  0  0  0  0  0  0  0  0
  145.8192  135.7177  150.4261 H   0  0  0  0  0  0  0  0  0  0  0  0
  144.6263  134.4603  150.1127 H   0  0  0  0  0  0  0  0  0  0  0  0
  144.9221  136.1439  152.4735 H   0  0  0  0  0  0  0  0  0  0  0  0
  143.6868  134.9108  152.2363 H   0  0  0  0  0  0  0  0  0  0  0  0
  144.9406  133.2754  153.3595 H   0  0  0  0  0  0  0  0  0  0  0  0
  145.7002  134.6698  154.1306 H   0  0  0  0  0  0  0  0  0  0  0  0
  151.5827  138.1018  153.4439 H   0  0  0  0  0  0  0  0  0  0  0  0
  152.5314  138.5459  154.8212 H   0  0  0  0  0  0  0  0  0  0  0  0
  151.4154  139.5838  156.6501 H   0  0  0  0  0  0  0  0  0  0  0  0
  146.0556  131.4202  152.5153 H   0  0  0  0  0  0  0  0  0  0  0  0
  1  2  1  0  0  0  0
  1 26  1  0  0  0  0
  1 27  1  0  0  0  0
  1 28  1  0  0  0  0
  2  7  1  0  0  0  0
  2  3  1  0  0  0  0
  2 55  1  0  0  0  0
  3 25  1  0  0  0  0
  3  4  1  0  0  0  0
  3 29  1  0  0  0  0
  4  5  1  0  0  0  0
  4 30  1  0  0  0  0
  4 31  1  0  0  0  0
  5  6  1  0  0  0  0
  5 32  1  0  0  0  0
  5 33  1  0  0  0  0
  6  7  1  0  0  0  0
  6 34  1  0  0  0  0
  6 35  1  0  0  0  0
  7  8  1  0  0  0  0
  7 36  1  0  0  0  0
  8  9  1  0  0  0  0
  8 37  1  0  0  0  0
  8 38  1  0  0  0  0
  9 10  1  0  0  0  0
  9 25  1  0  0  0  0
  9 39  1  0  0  0  0
 10 11  1  0  0  0  0
 10 40  1  0  0  0  0
 11 12  2  0  0  0  0
 11 13  1  0  0  0  0
 13 14  1  0  0  0  0
 13 41  1  0  0  0  0
 14 19  1  0  0  0  0
 14 15  2  0  0  0  0
 15 16  1  0  0  0  0
 15 42  1  0  0  0  0
 16 17  2  0  0  0  0
 16 43  1  0  0  0  0
 17 18  1  0  0  0  0
 17 44  1  0  0  0  0
 18 19  2  0  0  0  0
 18 56  1  0  0  0  0
 19 20  1  0  0  0  0
 20 24  1  0  0  0  0
 20 21  1  0  0  0  0
 21 22  1  0  0  0  0
 21 45  1  0  0  0  0
 21 46  1  0  0  0  0
 22 23  1  0  0  0  0
 22 47  1  0  0  0  0
 22 48  1  0  0  0  0
 23 24  1  0  0  0  0
 23 49  1  0  0  0  0
 23 50  1  0  0  0  0
 24 51  1  0  0  0  0
 24 52  1  0  0  0  0
 25 53  1  0  0  0  0
 25 54  1  0  0  0  0
M  CHG  1   2   1
M  CHG  1  18   1
M  END
> <s_m_source_file>
AV-unprocessed.smi

> <i_m_source_file_index>
2928

> <i_lp_mmshare_version>
43012

> <i_f3d_flags>
0

> <s_epik_input>
W0NIMl0xW0NIMl1bQ0gyXVtDQEhdKE4oW0NIM10pW0NIXTEyKVtDSDJdW0NASF0oW0NIMl0yKVtOSF1DKD1PKVtOSF1jM1tjSF1bY0hdW2NIXW5jM040W0NIMl1bQ0gyXVtDSDJdW0NIMl00

> <s_epik_cmdline>
J2VwaWtfcHl0aG9uJywgJy1waCcsICc3LjAnLCAnLXRuJywgJzgnLCAnLW1hJywgJzIwMCcsICctbWV0YWxfYmluZGluZycsICctaW1hZScsICc8aW5maWxlLm1hZT4nLCAnLW9tYWUnLCAnPG91dGZpbGUubWFlPic=

> <r_lp_tautomer_probability>
0.999994

> <r_epik_Ionization_Penalty>
1.2404

> <r_epik_Ionization_Penalty_Charging>
1.24038

> <r_epik_Ionization_Penalty_Neutral>
1.86539e-05

> <r_epik_State_Penalty>
1.30821

> <r_epik_Charging_Adjusted_Penalty>
2.54859

> <i_epik_Tot_Q>
2

> <i_epik_Tot_abs_Q>
2

> <r_epik_Metal_State_Penalty>
1.3782

> <b_epik_Metal_Only>
0

> <s_lp_Force_Field>
OPLS_2005

> <r_lp_Energy>
75.6224

> <b_lp_Chiralities_Consistent>
1

> <s_lp_Variant>
AV-unprocessed.smi:2928-5

> <Gold.Version>
5.8.1

> <Gold.Id.Protein>
6NUR|6NUR_protein|mol2

> <Gold.PLP.Fitness>
40.0957

> <Gold.PLP.PLP>
-35.0397

> <Gold.PLP.part.hbond>
-2.6668

> <Gold.PLP.part.metal>
0.0000

> <Gold.PLP.part.buried>
-2.9783

> <Gold.PLP.part.nonpolar>
-29.9748

> <Gold.PLP.part.repulsive>
0.2913

> <Gold.PLP.ligand.clash>
0.0000

> <Gold.PLP.ligand.torsion>
0.3872

> <Gold.PLP.Chemscore.Hbond>
1.9199

> <Gold.PLP.Chemscore.CHOScore>
0.0000

> <Gold.PLP.Chemscore.Metal>
0.0000

> <Gold.Chemscore.Hbonds>
donor molecule, donor type, donor heavy atom, donor atom, acceptor molecule, acceptor atom, score
      L1  H    10    40       P1  7948  0.93
      L1  H    13    41       P1  7948  0.95

> <Gold.PLP.Chemscore.Internal.Correction>
0.0707

> <Gold.Rescore>
     Score         DG    S(hbond)    S(metal)    S(lipo)     H(rot)  DE(clash)    DE(int)     intcor
     14.51     -16.33       1.33        0.00      80.73       1.19       0.18       1.64       ----

> <Gold.Chemscore.Fitness>
14.5125

> <Gold.Chemscore.DG>
-16.3312

> <Gold.Chemscore.ZeroCoef>
-5.4800

> <Gold.Chemscore.Hbond>
1.3313

> <Gold.Chemscore.Metal>
0.0000

> <Gold.Chemscore.Lipo>
80.7337

> <Gold.Chemscore.Internal_Hbond>
0.0000

> <Gold.Chemscore.DEClash>
0.1799

> <Gold.Chemscore.DEInternal>
1.6388

> <Gold.Chemscore.Rot>
1.1879

> <Gold.Chemscore.Internal.Correction>
   9.000000E+99

> <Gold.Chemscore.Hbonds>
donor molecule, donor type, donor heavy atom, donor atom, acceptor molecule, acceptor atom, score
      L1  H    10    40       P1  7948  0.26
      L1  H    13    41       P1  7948  0.21

> <Gold.Chemscore.Hbond.Weighted>
-4.4464

> <Gold.Chemscore.Metal.Weighted>
-0.0000

> <Gold.Chemscore.Lipo.Weighted>
-9.4458

> <Gold.Chemscore.Internal_Hbond.Weighted>
0.0000

> <Gold.Chemscore.DEClash.Weighted>
0.1799

> <Gold.Chemscore.DEInternal.Weighted>
1.6388

> <Gold.Chemscore.Rot.Weighted>
3.0410

> <Gold.Chemscore.Internal.Correction.Weighted>
   9.000000E+99

> <Gold.Protein.RotatedTorsions>
[ 6907 6896 6895 6894 ] final  -48.74 input  -60.11 | X-H torsion
[ 7974 7965 7964 7962 ] final  -57.20 input  175.53 | X-H torsion
[ 8008 7997 7996 7995 ] final -168.12 input   59.86 | X-H torsion
[ 10167 10162 10161 10158 ] final    2.77 input  -65.29 | X-H torsion
[ 10718 10713 10712 10709 ] final  100.78 input   66.30 | X-H torsion
[ 10763 10752 10751 10750 ] final   60.71 input  -60.55 | X-H torsion
[ 11005 11000 10999 10996 ] final  124.26 input  -57.11 | X-H torsion

> <Gold.Protein.ActiveResidues>
 VAL166  LYS551  ARG553  GLY616  TRP617  ASP618  TYR619  PRO620  LYS621  CYS622 
 ASP623  PHE694  ASN695  SER759  ASP760  ASP761  ALA762  ILE779  LEU786  VAL792 
 PHE793  MET794  SER795  GLU796  ALA797  LYS798  CYS799  TRP800  GLU811  SER814 

> <Gold.Protein.RotatedAtoms>
  150.8875  134.8275  159.7269 H   0  0  0  0  0  0  0  0  0  0  0  0  # atno 6907 bound_to 6896
  152.4817  134.4699  159.9642 H   0  0  0  0  0  0  0  0  0  0  0  0  # atno 6908 bound_to 6896
  151.4766  133.3517  159.2867 H   0  0  0  0  0  0  0  0  0  0  0  0  # atno 6909 bound_to 6896
  145.8538  140.8334  142.9972 H   0  0  0  0  0  0  0  0  0  0  0  0  # atno 7974 bound_to 7965
  155.8871  140.1018  157.1445 H   0  0  0  0  0  0  0  0  0  0  0  0  # atno 8008 bound_to 7997
  154.4011  140.1318  156.4333 H   0  0  0  0  0  0  0  0  0  0  0  0  # atno 8009 bound_to 7997
  155.7576  140.3464  155.5184 H   0  0  0  0  0  0  0  0  0  0  0  0  # atno 8010 bound_to 7997
  140.6619  143.7282  150.7754 H   0  0  0  0  0  0  0  0  0  0  0  0  # atno 10167 bound_to 10162
  157.6846  131.0708  150.5152 H   0  0  0  0  0  0  0  0  0  0  0  0  # atno 10718 bound_to 10713
  152.9929  135.5526  154.5917 H   0  0  0  0  0  0  0  0  0  0  0  0  # atno 10763 bound_to 10752
  154.5277  135.2811  155.1209 H   0  0  0  0  0  0  0  0  0  0  0  0  # atno 10764 bound_to 10752
  154.2537  135.6394  153.5302 H   0  0  0  0  0  0  0  0  0  0  0  0  # atno 10765 bound_to 10752
  139.9350  134.9640  156.8382 H   0  0  0  0  0  0  0  0  0  0  0  0  # atno 11005 bound_to 11000
  144.6728  140.0993  143.7461 LP  0  0  0  0  0  0  0  0  0  0  0  0  # atno 17320 bound_to 7965
  145.9327  139.2617  143.1315 LP  0  0  0  0  0  0  0  0  0  0  0  0  # atno 17321 bound_to 7965
  140.0952  143.4840  152.2456 LP  0  0  0  0  0  0  0  0  0  0  0  0  # atno 17342 bound_to 10162
  139.5855  144.7529  151.3531 LP  0  0  0  0  0  0  0  0  0  0  0  0  # atno 17343 bound_to 10162
  156.5468  130.4221  149.6127 LP  0  0  0  0  0  0  0  0  0  0  0  0  # atno 17370 bound_to 10713
  156.2937  130.7138  151.1994 LP  0  0  0  0  0  0  0  0  0  0  0  0  # atno 17371 bound_to 10713
  140.6099  134.0092  155.7572 LP  0  0  0  0  0  0  0  0  0  0  0  0  # atno 17394 bound_to 11000
  141.0959  133.9844  157.3160 LP  0  0  0  0  0  0  0  0  0  0  0  0  # atno 17395 bound_to 11000

$$$$
