AV-unprocessed.smi:1815|AV-procd|sdf|7361|dock7
  -GOLD-   22720 9 23D 1   1.00000     0.00000
 Structure written by MMmdl.
 39 40  0  0  0  0  0  0  0  0  3 V2000
  149.9867  140.9911  155.9111 C   0  0  0  0  0  0  0  0  0  0  0  0
  150.5197  139.5785  155.6486 C   0  0  1  0  0  0  0  0  0  0  0  0
  149.6139  138.7907  154.6772 C   0  0  0  0  0  0  0  0  0  0  0  0
  150.1990  137.4702  154.3295 N   0  3  2  0  0  0  0  0  0  0  0  0
  150.0594  136.4316  155.3836 C   0  0  0  0  0  0  0  0  0  0  0  0
  148.7691  136.6010  156.2074 C   0  0  0  0  0  0  0  0  0  0  0  0
  148.8661  135.9100  157.4873 N   0  0  0  0  0  0  0  0  0  0  0  0
  148.8629  136.4990  158.6918 C   0  0  0  0  0  0  0  0  0  0  0  0
  148.7622  137.7257  158.7753 O   0  0  0  0  0  0  0  0  0  0  0  0
  148.9836  135.6319  159.7216 N   0  5  0  0  0  0  0  0  0  0  0  0
  148.1433  135.7099  160.7663 C   0  0  0  0  0  0  0  0  0  0  0  0
  147.5626  136.8517  161.1520 N   0  0  0  0  0  0  0  0  0  0  0  0
  146.7227  136.7016  162.2570 C   0  0  0  0  0  0  0  0  0  0  0  0
  146.6561  135.4137  162.7181 C   0  0  0  0  0  0  0  0  0  0  0  0
  147.6525  134.3446  161.7727 S   0  0  0  0  0  0  0  0  0  0  0  0
  151.5908  137.6366  153.8452 C   0  0  0  0  0  0  0  0  0  0  0  0
  152.4420  138.4360  154.8533 C   0  0  1  0  0  0  0  0  0  0  0  0
  153.8608  138.6920  154.3332 C   0  0  0  0  0  0  0  0  0  0  0  0
  151.8212  139.6966  155.0828 O   0  0  0  0  0  0  0  0  0  0  0  0
  148.9927  140.9583  156.3578 H   0  0  0  0  0  0  0  0  0  0  0  0
  149.9205  141.5674  154.9879 H   0  0  0  0  0  0  0  0  0  0  0  0
  150.6398  141.5327  156.5955 H   0  0  0  0  0  0  0  0  0  0  0  0
  150.5907  139.0615  156.6062 H   0  0  0  0  0  0  0  0  0  0  0  0
  148.6120  138.6815  155.0903 H   0  0  0  0  0  0  0  0  0  0  0  0
  149.4979  139.3583  153.7528 H   0  0  0  0  0  0  0  0  0  0  0  0
  150.0270  135.4477  154.9133 H   0  0  0  0  0  0  0  0  0  0  0  0
  150.9366  136.4267  156.0300 H   0  0  0  0  0  0  0  0  0  0  0  0
  148.5376  137.6507  156.3883 H   0  0  0  0  0  0  0  0  0  0  0  0
  147.9219  136.1866  155.6609 H   0  0  0  0  0  0  0  0  0  0  0  0
  148.9453  134.9036  157.4629 H   0  0  0  0  0  0  0  0  0  0  0  0
  146.2096  137.5670  162.6491 H   0  0  0  0  0  0  0  0  0  0  0  0
  146.0848  135.0302  163.5498 H   0  0  0  0  0  0  0  0  0  0  0  0
  152.0418  136.6655  153.6366 H   0  0  0  0  0  0  0  0  0  0  0  0
  151.5586  138.1684  152.8932 H   0  0  0  0  0  0  0  0  0  0  0  0
  152.5161  137.8931  155.7969 H   0  0  0  0  0  0  0  0  0  0  0  0
  154.3836  137.7545  154.1428 H   0  0  0  0  0  0  0  0  0  0  0  0
  154.4458  139.2563  155.0599 H   0  0  0  0  0  0  0  0  0  0  0  0
  153.8452  139.2620  153.4037 H   0  0  0  0  0  0  0  0  0  0  0  0
  149.6724  137.1173  153.5432 H   0  0  0  0  0  0  0  0  0  0  0  0
  1  2  1  0  0  0  0
  1 20  1  0  0  0  0
  1 21  1  0  0  0  0
  1 22  1  0  0  0  0
  2 19  1  0  0  0  0
  2  3  1  0  0  0  0
  2 23  1  0  0  0  0
  3  4  1  0  0  0  0
  3 24  1  0  0  0  0
  3 25  1  0  0  0  0
  4  5  1  0  0  0  0
  4 16  1  0  0  0  0
  4 39  1  0  0  0  0
  5  6  1  0  0  0  0
  5 26  1  0  0  0  0
  5 27  1  0  0  0  0
  6  7  1  0  0  0  0
  6 28  1  0  0  0  0
  6 29  1  0  0  0  0
  7  8  1  0  0  0  0
  7 30  1  0  0  0  0
  8  9  2  0  0  0  0
  8 10  1  0  0  0  0
 10 11  1  0  0  0  0
 11 15  1  0  0  0  0
 11 12  2  0  0  0  0
 12 13  1  0  0  0  0
 13 14  2  0  0  0  0
 13 31  1  0  0  0  0
 14 15  1  0  0  0  0
 14 32  1  0  0  0  0
 16 17  1  0  0  0  0
 16 33  1  0  0  0  0
 16 34  1  0  0  0  0
 17 18  1  0  0  0  0
 17 19  1  0  0  0  0
 17 35  1  0  0  0  0
 18 36  1  0  0  0  0
 18 37  1  0  0  0  0
 18 38  1  0  0  0  0
M  CHG  1   4   1
M  CHG  1  10  -1
M  END
> <s_m_source_file>
AV-unprocessed.smi

> <i_m_source_file_index>
1815

> <i_lp_mmshare_version>
43012

> <i_f3d_flags>
0

> <s_epik_input>
W0NIM11bQ0BASF0xW0NIMl1OKFtDSDJdW0NASF0oTzEpW0NIM10pW0NIMl1bQ0gyXVtOSF1DKD1PKVtOSF1jMm5bY0hdW2NIXXMy

> <s_epik_cmdline>
J2VwaWtfcHl0aG9uJywgJy1waCcsICc3LjAnLCAnLXRuJywgJzgnLCAnLW1hJywgJzIwMCcsICctbWV0YWxfYmluZGluZycsICctaW1hZScsICc8aW5maWxlLm1hZT4nLCAnLW9tYWUnLCAnPG91dGZpbGUubWFlPic=

> <r_lp_tautomer_probability>
0.999

> <r_epik_Ionization_Penalty>
6.71699

> <r_epik_Ionization_Penalty_Charging>
5.88592

> <r_epik_Ionization_Penalty_Neutral>
0.831074

> <r_epik_State_Penalty>
6.08365

> <r_epik_Charging_Adjusted_Penalty>
11.9696

> <i_epik_Tot_Q>
0

> <i_epik_Tot_abs_Q>
2

> <r_epik_Metal_State_Penalty>
2.0947

> <b_epik_Metal_Only>
1

> <s_lp_Force_Field>
OPLS_2005

> <r_lp_Energy>
5.04414

> <b_lp_Chiralities_Consistent>
1

> <s_lp_Variant>
AV-unprocessed.smi:1815-12

> <Gold.Version>
5.8.1

> <Gold.Id.Protein>
6NUR|6NUR_protein|mol2

> <Gold.PLP.Fitness>
49.6105

> <Gold.PLP.PLP>
-31.6451

> <Gold.PLP.part.hbond>
-5.0000

> <Gold.PLP.part.metal>
0.0000

> <Gold.PLP.part.buried>
-3.1548

> <Gold.PLP.part.nonpolar>
-25.4054

> <Gold.PLP.part.repulsive>
0.1321

> <Gold.PLP.ligand.clash>
0.0000

> <Gold.PLP.ligand.torsion>
0.9663

> <Gold.PLP.Chemscore.Hbond>
6.6174

> <Gold.PLP.Chemscore.CHOScore>
0.0000

> <Gold.PLP.Chemscore.Metal>
0.0000

> <Gold.Chemscore.Hbonds>
donor molecule, donor type, donor heavy atom, donor atom, acceptor molecule, acceptor atom, score
      L1  H     4    39       P1  7948  2.00
      P1  H  6896  6907       L1    10  2.00
      P1  H  6931  6943       L1    12  0.67
      P1  H  6934  6947       L1    12  0.40
      P1  H  7989  7998       L1    19  0.99

> <Gold.PLP.Chemscore.Internal.Correction>
0.0460

> <Gold.Rescore>
     Score         DG    S(hbond)    S(metal)    S(lipo)     H(rot)  DE(clash)    DE(int)     intcor
     15.01     -19.56       2.71        0.00      78.18       1.61       2.24       2.32       ----

> <Gold.Chemscore.Fitness>
15.0088

> <Gold.Chemscore.DG>
-19.5637

> <Gold.Chemscore.ZeroCoef>
-5.4800

> <Gold.Chemscore.Hbond>
2.7091

> <Gold.Chemscore.Metal>
0.0000

> <Gold.Chemscore.Lipo>
78.1755

> <Gold.Chemscore.Internal_Hbond>
0.0000

> <Gold.Chemscore.DEClash>
2.2391

> <Gold.Chemscore.DEInternal>
2.3158

> <Gold.Chemscore.Rot>
1.6060

> <Gold.Chemscore.Internal.Correction>
   9.000000E+99

> <Gold.Chemscore.Hbonds>
donor molecule, donor type, donor heavy atom, donor atom, acceptor molecule, acceptor atom, score
      L1  H     4    39       P1  7948  0.71
      P1  H  6896  6907       L1    10  0.72
      P1  H  6931  6943       L1    12  0.17
      P1  H  6934  6947       L1    12  0.05
      P1  H  7989  7998       L1    19  0.51

> <Gold.Chemscore.Hbond.Weighted>
-9.0484

> <Gold.Chemscore.Metal.Weighted>
-0.0000

> <Gold.Chemscore.Lipo.Weighted>
-9.1465

> <Gold.Chemscore.Internal_Hbond.Weighted>
0.0000

> <Gold.Chemscore.DEClash.Weighted>
2.2391

> <Gold.Chemscore.DEInternal.Weighted>
2.3158

> <Gold.Chemscore.Rot.Weighted>
4.1112

> <Gold.Chemscore.Internal.Correction.Weighted>
   9.000000E+99

> <Gold.Protein.RotatedTorsions>
[ 6907 6896 6895 6894 ] final  -56.80 input  -60.11 | X-H torsion
[ 7974 7965 7964 7962 ] final -144.99 input  175.53 | X-H torsion
[ 8008 7997 7996 7995 ] final  120.26 input   59.86 | X-H torsion
[ 10167 10162 10161 10158 ] final -127.18 input  -65.29 | X-H torsion
[ 10718 10713 10712 10709 ] final  125.25 input   66.30 | X-H torsion
[ 10763 10752 10751 10750 ] final  -53.83 input  -60.55 | X-H torsion
[ 11005 11000 10999 10996 ] final   85.96 input  -57.11 | X-H torsion

> <Gold.Protein.ActiveResidues>
 VAL166  LYS551  ARG553  GLY616  TRP617  ASP618  TYR619  PRO620  LYS621  CYS622 
 ASP623  PHE694  ASN695  SER759  ASP760  ASP761  ALA762  ILE779  LEU786  VAL792 
 PHE793  MET794  SER795  GLU796  ALA797  LYS798  CYS799  TRP800  GLU811  SER814 

> <Gold.Protein.RotatedAtoms>
  150.8138  134.7308  159.6711 H   0  0  0  0  0  0  0  0  0  0  0  0  # atno 6907 bound_to 6896
  152.4257  134.5869  159.9973 H   0  0  0  0  0  0  0  0  0  0  0  0  # atno 6908 bound_to 6896
  151.6072  133.3313  159.3096 H   0  0  0  0  0  0  0  0  0  0  0  0  # atno 6909 bound_to 6896
  144.8258  140.5640  143.5548 H   0  0  0  0  0  0  0  0  0  0  0  0  # atno 7974 bound_to 7965
  156.2634  140.2835  156.1121 H   0  0  0  0  0  0  0  0  0  0  0  0  # atno 8008 bound_to 7997
  155.1246  140.0393  157.2776 H   0  0  0  0  0  0  0  0  0  0  0  0  # atno 8009 bound_to 7997
  154.6645  140.2574  155.7079 H   0  0  0  0  0  0  0  0  0  0  0  0  # atno 8010 bound_to 7997
  139.9636  143.5923  152.2437 H   0  0  0  0  0  0  0  0  0  0  0  0  # atno 10167 bound_to 10162
  157.5518  131.1093  150.8688 H   0  0  0  0  0  0  0  0  0  0  0  0  # atno 10718 bound_to 10713
  154.1651  135.6468  153.4995 H   0  0  0  0  0  0  0  0  0  0  0  0  # atno 10763 bound_to 10752
  153.0100  135.5370  154.6671 H   0  0  0  0  0  0  0  0  0  0  0  0  # atno 10764 bound_to 10752
  154.5995  135.2942  155.0522 H   0  0  0  0  0  0  0  0  0  0  0  0  # atno 10765 bound_to 10752
  139.8957  134.8322  156.2654 H   0  0  0  0  0  0  0  0  0  0  0  0  # atno 11005 bound_to 11000
  145.5003  139.1484  143.3661 LP  0  0  0  0  0  0  0  0  0  0  0  0  # atno 17320 bound_to 7965
  146.2564  140.5142  142.8872 LP  0  0  0  0  0  0  0  0  0  0  0  0  # atno 17321 bound_to 7965
  139.6535  144.7661  151.2101 LP  0  0  0  0  0  0  0  0  0  0  0  0  # atno 17342 bound_to 10162
  140.7545  143.6123  150.8594 LP  0  0  0  0  0  0  0  0  0  0  0  0  # atno 17343 bound_to 10162
  156.9211  130.5315  149.5279 LP  0  0  0  0  0  0  0  0  0  0  0  0  # atno 17370 bound_to 10713
  156.0584  130.5641  150.9140 LP  0  0  0  0  0  0  0  0  0  0  0  0  # atno 17371 bound_to 10713
  141.0135  133.7082  156.1151 LP  0  0  0  0  0  0  0  0  0  0  0  0  # atno 17394 bound_to 11000
  140.7334  134.4230  157.5563 LP  0  0  0  0  0  0  0  0  0  0  0  0  # atno 17395 bound_to 11000

$$$$
