AV-unprocessed.smi:1843|AV-procd|sdf|7504|dock1
  -GOLD-   22720 9203D 1   1.00000     0.00000
 Structure written by MMmdl.
 36 38  0  0  0  0  0  0  0  0  2 V2000
  151.0615  134.2315  155.9010 O   0  0  0  0  0  0  0  0  0  0  0  0
  150.7631  135.0354  155.0146 C   0  0  0  0  0  0  0  0  0  0  0  0
  151.4041  136.1928  154.7344 N   0  5  0  0  0  0  0  0  0  0  0  0
  150.7096  137.3384  154.6342 C   0  0  0  0  0  0  0  0  0  0  0  0
  151.2093  138.4315  154.0407 N   0  0  0  0  0  0  0  0  0  0  0  0
  150.3282  139.5028  154.0426 N   0  0  0  0  0  0  0  0  0  0  0  0
  149.1688  139.2008  154.6319 C   0  0  0  0  0  0  0  0  0  0  0  0
  148.0576  140.1883  154.7610 C   0  0  0  0  0  0  0  0  0  0  0  0
  147.3319  140.6973  153.5370 C   0  0  0  0  0  0  0  0  0  0  0  0
  148.2201  141.6276  154.3229 C   0  0  0  0  0  0  0  0  0  0  0  0
  149.0650  137.5535  155.2329 S   0  0  0  0  0  0  0  0  0  0  0  0
  149.7115  134.7950  154.2186 N   0  0  0  0  0  0  0  0  0  0  0  0
  148.8235  133.6357  154.2898 C   0  0  2  0  0  0  0  0  0  0  0  0
  149.6771  132.3537  154.4153 C   0  0  0  0  0  0  0  0  0  0  0  0
  148.8259  131.0780  154.3405 C   0  0  0  0  0  0  0  0  0  0  0  0
  147.9996  131.0458  153.0484 C   0  0  0  0  0  0  0  0  0  0  0  0
  147.1102  132.2918  152.9448 C   0  0  0  0  0  0  0  0  0  0  0  0
  147.9350  133.5908  153.0243 C   0  0  1  0  0  0  0  0  0  0  0  0
  147.0225  134.6705  153.0440 O   0  0  0  0  0  0  0  0  0  0  0  0
  147.4719  139.9921  155.6569 H   0  0  0  0  0  0  0  0  0  0  0  0
  147.6891  140.3668  152.5635 H   0  0  0  0  0  0  0  0  0  0  0  0
  146.2562  140.8401  153.6158 H   0  0  0  0  0  0  0  0  0  0  0  0
  147.7367  142.3929  154.9264 H   0  0  0  0  0  0  0  0  0  0  0  0
  149.1610  141.9230  153.8631 H   0  0  0  0  0  0  0  0  0  0  0  0
  149.5024  135.4830  153.5103 H   0  0  0  0  0  0  0  0  0  0  0  0
  148.1783  133.7145  155.1672 H   0  0  0  0  0  0  0  0  0  0  0  0
  150.4218  132.3298  153.6182 H   0  0  0  0  0  0  0  0  0  0  0  0
  150.2340  132.3641  155.3530 H   0  0  0  0  0  0  0  0  0  0  0  0
  149.4687  130.1990  154.3936 H   0  0  0  0  0  0  0  0  0  0  0  0
  148.1615  131.0292  155.2042 H   0  0  0  0  0  0  0  0  0  0  0  0
  148.6646  130.9936  152.1852 H   0  0  0  0  0  0  0  0  0  0  0  0
  147.3842  130.1460  153.0220 H   0  0  0  0  0  0  0  0  0  0  0  0
  146.5460  132.2641  152.0117 H   0  0  0  0  0  0  0  0  0  0  0  0
  146.3747  132.2711  153.7505 H   0  0  0  0  0  0  0  0  0  0  0  0
  148.5556  133.6752  152.1308 H   0  0  0  0  0  0  0  0  0  0  0  0
  147.3906  135.3823  152.5433 H   0  0  0  0  0  0  0  0  0  0  0  0
  1  2  2  0  0  0  0
  2  3  1  0  0  0  0
  2 12  1  0  0  0  0
  3  4  1  0  0  0  0
  4 11  1  0  0  0  0
  4  5  2  0  0  0  0
  5  6  1  0  0  0  0
  6  7  2  0  0  0  0
  7  8  1  0  0  0  0
  7 11  1  0  0  0  0
  8 10  1  0  0  0  0
  8  9  1  0  0  0  0
  8 20  1  0  0  0  0
  9 10  1  0  0  0  0
  9 21  1  0  0  0  0
  9 22  1  0  0  0  0
 10 23  1  0  0  0  0
 10 24  1  0  0  0  0
 12 13  1  0  0  0  0
 12 25  1  0  0  0  0
 13 18  1  0  0  0  0
 13 14  1  0  0  0  0
 13 26  1  0  0  0  0
 14 15  1  0  0  0  0
 14 27  1  0  0  0  0
 14 28  1  0  0  0  0
 15 16  1  0  0  0  0
 15 29  1  0  0  0  0
 15 30  1  0  0  0  0
 16 17  1  0  0  0  0
 16 31  1  0  0  0  0
 16 32  1  0  0  0  0
 17 18  1  0  0  0  0
 17 33  1  0  0  0  0
 17 34  1  0  0  0  0
 18 19  1  0  0  0  0
 18 35  1  0  0  0  0
 19 36  1  0  0  0  0
M  CHG  1   3  -1
M  END
> <s_m_source_file>
AV-unprocessed.smi

> <i_m_source_file_index>
1843

> <i_lp_mmshare_version>
43012

> <i_f3d_flags>
0

> <s_epik_input>
W09IXVtDQEBIXTFbQ0gyXVtDSDJdW0NIMl1bQ0gyXVtDQEhdMVtOSF1DKD1PKVtOSF1jMm5uYyhzMilbQ0hdM1tDSDJdW0NIMl0z

> <s_epik_cmdline>
J2VwaWtfcHl0aG9uJywgJy1waCcsICc3LjAnLCAnLXRuJywgJzgnLCAnLW1hJywgJzIwMCcsICctbWV0YWxfYmluZGluZycsICctaW1hZScsICc8aW5maWxlLm1hZT4nLCAnLW9tYWUnLCAnPG91dGZpbGUubWFlPic=

> <r_lp_tautomer_probability>
1

> <r_epik_Ionization_Penalty>
4.7996

> <r_epik_Ionization_Penalty_Charging>
4.64516

> <r_epik_Ionization_Penalty_Neutral>
0.154442

> <r_epik_State_Penalty>
4.64493

> <r_epik_Charging_Adjusted_Penalty>
9.29009

> <i_epik_Tot_Q>
-1

> <i_epik_Tot_abs_Q>
1

> <r_epik_Metal_State_Penalty>
0.896144

> <b_epik_Metal_Only>
1

> <s_lp_Force_Field>
OPLS_2005

> <r_lp_Energy>
6.98885

> <b_lp_Chiralities_Consistent>
1

> <s_lp_Variant>
AV-unprocessed.smi:1843-5

> <Gold.Version>
5.8.1

> <Gold.Id.Protein>
6NUR|6NUR_protein|mol2

> <Gold.PLP.Fitness>
42.5218

> <Gold.PLP.PLP>
-28.9740

> <Gold.PLP.part.hbond>
-4.0000

> <Gold.PLP.part.metal>
0.0000

> <Gold.PLP.part.buried>
-1.0156

> <Gold.PLP.part.nonpolar>
-23.8640

> <Gold.PLP.part.repulsive>
0.8543

> <Gold.PLP.ligand.clash>
0.0000

> <Gold.PLP.ligand.torsion>
0.7190

> <Gold.PLP.Chemscore.Hbond>
4.9500

> <Gold.PLP.Chemscore.CHOScore>
0.0000

> <Gold.PLP.Chemscore.Metal>
0.0000

> <Gold.Chemscore.Hbonds>
donor molecule, donor type, donor heavy atom, donor atom, acceptor molecule, acceptor atom, score
      L1  H    12    25       P1  7948  0.85
      L1  H    19    36       P1  7948  0.94
      P1  H  7989  7998       L1     6  0.85
      P1  H 10752 10765       L1     3  1.90

> <Gold.PLP.Chemscore.Internal.Correction>
0.1358

> <Gold.Rescore>
     Score         DG    S(hbond)    S(metal)    S(lipo)     H(rot)  DE(clash)    DE(int)     intcor
     15.65     -17.94       3.08        0.00      56.02       1.72       0.05       2.25       ----

> <Gold.Chemscore.Fitness>
15.6456

> <Gold.Chemscore.DG>
-17.9433

> <Gold.Chemscore.ZeroCoef>
-5.4800

> <Gold.Chemscore.Hbond>
3.0844

> <Gold.Chemscore.Metal>
0.0000

> <Gold.Chemscore.Lipo>
56.0208

> <Gold.Chemscore.Internal_Hbond>
0.0000

> <Gold.Chemscore.DEClash>
0.0494

> <Gold.Chemscore.DEInternal>
2.2483

> <Gold.Chemscore.Rot>
1.7160

> <Gold.Chemscore.Internal.Correction>
   9.000000E+99

> <Gold.Chemscore.Hbonds>
donor molecule, donor type, donor heavy atom, donor atom, acceptor molecule, acceptor atom, score
      L1  H    12    25       P1  7948  0.15
      L1  H    19    36       P1  7948  0.91
      P1  H  7989  7998       L1     6  0.14
      P1  H 10752 10765       L1     3  0.21

> <Gold.Chemscore.Hbond.Weighted>
-10.3019

> <Gold.Chemscore.Metal.Weighted>
-0.0000

> <Gold.Chemscore.Lipo.Weighted>
-6.5544

> <Gold.Chemscore.Internal_Hbond.Weighted>
0.0000

> <Gold.Chemscore.DEClash.Weighted>
0.0494

> <Gold.Chemscore.DEInternal.Weighted>
2.2483

> <Gold.Chemscore.Rot.Weighted>
4.3930

> <Gold.Chemscore.Internal.Correction.Weighted>
   9.000000E+99

> <Gold.Protein.RotatedTorsions>
[ 6907 6896 6895 6894 ] final  -33.27 input  -60.11 | X-H torsion
[ 7974 7965 7964 7962 ] final  113.24 input  175.53 | X-H torsion
[ 8008 7997 7996 7995 ] final  159.22 input   59.86 | X-H torsion
[ 10167 10162 10161 10158 ] final  -41.80 input  -65.29 | X-H torsion
[ 10718 10713 10712 10709 ] final  106.66 input   66.30 | X-H torsion
[ 10763 10752 10751 10750 ] final  174.12 input  -60.55 | X-H torsion
[ 11005 11000 10999 10996 ] final  175.80 input  -57.11 | X-H torsion

> <Gold.Protein.ActiveResidues>
 VAL166  LYS551  ARG553  GLY616  TRP617  ASP618  TYR619  PRO620  LYS621  CYS622 
 ASP623  PHE694  ASN695  SER759  ASP760  ASP761  ALA762  ILE779  LEU786  VAL792 
 PHE793  MET794  SER795  GLU796  ALA797  LYS798  CYS799  TRP800  GLU811  SER814 

> <Gold.Protein.RotatedAtoms>
  151.0679  134.9779  159.8293 H   0  0  0  0  0  0  0  0  0  0  0  0  # atno 6907 bound_to 6896
  152.5404  134.2336  159.8844 H   0  0  0  0  0  0  0  0  0  0  0  0  # atno 6908 bound_to 6896
  151.2359  133.4382  159.2639 H   0  0  0  0  0  0  0  0  0  0  0  0  # atno 6909 bound_to 6896
  145.2194  139.2869  143.4226 H   0  0  0  0  0  0  0  0  0  0  0  0  # atno 7974 bound_to 7965
  156.2252  140.1837  156.7379 H   0  0  0  0  0  0  0  0  0  0  0  0  # atno 8008 bound_to 7997
  154.5930  140.0648  156.9293 H   0  0  0  0  0  0  0  0  0  0  0  0  # atno 8009 bound_to 7997
  155.2303  140.3314  155.4306 H   0  0  0  0  0  0  0  0  0  0  0  0  # atno 8010 bound_to 7997
  140.6991  143.3074  151.3118 H   0  0  0  0  0  0  0  0  0  0  0  0  # atno 10167 bound_to 10162
  157.6659  131.0856  150.6041 H   0  0  0  0  0  0  0  0  0  0  0  0  # atno 10718 bound_to 10713
  154.4496  135.2764  155.1791 H   0  0  0  0  0  0  0  0  0  0  0  0  # atno 10763 bound_to 10752
  154.3623  135.6126  153.5701 H   0  0  0  0  0  0  0  0  0  0  0  0  # atno 10764 bound_to 10752
  152.9846  135.5837  154.4838 H   0  0  0  0  0  0  0  0  0  0  0  0  # atno 10765 bound_to 10752
  140.3662  134.7070  157.4363 H   0  0  0  0  0  0  0  0  0  0  0  0  # atno 11005 bound_to 11000
  146.3379  140.2495  142.8598 LP  0  0  0  0  0  0  0  0  0  0  0  0  # atno 17320 bound_to 7965
  144.9780  140.8432  143.5415 LP  0  0  0  0  0  0  0  0  0  0  0  0  # atno 17321 bound_to 7965
  139.6484  144.0407  152.2608 LP  0  0  0  0  0  0  0  0  0  0  0  0  # atno 17342 bound_to 10162
  139.9936  144.6344  150.7792 LP  0  0  0  0  0  0  0  0  0  0  0  0  # atno 17343 bound_to 10162
  156.6341  130.4440  149.5776 LP  0  0  0  0  0  0  0  0  0  0  0  0  # atno 17370 bound_to 10713
  156.2259  130.6765  151.1415 LP  0  0  0  0  0  0  0  0  0  0  0  0  # atno 17371 bound_to 10713
  140.0587  134.6026  155.8774 LP  0  0  0  0  0  0  0  0  0  0  0  0  # atno 17394 bound_to 11000
  141.1969  133.6593  156.5714 LP  0  0  0  0  0  0  0  0  0  0  0  0  # atno 17395 bound_to 11000

$$$$
