AV-unprocessed.smi:1019|AV-procd|sdf|4443|dock9
  -GOLD-   22720 2403D 1   1.00000     0.00000
 Structure written by MMmdl.
 44 46  0  0  0  0  0  0  0  0  2 V2000
  145.7959  136.1843  153.6805 C   0  0  0  0  0  0  0  0  0  0  0  0
  145.9984  136.5885  152.2692 N   0  3  1  0  0  0  0  0  0  0  0  0
  144.9925  135.9936  151.3517 C   0  0  0  0  0  0  0  0  0  0  0  0
  145.2239  134.5072  151.1470 C   0  0  0  0  0  0  0  0  0  0  0  0
  146.2762  133.8591  151.8280 C   0  0  0  0  0  0  0  0  0  0  0  0
  146.4928  132.4794  151.6459 C   0  0  0  0  0  0  0  0  0  0  0  0
  145.6598  131.7433  150.7812 C   0  0  0  0  0  0  0  0  0  0  0  0
  144.6106  132.3875  150.0974 C   0  0  0  0  0  0  0  0  0  0  0  0
  144.3932  133.7671  150.2786 C   0  0  0  0  0  0  0  0  0  0  0  0
  146.1210  138.0615  152.1217 C   0  0  0  0  0  0  0  0  0  0  0  0
  146.8479  138.7068  153.3180 C   0  0  2  0  0  0  0  0  0  0  0  0
  145.9537  139.5889  153.9700 O   0  0  0  0  0  0  0  0  0  0  0  0
  148.1039  139.4822  152.8761 C   0  0  0  0  0  0  0  0  0  0  0  0
  148.8810  139.9682  154.0025 N   0  0  0  0  0  0  0  0  0  0  0  0
  148.5636  140.9866  154.8249 C   0  0  0  0  0  0  0  0  0  0  0  0
  149.4222  141.2752  155.7982 N   0  0  0  0  0  0  0  0  0  0  0  0
  150.4127  140.3320  155.5856 C   0  0  0  0  0  0  0  0  0  0  0  0
  151.6199  140.0973  156.2820 C   0  0  0  0  0  0  0  0  0  0  0  0
  152.4883  139.0621  155.8777 C   0  0  0  0  0  0  0  0  0  0  0  0
  152.1646  138.2474  154.7734 C   0  0  0  0  0  0  0  0  0  0  0  0
  150.9678  138.4623  154.0631 C   0  0  0  0  0  0  0  0  0  0  0  0
  150.1037  139.4965  154.4697 C   0  0  0  0  0  0  0  0  0  0  0  0
  144.8444  136.5574  154.0612 H   0  0  0  0  0  0  0  0  0  0  0  0
  146.5941  136.5750  154.3124 H   0  0  0  0  0  0  0  0  0  0  0  0
  145.8062  135.0998  153.7875 H   0  0  0  0  0  0  0  0  0  0  0  0
  143.9856  136.1747  151.7315 H   0  0  0  0  0  0  0  0  0  0  0  0
  145.0360  136.4687  150.3720 H   0  0  0  0  0  0  0  0  0  0  0  0
  146.9182  134.4180  152.4935 H   0  0  0  0  0  0  0  0  0  0  0  0
  147.2980  131.9851  152.1694 H   0  0  0  0  0  0  0  0  0  0  0  0
  145.8259  130.6851  150.6422 H   0  0  0  0  0  0  0  0  0  0  0  0
  143.9724  131.8226  149.4337 H   0  0  0  0  0  0  0  0  0  0  0  0
  143.5850  134.2531  149.7517 H   0  0  0  0  0  0  0  0  0  0  0  0
  146.6376  138.2869  151.1872 H   0  0  0  0  0  0  0  0  0  0  0  0
  145.1315  138.5140  152.0355 H   0  0  0  0  0  0  0  0  0  0  0  0
  147.1469  137.9435  154.0364 H   0  0  0  0  0  0  0  0  0  0  0  0
  145.2888  139.8587  153.3545 H   0  0  0  0  0  0  0  0  0  0  0  0
  148.7474  138.8426  152.2705 H   0  0  0  0  0  0  0  0  0  0  0  0
  147.8300  140.3302  152.2471 H   0  0  0  0  0  0  0  0  0  0  0  0
  147.6511  141.5513  154.6991 H   0  0  0  0  0  0  0  0  0  0  0  0
  151.8786  140.7150  157.1293 H   0  0  0  0  0  0  0  0  0  0  0  0
  153.4079  138.8918  156.4181 H   0  0  0  0  0  0  0  0  0  0  0  0
  152.8362  137.4566  154.4723 H   0  0  0  0  0  0  0  0  0  0  0  0
  150.7192  137.8394  153.2171 H   0  0  0  0  0  0  0  0  0  0  0  0
  146.8961  136.2136  151.9959 H   0  0  0  0  0  0  0  0  0  0  0  0
  1  2  1  0  0  0  0
  1 23  1  0  0  0  0
  1 24  1  0  0  0  0
  1 25  1  0  0  0  0
  2  3  1  0  0  0  0
  2 10  1  0  0  0  0
  2 44  1  0  0  0  0
  3  4  1  0  0  0  0
  3 26  1  0  0  0  0
  3 27  1  0  0  0  0
  4  9  1  0  0  0  0
  4  5  2  0  0  0  0
  5  6  1  0  0  0  0
  5 28  1  0  0  0  0
  6  7  2  0  0  0  0
  6 29  1  0  0  0  0
  7  8  1  0  0  0  0
  7 30  1  0  0  0  0
  8  9  2  0  0  0  0
  8 31  1  0  0  0  0
  9 32  1  0  0  0  0
 10 11  1  0  0  0  0
 10 33  1  0  0  0  0
 10 34  1  0  0  0  0
 11 12  1  0  0  0  0
 11 13  1  0  0  0  0
 11 35  1  0  0  0  0
 12 36  1  0  0  0  0
 13 14  1  0  0  0  0
 13 37  1  0  0  0  0
 13 38  1  0  0  0  0
 14 22  1  0  0  0  0
 14 15  1  0  0  0  0
 15 16  2  0  0  0  0
 15 39  1  0  0  0  0
 16 17  1  0  0  0  0
 17 22  2  0  0  0  0
 17 18  1  0  0  0  0
 18 19  2  0  0  0  0
 18 40  1  0  0  0  0
 19 20  1  0  0  0  0
 19 41  1  0  0  0  0
 20 21  2  0  0  0  0
 20 42  1  0  0  0  0
 21 22  1  0  0  0  0
 21 43  1  0  0  0  0
M  CHG  1   2   1
M  END
> <s_m_source_file>
AV-unprocessed.smi

> <i_m_source_file_index>
1019

> <i_lp_mmshare_version>
43012

> <i_f3d_flags>
0

> <s_epik_input>
W2NIXTFbY0hdW2NIXVtjSF1bY0hdYzFbQ0gyXU4oW0NIM10pW0NIMl1bQ0BIXShbT0hdKVtDSDJdbihbY0hdbjIpYyhjMjMpW2NIXVtjSF1bY0hdW2NIXTM=

> <s_epik_cmdline>
J2VwaWtfcHl0aG9uJywgJy1waCcsICc3LjAnLCAnLXRuJywgJzgnLCAnLW1hJywgJzIwMCcsICctbWV0YWxfYmluZGluZycsICctaW1hZScsICc8aW5maWxlLm1hZT4nLCAnLW9tYWUnLCAnPG91dGZpbGUubWFlPic=

> <r_epik_Ionization_Penalty>
0.0996557

> <r_epik_Ionization_Penalty_Charging>
0.0475377

> <r_epik_Ionization_Penalty_Neutral>
0.0521179

> <r_epik_State_Penalty>
0.0851777

> <r_epik_Charging_Adjusted_Penalty>
0.132715

> <i_epik_Tot_Q>
1

> <i_epik_Tot_abs_Q>
1

> <r_epik_Metal_State_Penalty>
0.0423478

> <b_epik_Metal_Only>
0

> <s_lp_Force_Field>
OPLS_2005

> <r_lp_Energy>
15.2714

> <b_lp_Chiralities_Consistent>
1

> <s_lp_Variant>
AV-unprocessed.smi:1019-1

> <Gold.Version>
5.8.1

> <Gold.Id.Protein>
6NUR|6NUR_protein|mol2

> <Gold.PLP.Fitness>
49.3036

> <Gold.PLP.PLP>
-42.5624

> <Gold.PLP.part.hbond>
-2.0000

> <Gold.PLP.part.metal>
0.0000

> <Gold.PLP.part.buried>
2.1840

> <Gold.PLP.part.nonpolar>
-43.0731

> <Gold.PLP.part.repulsive>
0.1133

> <Gold.PLP.ligand.clash>
0.0000

> <Gold.PLP.ligand.torsion>
1.2554

> <Gold.PLP.Chemscore.Hbond>
3.0000

> <Gold.PLP.Chemscore.CHOScore>
0.0000

> <Gold.PLP.Chemscore.Metal>
0.0000

> <Gold.Chemscore.Hbonds>
donor molecule, donor type, donor heavy atom, donor atom, acceptor molecule, acceptor atom, score
      L1  H     2    44       P1  7948  1.95
      L1  H    12    36       P1 10175  1.00

> <Gold.PLP.Chemscore.Internal.Correction>
0.2520

> <Gold.Rescore>
     Score         DG    S(hbond)    S(metal)    S(lipo)     H(rot)  DE(clash)    DE(int)     intcor
     16.65     -20.08       1.96        0.00     120.50       2.36       2.08       1.35       ----

> <Gold.Chemscore.Fitness>
16.6467

> <Gold.Chemscore.DG>
-20.0805

> <Gold.Chemscore.ZeroCoef>
-5.4800

> <Gold.Chemscore.Hbond>
1.9604

> <Gold.Chemscore.Metal>
0.0000

> <Gold.Chemscore.Lipo>
120.4999

> <Gold.Chemscore.Internal_Hbond>
0.0000

> <Gold.Chemscore.DEClash>
2.0828

> <Gold.Chemscore.DEInternal>
1.3509

> <Gold.Chemscore.Rot>
2.3616

> <Gold.Chemscore.Internal.Correction>
   9.000000E+99

> <Gold.Chemscore.Hbonds>
donor molecule, donor type, donor heavy atom, donor atom, acceptor molecule, acceptor atom, score
      L1  H     2    44       P1  7948  0.91
      L1  H    12    36       P1 10175  0.99

> <Gold.Chemscore.Hbond.Weighted>
-6.5477

> <Gold.Chemscore.Metal.Weighted>
-0.0000

> <Gold.Chemscore.Lipo.Weighted>
-14.0985

> <Gold.Chemscore.Internal_Hbond.Weighted>
0.0000

> <Gold.Chemscore.DEClash.Weighted>
2.0828

> <Gold.Chemscore.DEInternal.Weighted>
1.3509

> <Gold.Chemscore.Rot.Weighted>
6.0457

> <Gold.Chemscore.Internal.Correction.Weighted>
   9.000000E+99

> <Gold.Protein.RotatedTorsions>
[ 6907 6896 6895 6894 ] final -131.79 input  -60.11 | X-H torsion
[ 7974 7965 7964 7962 ] final  174.51 input  175.53 | X-H torsion
[ 8008 7997 7996 7995 ] final   29.65 input   59.86 | X-H torsion
[ 10167 10162 10161 10158 ] final   46.48 input  -65.29 | X-H torsion
[ 10718 10713 10712 10709 ] final   20.27 input   66.30 | X-H torsion
[ 10763 10752 10751 10750 ] final  -71.95 input  -60.55 | X-H torsion
[ 11005 11000 10999 10996 ] final  -97.22 input  -57.11 | X-H torsion

> <Gold.Protein.ActiveResidues>
 VAL166  LYS551  ARG553  GLY616  TRP617  ASP618  TYR619  PRO620  LYS621  CYS622 
 ASP623  PHE694  ASN695  SER759  ASP760  ASP761  ALA762  ILE779  LEU786  VAL792 
 PHE793  MET794  SER795  GLU796  ALA797  LYS798  CYS799  TRP800  GLU811  SER814 

> <Gold.Protein.RotatedAtoms>
  150.9550  133.6508  159.2764 H   0  0  0  0  0  0  0  0  0  0  0  0  # atno 6907 bound_to 6896
  151.3850  135.0945  159.9518 H   0  0  0  0  0  0  0  0  0  0  0  0  # atno 6908 bound_to 6896
  152.5125  133.9076  159.7526 H   0  0  0  0  0  0  0  0  0  0  0  0  # atno 6909 bound_to 6896
  144.7220  139.9807  143.6438 H   0  0  0  0  0  0  0  0  0  0  0  0  # atno 7974 bound_to 7965
  155.0779  140.3207  155.4610 H   0  0  0  0  0  0  0  0  0  0  0  0  # atno 8008 bound_to 7997
  156.2774  140.2100  156.5852 H   0  0  0  0  0  0  0  0  0  0  0  0  # atno 8009 bound_to 7997
  154.7002  140.0508  157.0438 H   0  0  0  0  0  0  0  0  0  0  0  0  # atno 8010 bound_to 7997
  140.3135  144.2791  150.6195 H   0  0  0  0  0  0  0  0  0  0  0  0  # atno 10167 bound_to 10162
  157.1222  130.6554  149.5927 H   0  0  0  0  0  0  0  0  0  0  0  0  # atno 10718 bound_to 10713
  154.4389  135.5946  153.6116 H   0  0  0  0  0  0  0  0  0  0  0  0  # atno 10763 bound_to 10752
  152.9804  135.5993  154.3747 H   0  0  0  0  0  0  0  0  0  0  0  0  # atno 10764 bound_to 10752
  154.3595  135.2841  155.2306 H   0  0  0  0  0  0  0  0  0  0  0  0  # atno 10765 bound_to 10752
  141.1386  133.8154  157.0676 H   0  0  0  0  0  0  0  0  0  0  0  0  # atno 11005 bound_to 11000
  146.0490  139.3492  143.0651 LP  0  0  0  0  0  0  0  0  0  0  0  0  # atno 17320 bound_to 7965
  145.8239  140.9665  143.0884 LP  0  0  0  0  0  0  0  0  0  0  0  0  # atno 17321 bound_to 7965
  140.5547  143.2201  151.7868 LP  0  0  0  0  0  0  0  0  0  0  0  0  # atno 17342 bound_to 10162
  139.4889  144.4430  151.9743 LP  0  0  0  0  0  0  0  0  0  0  0  0  # atno 17343 bound_to 10162
  155.9826  130.4840  150.6889 LP  0  0  0  0  0  0  0  0  0  0  0  0  # atno 17370 bound_to 10713
  157.4466  131.0867  151.0889 LP  0  0  0  0  0  0  0  0  0  0  0  0  # atno 17371 bound_to 10713
  140.0531  134.9795  157.1173 LP  0  0  0  0  0  0  0  0  0  0  0  0  # atno 17394 bound_to 11000
  140.3959  134.2134  155.7164 LP  0  0  0  0  0  0  0  0  0  0  0  0  # atno 17395 bound_to 11000

$$$$
