AV-unprocessed.smi:3275|AV-procd|sdf|12533|dock5
  -GOLD-   2272018443D 1   1.00000     0.00000
 Structure written by MMmdl.
 34 35  0  0  0  0  0  0  0  0  1 V2000
  146.0679  140.2393  153.9008 O   0  0  0  0  0  0  0  0  0  0  0  0
  146.5687  141.2264  154.7764 C   0  0  0  0  0  0  0  0  0  0  0  0
  147.6329  142.0662  154.0624 C   0  0  0  0  0  0  0  0  0  0  0  0
  148.6717  141.2035  153.6224 O   0  0  0  0  0  0  0  0  0  0  0  0
  149.3611  140.5304  154.6680 C   0  0  1  0  0  0  0  0  0  0  0  0
  150.3524  139.4908  154.1034 C   0  0  0  0  0  0  0  0  0  0  0  0
  151.2032  138.8914  155.2353 C   0  0  0  0  0  0  0  0  0  0  0  0
  151.8989  139.9946  156.0495 C   0  0  0  0  0  0  0  0  0  0  0  0
  150.9245  140.9713  156.5286 N   0  0  0  0  0  0  0  0  0  0  0  0
  151.4164  141.8126  157.5433 C   0  0  0  0  0  0  0  0  0  0  0  0
  151.3966  143.2219  157.4148 C   0  0  0  0  0  0  0  0  0  0  0  0
  151.9171  144.0092  158.4607 C   0  0  0  0  0  0  0  0  0  0  0  0
  152.4386  143.4909  159.5915 N   0  0  0  0  0  0  0  0  0  0  0  0
  152.4551  142.1474  159.7163 C   0  0  0  0  0  0  0  0  0  0  0  0
  151.9615  141.2670  158.7319 C   0  0  0  0  0  0  0  0  0  0  0  0
  152.0108  139.5616  159.0180 Cl  0  0  0  0  0  0  0  0  0  0  0  0
  150.1173  141.5956  155.4826 C   0  0  0  0  0  0  0  0  0  0  0  0
  145.3892  140.6262  153.3689 H   0  0  0  0  0  0  0  0  0  0  0  0
  145.7451  141.8569  155.1126 H   0  0  0  0  0  0  0  0  0  0  0  0
  146.9910  140.7409  155.6569 H   0  0  0  0  0  0  0  0  0  0  0  0
  147.1895  142.5820  153.2090 H   0  0  0  0  0  0  0  0  0  0  0  0
  148.0222  142.8248  154.7417 H   0  0  0  0  0  0  0  0  0  0  0  0
  148.6456  140.0384  155.3298 H   0  0  0  0  0  0  0  0  0  0  0  0
  149.8267  138.6907  153.5833 H   0  0  0  0  0  0  0  0  0  0  0  0
  151.0044  139.9661  153.3695 H   0  0  0  0  0  0  0  0  0  0  0  0
  150.5668  138.3000  155.8951 H   0  0  0  0  0  0  0  0  0  0  0  0
  151.9453  138.2064  154.8242 H   0  0  0  0  0  0  0  0  0  0  0  0
  152.4438  139.5497  156.8824 H   0  0  0  0  0  0  0  0  0  0  0  0
  152.6360  140.5067  155.4294 H   0  0  0  0  0  0  0  0  0  0  0  0
  151.0039  143.7050  156.5328 H   0  0  0  0  0  0  0  0  0  0  0  0
  151.9172  145.0864  158.3842 H   0  0  0  0  0  0  0  0  0  0  0  0
  152.8721  141.7613  160.6348 H   0  0  0  0  0  0  0  0  0  0  0  0
  150.7648  142.1694  154.8184 H   0  0  0  0  0  0  0  0  0  0  0  0
  149.4084  142.2946  155.9285 H   0  0  0  0  0  0  0  0  0  0  0  0
  1  2  1  0  0  0  0
  1 18  1  0  0  0  0
  2  3  1  0  0  0  0
  2 19  1  0  0  0  0
  2 20  1  0  0  0  0
  3  4  1  0  0  0  0
  3 21  1  0  0  0  0
  3 22  1  0  0  0  0
  4  5  1  0  0  0  0
  5 17  1  0  0  0  0
  5  6  1  0  0  0  0
  5 23  1  0  0  0  0
  6  7  1  0  0  0  0
  6 24  1  0  0  0  0
  6 25  1  0  0  0  0
  7  8  1  0  0  0  0
  7 26  1  0  0  0  0
  7 27  1  0  0  0  0
  8  9  1  0  0  0  0
  8 28  1  0  0  0  0
  8 29  1  0  0  0  0
  9 10  1  0  0  0  0
  9 17  1  0  0  0  0
 10 15  1  0  0  0  0
 10 11  2  0  0  0  0
 11 12  1  0  0  0  0
 11 30  1  0  0  0  0
 12 13  2  0  0  0  0
 12 31  1  0  0  0  0
 13 14  1  0  0  0  0
 14 15  2  0  0  0  0
 14 32  1  0  0  0  0
 15 16  1  0  0  0  0
 17 33  1  0  0  0  0
 17 34  1  0  0  0  0
M  END
> <s_m_source_file>
AV-unprocessed.smi

> <i_m_source_file_index>
3275

> <i_lp_mmshare_version>
43012

> <i_f3d_flags>
0

> <s_epik_input>
W09IXVtDSDJdW0NIMl1PW0NAQEhdMVtDSDJdW0NIMl1bQ0gyXU4oW0NIMl0xKWMyW2NIXVtjSF1uW2NIXWMyQ2w=

> <s_epik_cmdline>
J2VwaWtfcHl0aG9uJywgJy1waCcsICc3LjAnLCAnLXRuJywgJzgnLCAnLW1hJywgJzIwMCcsICctbWV0YWxfYmluZGluZycsICctaW1hZScsICc8aW5maWxlLm1hZT4nLCAnLW9tYWUnLCAnPG91dGZpbGUubWFlPic=

> <r_lp_tautomer_probability>
1

> <r_epik_Ionization_Penalty>
1.24095

> <r_epik_Ionization_Penalty_Charging>
0

> <r_epik_Ionization_Penalty_Neutral>
1.24095

> <r_epik_State_Penalty>
1.30987

> <r_epik_Charging_Adjusted_Penalty>
1.30987

> <i_epik_Tot_Q>
0

> <i_epik_Tot_abs_Q>
0

> <r_epik_Metal_State_Penalty>
0.00479332

> <b_epik_Metal_Only>
0

> <s_lp_Force_Field>
OPLS_2005

> <r_lp_Energy>
20.7809

> <b_lp_Chiralities_Consistent>
1

> <s_lp_Variant>
AV-unprocessed.smi:3275-4

> <Gold.Version>
5.8.1

> <Gold.Id.Protein>
6NUR|6NUR_protein|mol2

> <Gold.PLP.Fitness>
39.6481

> <Gold.PLP.PLP>
-34.7689

> <Gold.PLP.part.hbond>
-2.0000

> <Gold.PLP.part.metal>
0.0000

> <Gold.PLP.part.buried>
-3.0284

> <Gold.PLP.part.nonpolar>
-31.1577

> <Gold.PLP.part.repulsive>
1.6185

> <Gold.PLP.ligand.clash>
0.0000

> <Gold.PLP.ligand.torsion>
0.2002

> <Gold.PLP.Chemscore.Hbond>
1.6578

> <Gold.PLP.Chemscore.CHOScore>
0.0000

> <Gold.PLP.Chemscore.Metal>
0.0000

> <Gold.Chemscore.Hbonds>
donor molecule, donor type, donor heavy atom, donor atom, acceptor molecule, acceptor atom, score
      L1  H     1    18       P1 10175  1.00
      P1  H  8011  8017       L1     4  0.74

> <Gold.PLP.Chemscore.Internal.Correction>
0.3061

> <Gold.Rescore>
     Score         DG    S(hbond)    S(metal)    S(lipo)     H(rot)  DE(clash)    DE(int)     intcor
     15.12     -15.70       1.12        0.00     100.41       2.06       0.24       0.34       ----

> <Gold.Chemscore.Fitness>
15.1183

> <Gold.Chemscore.DG>
-15.6977

> <Gold.Chemscore.ZeroCoef>
-5.4800

> <Gold.Chemscore.Hbond>
1.1186

> <Gold.Chemscore.Metal>
0.0000

> <Gold.Chemscore.Lipo>
100.4068

> <Gold.Chemscore.Internal_Hbond>
0.0000

> <Gold.Chemscore.DEClash>
0.2359

> <Gold.Chemscore.DEInternal>
0.3434

> <Gold.Chemscore.Rot>
2.0570

> <Gold.Chemscore.Internal.Correction>
   9.000000E+99

> <Gold.Chemscore.Hbonds>
donor molecule, donor type, donor heavy atom, donor atom, acceptor molecule, acceptor atom, score
      L1  H     1    18       P1 10175  0.87
      P1  H  8011  8017       L1     4  0.27

> <Gold.Chemscore.Hbond.Weighted>
-3.7361

> <Gold.Chemscore.Metal.Weighted>
-0.0000

> <Gold.Chemscore.Lipo.Weighted>
-11.7476

> <Gold.Chemscore.Internal_Hbond.Weighted>
0.0000

> <Gold.Chemscore.DEClash.Weighted>
0.2359

> <Gold.Chemscore.DEInternal.Weighted>
0.3434

> <Gold.Chemscore.Rot.Weighted>
5.2660

> <Gold.Chemscore.Internal.Correction.Weighted>
   9.000000E+99

> <Gold.Protein.RotatedTorsions>
[ 6907 6896 6895 6894 ] final   80.89 input  -60.11 | X-H torsion
[ 7974 7965 7964 7962 ] final  -88.30 input  175.53 | X-H torsion
[ 8008 7997 7996 7995 ] final  -27.46 input   59.86 | X-H torsion
[ 10167 10162 10161 10158 ] final -101.32 input  -65.29 | X-H torsion
[ 10718 10713 10712 10709 ] final -159.37 input   66.30 | X-H torsion
[ 10763 10752 10751 10750 ] final  -55.73 input  -60.55 | X-H torsion
[ 11005 11000 10999 10996 ] final -172.48 input  -57.11 | X-H torsion

> <Gold.Protein.ActiveResidues>
 VAL166  LYS551  ARG553  GLY616  TRP617  ASP618  TYR619  PRO620  LYS621  CYS622 
 ASP623  PHE694  ASN695  SER759  ASP760  ASP761  ALA762  ILE779  LEU786  VAL792 
 PHE793  MET794  SER795  GLU796  ALA797  LYS798  CYS799  TRP800  GLU811  SER814 

> <Gold.Protein.RotatedAtoms>
  152.5250  134.3288  159.9175 H   0  0  0  0  0  0  0  0  0  0  0  0  # atno 6907 bound_to 6896
  151.3237  133.4023  159.2664 H   0  0  0  0  0  0  0  0  0  0  0  0  # atno 6908 bound_to 6896
  150.9938  134.9283  159.7972 H   0  0  0  0  0  0  0  0  0  0  0  0  # atno 6909 bound_to 6896
  145.4550  140.9561  143.2001 H   0  0  0  0  0  0  0  0  0  0  0  0  # atno 7974 bound_to 7965
  154.4376  140.1872  156.0935 H   0  0  0  0  0  0  0  0  0  0  0  0  # atno 8008 bound_to 7997
  156.0347  140.3326  155.7152 H   0  0  0  0  0  0  0  0  0  0  0  0  # atno 8009 bound_to 7997
  155.5787  140.0619  157.2779 H   0  0  0  0  0  0  0  0  0  0  0  0  # atno 8010 bound_to 7997
  140.2425  143.3529  152.0789 H   0  0  0  0  0  0  0  0  0  0  0  0  # atno 10167 bound_to 10162
  156.5671  130.8672  151.2827 H   0  0  0  0  0  0  0  0  0  0  0  0  # atno 10718 bound_to 10713
  154.1955  135.6420  153.5072 H   0  0  0  0  0  0  0  0  0  0  0  0  # atno 10763 bound_to 10752
  153.0024  135.5439  154.6371 H   0  0  0  0  0  0  0  0  0  0  0  0  # atno 10764 bound_to 10752
  154.5770  135.2922  155.0744 H   0  0  0  0  0  0  0  0  0  0  0  0  # atno 10765 bound_to 10752
  140.4965  134.5934  157.4973 H   0  0  0  0  0  0  0  0  0  0  0  0  # atno 11005 bound_to 11000
  144.8038  139.6090  143.7060 LP  0  0  0  0  0  0  0  0  0  0  0  0  # atno 17320 bound_to 7965
  146.2483  139.6145  142.9444 LP  0  0  0  0  0  0  0  0  0  0  0  0  # atno 17321 bound_to 7965
  139.5072  144.6829  151.5963 LP  0  0  0  0  0  0  0  0  0  0  0  0  # atno 17342 bound_to 10162
  140.6103  143.9449  150.6448 LP  0  0  0  0  0  0  0  0  0  0  0  0  # atno 17343 bound_to 10162
  157.7356  130.9765  150.2091 LP  0  0  0  0  0  0  0  0  0  0  0  0  # atno 17370 bound_to 10713
  156.2747  130.3726  149.7995 LP  0  0  0  0  0  0  0  0  0  0  0  0  # atno 17371 bound_to 10713
  139.9738  134.7249  155.9989 LP  0  0  0  0  0  0  0  0  0  0  0  0  # atno 17394 bound_to 11000
  141.1457  133.6556  156.3861 LP  0  0  0  0  0  0  0  0  0  0  0  0  # atno 17395 bound_to 11000

$$$$
