AV-unprocessed.smi:2368|AV-procd|sdf|9427|dock1
  -GOLD-   2272013 63D 1   1.00000     0.00000
 Structure written by MMmdl.
 35 36  0  0  0  0  0  0  0  0  1 V2000
  152.2436  144.1545  161.4017 C   0  0  0  0  0  0  0  0  0  0  0  0
  152.2304  143.1463  160.2677 C   0  0  0  0  0  0  0  0  0  0  0  0
  153.0941  142.1154  160.3931 N   0  0  0  0  0  0  0  0  0  0  0  0
  153.1179  141.1860  159.4164 C   0  0  0  0  0  0  0  0  0  0  0  0
  152.2942  141.2388  158.2759 C   0  0  0  0  0  0  0  0  0  0  0  0
  151.3971  142.3251  158.1330 C   0  0  0  0  0  0  0  0  0  0  0  0
  150.5037  142.4729  157.0338 N   0  0  0  0  0  0  0  0  0  0  0  0
  150.3092  141.6614  155.9798 C   0  0  0  0  0  0  0  0  0  0  0  0
  150.9230  140.6185  155.7552 O   0  0  0  0  0  0  0  0  0  0  0  0
  149.3520  142.1401  155.1724 N   0  0  0  0  0  0  0  0  0  0  0  0
  148.8862  141.4884  153.9531 C   0  0  2  0  0  0  0  0  0  0  0  0
  147.5315  142.0104  153.5600 C   0  0  0  0  0  0  0  0  0  0  0  0
  146.6002  141.0595  153.5377 C   0  0  0  0  0  0  0  0  0  0  0  0
  147.1322  139.7089  153.9393 C   0  0  1  0  0  0  0  0  0  0  0  0
  146.8149  138.6245  152.8963 C   0  0  0  0  0  0  0  0  0  0  0  0
  147.4374  138.9346  151.6675 O   0  0  0  0  0  0  0  0  0  0  0  0
  148.6487  139.9668  154.1403 C   0  0  0  0  0  0  0  0  0  0  0  0
  151.3602  143.2959  159.1621 C   0  0  0  0  0  0  0  0  0  0  0  0
  150.2751  144.6433  159.0706 Cl  0  0  0  0  0  0  0  0  0  0  0  0
  149.5835  141.6761  153.1348 H   0  0  0  0  0  0  0  0  0  0  0  0
  146.6695  139.4491  154.8924 H   0  0  0  0  0  0  0  0  0  0  0  0
  151.2581  144.2198  161.8633 H   0  0  0  0  0  0  0  0  0  0  0  0
  152.5161  145.1418  161.0279 H   0  0  0  0  0  0  0  0  0  0  0  0
  152.9604  143.8779  162.1761 H   0  0  0  0  0  0  0  0  0  0  0  0
  153.8111  140.3690  159.5508 H   0  0  0  0  0  0  0  0  0  0  0  0
  152.3612  140.4434  157.5505 H   0  0  0  0  0  0  0  0  0  0  0  0
  149.9714  143.3307  157.0316 H   0  0  0  0  0  0  0  0  0  0  0  0
  148.9025  143.0080  155.4253 H   0  0  0  0  0  0  0  0  0  0  0  0
  147.3643  143.0493  153.3152 H   0  0  0  0  0  0  0  0  0  0  0  0
  145.5623  141.2148  153.2828 H   0  0  0  0  0  0  0  0  0  0  0  0
  147.1811  137.6539  153.2323 H   0  0  0  0  0  0  0  0  0  0  0  0
  145.7391  138.5297  152.7442 H   0  0  0  0  0  0  0  0  0  0  0  0
  148.2079  139.4533  151.8426 H   0  0  0  0  0  0  0  0  0  0  0  0
  149.2375  139.4170  153.4048 H   0  0  0  0  0  0  0  0  0  0  0  0
  148.9716  139.6130  155.1205 H   0  0  0  0  0  0  0  0  0  0  0  0
  1  2  1  0  0  0  0
  1 22  1  0  0  0  0
  1 23  1  0  0  0  0
  1 24  1  0  0  0  0
  2 18  1  0  0  0  0
  2  3  2  0  0  0  0
  3  4  1  0  0  0  0
  4  5  2  0  0  0  0
  4 25  1  0  0  0  0
  5  6  1  0  0  0  0
  5 26  1  0  0  0  0
  6  7  1  0  0  0  0
  6 18  2  0  0  0  0
  7  8  1  0  0  0  0
  7 27  1  0  0  0  0
  8  9  2  0  0  0  0
  8 10  1  0  0  0  0
 10 11  1  0  0  0  0
 10 28  1  0  0  0  0
 11 20  1  0  0  0  0
 11 17  1  0  0  0  0
 11 12  1  0  0  0  0
 12 13  2  0  0  0  0
 12 29  1  0  0  0  0
 13 14  1  0  0  0  0
 13 30  1  0  0  0  0
 14 21  1  0  0  0  0
 14 15  1  0  0  0  0
 14 17  1  0  0  0  0
 15 16  1  0  0  0  0
 15 31  1  0  0  0  0
 15 32  1  0  0  0  0
 16 33  1  0  0  0  0
 17 34  1  0  0  0  0
 17 35  1  0  0  0  0
 18 19  1  0  0  0  0
M  END
> <s_m_source_file>
AV-unprocessed.smi

> <i_m_source_file_index>
2368

> <i_lp_mmshare_version>
43012

> <i_f3d_flags>
0

> <s_epik_input>
W0NIM11jMW5bY0hdW2NIXWMoYzFDbClbTkhdQyg9TylbTkhdW0NAQEhdMltDSF09W0NIXVtDQEBIXShbQ0gyXTIpW0NIMl1bT0hd

> <s_epik_cmdline>
J2VwaWtfcHl0aG9uJywgJy1waCcsICc3LjAnLCAnLXRuJywgJzgnLCAnLW1hJywgJzIwMCcsICctbWV0YWxfYmluZGluZycsICctaW1hZScsICc8aW5maWxlLm1hZT4nLCAnLW9tYWUnLCAnPG91dGZpbGUubWFlPic=

> <r_epik_Ionization_Penalty>
0.00964582

> <r_epik_Ionization_Penalty_Charging>
0

> <r_epik_Ionization_Penalty_Neutral>
0.00964582

> <r_epik_State_Penalty>
0.00730775

> <r_epik_Charging_Adjusted_Penalty>
0.00730775

> <i_epik_Tot_Q>
0

> <i_epik_Tot_abs_Q>
0

> <r_epik_Metal_State_Penalty>
0.00719079

> <b_epik_Metal_Only>
0

> <s_lp_Force_Field>
OPLS_2005

> <r_lp_Energy>
22.0768

> <b_lp_Chiralities_Consistent>
1

> <s_lp_Variant>
AV-unprocessed.smi:2368-3

> <Gold.Version>
5.8.1

> <Gold.Id.Protein>
6NUR|6NUR_protein|mol2

> <Gold.PLP.Fitness>
46.2028

> <Gold.PLP.PLP>
-37.7805

> <Gold.PLP.part.hbond>
-4.6309

> <Gold.PLP.part.metal>
0.0000

> <Gold.PLP.part.buried>
-1.6943

> <Gold.PLP.part.nonpolar>
-30.4818

> <Gold.PLP.part.repulsive>
0.2495

> <Gold.PLP.ligand.clash>
0.0000

> <Gold.PLP.ligand.torsion>
0.2416

> <Gold.PLP.Chemscore.Hbond>
2.9614

> <Gold.PLP.Chemscore.CHOScore>
0.0000

> <Gold.PLP.Chemscore.Metal>
0.0000

> <Gold.Chemscore.Hbonds>
donor molecule, donor type, donor heavy atom, donor atom, acceptor molecule, acceptor atom, score
      L1  H     7    27       P1  8028  0.43
      L1  H    10    28       P1  8028  1.00
      L1  H    16    33       P1  7957  0.83
      P1  H  7954  7966       L1    16  0.46
      P1  H  7989  7998       L1     9  0.13

> <Gold.PLP.Chemscore.Internal.Correction>
0.0215

> <Gold.Rescore>
     Score         DG    S(hbond)    S(metal)    S(lipo)     H(rot)  DE(clash)    DE(int)     intcor
     18.19     -21.26       2.35        0.00     106.72       1.78       0.30       2.77       ----

> <Gold.Chemscore.Fitness>
18.1876

> <Gold.Chemscore.DG>
-21.2620

> <Gold.Chemscore.ZeroCoef>
-5.4800

> <Gold.Chemscore.Hbond>
2.3508

> <Gold.Chemscore.Metal>
0.0000

> <Gold.Chemscore.Lipo>
106.7192

> <Gold.Chemscore.Internal_Hbond>
0.0000

> <Gold.Chemscore.DEClash>
0.3050

> <Gold.Chemscore.DEInternal>
2.7694

> <Gold.Chemscore.Rot>
1.7796

> <Gold.Chemscore.Internal.Correction>
   9.000000E+99

> <Gold.Chemscore.Hbonds>
donor molecule, donor type, donor heavy atom, donor atom, acceptor molecule, acceptor atom, score
      L1  H     7    27       P1  8028  0.44
      L1  H    10    28       P1  8028  0.97
      L1  H    16    33       P1  7957  0.83
      P1  H  7954  7966       L1    16  0.08
      P1  H  7989  7998       L1     9  0.05

> <Gold.Chemscore.Hbond.Weighted>
-7.8517

> <Gold.Chemscore.Metal.Weighted>
-0.0000

> <Gold.Chemscore.Lipo.Weighted>
-12.4861

> <Gold.Chemscore.Internal_Hbond.Weighted>
0.0000

> <Gold.Chemscore.DEClash.Weighted>
0.3050

> <Gold.Chemscore.DEInternal.Weighted>
2.7694

> <Gold.Chemscore.Rot.Weighted>
4.5558

> <Gold.Chemscore.Internal.Correction.Weighted>
   9.000000E+99

> <Gold.Protein.RotatedTorsions>
[ 6907 6896 6895 6894 ] final   60.33 input  -60.11 | X-H torsion
[ 7974 7965 7964 7962 ] final  -15.46 input  175.53 | X-H torsion
[ 8008 7997 7996 7995 ] final -166.37 input   59.86 | X-H torsion
[ 10167 10162 10161 10158 ] final  -52.24 input  -65.29 | X-H torsion
[ 10718 10713 10712 10709 ] final   62.49 input   66.30 | X-H torsion
[ 10763 10752 10751 10750 ] final -109.57 input  -60.55 | X-H torsion
[ 11005 11000 10999 10996 ] final  -55.13 input  -57.11 | X-H torsion

> <Gold.Protein.ActiveResidues>
 VAL166  LYS551  ARG553  GLY616  TRP617  ASP618  TYR619  PRO620  LYS621  CYS622 
 ASP623  PHE694  ASN695  SER759  ASP760  ASP761  ALA762  ILE779  LEU786  VAL792 
 PHE793  MET794  SER795  GLU796  ALA797  LYS798  CYS799  TRP800  GLU811  SER814 

> <Gold.Protein.RotatedAtoms>
  152.3993  134.6313  160.0076 H   0  0  0  0  0  0  0  0  0  0  0  0  # atno 6907 bound_to 6896
  151.6523  133.3315  159.3163 H   0  0  0  0  0  0  0  0  0  0  0  0  # atno 6908 bound_to 6896
  150.7896  134.6951  159.6563 H   0  0  0  0  0  0  0  0  0  0  0  0  # atno 6909 bound_to 6896
  146.2031  140.3496  142.8416 H   0  0  0  0  0  0  0  0  0  0  0  0  # atno 7974 bound_to 7965
  155.8629  140.0981  157.1601 H   0  0  0  0  0  0  0  0  0  0  0  0  # atno 8008 bound_to 7997
  154.3991  140.1362  156.4045 H   0  0  0  0  0  0  0  0  0  0  0  0  # atno 8009 bound_to 7997
  155.7837  140.3457  155.5313 H   0  0  0  0  0  0  0  0  0  0  0  0  # atno 8010 bound_to 7997
  140.6547  143.2591  151.4619 H   0  0  0  0  0  0  0  0  0  0  0  0  # atno 10167 bound_to 10162
  157.5904  130.9053  149.9594 H   0  0  0  0  0  0  0  0  0  0  0  0  # atno 10718 bound_to 10713
  154.8200  135.4596  154.0753 H   0  0  0  0  0  0  0  0  0  0  0  0  # atno 10763 bound_to 10752
  153.2114  135.6882  153.8116 H   0  0  0  0  0  0  0  0  0  0  0  0  # atno 10764 bound_to 10752
  153.7566  135.3290  155.3307 H   0  0  0  0  0  0  0  0  0  0  0  0  # atno 10765 bound_to 10752
  141.1059  133.6613  156.4424 H   0  0  0  0  0  0  0  0  0  0  0  0  # atno 11005 bound_to 11000
  144.8729  140.7296  143.6036 LP  0  0  0  0  0  0  0  0  0  0  0  0  # atno 17320 bound_to 7965
  145.3415  139.1731  143.4483 LP  0  0  0  0  0  0  0  0  0  0  0  0  # atno 17321 bound_to 7965
  139.5768  144.1800  152.1914 LP  0  0  0  0  0  0  0  0  0  0  0  0  # atno 17342 bound_to 10162
  140.1113  144.5454  150.6923 LP  0  0  0  0  0  0  0  0  0  0  0  0  # atno 17343 bound_to 10162
  156.0958  130.3659  150.0309 LP  0  0  0  0  0  0  0  0  0  0  0  0  # atno 17370 bound_to 10713
  156.8432  130.9433  151.3630 LP  0  0  0  0  0  0  0  0  0  0  0  0  # atno 17371 bound_to 10713
  140.4903  134.6582  157.5208 LP  0  0  0  0  0  0  0  0  0  0  0  0  # atno 17394 bound_to 11000
  139.9929  134.6956  155.9658 LP  0  0  0  0  0  0  0  0  0  0  0  0  # atno 17395 bound_to 11000

$$$$
