AV-unprocessed.smi:1385|AV-procd|sdf|5631|dock2
  -GOLD-   22720 5243D 1   1.00000     0.00000
 Structure written by MMmdl.
 37 38  0  0  0  0  0  0  0  0  2 V2000
  148.8733  140.6961  154.5502 C   0  0  0  0  0  0  0  0  0  0  0  0
  149.8734  139.6183  154.7940 C   0  0  0  0  0  0  0  0  0  0  0  0
  151.1906  139.8269  154.7290 N   0  0  0  0  0  0  0  0  0  0  0  0
  151.9158  138.6740  154.9928 N   0  0  0  0  0  0  0  0  0  0  0  0
  151.1393  137.6094  155.2409 C   0  0  0  0  0  0  0  0  0  0  0  0
  151.6448  136.3968  155.5208 N   0  5  0  0  0  0  0  0  0  0  0  0
  150.8145  135.3738  155.8263 C   0  0  0  0  0  0  0  0  0  0  0  0
  150.4118  135.0716  156.9522 O   0  0  0  0  0  0  0  0  0  0  0  0
  150.4268  134.6573  154.7614 N   0  0  0  0  0  0  0  0  0  0  0  0
  149.5287  133.5061  154.7832 C   0  0  0  0  0  0  0  0  0  0  0  0
  150.2942  132.2507  155.2224 C   0  0  0  0  0  0  0  0  0  0  0  0
  149.3986  131.0023  155.1427 C   0  0  0  0  0  0  0  0  0  0  0  0
  148.8949  130.8122  153.7782 N   0  0  0  0  0  0  0  0  0  0  0  0
  148.1436  129.5385  153.7086 C   0  0  0  0  0  0  0  0  0  0  0  0
  146.6261  129.6903  153.8651 C   0  0  0  0  0  0  0  0  0  0  0  0
  146.0733  129.1938  154.9747 N   0  0  0  0  0  0  0  0  0  0  0  0
  145.9640  130.2548  152.9970 O   0  0  0  0  0  0  0  0  0  0  0  0
  148.0841  131.9692  153.3695 C   0  0  0  0  0  0  0  0  0  0  0  0
  148.9239  133.2581  153.3922 C   0  0  0  0  0  0  0  0  0  0  0  0
  149.4140  137.9699  155.1858 S   0  0  0  0  0  0  0  0  0  0  0  0
  148.7411  140.8454  153.4785 H   0  0  0  0  0  0  0  0  0  0  0  0
  149.2088  141.6323  154.9975 H   0  0  0  0  0  0  0  0  0  0  0  0
  147.9122  140.4260  154.9877 H   0  0  0  0  0  0  0  0  0  0  0  0
  150.7799  134.9421  153.8598 H   0  0  0  0  0  0  0  0  0  0  0  0
  148.7241  133.6851  155.4989 H   0  0  0  0  0  0  0  0  0  0  0  0
  151.1731  132.1076  154.5913 H   0  0  0  0  0  0  0  0  0  0  0  0
  150.6622  132.3763  156.2413 H   0  0  0  0  0  0  0  0  0  0  0  0
  149.9823  130.1322  155.4462 H   0  0  0  0  0  0  0  0  0  0  0  0
  148.5684  131.0880  155.8462 H   0  0  0  0  0  0  0  0  0  0  0  0
  148.3167  129.0691  152.7390 H   0  0  0  0  0  0  0  0  0  0  0  0
  148.5251  128.8436  154.4595 H   0  0  0  0  0  0  0  0  0  0  0  0
  145.0768  129.2675  155.1192 H   0  0  0  0  0  0  0  0  0  0  0  0
  146.6562  128.7424  155.6645 H   0  0  0  0  0  0  0  0  0  0  0  0
  147.6998  131.8384  152.3581 H   0  0  0  0  0  0  0  0  0  0  0  0
  147.2182  132.0720  154.0258 H   0  0  0  0  0  0  0  0  0  0  0  0
  148.3028  134.1047  153.0969 H   0  0  0  0  0  0  0  0  0  0  0  0
  149.7189  133.1851  152.6482 H   0  0  0  0  0  0  0  0  0  0  0  0
  1  2  1  0  0  0  0
  1 21  1  0  0  0  0
  1 22  1  0  0  0  0
  1 23  1  0  0  0  0
  2 20  1  0  0  0  0
  2  3  2  0  0  0  0
  3  4  1  0  0  0  0
  4  5  2  0  0  0  0
  5  6  1  0  0  0  0
  5 20  1  0  0  0  0
  6  7  1  0  0  0  0
  7  8  2  0  0  0  0
  7  9  1  0  0  0  0
  9 10  1  0  0  0  0
  9 24  1  0  0  0  0
 10 19  1  0  0  0  0
 10 11  1  0  0  0  0
 10 25  1  0  0  0  0
 11 12  1  0  0  0  0
 11 26  1  0  0  0  0
 11 27  1  0  0  0  0
 12 13  1  0  0  0  0
 12 28  1  0  0  0  0
 12 29  1  0  0  0  0
 13 14  1  0  0  0  0
 13 18  1  0  0  0  0
 14 15  1  0  0  0  0
 14 30  1  0  0  0  0
 14 31  1  0  0  0  0
 15 16  1  0  0  0  0
 15 17  2  0  0  0  0
 16 32  1  0  0  0  0
 16 33  1  0  0  0  0
 18 19  1  0  0  0  0
 18 34  1  0  0  0  0
 18 35  1  0  0  0  0
 19 36  1  0  0  0  0
 19 37  1  0  0  0  0
M  CHG  1   6  -1
M  END
> <s_m_source_file>
AV-unprocessed.smi

> <i_m_source_file_index>
1385

> <i_lp_mmshare_version>
43012

> <i_f3d_flags>
0

> <s_epik_input>
W0NIM11jMW5uYyhzMSlbTkhdQyg9TylbTkhdW0NIXTJbQ0gyXVtDSDJdTihbQ0gyXVtDSDJdMilbQ0gyXUMoPU8pW05IMl0=

> <s_epik_cmdline>
J2VwaWtfcHl0aG9uJywgJy1waCcsICc3LjAnLCAnLXRuJywgJzgnLCAnLW1hJywgJzIwMCcsICctbWV0YWxfYmluZGluZycsICctaW1hZScsICc8aW5maWxlLm1hZT4nLCAnLW9tYWUnLCAnPG91dGZpbGUubWFlPic=

> <r_lp_tautomer_probability>
1

> <r_epik_Ionization_Penalty>
3.72698

> <r_epik_Ionization_Penalty_Charging>
3.38897

> <r_epik_Ionization_Penalty_Neutral>
0.338006

> <r_epik_State_Penalty>
3.53372

> <r_epik_Charging_Adjusted_Penalty>
6.92269

> <i_epik_Tot_Q>
-1

> <i_epik_Tot_abs_Q>
1

> <r_epik_Metal_State_Penalty>
0.657042

> <b_epik_Metal_Only>
1

> <s_lp_Force_Field>
OPLS_2005

> <r_lp_Energy>
7.29134

> <b_lp_Chiralities_Consistent>
1

> <s_lp_Variant>
AV-unprocessed.smi:1385-4

> <Gold.Version>
5.8.1

> <Gold.Id.Protein>
6NUR|6NUR_protein|mol2

> <Gold.PLP.Fitness>
38.6452

> <Gold.PLP.PLP>
-29.6868

> <Gold.PLP.part.hbond>
-3.0000

> <Gold.PLP.part.metal>
0.0000

> <Gold.PLP.part.buried>
-4.6239

> <Gold.PLP.part.nonpolar>
-22.5476

> <Gold.PLP.part.repulsive>
0.5401

> <Gold.PLP.ligand.clash>
0.0000

> <Gold.PLP.ligand.torsion>
1.5634

> <Gold.PLP.Chemscore.Hbond>
4.0000

> <Gold.PLP.Chemscore.CHOScore>
0.0000

> <Gold.PLP.Chemscore.Metal>
0.0000

> <Gold.Chemscore.Hbonds>
donor molecule, donor type, donor heavy atom, donor atom, acceptor molecule, acceptor atom, score
      L1  H    16    32       P1 10956  1.00
      P1  H  7989  7998       L1     3  1.00
      P1  H 10752 10764       L1     6  2.00

> <Gold.PLP.Chemscore.Internal.Correction>
0.0852

> <Gold.Rescore>
     Score         DG    S(hbond)    S(metal)    S(lipo)     H(rot)  DE(clash)    DE(int)     intcor
     12.38     -15.21       2.74        0.00      49.03       2.02       0.03       2.81       ----

> <Gold.Chemscore.Fitness>
12.3753

> <Gold.Chemscore.DG>
-15.2090

> <Gold.Chemscore.ZeroCoef>
-5.4800

> <Gold.Chemscore.Hbond>
2.7407

> <Gold.Chemscore.Metal>
0.0000

> <Gold.Chemscore.Lipo>
49.0326

> <Gold.Chemscore.Internal_Hbond>
0.0000

> <Gold.Chemscore.DEClash>
0.0272

> <Gold.Chemscore.DEInternal>
2.8065

> <Gold.Chemscore.Rot>
2.0163

> <Gold.Chemscore.Internal.Correction>
   9.000000E+99

> <Gold.Chemscore.Hbonds>
donor molecule, donor type, donor heavy atom, donor atom, acceptor molecule, acceptor atom, score
      L1  H    16    32       P1 10956  1.00
      P1  H  7989  7998       L1     3  0.87
      P1  H 10752 10764       L1     6  0.30

> <Gold.Chemscore.Hbond.Weighted>
-9.1539

> <Gold.Chemscore.Metal.Weighted>
-0.0000

> <Gold.Chemscore.Lipo.Weighted>
-5.7368

> <Gold.Chemscore.Internal_Hbond.Weighted>
0.0000

> <Gold.Chemscore.DEClash.Weighted>
0.0272

> <Gold.Chemscore.DEInternal.Weighted>
2.8065

> <Gold.Chemscore.Rot.Weighted>
5.1617

> <Gold.Chemscore.Internal.Correction.Weighted>
   9.000000E+99

> <Gold.Protein.RotatedTorsions>
[ 6907 6896 6895 6894 ] final  109.35 input  -60.11 | X-H torsion
[ 7974 7965 7964 7962 ] final   17.70 input  175.53 | X-H torsion
[ 8008 7997 7996 7995 ] final   85.32 input   59.86 | X-H torsion
[ 10167 10162 10161 10158 ] final   37.86 input  -65.29 | X-H torsion
[ 10718 10713 10712 10709 ] final -121.10 input   66.30 | X-H torsion
[ 10763 10752 10751 10750 ] final  -45.76 input  -60.55 | X-H torsion
[ 11005 11000 10999 10996 ] final  161.03 input  -57.11 | X-H torsion

> <Gold.Protein.ActiveResidues>
 VAL166  LYS551  ARG553  GLY616  TRP617  ASP618  TYR619  PRO620  LYS621  CYS622 
 ASP623  PHE694  ASN695  SER759  ASP760  ASP761  ALA762  ILE779  LEU786  VAL792 
 PHE793  MET794  SER795  GLU796  ALA797  LYS798  CYS799  TRP800  GLU811  SER814 

> <Gold.Protein.RotatedAtoms>
  152.5071  133.8957  159.7415 H   0  0  0  0  0  0  0  0  0  0  0  0  # atno 6907 bound_to 6896
  150.9385  133.6675  159.2802 H   0  0  0  0  0  0  0  0  0  0  0  0  # atno 6908 bound_to 6896
  151.3995  135.0973  159.9604 H   0  0  0  0  0  0  0  0  0  0  0  0  # atno 6909 bound_to 6896
  146.2209  139.8563  142.8613 H   0  0  0  0  0  0  0  0  0  0  0  0  # atno 7974 bound_to 7965
  155.9485  140.3403  155.6387 H   0  0  0  0  0  0  0  0  0  0  0  0  # atno 8008 bound_to 7997
  155.6950  140.0753  157.2451 H   0  0  0  0  0  0  0  0  0  0  0  0  # atno 8009 bound_to 7997
  154.4117  140.1650  156.2116 H   0  0  0  0  0  0  0  0  0  0  0  0  # atno 8010 bound_to 7997
  140.3992  144.1746  150.6133 H   0  0  0  0  0  0  0  0  0  0  0  0  # atno 10167 bound_to 10162
  156.1310  130.6395  150.9621 H   0  0  0  0  0  0  0  0  0  0  0  0  # atno 10718 bound_to 10713
  154.0339  135.6653  153.4783 H   0  0  0  0  0  0  0  0  0  0  0  0  # atno 10763 bound_to 10752
  153.0529  135.5073  154.7906 H   0  0  0  0  0  0  0  0  0  0  0  0  # atno 10764 bound_to 10752
  154.6861  135.3053  154.9511 H   0  0  0  0  0  0  0  0  0  0  0  0  # atno 10765 bound_to 10752
  140.2118  134.8262  157.3128 H   0  0  0  0  0  0  0  0  0  0  0  0  # atno 11005 bound_to 11000
  145.2749  141.0120  143.3750 LP  0  0  0  0  0  0  0  0  0  0  0  0  # atno 17320 bound_to 7965
  144.9194  139.4430  143.6548 LP  0  0  0  0  0  0  0  0  0  0  0  0  # atno 17321 bound_to 7965
  140.4757  143.2397  151.9026 LP  0  0  0  0  0  0  0  0  0  0  0  0  # atno 17342 bound_to 10162
  139.4785  144.5322  151.8650 LP  0  0  0  0  0  0  0  0  0  0  0  0  # atno 17343 bound_to 10162
  157.6488  131.0900  150.8095 LP  0  0  0  0  0  0  0  0  0  0  0  0  # atno 17370 bound_to 10713
  156.8180  130.4974  149.5347 LP  0  0  0  0  0  0  0  0  0  0  0  0  # atno 17371 bound_to 10713
  140.1943  134.4333  155.7698 LP  0  0  0  0  0  0  0  0  0  0  0  0  # atno 17394 bound_to 11000
  141.2226  133.7041  156.8078 LP  0  0  0  0  0  0  0  0  0  0  0  0  # atno 17395 bound_to 11000

$$$$
