AV-unprocessed.smi:212|AV-procd|sdf|1624|dock9
  -GOLD-   2262019563D 1   1.00000     0.00000
 Structure written by MMmdl.
 65 68  0  0  0  0  0  0  0  0  2 V2000
  145.6692  132.9609  156.4977 C   0  0  0  0  0  0  0  0  0  0  0  0
  146.2154  132.7090  155.0791 C   0  0  1  0  0  0  0  0  0  0  0  0
  145.6498  133.6816  154.0207 C   0  0  0  0  0  0  0  0  0  0  0  0
  146.1662  133.3563  152.6656 N   0  3  1  0  0  0  0  0  0  0  0  0
  145.5965  134.2198  151.5979 C   0  0  0  0  0  0  0  0  0  0  0  0
  144.4584  133.5189  150.8218 C   0  0  0  0  0  0  0  0  0  0  0  0
  144.9543  132.1826  150.2443 C   0  0  0  0  0  0  0  0  0  0  0  0
  143.2045  133.2913  151.6861 C   0  0  0  0  0  0  0  0  0  0  0  0
  144.0997  134.3309  149.7207 O   0  0  0  0  0  0  0  0  0  0  0  0
  147.6489  133.2683  152.6230 C   0  0  0  0  0  0  0  0  0  0  0  0
  148.1767  132.2785  153.6787 C   0  0  0  0  0  0  0  0  0  0  0  0
  147.6802  132.6232  155.0074 N   0  0  0  0  0  0  0  0  0  0  0  0
  148.4679  133.5292  155.6420 C   0  0  0  0  0  0  0  0  0  0  0  0
  149.3719  133.1314  156.5755 N   0  0  0  0  0  0  0  0  0  0  0  0
  150.1229  134.0344  157.2135 C   0  0  0  0  0  0  0  0  0  0  0  0
  150.1255  135.3621  157.0796 N   0  0  0  0  0  0  0  0  0  0  0  0
  149.2126  135.7661  156.1509 C   0  0  0  0  0  0  0  0  0  0  0  0
  148.3496  134.9239  155.3960 C   0  0  0  0  0  0  0  0  0  0  0  0
  147.5554  135.6899  154.5517 N   0  0  0  0  0  0  0  0  0  0  0  0
  147.9294  136.9174  154.7926 C   0  0  0  0  0  0  0  0  0  0  0  0
  148.9240  137.0532  155.7350 N   0  0  0  0  0  0  0  0  0  0  0  0
  149.5270  138.2928  156.1925 C   0  0  0  0  0  0  0  0  0  0  0  0
  151.0611  138.3444  155.9816 C   0  0  1  0  0  0  0  0  0  0  0  0
  151.4795  137.9983  154.5317 C   0  0  0  0  0  0  0  0  0  0  0  0
  151.4160  136.6070  154.2935 O   0  0  0  0  0  0  0  0  0  0  0  0
  151.6543  139.6933  156.4605 C   0  0  2  0  0  0  0  0  0  0  0  0
  151.3744  140.0383  157.9129 C   0  0  0  0  0  0  0  0  0  0  0  0
  151.6424  141.5388  157.9453 C   0  0  0  0  0  0  0  0  0  0  0  0
  151.2828  142.0223  156.6558 O   0  0  0  0  0  0  0  0  0  0  0  0
  151.0711  140.9294  155.7679 C   0  0  0  0  0  0  0  0  0  0  0  0
  144.5851  132.8473  156.5174 H   0  0  0  0  0  0  0  0  0  0  0  0
  145.8916  133.9638  156.8603 H   0  0  0  0  0  0  0  0  0  0  0  0
  146.0844  132.2471  157.2098 H   0  0  0  0  0  0  0  0  0  0  0  0
  145.8643  131.7131  154.8046 H   0  0  0  0  0  0  0  0  0  0  0  0
  144.5610  133.6162  154.0112 H   0  0  0  0  0  0  0  0  0  0  0  0
  145.8974  134.7146  154.2664 H   0  0  0  0  0  0  0  0  0  0  0  0
  145.2248  135.1520  152.0278 H   0  0  0  0  0  0  0  0  0  0  0  0
  146.3808  134.5197  150.9009 H   0  0  0  0  0  0  0  0  0  0  0  0
  145.2521  131.4974  151.0388 H   0  0  0  0  0  0  0  0  0  0  0  0
  145.8176  132.3241  149.5926 H   0  0  0  0  0  0  0  0  0  0  0  0
  144.1785  131.6876  149.6587 H   0  0  0  0  0  0  0  0  0  0  0  0
  143.4354  132.6821  152.5606 H   0  0  0  0  0  0  0  0  0  0  0  0
  142.4249  132.7751  151.1244 H   0  0  0  0  0  0  0  0  0  0  0  0
  142.7781  134.2302  152.0403 H   0  0  0  0  0  0  0  0  0  0  0  0
  144.8049  134.3137  149.0911 H   0  0  0  0  0  0  0  0  0  0  0  0
  147.9703  132.9486  151.6314 H   0  0  0  0  0  0  0  0  0  0  0  0
  148.0756  134.2584  152.7910 H   0  0  0  0  0  0  0  0  0  0  0  0
  147.8455  131.2677  153.4375 H   0  0  0  0  0  0  0  0  0  0  0  0
  149.2670  132.2545  153.6582 H   0  0  0  0  0  0  0  0  0  0  0  0
  150.8204  133.6364  157.9357 H   0  0  0  0  0  0  0  0  0  0  0  0
  147.4923  137.7629  154.2812 H   0  0  0  0  0  0  0  0  0  0  0  0
  149.0475  139.1218  155.6706 H   0  0  0  0  0  0  0  0  0  0  0  0
  149.2802  138.4099  157.2479 H   0  0  0  0  0  0  0  0  0  0  0  0
  151.4909  137.5660  156.6133 H   0  0  0  0  0  0  0  0  0  0  0  0
  150.8393  138.5063  153.8110 H   0  0  0  0  0  0  0  0  0  0  0  0
  152.4920  138.3438  154.3233 H   0  0  0  0  0  0  0  0  0  0  0  0
  151.0969  136.4672  153.4149 H   0  0  0  0  0  0  0  0  0  0  0  0
  152.7350  139.6919  156.3088 H   0  0  0  0  0  0  0  0  0  0  0  0
  150.3296  139.8403  158.1578 H   0  0  0  0  0  0  0  0  0  0  0  0
  152.0015  139.4897  158.6162 H   0  0  0  0  0  0  0  0  0  0  0  0
  151.0842  142.0454  158.7329 H   0  0  0  0  0  0  0  0  0  0  0  0
  152.7042  141.7318  158.1040 H   0  0  0  0  0  0  0  0  0  0  0  0
  151.5299  141.1201  154.7975 H   0  0  0  0  0  0  0  0  0  0  0  0
  149.9968  140.8171  155.6161 H   0  0  0  0  0  0  0  0  0  0  0  0
  145.8294  132.4250  152.4664 H   0  0  0  0  0  0  0  0  0  0  0  0
  1  2  1  0  0  0  0
  1 31  1  0  0  0  0
  1 32  1  0  0  0  0
  1 33  1  0  0  0  0
  2 12  1  0  0  0  0
  2  3  1  0  0  0  0
  2 34  1  0  0  0  0
  3  4  1  0  0  0  0
  3 35  1  0  0  0  0
  3 36  1  0  0  0  0
  4  5  1  0  0  0  0
  4 10  1  0  0  0  0
  4 65  1  0  0  0  0
  5  6  1  0  0  0  0
  5 37  1  0  0  0  0
  5 38  1  0  0  0  0
  6  7  1  0  0  0  0
  6  8  1  0  0  0  0
  6  9  1  0  0  0  0
  7 39  1  0  0  0  0
  7 40  1  0  0  0  0
  7 41  1  0  0  0  0
  8 42  1  0  0  0  0
  8 43  1  0  0  0  0
  8 44  1  0  0  0  0
  9 45  1  0  0  0  0
 10 11  1  0  0  0  0
 10 46  1  0  0  0  0
 10 47  1  0  0  0  0
 11 12  1  0  0  0  0
 11 48  1  0  0  0  0
 11 49  1  0  0  0  0
 12 13  1  0  0  0  0
 13 18  1  0  0  0  0
 13 14  2  0  0  0  0
 14 15  1  0  0  0  0
 15 16  2  0  0  0  0
 15 50  1  0  0  0  0
 16 17  1  0  0  0  0
 17 21  1  0  0  0  0
 17 18  2  0  0  0  0
 18 19  1  0  0  0  0
 19 20  2  0  0  0  0
 20 21  1  0  0  0  0
 20 51  1  0  0  0  0
 21 22  1  0  0  0  0
 22 23  1  0  0  0  0
 22 52  1  0  0  0  0
 22 53  1  0  0  0  0
 23 24  1  0  0  0  0
 23 26  1  0  0  0  0
 23 54  1  0  0  0  0
 24 25  1  0  0  0  0
 24 55  1  0  0  0  0
 24 56  1  0  0  0  0
 25 57  1  0  0  0  0
 26 30  1  0  0  0  0
 26 27  1  0  0  0  0
 26 58  1  0  0  0  0
 27 28  1  0  0  0  0
 27 59  1  0  0  0  0
 27 60  1  0  0  0  0
 28 29  1  0  0  0  0
 28 61  1  0  0  0  0
 28 62  1  0  0  0  0
 29 30  1  0  0  0  0
 30 63  1  0  0  0  0
 30 64  1  0  0  0  0
M  CHG  1   4   1
M  END
> <s_m_source_file>
AV-unprocessed.smi

> <i_m_source_file_index>
212

> <i_lp_mmshare_version>
43012

> <i_f3d_flags>
0

> <s_epik_input>
W0NIM11bQ0BASF0xW0NIMl1OKFtDSDJdQyhbQ0gzXSkoW0NIM10pW09IXSlbQ0gyXVtDSDJdTjFjKG5bY0hdbjIpYyhjMjMpbltjSF1uM1tDSDJdW0NASF0oW0NIMl1bT0hdKVtDQEBIXTRbQ0gyXVtDSDJdT1tDSDJdNA==

> <s_epik_cmdline>
J2VwaWtfcHl0aG9uJywgJy1waCcsICc3LjAnLCAnLXRuJywgJzgnLCAnLW1hJywgJzIwMCcsICctbWV0YWxfYmluZGluZycsICctaW1hZScsICc8aW5maWxlLm1hZT4nLCAnLW9tYWUnLCAnPG91dGZpbGUubWFlPic=

> <r_lp_tautomer_probability>
1

> <r_epik_Ionization_Penalty>
0.00182193

> <r_epik_Ionization_Penalty_Charging>
0.00173996

> <r_epik_Ionization_Penalty_Neutral>
8.19718e-05

> <r_epik_State_Penalty>
-0

> <r_epik_Charging_Adjusted_Penalty>
0.00173996

> <i_epik_Tot_Q>
1

> <i_epik_Tot_abs_Q>
1

> <r_epik_Metal_State_Penalty>
-0

> <b_epik_Metal_Only>
0

> <s_lp_Force_Field>
OPLS_2005

> <r_lp_Energy>
58.8905

> <b_lp_Chiralities_Consistent>
1

> <s_lp_Variant>
AV-unprocessed.smi:212-8

> <Gold.Version>
5.8.1

> <Gold.Id.Protein>
6NUR|6NUR_protein|mol2

> <Gold.PLP.Fitness>
46.9139

> <Gold.PLP.PLP>
-39.2908

> <Gold.PLP.part.hbond>
-4.0055

> <Gold.PLP.part.metal>
0.0000

> <Gold.PLP.part.buried>
-6.1883

> <Gold.PLP.part.nonpolar>
-30.5757

> <Gold.PLP.part.repulsive>
1.5566

> <Gold.PLP.ligand.clash>
0.0000

> <Gold.PLP.ligand.torsion>
1.2311

> <Gold.PLP.Chemscore.Hbond>
3.0000

> <Gold.PLP.Chemscore.CHOScore>
0.0000

> <Gold.PLP.Chemscore.Metal>
0.0000

> <Gold.Chemscore.Hbonds>
donor molecule, donor type, donor heavy atom, donor atom, acceptor molecule, acceptor atom, score
      L1  H     9    45       P1  7921  0.99
      L1  H    25    57       P1  7949  1.00
      P1  H 10752 10765       L1    25  1.00

> <Gold.PLP.Chemscore.Internal.Correction>
1.0853

> <Gold.Rescore>
     Score         DG    S(hbond)    S(metal)    S(lipo)     H(rot)  DE(clash)    DE(int)     intcor
     11.53     -15.28       2.67        0.00      88.09       3.68       0.86       2.89       ----

> <Gold.Chemscore.Fitness>
11.5315

> <Gold.Chemscore.DG>
-15.2794

> <Gold.Chemscore.ZeroCoef>
-5.4800

> <Gold.Chemscore.Hbond>
2.6696

> <Gold.Chemscore.Metal>
0.0000

> <Gold.Chemscore.Lipo>
88.0937

> <Gold.Chemscore.Internal_Hbond>
0.0000

> <Gold.Chemscore.DEClash>
0.8584

> <Gold.Chemscore.DEInternal>
2.8894

> <Gold.Chemscore.Rot>
3.6812

> <Gold.Chemscore.Internal.Correction>
   9.000000E+99

> <Gold.Chemscore.Hbonds>
donor molecule, donor type, donor heavy atom, donor atom, acceptor molecule, acceptor atom, score
      L1  H     9    45       P1  7921  0.92
      L1  H    25    57       P1  7949  0.33
      P1  H 10752 10765       L1    25  0.67

> <Gold.Chemscore.Hbond.Weighted>
-8.9163

> <Gold.Chemscore.Metal.Weighted>
-0.0000

> <Gold.Chemscore.Lipo.Weighted>
-10.3070

> <Gold.Chemscore.Internal_Hbond.Weighted>
0.0000

> <Gold.Chemscore.DEClash.Weighted>
0.8584

> <Gold.Chemscore.DEInternal.Weighted>
2.8894

> <Gold.Chemscore.Rot.Weighted>
9.4239

> <Gold.Chemscore.Internal.Correction.Weighted>
   9.000000E+99

> <Gold.Protein.RotatedTorsions>
[ 6907 6896 6895 6894 ] final   71.74 input  -60.11 | X-H torsion
[ 7974 7965 7964 7962 ] final  -96.08 input  175.53 | X-H torsion
[ 8008 7997 7996 7995 ] final   -7.45 input   59.86 | X-H torsion
[ 10167 10162 10161 10158 ] final  -53.25 input  -65.29 | X-H torsion
[ 10718 10713 10712 10709 ] final -141.29 input   66.30 | X-H torsion
[ 10763 10752 10751 10750 ] final  177.83 input  -60.55 | X-H torsion
[ 11005 11000 10999 10996 ] final  148.81 input  -57.11 | X-H torsion

> <Gold.Protein.ActiveResidues>
 VAL166  LYS551  ARG553  GLY616  TRP617  ASP618  TYR619  PRO620  LYS621  CYS622 
 ASP623  PHE694  ASN695  SER759  ASP760  ASP761  ALA762  ILE779  LEU786  VAL792 
 PHE793  MET794  SER795  GLU796  ALA797  LYS798  CYS799  TRP800  GLU811  SER814 

> <Gold.Protein.RotatedAtoms>
  152.4828  134.4675  159.9624 H   0  0  0  0  0  0  0  0  0  0  0  0  # atno 6907 bound_to 6896
  151.4677  133.3571  159.2826 H   0  0  0  0  0  0  0  0  0  0  0  0  # atno 6908 bound_to 6896
  150.8913  134.8342  159.7356 H   0  0  0  0  0  0  0  0  0  0  0  0  # atno 6909 bound_to 6896
  145.3516  140.9477  143.2551 H   0  0  0  0  0  0  0  0  0  0  0  0  # atno 7974 bound_to 7965
  154.5837  140.2406  155.8018 H   0  0  0  0  0  0  0  0  0  0  0  0  # atno 8008 bound_to 7997
  156.2198  140.3001  155.9880 H   0  0  0  0  0  0  0  0  0  0  0  0  # atno 8009 bound_to 7997
  155.2496  140.0410  157.2975 H   0  0  0  0  0  0  0  0  0  0  0  0  # atno 8010 bound_to 7997
  140.6494  143.2556  151.4765 H   0  0  0  0  0  0  0  0  0  0  0  0  # atno 10167 bound_to 10162
  156.3323  130.7592  151.1713 H   0  0  0  0  0  0  0  0  0  0  0  0  # atno 10718 bound_to 10713
  154.4996  135.2783  155.1431 H   0  0  0  0  0  0  0  0  0  0  0  0  # atno 10763 bound_to 10752
  154.3070  135.6236  153.5452 H   0  0  0  0  0  0  0  0  0  0  0  0  # atno 10764 bound_to 10752
  152.9900  135.5710  154.5436 H   0  0  0  0  0  0  0  0  0  0  0  0  # atno 10765 bound_to 10752
  140.0991  134.8994  157.1768 H   0  0  0  0  0  0  0  0  0  0  0  0  # atno 11005 bound_to 11000
  144.8713  139.5034  143.6766 LP  0  0  0  0  0  0  0  0  0  0  0  0  # atno 17320 bound_to 7965
  146.2965  139.7295  142.9122 LP  0  0  0  0  0  0  0  0  0  0  0  0  # atno 17321 bound_to 7965
  139.5708  144.1933  152.1833 LP  0  0  0  0  0  0  0  0  0  0  0  0  # atno 17342 bound_to 10162
  140.1229  144.5357  150.6851 LP  0  0  0  0  0  0  0  0  0  0  0  0  # atno 17343 bound_to 10162
  157.7432  131.0478  150.4961 LP  0  0  0  0  0  0  0  0  0  0  0  0  # atno 17370 bound_to 10713
  156.5129  130.4143  149.6291 LP  0  0  0  0  0  0  0  0  0  0  0  0  # atno 17371 bound_to 10713
  140.3245  134.2879  155.7239 LP  0  0  0  0  0  0  0  0  0  0  0  0  # atno 17394 bound_to 11000
  141.2100  133.7731  156.9957 LP  0  0  0  0  0  0  0  0  0  0  0  0  # atno 17395 bound_to 11000

$$$$
