AV-unprocessed.smi:3141|AV-procd|sdf|11965|dock2
  -GOLD-   2272017363D 1   1.00000     0.00000
 Structure written by MMmdl.
 36 38  0  0  0  0  0  0  0  0  2 V2000
  150.7571  141.3807  157.8730 O   0  0  0  0  0  0  0  0  0  0  0  0
  150.2975  142.4213  157.4006 C   0  0  0  0  0  0  0  0  0  0  0  0
  150.9111  143.6105  157.4557 N   0  0  0  0  0  0  0  0  0  0  0  0
  152.1818  143.8569  158.0566 C   0  0  0  0  0  0  0  0  0  0  0  0
  152.3423  143.5271  159.5249 C   0  0  0  0  0  0  0  0  0  0  0  0
  152.2675  144.9633  159.0855 C   0  0  0  0  0  0  0  0  0  0  0  0
  149.1220  142.4968  156.7609 N   0  0  0  0  0  0  0  0  0  0  0  0
  148.2262  141.3665  156.5311 C   0  0  1  0  0  0  0  0  0  0  0  0
  146.8108  141.6772  157.0561 C   0  0  0  0  0  0  0  0  0  0  0  0
  145.9022  141.7623  155.8269 C   0  0  0  0  0  0  0  0  0  0  0  0
  146.5568  140.8366  154.8063 C   0  0  0  0  0  0  0  0  0  0  0  0
  148.0566  141.0688  155.0216 C   0  0  2  0  0  0  0  0  0  0  0  0
  148.9041  139.9718  154.5298 N   0  0  0  0  0  0  0  0  0  0  0  0
  150.2554  139.8307  154.7191 C   0  0  0  0  0  0  0  0  0  0  0  0
  150.6193  138.6617  154.1025 C   0  0  0  0  0  0  0  0  0  0  0  0
  149.4768  138.1374  153.5611 N   0  3  0  0  0  0  0  0  0  0  0  0
  148.4357  138.9346  153.8209 C   0  0  0  0  0  0  0  0  0  0  0  0
  150.4477  144.4037  157.0366 H   0  0  0  0  0  0  0  0  0  0  0  0
  153.0652  143.7121  157.4359 H   0  0  0  0  0  0  0  0  0  0  0  0
  151.4831  143.1178  160.0528 H   0  0  0  0  0  0  0  0  0  0  0  0
  153.3102  143.1514  159.8510 H   0  0  0  0  0  0  0  0  0  0  0  0
  153.1848  145.5473  159.1187 H   0  0  0  0  0  0  0  0  0  0  0  0
  151.3578  145.5128  159.3206 H   0  0  0  0  0  0  0  0  0  0  0  0
  148.8261  143.3950  156.4071 H   0  0  0  0  0  0  0  0  0  0  0  0
  148.6050  140.4974  157.0719 H   0  0  0  0  0  0  0  0  0  0  0  0
  146.4770  140.8561  157.6919 H   0  0  0  0  0  0  0  0  0  0  0  0
  146.7616  142.5853  157.6588 H   0  0  0  0  0  0  0  0  0  0  0  0
  144.8714  141.4837  156.0476 H   0  0  0  0  0  0  0  0  0  0  0  0
  145.8963  142.7839  155.4446 H   0  0  0  0  0  0  0  0  0  0  0  0
  146.2830  139.8046  155.0291 H   0  0  0  0  0  0  0  0  0  0  0  0
  146.2423  141.0513  153.7844 H   0  0  0  0  0  0  0  0  0  0  0  0
  148.3271  141.9598  154.4510 H   0  0  0  0  0  0  0  0  0  0  0  0
  150.8427  140.5514  155.2696 H   0  0  0  0  0  0  0  0  0  0  0  0
  151.5800  138.1759  154.0127 H   0  0  0  0  0  0  0  0  0  0  0  0
  147.4160  138.7693  153.5211 H   0  0  0  0  0  0  0  0  0  0  0  0
  149.4235  137.2700  153.0419 H   0  0  0  0  0  0  0  0  0  0  0  0
  1  2  2  0  0  0  0
  2  3  1  0  0  0  0
  2  7  1  0  0  0  0
  3  4  1  0  0  0  0
  3 18  1  0  0  0  0
  4  6  1  0  0  0  0
  4  5  1  0  0  0  0
  4 19  1  0  0  0  0
  5  6  1  0  0  0  0
  5 20  1  0  0  0  0
  5 21  1  0  0  0  0
  6 22  1  0  0  0  0
  6 23  1  0  0  0  0
  7  8  1  0  0  0  0
  7 24  1  0  0  0  0
  8 12  1  0  0  0  0
  8  9  1  0  0  0  0
  8 25  1  0  0  0  0
  9 10  1  0  0  0  0
  9 26  1  0  0  0  0
  9 27  1  0  0  0  0
 10 11  1  0  0  0  0
 10 28  1  0  0  0  0
 10 29  1  0  0  0  0
 11 12  1  0  0  0  0
 11 30  1  0  0  0  0
 11 31  1  0  0  0  0
 12 13  1  0  0  0  0
 12 32  1  0  0  0  0
 13 17  1  0  0  0  0
 13 14  1  0  0  0  0
 14 15  2  0  0  0  0
 14 33  1  0  0  0  0
 15 16  1  0  0  0  0
 15 34  1  0  0  0  0
 16 17  2  0  0  0  0
 16 36  1  0  0  0  0
 17 35  1  0  0  0  0
M  CHG  1  16   1
M  END
> <s_m_source_file>
AV-unprocessed.smi

> <i_m_source_file_index>
3141

> <i_lp_mmshare_version>
43012

> <i_f3d_flags>
0

> <s_epik_input>
W0NIMl0xW0NIMl1bQ0hdMVtOSF1DKD1PKVtOSF1bQ0BASF0yW0NIMl1bQ0gyXVtDSDJdW0NASF0ybjNbY0hdW2NIXW5bY0hdMw==

> <s_epik_cmdline>
J2VwaWtfcHl0aG9uJywgJy1waCcsICc3LjAnLCAnLXRuJywgJzgnLCAnLW1hJywgJzIwMCcsICctbWV0YWxfYmluZGluZycsICctaW1hZScsICc8aW5maWxlLm1hZT4nLCAnLW9tYWUnLCAnPG91dGZpbGUubWFlPic=

> <r_lp_tautomer_probability>
1

> <r_epik_Ionization_Penalty>
0.205063

> <r_epik_Ionization_Penalty_Charging>
0

> <r_epik_Ionization_Penalty_Neutral>
0.205063

> <r_epik_State_Penalty>
0.194948

> <r_epik_Charging_Adjusted_Penalty>
0.194948

> <i_epik_Tot_Q>
1

> <i_epik_Tot_abs_Q>
1

> <r_epik_Metal_State_Penalty>
0.500882

> <b_epik_Metal_Only>
0

> <s_lp_Force_Field>
OPLS_2005

> <r_lp_Energy>
34.662

> <b_lp_Chiralities_Consistent>
1

> <s_lp_Variant>
AV-unprocessed.smi:3141-4

> <Gold.Version>
5.8.1

> <Gold.Id.Protein>
6NUR|6NUR_protein|mol2

> <Gold.PLP.Fitness>
44.3866

> <Gold.PLP.PLP>
-33.4567

> <Gold.PLP.part.hbond>
-3.8399

> <Gold.PLP.part.metal>
0.0000

> <Gold.PLP.part.buried>
-2.8174

> <Gold.PLP.part.nonpolar>
-27.5974

> <Gold.PLP.part.repulsive>
0.0978

> <Gold.PLP.ligand.clash>
0.0000

> <Gold.PLP.ligand.torsion>
0.1850

> <Gold.PLP.Chemscore.Hbond>
3.7525

> <Gold.PLP.Chemscore.CHOScore>
0.0000

> <Gold.PLP.Chemscore.Metal>
0.0000

> <Gold.Chemscore.Hbonds>
donor molecule, donor type, donor heavy atom, donor atom, acceptor molecule, acceptor atom, score
      L1  H     3    18       P1  8028  0.69
      L1  H     7    24       P1  8028  0.96
      L1  H    16    36       P1  7948  2.00

> <Gold.PLP.Chemscore.Internal.Correction>
0.0423

> <Gold.Rescore>
     Score         DG    S(hbond)    S(metal)    S(lipo)     H(rot)  DE(clash)    DE(int)     intcor
     17.92     -18.09       2.53        0.00      70.70       1.61       0.01       0.15       ----

> <Gold.Chemscore.Fitness>
17.9219

> <Gold.Chemscore.DG>
-18.0878

> <Gold.Chemscore.ZeroCoef>
-5.4800

> <Gold.Chemscore.Hbond>
2.5311

> <Gold.Chemscore.Metal>
0.0000

> <Gold.Chemscore.Lipo>
70.7045

> <Gold.Chemscore.Internal_Hbond>
0.0000

> <Gold.Chemscore.DEClash>
0.0149

> <Gold.Chemscore.DEInternal>
0.1510

> <Gold.Chemscore.Rot>
1.6088

> <Gold.Chemscore.Internal.Correction>
   9.000000E+99

> <Gold.Chemscore.Hbonds>
donor molecule, donor type, donor heavy atom, donor atom, acceptor molecule, acceptor atom, score
      L1  H     3    18       P1  8028  0.55
      L1  H     7    24       P1  8028  0.86
      L1  H    16    36       P1  7948  0.87

> <Gold.Chemscore.Hbond.Weighted>
-8.4540

> <Gold.Chemscore.Metal.Weighted>
-0.0000

> <Gold.Chemscore.Lipo.Weighted>
-8.2724

> <Gold.Chemscore.Internal_Hbond.Weighted>
0.0000

> <Gold.Chemscore.DEClash.Weighted>
0.0149

> <Gold.Chemscore.DEInternal.Weighted>
0.1510

> <Gold.Chemscore.Rot.Weighted>
4.1186

> <Gold.Chemscore.Internal.Correction.Weighted>
   9.000000E+99

> <Gold.Protein.RotatedTorsions>
[ 6907 6896 6895 6894 ] final   65.98 input  -60.11 | X-H torsion
[ 7974 7965 7964 7962 ] final  -91.77 input  175.53 | X-H torsion
[ 8008 7997 7996 7995 ] final  151.01 input   59.86 | X-H torsion
[ 10167 10162 10161 10158 ] final    2.83 input  -65.29 | X-H torsion
[ 10718 10713 10712 10709 ] final   12.67 input   66.30 | X-H torsion
[ 10763 10752 10751 10750 ] final    6.31 input  -60.55 | X-H torsion
[ 11005 11000 10999 10996 ] final -145.92 input  -57.11 | X-H torsion

> <Gold.Protein.ActiveResidues>
 VAL166  LYS551  ARG553  GLY616  TRP617  ASP618  TYR619  PRO620  LYS621  CYS622 
 ASP623  PHE694  ASN695  SER759  ASP760  ASP761  ALA762  ILE779  LEU786  VAL792 
 PHE793  MET794  SER795  GLU796  ALA797  LYS798  CYS799  TRP800  GLU811  SER814 

> <Gold.Protein.RotatedAtoms>
  152.4447  134.5519  159.9868 H   0  0  0  0  0  0  0  0  0  0  0  0  # atno 6907 bound_to 6896
  151.5607  133.3398  159.2978 H   0  0  0  0  0  0  0  0  0  0  0  0  # atno 6908 bound_to 6896
  150.8361  134.7667  159.6957 H   0  0  0  0  0  0  0  0  0  0  0  0  # atno 6909 bound_to 6896
  145.4088  140.9543  143.2246 H   0  0  0  0  0  0  0  0  0  0  0  0  # atno 7974 bound_to 7965
  156.2692  140.2059  156.6108 H   0  0  0  0  0  0  0  0  0  0  0  0  # atno 8008 bound_to 7997
  154.6833  140.0537  157.0312 H   0  0  0  0  0  0  0  0  0  0  0  0  # atno 8009 bound_to 7997
  155.0970  140.3202  155.4560 H   0  0  0  0  0  0  0  0  0  0  0  0  # atno 8010 bound_to 7997
  140.6616  143.7289  150.7749 H   0  0  0  0  0  0  0  0  0  0  0  0  # atno 10167 bound_to 10162
  157.0136  130.6127  149.5711 H   0  0  0  0  0  0  0  0  0  0  0  0  # atno 10718 bound_to 10713
  153.2492  135.6912  153.7698 H   0  0  0  0  0  0  0  0  0  0  0  0  # atno 10763 bound_to 10752
  153.6799  135.3330  155.3176 H   0  0  0  0  0  0  0  0  0  0  0  0  # atno 10764 bound_to 10752
  154.8387  135.4520  154.1442 H   0  0  0  0  0  0  0  0  0  0  0  0  # atno 10765 bound_to 10752
  140.7874  134.3009  157.5025 H   0  0  0  0  0  0  0  0  0  0  0  0  # atno 11005 bound_to 11000
  144.8323  139.5607  143.6938 LP  0  0  0  0  0  0  0  0  0  0  0  0  # atno 17320 bound_to 7965
  146.2715  139.6648  142.9292 LP  0  0  0  0  0  0  0  0  0  0  0  0  # atno 17321 bound_to 7965
  140.0959  143.4834  152.2453 LP  0  0  0  0  0  0  0  0  0  0  0  0  # atno 17342 bound_to 10162
  139.5852  144.7528  151.3539 LP  0  0  0  0  0  0  0  0  0  0  0  0  # atno 17343 bound_to 10162
  156.0127  130.5220  150.8039 LP  0  0  0  0  0  0  0  0  0  0  0  0  # atno 17370 bound_to 10713
  157.5302  131.0936  150.9965 LP  0  0  0  0  0  0  0  0  0  0  0  0  # atno 17371 bound_to 10713
  139.8735  134.9354  156.3633 LP  0  0  0  0  0  0  0  0  0  0  0  0  # atno 17394 bound_to 11000
  140.9424  133.7506  156.0163 LP  0  0  0  0  0  0  0  0  0  0  0  0  # atno 17395 bound_to 11000

$$$$
