AV-unprocessed.smi:1691|AV-procd|sdf|6777|dock4
  -GOLD-   22720 7533D 1   1.00000     0.00000
 Structure written by MMmdl.
 43 44  0  0  0  0  0  0  0  0  1 V2000
  146.7990  138.7794  157.6716 C   0  0  0  0  0  0  0  0  0  0  0  0
  146.4368  139.0646  156.2006 C   0  0  0  0  0  0  0  0  0  0  0  0
  145.0409  138.5166  155.8573 C   0  0  0  0  0  0  0  0  0  0  0  0
  147.5052  138.6847  155.1261 C   0  0  1  0  0  0  0  0  0  0  0  0
  147.0355  138.9217  153.6623 C   0  0  0  0  0  0  0  0  0  0  0  0
  147.0238  137.6995  152.8644 N   0  0  0  0  0  0  0  0  0  0  0  0
  145.9226  137.1133  152.3742 C   0  0  0  0  0  0  0  0  0  0  0  0
  144.7838  137.5456  152.5545 O   0  0  0  0  0  0  0  0  0  0  0  0
  146.2286  136.0113  151.6700 N   0  0  0  0  0  0  0  0  0  0  0  0
  145.3319  135.1433  150.9970 C   0  0  0  0  0  0  0  0  0  0  0  0
  145.5781  133.7677  150.7381 C   0  0  0  0  0  0  0  0  0  0  0  0
  144.5649  133.2082  150.0923 N   0  0  0  0  0  0  0  0  0  0  0  0
  143.6744  134.2136  149.9361 N   0  0  0  0  0  0  0  0  0  0  0  0
  144.0987  135.4098  150.4714 C   0  0  0  0  0  0  0  0  0  0  0  0
  148.8754  139.1505  155.4172 N   0  0  0  0  0  0  0  0  0  0  0  0
  149.0993  140.5873  155.2630 C   0  0  0  0  0  0  0  0  0  0  0  0
  150.5263  140.9877  155.6768 C   0  0  0  0  0  0  0  0  0  0  0  0
  151.4747  140.2367  154.9260 O   0  0  0  0  0  0  0  0  0  0  0  0
  151.3169  138.8315  155.0926 C   0  0  0  0  0  0  0  0  0  0  0  0
  149.8970  138.4206  154.6685 C   0  0  0  0  0  0  0  0  0  0  0  0
  142.7909  134.0692  149.4681 H   0  0  0  0  0  0  0  0  0  0  0  0
  146.7458  137.7218  157.9194 H   0  0  0  0  0  0  0  0  0  0  0  0
  146.0956  139.2840  158.3343 H   0  0  0  0  0  0  0  0  0  0  0  0
  147.7915  139.1435  157.9331 H   0  0  0  0  0  0  0  0  0  0  0  0
  146.3364  140.1490  156.1419 H   0  0  0  0  0  0  0  0  0  0  0  0
  145.0041  137.4302  155.9457 H   0  0  0  0  0  0  0  0  0  0  0  0
  144.7550  138.7785  154.8382 H   0  0  0  0  0  0  0  0  0  0  0  0
  144.2835  138.9263  156.5259 H   0  0  0  0  0  0  0  0  0  0  0  0
  147.5558  137.5993  155.2235 H   0  0  0  0  0  0  0  0  0  0  0  0
  146.0285  139.3370  153.6421 H   0  0  0  0  0  0  0  0  0  0  0  0
  147.6676  139.6543  153.1601 H   0  0  0  0  0  0  0  0  0  0  0  0
  147.9187  137.2761  152.6670 H   0  0  0  0  0  0  0  0  0  0  0  0
  147.2063  135.7691  151.6051 H   0  0  0  0  0  0  0  0  0  0  0  0
  146.4402  133.1690  150.9925 H   0  0  0  0  0  0  0  0  0  0  0  0
  143.5002  136.3076  150.4275 H   0  0  0  0  0  0  0  0  0  0  0  0
  148.9374  140.8841  154.2264 H   0  0  0  0  0  0  0  0  0  0  0  0
  148.3993  141.1556  155.8665 H   0  0  0  0  0  0  0  0  0  0  0  0
  150.6891  142.0502  155.4954 H   0  0  0  0  0  0  0  0  0  0  0  0
  150.6803  140.8177  156.7435 H   0  0  0  0  0  0  0  0  0  0  0  0
  152.0590  138.3144  154.4842 H   0  0  0  0  0  0  0  0  0  0  0  0
  151.5049  138.5570  156.1318 H   0  0  0  0  0  0  0  0  0  0  0  0
  149.7762  137.3476  154.8201 H   0  0  0  0  0  0  0  0  0  0  0  0
  149.7858  138.6010  153.5994 H   0  0  0  0  0  0  0  0  0  0  0  0
  1  2  1  0  0  0  0
  1 22  1  0  0  0  0
  1 23  1  0  0  0  0
  1 24  1  0  0  0  0
  2  3  1  0  0  0  0
  2  4  1  0  0  0  0
  2 25  1  0  0  0  0
  3 26  1  0  0  0  0
  3 27  1  0  0  0  0
  3 28  1  0  0  0  0
  4  5  1  0  0  0  0
  4 15  1  0  0  0  0
  4 29  1  0  0  0  0
  5  6  1  0  0  0  0
  5 30  1  0  0  0  0
  5 31  1  0  0  0  0
  6  7  1  0  0  0  0
  6 32  1  0  0  0  0
  7  8  2  0  0  0  0
  7  9  1  0  0  0  0
  9 10  1  0  0  0  0
  9 33  1  0  0  0  0
 10 14  2  0  0  0  0
 10 11  1  0  0  0  0
 11 12  2  0  0  0  0
 11 34  1  0  0  0  0
 12 13  1  0  0  0  0
 13 21  1  0  0  0  0
 13 14  1  0  0  0  0
 14 35  1  0  0  0  0
 15 20  1  0  0  0  0
 15 16  1  0  0  0  0
 16 17  1  0  0  0  0
 16 36  1  0  0  0  0
 16 37  1  0  0  0  0
 17 18  1  0  0  0  0
 17 38  1  0  0  0  0
 17 39  1  0  0  0  0
 18 19  1  0  0  0  0
 19 20  1  0  0  0  0
 19 40  1  0  0  0  0
 19 41  1  0  0  0  0
 20 42  1  0  0  0  0
 20 43  1  0  0  0  0
M  END
> <s_m_source_file>
AV-unprocessed.smi

> <i_m_source_file_index>
1691

> <i_lp_mmshare_version>
43012

> <i_f3d_flags>
0

> <s_epik_input>
W0NIMl0xW0NIMl1PW0NIMl1bQ0gyXU4xW0NASF0oW0NIXShbQ0gzXSlbQ0gzXSlbQ0gyXVtOSF1DKD1PKVtOSF1jMltjSF1uW25IXVtjSF0y

> <s_epik_cmdline>
J2VwaWtfcHl0aG9uJywgJy1waCcsICc3LjAnLCAnLXRuJywgJzgnLCAnLW1hJywgJzIwMCcsICctbWV0YWxfYmluZGluZycsICctaW1hZScsICc8aW5maWxlLm1hZT4nLCAnLW9tYWUnLCAnPG91dGZpbGUubWFlPic=

> <r_lp_tautomer_probability>
0.5

> <r_epik_Ionization_Penalty>
0.462189

> <r_epik_Ionization_Penalty_Charging>
0

> <r_epik_Ionization_Penalty_Neutral>
0.462189

> <r_epik_State_Penalty>
0.465733

> <r_epik_Charging_Adjusted_Penalty>
0.465733

> <i_epik_Tot_Q>
0

> <i_epik_Tot_abs_Q>
0

> <r_epik_Metal_State_Penalty>
0.465732

> <b_epik_Metal_Only>
0

> <s_lp_Force_Field>
OPLS_2005

> <r_lp_Energy>
41.1245

> <b_lp_Chiralities_Consistent>
1

> <s_lp_Variant>
AV-unprocessed.smi:1691-4

> <Gold.Version>
5.8.1

> <Gold.Id.Protein>
6NUR|6NUR_protein|mol2

> <Gold.PLP.Fitness>
38.3910

> <Gold.PLP.PLP>
-25.4733

> <Gold.PLP.part.hbond>
-3.7951

> <Gold.PLP.part.metal>
0.0000

> <Gold.PLP.part.buried>
-4.7836

> <Gold.PLP.part.nonpolar>
-18.3649

> <Gold.PLP.part.repulsive>
0.6363

> <Gold.PLP.ligand.clash>
0.0000

> <Gold.PLP.ligand.torsion>
1.0858

> <Gold.PLP.Chemscore.Hbond>
3.8960

> <Gold.PLP.Chemscore.CHOScore>
1.0000

> <Gold.PLP.Chemscore.Metal>
0.0000

> <Gold.Chemscore.Hbonds>
donor molecule, donor type, donor heavy atom, donor atom, acceptor molecule, acceptor atom, score
      L1  H     6    32       P1  7948  1.00
      L1  H     9    33       P1  7948  1.00
      L1  H    13    21       P1 10186  0.88
      P1  H  7989  7998       L1    18  1.00
      L1  C    14    35       P1 10171  1.00

> <Gold.PLP.Chemscore.Internal.Correction>
0.4014

> <Gold.Rescore>
     Score         DG    S(hbond)    S(metal)    S(lipo)     H(rot)  DE(clash)    DE(int)     intcor
     17.62     -18.87       3.64        0.00      49.80       1.79       0.00       1.24       ----

> <Gold.Chemscore.Fitness>
17.6240

> <Gold.Chemscore.DG>
-18.8687

> <Gold.Chemscore.ZeroCoef>
-5.4800

> <Gold.Chemscore.Hbond>
3.6356

> <Gold.Chemscore.Metal>
0.0000

> <Gold.Chemscore.Lipo>
49.7964

> <Gold.Chemscore.Internal_Hbond>
0.0000

> <Gold.Chemscore.DEClash>
0.0048

> <Gold.Chemscore.DEInternal>
1.2399

> <Gold.Chemscore.Rot>
1.7893

> <Gold.Chemscore.Internal.Correction>
   9.000000E+99

> <Gold.Chemscore.Hbonds>
donor molecule, donor type, donor heavy atom, donor atom, acceptor molecule, acceptor atom, score
      L1  H     6    32       P1  7948  0.97
      L1  H     9    33       P1  7948  0.94
      L1  H    13    21       P1 10186  0.87
      P1  H  7989  7998       L1    18  0.69

> <Gold.Chemscore.Hbond.Weighted>
-12.1430

> <Gold.Chemscore.Metal.Weighted>
-0.0000

> <Gold.Chemscore.Lipo.Weighted>
-5.8262

> <Gold.Chemscore.Internal_Hbond.Weighted>
0.0000

> <Gold.Chemscore.DEClash.Weighted>
0.0048

> <Gold.Chemscore.DEInternal.Weighted>
1.2399

> <Gold.Chemscore.Rot.Weighted>
4.5805

> <Gold.Chemscore.Internal.Correction.Weighted>
   9.000000E+99

> <Gold.Protein.RotatedTorsions>
[ 6907 6896 6895 6894 ] final  -52.07 input  -60.11 | X-H torsion
[ 7974 7965 7964 7962 ] final  -39.73 input  175.53 | X-H torsion
[ 8008 7997 7996 7995 ] final  -89.95 input   59.86 | X-H torsion
[ 10167 10162 10161 10158 ] final   35.98 input  -65.29 | X-H torsion
[ 10718 10713 10712 10709 ] final   82.92 input   66.30 | X-H torsion
[ 10763 10752 10751 10750 ] final   78.90 input  -60.55 | X-H torsion
[ 11005 11000 10999 10996 ] final -130.72 input  -57.11 | X-H torsion

> <Gold.Protein.ActiveResidues>
 VAL166  LYS551  ARG553  GLY616  TRP617  ASP618  TYR619  PRO620  LYS621  CYS622 
 ASP623  PHE694  ASN695  SER759  ASP760  ASP761  ALA762  ILE779  LEU786  VAL792 
 PHE793  MET794  SER795  GLU796  ALA797  LYS798  CYS799  TRP800  GLU811  SER814 

> <Gold.Protein.RotatedAtoms>
  150.8552  134.7889  159.7039 H   0  0  0  0  0  0  0  0  0  0  0  0  # atno 6907 bound_to 6896
  152.4606  134.5190  159.9786 H   0  0  0  0  0  0  0  0  0  0  0  0  # atno 6908 bound_to 6896
  151.5304  133.3412  159.2953 H   0  0  0  0  0  0  0  0  0  0  0  0  # atno 6909 bound_to 6896
  146.0369  140.6659  142.9105 H   0  0  0  0  0  0  0  0  0  0  0  0  # atno 7974 bound_to 7965
  154.6927  140.0536  157.0379 H   0  0  0  0  0  0  0  0  0  0  0  0  # atno 8008 bound_to 7997
  155.0795  140.3208  155.4587 H   0  0  0  0  0  0  0  0  0  0  0  0  # atno 8009 bound_to 7997
  156.2733  140.2067  156.5922 H   0  0  0  0  0  0  0  0  0  0  0  0  # atno 8010 bound_to 7997
  140.4171  144.1512  150.6144 H   0  0  0  0  0  0  0  0  0  0  0  0  # atno 10167 bound_to 10162
  157.6868  131.0068  150.2446 H   0  0  0  0  0  0  0  0  0  0  0  0  # atno 10718 bound_to 10713
  153.0910  135.4860  154.8689 H   0  0  0  0  0  0  0  0  0  0  0  0  # atno 10763 bound_to 10752
  154.7269  135.3051  154.8958 H   0  0  0  0  0  0  0  0  0  0  0  0  # atno 10764 bound_to 10752
  153.9606  135.6813  153.4798 H   0  0  0  0  0  0  0  0  0  0  0  0  # atno 10765 bound_to 10752
  140.9321  134.1305  157.4225 H   0  0  0  0  0  0  0  0  0  0  0  0  # atno 11005 bound_to 11000
  144.7056  140.3837  143.7121 LP  0  0  0  0  0  0  0  0  0  0  0  0  # atno 17320 bound_to 7965
  145.6948  139.1647  143.2626 LP  0  0  0  0  0  0  0  0  0  0  0  0  # atno 17321 bound_to 7965
  140.4575  143.2462  151.9265 LP  0  0  0  0  0  0  0  0  0  0  0  0  # atno 17342 bound_to 10162
  139.4782  144.5501  151.8398 LP  0  0  0  0  0  0  0  0  0  0  0  0  # atno 17343 bound_to 10162
  156.3054  130.3764  149.7711 LP  0  0  0  0  0  0  0  0  0  0  0  0  # atno 17370 bound_to 10713
  156.5328  130.8265  151.3243 LP  0  0  0  0  0  0  0  0  0  0  0  0  # atno 17371 bound_to 10713
  139.8799  135.0008  156.6034 LP  0  0  0  0  0  0  0  0  0  0  0  0  # atno 17394 bound_to 11000
  140.7848  133.8630  155.8597 LP  0  0  0  0  0  0  0  0  0  0  0  0  # atno 17395 bound_to 11000

$$$$
