AV-unprocessed.smi:2742|AV-procd|sdf|10562|dock1
  -GOLD-   2272015 13D 1   1.00000     0.00000
 Structure written by MMmdl.
 37 38  0  0  0  0  0  0  0  0  1 V2000
  150.3276  141.4030  155.9449 C   0  0  0  0  0  0  0  0  0  0  0  0
  150.7946  139.8289  155.1759 S   0  0  0  0  0  0  0  0  0  0  0  0
  149.2098  139.3229  154.4454 C   0  0  2  0  0  0  0  0  0  0  0  0
  148.4365  140.5542  153.9423 C   0  0  0  0  0  0  0  0  0  0  0  0
  147.0824  140.1579  153.3346 C   0  0  0  0  0  0  0  0  0  0  0  0
  146.2321  139.3637  154.3401 C   0  0  0  0  0  0  0  0  0  0  0  0
  146.9797  138.1288  154.8866 C   0  0  1  0  0  0  0  0  0  0  0  0
  147.1228  137.0965  153.8601 N   0  0  0  0  0  0  0  0  0  0  0  0
  146.1578  136.2525  153.4665 C   0  0  0  0  0  0  0  0  0  0  0  0
  145.0271  136.2448  153.9522 O   0  0  0  0  0  0  0  0  0  0  0  0
  146.5984  135.4328  152.4963 N   0  0  0  0  0  0  0  0  0  0  0  0
  145.9040  134.4055  151.7981 C   0  0  0  0  0  0  0  0  0  0  0  0
  144.5600  134.4986  151.3604 C   0  0  0  0  0  0  0  0  0  0  0  0
  143.9986  133.4084  150.6655 C   0  0  0  0  0  0  0  0  0  0  0  0
  144.6761  132.2752  150.3854 N   0  0  0  0  0  0  0  0  0  0  0  0
  145.9597  132.1935  150.7940 C   0  0  0  0  0  0  0  0  0  0  0  0
  146.6156  133.2246  151.4959 C   0  0  0  0  0  0  0  0  0  0  0  0
  147.9088  133.0780  151.8735 F   0  0  0  0  0  0  0  0  0  0  0  0
  148.3598  138.5200  155.4526 C   0  0  0  0  0  0  0  0  0  0  0  0
  151.1848  141.8327  156.4631 H   0  0  0  0  0  0  0  0  0  0  0  0
  149.5281  141.2508  156.6701 H   0  0  0  0  0  0  0  0  0  0  0  0
  149.9891  142.1173  155.1952 H   0  0  0  0  0  0  0  0  0  0  0  0
  149.4381  138.6931  153.5848 H   0  0  0  0  0  0  0  0  0  0  0  0
  148.2746  141.2504  154.7666 H   0  0  0  0  0  0  0  0  0  0  0  0
  149.0289  141.0886  153.1987 H   0  0  0  0  0  0  0  0  0  0  0  0
  146.5429  141.0508  153.0178 H   0  0  0  0  0  0  0  0  0  0  0  0
  147.2446  139.5623  152.4354 H   0  0  0  0  0  0  0  0  0  0  0  0
  145.9684  140.0165  155.1731 H   0  0  0  0  0  0  0  0  0  0  0  0
  145.2883  139.0676  153.8805 H   0  0  0  0  0  0  0  0  0  0  0  0
  146.3965  137.7095  155.7085 H   0  0  0  0  0  0  0  0  0  0  0  0
  148.0236  137.0293  153.4094 H   0  0  0  0  0  0  0  0  0  0  0  0
  147.5719  135.5304  152.2471 H   0  0  0  0  0  0  0  0  0  0  0  0
  143.9530  135.3737  151.5288 H   0  0  0  0  0  0  0  0  0  0  0  0
  142.9763  133.4513  150.3205 H   0  0  0  0  0  0  0  0  0  0  0  0
  146.4811  131.2791  150.5527 H   0  0  0  0  0  0  0  0  0  0  0  0
  148.8908  137.6240  155.7739 H   0  0  0  0  0  0  0  0  0  0  0  0
  148.2136  139.1207  156.3516 H   0  0  0  0  0  0  0  0  0  0  0  0
  1  2  1  0  0  0  0
  1 20  1  0  0  0  0
  1 21  1  0  0  0  0
  1 22  1  0  0  0  0
  2  3  1  0  0  0  0
  3 19  1  0  0  0  0
  3  4  1  0  0  0  0
  3 23  1  0  0  0  0
  4  5  1  0  0  0  0
  4 24  1  0  0  0  0
  4 25  1  0  0  0  0
  5  6  1  0  0  0  0
  5 26  1  0  0  0  0
  5 27  1  0  0  0  0
  6  7  1  0  0  0  0
  6 28  1  0  0  0  0
  6 29  1  0  0  0  0
  7  8  1  0  0  0  0
  7 19  1  0  0  0  0
  7 30  1  0  0  0  0
  8  9  1  0  0  0  0
  8 31  1  0  0  0  0
  9 10  2  0  0  0  0
  9 11  1  0  0  0  0
 11 12  1  0  0  0  0
 11 32  1  0  0  0  0
 12 17  1  0  0  0  0
 12 13  2  0  0  0  0
 13 14  1  0  0  0  0
 13 33  1  0  0  0  0
 14 15  2  0  0  0  0
 14 34  1  0  0  0  0
 15 16  1  0  0  0  0
 16 17  2  0  0  0  0
 16 35  1  0  0  0  0
 17 18  1  0  0  0  0
 19 36  1  0  0  0  0
 19 37  1  0  0  0  0
M  END
> <s_m_source_file>
AV-unprocessed.smi

> <i_m_source_file_index>
2742

> <i_lp_mmshare_version>
43012

> <i_f3d_flags>
0

> <s_epik_input>
W0NIM11TW0NAQEhdMVtDSDJdW0NIMl1bQ0gyXVtDQEhdKFtDSDJdMSlbTkhdQyg9TylbTkhdYzJbY0hdW2NIXW5bY0hdYzJG

> <s_epik_cmdline>
J2VwaWtfcHl0aG9uJywgJy1waCcsICc3LjAnLCAnLXRuJywgJzgnLCAnLW1hJywgJzIwMCcsICctbWV0YWxfYmluZGluZycsICctaW1hZScsICc8aW5maWxlLm1hZT4nLCAnLW9tYWUnLCAnPG91dGZpbGUubWFlPic=

> <r_epik_Ionization_Penalty>
0.00344009

> <r_epik_Ionization_Penalty_Charging>
0

> <r_epik_Ionization_Penalty_Neutral>
0.00344009

> <r_epik_State_Penalty>
0.0024078

> <r_epik_Charging_Adjusted_Penalty>
0.0024078

> <i_epik_Tot_Q>
0

> <i_epik_Tot_abs_Q>
0

> <r_epik_Metal_State_Penalty>
-0

> <b_epik_Metal_Only>
0

> <s_lp_Force_Field>
OPLS_2005

> <r_lp_Energy>
13.9457

> <b_lp_Chiralities_Consistent>
1

> <s_lp_Variant>
AV-unprocessed.smi:2742-1

> <Gold.Version>
5.8.1

> <Gold.Id.Protein>
6NUR|6NUR_protein|mol2

> <Gold.PLP.Fitness>
37.9232

> <Gold.PLP.PLP>
-28.2121

> <Gold.PLP.part.hbond>
-2.0000

> <Gold.PLP.part.metal>
0.0000

> <Gold.PLP.part.buried>
-0.5201

> <Gold.PLP.part.nonpolar>
-25.7917

> <Gold.PLP.part.repulsive>
0.1786

> <Gold.PLP.ligand.clash>
0.0000

> <Gold.PLP.ligand.torsion>
0.8774

> <Gold.PLP.Chemscore.Hbond>
1.8480

> <Gold.PLP.Chemscore.CHOScore>
1.9681

> <Gold.PLP.Chemscore.Metal>
0.0000

> <Gold.Chemscore.Hbonds>
donor molecule, donor type, donor heavy atom, donor atom, acceptor molecule, acceptor atom, score
      L1  H     8    31       P1  7948  0.86
      L1  H    11    32       P1  7948  1.00
      L1  C    14    34       P1 10186  1.00
      L1  C    16    35       P1 10747  0.98

> <Gold.PLP.Chemscore.Internal.Correction>
0.0177

> <Gold.Rescore>
     Score         DG    S(hbond)    S(metal)    S(lipo)     H(rot)  DE(clash)    DE(int)     intcor
     15.86     -16.83       1.92        0.00      68.24       1.19       0.11       0.85       ----

> <Gold.Chemscore.Fitness>
15.8585

> <Gold.Chemscore.DG>
-16.8256

> <Gold.Chemscore.ZeroCoef>
-5.4800

> <Gold.Chemscore.Hbond>
1.9168

> <Gold.Chemscore.Metal>
0.0000

> <Gold.Chemscore.Lipo>
68.2360

> <Gold.Chemscore.Internal_Hbond>
0.0000

> <Gold.Chemscore.DEClash>
0.1124

> <Gold.Chemscore.DEInternal>
0.8547

> <Gold.Chemscore.Rot>
1.1875

> <Gold.Chemscore.Internal.Correction>
   9.000000E+99

> <Gold.Chemscore.Hbonds>
donor molecule, donor type, donor heavy atom, donor atom, acceptor molecule, acceptor atom, score
      L1  H     8    31       P1  7948  0.83
      L1  H    11    32       P1  7948  0.96

> <Gold.Chemscore.Hbond.Weighted>
-6.4020

> <Gold.Chemscore.Metal.Weighted>
-0.0000

> <Gold.Chemscore.Lipo.Weighted>
-7.9836

> <Gold.Chemscore.Internal_Hbond.Weighted>
0.0000

> <Gold.Chemscore.DEClash.Weighted>
0.1124

> <Gold.Chemscore.DEInternal.Weighted>
0.8547

> <Gold.Chemscore.Rot.Weighted>
3.0400

> <Gold.Chemscore.Internal.Correction.Weighted>
   9.000000E+99

> <Gold.Protein.RotatedTorsions>
[ 6907 6896 6895 6894 ] final -117.81 input  -60.11 | X-H torsion
[ 7974 7965 7964 7962 ] final   88.77 input  175.53 | X-H torsion
[ 8008 7997 7996 7995 ] final -137.22 input   59.86 | X-H torsion
[ 10167 10162 10161 10158 ] final  -56.00 input  -65.29 | X-H torsion
[ 10718 10713 10712 10709 ] final  -56.61 input   66.30 | X-H torsion
[ 10763 10752 10751 10750 ] final  -66.59 input  -60.55 | X-H torsion
[ 11005 11000 10999 10996 ] final  -36.27 input  -57.11 | X-H torsion

> <Gold.Protein.ActiveResidues>
 VAL166  LYS551  ARG553  GLY616  TRP617  ASP618  TYR619  PRO620  LYS621  CYS622 
 ASP623  PHE694  ASN695  SER759  ASP760  ASP761  ALA762  ILE779  LEU786  VAL792 
 PHE793  MET794  SER795  GLU796  ALA797  LYS798  CYS799  TRP800  GLU811  SER814 

> <Gold.Protein.RotatedAtoms>
  150.8168  133.8324  159.3156 H   0  0  0  0  0  0  0  0  0  0  0  0  # atno 6907 bound_to 6896
  151.6094  135.1039  160.0087 H   0  0  0  0  0  0  0  0  0  0  0  0  # atno 6908 bound_to 6896
  152.4258  133.7153  159.6559 H   0  0  0  0  0  0  0  0  0  0  0  0  # atno 6909 bound_to 6896
  145.5412  139.2289  143.2565 H   0  0  0  0  0  0  0  0  0  0  0  0  # atno 7974 bound_to 7965
  155.4082  140.0510  157.3033 H   0  0  0  0  0  0  0  0  0  0  0  0  # atno 8008 bound_to 7997
  154.4959  140.2138  155.9409 H   0  0  0  0  0  0  0  0  0  0  0  0  # atno 8009 bound_to 7997
  156.1404  140.3155  155.8491 H   0  0  0  0  0  0  0  0  0  0  0  0  # atno 8010 bound_to 7997
  140.6342  143.2474  151.5162 H   0  0  0  0  0  0  0  0  0  0  0  0  # atno 10167 bound_to 10162
  156.1275  130.4161  150.0329 H   0  0  0  0  0  0  0  0  0  0  0  0  # atno 10718 bound_to 10713
  154.3621  135.6114  153.5696 H   0  0  0  0  0  0  0  0  0  0  0  0  # atno 10763 bound_to 10752
  152.9793  135.5817  154.4621 H   0  0  0  0  0  0  0  0  0  0  0  0  # atno 10764 bound_to 10752
  154.4360  135.2849  155.1857 H   0  0  0  0  0  0  0  0  0  0  0  0  # atno 10765 bound_to 10752
  140.9862  133.7029  156.1769 H   0  0  0  0  0  0  0  0  0  0  0  0  # atno 11005 bound_to 11000
  146.1980  140.6232  142.9115 LP  0  0  0  0  0  0  0  0  0  0  0  0  # atno 17320 bound_to 7965
  144.7576  140.5345  143.6758 LP  0  0  0  0  0  0  0  0  0  0  0  0  # atno 17321 bound_to 7965
  139.5554  144.2290  152.1602 LP  0  0  0  0  0  0  0  0  0  0  0  0  # atno 17342 bound_to 10162
  140.1542  144.5086  150.6670 LP  0  0  0  0  0  0  0  0  0  0  0  0  # atno 17343 bound_to 10162
  156.8250  130.9372  151.3639 LP  0  0  0  0  0  0  0  0  0  0  0  0  # atno 17370 bound_to 10713
  157.6455  130.8841  149.9531 LP  0  0  0  0  0  0  0  0  0  0  0  0  # atno 17371 bound_to 10713
  140.7111  134.4461  157.5581 LP  0  0  0  0  0  0  0  0  0  0  0  0  # atno 17394 bound_to 11000
  139.8971  134.8643  156.2057 LP  0  0  0  0  0  0  0  0  0  0  0  0  # atno 17395 bound_to 11000

$$$$
