AV-unprocessed.smi:2224|AV-procd|sdf|8995|dock8
  -GOLD-   2272012203D 1   1.00000     0.00000
 Structure written by MMmdl.
 44 46  0  0  0  0  0  0  0  0  1 V2000
  147.9952  133.1242  161.6704 C   0  0  0  0  0  0  0  0  0  0  0  0
  147.6488  134.5493  161.2940 C   0  0  0  0  0  0  0  0  0  0  0  0
  146.8219  135.3359  162.1188 C   0  0  0  0  0  0  0  0  0  0  0  0
  146.5340  136.6526  161.7093 C   0  0  0  0  0  0  0  0  0  0  0  0
  145.6542  137.5546  162.5490 C   0  0  0  0  0  0  0  0  0  0  0  0
  147.0128  137.1906  160.5671 N   0  0  0  0  0  0  0  0  0  0  0  0
  147.8101  136.4424  159.7652 C   0  0  0  0  0  0  0  0  0  0  0  0
  148.3693  136.9149  158.5486 N   0  0  0  0  0  0  0  0  0  0  0  0
  148.3305  138.1610  158.0451 C   0  0  0  0  0  0  0  0  0  0  0  0
  147.7459  139.1185  158.5527 O   0  0  0  0  0  0  0  0  0  0  0  0
  149.0149  138.2399  156.8956 N   0  0  0  0  0  0  0  0  0  0  0  0
  149.1432  139.4497  156.0886 C   0  0  2  0  0  0  0  0  0  0  0  0
  148.3107  139.3809  154.7985 C   0  0  1  0  0  0  0  0  0  0  0  0
  147.1539  140.3227  154.5999 C   0  0  0  0  0  0  0  0  0  0  0  0
  147.7746  141.4572  153.7800 C   0  0  0  0  0  0  0  0  0  0  0  0
  149.1726  141.3681  154.0444 O   0  0  0  0  0  0  0  0  0  0  0  0
  149.5136  139.9846  154.0903 C   0  0  1  0  0  0  0  0  0  0  0  0
  150.4393  139.5366  155.2412 C   0  0  0  0  0  0  0  0  0  0  0  0
  151.4787  140.5613  155.6995 C   0  0  0  0  0  0  0  0  0  0  0  0
  151.1979  138.2302  154.9658 C   0  0  0  0  0  0  0  0  0  0  0  0
  148.1504  135.1135  160.1038 C   0  0  0  0  0  0  0  0  0  0  0  0
  147.4867  132.8206  162.5860 H   0  0  0  0  0  0  0  0  0  0  0  0
  149.0696  133.0254  161.8266 H   0  0  0  0  0  0  0  0  0  0  0  0
  147.6989  132.4408  160.8743 H   0  0  0  0  0  0  0  0  0  0  0  0
  146.4194  134.9413  163.0404 H   0  0  0  0  0  0  0  0  0  0  0  0
  145.2359  137.0174  163.4008 H   0  0  0  0  0  0  0  0  0  0  0  0
  144.8275  137.9422  161.9530 H   0  0  0  0  0  0  0  0  0  0  0  0
  146.2306  138.3989  162.9278 H   0  0  0  0  0  0  0  0  0  0  0  0
  148.8593  136.2245  157.9998 H   0  0  0  0  0  0  0  0  0  0  0  0
  149.4674  137.4075  156.5478 H   0  0  0  0  0  0  0  0  0  0  0  0
  148.9522  140.3698  156.6455 H   0  0  0  0  0  0  0  0  0  0  0  0
  148.1268  138.3566  154.4692 H   0  0  0  0  0  0  0  0  0  0  0  0
  146.3194  139.8582  154.0744 H   0  0  0  0  0  0  0  0  0  0  0  0
  146.7841  140.6925  155.5567 H   0  0  0  0  0  0  0  0  0  0  0  0
  147.6043  141.2973  152.7143 H   0  0  0  0  0  0  0  0  0  0  0  0
  147.3774  142.4369  154.0464 H   0  0  0  0  0  0  0  0  0  0  0  0
  149.7174  139.5514  153.1099 H   0  0  0  0  0  0  0  0  0  0  0  0
  152.2245  140.7483  154.9264 H   0  0  0  0  0  0  0  0  0  0  0  0
  152.0054  140.2253  156.5933 H   0  0  0  0  0  0  0  0  0  0  0  0
  151.0190  141.5197  155.9425 H   0  0  0  0  0  0  0  0  0  0  0  0
  151.9388  138.3603  154.1763 H   0  0  0  0  0  0  0  0  0  0  0  0
  150.5281  137.4317  154.6458 H   0  0  0  0  0  0  0  0  0  0  0  0
  151.7257  137.8754  155.8517 H   0  0  0  0  0  0  0  0  0  0  0  0
  148.7878  134.5279  159.4569 H   0  0  0  0  0  0  0  0  0  0  0  0
  1  2  1  0  0  0  0
  1 22  1  0  0  0  0
  1 23  1  0  0  0  0
  1 24  1  0  0  0  0
  2 21  1  0  0  0  0
  2  3  2  0  0  0  0
  3  4  1  0  0  0  0
  3 25  1  0  0  0  0
  4  5  1  0  0  0  0
  4  6  2  0  0  0  0
  5 26  1  0  0  0  0
  5 27  1  0  0  0  0
  5 28  1  0  0  0  0
  6  7  1  0  0  0  0
  7  8  1  0  0  0  0
  7 21  2  0  0  0  0
  8  9  1  0  0  0  0
  8 29  1  0  0  0  0
  9 10  2  0  0  0  0
  9 11  1  0  0  0  0
 11 12  1  0  0  0  0
 11 30  1  0  0  0  0
 12 18  1  0  0  0  0
 12 13  1  0  0  0  0
 12 31  1  0  0  0  0
 13 17  1  0  0  0  0
 13 14  1  0  0  0  0
 13 32  1  0  0  0  0
 14 15  1  0  0  0  0
 14 33  1  0  0  0  0
 14 34  1  0  0  0  0
 15 16  1  0  0  0  0
 15 35  1  0  0  0  0
 15 36  1  0  0  0  0
 16 17  1  0  0  0  0
 17 18  1  0  0  0  0
 17 37  1  0  0  0  0
 18 19  1  0  0  0  0
 18 20  1  0  0  0  0
 19 38  1  0  0  0  0
 19 39  1  0  0  0  0
 19 40  1  0  0  0  0
 20 41  1  0  0  0  0
 20 42  1  0  0  0  0
 20 43  1  0  0  0  0
 21 44  1  0  0  0  0
M  END
> <s_m_source_file>
AV-unprocessed.smi

> <i_m_source_file_index>
2224

> <i_lp_mmshare_version>
43012

> <i_f3d_flags>
0

> <s_epik_input>
W0NIM11jMVtjSF1jKFtDSDNdKW5jKFtjSF0xKVtOSF1DKD1PKVtOSF1bQ0BIXTJDKFtDSDNdKShbQ0gzXSlbQ0BIXShbQ0BASF0yMylPW0NIMl1bQ0gyXTM=

> <s_epik_cmdline>
J2VwaWtfcHl0aG9uJywgJy1waCcsICc3LjAnLCAnLXRuJywgJzgnLCAnLW1hJywgJzIwMCcsICctbWV0YWxfYmluZGluZycsICctaW1hZScsICc8aW5maWxlLm1hZT4nLCAnLW9tYWUnLCAnPG91dGZpbGUubWFlPic=

> <r_lp_tautomer_probability>
1

> <r_epik_Ionization_Penalty>
0.000276544

> <r_epik_Ionization_Penalty_Charging>
0

> <r_epik_Ionization_Penalty_Neutral>
0.000276544

> <r_epik_State_Penalty>
-0

> <r_epik_Charging_Adjusted_Penalty>
0

> <i_epik_Tot_Q>
0

> <i_epik_Tot_abs_Q>
0

> <r_epik_Metal_State_Penalty>
-0

> <b_epik_Metal_Only>
0

> <s_lp_Force_Field>
OPLS_2005

> <r_lp_Energy>
38.5894

> <b_lp_Chiralities_Consistent>
1

> <s_lp_Variant>
AV-unprocessed.smi:2224-5

> <Gold.Version>
5.8.1

> <Gold.Id.Protein>
6NUR|6NUR_protein|mol2

> <Gold.PLP.Fitness>
36.8661

> <Gold.PLP.PLP>
-32.6732

> <Gold.PLP.part.hbond>
-3.7721

> <Gold.PLP.part.metal>
0.0000

> <Gold.PLP.part.buried>
-1.9476

> <Gold.PLP.part.nonpolar>
-26.8153

> <Gold.PLP.part.repulsive>
0.3050

> <Gold.PLP.ligand.clash>
0.0000

> <Gold.PLP.ligand.torsion>
0.2687

> <Gold.PLP.Chemscore.Hbond>
1.5185

> <Gold.PLP.Chemscore.CHOScore>
0.0000

> <Gold.PLP.Chemscore.Metal>
0.0000

> <Gold.Chemscore.Hbonds>
donor molecule, donor type, donor heavy atom, donor atom, acceptor molecule, acceptor atom, score
      P1  H  6934  6947       L1     6  1.00
      P1  H  8011  8017       L1    16  0.49

> <Gold.PLP.Chemscore.Internal.Correction>
0.1749

> <Gold.Rescore>
     Score         DG    S(hbond)    S(metal)    S(lipo)     H(rot)  DE(clash)    DE(int)     intcor
     14.57     -16.36       0.93        0.00      88.21       1.00       0.23       1.55       ----

> <Gold.Chemscore.Fitness>
14.5723

> <Gold.Chemscore.DG>
-16.3566

> <Gold.Chemscore.ZeroCoef>
-5.4800

> <Gold.Chemscore.Hbond>
0.9331

> <Gold.Chemscore.Metal>
0.0000

> <Gold.Chemscore.Lipo>
88.2054

> <Gold.Chemscore.Internal_Hbond>
0.0000

> <Gold.Chemscore.DEClash>
0.2335

> <Gold.Chemscore.DEInternal>
1.5508

> <Gold.Chemscore.Rot>
1.0000

> <Gold.Chemscore.Internal.Correction>
   9.000000E+99

> <Gold.Chemscore.Hbonds>
donor molecule, donor type, donor heavy atom, donor atom, acceptor molecule, acceptor atom, score
      P1  H  6934  6947       L1     6  0.50
      P1  H  8011  8017       L1    16  0.07

> <Gold.Chemscore.Hbond.Weighted>
-3.1166

> <Gold.Chemscore.Metal.Weighted>
-0.0000

> <Gold.Chemscore.Lipo.Weighted>
-10.3200

> <Gold.Chemscore.Internal_Hbond.Weighted>
0.0000

> <Gold.Chemscore.DEClash.Weighted>
0.2335

> <Gold.Chemscore.DEInternal.Weighted>
1.5508

> <Gold.Chemscore.Rot.Weighted>
2.5600

> <Gold.Chemscore.Internal.Correction.Weighted>
   9.000000E+99

> <Gold.Protein.RotatedTorsions>
[ 6907 6896 6895 6894 ] final  111.28 input  -60.11 | X-H torsion
[ 7974 7965 7964 7962 ] final  -71.24 input  175.53 | X-H torsion
[ 8008 7997 7996 7995 ] final  -64.85 input   59.86 | X-H torsion
[ 10167 10162 10161 10158 ] final  -67.11 input  -65.29 | X-H torsion
[ 10718 10713 10712 10709 ] final -144.88 input   66.30 | X-H torsion
[ 10763 10752 10751 10750 ] final -103.34 input  -60.55 | X-H torsion
[ 11005 11000 10999 10996 ] final  -47.40 input  -57.11 | X-H torsion

> <Gold.Protein.ActiveResidues>
 VAL166  LYS551  ARG553  GLY616  TRP617  ASP618  TYR619  PRO620  LYS621  CYS622 
 ASP623  PHE694  ASN695  SER759  ASP760  ASP761  ALA762  ILE779  LEU786  VAL792 
 PHE793  MET794  SER795  GLU796  ALA797  LYS798  CYS799  TRP800  GLU811  SER814 

> <Gold.Protein.RotatedAtoms>
  152.4977  133.8680  159.7283 H   0  0  0  0  0  0  0  0  0  0  0  0  # atno 6907 bound_to 6896
  150.9174  133.6913  159.2847 H   0  0  0  0  0  0  0  0  0  0  0  0  # atno 6908 bound_to 6896
  151.4302  135.1013  159.9692 H   0  0  0  0  0  0  0  0  0  0  0  0  # atno 6909 bound_to 6896
  145.6807  140.9189  143.0834 H   0  0  0  0  0  0  0  0  0  0  0  0  # atno 7974 bound_to 7965
  154.4636  140.0945  156.6961 H   0  0  0  0  0  0  0  0  0  0  0  0  # atno 8008 bound_to 7997
  155.4921  140.3471  155.4338 H   0  0  0  0  0  0  0  0  0  0  0  0  # atno 8009 bound_to 7997
  156.0916  140.1399  156.9573 H   0  0  0  0  0  0  0  0  0  0  0  0  # atno 8010 bound_to 7997
  140.5607  143.2313  151.6733 H   0  0  0  0  0  0  0  0  0  0  0  0  # atno 10167 bound_to 10162
  156.3756  130.7810  151.1996 H   0  0  0  0  0  0  0  0  0  0  0  0  # atno 10718 bound_to 10713
  154.7800  135.4827  153.9825 H   0  0  0  0  0  0  0  0  0  0  0  0  # atno 10763 bound_to 10752
  153.1481  135.6786  153.8931 H   0  0  0  0  0  0  0  0  0  0  0  0  # atno 10764 bound_to 10752
  153.8584  135.3158  155.3415 H   0  0  0  0  0  0  0  0  0  0  0  0  # atno 10765 bound_to 10752
  141.0638  133.6700  156.3291 H   0  0  0  0  0  0  0  0  0  0  0  0  # atno 11005 bound_to 11000
  144.7027  139.8693  143.7439 LP  0  0  0  0  0  0  0  0  0  0  0  0  # atno 17320 bound_to 7965
  146.0967  139.3959  143.0372 LP  0  0  0  0  0  0  0  0  0  0  0  0  # atno 17321 bound_to 7965
  139.5069  144.3666  152.0510 LP  0  0  0  0  0  0  0  0  0  0  0  0  # atno 17342 bound_to 10162
  140.2792  144.3878  150.6124 LP  0  0  0  0  0  0  0  0  0  0  0  0  # atno 17343 bound_to 10162
  157.7488  131.0359  150.4386 LP  0  0  0  0  0  0  0  0  0  0  0  0  # atno 17370 bound_to 10713
  156.4620  130.4034  149.6570 LP  0  0  0  0  0  0  0  0  0  0  0  0  # atno 17371 bound_to 10713
  140.5815  134.5741  157.5480 LP  0  0  0  0  0  0  0  0  0  0  0  0  # atno 17394 bound_to 11000
  139.9457  134.7706  156.0568 LP  0  0  0  0  0  0  0  0  0  0  0  0  # atno 17395 bound_to 11000

$$$$
