AV-unprocessed.smi:123|AV-procd|sdf|1145|dock2
  -GOLD-   2262018273D 1   1.00000     0.00000
 Structure written by MMmdl.
 43 45  0  0  0  0  0  0  0  0  1 V2000
  153.0248  140.7853  159.5592 C   0  0  0  0  0  0  0  0  0  0  0  0
  151.6218  141.2677  159.1468 C   0  0  2  0  0  0  0  0  0  0  0  0
  151.0095  140.3571  158.1779 N   0  0  0  0  0  0  0  0  0  0  0  0
  151.6407  139.6681  157.2121 C   0  0  0  0  0  0  0  0  0  0  0  0
  152.8588  139.7141  157.0318 O   0  0  0  0  0  0  0  0  0  0  0  0
  150.7413  138.7987  156.3198 C   0  0  0  0  0  0  0  0  0  0  0  0
  150.2489  137.5773  156.9934 N   0  0  0  0  0  0  0  0  0  0  0  0
  150.6348  136.3139  156.4804 C   0  0  0  0  0  0  0  0  0  0  0  0
  151.3811  136.2214  155.5046 O   0  0  0  0  0  0  0  0  0  0  0  0
  150.0822  135.1567  157.1750 C   0  0  0  0  0  0  0  0  0  0  0  0
  150.3905  133.9182  156.7543 F   0  0  0  0  0  0  0  0  0  0  0  0
  149.2598  135.3090  158.2333 C   0  0  0  0  0  0  0  0  0  0  0  0
  148.8927  136.5487  158.7243 N   0  0  0  0  0  0  0  0  0  0  0  0
  147.9521  136.6861  159.9016 C   0  0  1  0  0  0  0  0  0  0  0  0
  147.3617  135.3204  160.2693 C   0  0  0  0  0  0  0  0  0  0  0  0
  148.3342  134.8370  161.3228 C   0  0  0  0  0  0  0  0  0  0  0  0
  148.6983  136.1402  162.0255 C   0  0  0  0  0  0  0  0  0  0  0  0
  148.6693  137.1436  161.0124 O   0  0  0  0  0  0  0  0  0  0  0  0
  149.3766  137.7183  158.0991 C   0  0  0  0  0  0  0  0  0  0  0  0
  149.0364  138.8334  158.5011 O   0  0  0  0  0  0  0  0  0  0  0  0
  151.5818  142.6977  158.6917 C   0  0  0  0  0  0  0  0  0  0  0  0
  150.5771  143.5507  158.3219 C   0  0  0  0  0  0  0  0  0  0  0  0
  151.1974  144.7877  157.9932 C   0  0  0  0  0  0  0  0  0  0  0  0
  152.5366  144.5980  158.1802 C   0  0  0  0  0  0  0  0  0  0  0  0
  152.7881  143.3294  158.6022 O   0  0  0  0  0  0  0  0  0  0  0  0
  153.4175  141.3872  160.3790 H   0  0  0  0  0  0  0  0  0  0  0  0
  153.7354  140.8504  158.7346 H   0  0  0  0  0  0  0  0  0  0  0  0
  153.0007  139.7487  159.8968 H   0  0  0  0  0  0  0  0  0  0  0  0
  150.9944  141.1983  160.0360 H   0  0  0  0  0  0  0  0  0  0  0  0
  150.0073  140.2514  158.2409 H   0  0  0  0  0  0  0  0  0  0  0  0
  149.9138  139.4130  155.9619 H   0  0  0  0  0  0  0  0  0  0  0  0
  151.2929  138.5443  155.4130 H   0  0  0  0  0  0  0  0  0  0  0  0
  148.8754  134.4156  158.7018 H   0  0  0  0  0  0  0  0  0  0  0  0
  147.2087  137.4296  159.6102 H   0  0  0  0  0  0  0  0  0  0  0  0
  146.3729  135.4739  160.7033 H   0  0  0  0  0  0  0  0  0  0  0  0
  147.2710  134.6578  159.4079 H   0  0  0  0  0  0  0  0  0  0  0  0
  147.9034  134.0950  161.9955 H   0  0  0  0  0  0  0  0  0  0  0  0
  149.2154  134.4003  160.8513 H   0  0  0  0  0  0  0  0  0  0  0  0
  147.9491  136.3852  162.7793 H   0  0  0  0  0  0  0  0  0  0  0  0
  149.6710  136.0956  162.5160 H   0  0  0  0  0  0  0  0  0  0  0  0
  149.5232  143.3158  158.2963 H   0  0  0  0  0  0  0  0  0  0  0  0
  150.7240  145.7000  157.6614 H   0  0  0  0  0  0  0  0  0  0  0  0
  153.4072  145.2270  158.0649 H   0  0  0  0  0  0  0  0  0  0  0  0
  1  2  1  0  0  0  0
  1 26  1  0  0  0  0
  1 27  1  0  0  0  0
  1 28  1  0  0  0  0
  2  3  1  0  0  0  0
  2 21  1  0  0  0  0
  2 29  1  0  0  0  0
  3  4  1  0  0  0  0
  3 30  1  0  0  0  0
  4  5  2  0  0  0  0
  4  6  1  0  0  0  0
  6  7  1  0  0  0  0
  6 31  1  0  0  0  0
  6 32  1  0  0  0  0
  7 19  1  0  0  0  0
  7  8  1  0  0  0  0
  8  9  2  0  0  0  0
  8 10  1  0  0  0  0
 10 11  1  0  0  0  0
 10 12  2  0  0  0  0
 12 13  1  0  0  0  0
 12 33  1  0  0  0  0
 13 14  1  0  0  0  0
 13 19  1  0  0  0  0
 14 18  1  0  0  0  0
 14 15  1  0  0  0  0
 14 34  1  0  0  0  0
 15 16  1  0  0  0  0
 15 35  1  0  0  0  0
 15 36  1  0  0  0  0
 16 17  1  0  0  0  0
 16 37  1  0  0  0  0
 16 38  1  0  0  0  0
 17 18  1  0  0  0  0
 17 39  1  0  0  0  0
 17 40  1  0  0  0  0
 19 20  2  0  0  0  0
 21 25  1  0  0  0  0
 21 22  2  0  0  0  0
 22 23  1  0  0  0  0
 22 41  1  0  0  0  0
 23 24  2  0  0  0  0
 23 42  1  0  0  0  0
 24 25  1  0  0  0  0
 24 43  1  0  0  0  0
M  END
> <s_m_source_file>
AV-unprocessed.smi

> <i_m_source_file_index>
123

> <i_lp_mmshare_version>
43012

> <i_f3d_flags>
0

> <s_epik_input>
bzFbY0hdW2NIXVtjSF1jMVtDQEhdKFtDSDNdKVtOSF1DKD1PKVtDSDJdbjJjKD1PKWMoRilbY0hdbihjMj1PKVtDQEBIXTNbQ0gyXVtDSDJdW0NIMl1PMw==

> <s_epik_cmdline>
J2VwaWtfcHl0aG9uJywgJy1waCcsICc3LjAnLCAnLXRuJywgJzgnLCAnLW1hJywgJzIwMCcsICctbWV0YWxfYmluZGluZycsICctaW1hZScsICc8aW5maWxlLm1hZT4nLCAnLW9tYWUnLCAnPG91dGZpbGUubWFlPic=

> <r_lp_tautomer_probability>
1

> <r_epik_Ionization_Penalty>
2.31906e-08

> <r_epik_Ionization_Penalty_Charging>
3.85846e-09

> <r_epik_Ionization_Penalty_Neutral>
1.93321e-08

> <r_epik_State_Penalty>
-0

> <r_epik_Charging_Adjusted_Penalty>
3.85846e-09

> <i_epik_Tot_Q>
0

> <i_epik_Tot_abs_Q>
0

> <r_epik_Metal_State_Penalty>
-0

> <b_epik_Metal_Only>
0

> <s_epik_Chemistry_Notes>
This compound contains an acetal/aminal-like group ( X-CH(R)-Y where X, Y are N, S, or O) that may be acid/base labile, releasing an aldehyde.

> <s_lp_Force_Field>
OPLS_2005

> <r_lp_Energy>
21.1126

> <b_lp_Chiralities_Consistent>
1

> <s_lp_Variant>
AV-unprocessed.smi:123-3

> <Gold.Version>
5.8.1

> <Gold.Id.Protein>
6NUR|6NUR_protein|mol2

> <Gold.PLP.Fitness>
43.8908

> <Gold.PLP.PLP>
-35.9401

> <Gold.PLP.part.hbond>
-4.1972

> <Gold.PLP.part.metal>
0.0000

> <Gold.PLP.part.buried>
-6.2257

> <Gold.PLP.part.nonpolar>
-26.1601

> <Gold.PLP.part.repulsive>
0.2093

> <Gold.PLP.ligand.clash>
0.0001

> <Gold.PLP.ligand.torsion>
0.7623

> <Gold.PLP.Chemscore.Hbond>
3.1158

> <Gold.PLP.Chemscore.CHOScore>
0.0000

> <Gold.PLP.Chemscore.Metal>
0.0000

> <Gold.Chemscore.Hbonds>
donor molecule, donor type, donor heavy atom, donor atom, acceptor molecule, acceptor atom, score
      P1  H  6931  6943       L1    18  0.65
      P1  H  6934  6947       L1    18  0.02
      P1  H  7997  8009       L1     5  0.78
      P1  H 10752 10765       L1     9  1.00

> <Gold.PLP.Chemscore.Internal.Correction>
0.1280

> <Gold.Rescore>
     Score         DG    S(hbond)    S(metal)    S(lipo)     H(rot)  DE(clash)    DE(int)     intcor
     14.77     -18.99       2.62        0.00      89.50       2.23       0.07       4.15       ----

> <Gold.Chemscore.Fitness>
14.7697

> <Gold.Chemscore.DG>
-18.9887

> <Gold.Chemscore.ZeroCoef>
-5.4800

> <Gold.Chemscore.Hbond>
2.6222

> <Gold.Chemscore.Metal>
0.0000

> <Gold.Chemscore.Lipo>
89.4972

> <Gold.Chemscore.Internal_Hbond>
0.0000

> <Gold.Chemscore.DEClash>
0.0659

> <Gold.Chemscore.DEInternal>
4.1530

> <Gold.Chemscore.Rot>
2.2347

> <Gold.Chemscore.Internal.Correction>
   9.000000E+99

> <Gold.Chemscore.Hbonds>
donor molecule, donor type, donor heavy atom, donor atom, acceptor molecule, acceptor atom, score
      P1  H  6931  6943       L1    18  0.09
      P1  H  7997  8009       L1     5  0.78
      P1  H 10752 10765       L1     9  1.00

> <Gold.Chemscore.Hbond.Weighted>
-8.7583

> <Gold.Chemscore.Metal.Weighted>
-0.0000

> <Gold.Chemscore.Lipo.Weighted>
-10.4712

> <Gold.Chemscore.Internal_Hbond.Weighted>
0.0000

> <Gold.Chemscore.DEClash.Weighted>
0.0659

> <Gold.Chemscore.DEInternal.Weighted>
4.1530

> <Gold.Chemscore.Rot.Weighted>
5.7208

> <Gold.Chemscore.Internal.Correction.Weighted>
   9.000000E+99

> <Gold.Protein.RotatedTorsions>
[ 6907 6896 6895 6894 ] final  -89.69 input  -60.11 | X-H torsion
[ 7974 7965 7964 7962 ] final   44.48 input  175.53 | X-H torsion
[ 8008 7997 7996 7995 ] final  153.79 input   59.86 | X-H torsion
[ 10167 10162 10161 10158 ] final    4.68 input  -65.29 | X-H torsion
[ 10718 10713 10712 10709 ] final   56.87 input   66.30 | X-H torsion
[ 10763 10752 10751 10750 ] final -169.83 input  -60.55 | X-H torsion
[ 11005 11000 10999 10996 ] final  -80.29 input  -57.11 | X-H torsion

> <Gold.Protein.ActiveResidues>
 VAL166  LYS551  ARG553  GLY616  TRP617  ASP618  TYR619  PRO620  LYS621  CYS622 
 ASP623  PHE694  ASN695  SER759  ASP760  ASP761  ALA762  ILE779  LEU786  VAL792 
 PHE793  MET794  SER795  GLU796  ALA797  LYS798  CYS799  TRP800  GLU811  SER814 

> <Gold.Protein.RotatedAtoms>
  150.6875  134.2547  159.4524 H   0  0  0  0  0  0  0  0  0  0  0  0  # atno 6907 bound_to 6896
  152.0482  134.9667  160.0584 H   0  0  0  0  0  0  0  0  0  0  0  0  # atno 6908 bound_to 6896
  152.1142  133.4282  159.4682 H   0  0  0  0  0  0  0  0  0  0  0  0  # atno 6909 bound_to 6896
  146.0565  139.5070  142.9685 H   0  0  0  0  0  0  0  0  0  0  0  0  # atno 7974 bound_to 7965
  156.2564  140.1984  156.6546 H   0  0  0  0  0  0  0  0  0  0  0  0  # atno 8008 bound_to 7997
  154.6511  140.0572  156.9981 H   0  0  0  0  0  0  0  0  0  0  0  0  # atno 8009 bound_to 7997
  155.1417  140.3243  155.4453 H   0  0  0  0  0  0  0  0  0  0  0  0  # atno 8010 bound_to 7997
  140.6522  143.7516  150.7594 H   0  0  0  0  0  0  0  0  0  0  0  0  # atno 10167 bound_to 10162
  157.5467  130.8736  149.8901 H   0  0  0  0  0  0  0  0  0  0  0  0  # atno 10718 bound_to 10713
  154.6480  135.2907  155.0022 H   0  0  0  0  0  0  0  0  0  0  0  0  # atno 10763 bound_to 10752
  154.1124  135.6560  153.4891 H   0  0  0  0  0  0  0  0  0  0  0  0  # atno 10764 bound_to 10752
  153.0361  135.5268  154.7376 H   0  0  0  0  0  0  0  0  0  0  0  0  # atno 10765 bound_to 10752
  141.1668  133.7143  156.8250 H   0  0  0  0  0  0  0  0  0  0  0  0  # atno 11005 bound_to 11000
  145.6635  141.0234  143.1696 LP  0  0  0  0  0  0  0  0  0  0  0  0  # atno 17320 bound_to 7965
  144.7150  139.8228  143.7401 LP  0  0  0  0  0  0  0  0  0  0  0  0  # atno 17321 bound_to 7965
  140.1169  143.4648  152.2337 LP  0  0  0  0  0  0  0  0  0  0  0  0  # atno 17342 bound_to 10162
  139.5739  144.7477  151.3817 LP  0  0  0  0  0  0  0  0  0  0  0  0  # atno 17343 bound_to 10162
  156.0541  130.3712  150.1131 LP  0  0  0  0  0  0  0  0  0  0  0  0  # atno 17370 bound_to 10713
  156.9307  130.9713  151.3533 LP  0  0  0  0  0  0  0  0  0  0  0  0  # atno 17371 bound_to 10713
  140.2092  134.8840  157.3255 LP  0  0  0  0  0  0  0  0  0  0  0  0  # atno 17394 bound_to 11000
  140.2105  134.4144  155.7615 LP  0  0  0  0  0  0  0  0  0  0  0  0  # atno 17395 bound_to 11000

$$$$
