AV-unprocessed.smi:2061|AV-procd|sdf|8384|dock6
  -GOLD-   2272011 63D 1   1.00000     0.00000
 Structure written by MMmdl.
 45 46  0  0  0  0  0  0  0  0  3 V2000
  138.1463  136.9317  154.8376 C   0  0  0  0  0  0  0  0  0  0  0  0
  139.5758  136.8199  154.4291 C   0  0  0  0  0  0  0  0  0  0  0  0
  140.3222  137.4589  153.4799 C   0  0  0  0  0  0  0  0  0  0  0  0
  141.6101  136.8763  153.6328 C   0  0  0  0  0  0  0  0  0  0  0  0
  142.7001  137.1686  152.9064 N   0  5  0  0  0  0  0  0  0  0  0  0
  143.9355  136.9787  153.4221 C   0  0  0  0  0  0  0  0  0  0  0  0
  144.3273  135.9869  154.0417 O   0  0  0  0  0  0  0  0  0  0  0  0
  144.7698  138.0067  153.2125 N   0  0  0  0  0  0  0  0  0  0  0  0
  146.1517  138.0888  153.6750 C   0  0  0  0  0  0  0  0  0  0  0  0
  146.6300  139.5475  153.8991 C   0  0  2  0  0  0  0  0  0  0  0  0
  146.6340  140.3203  152.5576 C   0  0  0  0  0  0  0  0  0  0  0  0
  147.9557  139.5480  154.5985 N   0  3  1  0  0  0  0  0  0  0  0  0
  148.9418  138.5386  154.1273 C   0  0  0  0  0  0  0  0  0  0  0  0
  150.2231  138.5767  154.9816 C   0  0  1  0  0  0  0  0  0  0  0  0
  151.2942  137.6186  154.4489 C   0  0  0  0  0  0  0  0  0  0  0  0
  150.7736  139.8892  154.9755 O   0  0  0  0  0  0  0  0  0  0  0  0
  149.8871  140.9056  155.4371 C   0  0  2  0  0  0  0  0  0  0  0  0
  149.6430  140.8323  156.9553 C   0  0  0  0  0  0  0  0  0  0  0  0
  148.5928  140.8924  154.6029 C   0  0  0  0  0  0  0  0  0  0  0  0
  141.6381  135.9530  154.5791 N   0  0  0  0  0  0  0  0  0  0  0  0
  140.3391  135.9157  155.0997 O   0  0  0  0  0  0  0  0  0  0  0  0
  137.4922  136.8967  153.9664 H   0  0  0  0  0  0  0  0  0  0  0  0
  137.9675  137.8726  155.3578 H   0  0  0  0  0  0  0  0  0  0  0  0
  137.8625  136.1172  155.5045 H   0  0  0  0  0  0  0  0  0  0  0  0
  140.0003  138.2230  152.7887 H   0  0  0  0  0  0  0  0  0  0  0  0
  144.4109  138.7964  152.6955 H   0  0  0  0  0  0  0  0  0  0  0  0
  146.2430  137.4830  154.5758 H   0  0  0  0  0  0  0  0  0  0  0  0
  146.7818  137.6076  152.9265 H   0  0  0  0  0  0  0  0  0  0  0  0
  145.9179  140.0583  154.5493 H   0  0  0  0  0  0  0  0  0  0  0  0
  145.6638  140.2756  152.0634 H   0  0  0  0  0  0  0  0  0  0  0  0
  147.3707  139.9127  151.8646 H   0  0  0  0  0  0  0  0  0  0  0  0
  146.8427  141.3811  152.6977 H   0  0  0  0  0  0  0  0  0  0  0  0
  148.5332  137.5316  154.2043 H   0  0  0  0  0  0  0  0  0  0  0  0
  149.1753  138.7191  153.0767 H   0  0  0  0  0  0  0  0  0  0  0  0
  149.9886  138.2818  156.0047 H   0  0  0  0  0  0  0  0  0  0  0  0
  150.9359  136.5889  154.4485 H   0  0  0  0  0  0  0  0  0  0  0  0
  152.1924  137.6567  155.0659 H   0  0  0  0  0  0  0  0  0  0  0  0
  151.5808  137.8739  153.4283 H   0  0  0  0  0  0  0  0  0  0  0  0
  150.3935  141.8525  155.2464 H   0  0  0  0  0  0  0  0  0  0  0  0
  149.0705  141.6955  157.2954 H   0  0  0  0  0  0  0  0  0  0  0  0
  150.5868  140.8288  157.5011 H   0  0  0  0  0  0  0  0  0  0  0  0
  149.0852  139.9420  157.2446 H   0  0  0  0  0  0  0  0  0  0  0  0
  148.8239  141.1762  153.5747 H   0  0  0  0  0  0  0  0  0  0  0  0
  147.9174  141.6555  154.9855 H   0  0  0  0  0  0  0  0  0  0  0  0
  147.7600  139.3111  155.5606 H   0  0  0  0  0  0  0  0  0  0  0  0
  1  2  1  0  0  0  0
  1 22  1  0  0  0  0
  1 23  1  0  0  0  0
  1 24  1  0  0  0  0
  2 21  1  0  0  0  0
  2  3  2  0  0  0  0
  3  4  1  0  0  0  0
  3 25  1  0  0  0  0
  4  5  1  0  0  0  0
  4 20  2  0  0  0  0
  5  6  1  0  0  0  0
  6  7  2  0  0  0  0
  6  8  1  0  0  0  0
  8  9  1  0  0  0  0
  8 26  1  0  0  0  0
  9 10  1  0  0  0  0
  9 27  1  0  0  0  0
  9 28  1  0  0  0  0
 10 11  1  0  0  0  0
 10 12  1  0  0  0  0
 10 29  1  0  0  0  0
 11 30  1  0  0  0  0
 11 31  1  0  0  0  0
 11 32  1  0  0  0  0
 12 19  1  0  0  0  0
 12 13  1  0  0  0  0
 12 45  1  0  0  0  0
 13 14  1  0  0  0  0
 13 33  1  0  0  0  0
 13 34  1  0  0  0  0
 14 15  1  0  0  0  0
 14 16  1  0  0  0  0
 14 35  1  0  0  0  0
 15 36  1  0  0  0  0
 15 37  1  0  0  0  0
 15 38  1  0  0  0  0
 16 17  1  0  0  0  0
 17 18  1  0  0  0  0
 17 19  1  0  0  0  0
 17 39  1  0  0  0  0
 18 40  1  0  0  0  0
 18 41  1  0  0  0  0
 18 42  1  0  0  0  0
 19 43  1  0  0  0  0
 19 44  1  0  0  0  0
 20 21  1  0  0  0  0
M  CHG  1   5  -1
M  CHG  1  12   1
M  END
> <s_m_source_file>
AV-unprocessed.smi

> <i_m_source_file_index>
2061

> <i_lp_mmshare_version>
43012

> <i_f3d_flags>
0

> <s_epik_input>
W0NIM11jMVtjSF1jKG5vMSlbTkhdQyg9TylbTkhdW0NIMl1bQ0BIXShbQ0gzXSlOMltDSDJdW0NAQEhdKFtDSDNdKU9bQ0BASF0oW0NIM10pW0NIMl0y

> <s_epik_cmdline>
J2VwaWtfcHl0aG9uJywgJy1waCcsICc3LjAnLCAnLXRuJywgJzgnLCAnLW1hJywgJzIwMCcsICctbWV0YWxfYmluZGluZycsICctaW1hZScsICc8aW5maWxlLm1hZT4nLCAnLW9tYWUnLCAnPG91dGZpbGUubWFlPic=

> <r_epik_Ionization_Penalty>
6.73511

> <r_epik_Ionization_Penalty_Charging>
6.73502

> <r_epik_Ionization_Penalty_Neutral>
9.50841e-05

> <r_epik_State_Penalty>
6.93549

> <r_epik_Charging_Adjusted_Penalty>
13.6705

> <i_epik_Tot_Q>
0

> <i_epik_Tot_abs_Q>
2

> <r_epik_Metal_State_Penalty>
2.87211

> <b_epik_Metal_Only>
1

> <s_lp_Force_Field>
OPLS_2005

> <r_lp_Energy>
11.3742

> <b_lp_Chiralities_Consistent>
1

> <s_lp_Variant>
AV-unprocessed.smi:2061-25

> <Gold.Version>
5.8.1

> <Gold.Id.Protein>
6NUR|6NUR_protein|mol2

> <Gold.PLP.Fitness>
40.3874

> <Gold.PLP.PLP>
-34.0802

> <Gold.PLP.part.hbond>
-3.0000

> <Gold.PLP.part.metal>
0.0000

> <Gold.PLP.part.buried>
-5.7679

> <Gold.PLP.part.nonpolar>
-25.8476

> <Gold.PLP.part.repulsive>
1.6359

> <Gold.PLP.ligand.clash>
0.0000

> <Gold.PLP.ligand.torsion>
1.0206

> <Gold.PLP.Chemscore.Hbond>
2.7360

> <Gold.PLP.Chemscore.CHOScore>
0.0000

> <Gold.PLP.Chemscore.Metal>
0.0000

> <Gold.Chemscore.Hbonds>
donor molecule, donor type, donor heavy atom, donor atom, acceptor molecule, acceptor atom, score
      L1  H     8    26       P1 10175  1.00
      P1  H  7989  7998       L1    16  0.95
      P1  H 11000 11005       L1    21  0.82

> <Gold.PLP.Chemscore.Internal.Correction>
0.1404

> <Gold.Rescore>
     Score         DG    S(hbond)    S(metal)    S(lipo)     H(rot)  DE(clash)    DE(int)     intcor
     16.60     -19.14       2.49        0.00      79.68       1.56       0.16       2.38       ----

> <Gold.Chemscore.Fitness>
16.5994

> <Gold.Chemscore.DG>
-19.1367

> <Gold.Chemscore.ZeroCoef>
-5.4800

> <Gold.Chemscore.Hbond>
2.4895

> <Gold.Chemscore.Metal>
0.0000

> <Gold.Chemscore.Lipo>
79.6794

> <Gold.Chemscore.Internal_Hbond>
0.0000

> <Gold.Chemscore.DEClash>
0.1600

> <Gold.Chemscore.DEInternal>
2.3772

> <Gold.Chemscore.Rot>
1.5550

> <Gold.Chemscore.Internal.Correction>
   9.000000E+99

> <Gold.Chemscore.Hbonds>
donor molecule, donor type, donor heavy atom, donor atom, acceptor molecule, acceptor atom, score
      L1  H     8    26       P1 10175  0.99
      P1  H  7989  7998       L1    16  0.21
      P1  H 11000 11005       L1    21  0.60

> <Gold.Chemscore.Hbond.Weighted>
-8.3150

> <Gold.Chemscore.Metal.Weighted>
-0.0000

> <Gold.Chemscore.Lipo.Weighted>
-9.3225

> <Gold.Chemscore.Internal_Hbond.Weighted>
0.0000

> <Gold.Chemscore.DEClash.Weighted>
0.1600

> <Gold.Chemscore.DEInternal.Weighted>
2.3772

> <Gold.Chemscore.Rot.Weighted>
3.9809

> <Gold.Chemscore.Internal.Correction.Weighted>
   9.000000E+99

> <Gold.Protein.RotatedTorsions>
[ 6907 6896 6895 6894 ] final   41.64 input  -60.11 | X-H torsion
[ 7974 7965 7964 7962 ] final  -87.50 input  175.53 | X-H torsion
[ 8008 7997 7996 7995 ] final   -8.08 input   59.86 | X-H torsion
[ 10167 10162 10161 10158 ] final  156.89 input  -65.29 | X-H torsion
[ 10718 10713 10712 10709 ] final  -86.85 input   66.30 | X-H torsion
[ 10763 10752 10751 10750 ] final -145.35 input  -60.55 | X-H torsion
[ 11005 11000 10999 10996 ] final   54.37 input  -57.11 | X-H torsion

> <Gold.Protein.ActiveResidues>
 VAL166  LYS551  ARG553  GLY616  TRP617  ASP618  TYR619  PRO620  LYS621  CYS622 
 ASP623  PHE694  ASN695  SER759  ASP760  ASP761  ALA762  ILE779  LEU786  VAL792 
 PHE793  MET794  SER795  GLU796  ALA797  LYS798  CYS799  TRP800  GLU811  SER814 

> <Gold.Protein.RotatedAtoms>
  152.1978  134.8615  160.0510 H   0  0  0  0  0  0  0  0  0  0  0  0  # atno 6907 bound_to 6896
  151.9480  133.3652  159.3997 H   0  0  0  0  0  0  0  0  0  0  0  0  # atno 6908 bound_to 6896
  150.6948  134.4294  159.5285 H   0  0  0  0  0  0  0  0  0  0  0  0  # atno 6909 bound_to 6896
  145.4657  140.9560  143.1945 H   0  0  0  0  0  0  0  0  0  0  0  0  # atno 7974 bound_to 7965
  154.5776  140.2390  155.8100 H   0  0  0  0  0  0  0  0  0  0  0  0  # atno 8008 bound_to 7997
  156.2155  140.3013  155.9786 H   0  0  0  0  0  0  0  0  0  0  0  0  # atno 8009 bound_to 7997
  155.2599  140.0414  157.2986 H   0  0  0  0  0  0  0  0  0  0  0  0  # atno 8010 bound_to 7997
  139.4822  144.4967  151.8228 H   0  0  0  0  0  0  0  0  0  0  0  0  # atno 10167 bound_to 10162
  155.9988  130.4779  150.4777 H   0  0  0  0  0  0  0  0  0  0  0  0  # atno 10718 bound_to 10713
  154.8387  135.3415  154.6491 H   0  0  0  0  0  0  0  0  0  0  0  0  # atno 10763 bound_to 10752
  153.7104  135.6964  153.5043 H   0  0  0  0  0  0  0  0  0  0  0  0  # atno 10764 bound_to 10752
  153.2456  135.4370  155.0698 H   0  0  0  0  0  0  0  0  0  0  0  0  # atno 10765 bound_to 10752
  140.0691  134.5494  155.9066 H   0  0  0  0  0  0  0  0  0  0  0  0  # atno 11005 bound_to 11000
  144.7976  139.6204  143.7086 LP  0  0  0  0  0  0  0  0  0  0  0  0  # atno 17320 bound_to 7965
  146.2426  139.6032  142.9481 LP  0  0  0  0  0  0  0  0  0  0  0  0  # atno 17321 bound_to 7965
  140.4457  144.1925  150.5894 LP  0  0  0  0  0  0  0  0  0  0  0  0  # atno 17342 bound_to 10162
  140.4637  143.2439  151.9184 LP  0  0  0  0  0  0  0  0  0  0  0  0  # atno 17343 bound_to 10162
  157.2786  131.0602  151.2213 LP  0  0  0  0  0  0  0  0  0  0  0  0  # atno 17370 bound_to 10713
  157.3267  130.6964  149.6300 LP  0  0  0  0  0  0  0  0  0  0  0  0  # atno 17371 bound_to 10713
  141.2005  133.6613  156.5899 LP  0  0  0  0  0  0  0  0  0  0  0  0  # atno 17394 bound_to 11000
  140.3653  134.7652  157.4562 LP  0  0  0  0  0  0  0  0  0  0  0  0  # atno 17395 bound_to 11000

$$$$
