AV-unprocessed.smi:1550|AV-procd|sdf|6231|dock10
  -GOLD-   22720 6413D 1   1.00000     0.00000
 Structure written by MMmdl.
 42 43  0  0  0  0  0  0  0  0  2 V2000
  151.4697  138.1059  156.0443 C   0  0  0  0  0  0  0  0  0  0  0  0
  151.5411  138.4733  157.5339 C   0  0  1  0  0  0  0  0  0  0  0  0
  151.1254  139.8302  157.6615 O   0  0  0  0  0  0  0  0  0  0  0  0
  151.3193  140.4095  158.9474 C   0  0  0  0  0  0  0  0  0  0  0  0
  151.8746  141.8287  158.7730 C   0  0  1  0  0  0  0  0  0  0  0  0
  150.9230  142.7317  157.9631 C   0  0  0  0  0  0  0  0  0  0  0  0
  151.4687  144.1619  157.8881 C   0  0  0  0  0  0  0  0  0  0  0  0
  151.7747  144.6715  159.3001 C   0  0  0  0  0  0  0  0  0  0  0  0
  152.6841  143.6778  160.0403 C   0  0  0  0  0  0  0  0  0  0  0  0
  152.0754  142.3900  160.0688 O   0  0  0  0  0  0  0  0  0  0  0  0
  150.6379  137.5591  158.3777 C   0  0  0  0  0  0  0  0  0  0  0  0
  151.1044  137.0011  159.3707 O   0  0  0  0  0  0  0  0  0  0  0  0
  149.3774  137.4179  157.9230 N   0  0  0  0  0  0  0  0  0  0  0  0
  148.3096  136.6692  158.4472 C   0  0  0  0  0  0  0  0  0  0  0  0
  148.0313  136.5263  159.7729 C   0  0  0  0  0  0  0  0  0  0  0  0
  146.8996  135.7427  160.2529 C   0  0  0  0  0  0  0  0  0  0  0  0
  146.6205  135.4775  161.7217 C   0  0  0  0  0  0  0  0  0  0  0  0
  145.3498  135.7646  162.0010 F   0  0  0  0  0  0  0  0  0  0  0  0
  146.8341  134.1972  162.0272 F   0  0  0  0  0  0  0  0  0  0  0  0
  147.3978  136.2309  162.4997 F   0  0  0  0  0  0  0  0  0  0  0  0
  146.1775  135.1779  159.2196 C   0  0  0  0  0  0  0  0  0  0  0  0
  146.3668  135.2931  157.8870 N   0  5  0  0  0  0  0  0  0  0  0  0
  147.4279  136.0279  157.4496 C   0  0  0  0  0  0  0  0  0  0  0  0
  147.6629  136.1678  156.2487 O   0  0  0  0  0  0  0  0  0  0  0  0
  151.7619  137.0684  155.8780 H   0  0  0  0  0  0  0  0  0  0  0  0
  152.1419  138.7343  155.4596 H   0  0  0  0  0  0  0  0  0  0  0  0
  150.4637  138.2401  155.6447 H   0  0  0  0  0  0  0  0  0  0  0  0
  152.5791  138.3796  157.8600 H   0  0  0  0  0  0  0  0  0  0  0  0
  150.3949  140.4395  159.5255 H   0  0  0  0  0  0  0  0  0  0  0  0
  152.0319  139.8017  159.5065 H   0  0  0  0  0  0  0  0  0  0  0  0
  152.8419  141.7648  158.2714 H   0  0  0  0  0  0  0  0  0  0  0  0
  150.7850  142.3330  156.9576 H   0  0  0  0  0  0  0  0  0  0  0  0
  149.9383  142.7424  158.4322 H   0  0  0  0  0  0  0  0  0  0  0  0
  152.3782  144.1771  157.2865 H   0  0  0  0  0  0  0  0  0  0  0  0
  150.7522  144.8175  157.3926 H   0  0  0  0  0  0  0  0  0  0  0  0
  152.2456  145.6538  159.2535 H   0  0  0  0  0  0  0  0  0  0  0  0
  150.8437  144.7959  159.8549 H   0  0  0  0  0  0  0  0  0  0  0  0
  153.6642  143.6181  159.5644 H   0  0  0  0  0  0  0  0  0  0  0  0
  152.8488  144.0118  161.0648 H   0  0  0  0  0  0  0  0  0  0  0  0
  149.1628  137.8899  157.0563 H   0  0  0  0  0  0  0  0  0  0  0  0
  148.6356  137.0088  160.5225 H   0  0  0  0  0  0  0  0  0  0  0  0
  145.3213  134.5312  159.5073 H   0  0  0  0  0  0  0  0  0  0  0  0
  1  2  1  0  0  0  0
  1 25  1  0  0  0  0
  1 26  1  0  0  0  0
  1 27  1  0  0  0  0
  2  3  1  0  0  0  0
  2 11  1  0  0  0  0
  2 28  1  0  0  0  0
  3  4  1  0  0  0  0
  4  5  1  0  0  0  0
  4 29  1  0  0  0  0
  4 30  1  0  0  0  0
  5 10  1  0  0  0  0
  5  6  1  0  0  0  0
  5 31  1  0  0  0  0
  6  7  1  0  0  0  0
  6 32  1  0  0  0  0
  6 33  1  0  0  0  0
  7  8  1  0  0  0  0
  7 34  1  0  0  0  0
  7 35  1  0  0  0  0
  8  9  1  0  0  0  0
  8 36  1  0  0  0  0
  8 37  1  0  0  0  0
  9 10  1  0  0  0  0
  9 38  1  0  0  0  0
  9 39  1  0  0  0  0
 11 12  2  0  0  0  0
 11 13  1  0  0  0  0
 13 14  1  0  0  0  0
 13 40  1  0  0  0  0
 14 23  1  0  0  0  0
 14 15  2  0  0  0  0
 15 16  1  0  0  0  0
 15 41  1  0  0  0  0
 16 17  1  0  0  0  0
 16 21  2  0  0  0  0
 17 18  1  0  0  0  0
 17 19  1  0  0  0  0
 17 20  1  0  0  0  0
 21 22  1  0  0  0  0
 21 42  1  0  0  0  0
 22 23  1  0  0  0  0
 23 24  2  0  0  0  0
M  CHG  1  22  -1
M  END
> <s_m_source_file>
AV-unprocessed.smi

> <i_m_source_file_index>
1550

> <i_lp_mmshare_version>
43012

> <i_f3d_flags>
0

> <s_epik_input>
TzFbQ0gyXVtDSDJdW0NIMl1bQ0gyXVtDQEhdMVtDSDJdT1tDQEBIXShbQ0gzXSlDKD1PKVtOSF1jMltjSF1jKEMoRikoRilGKVtjSF1bbkhdYzI9Tw==

> <s_epik_cmdline>
J2VwaWtfcHl0aG9uJywgJy1waCcsICc3LjAnLCAnLXRuJywgJzgnLCAnLW1hJywgJzIwMCcsICctbWV0YWxfYmluZGluZycsICctaW1hZScsICc8aW5maWxlLm1hZT4nLCAnLW9tYWUnLCAnPG91dGZpbGUubWFlPic=

> <r_epik_Ionization_Penalty>
2.54933

> <r_epik_Ionization_Penalty_Charging>
0.0583423

> <r_epik_Ionization_Penalty_Neutral>
2.49099

> <r_epik_State_Penalty>
2.65532

> <r_epik_Charging_Adjusted_Penalty>
2.71366

> <i_epik_Tot_Q>
-1

> <i_epik_Tot_abs_Q>
1

> <r_epik_Metal_State_Penalty>
0.516364

> <b_epik_Metal_Only>
0

> <s_lp_Force_Field>
OPLS_2005

> <r_lp_Energy>
27.8976

> <b_lp_Chiralities_Consistent>
1

> <s_lp_Variant>
AV-unprocessed.smi:1550-8

> <Gold.Version>
5.8.1

> <Gold.Id.Protein>
6NUR|6NUR_protein|mol2

> <Gold.PLP.Fitness>
45.0935

> <Gold.PLP.PLP>
-43.8719

> <Gold.PLP.part.hbond>
-1.0000

> <Gold.PLP.part.metal>
0.0000

> <Gold.PLP.part.buried>
-6.9825

> <Gold.PLP.part.nonpolar>
-35.8425

> <Gold.PLP.part.repulsive>
0.1139

> <Gold.PLP.ligand.clash>
0.0000

> <Gold.PLP.ligand.torsion>
0.9651

> <Gold.PLP.Chemscore.Hbond>
1.0000

> <Gold.PLP.Chemscore.CHOScore>
0.0000

> <Gold.PLP.Chemscore.Metal>
0.0000

> <Gold.Chemscore.Hbonds>
donor molecule, donor type, donor heavy atom, donor atom, acceptor molecule, acceptor atom, score
      P1  H  6896  6909       L1    12  1.00

> <Gold.PLP.Chemscore.Internal.Correction>
0.1517

> <Gold.Rescore>
     Score         DG    S(hbond)    S(metal)    S(lipo)     H(rot)  DE(clash)    DE(int)     intcor
     14.13     -15.19       1.00        0.00      94.44       1.82       0.03       1.03       ----

> <Gold.Chemscore.Fitness>
14.1332

> <Gold.Chemscore.DG>
-15.1940

> <Gold.Chemscore.ZeroCoef>
-5.4800

> <Gold.Chemscore.Hbond>
0.9980

> <Gold.Chemscore.Metal>
0.0000

> <Gold.Chemscore.Lipo>
94.4379

> <Gold.Chemscore.Internal_Hbond>
0.0000

> <Gold.Chemscore.DEClash>
0.0342

> <Gold.Chemscore.DEInternal>
1.0266

> <Gold.Chemscore.Rot>
1.8236

> <Gold.Chemscore.Internal.Correction>
   9.000000E+99

> <Gold.Chemscore.Hbonds>
donor molecule, donor type, donor heavy atom, donor atom, acceptor molecule, acceptor atom, score
      P1  H  6896  6909       L1    12  0.98

> <Gold.Chemscore.Hbond.Weighted>
-3.3332

> <Gold.Chemscore.Metal.Weighted>
-0.0000

> <Gold.Chemscore.Lipo.Weighted>
-11.0492

> <Gold.Chemscore.Internal_Hbond.Weighted>
0.0000

> <Gold.Chemscore.DEClash.Weighted>
0.0342

> <Gold.Chemscore.DEInternal.Weighted>
1.0266

> <Gold.Chemscore.Rot.Weighted>
4.6684

> <Gold.Chemscore.Internal.Correction.Weighted>
   9.000000E+99

> <Gold.Protein.RotatedTorsions>
[ 6907 6896 6895 6894 ] final   96.93 input  -60.11 | X-H torsion
[ 7974 7965 7964 7962 ] final   93.50 input  175.53 | X-H torsion
[ 8008 7997 7996 7995 ] final   94.74 input   59.86 | X-H torsion
[ 10167 10162 10161 10158 ] final -114.00 input  -65.29 | X-H torsion
[ 10718 10713 10712 10709 ] final   87.56 input   66.30 | X-H torsion
[ 10763 10752 10751 10750 ] final   -4.68 input  -60.55 | X-H torsion
[ 11005 11000 10999 10996 ] final  140.50 input  -57.11 | X-H torsion

> <Gold.Protein.ActiveResidues>
 VAL166  LYS551  ARG553  GLY616  TRP617  ASP618  TYR619  PRO620  LYS621  CYS622 
 ASP623  PHE694  ASN695  SER759  ASP760  ASP761  ALA762  ILE779  LEU786  VAL792 
 PHE793  MET794  SER795  GLU796  ALA797  LYS798  CYS799  TRP800  GLU811  SER814 

> <Gold.Protein.RotatedAtoms>
  152.5429  134.0810  159.8235 H   0  0  0  0  0  0  0  0  0  0  0  0  # atno 6907 bound_to 6896
  151.0912  133.5307  159.2622 H   0  0  0  0  0  0  0  0  0  0  0  0  # atno 6908 bound_to 6896
  151.2097  135.0485  159.8960 H   0  0  0  0  0  0  0  0  0  0  0  0  # atno 6909 bound_to 6896
  145.4781  139.2279  143.2898 H   0  0  0  0  0  0  0  0  0  0  0  0  # atno 7974 bound_to 7965
  156.0612  140.3296  155.7464 H   0  0  0  0  0  0  0  0  0  0  0  0  # atno 8008 bound_to 7997
  155.5452  140.0605  157.2879 H   0  0  0  0  0  0  0  0  0  0  0  0  # atno 8009 bound_to 7997
  154.4482  140.1904  156.0619 H   0  0  0  0  0  0  0  0  0  0  0  0  # atno 8010 bound_to 7997
  140.1057  143.4573  152.1784 H   0  0  0  0  0  0  0  0  0  0  0  0  # atno 10167 bound_to 10162
  157.6941  131.0260  150.3142 H   0  0  0  0  0  0  0  0  0  0  0  0  # atno 10718 bound_to 10713
  153.3882  135.7001  153.6515 H   0  0  0  0  0  0  0  0  0  0  0  0  # atno 10763 bound_to 10752
  153.5098  135.3634  155.2581 H   0  0  0  0  0  0  0  0  0  0  0  0  # atno 10764 bound_to 10752
  154.8699  135.4132  154.3193 H   0  0  0  0  0  0  0  0  0  0  0  0  # atno 10765 bound_to 10752
  140.0332  134.9341  157.0703 H   0  0  0  0  0  0  0  0  0  0  0  0  # atno 11005 bound_to 11000
  146.2357  140.5565  142.8956 LP  0  0  0  0  0  0  0  0  0  0  0  0  # atno 17320 bound_to 7965
  144.7905  140.6023  143.6544 LP  0  0  0  0  0  0  0  0  0  0  0  0  # atno 17321 bound_to 7965
  139.5647  144.7427  151.4057 LP  0  0  0  0  0  0  0  0  0  0  0  0  # atno 17342 bound_to 10162
  140.6953  143.7763  150.7318 LP  0  0  0  0  0  0  0  0  0  0  0  0  # atno 17343 bound_to 10162
  156.3639  130.3851  149.7229 LP  0  0  0  0  0  0  0  0  0  0  0  0  # atno 17370 bound_to 10713
  156.4666  130.7977  151.2996 LP  0  0  0  0  0  0  0  0  0  0  0  0  # atno 17371 bound_to 10713
  140.4191  134.1900  155.7164 LP  0  0  0  0  0  0  0  0  0  0  0  0  # atno 17394 bound_to 11000
  141.1843  133.8347  157.1145 LP  0  0  0  0  0  0  0  0  0  0  0  0  # atno 17395 bound_to 11000

$$$$
