AV-unprocessed.smi:902|AV-procd|sdf|4094|dock8
  -GOLD-   22720 1583D 1   1.00000     0.00000
 Structure written by MMmdl.
 42 44  0  0  0  0  0  0  0  0  1 V2000
  147.4239  127.3088  154.0095 C   0  0  0  0  0  0  0  0  0  0  0  0
  147.7552  126.9176  152.6533 N   0  0  0  0  0  0  0  0  0  0  0  0
  147.9759  125.6185  152.3601 N   0  0  0  0  0  0  0  0  0  0  0  0
  148.2471  125.5938  151.0586 C   0  0  0  0  0  0  0  0  0  0  0  0
  148.5472  124.2841  150.3806 C   0  0  0  0  0  0  0  0  0  0  0  0
  147.6644  123.7847  149.2279 C   0  0  0  0  0  0  0  0  0  0  0  0
  147.8720  122.3571  149.7442 C   0  0  0  0  0  0  0  0  0  0  0  0
  148.2701  122.9551  151.0977 C   0  0  0  0  0  0  0  0  0  0  0  0
  148.2079  126.8903  150.4673 C   0  0  0  0  0  0  0  0  0  0  0  0
  147.8895  127.6961  151.5258 C   0  0  0  0  0  0  0  0  0  0  0  0
  147.7116  129.0435  151.5520 N   0  0  0  0  0  0  0  0  0  0  0  0
  146.6974  129.7481  152.0831 C   0  0  0  0  0  0  0  0  0  0  0  0
  145.7115  129.2699  152.6446 O   0  0  0  0  0  0  0  0  0  0  0  0
  146.8922  131.0648  151.9252 N   0  0  0  0  0  0  0  0  0  0  0  0
  146.0029  132.1086  152.4227 C   0  0  0  0  0  0  0  0  0  0  0  0
  144.7888  132.4427  151.5571 C   0  0  0  0  0  0  0  0  0  0  0  0
  144.0649  133.7023  152.0234 C   0  0  0  0  0  0  0  0  0  0  0  0
  143.7552  133.6469  153.4006 O   0  0  0  0  0  0  0  0  0  0  0  0
  144.9164  132.2153  150.0631 C   0  0  0  0  0  0  0  0  0  0  0  0
  144.0068  131.3358  150.8793 C   0  0  0  0  0  0  0  0  0  0  0  0
  148.0455  128.1521  154.3118 H   0  0  0  0  0  0  0  0  0  0  0  0
  147.5946  126.4817  154.6998 H   0  0  0  0  0  0  0  0  0  0  0  0
  146.3752  127.6019  154.0580 H   0  0  0  0  0  0  0  0  0  0  0  0
  149.5860  124.2861  150.0446 H   0  0  0  0  0  0  0  0  0  0  0  0
  146.6264  124.1115  149.3097 H   0  0  0  0  0  0  0  0  0  0  0  0
  148.0671  123.9738  148.2324 H   0  0  0  0  0  0  0  0  0  0  0  0
  146.9702  121.7446  149.7650 H   0  0  0  0  0  0  0  0  0  0  0  0
  148.6992  121.8453  149.2501 H   0  0  0  0  0  0  0  0  0  0  0  0
  149.1446  122.4967  151.5599 H   0  0  0  0  0  0  0  0  0  0  0  0
  147.4307  123.0100  151.7927 H   0  0  0  0  0  0  0  0  0  0  0  0
  148.3851  127.1597  149.4372 H   0  0  0  0  0  0  0  0  0  0  0  0
  148.4468  129.5824  151.1186 H   0  0  0  0  0  0  0  0  0  0  0  0
  147.7303  131.3694  151.4521 H   0  0  0  0  0  0  0  0  0  0  0  0
  145.6448  131.7924  153.4027 H   0  0  0  0  0  0  0  0  0  0  0  0
  146.5813  133.0170  152.6004 H   0  0  0  0  0  0  0  0  0  0  0  0
  144.6742  134.5827  151.8163 H   0  0  0  0  0  0  0  0  0  0  0  0
  143.1320  133.8193  151.4712 H   0  0  0  0  0  0  0  0  0  0  0  0
  143.4655  132.7718  153.6091 H   0  0  0  0  0  0  0  0  0  0  0  0
  144.4465  132.9310  149.3914 H   0  0  0  0  0  0  0  0  0  0  0  0
  145.8375  131.7701  149.6916 H   0  0  0  0  0  0  0  0  0  0  0  0
  144.3244  130.3097  151.0524 H   0  0  0  0  0  0  0  0  0  0  0  0
  142.9339  131.4754  150.7621 H   0  0  0  0  0  0  0  0  0  0  0  0
  1  2  1  0  0  0  0
  1 21  1  0  0  0  0
  1 22  1  0  0  0  0
  1 23  1  0  0  0  0
  2 10  1  0  0  0  0
  2  3  1  0  0  0  0
  3  4  2  0  0  0  0
  4  5  1  0  0  0  0
  4  9  1  0  0  0  0
  5  8  1  0  0  0  0
  5  6  1  0  0  0  0
  5 24  1  0  0  0  0
  6  7  1  0  0  0  0
  6 25  1  0  0  0  0
  6 26  1  0  0  0  0
  7  8  1  0  0  0  0
  7 27  1  0  0  0  0
  7 28  1  0  0  0  0
  8 29  1  0  0  0  0
  8 30  1  0  0  0  0
  9 10  2  0  0  0  0
  9 31  1  0  0  0  0
 10 11  1  0  0  0  0
 11 12  1  0  0  0  0
 11 32  1  0  0  0  0
 12 13  2  0  0  0  0
 12 14  1  0  0  0  0
 14 15  1  0  0  0  0
 14 33  1  0  0  0  0
 15 16  1  0  0  0  0
 15 34  1  0  0  0  0
 15 35  1  0  0  0  0
 16 20  1  0  0  0  0
 16 17  1  0  0  0  0
 16 19  1  0  0  0  0
 17 18  1  0  0  0  0
 17 36  1  0  0  0  0
 17 37  1  0  0  0  0
 18 38  1  0  0  0  0
 19 20  1  0  0  0  0
 19 39  1  0  0  0  0
 19 40  1  0  0  0  0
 20 41  1  0  0  0  0
 20 42  1  0  0  0  0
M  END
> <s_m_source_file>
AV-unprocessed.smi

> <i_m_source_file_index>
902

> <i_lp_mmshare_version>
43012

> <i_f3d_flags>
0

> <s_epik_input>
W0NIMl0xW0NIMl1bQ0gyXVtDSF0xYyhubjJbQ0gzXSlbY0hdYzJbTkhdQyg9TylbTkhdW0NIMl1DMyhbQ0gyXVtPSF0pW0NIMl1bQ0gyXTM=

> <s_epik_cmdline>
J2VwaWtfcHl0aG9uJywgJy1waCcsICc3LjAnLCAnLXRuJywgJzgnLCAnLW1hJywgJzIwMCcsICctbWV0YWxfYmluZGluZycsICctaW1hZScsICc8aW5maWxlLm1hZT4nLCAnLW9tYWUnLCAnPG91dGZpbGUubWFlPic=

> <r_lp_tautomer_probability>
1

> <r_epik_Ionization_Penalty>
9.68756e-05

> <r_epik_Ionization_Penalty_Charging>
0

> <r_epik_Ionization_Penalty_Neutral>
9.68756e-05

> <r_epik_State_Penalty>
-0

> <r_epik_Charging_Adjusted_Penalty>
0

> <i_epik_Tot_Q>
0

> <i_epik_Tot_abs_Q>
0

> <r_epik_Metal_State_Penalty>
-0

> <b_epik_Metal_Only>
0

> <s_lp_Force_Field>
OPLS_2005

> <r_lp_Energy>
26.4992

> <b_lp_Chiralities_Consistent>
1

> <s_lp_Variant>
AV-unprocessed.smi:902-1

> <Gold.Version>
5.8.1

> <Gold.Id.Protein>
6NUR|6NUR_protein|mol2

> <Gold.PLP.Fitness>
45.7234

> <Gold.PLP.PLP>
-38.7580

> <Gold.PLP.part.hbond>
-3.7697

> <Gold.PLP.part.metal>
0.0000

> <Gold.PLP.part.buried>
-5.2002

> <Gold.PLP.part.nonpolar>
-30.6575

> <Gold.PLP.part.repulsive>
0.2843

> <Gold.PLP.ligand.clash>
0.0000

> <Gold.PLP.ligand.torsion>
1.3683

> <Gold.PLP.Chemscore.Hbond>
2.7897

> <Gold.PLP.Chemscore.CHOScore>
0.0000

> <Gold.PLP.Chemscore.Metal>
0.0000

> <Gold.Chemscore.Hbonds>
donor molecule, donor type, donor heavy atom, donor atom, acceptor molecule, acceptor atom, score
      L1  H    11    32       P1 10747  0.95
      L1  H    14    33       P1 10747  0.86
      L1  H    18    38       P1 10957  0.93

> <Gold.PLP.Chemscore.Internal.Correction>
1.3329

> <Gold.Rescore>
     Score         DG    S(hbond)    S(metal)    S(lipo)     H(rot)  DE(clash)    DE(int)     intcor
     12.61     -16.86       2.30        0.00      81.23       2.26       0.68       3.57       ----

> <Gold.Chemscore.Fitness>
12.6077

> <Gold.Chemscore.DG>
-16.8602

> <Gold.Chemscore.ZeroCoef>
-5.4800

> <Gold.Chemscore.Hbond>
2.2961

> <Gold.Chemscore.Metal>
0.0000

> <Gold.Chemscore.Lipo>
81.2255

> <Gold.Chemscore.Internal_Hbond>
0.0000

> <Gold.Chemscore.DEClash>
0.6810

> <Gold.Chemscore.DEInternal>
3.5714

> <Gold.Chemscore.Rot>
2.2626

> <Gold.Chemscore.Internal.Correction>
   9.000000E+99

> <Gold.Chemscore.Hbonds>
donor molecule, donor type, donor heavy atom, donor atom, acceptor molecule, acceptor atom, score
      L1  H    11    32       P1 10747  0.20
      L1  H    14    33       P1 10747  0.85
      L1  H    18    38       P1 10957  0.71

> <Gold.Chemscore.Hbond.Weighted>
-7.6690

> <Gold.Chemscore.Metal.Weighted>
-0.0000

> <Gold.Chemscore.Lipo.Weighted>
-9.5034

> <Gold.Chemscore.Internal_Hbond.Weighted>
0.0000

> <Gold.Chemscore.DEClash.Weighted>
0.6810

> <Gold.Chemscore.DEInternal.Weighted>
3.5714

> <Gold.Chemscore.Rot.Weighted>
5.7922

> <Gold.Chemscore.Internal.Correction.Weighted>
   9.000000E+99

> <Gold.Protein.RotatedTorsions>
[ 6907 6896 6895 6894 ] final  123.15 input  -60.11 | X-H torsion
[ 7974 7965 7964 7962 ] final  -44.70 input  175.53 | X-H torsion
[ 8008 7997 7996 7995 ] final  -27.30 input   59.86 | X-H torsion
[ 10167 10162 10161 10158 ] final   88.68 input  -65.29 | X-H torsion
[ 10718 10713 10712 10709 ] final  -28.08 input   66.30 | X-H torsion
[ 10763 10752 10751 10750 ] final  106.38 input  -60.55 | X-H torsion
[ 11005 11000 10999 10996 ] final -144.80 input  -57.11 | X-H torsion

> <Gold.Protein.ActiveResidues>
 VAL166  LYS551  ARG553  GLY616  TRP617  ASP618  TYR619  PRO620  LYS621  CYS622 
 ASP623  PHE694  ASN695  SER759  ASP760  ASP761  ALA762  ILE779  LEU786  VAL792 
 PHE793  MET794  SER795  GLU796  ALA797  LYS798  CYS799  TRP800  GLU811  SER814 

> <Gold.Protein.RotatedAtoms>
  152.4185  133.7077  159.6460 H   0  0  0  0  0  0  0  0  0  0  0  0  # atno 6907 bound_to 6896
  150.8061  133.8496  159.3210 H   0  0  0  0  0  0  0  0  0  0  0  0  # atno 6908 bound_to 6896
  151.6220  135.1033  160.0155 H   0  0  0  0  0  0  0  0  0  0  0  0  # atno 6909 bound_to 6896
  145.9894  140.7197  142.9324 H   0  0  0  0  0  0  0  0  0  0  0  0  # atno 7974 bound_to 7965
  154.4384  140.1876  156.0910 H   0  0  0  0  0  0  0  0  0  0  0  0  # atno 8008 bound_to 7997
  156.0366  140.3324  155.7171 H   0  0  0  0  0  0  0  0  0  0  0  0  # atno 8009 bound_to 7997
  155.5761  140.0617  157.2785 H   0  0  0  0  0  0  0  0  0  0  0  0  # atno 8010 bound_to 7997
  139.8648  144.6525  150.9017 H   0  0  0  0  0  0  0  0  0  0  0  0  # atno 10167 bound_to 10162
  156.4298  130.4443  149.7125 H   0  0  0  0  0  0  0  0  0  0  0  0  # atno 10718 bound_to 10713
  153.3923  135.3879  155.1931 H   0  0  0  0  0  0  0  0  0  0  0  0  # atno 10763 bound_to 10752
  154.8720  135.3751  154.4722 H   0  0  0  0  0  0  0  0  0  0  0  0  # atno 10764 bound_to 10752
  153.5210  135.7087  153.5793 H   0  0  0  0  0  0  0  0  0  0  0  0  # atno 10765 bound_to 10752
  140.7988  134.2882  157.4986 H   0  0  0  0  0  0  0  0  0  0  0  0  # atno 11005 bound_to 11000
  144.6884  140.3044  143.7258 LP  0  0  0  0  0  0  0  0  0  0  0  0  # atno 17320 bound_to 7965
  145.7652  139.1838  143.2244 LP  0  0  0  0  0  0  0  0  0  0  0  0  # atno 17321 bound_to 7965
  140.7770  143.3713  151.1643 LP  0  0  0  0  0  0  0  0  0  0  0  0  # atno 17342 bound_to 10162
  139.7339  143.9029  152.3028 LP  0  0  0  0  0  0  0  0  0  0  0  0  # atno 17343 bound_to 10162
  156.4033  130.7685  151.2694 LP  0  0  0  0  0  0  0  0  0  0  0  0  # atno 17370 bound_to 10713
  157.7508  131.0233  150.3830 LP  0  0  0  0  0  0  0  0  0  0  0  0  # atno 17371 bound_to 10713
  139.8723  134.9417  156.3805 LP  0  0  0  0  0  0  0  0  0  0  0  0  # atno 17394 bound_to 11000
  140.9316  133.7575  156.0032 LP  0  0  0  0  0  0  0  0  0  0  0  0  # atno 17395 bound_to 11000

$$$$
