AV-unprocessed.smi:148|AV-procd|sdf|1230|dock8
  -GOLD-   2262018433D 1   1.00000     0.00000
 Structure written by MMmdl.
 63 67  0  0  0  0  0  0  0  0  1 V2000
  146.4862  136.5327  152.2688 O   0  0  0  0  0  0  0  0  0  0  0  0
  145.4298  135.8848  152.9451 C   0  0  0  0  0  0  0  0  0  0  0  0
  145.5707  134.3412  152.8919 C   0  0  2  0  0  0  0  0  0  0  0  0
  146.7834  133.8552  153.7276 C   0  0  0  0  0  0  0  0  0  0  0  0
  146.6665  134.1420  155.1472 N   0  0  0  0  0  0  0  0  0  0  0  0
  145.5337  134.5467  155.8166 C   0  0  0  0  0  0  0  0  0  0  0  0
  145.6830  134.7324  157.0995 N   0  0  0  0  0  0  0  0  0  0  0  0
  147.0248  134.4520  157.3297 C   0  0  0  0  0  0  0  0  0  0  0  0
  147.8608  134.4529  158.4832 C   0  0  0  0  0  0  0  0  0  0  0  0
  147.4557  134.7563  159.7384 N   0  0  0  0  0  0  0  0  0  0  0  0
  148.0871  136.0067  160.1629 C   0  0  0  0  0  0  0  0  0  0  0  0
  147.4888  136.5266  161.4766 C   0  0  0  0  0  0  0  0  0  0  0  0
  147.5683  135.4488  162.5620 C   0  0  0  0  0  0  0  0  0  0  0  0
  146.8676  134.1740  162.0764 C   0  0  0  0  0  0  0  0  0  0  0  0
  147.4651  133.6691  160.7349 C   0  0  1  0  0  0  0  0  0  0  0  0
  146.7983  132.3508  160.2264 C   0  0  1  0  0  0  0  0  0  0  0  0
  147.0210  131.1456  161.1651 C   0  0  0  0  0  0  0  0  0  0  0  0
  145.6374  130.7391  161.6742 C   0  0  0  0  0  0  0  0  0  0  0  0
  144.7048  131.0988  160.5230 C   0  0  0  0  0  0  0  0  0  0  0  0
  145.2683  132.4199  159.9933 C   0  0  2  0  0  0  0  0  0  0  0  0
  144.9407  132.5871  158.6293 O   0  0  0  0  0  0  0  0  0  0  0  0
  149.1584  134.0913  158.3268 N   0  0  0  0  0  0  0  0  0  0  0  0
  149.6229  133.7725  157.1150 C   0  0  0  0  0  0  0  0  0  0  0  0
  148.9687  133.7383  155.9520 N   0  0  0  0  0  0  0  0  0  0  0  0
  147.6584  134.0826  156.1100 C   0  0  0  0  0  0  0  0  0  0  0  0
  145.6729  133.8115  151.4342 C   0  0  1  0  0  0  0  0  0  0  0  0
  145.7065  132.2975  151.3033 C   0  0  0  0  0  0  0  0  0  0  0  0
  145.3581  132.0870  149.8340 C   0  0  0  0  0  0  0  0  0  0  0  0
  144.4858  133.1560  149.4891 O   0  0  0  0  0  0  0  0  0  0  0  0
  144.4780  134.1298  150.5277 C   0  0  0  0  0  0  0  0  0  0  0  0
  147.2537  135.9827  152.3107 H   0  0  0  0  0  0  0  0  0  0  0  0
  145.3859  136.2348  153.9767 H   0  0  0  0  0  0  0  0  0  0  0  0
  144.5151  136.2232  152.4604 H   0  0  0  0  0  0  0  0  0  0  0  0
  144.6773  133.9104  153.3473 H   0  0  0  0  0  0  0  0  0  0  0  0
  146.9141  132.7775  153.6299 H   0  0  0  0  0  0  0  0  0  0  0  0
  147.7008  134.3137  153.3564 H   0  0  0  0  0  0  0  0  0  0  0  0
  144.5838  134.6899  155.3223 H   0  0  0  0  0  0  0  0  0  0  0  0
  149.1590  135.8435  160.2861 H   0  0  0  0  0  0  0  0  0  0  0  0
  147.9703  136.7676  159.3892 H   0  0  0  0  0  0  0  0  0  0  0  0
  148.0172  137.4243  161.7984 H   0  0  0  0  0  0  0  0  0  0  0  0
  146.4488  136.8155  161.3186 H   0  0  0  0  0  0  0  0  0  0  0  0
  148.6112  135.2329  162.7973 H   0  0  0  0  0  0  0  0  0  0  0  0
  147.1056  135.8060  163.4823 H   0  0  0  0  0  0  0  0  0  0  0  0
  146.9492  133.4138  162.8520 H   0  0  0  0  0  0  0  0  0  0  0  0
  145.8049  134.3882  161.9730 H   0  0  0  0  0  0  0  0  0  0  0  0
  148.5112  133.4385  160.9373 H   0  0  0  0  0  0  0  0  0  0  0  0
  147.2733  132.0627  159.2879 H   0  0  0  0  0  0  0  0  0  0  0  0
  147.4432  130.3194  160.5910 H   0  0  0  0  0  0  0  0  0  0  0  0
  147.7203  131.3432  161.9773 H   0  0  0  0  0  0  0  0  0  0  0  0
  145.5833  129.6845  161.9458 H   0  0  0  0  0  0  0  0  0  0  0  0
  145.3785  131.3262  162.5563 H   0  0  0  0  0  0  0  0  0  0  0  0
  144.7650  130.3235  159.7571 H   0  0  0  0  0  0  0  0  0  0  0  0
  143.6626  131.1809  160.8333 H   0  0  0  0  0  0  0  0  0  0  0  0
  144.8188  133.2407  160.5487 H   0  0  0  0  0  0  0  0  0  0  0  0
  145.5715  132.1116  158.1093 H   0  0  0  0  0  0  0  0  0  0  0  0
  150.6682  133.5042  157.0712 H   0  0  0  0  0  0  0  0  0  0  0  0
  146.5744  134.2133  150.9685 H   0  0  0  0  0  0  0  0  0  0  0  0
  146.6715  131.8610  151.5619 H   0  0  0  0  0  0  0  0  0  0  0  0
  144.9441  131.8431  151.9379 H   0  0  0  0  0  0  0  0  0  0  0  0
  146.2541  132.1587  149.2163 H   0  0  0  0  0  0  0  0  0  0  0  0
  144.8953  131.1173  149.6495 H   0  0  0  0  0  0  0  0  0  0  0  0
  143.5398  134.0332  151.0758 H   0  0  0  0  0  0  0  0  0  0  0  0
  144.5248  135.1363  150.1118 H   0  0  0  0  0  0  0  0  0  0  0  0
  1  2  1  0  0  0  0
  1 31  1  0  0  0  0
  2  3  1  0  0  0  0
  2 32  1  0  0  0  0
  2 33  1  0  0  0  0
  3  4  1  0  0  0  0
  3 26  1  0  0  0  0
  3 34  1  0  0  0  0
  4  5  1  0  0  0  0
  4 35  1  0  0  0  0
  4 36  1  0  0  0  0
  5 25  1  0  0  0  0
  5  6  1  0  0  0  0
  6  7  2  0  0  0  0
  6 37  1  0  0  0  0
  7  8  1  0  0  0  0
  8 25  2  0  0  0  0
  8  9  1  0  0  0  0
  9 10  1  0  0  0  0
  9 22  2  0  0  0  0
 10 15  1  0  0  0  0
 10 11  1  0  0  0  0
 11 12  1  0  0  0  0
 11 38  1  0  0  0  0
 11 39  1  0  0  0  0
 12 13  1  0  0  0  0
 12 40  1  0  0  0  0
 12 41  1  0  0  0  0
 13 14  1  0  0  0  0
 13 42  1  0  0  0  0
 13 43  1  0  0  0  0
 14 15  1  0  0  0  0
 14 44  1  0  0  0  0
 14 45  1  0  0  0  0
 15 16  1  0  0  0  0
 15 46  1  0  0  0  0
 16 20  1  0  0  0  0
 16 17  1  0  0  0  0
 16 47  1  0  0  0  0
 17 18  1  0  0  0  0
 17 48  1  0  0  0  0
 17 49  1  0  0  0  0
 18 19  1  0  0  0  0
 18 50  1  0  0  0  0
 18 51  1  0  0  0  0
 19 20  1  0  0  0  0
 19 52  1  0  0  0  0
 19 53  1  0  0  0  0
 20 21  1  0  0  0  0
 20 54  1  0  0  0  0
 21 55  1  0  0  0  0
 22 23  1  0  0  0  0
 23 24  2  0  0  0  0
 23 56  1  0  0  0  0
 24 25  1  0  0  0  0
 26 30  1  0  0  0  0
 26 27  1  0  0  0  0
 26 57  1  0  0  0  0
 27 28  1  0  0  0  0
 27 58  1  0  0  0  0
 27 59  1  0  0  0  0
 28 29  1  0  0  0  0
 28 60  1  0  0  0  0
 28 61  1  0  0  0  0
 29 30  1  0  0  0  0
 30 62  1  0  0  0  0
 30 63  1  0  0  0  0
M  END
> <s_m_source_file>
AV-unprocessed.smi

> <i_m_source_file_index>
148

> <i_lp_mmshare_version>
43012

> <i_f3d_flags>
0

> <s_epik_input>
W0NIMl0xT1tDSDJdW0NIMl1bQ0BIXTFbQ0BIXShbQ0gyXVtPSF0pW0NIMl1uKFtjSF1uMiljKGMyMyluW2NIXW5jM040W0NIMl1bQ0gyXVtDSDJdW0NIMl1bQ0BIXTRbQ0BASF01W0NIMl1bQ0gyXVtDSDJdW0NASF01W09IXQ==

> <s_epik_cmdline>
J2VwaWtfcHl0aG9uJywgJy1waCcsICc3LjAnLCAnLXRuJywgJzgnLCAnLW1hJywgJzIwMCcsICctbWV0YWxfYmluZGluZycsICctaW1hZScsICc8aW5maWxlLm1hZT4nLCAnLW9tYWUnLCAnPG91dGZpbGUubWFlPic=

> <r_lp_tautomer_probability>
1

> <r_epik_Ionization_Penalty>
0.00556303

> <r_epik_Ionization_Penalty_Charging>
0

> <r_epik_Ionization_Penalty_Neutral>
0.00556303

> <r_epik_State_Penalty>
0.00401767

> <r_epik_Charging_Adjusted_Penalty>
0.00401767

> <i_epik_Tot_Q>
0

> <i_epik_Tot_abs_Q>
0

> <r_epik_Metal_State_Penalty>
-0

> <b_epik_Metal_Only>
0

> <s_lp_Force_Field>
OPLS_2005

> <r_lp_Energy>
68.4818

> <b_lp_Chiralities_Consistent>
1

> <s_lp_Variant>
AV-unprocessed.smi:148-29

> <Gold.Version>
5.8.1

> <Gold.Id.Protein>
6NUR|6NUR_protein|mol2

> <Gold.PLP.Fitness>
42.1500

> <Gold.PLP.PLP>
-36.7081

> <Gold.PLP.part.hbond>
-2.0000

> <Gold.PLP.part.metal>
0.0000

> <Gold.PLP.part.buried>
-6.4264

> <Gold.PLP.part.nonpolar>
-29.2867

> <Gold.PLP.part.repulsive>
0.6872

> <Gold.PLP.ligand.clash>
0.0000

> <Gold.PLP.ligand.torsion>
0.3564

> <Gold.PLP.Chemscore.Hbond>
1.9120

> <Gold.PLP.Chemscore.CHOScore>
0.0000

> <Gold.PLP.Chemscore.Metal>
0.0000

> <Gold.Chemscore.Hbonds>
donor molecule, donor type, donor heavy atom, donor atom, acceptor molecule, acceptor atom, score
      L1  H     1    31       P1  7948  0.67
      P1  H  6896  6907       L1    22  1.00

> <Gold.PLP.Chemscore.Internal.Correction>
0.4187

> <Gold.Rescore>
     Score         DG    S(hbond)    S(metal)    S(lipo)     H(rot)  DE(clash)    DE(int)     intcor
     13.52     -13.95       1.70        0.00      96.64       3.32       0.01       0.42       ----

> <Gold.Chemscore.Fitness>
13.5198

> <Gold.Chemscore.DG>
-13.9515

> <Gold.Chemscore.ZeroCoef>
-5.4800

> <Gold.Chemscore.Hbond>
1.6960

> <Gold.Chemscore.Metal>
0.0000

> <Gold.Chemscore.Lipo>
96.6407

> <Gold.Chemscore.Internal_Hbond>
0.0000

> <Gold.Chemscore.DEClash>
0.0077

> <Gold.Chemscore.DEInternal>
0.4240

> <Gold.Chemscore.Rot>
3.3203

> <Gold.Chemscore.Internal.Correction>
   9.000000E+99

> <Gold.Chemscore.Hbonds>
donor molecule, donor type, donor heavy atom, donor atom, acceptor molecule, acceptor atom, score
      L1  H     1    31       P1  7948  0.66
      P1  H  6896  6907       L1    22  0.50

> <Gold.Chemscore.Hbond.Weighted>
-5.6646

> <Gold.Chemscore.Metal.Weighted>
-0.0000

> <Gold.Chemscore.Lipo.Weighted>
-11.3070

> <Gold.Chemscore.Internal_Hbond.Weighted>
0.0000

> <Gold.Chemscore.DEClash.Weighted>
0.0077

> <Gold.Chemscore.DEInternal.Weighted>
0.4240

> <Gold.Chemscore.Rot.Weighted>
8.5000

> <Gold.Chemscore.Internal.Correction.Weighted>
   9.000000E+99

> <Gold.Protein.RotatedTorsions>
[ 6907 6896 6895 6894 ] final  -94.63 input  -60.11 | X-H torsion
[ 7974 7965 7964 7962 ] final -135.02 input  175.53 | X-H torsion
[ 8008 7997 7996 7995 ] final   10.73 input   59.86 | X-H torsion
[ 10167 10162 10161 10158 ] final   -1.48 input  -65.29 | X-H torsion
[ 10718 10713 10712 10709 ] final  -76.01 input   66.30 | X-H torsion
[ 10763 10752 10751 10750 ] final -152.96 input  -60.55 | X-H torsion
[ 11005 11000 10999 10996 ] final -106.94 input  -57.11 | X-H torsion

> <Gold.Protein.ActiveResidues>
 VAL166  LYS551  ARG553  GLY616  TRP617  ASP618  TYR619  PRO620  LYS621  CYS622 
 ASP623  PHE694  ASN695  SER759  ASP760  ASP761  ALA762  ILE779  LEU786  VAL792 
 PHE793  MET794  SER795  GLU796  ALA797  LYS798  CYS799  TRP800  GLU811  SER814 

> <Gold.Protein.RotatedAtoms>
  150.6946  134.1783  159.4238 H   0  0  0  0  0  0  0  0  0  0  0  0  # atno 6907 bound_to 6896
  151.9759  135.0051  160.0564 H   0  0  0  0  0  0  0  0  0  0  0  0  # atno 6908 bound_to 6896
  152.1800  133.4665  159.4990 H   0  0  0  0  0  0  0  0  0  0  0  0  # atno 6909 bound_to 6896
  144.9051  140.6822  143.5060 H   0  0  0  0  0  0  0  0  0  0  0  0  # atno 7974 bound_to 7965
  154.7974  140.2846  155.5947 H   0  0  0  0  0  0  0  0  0  0  0  0  # atno 8008 bound_to 7997
  156.2972  140.2593  156.2763 H   0  0  0  0  0  0  0  0  0  0  0  0  # atno 8009 bound_to 7997
  154.9599  140.0378  157.2174 H   0  0  0  0  0  0  0  0  0  0  0  0  # atno 8010 bound_to 7997
  140.6812  143.6770  150.8137 H   0  0  0  0  0  0  0  0  0  0  0  0  # atno 10167 bound_to 10162
  156.0189  130.4455  150.3129 H   0  0  0  0  0  0  0  0  0  0  0  0  # atno 10718 bound_to 10713
  154.7960  135.3224  154.7666 H   0  0  0  0  0  0  0  0  0  0  0  0  # atno 10763 bound_to 10752
  153.8344  135.6876  153.4815 H   0  0  0  0  0  0  0  0  0  0  0  0  # atno 10764 bound_to 10752
  153.1651  135.4645  154.9768 H   0  0  0  0  0  0  0  0  0  0  0  0  # atno 10765 bound_to 10752
  141.0979  133.8937  157.1916 H   0  0  0  0  0  0  0  0  0  0  0  0  # atno 11005 bound_to 11000
  145.3549  139.1696  143.4414 LP  0  0  0  0  0  0  0  0  0  0  0  0  # atno 17320 bound_to 7965
  146.3129  140.3605  142.8664 LP  0  0  0  0  0  0  0  0  0  0  0  0  # atno 17321 bound_to 7965
  140.0471  143.5287  152.2691 LP  0  0  0  0  0  0  0  0  0  0  0  0  # atno 17342 bound_to 10162
  139.6136  144.7614  151.2897 LP  0  0  0  0  0  0  0  0  0  0  0  0  # atno 17343 bound_to 10162
  157.1230  131.0252  151.3001 LP  0  0  0  0  0  0  0  0  0  0  0  0  # atno 17370 bound_to 10713
  157.4612  130.7654  149.7238 LP  0  0  0  0  0  0  0  0  0  0  0  0  # atno 17371 bound_to 10713
  139.9821  135.0094  156.9776 LP  0  0  0  0  0  0  0  0  0  0  0  0  # atno 17394 bound_to 11000
  140.5094  134.1017  155.7267 LP  0  0  0  0  0  0  0  0  0  0  0  0  # atno 17395 bound_to 11000

$$$$
