AV-unprocessed.smi:948|AV-procd|sdf|4240|dock1
  -GOLD-   22720 2153D 1   1.00000     0.00000
 Structure written by MMmdl.
 18 18  0  0  0  0  0  0  0  0  2 V2000
  142.1649  132.5918  148.0761 N   0  3  0  0  0  0  0  0  0  0  0  0
  143.5586  132.7334  148.5299 C   0  0  0  0  0  0  0  0  0  0  0  0
  143.6497  132.7521  150.0619 C   0  0  0  0  0  0  0  0  0  0  0  0
  145.0683  132.7483  150.5429 C   0  0  0  0  0  0  0  0  0  0  0  0
  146.0507  131.8066  150.3244 C   0  0  0  0  0  0  0  0  0  0  0  0
  147.1712  132.2809  150.9841 N   0  0  0  0  0  0  0  0  0  0  0  0
  146.8351  133.4428  151.5511 C   0  0  0  0  0  0  0  0  0  0  0  0
  145.5735  133.7903  151.3252 N   0  0  0  0  0  0  0  0  0  0  0  0
  148.0751  131.8320  151.0306 H   0  0  0  0  0  0  0  0  0  0  0  0
  141.7964  131.7060  148.3921 H   0  0  0  0  0  0  0  0  0  0  0  0
  142.1334  132.6275  147.0671 H   0  0  0  0  0  0  0  0  0  0  0  0
  144.1448  131.9073  148.1258 H   0  0  0  0  0  0  0  0  0  0  0  0
  143.9687  133.6538  148.1128 H   0  0  0  0  0  0  0  0  0  0  0  0
  143.1334  133.6319  150.4485 H   0  0  0  0  0  0  0  0  0  0  0  0
  143.1197  131.8899  150.4688 H   0  0  0  0  0  0  0  0  0  0  0  0
  146.0469  130.8751  149.7776 H   0  0  0  0  0  0  0  0  0  0  0  0
  147.5203  134.0395  152.1352 H   0  0  0  0  0  0  0  0  0  0  0  0
  141.6073  133.3429  148.4568 H   0  0  0  0  0  0  0  0  0  0  0  0
  1  2  1  0  0  0  0
  1 10  1  0  0  0  0
  1 11  1  0  0  0  0
  1 18  1  0  0  0  0
  2  3  1  0  0  0  0
  2 12  1  0  0  0  0
  2 13  1  0  0  0  0
  3  4  1  0  0  0  0
  3 14  1  0  0  0  0
  3 15  1  0  0  0  0
  4  8  1  0  0  0  0
  4  5  2  0  0  0  0
  5  6  1  0  0  0  0
  5 16  1  0  0  0  0
  6  9  1  0  0  0  0
  6  7  1  0  0  0  0
  7  8  2  0  0  0  0
  7 17  1  0  0  0  0
M  CHG  1   1   1
M  END
> <s_m_source_file>
AV-unprocessed.smi

> <i_m_source_file_index>
948

> <i_lp_mmshare_version>
43012

> <i_f3d_flags>
0

> <s_epik_input>
W05IMl1bQ0gyXVtDSDJdYzFbY0hdW25IXVtjSF1uMQ==

> <s_epik_cmdline>
J2VwaWtfcHl0aG9uJywgJy1waCcsICc3LjAnLCAnLXRuJywgJzgnLCAnLW1hJywgJzIwMCcsICctbWV0YWxfYmluZGluZycsICctaW1hZScsICc8aW5maWxlLm1hZT4nLCAnLW9tYWUnLCAnPG91dGZpbGUubWFlPic=

> <r_lp_tautomer_probability>
0.5

> <r_epik_Ionization_Penalty>
0.0855475

> <r_epik_Ionization_Penalty_Charging>
0.085547

> <r_epik_Ionization_Penalty_Neutral>
5.68955e-07

> <r_epik_State_Penalty>
0.507598

> <r_epik_Charging_Adjusted_Penalty>
0.593145

> <i_epik_Tot_Q>
1

> <i_epik_Tot_abs_Q>
1

> <r_epik_Metal_State_Penalty>
0.442189

> <b_epik_Metal_Only>
0

> <s_lp_Force_Field>
OPLS_2005

> <r_lp_Energy>
1.58709

> <b_lp_Chiralities_Consistent>
1

> <s_lp_Variant>
AV-unprocessed.smi:948-2

> <Gold.Version>
5.8.1

> <Gold.Id.Protein>
6NUR|6NUR_protein|mol2

> <Gold.PLP.Fitness>
37.7149

> <Gold.PLP.PLP>
-20.2258

> <Gold.PLP.part.hbond>
-3.7087

> <Gold.PLP.part.metal>
0.0000

> <Gold.PLP.part.buried>
-2.4002

> <Gold.PLP.part.nonpolar>
-14.6866

> <Gold.PLP.part.repulsive>
0.4214

> <Gold.PLP.ligand.clash>
0.0000

> <Gold.PLP.ligand.torsion>
0.0092

> <Gold.PLP.Chemscore.Hbond>
4.7840

> <Gold.PLP.Chemscore.CHOScore>
1.0518

> <Gold.PLP.Chemscore.Metal>
0.0000

> <Gold.Chemscore.Hbonds>
donor molecule, donor type, donor heavy atom, donor atom, acceptor molecule, acceptor atom, score
      L1  H     1    10       P1 10952  1.00
      L1  H     1    11       P1 10195  1.00
      L1  H     1    18       P1 10186  2.00
      L1  H     6     9       P1 10747  0.84
      L1  C     7    17       P1  7948  0.88

> <Gold.PLP.Chemscore.Internal.Correction>
0.0000

> <Gold.Rescore>
     Score         DG    S(hbond)    S(metal)    S(lipo)     H(rot)  DE(clash)    DE(int)     intcor
     19.71     -19.86       3.86        0.00      45.70       1.51       0.12       0.04       ----

> <Gold.Chemscore.Fitness>
19.7068

> <Gold.Chemscore.DG>
-19.8623

> <Gold.Chemscore.ZeroCoef>
-5.4800

> <Gold.Chemscore.Hbond>
3.8648

> <Gold.Chemscore.Metal>
0.0000

> <Gold.Chemscore.Lipo>
45.6957

> <Gold.Chemscore.Internal_Hbond>
0.0000

> <Gold.Chemscore.DEClash>
0.1200

> <Gold.Chemscore.DEInternal>
0.0355

> <Gold.Chemscore.Rot>
1.5127

> <Gold.Chemscore.Internal.Correction>
   9.000000E+99

> <Gold.Chemscore.Hbonds>
donor molecule, donor type, donor heavy atom, donor atom, acceptor molecule, acceptor atom, score
      L1  H     1    10       P1 10952  0.94
      L1  H     1    11       P1 10195  0.99
      L1  H     1    18       P1 10186  0.99
      L1  H     6     9       P1 10747  0.77

> <Gold.Chemscore.Hbond.Weighted>
-12.9085

> <Gold.Chemscore.Metal.Weighted>
-0.0000

> <Gold.Chemscore.Lipo.Weighted>
-5.3464

> <Gold.Chemscore.Internal_Hbond.Weighted>
0.0000

> <Gold.Chemscore.DEClash.Weighted>
0.1200

> <Gold.Chemscore.DEInternal.Weighted>
0.0355

> <Gold.Chemscore.Rot.Weighted>
3.8726

> <Gold.Chemscore.Internal.Correction.Weighted>
   9.000000E+99

> <Gold.Protein.RotatedTorsions>
[ 6907 6896 6895 6894 ] final -119.76 input  -60.11 | X-H torsion
[ 7974 7965 7964 7962 ] final   90.04 input  175.53 | X-H torsion
[ 8008 7997 7996 7995 ] final   70.86 input   59.86 | X-H torsion
[ 10167 10162 10161 10158 ] final   16.13 input  -65.29 | X-H torsion
[ 10718 10713 10712 10709 ] final -149.43 input   66.30 | X-H torsion
[ 10763 10752 10751 10750 ] final  -75.77 input  -60.55 | X-H torsion
[ 11005 11000 10999 10996 ] final   17.61 input  -57.11 | X-H torsion

> <Gold.Protein.ActiveResidues>
 VAL166  LYS551  ARG553  GLY616  TRP617  ASP618  TYR619  PRO620  LYS621  CYS622 
 ASP623  PHE694  ASN695  SER759  ASP760  ASP761  ALA762  ILE779  LEU786  VAL792 
 PHE793  MET794  SER795  GLU796  ALA797  LYS798  CYS799  TRP800  GLU811  SER814 

> <Gold.Protein.RotatedAtoms>
  150.8333  133.8054  159.3089 H   0  0  0  0  0  0  0  0  0  0  0  0  # atno 6907 bound_to 6896
  151.5778  135.1058  160.0019 H   0  0  0  0  0  0  0  0  0  0  0  0  # atno 6908 bound_to 6896
  152.4410  133.7406  159.6695 H   0  0  0  0  0  0  0  0  0  0  0  0  # atno 6909 bound_to 6896
  145.5243  139.2280  143.2654 H   0  0  0  0  0  0  0  0  0  0  0  0  # atno 7974 bound_to 7965
  155.7452  140.3489  155.5123 H   0  0  0  0  0  0  0  0  0  0  0  0  # atno 8008 bound_to 7997
  155.9057  140.1041  157.1338 H   0  0  0  0  0  0  0  0  0  0  0  0  # atno 8009 bound_to 7997
  154.4049  140.1277  156.4479 H   0  0  0  0  0  0  0  0  0  0  0  0  # atno 8010 bound_to 7997
  140.5819  143.8964  150.6797 H   0  0  0  0  0  0  0  0  0  0  0  0  # atno 10167 bound_to 10162
  156.4331  130.8085  151.2313 H   0  0  0  0  0  0  0  0  0  0  0  0  # atno 10718 bound_to 10713
  154.4910  135.5820  153.6459 H   0  0  0  0  0  0  0  0  0  0  0  0  # atno 10763 bound_to 10752
  152.9862  135.6112  154.3125 H   0  0  0  0  0  0  0  0  0  0  0  0  # atno 10764 bound_to 10752
  154.3025  135.2846  155.2584 H   0  0  0  0  0  0  0  0  0  0  0  0  # atno 10765 bound_to 10752
  140.4340  134.1390  155.7683 H   0  0  0  0  0  0  0  0  0  0  0  0  # atno 11005 bound_to 11000
  146.2086  140.6056  142.9070 LP  0  0  0  0  0  0  0  0  0  0  0  0  # atno 17320 bound_to 7965
  144.7659  140.5530  143.6703 LP  0  0  0  0  0  0  0  0  0  0  0  0  # atno 17321 bound_to 7965
  140.2466  143.3624  152.1442 LP  0  0  0  0  0  0  0  0  0  0  0  0  # atno 17342 bound_to 10162
  139.5175  144.6992  151.5542 LP  0  0  0  0  0  0  0  0  0  0  0  0  # atno 17343 bound_to 10162
  157.7508  131.0192  150.3657 LP  0  0  0  0  0  0  0  0  0  0  0  0  # atno 17370 bound_to 10713
  156.3999  130.3914  149.6967 LP  0  0  0  0  0  0  0  0  0  0  0  0  # atno 17371 bound_to 10713
  141.1733  133.8564  157.1500 LP  0  0  0  0  0  0  0  0  0  0  0  0  # atno 17394 bound_to 11000
  140.0115  134.9986  157.0404 LP  0  0  0  0  0  0  0  0  0  0  0  0  # atno 17395 bound_to 11000

$$$$
