AV-unprocessed.smi:1106|AV-procd|sdf|4778|dock8
  -GOLD-   22720 3323D 1   1.00000     0.00000
 Structure written by MMmdl.
 48 49  0  0  0  0  0  0  0  0  2 V2000
  152.6643  144.5430  158.0484 C   0  0  0  0  0  0  0  0  0  0  0  0
  152.2727  143.9185  159.3958 C   0  0  0  0  0  0  0  0  0  0  0  0
  152.5636  142.5104  159.4675 N   0  0  0  0  0  0  0  0  0  0  0  0
  153.4854  142.0048  160.3636 C   0  0  0  0  0  0  0  0  0  0  0  0
  153.7793  140.6894  160.4483 C   0  0  0  0  0  0  0  0  0  0  0  0
  154.7290  140.1921  161.3879 C   0  0  0  0  0  0  0  0  0  0  0  0
  155.5107  139.7764  162.1329 N   0  0  0  0  0  0  0  0  0  0  0  0
  153.1297  139.7124  159.5771 C   0  0  0  0  0  0  0  0  0  0  0  0
  153.3400  138.4987  159.6329 O   0  0  0  0  0  0  0  0  0  0  0  0
  152.2078  140.2683  158.6543 N   0  0  0  0  0  0  0  0  0  0  0  0
  151.5122  139.3536  157.7632 C   0  0  0  0  0  0  0  0  0  0  0  0
  151.8629  139.5705  156.2748 C   0  0  1  0  0  0  0  0  0  0  0  0
  153.0899  138.9218  156.0032 O   0  0  0  0  0  0  0  0  0  0  0  0
  150.8043  138.9414  155.3476 C   0  0  0  0  0  0  0  0  0  0  0  0
  149.5503  139.7358  155.3131 N   0  3  2  0  0  0  0  0  0  0  0  0
  148.5728  139.2412  154.3081 C   0  0  0  0  0  0  0  0  0  0  0  0
  147.2391  139.9992  154.4138 C   0  0  0  0  0  0  0  0  0  0  0  0
  147.4450  141.5164  154.2643 C   0  0  1  0  0  0  0  0  0  0  0  0
  146.1229  142.2847  154.4010 C   0  0  0  0  0  0  0  0  0  0  0  0
  148.4901  141.9903  155.2887 C   0  0  0  0  0  0  0  0  0  0  0  0
  149.7986  141.1919  155.1622 C   0  0  0  0  0  0  0  0  0  0  0  0
  151.8880  141.6450  158.5755 C   0  0  0  0  0  0  0  0  0  0  0  0
  151.0539  142.0740  157.7736 O   0  0  0  0  0  0  0  0  0  0  0  0
  152.4647  145.6144  158.0492 H   0  0  0  0  0  0  0  0  0  0  0  0
  152.1032  144.1045  157.2229 H   0  0  0  0  0  0  0  0  0  0  0  0
  153.7260  144.4029  157.8438 H   0  0  0  0  0  0  0  0  0  0  0  0
  152.8309  144.3818  160.2105 H   0  0  0  0  0  0  0  0  0  0  0  0
  151.2144  144.0496  159.6287 H   0  0  0  0  0  0  0  0  0  0  0  0
  153.9919  142.6904  161.0281 H   0  0  0  0  0  0  0  0  0  0  0  0
  151.6889  138.3281  158.0928 H   0  0  0  0  0  0  0  0  0  0  0  0
  150.4469  139.5076  157.9437 H   0  0  0  0  0  0  0  0  0  0  0  0
  151.9657  140.6348  156.0648 H   0  0  0  0  0  0  0  0  0  0  0  0
  153.1024  138.0942  156.4607 H   0  0  0  0  0  0  0  0  0  0  0  0
  151.2267  138.8568  154.3448 H   0  0  0  0  0  0  0  0  0  0  0  0
  150.5719  137.9227  155.6623 H   0  0  0  0  0  0  0  0  0  0  0  0
  148.9893  139.3572  153.3063 H   0  0  0  0  0  0  0  0  0  0  0  0
  148.3890  138.1766  154.4494 H   0  0  0  0  0  0  0  0  0  0  0  0
  146.5520  139.6385  153.6477 H   0  0  0  0  0  0  0  0  0  0  0  0
  146.7722  139.7801  155.3753 H   0  0  0  0  0  0  0  0  0  0  0  0
  147.8381  141.7097  153.2651 H   0  0  0  0  0  0  0  0  0  0  0  0
  145.6724  142.1297  155.3817 H   0  0  0  0  0  0  0  0  0  0  0  0
  145.4023  141.9616  153.6492 H   0  0  0  0  0  0  0  0  0  0  0  0
  146.2755  143.3566  154.2704 H   0  0  0  0  0  0  0  0  0  0  0  0
  148.6949  143.0526  155.1516 H   0  0  0  0  0  0  0  0  0  0  0  0
  148.0943  141.8808  156.2995 H   0  0  0  0  0  0  0  0  0  0  0  0
  150.4958  141.5291  155.9304 H   0  0  0  0  0  0  0  0  0  0  0  0
  150.2697  141.3852  154.1971 H   0  0  0  0  0  0  0  0  0  0  0  0
  149.1256  139.6205  156.2227 H   0  0  0  0  0  0  0  0  0  0  0  0
  1  2  1  0  0  0  0
  1 24  1  0  0  0  0
  1 25  1  0  0  0  0
  1 26  1  0  0  0  0
  2  3  1  0  0  0  0
  2 27  1  0  0  0  0
  2 28  1  0  0  0  0
  3 22  1  0  0  0  0
  3  4  1  0  0  0  0
  4  5  2  0  0  0  0
  4 29  1  0  0  0  0
  5  6  1  0  0  0  0
  5  8  1  0  0  0  0
  6  7  3  0  0  0  0
  8  9  2  0  0  0  0
  8 10  1  0  0  0  0
 10 11  1  0  0  0  0
 10 22  1  0  0  0  0
 11 12  1  0  0  0  0
 11 30  1  0  0  0  0
 11 31  1  0  0  0  0
 12 13  1  0  0  0  0
 12 14  1  0  0  0  0
 12 32  1  0  0  0  0
 13 33  1  0  0  0  0
 14 15  1  0  0  0  0
 14 34  1  0  0  0  0
 14 35  1  0  0  0  0
 15 21  1  0  0  0  0
 15 16  1  0  0  0  0
 15 48  1  0  0  0  0
 16 17  1  0  0  0  0
 16 36  1  0  0  0  0
 16 37  1  0  0  0  0
 17 18  1  0  0  0  0
 17 38  1  0  0  0  0
 17 39  1  0  0  0  0
 18 19  1  0  0  0  0
 18 20  1  0  0  0  0
 18 40  1  0  0  0  0
 19 41  1  0  0  0  0
 19 42  1  0  0  0  0
 19 43  1  0  0  0  0
 20 21  1  0  0  0  0
 20 44  1  0  0  0  0
 20 45  1  0  0  0  0
 21 46  1  0  0  0  0
 21 47  1  0  0  0  0
 22 23  2  0  0  0  0
M  CHG  1  15   1
M  END
> <s_m_source_file>
AV-unprocessed.smi

> <i_m_source_file_index>
1106

> <i_lp_mmshare_version>
43012

> <i_f3d_flags>
0

> <s_epik_input>
W0NIM11bQ0gyXW4xW2NIXWMoQyNOKWMoPU8pbihjMT1PKVtDSDJdW0NASF0oW09IXSlbQ0gyXU4yW0NIMl1bQ0gyXVtDSF0oW0NIM10pW0NIMl1bQ0gyXTI=

> <s_epik_cmdline>
J2VwaWtfcHl0aG9uJywgJy1waCcsICc3LjAnLCAnLXRuJywgJzgnLCAnLW1hJywgJzIwMCcsICctbWV0YWxfYmluZGluZycsICctaW1hZScsICc8aW5maWxlLm1hZT4nLCAnLW9tYWUnLCAnPG91dGZpbGUubWFlPic=

> <r_epik_Ionization_Penalty>
0.00136816

> <r_epik_Ionization_Penalty_Charging>
0.00136813

> <r_epik_Ionization_Penalty_Neutral>
3.19882e-08

> <r_epik_State_Penalty>
0.000910892

> <r_epik_Charging_Adjusted_Penalty>
0.00227902

> <i_epik_Tot_Q>
1

> <i_epik_Tot_abs_Q>
1

> <r_epik_Metal_State_Penalty>
-0

> <b_epik_Metal_Only>
0

> <s_lp_Force_Field>
OPLS_2005

> <r_lp_Energy>
28.6797

> <b_lp_Chiralities_Consistent>
1

> <s_lp_Variant>
AV-unprocessed.smi:1106-2

> <Gold.Version>
5.8.1

> <Gold.Id.Protein>
6NUR|6NUR_protein|mol2

> <Gold.PLP.Fitness>
51.9506

> <Gold.PLP.PLP>
-49.6477

> <Gold.PLP.part.hbond>
-1.0000

> <Gold.PLP.part.metal>
0.0000

> <Gold.PLP.part.buried>
-2.5316

> <Gold.PLP.part.nonpolar>
-46.1388

> <Gold.PLP.part.repulsive>
0.1479

> <Gold.PLP.ligand.clash>
0.0000

> <Gold.PLP.ligand.torsion>
0.3860

> <Gold.PLP.Chemscore.Hbond>
1.0000

> <Gold.PLP.Chemscore.CHOScore>
0.0000

> <Gold.PLP.Chemscore.Metal>
0.0000

> <Gold.Chemscore.Hbonds>
donor molecule, donor type, donor heavy atom, donor atom, acceptor molecule, acceptor atom, score
      P1  H  7997  8009       L1    13  0.98

> <Gold.PLP.Chemscore.Internal.Correction>
0.0750

> <Gold.Rescore>
     Score         DG    S(hbond)    S(metal)    S(lipo)     H(rot)  DE(clash)    DE(int)     intcor
     12.75     -13.63       0.87        0.00      99.28       2.48       0.50       0.38       ----

> <Gold.Chemscore.Fitness>
12.7527

> <Gold.Chemscore.DG>
-13.6311

> <Gold.Chemscore.ZeroCoef>
-5.4800

> <Gold.Chemscore.Hbond>
0.8664

> <Gold.Chemscore.Metal>
0.0000

> <Gold.Chemscore.Lipo>
99.2803

> <Gold.Chemscore.Internal_Hbond>
0.0000

> <Gold.Chemscore.DEClash>
0.5014

> <Gold.Chemscore.DEInternal>
0.3771

> <Gold.Chemscore.Rot>
2.4838

> <Gold.Chemscore.Internal.Correction>
   9.000000E+99

> <Gold.Chemscore.Hbonds>
donor molecule, donor type, donor heavy atom, donor atom, acceptor molecule, acceptor atom, score
      P1  H  7997  8009       L1    13  0.65

> <Gold.Chemscore.Hbond.Weighted>
-2.8938

> <Gold.Chemscore.Metal.Weighted>
-0.0000

> <Gold.Chemscore.Lipo.Weighted>
-11.6158

> <Gold.Chemscore.Internal_Hbond.Weighted>
0.0000

> <Gold.Chemscore.DEClash.Weighted>
0.5014

> <Gold.Chemscore.DEInternal.Weighted>
0.3771

> <Gold.Chemscore.Rot.Weighted>
6.3585

> <Gold.Chemscore.Internal.Correction.Weighted>
   9.000000E+99

> <Gold.Protein.RotatedTorsions>
[ 6907 6896 6895 6894 ] final  -75.01 input  -60.11 | X-H torsion
[ 7974 7965 7964 7962 ] final  160.93 input  175.53 | X-H torsion
[ 8008 7997 7996 7995 ] final -142.49 input   59.86 | X-H torsion
[ 10167 10162 10161 10158 ] final -149.15 input  -65.29 | X-H torsion
[ 10718 10713 10712 10709 ] final   55.14 input   66.30 | X-H torsion
[ 10763 10752 10751 10750 ] final -150.41 input  -60.55 | X-H torsion
[ 11005 11000 10999 10996 ] final -172.34 input  -57.11 | X-H torsion

> <Gold.Protein.ActiveResidues>
 VAL166  LYS551  ARG553  GLY616  TRP617  ASP618  TYR619  PRO620  LYS621  CYS622 
 ASP623  PHE694  ASN695  SER759  ASP760  ASP761  ALA762  ILE779  LEU786  VAL792 
 PHE793  MET794  SER795  GLU796  ALA797  LYS798  CYS799  TRP800  GLU811  SER814 

> <Gold.Protein.RotatedAtoms>
  150.7073  134.4784  159.5458 H   0  0  0  0  0  0  0  0  0  0  0  0  # atno 6907 bound_to 6896
  152.2426  134.8210  160.0467 H   0  0  0  0  0  0  0  0  0  0  0  0  # atno 6908 bound_to 6896
  151.8986  133.3497  159.3860 H   0  0  0  0  0  0  0  0  0  0  0  0  # atno 6909 bound_to 6896
  144.7711  139.7827  143.6296 H   0  0  0  0  0  0  0  0  0  0  0  0  # atno 7974 bound_to 7965
  155.4951  140.0571  157.2948 H   0  0  0  0  0  0  0  0  0  0  0  0  # atno 8008 bound_to 7997
  154.4608  140.1995  156.0201 H   0  0  0  0  0  0  0  0  0  0  0  0  # atno 8009 bound_to 7997
  156.0886  140.3236  155.7791 H   0  0  0  0  0  0  0  0  0  0  0  0  # atno 8010 bound_to 7997
  139.7468  143.8578  152.2576 H   0  0  0  0  0  0  0  0  0  0  0  0  # atno 10167 bound_to 10162
  157.5319  130.8636  149.8699 H   0  0  0  0  0  0  0  0  0  0  0  0  # atno 10718 bound_to 10713
  154.8120  135.3285  154.7278 H   0  0  0  0  0  0  0  0  0  0  0  0  # atno 10763 bound_to 10752
  153.7926  135.6910  153.4873 H   0  0  0  0  0  0  0  0  0  0  0  0  # atno 10764 bound_to 10752
  153.1907  135.4552  155.0092 H   0  0  0  0  0  0  0  0  0  0  0  0  # atno 10765 bound_to 10752
  140.4981  134.5920  157.4978 H   0  0  0  0  0  0  0  0  0  0  0  0  # atno 11005 bound_to 11000
  146.1858  139.5073  142.9837 LP  0  0  0  0  0  0  0  0  0  0  0  0  # atno 17320 bound_to 7965
  145.6321  141.0302  143.1858 LP  0  0  0  0  0  0  0  0  0  0  0  0  # atno 17321 bound_to 7965
  139.8545  144.7148  150.9174 LP  0  0  0  0  0  0  0  0  0  0  0  0  # atno 17342 bound_to 10162
  140.7793  143.3870  151.1376 LP  0  0  0  0  0  0  0  0  0  0  0  0  # atno 17343 bound_to 10162
  156.0429  130.3734  150.1390 LP  0  0  0  0  0  0  0  0  0  0  0  0  # atno 17370 bound_to 10713
  156.9574  130.9794  151.3486 LP  0  0  0  0  0  0  0  0  0  0  0  0  # atno 17371 bound_to 10713
  139.9729  134.7262  156.0005 LP  0  0  0  0  0  0  0  0  0  0  0  0  # atno 17394 bound_to 11000
  141.1450  133.6557  156.3840 LP  0  0  0  0  0  0  0  0  0  0  0  0  # atno 17395 bound_to 11000

$$$$
