AV-unprocessed.smi:1125|AV-procd|sdf|4835|dock6
  -GOLD-   22720 3393D 1   1.00000     0.00000
 Structure written by MMmdl.
 46 47  0  0  0  0  0  0  0  0  2 V2000
  144.4003  139.9238  155.5109 C   0  0  0  0  0  0  0  0  0  0  0  0
  145.5162  140.1451  154.5665 N   0  3  2  0  0  0  0  0  0  0  0  0
  146.0798  138.8715  154.0532 C   0  0  0  0  0  0  0  0  0  0  0  0
  147.1540  139.1314  152.9816 C   0  0  0  0  0  0  0  0  0  0  0  0
  148.2687  140.0607  153.4994 C   0  0  2  0  0  0  0  0  0  0  0  0
  149.0888  139.3990  154.5101 N   0  0  0  0  0  0  0  0  0  0  0  0
  150.1216  139.9429  155.1732 C   0  0  0  0  0  0  0  0  0  0  0  0
  150.5308  141.0853  154.9695 O   0  0  0  0  0  0  0  0  0  0  0  0
  150.8053  139.0547  156.2179 C   0  0  0  0  0  0  0  0  0  0  0  0
  151.2679  139.8717  157.3919 C   0  0  0  0  0  0  0  0  0  0  0  0
  151.9999  139.4317  158.4655 C   0  0  0  0  0  0  0  0  0  0  0  0
  152.3462  140.7194  159.5855 S   0  0  0  0  0  0  0  0  0  0  0  0
  151.4635  141.8394  158.5418 C   0  0  0  0  0  0  0  0  0  0  0  0
  151.3012  143.3186  158.7952 C   0  0  0  0  0  0  0  0  0  0  0  0
  152.0299  143.7037  160.0975 C   0  0  0  0  0  0  0  0  0  0  0  0
  149.8139  143.7003  158.9569 C   0  0  0  0  0  0  0  0  0  0  0  0
  151.8606  144.1197  157.6035 C   0  0  0  0  0  0  0  0  0  0  0  0
  150.9596  141.2347  157.4606 N   0  0  0  0  0  0  0  0  0  0  0  0
  147.6493  141.3437  154.0816 C   0  0  0  0  0  0  0  0  0  0  0  0
  146.5634  141.0340  155.1288 C   0  0  0  0  0  0  0  0  0  0  0  0
  144.7418  139.4002  156.4047 H   0  0  0  0  0  0  0  0  0  0  0  0
  143.6145  139.3286  155.0446 H   0  0  0  0  0  0  0  0  0  0  0  0
  143.9601  140.8734  155.8172 H   0  0  0  0  0  0  0  0  0  0  0  0
  146.5004  138.2972  154.8802 H   0  0  0  0  0  0  0  0  0  0  0  0
  145.2804  138.2661  153.6242 H   0  0  0  0  0  0  0  0  0  0  0  0
  147.5736  138.1864  152.6347 H   0  0  0  0  0  0  0  0  0  0  0  0
  146.6837  139.5892  152.1104 H   0  0  0  0  0  0  0  0  0  0  0  0
  148.9135  140.3424  152.6648 H   0  0  0  0  0  0  0  0  0  0  0  0
  148.8288  138.4548  154.7580 H   0  0  0  0  0  0  0  0  0  0  0  0
  150.1051  138.2813  156.5364 H   0  0  0  0  0  0  0  0  0  0  0  0
  151.6470  138.5365  155.7568 H   0  0  0  0  0  0  0  0  0  0  0  0
  152.3638  138.4336  158.6600 H   0  0  0  0  0  0  0  0  0  0  0  0
  151.9171  144.7659  160.3178 H   0  0  0  0  0  0  0  0  0  0  0  0
  153.0988  143.4971  160.0337 H   0  0  0  0  0  0  0  0  0  0  0  0
  151.6392  143.1467  160.9500 H   0  0  0  0  0  0  0  0  0  0  0  0
  149.3535  143.1828  159.7993 H   0  0  0  0  0  0  0  0  0  0  0  0
  149.2376  143.4597  158.0626 H   0  0  0  0  0  0  0  0  0  0  0  0
  149.6972  144.7698  159.1359 H   0  0  0  0  0  0  0  0  0  0  0  0
  151.7400  145.1929  157.7537 H   0  0  0  0  0  0  0  0  0  0  0  0
  151.3514  143.8571  156.6754 H   0  0  0  0  0  0  0  0  0  0  0  0
  152.9249  143.9309  157.4586 H   0  0  0  0  0  0  0  0  0  0  0  0
  148.4246  141.9723  154.5220 H   0  0  0  0  0  0  0  0  0  0  0  0
  147.2088  141.9282  153.2729 H   0  0  0  0  0  0  0  0  0  0  0  0
  146.1085  141.9667  155.4647 H   0  0  0  0  0  0  0  0  0  0  0  0
  147.0066  140.5660  156.0093 H   0  0  0  0  0  0  0  0  0  0  0  0
  145.1253  140.6286  153.7704 H   0  0  0  0  0  0  0  0  0  0  0  0
  1  2  1  0  0  0  0
  1 21  1  0  0  0  0
  1 22  1  0  0  0  0
  1 23  1  0  0  0  0
  2 20  1  0  0  0  0
  2  3  1  0  0  0  0
  2 46  1  0  0  0  0
  3  4  1  0  0  0  0
  3 24  1  0  0  0  0
  3 25  1  0  0  0  0
  4  5  1  0  0  0  0
  4 26  1  0  0  0  0
  4 27  1  0  0  0  0
  5  6  1  0  0  0  0
  5 19  1  0  0  0  0
  5 28  1  0  0  0  0
  6  7  1  0  0  0  0
  6 29  1  0  0  0  0
  7  8  2  0  0  0  0
  7  9  1  0  0  0  0
  9 10  1  0  0  0  0
  9 30  1  0  0  0  0
  9 31  1  0  0  0  0
 10 18  1  0  0  0  0
 10 11  2  0  0  0  0
 11 12  1  0  0  0  0
 11 32  1  0  0  0  0
 12 13  1  0  0  0  0
 13 14  1  0  0  0  0
 13 18  2  0  0  0  0
 14 15  1  0  0  0  0
 14 16  1  0  0  0  0
 14 17  1  0  0  0  0
 15 33  1  0  0  0  0
 15 34  1  0  0  0  0
 15 35  1  0  0  0  0
 16 36  1  0  0  0  0
 16 37  1  0  0  0  0
 16 38  1  0  0  0  0
 17 39  1  0  0  0  0
 17 40  1  0  0  0  0
 17 41  1  0  0  0  0
 19 20  1  0  0  0  0
 19 42  1  0  0  0  0
 19 43  1  0  0  0  0
 20 44  1  0  0  0  0
 20 45  1  0  0  0  0
M  CHG  1   2   1
M  END
> <s_m_source_file>
AV-unprocessed.smi

> <i_m_source_file_index>
1125

> <i_lp_mmshare_version>
43012

> <i_f3d_flags>
0

> <s_epik_input>
W0NIM11OMVtDSDJdW0NIMl1bQ0hdKFtDSDJdW0NIMl0xKVtOSF1DKD1PKVtDSDJdYzJbY0hdc2MobjIpQyhbQ0gzXSkoW0NIM10pW0NIM10=

> <s_epik_cmdline>
J2VwaWtfcHl0aG9uJywgJy1waCcsICc3LjAnLCAnLXRuJywgJzgnLCAnLW1hJywgJzIwMCcsICctbWV0YWxfYmluZGluZycsICctaW1hZScsICc8aW5maWxlLm1hZT4nLCAnLW9tYWUnLCAnPG91dGZpbGUubWFlPic=

> <r_epik_Ionization_Penalty>
0.00829478

> <r_epik_Ionization_Penalty_Charging>
0.0082618

> <r_epik_Ionization_Penalty_Neutral>
3.29858e-05

> <r_epik_State_Penalty>
0.00621662

> <r_epik_Charging_Adjusted_Penalty>
0.0144784

> <i_epik_Tot_Q>
1

> <i_epik_Tot_abs_Q>
1

> <r_epik_Metal_State_Penalty>
0.00621672

> <b_epik_Metal_Only>
0

> <s_lp_Force_Field>
OPLS_2005

> <r_lp_Energy>
6.26884

> <b_lp_Chiralities_Consistent>
1

> <s_lp_Variant>
AV-unprocessed.smi:1125-2

> <Gold.Version>
5.8.1

> <Gold.Id.Protein>
6NUR|6NUR_protein|mol2

> <Gold.PLP.Fitness>
37.8548

> <Gold.PLP.PLP>
-30.7440

> <Gold.PLP.part.hbond>
-1.9707

> <Gold.PLP.part.metal>
0.0000

> <Gold.PLP.part.buried>
0.2748

> <Gold.PLP.part.nonpolar>
-29.1945

> <Gold.PLP.part.repulsive>
0.2215

> <Gold.PLP.ligand.clash>
0.0000

> <Gold.PLP.ligand.torsion>
0.3891

> <Gold.PLP.Chemscore.Hbond>
2.6240

> <Gold.PLP.Chemscore.CHOScore>
0.0000

> <Gold.PLP.Chemscore.Metal>
0.0000

> <Gold.Chemscore.Hbonds>
donor molecule, donor type, donor heavy atom, donor atom, acceptor molecule, acceptor atom, score
      L1  H     2    46       P1 10175  1.66
      P1  H  7989  7998       L1     8  0.67

> <Gold.PLP.Chemscore.Internal.Correction>
0.0170

> <Gold.Rescore>
     Score         DG    S(hbond)    S(metal)    S(lipo)     H(rot)  DE(clash)    DE(int)     intcor
     16.07     -18.64       1.80        0.00      91.80       1.40       0.40       2.17       ----

> <Gold.Chemscore.Fitness>
16.0746

> <Gold.Chemscore.DG>
-18.6433

> <Gold.Chemscore.ZeroCoef>
-5.4800

> <Gold.Chemscore.Hbond>
1.8006

> <Gold.Chemscore.Metal>
0.0000

> <Gold.Chemscore.Lipo>
91.8026

> <Gold.Chemscore.Internal_Hbond>
0.0000

> <Gold.Chemscore.DEClash>
0.4010

> <Gold.Chemscore.DEInternal>
2.1677

> <Gold.Chemscore.Rot>
1.4030

> <Gold.Chemscore.Internal.Correction>
   9.000000E+99

> <Gold.Chemscore.Hbonds>
donor molecule, donor type, donor heavy atom, donor atom, acceptor molecule, acceptor atom, score
      L1  H     2    46       P1 10175  0.79
      P1  H  7989  7998       L1     8  0.30

> <Gold.Chemscore.Hbond.Weighted>
-6.0141

> <Gold.Chemscore.Metal.Weighted>
-0.0000

> <Gold.Chemscore.Lipo.Weighted>
-10.7409

> <Gold.Chemscore.Internal_Hbond.Weighted>
0.0000

> <Gold.Chemscore.DEClash.Weighted>
0.4010

> <Gold.Chemscore.DEInternal.Weighted>
2.1677

> <Gold.Chemscore.Rot.Weighted>
3.5917

> <Gold.Chemscore.Internal.Correction.Weighted>
   9.000000E+99

> <Gold.Protein.RotatedTorsions>
[ 6907 6896 6895 6894 ] final   10.05 input  -60.11 | X-H torsion
[ 7974 7965 7964 7962 ] final   86.48 input  175.53 | X-H torsion
[ 8008 7997 7996 7995 ] final   45.06 input   59.86 | X-H torsion
[ 10167 10162 10161 10158 ] final  112.39 input  -65.29 | X-H torsion
[ 10718 10713 10712 10709 ] final -113.65 input   66.30 | X-H torsion
[ 10763 10752 10751 10750 ] final  -32.37 input  -60.55 | X-H torsion
[ 11005 11000 10999 10996 ] final   98.03 input  -57.11 | X-H torsion

> <Gold.Protein.ActiveResidues>
 VAL166  LYS551  ARG553  GLY616  TRP617  ASP618  TYR619  PRO620  LYS621  CYS622 
 ASP623  PHE694  ASN695  SER759  ASP760  ASP761  ALA762  ILE779  LEU786  VAL792 
 PHE793  MET794  SER795  GLU796  ALA797  LYS798  CYS799  TRP800  GLU811  SER814 

> <Gold.Protein.RotatedAtoms>
  151.7319  135.0873  160.0301 H   0  0  0  0  0  0  0  0  0  0  0  0  # atno 6907 bound_to 6896
  152.3535  133.6204  159.5971 H   0  0  0  0  0  0  0  0  0  0  0  0  # atno 6908 bound_to 6896
  150.7556  133.9453  159.3510 H   0  0  0  0  0  0  0  0  0  0  0  0  # atno 6909 bound_to 6896
  145.5717  139.2314  143.2403 H   0  0  0  0  0  0  0  0  0  0  0  0  # atno 7974 bound_to 7965
  155.3296  140.3402  155.4240 H   0  0  0  0  0  0  0  0  0  0  0  0  # atno 8008 bound_to 7997
  156.1868  140.1683  156.8206 H   0  0  0  0  0  0  0  0  0  0  0  0  # atno 8009 bound_to 7997
  154.5395  140.0728  156.8469 H   0  0  0  0  0  0  0  0  0  0  0  0  # atno 8010 bound_to 7997
  139.6539  144.7129  151.1994 H   0  0  0  0  0  0  0  0  0  0  0  0  # atno 10167 bound_to 10162
  156.0780  130.5984  150.8670 H   0  0  0  0  0  0  0  0  0  0  0  0  # atno 10718 bound_to 10713
  153.8126  135.6881  153.4838 H   0  0  0  0  0  0  0  0  0  0  0  0  # atno 10763 bound_to 10752
  153.1619  135.4576  154.9781 H   0  0  0  0  0  0  0  0  0  0  0  0  # atno 10764 bound_to 10752
  154.7961  135.3319  154.7606 H   0  0  0  0  0  0  0  0  0  0  0  0  # atno 10765 bound_to 10752
  139.8773  134.9029  156.4395 H   0  0  0  0  0  0  0  0  0  0  0  0  # atno 11005 bound_to 11000
  146.1780  140.6543  142.9202 LP  0  0  0  0  0  0  0  0  0  0  0  0  # atno 17320 bound_to 7965
  144.7435  140.5005  143.6852 LP  0  0  0  0  0  0  0  0  0  0  0  0  # atno 17321 bound_to 7965
  140.7550  143.6104  150.8611 LP  0  0  0  0  0  0  0  0  0  0  0  0  # atno 17342 bound_to 10162
  139.9755  143.6009  152.2960 LP  0  0  0  0  0  0  0  0  0  0  0  0  # atno 17343 bound_to 10162
  157.5884  131.0945  150.9159 LP  0  0  0  0  0  0  0  0  0  0  0  0  # atno 17370 bound_to 10713
  156.9340  130.5360  149.5279 LP  0  0  0  0  0  0  0  0  0  0  0  0  # atno 17371 bound_to 10713
  140.9009  133.7780  155.9679 LP  0  0  0  0  0  0  0  0  0  0  0  0  # atno 17394 bound_to 11000
  140.8651  134.2793  157.5216 LP  0  0  0  0  0  0  0  0  0  0  0  0  # atno 17395 bound_to 11000

$$$$
