AV-unprocessed.smi:1560|AV-procd|sdf|6277|dock9
  -GOLD-   22720 6473D 1   1.00000     0.00000
 Structure written by MMmdl.
 48 49  0  0  0  0  0  0  0  0  2 V2000
  143.4954  134.1222  151.7238 C   0  0  0  0  0  0  0  0  0  0  0  0
  144.7774  134.1161  152.5756 C   0  0  0  0  0  0  0  0  0  0  0  0
  146.1036  134.4000  151.8037 C   0  0  1  0  0  0  0  0  0  0  0  0
  146.1551  133.4168  150.6041 C   0  0  0  0  0  0  0  0  0  0  0  0
  146.0995  135.8623  151.2557 C   0  0  0  0  0  0  0  0  0  0  0  0
  145.9932  136.8765  152.3035 N   0  0  0  0  0  0  0  0  0  0  0  0
  146.3356  138.1680  152.1818 C   0  0  0  0  0  0  0  0  0  0  0  0
  146.7453  138.6633  151.1313 O   0  0  0  0  0  0  0  0  0  0  0  0
  146.1928  139.0302  153.4427 C   0  0  0  0  0  0  0  0  0  0  0  0
  147.4917  139.4949  153.9497 N   0  0  0  0  0  0  0  0  0  0  0  0
  148.5358  138.5995  154.1348 C   0  0  0  0  0  0  0  0  0  0  0  0
  149.7532  138.9612  154.6049 C   0  0  0  0  0  0  0  0  0  0  0  0
  150.0293  140.3519  154.9492 C   0  0  0  0  0  0  0  0  0  0  0  0
  151.0989  140.7767  155.3805 O   0  0  0  0  0  0  0  0  0  0  0  0
  148.9536  141.2217  154.7514 N   0  0  0  0  0  0  0  0  0  0  0  0
  147.6964  140.8559  154.2681 C   0  0  0  0  0  0  0  0  0  0  0  0
  146.8140  141.7037  154.1347 O   0  0  0  0  0  0  0  0  0  0  0  0
  147.2848  134.1770  152.7155 N   0  3  0  0  0  0  0  0  0  0  0  0
  147.1828  134.7698  154.0792 C   0  0  0  0  0  0  0  0  0  0  0  0
  148.5216  134.6393  154.8255 C   0  0  0  0  0  0  0  0  0  0  0  0
  148.9068  133.2735  154.8921 O   0  0  0  0  0  0  0  0  0  0  0  0
  149.0940  132.7167  153.5988 C   0  0  0  0  0  0  0  0  0  0  0  0
  147.7695  132.7712  152.8208 C   0  0  0  0  0  0  0  0  0  0  0  0
  149.0979  142.1950  154.9780 H   0  0  0  0  0  0  0  0  0  0  0  0
  142.6251  133.9190  152.3484 H   0  0  0  0  0  0  0  0  0  0  0  0
  143.5185  133.3602  150.9450 H   0  0  0  0  0  0  0  0  0  0  0  0
  143.3302  135.0878  151.2468 H   0  0  0  0  0  0  0  0  0  0  0  0
  144.6436  134.8606  153.3602 H   0  0  0  0  0  0  0  0  0  0  0  0
  144.8423  133.1692  153.1111 H   0  0  0  0  0  0  0  0  0  0  0  0
  145.2101  133.3941  150.0600 H   0  0  0  0  0  0  0  0  0  0  0  0
  146.3645  132.3960  150.9244 H   0  0  0  0  0  0  0  0  0  0  0  0
  146.9180  133.6967  149.8772 H   0  0  0  0  0  0  0  0  0  0  0  0
  146.9848  136.0588  150.6504 H   0  0  0  0  0  0  0  0  0  0  0  0
  145.2484  136.0174  150.5936 H   0  0  0  0  0  0  0  0  0  0  0  0
  145.6597  136.5638  153.2042 H   0  0  0  0  0  0  0  0  0  0  0  0
  145.5473  139.8763  153.2025 H   0  0  0  0  0  0  0  0  0  0  0  0
  145.6673  138.4786  154.2254 H   0  0  0  0  0  0  0  0  0  0  0  0
  148.3767  137.5572  153.8968 H   0  0  0  0  0  0  0  0  0  0  0  0
  150.5266  138.2170  154.7279 H   0  0  0  0  0  0  0  0  0  0  0  0
  146.9313  135.8281  154.0415 H   0  0  0  0  0  0  0  0  0  0  0  0
  146.3984  134.2714  154.6493 H   0  0  0  0  0  0  0  0  0  0  0  0
  149.2997  135.2257  154.3341 H   0  0  0  0  0  0  0  0  0  0  0  0
  148.4248  135.0273  155.8397 H   0  0  0  0  0  0  0  0  0  0  0  0
  149.8832  133.2499  153.0663 H   0  0  0  0  0  0  0  0  0  0  0  0
  149.4241  131.6833  153.7059 H   0  0  0  0  0  0  0  0  0  0  0  0
  147.0326  132.1526  153.3331 H   0  0  0  0  0  0  0  0  0  0  0  0
  147.9350  132.3280  151.8409 H   0  0  0  0  0  0  0  0  0  0  0  0
  148.0385  134.6812  152.2701 H   0  0  0  0  0  0  0  0  0  0  0  0
  1  2  1  0  0  0  0
  1 25  1  0  0  0  0
  1 26  1  0  0  0  0
  1 27  1  0  0  0  0
  2  3  1  0  0  0  0
  2 28  1  0  0  0  0
  2 29  1  0  0  0  0
  3  4  1  0  0  0  0
  3  5  1  0  0  0  0
  3 18  1  0  0  0  0
  4 30  1  0  0  0  0
  4 31  1  0  0  0  0
  4 32  1  0  0  0  0
  5  6  1  0  0  0  0
  5 33  1  0  0  0  0
  5 34  1  0  0  0  0
  6  7  1  0  0  0  0
  6 35  1  0  0  0  0
  7  8  2  0  0  0  0
  7  9  1  0  0  0  0
  9 10  1  0  0  0  0
  9 36  1  0  0  0  0
  9 37  1  0  0  0  0
 10 16  1  0  0  0  0
 10 11  1  0  0  0  0
 11 12  2  0  0  0  0
 11 38  1  0  0  0  0
 12 13  1  0  0  0  0
 12 39  1  0  0  0  0
 13 14  2  0  0  0  0
 13 15  1  0  0  0  0
 15 24  1  0  0  0  0
 15 16  1  0  0  0  0
 16 17  2  0  0  0  0
 18 23  1  0  0  0  0
 18 19  1  0  0  0  0
 18 48  1  0  0  0  0
 19 20  1  0  0  0  0
 19 40  1  0  0  0  0
 19 41  1  0  0  0  0
 20 21  1  0  0  0  0
 20 42  1  0  0  0  0
 20 43  1  0  0  0  0
 21 22  1  0  0  0  0
 22 23  1  0  0  0  0
 22 44  1  0  0  0  0
 22 45  1  0  0  0  0
 23 46  1  0  0  0  0
 23 47  1  0  0  0  0
M  CHG  1  18   1
M  END
> <s_m_source_file>
AV-unprocessed.smi

> <i_m_source_file_index>
1560

> <i_lp_mmshare_version>
43012

> <i_f3d_flags>
0

> <s_epik_input>
W0NIMl0xW0NIMl1PW0NIMl1bQ0gyXU4xW0NAQF0oW0NIM10pKFtDSDJdW0NIM10pW0NIMl1bTkhdQyg9TylbQ0gyXW4yW2NIXVtjSF1jKD1PKVtuSF1jMj1P

> <s_epik_cmdline>
J2VwaWtfcHl0aG9uJywgJy1waCcsICc3LjAnLCAnLXRuJywgJzgnLCAnLW1hJywgJzIwMCcsICctbWV0YWxfYmluZGluZycsICctaW1hZScsICc8aW5maWxlLm1hZT4nLCAnLW9tYWUnLCAnPG91dGZpbGUubWFlPic=

> <r_lp_tautomer_probability>
0.999537

> <r_epik_Ionization_Penalty>
0.523885

> <r_epik_Ionization_Penalty_Charging>
0.523885

> <r_epik_Ionization_Penalty_Neutral>
8.70177e-08

> <r_epik_State_Penalty>
0.572334

> <r_epik_Charging_Adjusted_Penalty>
1.09622

> <i_epik_Tot_Q>
1

> <i_epik_Tot_abs_Q>
1

> <r_epik_Metal_State_Penalty>
0.938906

> <b_epik_Metal_Only>
0

> <s_lp_Force_Field>
OPLS_2005

> <r_lp_Energy>
27.5913

> <b_lp_Chiralities_Consistent>
1

> <s_lp_Variant>
AV-unprocessed.smi:1560-3

> <Gold.Version>
5.8.1

> <Gold.Id.Protein>
6NUR|6NUR_protein|mol2

> <Gold.PLP.Fitness>
44.0732

> <Gold.PLP.PLP>
-33.1474

> <Gold.PLP.part.hbond>
-4.0000

> <Gold.PLP.part.metal>
0.0000

> <Gold.PLP.part.buried>
-0.4010

> <Gold.PLP.part.nonpolar>
-29.7549

> <Gold.PLP.part.repulsive>
1.0673

> <Gold.PLP.ligand.clash>
0.0000

> <Gold.PLP.ligand.torsion>
0.9364

> <Gold.PLP.Chemscore.Hbond>
3.2040

> <Gold.PLP.Chemscore.CHOScore>
0.9977

> <Gold.PLP.Chemscore.Metal>
0.0000

> <Gold.Chemscore.Hbonds>
donor molecule, donor type, donor heavy atom, donor atom, acceptor molecule, acceptor atom, score
      L1  H    18    48       P1  7948  2.00
      P1  H  7954  7966       L1     8  0.98
      P1  H  7989  7998       L1    14  0.24
      L1  C    11    38       P1  7948  1.00

> <Gold.PLP.Chemscore.Internal.Correction>
0.1936

> <Gold.Rescore>
     Score         DG    S(hbond)    S(metal)    S(lipo)     H(rot)  DE(clash)    DE(int)     intcor
      9.11     -11.82       1.72        0.00      61.13       2.56       1.16       1.55       ----

> <Gold.Chemscore.Fitness>
9.1146

> <Gold.Chemscore.DG>
-11.8246

> <Gold.Chemscore.ZeroCoef>
-5.4800

> <Gold.Chemscore.Hbond>
1.7229

> <Gold.Chemscore.Metal>
0.0000

> <Gold.Chemscore.Lipo>
61.1342

> <Gold.Chemscore.Internal_Hbond>
0.0000

> <Gold.Chemscore.DEClash>
1.1575

> <Gold.Chemscore.DEInternal>
1.5525

> <Gold.Chemscore.Rot>
2.5634

> <Gold.Chemscore.Internal.Correction>
   9.000000E+99

> <Gold.Chemscore.Hbonds>
donor molecule, donor type, donor heavy atom, donor atom, acceptor molecule, acceptor atom, score
      L1  H    18    48       P1  7948  0.39
      P1  H  7954  7966       L1     8  0.87

> <Gold.Chemscore.Hbond.Weighted>
-5.7543

> <Gold.Chemscore.Metal.Weighted>
-0.0000

> <Gold.Chemscore.Lipo.Weighted>
-7.1527

> <Gold.Chemscore.Internal_Hbond.Weighted>
0.0000

> <Gold.Chemscore.DEClash.Weighted>
1.1575

> <Gold.Chemscore.DEInternal.Weighted>
1.5525

> <Gold.Chemscore.Rot.Weighted>
6.5624

> <Gold.Chemscore.Internal.Correction.Weighted>
   9.000000E+99

> <Gold.Protein.RotatedTorsions>
[ 6907 6896 6895 6894 ] final  -55.59 input  -60.11 | X-H torsion
[ 7974 7965 7964 7962 ] final   87.97 input  175.53 | X-H torsion
[ 8008 7997 7996 7995 ] final  -81.46 input   59.86 | X-H torsion
[ 10167 10162 10161 10158 ] final -116.85 input  -65.29 | X-H torsion
[ 10718 10713 10712 10709 ] final  -51.30 input   66.30 | X-H torsion
[ 10763 10752 10751 10750 ] final -160.34 input  -60.55 | X-H torsion
[ 11005 11000 10999 10996 ] final  -94.73 input  -57.11 | X-H torsion

> <Gold.Protein.ActiveResidues>
 VAL166  LYS551  ARG553  GLY616  TRP617  ASP618  TYR619  PRO620  LYS621  CYS622 
 ASP623  PHE694  ASN695  SER759  ASP760  ASP761  ALA762  ILE779  LEU786  VAL792 
 PHE793  MET794  SER795  GLU796  ALA797  LYS798  CYS799  TRP800  GLU811  SER814 

> <Gold.Protein.RotatedAtoms>
  150.8239  134.7460  159.6795 H   0  0  0  0  0  0  0  0  0  0  0  0  # atno 6907 bound_to 6896
  152.4352  134.5697  159.9927 H   0  0  0  0  0  0  0  0  0  0  0  0  # atno 6908 bound_to 6896
  151.5874  133.3333  159.3056 H   0  0  0  0  0  0  0  0  0  0  0  0  # atno 6909 bound_to 6896
  145.5520  139.2296  143.2507 H   0  0  0  0  0  0  0  0  0  0  0  0  # atno 7974 bound_to 7965
  154.5985  140.0647  156.9336 H   0  0  0  0  0  0  0  0  0  0  0  0  # atno 8008 bound_to 7997
  155.2172  140.3327  155.4302 H   0  0  0  0  0  0  0  0  0  0  0  0  # atno 8009 bound_to 7997
  156.2303  140.1838  156.7243 H   0  0  0  0  0  0  0  0  0  0  0  0  # atno 8010 bound_to 7997
  140.0748  143.4843  152.1959 H   0  0  0  0  0  0  0  0  0  0  0  0  # atno 10167 bound_to 10162
  156.1722  130.4149  149.9630 H   0  0  0  0  0  0  0  0  0  0  0  0  # atno 10718 bound_to 10713
  154.7399  135.3066  154.8747 H   0  0  0  0  0  0  0  0  0  0  0  0  # atno 10763 bound_to 10752
  153.9565  135.6758  153.4749 H   0  0  0  0  0  0  0  0  0  0  0  0  # atno 10764 bound_to 10752
  153.0998  135.4917  154.8771 H   0  0  0  0  0  0  0  0  0  0  0  0  # atno 10765 bound_to 10752
  141.1462  133.7976  157.0337 H   0  0  0  0  0  0  0  0  0  0  0  0  # atno 11005 bound_to 11000
  146.1910  140.6343  142.9145 LP  0  0  0  0  0  0  0  0  0  0  0  0  # atno 17320 bound_to 7965
  144.7525  140.5226  143.6792 LP  0  0  0  0  0  0  0  0  0  0  0  0  # atno 17321 bound_to 7965
  139.5814  144.7512  151.3629 LP  0  0  0  0  0  0  0  0  0  0  0  0  # atno 17342 bound_to 10162
  140.7108  143.7396  150.7563 LP  0  0  0  0  0  0  0  0  0  0  0  0  # atno 17343 bound_to 10162
  156.7427  130.9085  151.3633 LP  0  0  0  0  0  0  0  0  0  0  0  0  # atno 17370 bound_to 10713
  157.6811  130.9140  150.0269 LP  0  0  0  0  0  0  0  0  0  0  0  0  # atno 17371 bound_to 10713
  140.0737  134.9688  157.1510 LP  0  0  0  0  0  0  0  0  0  0  0  0  # atno 17394 bound_to 11000
  140.3674  134.2427  155.7181 LP  0  0  0  0  0  0  0  0  0  0  0  0  # atno 17395 bound_to 11000

$$$$
