AV-unprocessed.smi:1553|AV-procd|sdf|6238|dock5
  -GOLD-   22720 6423D 1   1.00000     0.00000
 Structure written by MMmdl.
 37 38  0  0  0  0  0  0  0  0  1 V2000
  146.8415  138.6659  152.6177 C   0  0  0  0  0  0  0  0  0  0  0  0
  147.6481  139.6845  153.3469 C   0  0  0  0  0  0  0  0  0  0  0  0
  148.7791  139.4033  153.9985 N   0  0  0  0  0  0  0  0  0  0  0  0
  149.3374  140.5266  154.6157 C   0  0  0  0  0  0  0  0  0  0  0  0
  150.5781  140.3854  155.4502 C   0  0  0  0  0  0  0  0  0  0  0  0
  150.3430  140.6479  156.9519 C   0  0  0  0  0  0  0  0  0  0  0  0
  151.1723  141.7440  157.4503 N   0  0  0  0  0  0  0  0  0  0  0  0
  151.8982  141.7292  158.5839 C   0  0  0  0  0  0  0  0  0  0  0  0
  152.0111  140.7062  159.2582 O   0  0  0  0  0  0  0  0  0  0  0  0
  152.3772  142.9492  158.9540 N   0  0  0  0  0  0  0  0  0  0  0  0
  152.3288  144.1497  158.1013 C   0  0  0  0  0  0  0  0  0  0  0  0
  151.3185  145.1313  158.7162 C   0  0  0  0  0  0  0  0  0  0  0  0
  151.7464  145.4748  160.0306 O   0  0  0  0  0  0  0  0  0  0  0  0
  151.8935  144.3456  160.8887 C   0  0  0  0  0  0  0  0  0  0  0  0
  152.8986  143.3387  160.2860 C   0  0  1  0  0  0  0  0  0  0  0  0
  153.1913  142.2087  161.2949 C   0  0  0  0  0  0  0  0  0  0  0  0
  148.6192  141.6766  154.3984 C   0  0  0  0  0  0  0  0  0  0  0  0
  147.1977  141.3824  153.4368 S   0  0  0  0  0  0  0  0  0  0  0  0
  147.2058  137.6610  152.8334 H   0  0  0  0  0  0  0  0  0  0  0  0
  146.9061  138.8396  151.5436 H   0  0  0  0  0  0  0  0  0  0  0  0
  145.7969  138.7309  152.9222 H   0  0  0  0  0  0  0  0  0  0  0  0
  151.0010  139.3882  155.3236 H   0  0  0  0  0  0  0  0  0  0  0  0
  151.3411  141.0749  155.0874 H   0  0  0  0  0  0  0  0  0  0  0  0
  149.2863  140.8518  157.1321 H   0  0  0  0  0  0  0  0  0  0  0  0
  150.5780  139.7498  157.5230 H   0  0  0  0  0  0  0  0  0  0  0  0
  151.1113  142.6177  156.9485 H   0  0  0  0  0  0  0  0  0  0  0  0
  153.3166  144.6111  158.0608 H   0  0  0  0  0  0  0  0  0  0  0  0
  152.0733  143.9473  157.0609 H   0  0  0  0  0  0  0  0  0  0  0  0
  151.2575  146.0392  158.1162 H   0  0  0  0  0  0  0  0  0  0  0  0
  150.3180  144.6966  158.7474 H   0  0  0  0  0  0  0  0  0  0  0  0
  152.2423  144.6983  161.8596 H   0  0  0  0  0  0  0  0  0  0  0  0
  150.9218  143.8765  161.0513 H   0  0  0  0  0  0  0  0  0  0  0  0
  153.8475  143.8550  160.1318 H   0  0  0  0  0  0  0  0  0  0  0  0
  153.6139  142.6163  162.2136 H   0  0  0  0  0  0  0  0  0  0  0  0
  153.9178  141.4976  160.9006 H   0  0  0  0  0  0  0  0  0  0  0  0
  152.2870  141.6660  161.5734 H   0  0  0  0  0  0  0  0  0  0  0  0
  148.8265  142.6709  154.7650 H   0  0  0  0  0  0  0  0  0  0  0  0
  1  2  1  0  0  0  0
  1 19  1  0  0  0  0
  1 20  1  0  0  0  0
  1 21  1  0  0  0  0
  2 18  1  0  0  0  0
  2  3  2  0  0  0  0
  3  4  1  0  0  0  0
  4  5  1  0  0  0  0
  4 17  2  0  0  0  0
  5  6  1  0  0  0  0
  5 22  1  0  0  0  0
  5 23  1  0  0  0  0
  6  7  1  0  0  0  0
  6 24  1  0  0  0  0
  6 25  1  0  0  0  0
  7  8  1  0  0  0  0
  7 26  1  0  0  0  0
  8  9  2  0  0  0  0
  8 10  1  0  0  0  0
 10 15  1  0  0  0  0
 10 11  1  0  0  0  0
 11 12  1  0  0  0  0
 11 27  1  0  0  0  0
 11 28  1  0  0  0  0
 12 13  1  0  0  0  0
 12 29  1  0  0  0  0
 12 30  1  0  0  0  0
 13 14  1  0  0  0  0
 14 15  1  0  0  0  0
 14 31  1  0  0  0  0
 14 32  1  0  0  0  0
 15 16  1  0  0  0  0
 15 33  1  0  0  0  0
 16 34  1  0  0  0  0
 16 35  1  0  0  0  0
 16 36  1  0  0  0  0
 17 18  1  0  0  0  0
 17 37  1  0  0  0  0
M  END
> <s_m_source_file>
AV-unprocessed.smi

> <i_m_source_file_index>
1553

> <i_lp_mmshare_version>
43012

> <i_f3d_flags>
0

> <s_epik_input>
W0NIM11jMW5jKFtjSF1zMSlbQ0gyXVtDSDJdW05IXUMoPU8pTjJbQ0gyXVtDSDJdT1tDSDJdW0NASF0yW0NIM10=

> <s_epik_cmdline>
J2VwaWtfcHl0aG9uJywgJy1waCcsICc3LjAnLCAnLXRuJywgJzgnLCAnLW1hJywgJzIwMCcsICctbWV0YWxfYmluZGluZycsICctaW1hZScsICc8aW5maWxlLm1hZT4nLCAnLW9tYWUnLCAnPG91dGZpbGUubWFlPic=

> <r_epik_Ionization_Penalty>
0.0020768

> <r_epik_Ionization_Penalty_Charging>
0

> <r_epik_Ionization_Penalty_Neutral>
0.0020768

> <r_epik_State_Penalty>
0.00139904

> <r_epik_Charging_Adjusted_Penalty>
0.00139904

> <i_epik_Tot_Q>
0

> <i_epik_Tot_abs_Q>
0

> <r_epik_Metal_State_Penalty>
-0

> <b_epik_Metal_Only>
0

> <s_lp_Force_Field>
OPLS_2005

> <r_lp_Energy>
28.2448

> <b_lp_Chiralities_Consistent>
1

> <s_lp_Variant>
AV-unprocessed.smi:1553-1

> <Gold.Version>
5.8.1

> <Gold.Id.Protein>
6NUR|6NUR_protein|mol2

> <Gold.PLP.Fitness>
45.8393

> <Gold.PLP.PLP>
-43.8956

> <Gold.PLP.part.hbond>
0.0000

> <Gold.PLP.part.metal>
0.0000

> <Gold.PLP.part.buried>
-4.4784

> <Gold.PLP.part.nonpolar>
-39.7474

> <Gold.PLP.part.repulsive>
0.8446

> <Gold.PLP.ligand.clash>
0.0914

> <Gold.PLP.ligand.torsion>
0.5552

> <Gold.PLP.Chemscore.Hbond>
0.0000

> <Gold.PLP.Chemscore.CHOScore>
1.0000

> <Gold.PLP.Chemscore.Metal>
0.0000

> <Gold.Chemscore.Hbonds>
donor molecule, donor type, donor heavy atom, donor atom, acceptor molecule, acceptor atom, score
      L1  C    17    37       P1  8028  1.00

> <Gold.PLP.Chemscore.Internal.Correction>
0.1453

> <Gold.Rescore>
     Score         DG    S(hbond)    S(metal)    S(lipo)     H(rot)  DE(clash)    DE(int)     intcor
     12.92     -15.12       0.00        0.00     111.54       1.33       0.29       1.91       ----

> <Gold.Chemscore.Fitness>
12.9210

> <Gold.Chemscore.DG>
-15.1187

> <Gold.Chemscore.ZeroCoef>
-5.4800

> <Gold.Chemscore.Hbond>
0.0000

> <Gold.Chemscore.Metal>
0.0000

> <Gold.Chemscore.Lipo>
111.5369

> <Gold.Chemscore.Internal_Hbond>
0.0000

> <Gold.Chemscore.DEClash>
0.2864

> <Gold.Chemscore.DEInternal>
1.9114

> <Gold.Chemscore.Rot>
1.3325

> <Gold.Chemscore.Internal.Correction>
   9.000000E+99

> <Gold.Chemscore.Hbond.Weighted>
-0.0000

> <Gold.Chemscore.Metal.Weighted>
-0.0000

> <Gold.Chemscore.Lipo.Weighted>
-13.0498

> <Gold.Chemscore.Internal_Hbond.Weighted>
0.0000

> <Gold.Chemscore.DEClash.Weighted>
0.2864

> <Gold.Chemscore.DEInternal.Weighted>
1.9114

> <Gold.Chemscore.Rot.Weighted>
3.4111

> <Gold.Chemscore.Internal.Correction.Weighted>
   9.000000E+99

> <Gold.Protein.RotatedTorsions>
[ 6907 6896 6895 6894 ] final   49.56 input  -60.11 | X-H torsion
[ 7974 7965 7964 7962 ] final  -27.40 input  175.53 | X-H torsion
[ 8008 7997 7996 7995 ] final  -30.50 input   59.86 | X-H torsion
[ 10167 10162 10161 10158 ] final -153.36 input  -65.29 | X-H torsion
[ 10718 10713 10712 10709 ] final -135.82 input   66.30 | X-H torsion
[ 10763 10752 10751 10750 ] final   51.27 input  -60.55 | X-H torsion
[ 11005 11000 10999 10996 ] final -141.65 input  -57.11 | X-H torsion

> <Gold.Protein.ActiveResidues>
 VAL166  LYS551  ARG553  GLY616  TRP617  ASP618  TYR619  PRO620  LYS621  CYS622 
 ASP623  PHE694  ASN695  SER759  ASP760  ASP761  ALA762  ILE779  LEU786  VAL792 
 PHE793  MET794  SER795  GLU796  ALA797  LYS798  CYS799  TRP800  GLU811  SER814 

> <Gold.Protein.RotatedAtoms>
  152.2921  134.7709  160.0375 H   0  0  0  0  0  0  0  0  0  0  0  0  # atno 6907 bound_to 6896
  151.8251  133.3395  159.3604 H   0  0  0  0  0  0  0  0  0  0  0  0  # atno 6908 bound_to 6896
  150.7235  134.5465  159.5818 H   0  0  0  0  0  0  0  0  0  0  0  0  # atno 6909 bound_to 6896
  146.1360  140.5147  142.8672 H   0  0  0  0  0  0  0  0  0  0  0  0  # atno 7974 bound_to 7965
  154.4248  140.1789  156.1417 H   0  0  0  0  0  0  0  0  0  0  0  0  # atno 8008 bound_to 7997
  155.9986  140.3362  155.6799 H   0  0  0  0  0  0  0  0  0  0  0  0  # atno 8009 bound_to 7997
  155.6273  140.0666  157.2650 H   0  0  0  0  0  0  0  0  0  0  0  0  # atno 8010 bound_to 7997
  139.7104  143.9118  152.2465 H   0  0  0  0  0  0  0  0  0  0  0  0  # atno 10167 bound_to 10162
  156.2703  130.7261  151.1226 H   0  0  0  0  0  0  0  0  0  0  0  0  # atno 10718 bound_to 10713
  152.9785  135.5851  154.4388 H   0  0  0  0  0  0  0  0  0  0  0  0  # atno 10763 bound_to 10752
  154.3992  135.2768  155.2109 H   0  0  0  0  0  0  0  0  0  0  0  0  # atno 10764 bound_to 10752
  154.3947  135.6117  153.5917 H   0  0  0  0  0  0  0  0  0  0  0  0  # atno 10765 bound_to 10752
  140.8304  134.2524  157.4859 H   0  0  0  0  0  0  0  0  0  0  0  0  # atno 11005 bound_to 11000
  144.7740  140.5700  143.6650 LP  0  0  0  0  0  0  0  0  0  0  0  0  # atno 17320 bound_to 7965
  145.5155  139.1478  143.3581 LP  0  0  0  0  0  0  0  0  0  0  0  0  # atno 17321 bound_to 7965
  139.8986  144.6925  150.8691 LP  0  0  0  0  0  0  0  0  0  0  0  0  # atno 17342 bound_to 10162
  140.7732  143.3531  151.1974 LP  0  0  0  0  0  0  0  0  0  0  0  0  # atno 17343 bound_to 10162
  157.7281  131.0634  150.5834 LP  0  0  0  0  0  0  0  0  0  0  0  0  # atno 17370 bound_to 10713
  156.5929  130.4334  149.5929 LP  0  0  0  0  0  0  0  0  0  0  0  0  # atno 17371 bound_to 10713
  139.8705  134.9583  156.4295 LP  0  0  0  0  0  0  0  0  0  0  0  0  # atno 17394 bound_to 11000
  140.9004  133.7783  155.9674 LP  0  0  0  0  0  0  0  0  0  0  0  0  # atno 17395 bound_to 11000

$$$$
