AV-unprocessed.smi:740|AV-procd|sdf|3553|dock4
  -GOLD-   22720 0553D 1   1.00000     0.00000
 Structure written by MMmdl.
 45 47  0  0  0  0  0  0  0  0  2 V2000
  152.5665  143.1694  161.1008 C   0  0  0  0  0  0  0  0  0  0  0  0
  152.3245  142.3638  159.8359 C   0  0  0  0  0  0  0  0  0  0  0  0
  151.4407  142.8841  158.8639 C   0  0  0  0  0  0  0  0  0  0  0  0
  151.2402  142.1247  157.7174 C   0  0  0  0  0  0  0  0  0  0  0  0
  150.4472  142.3607  156.5924 N   0  3  0  0  0  0  0  0  0  0  0  0
  150.5773  141.3241  155.7194 C   0  0  0  0  0  0  0  0  0  0  0  0
  151.4390  140.4275  156.2716 N   0  0  0  0  0  0  0  0  0  0  0  0
  151.9165  139.1428  155.7409 C   0  0  0  0  0  0  0  0  0  0  0  0
  150.8246  138.3751  154.9704 C   0  0  1  0  0  0  0  0  0  0  0  0
  151.3651  137.1531  154.5065 O   0  0  0  0  0  0  0  0  0  0  0  0
  149.6064  138.0706  155.8658 C   0  0  0  0  0  0  0  0  0  0  0  0
  148.3490  138.0856  155.1093 N   0  0  0  0  0  0  0  0  0  0  0  0
  147.5035  137.0486  155.0380 C   0  0  0  0  0  0  0  0  0  0  0  0
  147.6484  135.9526  155.5791 O   0  0  0  0  0  0  0  0  0  0  0  0
  146.2886  137.3917  154.1876 C   0  0  0  0  0  0  0  0  0  0  0  0
  146.5570  138.8420  153.7576 C   0  0  2  0  0  0  0  0  0  0  0  0
  146.6101  139.0363  152.2332 C   0  0  0  0  0  0  0  0  0  0  0  0
  147.9017  139.1426  154.4169 C   0  0  0  0  0  0  0  0  0  0  0  0
  148.4692  140.2296  154.3052 O   0  0  0  0  0  0  0  0  0  0  0  0
  151.8807  140.8860  157.5187 C   0  0  0  0  0  0  0  0  0  0  0  0
  152.7558  140.3598  158.4666 C   0  0  0  0  0  0  0  0  0  0  0  0
  152.9756  141.1186  159.6384 C   0  0  0  0  0  0  0  0  0  0  0  0
  153.9304  140.5720  160.6862 C   0  0  0  0  0  0  0  0  0  0  0  0
  151.9698  144.0819  161.1129 H   0  0  0  0  0  0  0  0  0  0  0  0
  153.6156  143.4558  161.1769 H   0  0  0  0  0  0  0  0  0  0  0  0
  152.3006  142.5871  161.9835 H   0  0  0  0  0  0  0  0  0  0  0  0
  150.9443  143.8330  159.0055 H   0  0  0  0  0  0  0  0  0  0  0  0
  150.0870  141.2302  154.7611 H   0  0  0  0  0  0  0  0  0  0  0  0
  152.8010  139.3073  155.1251 H   0  0  0  0  0  0  0  0  0  0  0  0
  152.2474  138.5530  156.5965 H   0  0  0  0  0  0  0  0  0  0  0  0
  150.5207  138.9713  154.1088 H   0  0  0  0  0  0  0  0  0  0  0  0
  151.0981  137.0272  153.6088 H   0  0  0  0  0  0  0  0  0  0  0  0
  149.7431  137.1250  156.3939 H   0  0  0  0  0  0  0  0  0  0  0  0
  149.5353  138.8253  156.6512 H   0  0  0  0  0  0  0  0  0  0  0  0
  146.2194  136.7092  153.3395 H   0  0  0  0  0  0  0  0  0  0  0  0
  145.3750  137.3068  154.7771 H   0  0  0  0  0  0  0  0  0  0  0  0
  145.8039  139.5037  154.1873 H   0  0  0  0  0  0  0  0  0  0  0  0
  146.8005  140.0783  151.9739 H   0  0  0  0  0  0  0  0  0  0  0  0
  145.6634  138.7521  151.7732 H   0  0  0  0  0  0  0  0  0  0  0  0
  147.3948  138.4302  151.7785 H   0  0  0  0  0  0  0  0  0  0  0  0
  153.2551  139.4143  158.3172 H   0  0  0  0  0  0  0  0  0  0  0  0
  154.3708  139.6259  160.3703 H   0  0  0  0  0  0  0  0  0  0  0  0
  153.4077  140.3985  161.6270 H   0  0  0  0  0  0  0  0  0  0  0  0
  154.7453  141.2735  160.8661 H   0  0  0  0  0  0  0  0  0  0  0  0
  149.8612  143.1696  156.4289 H   0  0  0  0  0  0  0  0  0  0  0  0
  1  2  1  0  0  0  0
  1 24  1  0  0  0  0
  1 25  1  0  0  0  0
  1 26  1  0  0  0  0
  2 22  1  0  0  0  0
  2  3  2  0  0  0  0
  3  4  1  0  0  0  0
  3 27  1  0  0  0  0
  4 20  2  0  0  0  0
  4  5  1  0  0  0  0
  5  6  2  0  0  0  0
  5 45  1  0  0  0  0
  6  7  1  0  0  0  0
  6 28  1  0  0  0  0
  7  8  1  0  0  0  0
  7 20  1  0  0  0  0
  8  9  1  0  0  0  0
  8 29  1  0  0  0  0
  8 30  1  0  0  0  0
  9 10  1  0  0  0  0
  9 11  1  0  0  0  0
  9 31  1  0  0  0  0
 10 32  1  0  0  0  0
 11 12  1  0  0  0  0
 11 33  1  0  0  0  0
 11 34  1  0  0  0  0
 12 18  1  0  0  0  0
 12 13  1  0  0  0  0
 13 14  2  0  0  0  0
 13 15  1  0  0  0  0
 15 16  1  0  0  0  0
 15 35  1  0  0  0  0
 15 36  1  0  0  0  0
 16 17  1  0  0  0  0
 16 18  1  0  0  0  0
 16 37  1  0  0  0  0
 17 38  1  0  0  0  0
 17 39  1  0  0  0  0
 17 40  1  0  0  0  0
 18 19  2  0  0  0  0
 20 21  1  0  0  0  0
 21 22  2  0  0  0  0
 21 41  1  0  0  0  0
 22 23  1  0  0  0  0
 23 42  1  0  0  0  0
 23 43  1  0  0  0  0
 23 44  1  0  0  0  0
M  CHG  1   5   1
M  END
> <s_m_source_file>
AV-unprocessed.smi

> <i_m_source_file_index>
740

> <i_lp_mmshare_version>
43012

> <i_f3d_flags>
0

> <s_epik_input>
W0NIM11jKFtjSF0xKWMoW0NIM10pW2NIXWMoYzEyKW4oW2NIXW4yKVtDSDJdW0NASF0oW09IXSlbQ0gyXU4zQyg9TylbQ0gyXVtDQEBIXShbQ0gzXSlDMz1P

> <s_epik_cmdline>
J2VwaWtfcHl0aG9uJywgJy1waCcsICc3LjAnLCAnLXRuJywgJzgnLCAnLW1hJywgJzIwMCcsICctbWV0YWxfYmluZGluZycsICctaW1hZScsICc8aW5maWxlLm1hZT4nLCAnLW9tYWUnLCAnPG91dGZpbGUubWFlPic=

> <r_lp_tautomer_probability>
1

> <r_epik_Ionization_Penalty>
1.08202

> <r_epik_Ionization_Penalty_Charging>
1.08202

> <r_epik_Ionization_Penalty_Neutral>
1.16605e-06

> <r_epik_State_Penalty>
1.13754

> <r_epik_Charging_Adjusted_Penalty>
2.21956

> <i_epik_Tot_Q>
1

> <i_epik_Tot_abs_Q>
1

> <r_epik_Metal_State_Penalty>
5.13645

> <b_epik_Metal_Only>
0

> <s_lp_Force_Field>
OPLS_2005

> <r_lp_Energy>
22.4261

> <b_lp_Chiralities_Consistent>
1

> <s_lp_Variant>
AV-unprocessed.smi:740-8

> <Gold.Version>
5.8.1

> <Gold.Id.Protein>
6NUR|6NUR_protein|mol2

> <Gold.PLP.Fitness>
50.7823

> <Gold.PLP.PLP>
-40.5674

> <Gold.PLP.part.hbond>
-2.8958

> <Gold.PLP.part.metal>
0.0000

> <Gold.PLP.part.buried>
-4.4049

> <Gold.PLP.part.nonpolar>
-34.5574

> <Gold.PLP.part.repulsive>
0.7526

> <Gold.PLP.ligand.clash>
0.0000

> <Gold.PLP.ligand.torsion>
0.7693

> <Gold.PLP.Chemscore.Hbond>
3.9100

> <Gold.PLP.Chemscore.CHOScore>
0.0000

> <Gold.PLP.Chemscore.Metal>
0.0000

> <Gold.Chemscore.Hbonds>
donor molecule, donor type, donor heavy atom, donor atom, acceptor molecule, acceptor atom, score
      L1  H     5    45       P1  8028  2.00
      L1  H    10    32       P1  7949  0.18
      P1  H 10752 10764       L1    10  0.38

> <Gold.PLP.Chemscore.Internal.Correction>
0.0234

> <Gold.Rescore>
     Score         DG    S(hbond)    S(metal)    S(lipo)     H(rot)  DE(clash)    DE(int)     intcor
     14.46     -17.27       1.79        0.00     101.61       2.37       0.87       1.94       ----

> <Gold.Chemscore.Fitness>
14.4598

> <Gold.Chemscore.DG>
-17.2711

> <Gold.Chemscore.ZeroCoef>
-5.4800

> <Gold.Chemscore.Hbond>
1.7893

> <Gold.Chemscore.Metal>
0.0000

> <Gold.Chemscore.Lipo>
101.6075

> <Gold.Chemscore.Internal_Hbond>
0.0000

> <Gold.Chemscore.DEClash>
0.8738

> <Gold.Chemscore.DEInternal>
1.9376

> <Gold.Chemscore.Rot>
2.3724

> <Gold.Chemscore.Internal.Correction>
   9.000000E+99

> <Gold.Chemscore.Hbonds>
donor molecule, donor type, donor heavy atom, donor atom, acceptor molecule, acceptor atom, score
      L1  H     5    45       P1  8028  0.97
      L1  H    10    32       P1  7949  0.07
      P1  H 10752 10764       L1    10  0.03

> <Gold.Chemscore.Hbond.Weighted>
-5.9764

> <Gold.Chemscore.Metal.Weighted>
-0.0000

> <Gold.Chemscore.Lipo.Weighted>
-11.8881

> <Gold.Chemscore.Internal_Hbond.Weighted>
0.0000

> <Gold.Chemscore.DEClash.Weighted>
0.8738

> <Gold.Chemscore.DEInternal.Weighted>
1.9376

> <Gold.Chemscore.Rot.Weighted>
6.0734

> <Gold.Chemscore.Internal.Correction.Weighted>
   9.000000E+99

> <Gold.Protein.RotatedTorsions>
[ 6907 6896 6895 6894 ] final  -94.90 input  -60.11 | X-H torsion
[ 7974 7965 7964 7962 ] final -160.91 input  175.53 | X-H torsion
[ 8008 7997 7996 7995 ] final  153.40 input   59.86 | X-H torsion
[ 10167 10162 10161 10158 ] final  -31.25 input  -65.29 | X-H torsion
[ 10718 10713 10712 10709 ] final  -22.01 input   66.30 | X-H torsion
[ 10763 10752 10751 10750 ] final  -76.35 input  -60.55 | X-H torsion
[ 11005 11000 10999 10996 ] final  -33.33 input  -57.11 | X-H torsion

> <Gold.Protein.ActiveResidues>
 VAL166  LYS551  ARG553  GLY616  TRP617  ASP618  TYR619  PRO620  LYS621  CYS622 
 ASP623  PHE694  ASN695  SER759  ASP760  ASP761  ALA762  ILE779  LEU786  VAL792 
 PHE793  MET794  SER795  GLU796  ALA797  LYS798  CYS799  TRP800  GLU811  SER814 

> <Gold.Protein.RotatedAtoms>
  150.6952  134.1741  159.4223 H   0  0  0  0  0  0  0  0  0  0  0  0  # atno 6907 bound_to 6896
  151.9718  135.0070  160.0562 H   0  0  0  0  0  0  0  0  0  0  0  0  # atno 6908 bound_to 6896
  152.1835  133.4688  159.5007 H   0  0  0  0  0  0  0  0  0  0  0  0  # atno 6909 bound_to 6896
  144.7410  140.3473  143.6123 H   0  0  0  0  0  0  0  0  0  0  0  0  # atno 7974 bound_to 7965
  156.2583  140.1995  156.6484 H   0  0  0  0  0  0  0  0  0  0  0  0  # atno 8008 bound_to 7997
  154.6556  140.0567  157.0029 H   0  0  0  0  0  0  0  0  0  0  0  0  # atno 8009 bound_to 7997
  155.1353  140.3237  155.4467 H   0  0  0  0  0  0  0  0  0  0  0  0  # atno 8010 bound_to 7997
  140.7239  143.3785  151.1644 H   0  0  0  0  0  0  0  0  0  0  0  0  # atno 10167 bound_to 10162
  156.5104  130.4608  149.6651 H   0  0  0  0  0  0  0  0  0  0  0  0  # atno 10718 bound_to 10713
  154.4987  135.5800  153.6514 H   0  0  0  0  0  0  0  0  0  0  0  0  # atno 10763 bound_to 10752
  152.9875  135.6130  154.3030 H   0  0  0  0  0  0  0  0  0  0  0  0  # atno 10764 bound_to 10752
  154.2936  135.2848  155.2623 H   0  0  0  0  0  0  0  0  0  0  0  0  # atno 10765 bound_to 10752
  140.9625  133.7156  156.1393 H   0  0  0  0  0  0  0  0  0  0  0  0  # atno 11005 bound_to 11000
  145.7312  139.1737  143.2429 LP  0  0  0  0  0  0  0  0  0  0  0  0  # atno 17320 bound_to 7965
  146.1205  140.7315  142.9460 LP  0  0  0  0  0  0  0  0  0  0  0  0  # atno 17321 bound_to 7965
  139.7370  143.8983  152.3038 LP  0  0  0  0  0  0  0  0  0  0  0  0  # atno 17342 bound_to 10162
  139.8792  144.7027  150.8898 LP  0  0  0  0  0  0  0  0  0  0  0  0  # atno 17343 bound_to 10162
  156.3246  130.7299  151.2217 LP  0  0  0  0  0  0  0  0  0  0  0  0  # atno 17370 bound_to 10713
  157.7451  131.0446  150.4803 LP  0  0  0  0  0  0  0  0  0  0  0  0  # atno 17371 bound_to 10713
  140.7446  134.4112  157.5550 LP  0  0  0  0  0  0  0  0  0  0  0  0  # atno 17394 bound_to 11000
  139.8883  134.8860  156.2481 LP  0  0  0  0  0  0  0  0  0  0  0  0  # atno 17395 bound_to 11000

$$$$
