AV-unprocessed.smi:3031|AV-procd|sdf|11549|dock2
  -GOLD-   2272016503D 1   1.00000     0.00000
 Structure written by MMmdl.
 48 49  0  0  0  0  0  0  0  0  3 V2000
  151.4098  141.0681  158.4047 C   0  0  0  0  0  0  0  0  0  0  0  0
  150.8299  140.9266  157.0269 C   0  0  0  0  0  0  0  0  0  0  0  0
  151.0689  139.8897  156.0814 C   0  0  0  0  0  0  0  0  0  0  0  0
  150.4033  140.0622  154.9511 N   0  0  0  0  0  0  0  0  0  0  0  0
  149.7119  141.2073  155.1358 N   0  0  0  0  0  0  0  0  0  0  0  0
  148.8674  141.7293  154.0732 C   0  0  0  0  0  0  0  0  0  0  0  0
  147.5802  140.9054  153.8613 C   0  0  2  0  0  0  0  0  0  0  0  0
  146.6723  140.9810  155.0994 C   0  0  0  0  0  0  0  0  0  0  0  0
  147.9226  139.5011  153.5391 N   0  3  0  0  0  0  0  0  0  0  0  0
  146.7785  138.5648  153.5014 C   0  0  0  0  0  0  0  0  0  0  0  0
  146.6171  137.9379  152.1056 C   0  0  2  0  0  0  0  0  0  0  0  0
  146.1664  138.9412  151.2149 O   0  0  0  0  0  0  0  0  0  0  0  0
  145.5881  136.7875  152.1075 C   0  0  0  0  0  0  0  0  0  0  0  0
  146.2237  135.4440  152.1102 N   0  3  0  0  0  0  0  0  0  0  0  0
  146.1402  134.7460  153.4180 C   0  0  0  0  0  0  0  0  0  0  0  0
  146.8491  133.3823  153.3467 C   0  0  0  0  0  0  0  0  0  0  0  0
  146.2767  132.6005  152.3064 O   0  0  0  0  0  0  0  0  0  0  0  0
  146.4302  133.2155  151.0337 C   0  0  0  0  0  0  0  0  0  0  0  0
  145.7070  134.5730  151.0271 C   0  0  0  0  0  0  0  0  0  0  0  0
  149.9612  141.7562  156.3761 C   0  0  0  0  0  0  0  0  0  0  0  0
  152.3524  141.6154  158.3885 H   0  0  0  0  0  0  0  0  0  0  0  0
  151.6089  140.0981  158.8607 H   0  0  0  0  0  0  0  0  0  0  0  0
  150.7374  141.6047  159.0746 H   0  0  0  0  0  0  0  0  0  0  0  0
  151.7050  139.0225  156.1821 H   0  0  0  0  0  0  0  0  0  0  0  0
  148.6189  142.7658  154.3065 H   0  0  0  0  0  0  0  0  0  0  0  0
  149.4576  141.7491  153.1561 H   0  0  0  0  0  0  0  0  0  0  0  0
  147.0385  141.3329  153.0162 H   0  0  0  0  0  0  0  0  0  0  0  0
  146.4378  142.0169  155.3466 H   0  0  0  0  0  0  0  0  0  0  0  0
  147.1508  140.5338  155.9714 H   0  0  0  0  0  0  0  0  0  0  0  0
  145.7245  140.4678  154.9381 H   0  0  0  0  0  0  0  0  0  0  0  0
  148.3327  139.4989  152.6156 H   0  0  0  0  0  0  0  0  0  0  0  0
  146.9454  137.7782  154.2374 H   0  0  0  0  0  0  0  0  0  0  0  0
  145.8633  139.0838  153.7909 H   0  0  0  0  0  0  0  0  0  0  0  0
  147.5888  137.5782  151.7675 H   0  0  0  0  0  0  0  0  0  0  0  0
  145.3440  138.6685  150.8353 H   0  0  0  0  0  0  0  0  0  0  0  0
  144.9239  136.8683  152.9696 H   0  0  0  0  0  0  0  0  0  0  0  0
  144.9520  136.8897  151.2263 H   0  0  0  0  0  0  0  0  0  0  0  0
  146.5973  135.3459  154.2040 H   0  0  0  0  0  0  0  0  0  0  0  0
  145.0935  134.6043  153.6923 H   0  0  0  0  0  0  0  0  0  0  0  0
  147.9202  133.5066  153.1787 H   0  0  0  0  0  0  0  0  0  0  0  0
  146.7348  132.8502  154.2913 H   0  0  0  0  0  0  0  0  0  0  0  0
  147.4890  133.3361  150.7986 H   0  0  0  0  0  0  0  0  0  0  0  0
  146.0076  132.5607  150.2712 H   0  0  0  0  0  0  0  0  0  0  0  0
  144.6333  134.4258  151.1558 H   0  0  0  0  0  0  0  0  0  0  0  0
  145.8516  135.0575  150.0604 H   0  0  0  0  0  0  0  0  0  0  0  0
  149.5039  142.6823  156.6925 H   0  0  0  0  0  0  0  0  0  0  0  0
  148.6144  139.1689  154.1956 H   0  0  0  0  0  0  0  0  0  0  0  0
  147.2040  135.5882  151.9116 H   0  0  0  0  0  0  0  0  0  0  0  0
  1  2  1  0  0  0  0
  1 21  1  0  0  0  0
  1 22  1  0  0  0  0
  1 23  1  0  0  0  0
  2 20  2  0  0  0  0
  2  3  1  0  0  0  0
  3  4  2  0  0  0  0
  3 24  1  0  0  0  0
  4  5  1  0  0  0  0
  5  6  1  0  0  0  0
  5 20  1  0  0  0  0
  6  7  1  0  0  0  0
  6 25  1  0  0  0  0
  6 26  1  0  0  0  0
  7  8  1  0  0  0  0
  7  9  1  0  0  0  0
  7 27  1  0  0  0  0
  8 28  1  0  0  0  0
  8 29  1  0  0  0  0
  8 30  1  0  0  0  0
  9 10  1  0  0  0  0
  9 31  1  0  0  0  0
  9 47  1  0  0  0  0
 10 11  1  0  0  0  0
 10 32  1  0  0  0  0
 10 33  1  0  0  0  0
 11 12  1  0  0  0  0
 11 13  1  0  0  0  0
 11 34  1  0  0  0  0
 12 35  1  0  0  0  0
 13 14  1  0  0  0  0
 13 36  1  0  0  0  0
 13 37  1  0  0  0  0
 14 19  1  0  0  0  0
 14 15  1  0  0  0  0
 14 48  1  0  0  0  0
 15 16  1  0  0  0  0
 15 38  1  0  0  0  0
 15 39  1  0  0  0  0
 16 17  1  0  0  0  0
 16 40  1  0  0  0  0
 16 41  1  0  0  0  0
 17 18  1  0  0  0  0
 18 19  1  0  0  0  0
 18 42  1  0  0  0  0
 18 43  1  0  0  0  0
 19 44  1  0  0  0  0
 19 45  1  0  0  0  0
 20 46  1  0  0  0  0
M  CHG  1   9   1
M  CHG  1  14   1
M  END
> <s_m_source_file>
AV-unprocessed.smi

> <i_m_source_file_index>
3031

> <i_lp_mmshare_version>
43012

> <i_f3d_flags>
0

> <s_epik_input>
W0NIM11jMVtjSF1ubihbY0hdMSlbQ0gyXVtDQEhdKFtDSDNdKVtOSF1bQ0gyXVtDQEhdKFtPSF0pW0NIMl1OMltDSDJdW0NIMl1PW0NIMl1bQ0gyXTI=

> <s_epik_cmdline>
J2VwaWtfcHl0aG9uJywgJy1waCcsICc3LjAnLCAnLXRuJywgJzgnLCAnLW1hJywgJzIwMCcsICctbWV0YWxfYmluZGluZycsICctaW1hZScsICc8aW5maWxlLm1hZT4nLCAnLW9tYWUnLCAnPG91dGZpbGUubWFlPic=

> <r_lp_tautomer_probability>
1

> <r_epik_Ionization_Penalty>
1.76542

> <r_epik_Ionization_Penalty_Charging>
1.76348

> <r_epik_Ionization_Penalty_Neutral>
0.00194017

> <r_epik_State_Penalty>
1.49348

> <r_epik_Charging_Adjusted_Penalty>
3.25696

> <i_epik_Tot_Q>
2

> <i_epik_Tot_abs_Q>
2

> <r_epik_Metal_State_Penalty>
1.49349

> <b_epik_Metal_Only>
0

> <s_lp_Force_Field>
OPLS_2005

> <r_lp_Energy>
27.3319

> <b_lp_Chiralities_Consistent>
1

> <s_lp_Variant>
AV-unprocessed.smi:3031-9

> <Gold.Version>
5.8.1

> <Gold.Id.Protein>
6NUR|6NUR_protein|mol2

> <Gold.PLP.Fitness>
51.3332

> <Gold.PLP.PLP>
-36.7830

> <Gold.PLP.part.hbond>
-5.0000

> <Gold.PLP.part.metal>
0.0000

> <Gold.PLP.part.buried>
-0.0919

> <Gold.PLP.part.nonpolar>
-31.8895

> <Gold.PLP.part.repulsive>
0.3121

> <Gold.PLP.ligand.clash>
0.0000

> <Gold.PLP.ligand.torsion>
1.8753

> <Gold.PLP.Chemscore.Hbond>
5.0000

> <Gold.PLP.Chemscore.CHOScore>
1.0000

> <Gold.PLP.Chemscore.Metal>
0.0000

> <Gold.Chemscore.Hbonds>
donor molecule, donor type, donor heavy atom, donor atom, acceptor molecule, acceptor atom, score
      L1  H     9    31       P1  7957  1.00
      L1  H    12    35       P1 10171  1.00
      L1  H    14    48       P1  7948  2.00
      P1  H  7989  7998       L1     4  0.64
      L1  C    20    46       P1  8028  1.00

> <Gold.PLP.Chemscore.Internal.Correction>
0.3009

> <Gold.Rescore>
     Score         DG    S(hbond)    S(metal)    S(lipo)     H(rot)  DE(clash)    DE(int)     intcor
     17.48     -20.38       3.76        0.00      80.18       2.74       0.86       2.04       ----

> <Gold.Chemscore.Fitness>
17.4849

> <Gold.Chemscore.DG>
-20.3817

> <Gold.Chemscore.ZeroCoef>
-5.4800

> <Gold.Chemscore.Hbond>
3.7557

> <Gold.Chemscore.Metal>
0.0000

> <Gold.Chemscore.Lipo>
80.1765

> <Gold.Chemscore.Internal_Hbond>
0.0000

> <Gold.Chemscore.DEClash>
0.8563

> <Gold.Chemscore.DEInternal>
2.0404

> <Gold.Chemscore.Rot>
2.7434

> <Gold.Chemscore.Internal.Correction>
   9.000000E+99

> <Gold.Chemscore.Hbonds>
donor molecule, donor type, donor heavy atom, donor atom, acceptor molecule, acceptor atom, score
      L1  H     9    31       P1  7957  0.95
      L1  H    12    35       P1 10171  1.00
      L1  H    14    48       P1  7948  1.00
      P1  H  7989  7998       L1     4  0.05

> <Gold.Chemscore.Hbond.Weighted>
-12.5442

> <Gold.Chemscore.Metal.Weighted>
-0.0000

> <Gold.Chemscore.Lipo.Weighted>
-9.3806

> <Gold.Chemscore.Internal_Hbond.Weighted>
0.0000

> <Gold.Chemscore.DEClash.Weighted>
0.8563

> <Gold.Chemscore.DEInternal.Weighted>
2.0404

> <Gold.Chemscore.Rot.Weighted>
7.0231

> <Gold.Chemscore.Internal.Correction.Weighted>
   9.000000E+99

> <Gold.Protein.RotatedTorsions>
[ 6907 6896 6895 6894 ] final  -48.62 input  -60.11 | X-H torsion
[ 7974 7965 7964 7962 ] final  -84.11 input  175.53 | X-H torsion
[ 8008 7997 7996 7995 ] final -162.89 input   59.86 | X-H torsion
[ 10167 10162 10161 10158 ] final  115.95 input  -65.29 | X-H torsion
[ 10718 10713 10712 10709 ] final  110.75 input   66.30 | X-H torsion
[ 10763 10752 10751 10750 ] final  -56.86 input  -60.55 | X-H torsion
[ 11005 11000 10999 10996 ] final -168.67 input  -57.11 | X-H torsion

> <Gold.Protein.ActiveResidues>
 VAL166  LYS551  ARG553  GLY616  TRP617  ASP618  TYR619  PRO620  LYS621  CYS622 
 ASP623  PHE694  ASN695  SER759  ASP760  ASP761  ALA762  ILE779  LEU786  VAL792 
 PHE793  MET794  SER795  GLU796  ALA797  LYS798  CYS799  TRP800  GLU811  SER814 

> <Gold.Protein.RotatedAtoms>
  150.8887  134.8287  159.7277 H   0  0  0  0  0  0  0  0  0  0  0  0  # atno 6907 bound_to 6896
  152.4823  134.4683  159.9637 H   0  0  0  0  0  0  0  0  0  0  0  0  # atno 6908 bound_to 6896
  151.4748  133.3521  159.2864 H   0  0  0  0  0  0  0  0  0  0  0  0  # atno 6909 bound_to 6896
  145.5110  140.9540  143.1707 H   0  0  0  0  0  0  0  0  0  0  0  0  # atno 7974 bound_to 7965
  155.8133  140.0909  157.1891 H   0  0  0  0  0  0  0  0  0  0  0  0  # atno 8008 bound_to 7997
  154.3979  140.1450  156.3472 H   0  0  0  0  0  0  0  0  0  0  0  0  # atno 8009 bound_to 7997
  155.8342  140.3441  155.5594 H   0  0  0  0  0  0  0  0  0  0  0  0  # atno 8010 bound_to 7997
  139.6281  144.7111  151.2490 H   0  0  0  0  0  0  0  0  0  0  0  0  # atno 10167 bound_to 10162
  157.6479  131.0938  150.6647 H   0  0  0  0  0  0  0  0  0  0  0  0  # atno 10718 bound_to 10713
  154.2133  135.6390  153.5122 H   0  0  0  0  0  0  0  0  0  0  0  0  # atno 10763 bound_to 10752
  152.9985  135.5479  154.6192 H   0  0  0  0  0  0  0  0  0  0  0  0  # atno 10764 bound_to 10752
  154.5634  135.2911  155.0871 H   0  0  0  0  0  0  0  0  0  0  0  0  # atno 10765 bound_to 10752
  140.5394  134.5537  157.5096 H   0  0  0  0  0  0  0  0  0  0  0  0  # atno 11005 bound_to 11000
  144.7728  139.6697  143.7188 LP  0  0  0  0  0  0  0  0  0  0  0  0  # atno 17320 bound_to 7965
  146.2167  139.5561  142.9645 LP  0  0  0  0  0  0  0  0  0  0  0  0  # atno 17321 bound_to 7965
  140.7423  143.6531  150.8231 LP  0  0  0  0  0  0  0  0  0  0  0  0  # atno 17342 bound_to 10162
  140.0152  143.5601  152.2823 LP  0  0  0  0  0  0  0  0  0  0  0  0  # atno 17343 bound_to 10162
  156.6962  130.4610  149.5585 LP  0  0  0  0  0  0  0  0  0  0  0  0  # atno 17370 bound_to 10713
  156.1827  130.6509  151.0970 LP  0  0  0  0  0  0  0  0  0  0  0  0  # atno 17371 bound_to 10713
  139.9512  134.7614  156.0445 LP  0  0  0  0  0  0  0  0  0  0  0  0  # atno 17394 bound_to 11000
  141.1236  133.6605  156.3278 LP  0  0  0  0  0  0  0  0  0  0  0  0  # atno 17395 bound_to 11000

$$$$
