AV-unprocessed.smi:3046|AV-procd|sdf|11616|dock3
  -GOLD-   2272017 03D 1   1.00000     0.00000
 Structure written by MMmdl.
 38 38  0  0  0  0  0  0  0  0  2 V2000
  145.2736  143.4894  154.3907 C   0  0  0  0  0  0  0  0  0  0  0  0
  144.9583  142.9308  155.5687 C   0  0  0  0  0  0  0  0  0  0  0  0
  145.9183  142.7794  156.7287 C   0  0  0  0  0  0  0  0  0  0  0  0
  147.2580  142.4779  156.2470 N   0  0  0  0  0  0  0  0  0  0  0  0
  147.9033  141.3264  156.4811 C   0  0  0  0  0  0  0  0  0  0  0  0
  147.4212  140.4044  157.1400 O   0  0  0  0  0  0  0  0  0  0  0  0
  149.3158  141.1992  155.8954 C   0  0  1  0  0  0  0  0  0  0  0  0
  149.2452  141.1726  154.3611 C   0  0  0  0  0  0  0  0  0  0  0  0
  150.1952  142.3079  156.3364 N   0  3  0  0  0  0  0  0  0  0  0  0
  150.6534  142.2489  157.7447 C   0  0  1  0  0  0  0  0  0  0  0  0
  151.4405  140.9492  157.9770 C   0  0  0  0  0  0  0  0  0  0  0  0
  151.4761  143.5079  158.0924 C   0  0  0  0  0  0  0  0  0  0  0  0
  151.8889  143.5430  159.4834 N   0  0  0  0  0  0  0  0  0  0  0  0
  151.5763  144.4739  160.4518 C   0  0  0  0  0  0  0  0  0  0  0  0
  152.1888  144.0785  161.6064 C   0  0  0  0  0  0  0  0  0  0  0  0
  152.8562  142.8760  161.2412 C   0  0  0  0  0  0  0  0  0  0  0  0
  152.6735  142.5574  159.9700 N   0  0  0  0  0  0  0  0  0  0  0  0
  146.2653  143.8714  154.1974 H   0  0  0  0  0  0  0  0  0  0  0  0
  144.5401  143.5717  153.6020 H   0  0  0  0  0  0  0  0  0  0  0  0
  143.9541  142.5640  155.7251 H   0  0  0  0  0  0  0  0  0  0  0  0
  145.9350  143.6915  157.3275 H   0  0  0  0  0  0  0  0  0  0  0  0
  145.5662  141.9705  157.3706 H   0  0  0  0  0  0  0  0  0  0  0  0
  147.7226  143.1921  155.7047 H   0  0  0  0  0  0  0  0  0  0  0  0
  149.7613  140.2578  156.2223 H   0  0  0  0  0  0  0  0  0  0  0  0
  148.6306  140.3437  154.0073 H   0  0  0  0  0  0  0  0  0  0  0  0
  150.2376  141.0502  153.9258 H   0  0  0  0  0  0  0  0  0  0  0  0
  148.8208  142.0948  153.9615 H   0  0  0  0  0  0  0  0  0  0  0  0
  151.0200  142.2844  155.7541 H   0  0  0  0  0  0  0  0  0  0  0  0
  149.7816  142.2184  158.4006 H   0  0  0  0  0  0  0  0  0  0  0  0
  151.7265  140.8362  159.0230 H   0  0  0  0  0  0  0  0  0  0  0  0
  152.3516  140.9243  157.3782 H   0  0  0  0  0  0  0  0  0  0  0  0
  150.8426  140.0772  157.7103 H   0  0  0  0  0  0  0  0  0  0  0  0
  152.3667  143.5639  157.4652 H   0  0  0  0  0  0  0  0  0  0  0  0
  150.9003  144.4120  157.8936 H   0  0  0  0  0  0  0  0  0  0  0  0
  150.9536  145.3312  160.2422 H   0  0  0  0  0  0  0  0  0  0  0  0
  152.1622  144.5717  162.5668 H   0  0  0  0  0  0  0  0  0  0  0  0
  153.4632  142.2294  161.8577 H   0  0  0  0  0  0  0  0  0  0  0  0
  149.7187  143.1845  156.1779 H   0  0  0  0  0  0  0  0  0  0  0  0
  1  2  2  0  0  0  0
  1 18  1  0  0  0  0
  1 19  1  0  0  0  0
  2  3  1  0  0  0  0
  2 20  1  0  0  0  0
  3  4  1  0  0  0  0
  3 21  1  0  0  0  0
  3 22  1  0  0  0  0
  4  5  1  0  0  0  0
  4 23  1  0  0  0  0
  5  6  2  0  0  0  0
  5  7  1  0  0  0  0
  7  8  1  0  0  0  0
  7  9  1  0  0  0  0
  7 24  1  0  0  0  0
  8 25  1  0  0  0  0
  8 26  1  0  0  0  0
  8 27  1  0  0  0  0
  9 10  1  0  0  0  0
  9 28  1  0  0  0  0
  9 38  1  0  0  0  0
 10 11  1  0  0  0  0
 10 12  1  0  0  0  0
 10 29  1  0  0  0  0
 11 30  1  0  0  0  0
 11 31  1  0  0  0  0
 11 32  1  0  0  0  0
 12 13  1  0  0  0  0
 12 33  1  0  0  0  0
 12 34  1  0  0  0  0
 13 17  1  0  0  0  0
 13 14  1  0  0  0  0
 14 15  2  0  0  0  0
 14 35  1  0  0  0  0
 15 16  1  0  0  0  0
 15 36  1  0  0  0  0
 16 17  2  0  0  0  0
 16 37  1  0  0  0  0
M  CHG  1   9   1
M  END
> <s_m_source_file>
AV-unprocessed.smi

> <i_m_source_file_index>
3046

> <i_lp_mmshare_version>
43012

> <i_f3d_flags>
0

> <s_epik_input>
W0NIMl09W0NIXVtDSDJdW05IXUMoPU8pW0NASF0oW0NIM10pW05IXVtDQEhdKFtDSDNdKVtDSDJdbjFbY0hdW2NIXVtjSF1uMQ==

> <s_epik_cmdline>
J2VwaWtfcHl0aG9uJywgJy1waCcsICc3LjAnLCAnLXRuJywgJzgnLCAnLW1hJywgJzIwMCcsICctbWV0YWxfYmluZGluZycsICctaW1hZScsICc8aW5maWxlLm1hZT4nLCAnLW9tYWUnLCAnPG91dGZpbGUubWFlPic=

> <r_lp_tautomer_probability>
1

> <r_epik_Ionization_Penalty>
0.132961

> <r_epik_Ionization_Penalty_Charging>
0.132956

> <r_epik_Ionization_Penalty_Neutral>
5.00268e-06

> <r_epik_State_Penalty>
0.122332

> <r_epik_Charging_Adjusted_Penalty>
0.255288

> <i_epik_Tot_Q>
1

> <i_epik_Tot_abs_Q>
1

> <r_epik_Metal_State_Penalty>
0.122338

> <b_epik_Metal_Only>
0

> <s_lp_Force_Field>
OPLS_2005

> <r_lp_Energy>
6.90886

> <b_lp_Chiralities_Consistent>
1

> <s_lp_Variant>
AV-unprocessed.smi:3046-4

> <Gold.Version>
5.8.1

> <Gold.Id.Protein>
6NUR|6NUR_protein|mol2

> <Gold.PLP.Fitness>
45.0994

> <Gold.PLP.PLP>
-36.7235

> <Gold.PLP.part.hbond>
-2.0000

> <Gold.PLP.part.metal>
0.0000

> <Gold.PLP.part.buried>
-5.2463

> <Gold.PLP.part.nonpolar>
-29.7318

> <Gold.PLP.part.repulsive>
0.1079

> <Gold.PLP.ligand.clash>
0.0000

> <Gold.PLP.ligand.torsion>
0.3478

> <Gold.PLP.Chemscore.Hbond>
2.9920

> <Gold.PLP.Chemscore.CHOScore>
0.0000

> <Gold.PLP.Chemscore.Metal>
0.0000

> <Gold.Chemscore.Hbonds>
donor molecule, donor type, donor heavy atom, donor atom, acceptor molecule, acceptor atom, score
      L1  H     4    23       P1  8028  0.99
      L1  H     9    38       P1  8028  2.00

> <Gold.PLP.Chemscore.Internal.Correction>
0.0956

> <Gold.Rescore>
     Score         DG    S(hbond)    S(metal)    S(lipo)     H(rot)  DE(clash)    DE(int)     intcor
     13.36     -15.24       1.57        0.00      88.03       2.26       0.17       1.70       ----

> <Gold.Chemscore.Fitness>
13.3645

> <Gold.Chemscore.DG>
-15.2418

> <Gold.Chemscore.ZeroCoef>
-5.4800

> <Gold.Chemscore.Hbond>
1.5733

> <Gold.Chemscore.Metal>
0.0000

> <Gold.Chemscore.Lipo>
88.0286

> <Gold.Chemscore.Internal_Hbond>
0.0000

> <Gold.Chemscore.DEClash>
0.1739

> <Gold.Chemscore.DEInternal>
1.7034

> <Gold.Chemscore.Rot>
2.2626

> <Gold.Chemscore.Internal.Correction>
   9.000000E+99

> <Gold.Chemscore.Hbonds>
donor molecule, donor type, donor heavy atom, donor atom, acceptor molecule, acceptor atom, score
      L1  H     4    23       P1  8028  0.28
      L1  H     9    38       P1  8028  1.00

> <Gold.Chemscore.Hbond.Weighted>
-5.2547

> <Gold.Chemscore.Metal.Weighted>
-0.0000

> <Gold.Chemscore.Lipo.Weighted>
-10.2993

> <Gold.Chemscore.Internal_Hbond.Weighted>
0.0000

> <Gold.Chemscore.DEClash.Weighted>
0.1739

> <Gold.Chemscore.DEInternal.Weighted>
1.7034

> <Gold.Chemscore.Rot.Weighted>
5.7922

> <Gold.Chemscore.Internal.Correction.Weighted>
   9.000000E+99

> <Gold.Protein.RotatedTorsions>
[ 6907 6896 6895 6894 ] final  103.85 input  -60.11 | X-H torsion
[ 7974 7965 7964 7962 ] final   -5.00 input  175.53 | X-H torsion
[ 8008 7997 7996 7995 ] final  -72.83 input   59.86 | X-H torsion
[ 10167 10162 10161 10158 ] final -129.40 input  -65.29 | X-H torsion
[ 10718 10713 10712 10709 ] final   26.20 input   66.30 | X-H torsion
[ 10763 10752 10751 10750 ] final  179.63 input  -60.55 | X-H torsion
[ 11005 11000 10999 10996 ] final -139.54 input  -57.11 | X-H torsion

> <Gold.Protein.ActiveResidues>
 VAL166  LYS551  ARG553  GLY616  TRP617  ASP618  TYR619  PRO620  LYS621  CYS622 
 ASP623  PHE694  ASN695  SER759  ASP760  ASP761  ALA762  ILE779  LEU786  VAL792 
 PHE793  MET794  SER795  GLU796  ALA797  LYS798  CYS799  TRP800  GLU811  SER814 

> <Gold.Protein.RotatedAtoms>
  152.5283  133.9764  159.7785 H   0  0  0  0  0  0  0  0  0  0  0  0  # atno 6907 bound_to 6896
  151.0026  133.6034  159.2700 H   0  0  0  0  0  0  0  0  0  0  0  0  # atno 6908 bound_to 6896
  151.3137  135.0807  159.9334 H   0  0  0  0  0  0  0  0  0  0  0  0  # atno 6909 bound_to 6896
  146.2361  140.1956  142.8333 H   0  0  0  0  0  0  0  0  0  0  0  0  # atno 7974 bound_to 7965
  154.5198  140.0790  156.8150 H   0  0  0  0  0  0  0  0  0  0  0  0  # atno 8008 bound_to 7997
  155.3601  140.3417  155.4222 H   0  0  0  0  0  0  0  0  0  0  0  0  # atno 8009 bound_to 7997
  156.1668  140.1606  156.8504 H   0  0  0  0  0  0  0  0  0  0  0  0  # atno 8010 bound_to 7997
  139.9401  143.6172  152.2506 H   0  0  0  0  0  0  0  0  0  0  0  0  # atno 10167 bound_to 10162
  157.2036  130.6901  149.6199 H   0  0  0  0  0  0  0  0  0  0  0  0  # atno 10718 bound_to 10713
  154.5231  135.2795  155.1245 H   0  0  0  0  0  0  0  0  0  0  0  0  # atno 10763 bound_to 10752
  154.2795  135.6288  153.5345 H   0  0  0  0  0  0  0  0  0  0  0  0  # atno 10764 bound_to 10752
  152.9941  135.5647  154.5725 H   0  0  0  0  0  0  0  0  0  0  0  0  # atno 10765 bound_to 10752
  140.8510  134.2286  157.4760 H   0  0  0  0  0  0  0  0  0  0  0  0  # atno 11005 bound_to 11000
  144.9823  140.8471  143.5390 LP  0  0  0  0  0  0  0  0  0  0  0  0  # atno 17320 bound_to 7965
  145.1951  139.2281  143.5222 LP  0  0  0  0  0  0  0  0  0  0  0  0  # atno 17321 bound_to 7965
  139.6711  144.7661  151.1781 LP  0  0  0  0  0  0  0  0  0  0  0  0  # atno 17342 bound_to 10162
  140.7613  143.5864  150.8842 LP  0  0  0  0  0  0  0  0  0  0  0  0  # atno 17343 bound_to 10162
  155.9698  130.4574  150.5962 LP  0  0  0  0  0  0  0  0  0  0  0  0  # atno 17370 bound_to 10713
  157.3742  131.0770  151.1532 LP  0  0  0  0  0  0  0  0  0  0  0  0  # atno 17371 bound_to 10713
  139.8704  134.9683  156.4627 LP  0  0  0  0  0  0  0  0  0  0  0  0  # atno 17394 bound_to 11000
  140.8790  133.7932  155.9446 LP  0  0  0  0  0  0  0  0  0  0  0  0  # atno 17395 bound_to 11000

$$$$
