AV-unprocessed.smi:2702|AV-procd|sdf|10431|dock2
  -GOLD-   2272014473D 1   1.00000     0.00000
 Structure written by MMmdl.
 47 48  0  0  0  0  0  0  0  0  1 V2000
  148.3947  133.6109  153.8073 C   0  0  0  0  0  0  0  0  0  0  0  0
  148.8959  134.6692  154.6045 O   0  0  0  0  0  0  0  0  0  0  0  0
  150.3125  134.7014  154.6365 C   0  0  0  0  0  0  0  0  0  0  0  0
  150.8012  136.0872  155.0049 C   0  0  0  0  0  0  0  0  0  0  0  0
  150.3821  137.1924  154.3453 C   0  0  0  0  0  0  0  0  0  0  0  0
  150.8839  138.5164  154.7133 C   0  0  0  0  0  0  0  0  0  0  0  0
  150.5173  139.5464  154.1468 O   0  0  0  0  0  0  0  0  0  0  0  0
  151.7930  138.5234  155.7325 N   0  0  0  0  0  0  0  0  0  0  0  0
  152.3982  139.7796  156.2121 C   0  0  0  0  0  0  0  0  0  0  0  0
  151.8148  140.2784  157.5422 C   0  0  0  0  0  0  0  0  0  0  0  0
  150.8866  139.6842  158.0929 O   0  0  0  0  0  0  0  0  0  0  0  0
  152.3893  141.3776  158.0527 N   0  0  0  0  0  0  0  0  0  0  0  0
  152.0086  142.0292  159.3037 C   0  0  1  0  0  0  0  0  0  0  0  0
  153.1012  141.7968  160.3648 C   0  0  0  0  0  0  0  0  0  0  0  0
  152.7193  142.4388  161.7067 C   0  0  0  0  0  0  0  0  0  0  0  0
  152.3975  143.9329  161.5464 C   0  0  0  0  0  0  0  0  0  0  0  0
  151.3084  144.1645  160.4794 C   0  0  1  0  0  0  0  0  0  0  0  0
  150.9058  145.6457  160.3871 C   0  0  0  0  0  0  0  0  0  0  0  0
  151.7043  143.5410  159.1141 C   0  0  1  0  0  0  0  0  0  0  0  0
  152.8388  144.3046  158.3913 C   0  0  0  0  0  0  0  0  0  0  0  0
  152.1974  137.3409  156.3840 C   0  0  0  0  0  0  0  0  0  0  0  0
  151.7351  136.1806  156.0416 N   0  0  0  0  0  0  0  0  0  0  0  0
  147.3049  133.6302  153.8174 H   0  0  0  0  0  0  0  0  0  0  0  0
  148.7180  132.6417  154.1892 H   0  0  0  0  0  0  0  0  0  0  0  0
  148.7236  133.7073  152.7716 H   0  0  0  0  0  0  0  0  0  0  0  0
  150.6875  133.9828  155.3676 H   0  0  0  0  0  0  0  0  0  0  0  0
  150.7193  134.4151  153.6650 H   0  0  0  0  0  0  0  0  0  0  0  0
  149.6678  137.1033  153.5399 H   0  0  0  0  0  0  0  0  0  0  0  0
  153.4784  139.6770  156.3310 H   0  0  0  0  0  0  0  0  0  0  0  0
  152.2733  140.5616  155.4605 H   0  0  0  0  0  0  0  0  0  0  0  0
  153.1449  141.8000  157.5333 H   0  0  0  0  0  0  0  0  0  0  0  0
  151.1010  141.5438  159.6688 H   0  0  0  0  0  0  0  0  0  0  0  0
  153.2585  140.7270  160.5084 H   0  0  0  0  0  0  0  0  0  0  0  0
  154.0539  142.2021  160.0223 H   0  0  0  0  0  0  0  0  0  0  0  0
  151.8517  141.9237  162.1212 H   0  0  0  0  0  0  0  0  0  0  0  0
  153.5282  142.3072  162.4259 H   0  0  0  0  0  0  0  0  0  0  0  0
  152.0683  144.3341  162.5055 H   0  0  0  0  0  0  0  0  0  0  0  0
  153.3043  144.4791  161.2848 H   0  0  0  0  0  0  0  0  0  0  0  0
  150.4174  143.6331  160.8184 H   0  0  0  0  0  0  0  0  0  0  0  0
  151.7564  146.2840  160.1481 H   0  0  0  0  0  0  0  0  0  0  0  0
  150.4960  145.9949  161.3351 H   0  0  0  0  0  0  0  0  0  0  0  0
  150.1429  145.8000  159.6237 H   0  0  0  0  0  0  0  0  0  0  0  0
  150.8291  143.6144  158.4667 H   0  0  0  0  0  0  0  0  0  0  0  0
  153.7614  144.3147  158.9706 H   0  0  0  0  0  0  0  0  0  0  0  0
  152.5616  145.3397  158.1948 H   0  0  0  0  0  0  0  0  0  0  0  0
  153.0665  143.8615  157.4219 H   0  0  0  0  0  0  0  0  0  0  0  0
  152.9191  137.4738  157.1917 H   0  0  0  0  0  0  0  0  0  0  0  0
  1  2  1  0  0  0  0
  1 23  1  0  0  0  0
  1 24  1  0  0  0  0
  1 25  1  0  0  0  0
  2  3  1  0  0  0  0
  3  4  1  0  0  0  0
  3 26  1  0  0  0  0
  3 27  1  0  0  0  0
  4 22  1  0  0  0  0
  4  5  2  0  0  0  0
  5  6  1  0  0  0  0
  5 28  1  0  0  0  0
  6  7  2  0  0  0  0
  6  8  1  0  0  0  0
  8  9  1  0  0  0  0
  8 21  1  0  0  0  0
  9 10  1  0  0  0  0
  9 29  1  0  0  0  0
  9 30  1  0  0  0  0
 10 11  2  0  0  0  0
 10 12  1  0  0  0  0
 12 13  1  0  0  0  0
 12 31  1  0  0  0  0
 13 19  1  0  0  0  0
 13 14  1  0  0  0  0
 13 32  1  0  0  0  0
 14 15  1  0  0  0  0
 14 33  1  0  0  0  0
 14 34  1  0  0  0  0
 15 16  1  0  0  0  0
 15 35  1  0  0  0  0
 15 36  1  0  0  0  0
 16 17  1  0  0  0  0
 16 37  1  0  0  0  0
 16 38  1  0  0  0  0
 17 18  1  0  0  0  0
 17 19  1  0  0  0  0
 17 39  1  0  0  0  0
 18 40  1  0  0  0  0
 18 41  1  0  0  0  0
 18 42  1  0  0  0  0
 19 20  1  0  0  0  0
 19 43  1  0  0  0  0
 20 44  1  0  0  0  0
 20 45  1  0  0  0  0
 20 46  1  0  0  0  0
 21 22  2  0  0  0  0
 21 47  1  0  0  0  0
M  END
> <s_m_source_file>
AV-unprocessed.smi

> <i_m_source_file_index>
2702

> <i_lp_mmshare_version>
43012

> <i_f3d_flags>
0

> <s_epik_input>
W0NIM11PW0NIMl1jMVtjSF1jKD1PKW4oW2NIXW4xKVtDSDJdQyg9TylbTkhdW0NAQEhdMltDSDJdW0NIMl1bQ0gyXVtDQEBIXShbQ0gzXSlbQ0BIXTJbQ0gzXQ==

> <s_epik_cmdline>
J2VwaWtfcHl0aG9uJywgJy1waCcsICc3LjAnLCAnLXRuJywgJzgnLCAnLW1hJywgJzIwMCcsICctbWV0YWxfYmluZGluZycsICctaW1hZScsICc8aW5maWxlLm1hZT4nLCAnLW9tYWUnLCAnPG91dGZpbGUubWFlPic=

> <r_lp_tautomer_probability>
1

> <r_epik_Ionization_Penalty>
1.22164e-06

> <r_epik_Ionization_Penalty_Charging>
3.17988e-07

> <r_epik_Ionization_Penalty_Neutral>
9.03656e-07

> <r_epik_State_Penalty>
-0

> <r_epik_Charging_Adjusted_Penalty>
3.17988e-07

> <i_epik_Tot_Q>
0

> <i_epik_Tot_abs_Q>
0

> <r_epik_Metal_State_Penalty>
-0

> <b_epik_Metal_Only>
0

> <s_lp_Force_Field>
OPLS_2005

> <r_lp_Energy>
18.9829

> <b_lp_Chiralities_Consistent>
1

> <s_lp_Variant>
AV-unprocessed.smi:2702-2

> <Gold.Version>
5.8.1

> <Gold.Id.Protein>
6NUR|6NUR_protein|mol2

> <Gold.PLP.Fitness>
46.7706

> <Gold.PLP.PLP>
-41.6484

> <Gold.PLP.part.hbond>
-2.0000

> <Gold.PLP.part.metal>
0.0000

> <Gold.PLP.part.buried>
1.5716

> <Gold.PLP.part.nonpolar>
-41.4501

> <Gold.PLP.part.repulsive>
0.4050

> <Gold.PLP.ligand.clash>
0.0000

> <Gold.PLP.ligand.torsion>
0.4816

> <Gold.PLP.Chemscore.Hbond>
2.0000

> <Gold.PLP.Chemscore.CHOScore>
0.0000

> <Gold.PLP.Chemscore.Metal>
0.0000

> <Gold.Chemscore.Hbonds>
donor molecule, donor type, donor heavy atom, donor atom, acceptor molecule, acceptor atom, score
      P1  H  7989  7998       L1     7  1.00
      P1  H 10752 10764       L1    22  1.00

> <Gold.PLP.Chemscore.Internal.Correction>
0.0854

> <Gold.Rescore>
     Score         DG    S(hbond)    S(metal)    S(lipo)     H(rot)  DE(clash)    DE(int)     intcor
     16.94     -17.77       1.00        0.00     118.67       1.93       0.33       0.49       ----

> <Gold.Chemscore.Fitness>
16.9447

> <Gold.Chemscore.DG>
-17.7668

> <Gold.Chemscore.ZeroCoef>
-5.4800

> <Gold.Chemscore.Hbond>
0.9996

> <Gold.Chemscore.Metal>
0.0000

> <Gold.Chemscore.Lipo>
118.6742

> <Gold.Chemscore.Internal_Hbond>
0.0000

> <Gold.Chemscore.DEClash>
0.3308

> <Gold.Chemscore.DEInternal>
0.4913

> <Gold.Chemscore.Rot>
1.9284

> <Gold.Chemscore.Internal.Correction>
   9.000000E+99

> <Gold.Chemscore.Hbonds>
donor molecule, donor type, donor heavy atom, donor atom, acceptor molecule, acceptor atom, score
      P1  H  7989  7998       L1     7  1.00
      P1  H 10752 10764       L1    22  0.08

> <Gold.Chemscore.Hbond.Weighted>
-3.3387

> <Gold.Chemscore.Metal.Weighted>
-0.0000

> <Gold.Chemscore.Lipo.Weighted>
-13.8849

> <Gold.Chemscore.Internal_Hbond.Weighted>
0.0000

> <Gold.Chemscore.DEClash.Weighted>
0.3308

> <Gold.Chemscore.DEInternal.Weighted>
0.4913

> <Gold.Chemscore.Rot.Weighted>
4.9368

> <Gold.Chemscore.Internal.Correction.Weighted>
   9.000000E+99

> <Gold.Protein.RotatedTorsions>
[ 6907 6896 6895 6894 ] final   23.90 input  -60.11 | X-H torsion
[ 7974 7965 7964 7962 ] final -156.25 input  175.53 | X-H torsion
[ 8008 7997 7996 7995 ] final -143.75 input   59.86 | X-H torsion
[ 10167 10162 10161 10158 ] final   73.44 input  -65.29 | X-H torsion
[ 10718 10713 10712 10709 ] final  161.82 input   66.30 | X-H torsion
[ 10763 10752 10751 10750 ] final  -18.09 input  -60.55 | X-H torsion
[ 11005 11000 10999 10996 ] final   62.30 input  -57.11 | X-H torsion

> <Gold.Protein.ActiveResidues>
 VAL166  LYS551  ARG553  GLY616  TRP617  ASP618  TYR619  PRO620  LYS621  CYS622 
 ASP623  PHE694  ASN695  SER759  ASP760  ASP761  ALA762  ILE779  LEU786  VAL792 
 PHE793  MET794  SER795  GLU796  ALA797  LYS798  CYS799  TRP800  GLU811  SER814 

> <Gold.Protein.RotatedAtoms>
  151.9493  135.0176  160.0540 H   0  0  0  0  0  0  0  0  0  0  0  0  # atno 6907 bound_to 6896
  152.1967  133.4807  159.5045 H   0  0  0  0  0  0  0  0  0  0  0  0  # atno 6908 bound_to 6896
  150.6946  134.1560  159.4201 H   0  0  0  0  0  0  0  0  0  0  0  0  # atno 6909 bound_to 6896
  144.7602  140.4136  143.5982 H   0  0  0  0  0  0  0  0  0  0  0  0  # atno 7974 bound_to 7965
  155.5156  140.0587  157.2916 H   0  0  0  0  0  0  0  0  0  0  0  0  # atno 8008 bound_to 7997
  154.4536  140.1961  156.0393 H   0  0  0  0  0  0  0  0  0  0  0  0  # atno 8009 bound_to 7997
  156.0754  140.3254  155.7631 H   0  0  0  0  0  0  0  0  0  0  0  0  # atno 8010 bound_to 7997
  140.0245  144.5514  150.7555 H   0  0  0  0  0  0  0  0  0  0  0  0  # atno 10167 bound_to 10162
  157.1312  131.0517  151.2370 H   0  0  0  0  0  0  0  0  0  0  0  0  # atno 10718 bound_to 10713
  153.5839  135.7004  153.5451 H   0  0  0  0  0  0  0  0  0  0  0  0  # atno 10763 bound_to 10752
  153.3237  135.4067  155.1438 H   0  0  0  0  0  0  0  0  0  0  0  0  # atno 10764 bound_to 10752
  154.8612  135.3702  154.5368 H   0  0  0  0  0  0  0  0  0  0  0  0  # atno 10765 bound_to 10752
  140.0101  134.6309  155.9793 H   0  0  0  0  0  0  0  0  0  0  0  0  # atno 11005 bound_to 11000
  145.6645  139.1587  143.2789 LP  0  0  0  0  0  0  0  0  0  0  0  0  # atno 17320 bound_to 7965
  146.1656  140.6722  142.9257 LP  0  0  0  0  0  0  0  0  0  0  0  0  # atno 17321 bound_to 7965
  140.7328  143.2710  151.3888 LP  0  0  0  0  0  0  0  0  0  0  0  0  # atno 17342 bound_to 10162
  139.6117  144.1084  152.2306 LP  0  0  0  0  0  0  0  0  0  0  0  0  # atno 17343 bound_to 10162
  157.4390  130.7533  149.7053 LP  0  0  0  0  0  0  0  0  0  0  0  0  # atno 17370 bound_to 10713
  155.9807  130.4026  150.3511 LP  0  0  0  0  0  0  0  0  0  0  0  0  # atno 17371 bound_to 10713
  141.1705  133.6537  156.4634 LP  0  0  0  0  0  0  0  0  0  0  0  0  # atno 17394 bound_to 11000
  140.4569  134.6877  157.5067 LP  0  0  0  0  0  0  0  0  0  0  0  0  # atno 17395 bound_to 11000

$$$$
