AV-unprocessed.smi:3193|AV-procd|sdf|12205|dock6
  -GOLD-   2272018 43D 1   1.00000     0.00000
 Structure written by MMmdl.
 41 42  0  0  0  0  0  0  0  0  3 V2000
  151.6922  144.8036  159.0319 C   0  0  0  0  0  0  0  0  0  0  0  0
  151.8930  143.3309  159.4326 C   0  0  2  0  0  0  0  0  0  0  0  0
  153.3574  143.1117  159.8685 C   0  0  0  0  0  0  0  0  0  0  0  0
  153.6113  141.6721  160.3342 C   0  0  0  0  0  0  0  0  0  0  0  0
  153.2233  140.6707  159.2412 C   0  0  0  0  0  0  0  0  0  0  0  0
  151.7644  140.8730  158.8084 C   0  0  0  0  0  0  0  0  0  0  0  0
  151.4912  142.3142  158.3225 C   0  0  1  0  0  0  0  0  0  0  0  0
  150.0155  142.4334  157.8772 C   0  0  0  0  0  0  0  0  0  0  0  0
  149.8708  142.3811  156.4081 N   0  3  0  0  0  0  0  0  0  0  0  0
  148.7256  141.5748  155.9427 C   0  0  0  0  0  0  0  0  0  0  0  0
  148.3716  141.9072  154.4862 C   0  0  0  0  0  0  0  0  0  0  0  0
  147.9970  140.7112  153.7276 N   0  0  0  0  0  0  0  0  0  0  0  0
  146.8161  140.4787  153.0698 C   0  0  0  0  0  0  0  0  0  0  0  0
  146.9212  139.2335  152.5053 C   0  0  0  0  0  0  0  0  0  0  0  0
  148.1599  138.7580  152.8434 N   0  3  0  0  0  0  0  0  0  0  0  0
  148.8129  139.6579  153.5864 C   0  0  0  0  0  0  0  0  0  0  0  0
  152.2159  145.0396  158.1050 H   0  0  0  0  0  0  0  0  0  0  0  0
  152.0718  145.4734  159.8042 H   0  0  0  0  0  0  0  0  0  0  0  0
  150.6385  145.0473  158.9015 H   0  0  0  0  0  0  0  0  0  0  0  0
  151.2627  143.1460  160.3041 H   0  0  0  0  0  0  0  0  0  0  0  0
  154.0275  143.3490  159.0407 H   0  0  0  0  0  0  0  0  0  0  0  0
  153.6141  143.7979  160.6765 H   0  0  0  0  0  0  0  0  0  0  0  0
  154.6614  141.5456  160.5998 H   0  0  0  0  0  0  0  0  0  0  0  0
  153.0358  141.4711  161.2387 H   0  0  0  0  0  0  0  0  0  0  0  0
  153.8833  140.7902  158.3811 H   0  0  0  0  0  0  0  0  0  0  0  0
  153.3669  139.6521  159.6029 H   0  0  0  0  0  0  0  0  0  0  0  0
  151.5293  140.1596  158.0174 H   0  0  0  0  0  0  0  0  0  0  0  0
  151.1036  140.6338  159.6429 H   0  0  0  0  0  0  0  0  0  0  0  0
  152.1262  142.4827  157.4507 H   0  0  0  0  0  0  0  0  0  0  0  0
  149.4305  141.6082  158.2858 H   0  0  0  0  0  0  0  0  0  0  0  0
  149.5755  143.3518  158.2686 H   0  0  0  0  0  0  0  0  0  0  0  0
  149.7545  143.3264  156.0714 H   0  0  0  0  0  0  0  0  0  0  0  0
  148.9683  140.5154  156.0379 H   0  0  0  0  0  0  0  0  0  0  0  0
  147.8678  141.7694  156.5878 H   0  0  0  0  0  0  0  0  0  0  0  0
  147.5407  142.6131  154.4397 H   0  0  0  0  0  0  0  0  0  0  0  0
  149.2180  142.3731  153.9796 H   0  0  0  0  0  0  0  0  0  0  0  0
  146.0080  141.1958  153.0523 H   0  0  0  0  0  0  0  0  0  0  0  0
  146.2256  138.6642  151.9057 H   0  0  0  0  0  0  0  0  0  0  0  0
  149.8038  139.5519  153.9914 H   0  0  0  0  0  0  0  0  0  0  0  0
  150.7209  142.0017  156.0154 H   0  0  0  0  0  0  0  0  0  0  0  0
  148.5296  137.8547  152.5732 H   0  0  0  0  0  0  0  0  0  0  0  0
  1  2  1  0  0  0  0
  1 17  1  0  0  0  0
  1 18  1  0  0  0  0
  1 19  1  0  0  0  0
  2  7  1  0  0  0  0
  2  3  1  0  0  0  0
  2 20  1  0  0  0  0
  3  4  1  0  0  0  0
  3 21  1  0  0  0  0
  3 22  1  0  0  0  0
  4  5  1  0  0  0  0
  4 23  1  0  0  0  0
  4 24  1  0  0  0  0
  5  6  1  0  0  0  0
  5 25  1  0  0  0  0
  5 26  1  0  0  0  0
  6  7  1  0  0  0  0
  6 27  1  0  0  0  0
  6 28  1  0  0  0  0
  7  8  1  0  0  0  0
  7 29  1  0  0  0  0
  8  9  1  0  0  0  0
  8 30  1  0  0  0  0
  8 31  1  0  0  0  0
  9 10  1  0  0  0  0
  9 32  1  0  0  0  0
  9 40  1  0  0  0  0
 10 11  1  0  0  0  0
 10 33  1  0  0  0  0
 10 34  1  0  0  0  0
 11 12  1  0  0  0  0
 11 35  1  0  0  0  0
 11 36  1  0  0  0  0
 12 16  1  0  0  0  0
 12 13  1  0  0  0  0
 13 14  2  0  0  0  0
 13 37  1  0  0  0  0
 14 15  1  0  0  0  0
 14 38  1  0  0  0  0
 15 16  2  0  0  0  0
 15 41  1  0  0  0  0
 16 39  1  0  0  0  0
M  CHG  1   9   1
M  CHG  1  15   1
M  END
> <s_m_source_file>
AV-unprocessed.smi

> <i_m_source_file_index>
3193

> <i_lp_mmshare_version>
43012

> <i_f3d_flags>
0

> <s_epik_input>
W0NIM11bQ0BASF0xW0NIMl1bQ0gyXVtDSDJdW0NIMl1bQ0BIXTFbQ0gyXVtOSF1bQ0gyXVtDSDJdbjJbY0hdW2NIXW5bY0hdMg==

> <s_epik_cmdline>
J2VwaWtfcHl0aG9uJywgJy1waCcsICc3LjAnLCAnLXRuJywgJzgnLCAnLW1hJywgJzIwMCcsICctbWV0YWxfYmluZGluZycsICctaW1hZScsICc8aW5maWxlLm1hZT4nLCAnLW9tYWUnLCAnPG91dGZpbGUubWFlPic=

> <r_lp_tautomer_probability>
1

> <r_epik_Ionization_Penalty>
1.50262

> <r_epik_Ionization_Penalty_Charging>
0.00193432

> <r_epik_Ionization_Penalty_Neutral>
1.50068

> <r_epik_State_Penalty>
1.11854

> <r_epik_Charging_Adjusted_Penalty>
1.12048

> <i_epik_Tot_Q>
2

> <i_epik_Tot_abs_Q>
2

> <r_epik_Metal_State_Penalty>
5.11322

> <b_epik_Metal_Only>
0

> <s_lp_Force_Field>
OPLS_2005

> <r_lp_Energy>
26.3387

> <b_lp_Chiralities_Consistent>
1

> <s_lp_Variant>
AV-unprocessed.smi:3193-5

> <Gold.Version>
5.8.1

> <Gold.Id.Protein>
6NUR|6NUR_protein|mol2

> <Gold.PLP.Fitness>
50.2991

> <Gold.PLP.PLP>
-37.8770

> <Gold.PLP.part.hbond>
-3.0000

> <Gold.PLP.part.metal>
0.0000

> <Gold.PLP.part.buried>
0.1159

> <Gold.PLP.part.nonpolar>
-35.5118

> <Gold.PLP.part.repulsive>
0.1233

> <Gold.PLP.ligand.clash>
0.0000

> <Gold.PLP.ligand.torsion>
1.2514

> <Gold.PLP.Chemscore.Hbond>
4.0000

> <Gold.PLP.Chemscore.CHOScore>
0.9564

> <Gold.PLP.Chemscore.Metal>
0.0000

> <Gold.Chemscore.Hbonds>
donor molecule, donor type, donor heavy atom, donor atom, acceptor molecule, acceptor atom, score
      L1  H     9    32       P1  8028  2.00
      L1  H    15    41       P1  7948  2.00
      L1  C    13    37       P1 10175  0.77

> <Gold.PLP.Chemscore.Internal.Correction>
0.0556

> <Gold.Rescore>
     Score         DG    S(hbond)    S(metal)    S(lipo)     H(rot)  DE(clash)    DE(int)     intcor
     17.59     -18.93       1.89        0.00     104.19       1.98       0.12       1.22       ----

> <Gold.Chemscore.Fitness>
17.5909

> <Gold.Chemscore.DG>
-18.9328

> <Gold.Chemscore.ZeroCoef>
-5.4800

> <Gold.Chemscore.Hbond>
1.8935

> <Gold.Chemscore.Metal>
0.0000

> <Gold.Chemscore.Lipo>
104.1946

> <Gold.Chemscore.Internal_Hbond>
0.0000

> <Gold.Chemscore.DEClash>
0.1228

> <Gold.Chemscore.DEInternal>
1.2191

> <Gold.Chemscore.Rot>
1.9774

> <Gold.Chemscore.Internal.Correction>
   9.000000E+99

> <Gold.Chemscore.Hbonds>
donor molecule, donor type, donor heavy atom, donor atom, acceptor molecule, acceptor atom, score
      L1  H     9    32       P1  8028  0.98
      L1  H    15    41       P1  7948  1.00

> <Gold.Chemscore.Hbond.Weighted>
-6.3242

> <Gold.Chemscore.Metal.Weighted>
-0.0000

> <Gold.Chemscore.Lipo.Weighted>
-12.1908

> <Gold.Chemscore.Internal_Hbond.Weighted>
0.0000

> <Gold.Chemscore.DEClash.Weighted>
0.1228

> <Gold.Chemscore.DEInternal.Weighted>
1.2191

> <Gold.Chemscore.Rot.Weighted>
5.0622

> <Gold.Chemscore.Internal.Correction.Weighted>
   9.000000E+99

> <Gold.Protein.RotatedTorsions>
[ 6907 6896 6895 6894 ] final  101.30 input  -60.11 | X-H torsion
[ 7974 7965 7964 7962 ] final  138.24 input  175.53 | X-H torsion
[ 8008 7997 7996 7995 ] final  -84.57 input   59.86 | X-H torsion
[ 10167 10162 10161 10158 ] final  137.84 input  -65.29 | X-H torsion
[ 10718 10713 10712 10709 ] final -118.40 input   66.30 | X-H torsion
[ 10763 10752 10751 10750 ] final -142.14 input  -60.55 | X-H torsion
[ 11005 11000 10999 10996 ] final  141.15 input  -57.11 | X-H torsion

> <Gold.Protein.ActiveResidues>
 VAL166  LYS551  ARG553  GLY616  TRP617  ASP618  TYR619  PRO620  LYS621  CYS622 
 ASP623  PHE694  ASN695  SER759  ASP760  ASP761  ALA762  ILE779  LEU786  VAL792 
 PHE793  MET794  SER795  GLU796  ALA797  LYS798  CYS799  TRP800  GLU811  SER814 

> <Gold.Protein.RotatedAtoms>
  152.5352  134.0146  159.7953 H   0  0  0  0  0  0  0  0  0  0  0  0  # atno 6907 bound_to 6896
  151.0343  133.5755  159.2664 H   0  0  0  0  0  0  0  0  0  0  0  0  # atno 6908 bound_to 6896
  151.2748  135.0703  159.9201 H   0  0  0  0  0  0  0  0  0  0  0  0  # atno 6909 bound_to 6896
  144.9391  139.4953  143.5580 H   0  0  0  0  0  0  0  0  0  0  0  0  # atno 7974 bound_to 7965
  154.6313  140.0603  156.9735 H   0  0  0  0  0  0  0  0  0  0  0  0  # atno 8008 bound_to 7997
  155.1661  140.3287  155.4383 H   0  0  0  0  0  0  0  0  0  0  0  0  # atno 8009 bound_to 7997
  156.2484  140.1922  156.6766 H   0  0  0  0  0  0  0  0  0  0  0  0  # atno 8010 bound_to 7997
  139.5130  144.6387  151.5627 H   0  0  0  0  0  0  0  0  0  0  0  0  # atno 10167 bound_to 10162
  156.1104  130.6244  150.9286 H   0  0  0  0  0  0  0  0  0  0  0  0  # atno 10718 bound_to 10713
  154.8520  135.3504  154.5979 H   0  0  0  0  0  0  0  0  0  0  0  0  # atno 10763 bound_to 10752
  153.6588  135.6990  153.5189 H   0  0  0  0  0  0  0  0  0  0  0  0  # atno 10764 bound_to 10752
  153.2834  135.4256  155.1057 H   0  0  0  0  0  0  0  0  0  0  0  0  # atno 10765 bound_to 10752
  140.0380  134.9319  157.0789 H   0  0  0  0  0  0  0  0  0  0  0  0  # atno 11005 bound_to 11000
  146.3278  139.8397  142.8893 LP  0  0  0  0  0  0  0  0  0  0  0  0  # atno 17320 bound_to 7965
  145.3019  141.0196  143.3603 LP  0  0  0  0  0  0  0  0  0  0  0  0  # atno 17321 bound_to 7965
  140.6146  143.9373  150.6478 LP  0  0  0  0  0  0  0  0  0  0  0  0  # atno 17342 bound_to 10162
  140.2627  143.3512  152.1308 LP  0  0  0  0  0  0  0  0  0  0  0  0  # atno 17343 bound_to 10162
  157.6284  131.0923  150.8489 LP  0  0  0  0  0  0  0  0  0  0  0  0  # atno 17370 bound_to 10713
  156.8600  130.5110  149.5304 LP  0  0  0  0  0  0  0  0  0  0  0  0  # atno 17371 bound_to 10713
  140.4116  134.1975  155.7163 LP  0  0  0  0  0  0  0  0  0  0  0  0  # atno 17394 bound_to 11000
  141.1868  133.8295  157.1056 LP  0  0  0  0  0  0  0  0  0  0  0  0  # atno 17395 bound_to 11000

$$$$
