AV-unprocessed.smi:218|AV-procd|sdf|1670|dock2
  -GOLD-   2262020 83D 1   1.00000     0.00000
 Structure written by MMmdl.
 54 57  0  0  0  0  0  0  0  0  1 V2000
  153.0742  140.4096  159.8667 C   0  0  0  0  0  0  0  0  0  0  0  0
  153.1034  141.8091  159.2406 C   0  0  0  0  0  0  0  0  0  0  0  0
  153.1115  142.9029  160.3225 C   0  0  0  0  0  0  0  0  0  0  0  0
  151.9346  141.9225  158.4265 O   0  0  0  0  0  0  0  0  0  0  0  0
  151.5460  140.8716  157.6180 C   0  0  0  0  0  0  0  0  0  0  0  0
  150.1865  140.4987  157.6161 C   0  0  0  0  0  0  0  0  0  0  0  0
  149.7749  139.4232  156.8021 C   0  0  0  0  0  0  0  0  0  0  0  0
  148.3246  138.9860  156.7756 C   0  0  0  0  0  0  0  0  0  0  0  0
  148.1069  137.7768  155.9933 N   0  0  0  0  0  0  0  0  0  0  0  0
  146.9618  137.6192  155.2962 C   0  0  0  0  0  0  0  0  0  0  0  0
  146.0118  138.5908  155.2817 N   0  0  0  0  0  0  0  0  0  0  0  0
  144.8878  138.4152  154.5803 C   0  0  0  0  0  0  0  0  0  0  0  0
  144.5198  137.3650  153.8432 N   0  0  0  0  0  0  0  0  0  0  0  0
  145.4711  136.3862  153.8563 C   0  0  0  0  0  0  0  0  0  0  0  0
  146.7098  136.4370  154.5534 C   0  0  0  0  0  0  0  0  0  0  0  0
  147.4195  135.2627  154.3380 N   0  0  0  0  0  0  0  0  0  0  0  0
  146.6394  134.5600  153.5606 C   0  0  0  0  0  0  0  0  0  0  0  0
  145.4444  135.1582  153.2268 N   0  0  0  0  0  0  0  0  0  0  0  0
  144.3552  134.6125  152.3559 C   0  0  2  0  0  0  0  0  0  0  0  0
  144.6808  133.2918  152.0603 O   0  0  0  0  0  0  0  0  0  0  0  0
  144.3067  133.0000  150.7220 C   0  0  2  0  0  0  0  0  0  0  0  0
  145.1330  131.8149  150.2000 C   0  0  0  0  0  0  0  0  0  0  0  0
  146.4843  132.1949  150.0488 O   0  0  0  0  0  0  0  0  0  0  0  0
  144.5941  134.3148  149.9908 C   0  0  1  0  0  0  0  0  0  0  0  0
  143.7919  134.4230  148.8319 O   0  0  0  0  0  0  0  0  0  0  0  0
  144.2022  135.3710  151.0172 C   0  0  2  0  0  0  0  0  0  0  0  0
  145.0130  136.5261  150.8940 O   0  0  0  0  0  0  0  0  0  0  0  0
  150.7419  138.7597  156.0209 C   0  0  0  0  0  0  0  0  0  0  0  0
  152.0766  139.2044  156.0886 C   0  0  0  0  0  0  0  0  0  0  0  0
  152.4767  140.2328  156.8659 N   0  0  0  0  0  0  0  0  0  0  0  0
  143.4557  134.6562  152.9715 H   0  0  0  0  0  0  0  0  0  0  0  0
  143.2362  132.7841  150.6911 H   0  0  0  0  0  0  0  0  0  0  0  0
  145.6527  134.3860  149.7358 H   0  0  0  0  0  0  0  0  0  0  0  0
  143.1517  135.6478  150.9137 H   0  0  0  0  0  0  0  0  0  0  0  0
  153.9476  140.2426  160.4978 H   0  0  0  0  0  0  0  0  0  0  0  0
  153.0704  139.6382  159.0961 H   0  0  0  0  0  0  0  0  0  0  0  0
  152.1849  140.2691  160.4818 H   0  0  0  0  0  0  0  0  0  0  0  0
  154.0108  141.8734  158.6381 H   0  0  0  0  0  0  0  0  0  0  0  0
  153.9762  142.7962  160.9781 H   0  0  0  0  0  0  0  0  0  0  0  0
  152.2157  142.8493  160.9416 H   0  0  0  0  0  0  0  0  0  0  0  0
  153.1534  143.9016  159.8888 H   0  0  0  0  0  0  0  0  0  0  0  0
  149.4749  141.0276  158.2331 H   0  0  0  0  0  0  0  0  0  0  0  0
  147.9752  138.8212  157.7957 H   0  0  0  0  0  0  0  0  0  0  0  0
  147.7324  139.8017  156.3592 H   0  0  0  0  0  0  0  0  0  0  0  0
  148.8444  137.0873  156.0220 H   0  0  0  0  0  0  0  0  0  0  0  0
  144.1823  139.2323  154.6152 H   0  0  0  0  0  0  0  0  0  0  0  0
  146.9157  133.5766  153.2091 H   0  0  0  0  0  0  0  0  0  0  0  0
  145.1041  130.9927  150.9154 H   0  0  0  0  0  0  0  0  0  0  0  0
  144.7340  131.4383  149.2575 H   0  0  0  0  0  0  0  0  0  0  0  0
  147.0279  131.4355  150.1933 H   0  0  0  0  0  0  0  0  0  0  0  0
  142.8850  134.4336  149.0980 H   0  0  0  0  0  0  0  0  0  0  0  0
  144.6054  137.1095  150.2714 H   0  0  0  0  0  0  0  0  0  0  0  0
  150.4720  137.9304  155.3838 H   0  0  0  0  0  0  0  0  0  0  0  0
  152.8437  138.7200  155.5029 H   0  0  0  0  0  0  0  0  0  0  0  0
  1  2  1  0  0  0  0
  1 35  1  0  0  0  0
  1 36  1  0  0  0  0
  1 37  1  0  0  0  0
  2  3  1  0  0  0  0
  2  4  1  0  0  0  0
  2 38  1  0  0  0  0
  3 39  1  0  0  0  0
  3 40  1  0  0  0  0
  3 41  1  0  0  0  0
  4  5  1  0  0  0  0
  5 30  1  0  0  0  0
  5  6  2  0  0  0  0
  6  7  1  0  0  0  0
  6 42  1  0  0  0  0
  7  8  1  0  0  0  0
  7 28  2  0  0  0  0
  8  9  1  0  0  0  0
  8 43  1  0  0  0  0
  8 44  1  0  0  0  0
  9 10  1  0  0  0  0
  9 45  1  0  0  0  0
 10 15  1  0  0  0  0
 10 11  2  0  0  0  0
 11 12  1  0  0  0  0
 12 13  2  0  0  0  0
 12 46  1  0  0  0  0
 13 14  1  0  0  0  0
 14 18  1  0  0  0  0
 14 15  2  0  0  0  0
 15 16  1  0  0  0  0
 16 17  2  0  0  0  0
 17 18  1  0  0  0  0
 17 47  1  0  0  0  0
 18 19  1  0  0  0  0
 19 31  1  0  0  0  0
 19 26  1  0  0  0  0
 19 20  1  0  0  0  0
 20 21  1  0  0  0  0
 21 32  1  0  0  0  0
 21 22  1  0  0  0  0
 21 24  1  0  0  0  0
 22 23  1  0  0  0  0
 22 48  1  0  0  0  0
 22 49  1  0  0  0  0
 23 50  1  0  0  0  0
 24 33  1  0  0  0  0
 24 25  1  0  0  0  0
 24 26  1  0  0  0  0
 25 51  1  0  0  0  0
 26 34  1  0  0  0  0
 26 27  1  0  0  0  0
 27 52  1  0  0  0  0
 28 29  1  0  0  0  0
 28 53  1  0  0  0  0
 29 30  2  0  0  0  0
 29 54  1  0  0  0  0
M  END
> <s_m_source_file>
AV-unprocessed.smi

> <i_m_source_file_index>
218

> <i_lp_mmshare_version>
43012

> <i_f3d_flags>
0

> <s_epik_input>
W0NIM11bQ0hdKFtDSDNdKU9jMVtjSF1jKFtjSF1bY0hdbjEpW0NIMl1bTkhdYyhuW2NIXW4yKWMoYzIzKW5bY0hdbjNbQ0BASF00T1tDQEhdKFtDSDJdW09IXSlbQ0BASF0oW09IXSlbQ0BIXTRbT0hd

> <s_epik_cmdline>
J2VwaWtfcHl0aG9uJywgJy1waCcsICc3LjAnLCAnLXRuJywgJzgnLCAnLW1hJywgJzIwMCcsICctbWV0YWxfYmluZGluZycsICctaW1hZScsICc8aW5maWxlLm1hZT4nLCAnLW9tYWUnLCAnPG91dGZpbGUubWFlPic=

> <r_lp_tautomer_probability>
1

> <r_epik_Ionization_Penalty>
0.00457014

> <r_epik_Ionization_Penalty_Charging>
0

> <r_epik_Ionization_Penalty_Neutral>
0.00457014

> <r_epik_State_Penalty>
-0

> <r_epik_Charging_Adjusted_Penalty>
0

> <i_epik_Tot_Q>
0

> <i_epik_Tot_abs_Q>
0

> <r_epik_Metal_State_Penalty>
-0

> <b_epik_Metal_Only>
0

> <s_epik_Chemistry_Notes>
This compound contains an acetal/aminal-like group ( X-CH(R)-Y where X, Y are N, S, or O) that may be acid/base labile, releasing an aldehyde.

> <s_lp_Force_Field>
OPLS_2005

> <r_lp_Energy>
38.9245

> <b_lp_Chiralities_Consistent>
1

> <s_lp_Variant>
AV-unprocessed.smi:218-9

> <Gold.Version>
5.8.1

> <Gold.Id.Protein>
6NUR|6NUR_protein|mol2

> <Gold.PLP.Fitness>
49.5473

> <Gold.PLP.PLP>
-36.6952

> <Gold.PLP.part.hbond>
-5.0000

> <Gold.PLP.part.metal>
0.0000

> <Gold.PLP.part.buried>
-4.1818

> <Gold.PLP.part.nonpolar>
-26.7718

> <Gold.PLP.part.repulsive>
0.6953

> <Gold.PLP.ligand.clash>
0.0000

> <Gold.PLP.ligand.torsion>
0.7006

> <Gold.PLP.Chemscore.Hbond>
3.8320

> <Gold.PLP.Chemscore.CHOScore>
0.7840

> <Gold.PLP.Chemscore.Metal>
0.0000

> <Gold.Chemscore.Hbonds>
donor molecule, donor type, donor heavy atom, donor atom, acceptor molecule, acceptor atom, score
      L1  H    23    50       P1 10747  0.83
      L1  H    25    51       P1 10186  1.00
      L1  H    27    52       P1 10171  1.00
      P1  H  7997  8008       L1    30  0.98
      L1  C    12    46       P1 10175  0.78

> <Gold.PLP.Chemscore.Internal.Correction>
0.4055

> <Gold.Rescore>
     Score         DG    S(hbond)    S(metal)    S(lipo)     H(rot)  DE(clash)    DE(int)     intcor
     12.37     -15.24       3.85        0.00      80.71       4.90       1.30       1.58       ----

> <Gold.Chemscore.Fitness>
12.3652

> <Gold.Chemscore.DG>
-15.2435

> <Gold.Chemscore.ZeroCoef>
-5.4800

> <Gold.Chemscore.Hbond>
3.8539

> <Gold.Chemscore.Metal>
0.0000

> <Gold.Chemscore.Lipo>
80.7099

> <Gold.Chemscore.Internal_Hbond>
0.0000

> <Gold.Chemscore.DEClash>
1.3028

> <Gold.Chemscore.DEInternal>
1.5755

> <Gold.Chemscore.Rot>
4.9029

> <Gold.Chemscore.Internal.Correction>
   9.000000E+99

> <Gold.Chemscore.Hbonds>
donor molecule, donor type, donor heavy atom, donor atom, acceptor molecule, acceptor atom, score
      L1  H    23    50       P1 10747  0.78
      L1  H    25    51       P1 10186  1.00
      L1  H    27    52       P1 10171  0.98
      P1  H  7997  8008       L1    30  0.28

> <Gold.Chemscore.Hbond.Weighted>
-12.8720

> <Gold.Chemscore.Metal.Weighted>
-0.0000

> <Gold.Chemscore.Lipo.Weighted>
-9.4431

> <Gold.Chemscore.Internal_Hbond.Weighted>
0.0000

> <Gold.Chemscore.DEClash.Weighted>
1.3028

> <Gold.Chemscore.DEInternal.Weighted>
1.5755

> <Gold.Chemscore.Rot.Weighted>
12.5515

> <Gold.Chemscore.Internal.Correction.Weighted>
   9.000000E+99

> <Gold.Protein.RotatedTorsions>
[ 6907 6896 6895 6894 ] final  -18.09 input  -60.11 | X-H torsion
[ 7974 7965 7964 7962 ] final  111.83 input  175.53 | X-H torsion
[ 8008 7997 7996 7995 ] final  -63.85 input   59.86 | X-H torsion
[ 10167 10162 10161 10158 ] final   -7.22 input  -65.29 | X-H torsion
[ 10718 10713 10712 10709 ] final  -34.25 input   66.30 | X-H torsion
[ 10763 10752 10751 10750 ] final    5.57 input  -60.55 | X-H torsion
[ 11005 11000 10999 10996 ] final -155.37 input  -57.11 | X-H torsion

> <Gold.Protein.ActiveResidues>
 VAL166  LYS551  ARG553  GLY616  TRP617  ASP618  TYR619  PRO620  LYS621  CYS622 
 ASP623  PHE694  ASN695  SER759  ASP760  ASP761  ALA762  ILE779  LEU786  VAL792 
 PHE793  MET794  SER795  GLU796  ALA797  LYS798  CYS799  TRP800  GLU811  SER814 

> <Gold.Protein.RotatedAtoms>
  151.2835  135.0721  159.9177 H   0  0  0  0  0  0  0  0  0  0  0  0  # atno 6907 bound_to 6896
  152.5330  134.0006  159.7903 H   0  0  0  0  0  0  0  0  0  0  0  0  # atno 6908 bound_to 6896
  151.0264  133.5779  159.2696 H   0  0  0  0  0  0  0  0  0  0  0  0  # atno 6909 bound_to 6896
  145.2373  139.2794  143.4136 H   0  0  0  0  0  0  0  0  0  0  0  0  # atno 7974 bound_to 7965
  154.4577  140.0966  156.6806 H   0  0  0  0  0  0  0  0  0  0  0  0  # atno 8008 bound_to 7997
  155.5087  140.3476  155.4366 H   0  0  0  0  0  0  0  0  0  0  0  0  # atno 8009 bound_to 7997
  156.0811  140.1373  156.9700 H   0  0  0  0  0  0  0  0  0  0  0  0  # atno 8010 bound_to 7997
  140.7022  143.6106  150.8708 H   0  0  0  0  0  0  0  0  0  0  0  0  # atno 10167 bound_to 10162
  156.3529  130.4311  149.7689 H   0  0  0  0  0  0  0  0  0  0  0  0  # atno 10718 bound_to 10713
  153.2579  135.6920  153.7610 H   0  0  0  0  0  0  0  0  0  0  0  0  # atno 10763 bound_to 10752
  153.6680  135.3349  155.3146 H   0  0  0  0  0  0  0  0  0  0  0  0  # atno 10764 bound_to 10752
  154.8419  135.4493  154.1558 H   0  0  0  0  0  0  0  0  0  0  0  0  # atno 10765 bound_to 10752
  140.6872  134.4081  157.5222 H   0  0  0  0  0  0  0  0  0  0  0  0  # atno 11005 bound_to 11000
  146.3338  140.2725  142.8606 LP  0  0  0  0  0  0  0  0  0  0  0  0  # atno 17320 bound_to 7965
  144.9622  140.8286  143.5507 LP  0  0  0  0  0  0  0  0  0  0  0  0  # atno 17321 bound_to 7965
  139.9828  143.5932  152.2937 LP  0  0  0  0  0  0  0  0  0  0  0  0  # atno 17342 bound_to 10162
  139.6559  144.7662  151.2057 LP  0  0  0  0  0  0  0  0  0  0  0  0  # atno 17343 bound_to 10162
  156.4883  130.8073  151.3084 LP  0  0  0  0  0  0  0  0  0  0  0  0  # atno 17370 bound_to 10713
  157.7463  130.9984  150.2850 LP  0  0  0  0  0  0  0  0  0  0  0  0  # atno 17371 bound_to 10713
  139.8934  134.8731  156.2225 LP  0  0  0  0  0  0  0  0  0  0  0  0  # atno 17394 bound_to 11000
  141.0270  133.7009  156.1365 LP  0  0  0  0  0  0  0  0  0  0  0  0  # atno 17395 bound_to 11000

$$$$
