AV-unprocessed.smi:566|AV-procd|sdf|2955|dock8
  -GOLD-   2262023453D 1   1.00000     0.00000
 Structure written by MMmdl.
 39 40  0  0  0  0  0  0  0  0  1 V2000
  153.4990  142.8114  163.0431 C   0  0  0  0  0  0  0  0  0  0  0  0
  153.1541  142.4230  161.6104 C   0  0  0  0  0  0  0  0  0  0  0  0
  152.2315  143.2642  160.8842 C   0  0  0  0  0  0  0  0  0  0  0  0
  151.9188  143.0091  159.6037 C   0  0  0  0  0  0  0  0  0  0  0  0
  150.9521  143.9118  158.8446 C   0  0  0  0  0  0  0  0  0  0  0  0
  152.4780  141.8862  158.9338 N   0  0  0  0  0  0  0  0  0  0  0  0
  152.1249  141.6326  157.5173 C   0  0  0  0  0  0  0  0  0  0  0  0
  150.6698  141.1548  157.3482 C   0  0  0  0  0  0  0  0  0  0  0  0
  150.3117  141.1728  155.9733 O   0  0  0  0  0  0  0  0  0  0  0  0
  149.0224  141.5235  155.6364 C   0  0  0  0  0  0  0  0  0  0  0  0
  148.7126  141.5699  154.2614 C   0  0  0  0  0  0  0  0  0  0  0  0
  147.4197  141.9174  153.8250 C   0  0  0  0  0  0  0  0  0  0  0  0
  146.4196  142.2264  154.7653 C   0  0  0  0  0  0  0  0  0  0  0  0
  146.7151  142.1868  156.1406 C   0  0  0  0  0  0  0  0  0  0  0  0
  145.7543  142.4857  157.0468 F   0  0  0  0  0  0  0  0  0  0  0  0
  148.0082  141.8370  156.5768 C   0  0  0  0  0  0  0  0  0  0  0  0
  153.3342  141.0163  159.5610 C   0  0  0  0  0  0  0  0  0  0  0  0
  153.7493  140.0150  158.9686 O   0  0  0  0  0  0  0  0  0  0  0  0
  153.6928  141.3527  160.9666 C   0  0  0  0  0  0  0  0  0  0  0  0
  154.6457  140.4485  161.6401 C   0  0  0  0  0  0  0  0  0  0  0  0
  154.7121  139.2100  161.1321 N   0  0  0  0  0  0  0  0  0  0  0  0
  155.4051  140.7790  162.5494 O   0  0  0  0  0  0  0  0  0  0  0  0
  153.0981  143.7944  163.2924 H   0  0  0  0  0  0  0  0  0  0  0  0
  154.5788  142.8534  163.1893 H   0  0  0  0  0  0  0  0  0  0  0  0
  153.0766  142.0941  163.7471 H   0  0  0  0  0  0  0  0  0  0  0  0
  151.7933  144.1193  161.3783 H   0  0  0  0  0  0  0  0  0  0  0  0
  150.4332  144.5819  159.5305 H   0  0  0  0  0  0  0  0  0  0  0  0
  150.1832  143.3506  158.3166 H   0  0  0  0  0  0  0  0  0  0  0  0
  151.4925  144.5326  158.1297 H   0  0  0  0  0  0  0  0  0  0  0  0
  152.2872  142.5228  156.9121 H   0  0  0  0  0  0  0  0  0  0  0  0
  152.7987  140.9073  157.0580 H   0  0  0  0  0  0  0  0  0  0  0  0
  150.5430  140.1527  157.7589 H   0  0  0  0  0  0  0  0  0  0  0  0
  150.0123  141.8283  157.8996 H   0  0  0  0  0  0  0  0  0  0  0  0
  149.4752  141.3339  153.5335 H   0  0  0  0  0  0  0  0  0  0  0  0
  147.1958  141.9466  152.7690 H   0  0  0  0  0  0  0  0  0  0  0  0
  145.4276  142.4941  154.4321 H   0  0  0  0  0  0  0  0  0  0  0  0
  148.1975  141.8189  157.6391 H   0  0  0  0  0  0  0  0  0  0  0  0
  155.3514  138.5357  161.5272 H   0  0  0  0  0  0  0  0  0  0  0  0
  154.1320  138.9600  160.3442 H   0  0  0  0  0  0  0  0  0  0  0  0
  1  2  1  0  0  0  0
  1 23  1  0  0  0  0
  1 24  1  0  0  0  0
  1 25  1  0  0  0  0
  2 19  2  0  0  0  0
  2  3  1  0  0  0  0
  3  4  2  0  0  0  0
  3 26  1  0  0  0  0
  4  5  1  0  0  0  0
  4  6  1  0  0  0  0
  5 27  1  0  0  0  0
  5 28  1  0  0  0  0
  5 29  1  0  0  0  0
  6  7  1  0  0  0  0
  6 17  1  0  0  0  0
  7  8  1  0  0  0  0
  7 30  1  0  0  0  0
  7 31  1  0  0  0  0
  8  9  1  0  0  0  0
  8 32  1  0  0  0  0
  8 33  1  0  0  0  0
  9 10  1  0  0  0  0
 10 16  1  0  0  0  0
 10 11  2  0  0  0  0
 11 12  1  0  0  0  0
 11 34  1  0  0  0  0
 12 13  2  0  0  0  0
 12 35  1  0  0  0  0
 13 14  1  0  0  0  0
 13 36  1  0  0  0  0
 14 15  1  0  0  0  0
 14 16  2  0  0  0  0
 16 37  1  0  0  0  0
 17 18  2  0  0  0  0
 17 19  1  0  0  0  0
 19 20  1  0  0  0  0
 20 21  1  0  0  0  0
 20 22  2  0  0  0  0
 21 38  1  0  0  0  0
 21 39  1  0  0  0  0
M  END
> <s_m_source_file>
AV-unprocessed.smi

> <i_m_source_file_index>
566

> <i_lp_mmshare_version>
43012

> <i_f3d_flags>
0

> <s_epik_input>
W0NIM11jMVtjSF1jKFtDSDNdKW4oYyg9TyljMUMoPU8pW05IMl0pW0NIMl1bQ0gyXU9jMltjSF1bY0hdW2NIXWMoRilbY0hdMg==

> <s_epik_cmdline>
J2VwaWtfcHl0aG9uJywgJy1waCcsICc3LjAnLCAnLXRuJywgJzgnLCAnLW1hJywgJzIwMCcsICctbWV0YWxfYmluZGluZycsICctaW1hZScsICc8aW5maWxlLm1hZT4nLCAnLW9tYWUnLCAnPG91dGZpbGUubWFlPic=

> <r_lp_tautomer_probability>
1

> <r_epik_Ionization_Penalty>
1.93248e-07

> <r_epik_Ionization_Penalty_Charging>
2.77691e-08

> <r_epik_Ionization_Penalty_Neutral>
1.65479e-07

> <r_epik_State_Penalty>
-0

> <r_epik_Charging_Adjusted_Penalty>
2.77691e-08

> <i_epik_Tot_Q>
0

> <i_epik_Tot_abs_Q>
0

> <r_epik_Metal_State_Penalty>
-0

> <b_epik_Metal_Only>
0

> <s_lp_Force_Field>
OPLS_2005

> <r_lp_Energy>
41.2098

> <b_lp_Chiralities_Consistent>
1

> <s_lp_Variant>
AV-unprocessed.smi:566-1

> <Gold.Version>
5.8.1

> <Gold.Id.Protein>
6NUR|6NUR_protein|mol2

> <Gold.PLP.Fitness>
48.1494

> <Gold.PLP.PLP>
-46.3560

> <Gold.PLP.part.hbond>
-2.0000

> <Gold.PLP.part.metal>
0.0000

> <Gold.PLP.part.buried>
-6.5960

> <Gold.PLP.part.nonpolar>
-36.0003

> <Gold.PLP.part.repulsive>
0.0574

> <Gold.PLP.ligand.clash>
0.0000

> <Gold.PLP.ligand.torsion>
0.6794

> <Gold.PLP.Chemscore.Hbond>
0.9425

> <Gold.PLP.Chemscore.CHOScore>
0.0000

> <Gold.PLP.Chemscore.Metal>
0.0000

> <Gold.Chemscore.Hbonds>
donor molecule, donor type, donor heavy atom, donor atom, acceptor molecule, acceptor atom, score
      P1  H  7997  8009       L1    18  0.96

> <Gold.PLP.Chemscore.Internal.Correction>
0.3246

> <Gold.Rescore>
     Score         DG    S(hbond)    S(metal)    S(lipo)     H(rot)  DE(clash)    DE(int)     intcor
     14.03     -17.13       0.92        0.00     110.35       1.69       1.20       1.90       ----

> <Gold.Chemscore.Fitness>
14.0254

> <Gold.Chemscore.DG>
-17.1260

> <Gold.Chemscore.ZeroCoef>
-5.4800

> <Gold.Chemscore.Hbond>
0.9150

> <Gold.Chemscore.Metal>
0.0000

> <Gold.Chemscore.Lipo>
110.3463

> <Gold.Chemscore.Internal_Hbond>
0.0000

> <Gold.Chemscore.DEClash>
1.1999

> <Gold.Chemscore.DEInternal>
1.9007

> <Gold.Chemscore.Rot>
1.6878

> <Gold.Chemscore.Internal.Correction>
   9.000000E+99

> <Gold.Chemscore.Hbonds>
donor molecule, donor type, donor heavy atom, donor atom, acceptor molecule, acceptor atom, score
      P1  H  7997  8009       L1    18  0.88

> <Gold.Chemscore.Hbond.Weighted>
-3.0562

> <Gold.Chemscore.Metal.Weighted>
-0.0000

> <Gold.Chemscore.Lipo.Weighted>
-12.9105

> <Gold.Chemscore.Internal_Hbond.Weighted>
0.0000

> <Gold.Chemscore.DEClash.Weighted>
1.1999

> <Gold.Chemscore.DEInternal.Weighted>
1.9007

> <Gold.Chemscore.Rot.Weighted>
4.3207

> <Gold.Chemscore.Internal.Correction.Weighted>
   9.000000E+99

> <Gold.Protein.RotatedTorsions>
[ 6907 6896 6895 6894 ] final  130.79 input  -60.11 | X-H torsion
[ 7974 7965 7964 7962 ] final -152.30 input  175.53 | X-H torsion
[ 8008 7997 7996 7995 ] final  139.09 input   59.86 | X-H torsion
[ 10167 10162 10161 10158 ] final  -29.27 input  -65.29 | X-H torsion
[ 10718 10713 10712 10709 ] final -103.61 input   66.30 | X-H torsion
[ 10763 10752 10751 10750 ] final   39.46 input  -60.55 | X-H torsion
[ 11005 11000 10999 10996 ] final   22.62 input  -57.11 | X-H torsion

> <Gold.Protein.ActiveResidues>
 VAL166  LYS551  ARG553  GLY616  TRP617  ASP618  TYR619  PRO620  LYS621  CYS622 
 ASP623  PHE694  ASN695  SER759  ASP760  ASP761  ALA762  ILE779  LEU786  VAL792 
 PHE793  MET794  SER795  GLU796  ALA797  LYS798  CYS799  TRP800  GLU811  SER814 

> <Gold.Protein.RotatedAtoms>
  152.3491  133.6158  159.5931 H   0  0  0  0  0  0  0  0  0  0  0  0  # atno 6907 bound_to 6896
  150.7526  133.9602  159.3522 H   0  0  0  0  0  0  0  0  0  0  0  0  # atno 6908 bound_to 6896
  151.7456  135.0845  160.0374 H   0  0  0  0  0  0  0  0  0  0  0  0  # atno 6909 bound_to 6896
  144.7802  140.4681  143.5845 H   0  0  0  0  0  0  0  0  0  0  0  0  # atno 7974 bound_to 7965
  156.2992  140.2376  156.4180 H   0  0  0  0  0  0  0  0  0  0  0  0  # atno 8008 bound_to 7997
  154.8381  140.0429  157.1543 H   0  0  0  0  0  0  0  0  0  0  0  0  # atno 8009 bound_to 7997
  154.9133  140.2993  155.5258 H   0  0  0  0  0  0  0  0  0  0  0  0  # atno 8010 bound_to 7997
  140.7262  143.3942  151.1376 H   0  0  0  0  0  0  0  0  0  0  0  0  # atno 10167 bound_to 10162
  156.0272  130.5475  150.7278 H   0  0  0  0  0  0  0  0  0  0  0  0  # atno 10718 bound_to 10713
  152.9966  135.6220  154.2469 H   0  0  0  0  0  0  0  0  0  0  0  0  # atno 10763 bound_to 10752
  154.2208  135.2796  155.2927 H   0  0  0  0  0  0  0  0  0  0  0  0  # atno 10764 bound_to 10752
  154.5530  135.5728  153.6997 H   0  0  0  0  0  0  0  0  0  0  0  0  # atno 10765 bound_to 10752
  140.3786  134.1945  155.7664 H   0  0  0  0  0  0  0  0  0  0  0  0  # atno 11005 bound_to 11000
  145.6073  139.1509  143.3096 LP  0  0  0  0  0  0  0  0  0  0  0  0  # atno 17320 bound_to 7965
  146.2005  140.6191  142.9104 LP  0  0  0  0  0  0  0  0  0  0  0  0  # atno 17321 bound_to 7965
  139.7552  143.8718  152.3087 LP  0  0  0  0  0  0  0  0  0  0  0  0  # atno 17342 bound_to 10162
  139.8585  144.7129  150.9127 LP  0  0  0  0  0  0  0  0  0  0  0  0  # atno 17343 bound_to 10162
  157.4878  131.0908  151.0462 LP  0  0  0  0  0  0  0  0  0  0  0  0  # atno 17370 bound_to 10713
  157.0878  130.5929  149.5433 LP  0  0  0  0  0  0  0  0  0  0  0  0  # atno 17371 bound_to 10713
  141.1931  133.8159  157.0813 LP  0  0  0  0  0  0  0  0  0  0  0  0  # atno 17394 bound_to 11000
  140.0496  134.9812  157.1111 LP  0  0  0  0  0  0  0  0  0  0  0  0  # atno 17395 bound_to 11000

$$$$
