AV-unprocessed.smi:1947|AV-procd|sdf|7870|dock4
  -GOLD-   2272010 23D 1   1.00000     0.00000
 Structure written by MMmdl.
 38 39  0  0  0  0  0  0  0  0  2 V2000
  147.1837  139.5494  153.7904 C   0  0  0  0  0  0  0  0  0  0  0  0
  148.6265  139.9571  154.1249 C   0  0  1  0  0  0  0  0  0  0  0  0
  148.6655  141.1784  155.0656 C   0  0  0  0  0  0  0  0  0  0  0  0
  150.1078  141.6269  155.3484 C   0  0  0  0  0  0  0  0  0  0  0  0
  150.9512  140.4722  155.9093 C   0  0  0  0  0  0  0  0  0  0  0  0
  150.9154  139.2487  154.9771 C   0  0  0  0  0  0  0  0  0  0  0  0
  149.4741  138.7892  154.6885 C   0  0  1  0  0  0  0  0  0  0  0  0
  148.9263  138.3257  155.9158 O   0  0  0  0  0  0  0  0  0  0  0  0
  149.6436  137.2710  156.5387 C   0  0  0  0  0  0  0  0  0  0  0  0
  150.2514  137.7851  157.8526 C   0  0  0  0  0  0  0  0  0  0  0  0
  149.2454  137.8408  158.9093 N   0  0  0  0  0  0  0  0  0  0  0  0
  148.7046  136.7849  159.5345 C   0  0  0  0  0  0  0  0  0  0  0  0
  148.9749  135.6412  159.1607 O   0  0  0  0  0  0  0  0  0  0  0  0
  147.8988  137.1174  160.5685 N   0  5  0  0  0  0  0  0  0  0  0  0
  147.0851  136.1915  161.1021 C   0  0  0  0  0  0  0  0  0  0  0  0
  146.0336  135.6916  160.4324 N   0  0  0  0  0  0  0  0  0  0  0  0
  145.3177  134.7526  161.1623 N   0  0  0  0  0  0  0  0  0  0  0  0
  145.8566  134.5601  162.3661 C   0  0  0  0  0  0  0  0  0  0  0  0
  147.2883  135.5057  162.7160 S   0  0  0  0  0  0  0  0  0  0  0  0
  146.6250  139.2854  154.6883 H   0  0  0  0  0  0  0  0  0  0  0  0
  147.1619  138.6932  153.1158 H   0  0  0  0  0  0  0  0  0  0  0  0
  146.6501  140.3658  153.3037 H   0  0  0  0  0  0  0  0  0  0  0  0
  149.0876  140.2599  153.1836 H   0  0  0  0  0  0  0  0  0  0  0  0
  148.1061  142.0059  154.6278 H   0  0  0  0  0  0  0  0  0  0  0  0
  148.1672  140.9397  156.0055 H   0  0  0  0  0  0  0  0  0  0  0  0
  150.5615  141.9987  154.4288 H   0  0  0  0  0  0  0  0  0  0  0  0
  150.1051  142.4604  156.0512 H   0  0  0  0  0  0  0  0  0  0  0  0
  151.9808  140.8000  156.0531 H   0  0  0  0  0  0  0  0  0  0  0  0
  150.5765  140.1937  156.8952 H   0  0  0  0  0  0  0  0  0  0  0  0
  151.4109  139.4969  154.0378 H   0  0  0  0  0  0  0  0  0  0  0  0
  151.4854  138.4298  155.4171 H   0  0  0  0  0  0  0  0  0  0  0  0
  149.5183  137.9802  153.9567 H   0  0  0  0  0  0  0  0  0  0  0  0
  148.9984  136.4147  156.7385 H   0  0  0  0  0  0  0  0  0  0  0  0
  150.4315  136.9320  155.8650 H   0  0  0  0  0  0  0  0  0  0  0  0
  151.0363  137.1031  158.1800 H   0  0  0  0  0  0  0  0  0  0  0  0
  150.7264  138.7565  157.7073 H   0  0  0  0  0  0  0  0  0  0  0  0
  148.9864  138.7572  159.2435 H   0  0  0  0  0  0  0  0  0  0  0  0
  145.4098  133.8554  163.0511 H   0  0  0  0  0  0  0  0  0  0  0  0
  1  2  1  0  0  0  0
  1 20  1  0  0  0  0
  1 21  1  0  0  0  0
  1 22  1  0  0  0  0
  2  7  1  0  0  0  0
  2  3  1  0  0  0  0
  2 23  1  0  0  0  0
  3  4  1  0  0  0  0
  3 24  1  0  0  0  0
  3 25  1  0  0  0  0
  4  5  1  0  0  0  0
  4 26  1  0  0  0  0
  4 27  1  0  0  0  0
  5  6  1  0  0  0  0
  5 28  1  0  0  0  0
  5 29  1  0  0  0  0
  6  7  1  0  0  0  0
  6 30  1  0  0  0  0
  6 31  1  0  0  0  0
  7  8  1  0  0  0  0
  7 32  1  0  0  0  0
  8  9  1  0  0  0  0
  9 10  1  0  0  0  0
  9 33  1  0  0  0  0
  9 34  1  0  0  0  0
 10 11  1  0  0  0  0
 10 35  1  0  0  0  0
 10 36  1  0  0  0  0
 11 12  1  0  0  0  0
 11 37  1  0  0  0  0
 12 13  2  0  0  0  0
 12 14  1  0  0  0  0
 14 15  1  0  0  0  0
 15 19  1  0  0  0  0
 15 16  2  0  0  0  0
 16 17  1  0  0  0  0
 17 18  2  0  0  0  0
 18 19  1  0  0  0  0
 18 38  1  0  0  0  0
M  CHG  1  14  -1
M  END
> <s_m_source_file>
AV-unprocessed.smi

> <i_m_source_file_index>
1947

> <i_lp_mmshare_version>
43012

> <i_f3d_flags>
0

> <s_epik_input>
W0NIM11bQ0BASF0xW0NIMl1bQ0gyXVtDSDJdW0NIMl1bQ0BIXTFPW0NIMl1bQ0gyXVtOSF1DKD1PKVtOSF1jMm5uW2NIXXMy

> <s_epik_cmdline>
J2VwaWtfcHl0aG9uJywgJy1waCcsICc3LjAnLCAnLXRuJywgJzgnLCAnLW1hJywgJzIwMCcsICctbWV0YWxfYmluZGluZycsICctaW1hZScsICc8aW5maWxlLm1hZT4nLCAnLW9tYWUnLCAnPG91dGZpbGUubWFlPic=

> <r_lp_tautomer_probability>
1

> <r_epik_Ionization_Penalty>
3.35961

> <r_epik_Ionization_Penalty_Charging>
3.31977

> <r_epik_Ionization_Penalty_Neutral>
0.0398394

> <r_epik_State_Penalty>
3.31759

> <r_epik_Charging_Adjusted_Penalty>
6.63736

> <i_epik_Tot_Q>
-1

> <i_epik_Tot_abs_Q>
1

> <r_epik_Metal_State_Penalty>
0.484557

> <b_epik_Metal_Only>
1

> <s_lp_Force_Field>
OPLS_2005

> <r_lp_Energy>
8.55413

> <b_lp_Chiralities_Consistent>
1

> <s_lp_Variant>
AV-unprocessed.smi:1947-6

> <Gold.Version>
5.8.1

> <Gold.Id.Protein>
6NUR|6NUR_protein|mol2

> <Gold.PLP.Fitness>
41.5615

> <Gold.PLP.PLP>
-31.2678

> <Gold.PLP.part.hbond>
-3.0000

> <Gold.PLP.part.metal>
0.0000

> <Gold.PLP.part.buried>
-2.5817

> <Gold.PLP.part.nonpolar>
-26.1431

> <Gold.PLP.part.repulsive>
0.2424

> <Gold.PLP.ligand.clash>
0.0000

> <Gold.PLP.ligand.torsion>
1.2067

> <Gold.PLP.Chemscore.Hbond>
4.2000

> <Gold.PLP.Chemscore.CHOScore>
0.0000

> <Gold.PLP.Chemscore.Metal>
0.0000

> <Gold.Chemscore.Hbonds>
donor molecule, donor type, donor heavy atom, donor atom, acceptor molecule, acceptor atom, score
      P1  H  6896  6909       L1    13  1.00
      P1  H  6931  6943       L1    14  1.43
      P1  H  6934  6947       L1    14  1.54

> <Gold.PLP.Chemscore.Internal.Correction>
0.1070

> <Gold.Rescore>
     Score         DG    S(hbond)    S(metal)    S(lipo)     H(rot)  DE(clash)    DE(int)     intcor
     14.44     -15.61       2.07        0.00      69.11       1.90       0.01       1.15       ----

> <Gold.Chemscore.Fitness>
14.4414

> <Gold.Chemscore.DG>
-15.6079

> <Gold.Chemscore.ZeroCoef>
-5.4800

> <Gold.Chemscore.Hbond>
2.0663

> <Gold.Chemscore.Metal>
0.0000

> <Gold.Chemscore.Lipo>
69.1133

> <Gold.Chemscore.Internal_Hbond>
0.0000

> <Gold.Chemscore.DEClash>
0.0118

> <Gold.Chemscore.DEInternal>
1.1547

> <Gold.Chemscore.Rot>
1.8984

> <Gold.Chemscore.Internal.Correction>
   9.000000E+99

> <Gold.Chemscore.Hbonds>
donor molecule, donor type, donor heavy atom, donor atom, acceptor molecule, acceptor atom, score
      P1  H  6896  6909       L1    13  0.93
      P1  H  6931  6943       L1    14  0.39
      P1  H  6934  6947       L1    14  0.56

> <Gold.Chemscore.Hbond.Weighted>
-6.9014

> <Gold.Chemscore.Metal.Weighted>
-0.0000

> <Gold.Chemscore.Lipo.Weighted>
-8.0863

> <Gold.Chemscore.Internal_Hbond.Weighted>
0.0000

> <Gold.Chemscore.DEClash.Weighted>
0.0118

> <Gold.Chemscore.DEInternal.Weighted>
1.1547

> <Gold.Chemscore.Rot.Weighted>
4.8598

> <Gold.Chemscore.Internal.Correction.Weighted>
   9.000000E+99

> <Gold.Protein.RotatedTorsions>
[ 6907 6896 6895 6894 ] final   55.41 input  -60.11 | X-H torsion
[ 7974 7965 7964 7962 ] final -156.30 input  175.53 | X-H torsion
[ 8008 7997 7996 7995 ] final  -97.32 input   59.86 | X-H torsion
[ 10167 10162 10161 10158 ] final  -90.50 input  -65.29 | X-H torsion
[ 10718 10713 10712 10709 ] final  -60.74 input   66.30 | X-H torsion
[ 10763 10752 10751 10750 ] final  153.10 input  -60.55 | X-H torsion
[ 11005 11000 10999 10996 ] final -131.12 input  -57.11 | X-H torsion

> <Gold.Protein.ActiveResidues>
 VAL166  LYS551  ARG553  GLY616  TRP617  ASP618  TYR619  PRO620  LYS621  CYS622 
 ASP623  PHE694  ASN695  SER759  ASP760  ASP761  ALA762  ILE779  LEU786  VAL792 
 PHE793  MET794  SER795  GLU796  ALA797  LYS798  CYS799  TRP800  GLU811  SER814 

> <Gold.Protein.RotatedAtoms>
  152.3536  134.6971  160.0228 H   0  0  0  0  0  0  0  0  0  0  0  0  # atno 6907 bound_to 6896
  151.7317  133.3312  159.3350 H   0  0  0  0  0  0  0  0  0  0  0  0  # atno 6908 bound_to 6896
  150.7556  134.6291  159.6221 H   0  0  0  0  0  0  0  0  0  0  0  0  # atno 6909 bound_to 6896
  144.7599  140.4129  143.5984 H   0  0  0  0  0  0  0  0  0  0  0  0  # atno 7974 bound_to 7965
  154.7861  140.0464  157.1165 H   0  0  0  0  0  0  0  0  0  0  0  0  # atno 8008 bound_to 7997
  154.9646  140.3082  155.4995 H   0  0  0  0  0  0  0  0  0  0  0  0  # atno 8009 bound_to 7997
  156.2943  140.2264  156.4734 H   0  0  0  0  0  0  0  0  0  0  0  0  # atno 8010 bound_to 7997
  140.3543  143.2875  151.9690 H   0  0  0  0  0  0  0  0  0  0  0  0  # atno 10167 bound_to 10162
  156.0970  130.4191  150.0896 H   0  0  0  0  0  0  0  0  0  0  0  0  # atno 10718 bound_to 10713
  154.1307  135.2827  155.3186 H   0  0  0  0  0  0  0  0  0  0  0  0  # atno 10763 bound_to 10752
  154.6357  135.5420  153.7735 H   0  0  0  0  0  0  0  0  0  0  0  0  # atno 10764 bound_to 10752
  153.0282  135.6474  154.1458 H   0  0  0  0  0  0  0  0  0  0  0  0  # atno 10765 bound_to 10752
  140.9287  134.1349  157.4253 H   0  0  0  0  0  0  0  0  0  0  0  0  # atno 11005 bound_to 11000
  145.6652  139.1589  143.2785 LP  0  0  0  0  0  0  0  0  0  0  0  0  # atno 17320 bound_to 7965
  146.1652  140.6729  142.9259 LP  0  0  0  0  0  0  0  0  0  0  0  0  # atno 17321 bound_to 7965
  139.4822  144.6049  151.7539 LP  0  0  0  0  0  0  0  0  0  0  0  0  # atno 17342 bound_to 10162
  140.5189  144.0910  150.6016 LP  0  0  0  0  0  0  0  0  0  0  0  0  # atno 17343 bound_to 10162
  156.8893  130.9583  151.3590 LP  0  0  0  0  0  0  0  0  0  0  0  0  # atno 17370 bound_to 10713
  157.6132  130.8599  149.8986 LP  0  0  0  0  0  0  0  0  0  0  0  0  # atno 17371 bound_to 10713
  139.8791  134.9997  156.5970 LP  0  0  0  0  0  0  0  0  0  0  0  0  # atno 17394 bound_to 11000
  140.7892  133.8596  155.8632 LP  0  0  0  0  0  0  0  0  0  0  0  0  # atno 17395 bound_to 11000

$$$$
