AV-unprocessed.smi:2895|AV-procd|sdf|11129|dock1
  -GOLD-   2272016 03D 1   1.00000     0.00000
 Structure written by MMmdl.
 53 56  0  0  0  0  0  0  0  0  2 V2000
  150.5506  136.7541  159.0865 O   0  0  0  0  0  0  0  0  0  0  0  0
  149.8409  137.7241  158.8151 C   0  0  0  0  0  0  0  0  0  0  0  0
  148.5051  137.6877  158.9688 N   0  0  0  0  0  0  0  0  0  0  0  0
  147.7423  136.5435  159.4546 C   0  0  0  0  0  0  0  0  0  0  0  0
  148.1429  136.1678  160.8896 C   0  0  0  0  0  0  0  0  0  0  0  0
  147.0866  135.3219  161.5732 C   0  0  0  0  0  0  0  0  0  0  0  0
  145.8939  135.9040  162.0493 C   0  0  0  0  0  0  0  0  0  0  0  0
  144.9438  135.0716  162.6745 C   0  0  0  0  0  0  0  0  0  0  0  0
  145.1163  133.7423  162.8400 N   0  0  0  0  0  0  0  0  0  0  0  0
  146.2602  133.1920  162.3794 C   0  0  0  0  0  0  0  0  0  0  0  0
  147.2739  133.9343  161.7407 C   0  0  0  0  0  0  0  0  0  0  0  0
  150.3383  138.9084  158.3663 N   0  0  0  0  0  0  0  0  0  0  0  0
  149.4816  139.9955  157.8368 C   0  0  0  0  0  0  0  0  0  0  0  0
  150.2115  140.9954  156.9239 C   0  0  0  0  0  0  0  0  0  0  0  0
  151.4977  141.4500  157.4997 N   0  3  0  0  0  0  0  0  0  0  0  0
  151.3923  142.2955  158.7311 C   0  0  1  0  0  0  0  0  0  0  0  0
  152.7823  142.6637  159.3148 C   0  0  0  0  0  0  0  0  0  0  0  0
  152.7324  144.1959  159.4311 C   0  0  2  0  0  0  0  0  0  0  0  0
  151.7359  144.6023  160.5303 C   0  0  0  0  0  0  0  0  0  0  0  0
  150.3767  144.2892  159.8809 C   0  0  0  0  0  0  0  0  0  0  0  0
  150.7752  143.7051  158.5110 C   0  0  1  0  0  0  0  0  0  0  0  0
  151.9831  144.5660  158.1588 C   0  0  0  0  0  0  0  0  0  0  0  0
  152.3790  140.2691  157.6572 C   0  0  0  0  0  0  0  0  0  0  0  0
  151.7734  139.1948  158.5812 C   0  0  0  0  0  0  0  0  0  0  0  0
  147.9790  138.5181  158.7384 H   0  0  0  0  0  0  0  0  0  0  0  0
  146.6721  136.7505  159.3972 H   0  0  0  0  0  0  0  0  0  0  0  0
  147.9310  135.7047  158.7841 H   0  0  0  0  0  0  0  0  0  0  0  0
  149.0855  135.6189  160.8843 H   0  0  0  0  0  0  0  0  0  0  0  0
  148.3144  137.0672  161.4828 H   0  0  0  0  0  0  0  0  0  0  0  0
  145.7079  136.9622  161.9391 H   0  0  0  0  0  0  0  0  0  0  0  0
  144.0200  135.4848  163.0517 H   0  0  0  0  0  0  0  0  0  0  0  0
  146.3716  132.1275  162.5238 H   0  0  0  0  0  0  0  0  0  0  0  0
  148.1710  133.4472  161.3880 H   0  0  0  0  0  0  0  0  0  0  0  0
  148.6445  139.6017  157.2586 H   0  0  0  0  0  0  0  0  0  0  0  0
  149.0457  140.5247  158.6852 H   0  0  0  0  0  0  0  0  0  0  0  0
  150.4250  140.5069  155.9720 H   0  0  0  0  0  0  0  0  0  0  0  0
  149.5605  141.8263  156.6616 H   0  0  0  0  0  0  0  0  0  0  0  0
  150.8052  141.7579  159.4763 H   0  0  0  0  0  0  0  0  0  0  0  0
  152.9723  142.1787  160.2732 H   0  0  0  0  0  0  0  0  0  0  0  0
  153.5947  142.3907  158.6402 H   0  0  0  0  0  0  0  0  0  0  0  0
  153.7144  144.6576  159.5380 H   0  0  0  0  0  0  0  0  0  0  0  0
  151.8937  144.0488  161.4568 H   0  0  0  0  0  0  0  0  0  0  0  0
  151.8168  145.6664  160.7566 H   0  0  0  0  0  0  0  0  0  0  0  0
  149.7784  143.5977  160.4753 H   0  0  0  0  0  0  0  0  0  0  0  0
  149.7959  145.2039  159.7550 H   0  0  0  0  0  0  0  0  0  0  0  0
  149.9530  143.7653  157.8018 H   0  0  0  0  0  0  0  0  0  0  0  0
  151.7510  145.6300  158.0882 H   0  0  0  0  0  0  0  0  0  0  0  0
  152.4913  144.2487  157.2467 H   0  0  0  0  0  0  0  0  0  0  0  0
  152.5422  139.8351  156.6696 H   0  0  0  0  0  0  0  0  0  0  0  0
  153.3693  140.5510  158.0132 H   0  0  0  0  0  0  0  0  0  0  0  0
  151.8947  139.5031  159.6205 H   0  0  0  0  0  0  0  0  0  0  0  0
  152.3774  138.2930  158.4656 H   0  0  0  0  0  0  0  0  0  0  0  0
  151.9284  142.0383  156.8006 H   0  0  0  0  0  0  0  0  0  0  0  0
  1  2  2  0  0  0  0
  2  3  1  0  0  0  0
  2 12  1  0  0  0  0
  3  4  1  0  0  0  0
  3 25  1  0  0  0  0
  4  5  1  0  0  0  0
  4 26  1  0  0  0  0
  4 27  1  0  0  0  0
  5  6  1  0  0  0  0
  5 28  1  0  0  0  0
  5 29  1  0  0  0  0
  6 11  1  0  0  0  0
  6  7  2  0  0  0  0
  7  8  1  0  0  0  0
  7 30  1  0  0  0  0
  8  9  2  0  0  0  0
  8 31  1  0  0  0  0
  9 10  1  0  0  0  0
 10 11  2  0  0  0  0
 10 32  1  0  0  0  0
 11 33  1  0  0  0  0
 12 24  1  0  0  0  0
 12 13  1  0  0  0  0
 13 14  1  0  0  0  0
 13 34  1  0  0  0  0
 13 35  1  0  0  0  0
 14 15  1  0  0  0  0
 14 36  1  0  0  0  0
 14 37  1  0  0  0  0
 15 16  1  0  0  0  0
 15 23  1  0  0  0  0
 15 53  1  0  0  0  0
 16 21  1  0  0  0  0
 16 17  1  0  0  0  0
 16 38  1  0  0  0  0
 17 18  1  0  0  0  0
 17 39  1  0  0  0  0
 17 40  1  0  0  0  0
 18 22  1  0  0  0  0
 18 19  1  0  0  0  0
 18 41  1  0  0  0  0
 19 20  1  0  0  0  0
 19 42  1  0  0  0  0
 19 43  1  0  0  0  0
 20 21  1  0  0  0  0
 20 44  1  0  0  0  0
 20 45  1  0  0  0  0
 21 22  1  0  0  0  0
 21 46  1  0  0  0  0
 22 47  1  0  0  0  0
 22 48  1  0  0  0  0
 23 24  1  0  0  0  0
 23 49  1  0  0  0  0
 23 50  1  0  0  0  0
 24 51  1  0  0  0  0
 24 52  1  0  0  0  0
M  CHG  1  15   1
M  END
> <s_m_source_file>
AV-unprocessed.smi

> <i_m_source_file_index>
2895

> <i_lp_mmshare_version>
43012

> <i_f3d_flags>
0

> <s_epik_input>
W0NIMl0xW0NIMl1bQ0BASF0oW0NIMl0yKVtDQEBIXShbQ0gyXVtDQEhdMTIpTihbQ0gyXVtDSDJdMylbQ0gyXVtDSDJdTjNDKD1PKVtOSF1bQ0gyXVtDSDJdYzRbY0hdW2NIXW5bY0hdW2NIXTQ=

> <s_epik_cmdline>
J2VwaWtfcHl0aG9uJywgJy1waCcsICc3LjAnLCAnLXRuJywgJzgnLCAnLW1hJywgJzIwMCcsICctbWV0YWxfYmluZGluZycsICctaW1hZScsICc8aW5maWxlLm1hZT4nLCAnLW9tYWUnLCAnPG91dGZpbGUubWFlPic=

> <r_epik_Ionization_Penalty>
0.0566172

> <r_epik_Ionization_Penalty_Charging>
0.00262064

> <r_epik_Ionization_Penalty_Neutral>
0.0539965

> <r_epik_State_Penalty>
0.0463959

> <r_epik_Charging_Adjusted_Penalty>
0.0490165

> <i_epik_Tot_Q>
1

> <i_epik_Tot_abs_Q>
1

> <r_epik_Metal_State_Penalty>
0.0424856

> <b_epik_Metal_Only>
0

> <s_lp_Force_Field>
OPLS_2005

> <r_lp_Energy>
101.263

> <b_lp_Chiralities_Consistent>
1

> <s_lp_Variant>
AV-unprocessed.smi:2895-2

> <Gold.Version>
5.8.1

> <Gold.Id.Protein>
6NUR|6NUR_protein|mol2

> <Gold.PLP.Fitness>
50.8673

> <Gold.PLP.PLP>
-48.6626

> <Gold.PLP.part.hbond>
-1.4116

> <Gold.PLP.part.metal>
0.0000

> <Gold.PLP.part.buried>
-6.3688

> <Gold.PLP.part.nonpolar>
-39.9321

> <Gold.PLP.part.repulsive>
0.3396

> <Gold.PLP.ligand.clash>
0.0105

> <Gold.PLP.ligand.torsion>
0.4894

> <Gold.PLP.Chemscore.Hbond>
1.0000

> <Gold.PLP.Chemscore.CHOScore>
0.0000

> <Gold.PLP.Chemscore.Metal>
0.0000

> <Gold.Chemscore.Hbonds>
donor molecule, donor type, donor heavy atom, donor atom, acceptor molecule, acceptor atom, score
      P1  H  6896  6908       L1     1  1.00

> <Gold.PLP.Chemscore.Internal.Correction>
0.1939

> <Gold.Rescore>
     Score         DG    S(hbond)    S(metal)    S(lipo)     H(rot)  DE(clash)    DE(int)     intcor
     21.69     -22.35       0.98        0.00     146.20       1.37       0.25       0.42       ----

> <Gold.Chemscore.Fitness>
21.6883

> <Gold.Chemscore.DG>
-22.3493

> <Gold.Chemscore.ZeroCoef>
-5.4800

> <Gold.Chemscore.Hbond>
0.9818

> <Gold.Chemscore.Metal>
0.0000

> <Gold.Chemscore.Lipo>
146.1982

> <Gold.Chemscore.Internal_Hbond>
0.0000

> <Gold.Chemscore.DEClash>
0.2458

> <Gold.Chemscore.DEInternal>
0.4153

> <Gold.Chemscore.Rot>
1.3731

> <Gold.Chemscore.Internal.Correction>
   9.000000E+99

> <Gold.Chemscore.Hbonds>
donor molecule, donor type, donor heavy atom, donor atom, acceptor molecule, acceptor atom, score
      P1  H  6896  6908       L1     1  0.97

> <Gold.Chemscore.Hbond.Weighted>
-3.2793

> <Gold.Chemscore.Metal.Weighted>
-0.0000

> <Gold.Chemscore.Lipo.Weighted>
-17.1052

> <Gold.Chemscore.Internal_Hbond.Weighted>
0.0000

> <Gold.Chemscore.DEClash.Weighted>
0.2458

> <Gold.Chemscore.DEInternal.Weighted>
0.4153

> <Gold.Chemscore.Rot.Weighted>
3.5152

> <Gold.Chemscore.Internal.Correction.Weighted>
   9.000000E+99

> <Gold.Protein.RotatedTorsions>
[ 6907 6896 6895 6894 ] final -163.21 input  -60.11 | X-H torsion
[ 7974 7965 7964 7962 ] final  -92.02 input  175.53 | X-H torsion
[ 8008 7997 7996 7995 ] final -133.90 input   59.86 | X-H torsion
[ 10167 10162 10161 10158 ] final  -54.27 input  -65.29 | X-H torsion
[ 10718 10713 10712 10709 ] final -158.71 input   66.30 | X-H torsion
[ 10763 10752 10751 10750 ] final   54.50 input  -60.55 | X-H torsion
[ 11005 11000 10999 10996 ] final   87.47 input  -57.11 | X-H torsion

> <Gold.Protein.ActiveResidues>
 VAL166  LYS551  ARG553  GLY616  TRP617  ASP618  TYR619  PRO620  LYS621  CYS622 
 ASP623  PHE694  ASN695  SER759  ASP760  ASP761  ALA762  ILE779  LEU786  VAL792 
 PHE793  MET794  SER795  GLU796  ALA797  LYS798  CYS799  TRP800  GLU811  SER814 

> <Gold.Protein.RotatedAtoms>
  151.3924  133.3784  159.2722 H   0  0  0  0  0  0  0  0  0  0  0  0  # atno 6907 bound_to 6896
  150.9495  134.8898  159.7673 H   0  0  0  0  0  0  0  0  0  0  0  0  # atno 6908 bound_to 6896
  152.5106  134.3878  159.9426 H   0  0  0  0  0  0  0  0  0  0  0  0  # atno 6909 bound_to 6896
  145.4054  140.9541  143.2263 H   0  0  0  0  0  0  0  0  0  0  0  0  # atno 7974 bound_to 7965
  155.3532  140.0478  157.3046 H   0  0  0  0  0  0  0  0  0  0  0  0  # atno 8008 bound_to 7997
  154.5216  140.2227  155.8929 H   0  0  0  0  0  0  0  0  0  0  0  0  # atno 8009 bound_to 7997
  156.1695  140.3099  155.8955 H   0  0  0  0  0  0  0  0  0  0  0  0  # atno 8010 bound_to 7997
  140.6440  143.2524  151.4912 H   0  0  0  0  0  0  0  0  0  0  0  0  # atno 10167 bound_to 10162
  156.5579  130.8634  151.2800 H   0  0  0  0  0  0  0  0  0  0  0  0  # atno 10718 bound_to 10713
  152.9805  135.5743  154.4914 H   0  0  0  0  0  0  0  0  0  0  0  0  # atno 10763 bound_to 10752
  154.4447  135.2777  155.1825 H   0  0  0  0  0  0  0  0  0  0  0  0  # atno 10764 bound_to 10752
  154.3478  135.6216  153.5681 H   0  0  0  0  0  0  0  0  0  0  0  0  # atno 10765 bound_to 10752
  139.8919  134.8424  156.2864 H   0  0  0  0  0  0  0  0  0  0  0  0  # atno 11005 bound_to 11000
  144.8345  139.5573  143.6928 LP  0  0  0  0  0  0  0  0  0  0  0  0  # atno 17320 bound_to 7965
  146.2731  139.6685  142.9282 LP  0  0  0  0  0  0  0  0  0  0  0  0  # atno 17321 bound_to 7965
  139.5649  144.2065  152.1750 LP  0  0  0  0  0  0  0  0  0  0  0  0  # atno 17342 bound_to 10162
  140.1344  144.5259  150.6782 LP  0  0  0  0  0  0  0  0  0  0  0  0  # atno 17343 bound_to 10162
  157.7374  130.9796  150.2194 LP  0  0  0  0  0  0  0  0  0  0  0  0  # atno 17370 bound_to 10713
  156.2825  130.3735  149.7921 LP  0  0  0  0  0  0  0  0  0  0  0  0  # atno 17371 bound_to 10713
  141.0005  133.7154  156.0952 LP  0  0  0  0  0  0  0  0  0  0  0  0  # atno 17394 bound_to 11000
  140.7504  134.4051  157.5542 LP  0  0  0  0  0  0  0  0  0  0  0  0  # atno 17395 bound_to 11000

$$$$
