AV-unprocessed.smi:1715|AV-procd|sdf|6912|dock6
  -GOLD-   22720 8113D 1   1.00000     0.00000
 Structure written by MMmdl.
 41 42  0  0  0  0  0  0  0  0  2 V2000
  146.1983  142.9268  153.6590 C   0  0  0  0  0  0  0  0  0  0  0  0
  147.3183  141.9724  154.1105 C   0  0  2  0  0  0  0  0  0  0  0  0
  147.5501  140.7928  153.1457 C   0  0  0  0  0  0  0  0  0  0  0  0
  146.4635  139.7898  153.2512 N   0  3  1  0  0  0  0  0  0  0  0  0
  146.6322  138.6722  152.2894 C   0  0  0  0  0  0  0  0  0  0  0  0
  145.6097  137.5417  152.5158 C   0  0  0  0  0  0  0  0  0  0  0  0
  144.2513  138.0611  152.6241 N   0  0  0  0  0  0  0  0  0  0  0  0
  143.2120  137.3872  153.1374 C   0  0  0  0  0  0  0  0  0  0  0  0
  143.2970  136.2380  153.5708 O   0  0  0  0  0  0  0  0  0  0  0  0
  142.0892  138.1237  153.1116 N   0  0  0  0  0  0  0  0  0  0  0  0
  140.7986  137.7426  153.5580 C   0  0  0  0  0  0  0  0  0  0  0  0
  139.5867  138.3682  153.1572 C   0  0  0  0  0  0  0  0  0  0  0  0
  138.5363  137.8010  153.7327 N   0  0  0  0  0  0  0  0  0  0  0  0
  139.0661  136.8198  154.4976 N   0  0  0  0  0  0  0  0  0  0  0  0
  140.4394  136.7461  154.4218 C   0  0  0  0  0  0  0  0  0  0  0  0
  146.3128  139.3437  154.6574 C   0  0  0  0  0  0  0  0  0  0  0  0
  146.0547  140.5491  155.5794 C   0  0  1  0  0  0  0  0  0  0  0  0
  145.9807  140.1395  157.0545 C   0  0  0  0  0  0  0  0  0  0  0  0
  147.1156  141.4902  155.4387 O   0  0  0  0  0  0  0  0  0  0  0  0
  138.4836  136.2150  155.0595 H   0  0  0  0  0  0  0  0  0  0  0  0
  146.4441  143.3839  152.7000 H   0  0  0  0  0  0  0  0  0  0  0  0
  146.0605  143.7325  154.3804 H   0  0  0  0  0  0  0  0  0  0  0  0
  145.2425  142.4179  153.5390 H   0  0  0  0  0  0  0  0  0  0  0  0
  148.2366  142.5597  154.1410 H   0  0  0  0  0  0  0  0  0  0  0  0
  147.6269  141.1608  152.1217 H   0  0  0  0  0  0  0  0  0  0  0  0
  148.5010  140.3110  153.3794 H   0  0  0  0  0  0  0  0  0  0  0  0
  146.4970  139.0502  151.2749 H   0  0  0  0  0  0  0  0  0  0  0  0
  147.6553  138.2965  152.3438 H   0  0  0  0  0  0  0  0  0  0  0  0
  145.6441  136.8032  151.7145 H   0  0  0  0  0  0  0  0  0  0  0  0
  145.8433  137.0092  153.4382 H   0  0  0  0  0  0  0  0  0  0  0  0
  144.0926  139.0016  152.2925 H   0  0  0  0  0  0  0  0  0  0  0  0
  142.1636  139.0566  152.7328 H   0  0  0  0  0  0  0  0  0  0  0  0
  139.4373  139.1981  152.4823 H   0  0  0  0  0  0  0  0  0  0  0  0
  141.0102  136.0139  154.9735 H   0  0  0  0  0  0  0  0  0  0  0  0
  145.4849  138.6413  154.7476 H   0  0  0  0  0  0  0  0  0  0  0  0
  147.2143  138.8143  154.9702 H   0  0  0  0  0  0  0  0  0  0  0  0
  145.1074  141.0179  155.3122 H   0  0  0  0  0  0  0  0  0  0  0  0
  145.1750  139.4249  157.2247 H   0  0  0  0  0  0  0  0  0  0  0  0
  145.7950  141.0057  157.6902 H   0  0  0  0  0  0  0  0  0  0  0  0
  146.9123  139.6785  157.3840 H   0  0  0  0  0  0  0  0  0  0  0  0
  145.6106  140.2666  152.9957 H   0  0  0  0  0  0  0  0  0  0  0  0
  1  2  1  0  0  0  0
  1 21  1  0  0  0  0
  1 22  1  0  0  0  0
  1 23  1  0  0  0  0
  2 19  1  0  0  0  0
  2  3  1  0  0  0  0
  2 24  1  0  0  0  0
  3  4  1  0  0  0  0
  3 25  1  0  0  0  0
  3 26  1  0  0  0  0
  4  5  1  0  0  0  0
  4 16  1  0  0  0  0
  4 41  1  0  0  0  0
  5  6  1  0  0  0  0
  5 27  1  0  0  0  0
  5 28  1  0  0  0  0
  6  7  1  0  0  0  0
  6 29  1  0  0  0  0
  6 30  1  0  0  0  0
  7  8  1  0  0  0  0
  7 31  1  0  0  0  0
  8  9  2  0  0  0  0
  8 10  1  0  0  0  0
 10 11  1  0  0  0  0
 10 32  1  0  0  0  0
 11 15  2  0  0  0  0
 11 12  1  0  0  0  0
 12 13  2  0  0  0  0
 12 33  1  0  0  0  0
 13 14  1  0  0  0  0
 14 20  1  0  0  0  0
 14 15  1  0  0  0  0
 15 34  1  0  0  0  0
 16 17  1  0  0  0  0
 16 35  1  0  0  0  0
 16 36  1  0  0  0  0
 17 18  1  0  0  0  0
 17 19  1  0  0  0  0
 17 37  1  0  0  0  0
 18 38  1  0  0  0  0
 18 39  1  0  0  0  0
 18 40  1  0  0  0  0
M  CHG  1   4   1
M  END
> <s_m_source_file>
AV-unprocessed.smi

> <i_m_source_file_index>
1715

> <i_lp_mmshare_version>
43012

> <i_f3d_flags>
0

> <s_epik_input>
W0NIM11bQ0BASF0xW0NIMl1OKFtDSDJdW0NASF0oTzEpW0NIM10pW0NIMl1bQ0gyXVtOSF1DKD1PKVtOSF1jMltjSF1uW25IXVtjSF0y

> <s_epik_cmdline>
J2VwaWtfcHl0aG9uJywgJy1waCcsICc3LjAnLCAnLXRuJywgJzgnLCAnLW1hJywgJzIwMCcsICctbWV0YWxfYmluZGluZycsICctaW1hZScsICc8aW5maWxlLm1hZT4nLCAnLW9tYWUnLCAnPG91dGZpbGUubWFlPic=

> <r_lp_tautomer_probability>
0.5

> <r_epik_Ionization_Penalty>
0.646007

> <r_epik_Ionization_Penalty_Charging>
0.645968

> <r_epik_Ionization_Penalty_Neutral>
3.91671e-05

> <r_epik_State_Penalty>
0.664063

> <r_epik_Charging_Adjusted_Penalty>
1.31003

> <i_epik_Tot_Q>
1

> <i_epik_Tot_abs_Q>
1

> <r_epik_Metal_State_Penalty>
0.664064

> <b_epik_Metal_Only>
0

> <s_lp_Force_Field>
OPLS_2005

> <r_lp_Energy>
20.2841

> <b_lp_Chiralities_Consistent>
1

> <s_lp_Variant>
AV-unprocessed.smi:1715-4

> <Gold.Version>
5.8.1

> <Gold.Id.Protein>
6NUR|6NUR_protein|mol2

> <Gold.PLP.Fitness>
47.2077

> <Gold.PLP.PLP>
-31.1110

> <Gold.PLP.part.hbond>
-3.8240

> <Gold.PLP.part.metal>
0.0000

> <Gold.PLP.part.buried>
-4.7925

> <Gold.PLP.part.nonpolar>
-23.9196

> <Gold.PLP.part.repulsive>
0.4196

> <Gold.PLP.ligand.clash>
0.0000

> <Gold.PLP.ligand.torsion>
0.2880

> <Gold.PLP.Chemscore.Hbond>
3.7684

> <Gold.PLP.Chemscore.CHOScore>
1.7818

> <Gold.PLP.Chemscore.Metal>
0.0000

> <Gold.Chemscore.Hbonds>
donor molecule, donor type, donor heavy atom, donor atom, acceptor molecule, acceptor atom, score
      L1  H     4    41       P1 10175  2.00
      L1  H     7    31       P1 10175  0.94
      L1  H    10    32       P1 10175  0.77
      L1  C    12    33       P1 10160  1.00
      L1  C    15    34       P1 11000  0.82

> <Gold.PLP.Chemscore.Internal.Correction>
0.0223

> <Gold.Rescore>
     Score         DG    S(hbond)    S(metal)    S(lipo)     H(rot)  DE(clash)    DE(int)     intcor
     15.56     -16.87       2.50        0.00      62.36       1.67       0.02       1.29       ----

> <Gold.Chemscore.Fitness>
15.5641

> <Gold.Chemscore.DG>
-16.8739

> <Gold.Chemscore.ZeroCoef>
-5.4800

> <Gold.Chemscore.Hbond>
2.5046

> <Gold.Chemscore.Metal>
0.0000

> <Gold.Chemscore.Lipo>
62.3606

> <Gold.Chemscore.Internal_Hbond>
0.0000

> <Gold.Chemscore.DEClash>
0.0224

> <Gold.Chemscore.DEInternal>
1.2874

> <Gold.Chemscore.Rot>
1.6671

> <Gold.Chemscore.Internal.Correction>
   9.000000E+99

> <Gold.Chemscore.Hbonds>
donor molecule, donor type, donor heavy atom, donor atom, acceptor molecule, acceptor atom, score
      L1  H     4    41       P1 10175  0.91
      L1  H     7    31       P1 10175  0.88
      L1  H    10    32       P1 10175  0.69

> <Gold.Chemscore.Hbond.Weighted>
-8.3654

> <Gold.Chemscore.Metal.Weighted>
-0.0000

> <Gold.Chemscore.Lipo.Weighted>
-7.2962

> <Gold.Chemscore.Internal_Hbond.Weighted>
0.0000

> <Gold.Chemscore.DEClash.Weighted>
0.0224

> <Gold.Chemscore.DEInternal.Weighted>
1.2874

> <Gold.Chemscore.Rot.Weighted>
4.2677

> <Gold.Chemscore.Internal.Correction.Weighted>
   9.000000E+99

> <Gold.Protein.RotatedTorsions>
[ 6907 6896 6895 6894 ] final  154.70 input  -60.11 | X-H torsion
[ 7974 7965 7964 7962 ] final  166.59 input  175.53 | X-H torsion
[ 8008 7997 7996 7995 ] final  -82.12 input   59.86 | X-H torsion
[ 10167 10162 10161 10158 ] final  -23.10 input  -65.29 | X-H torsion
[ 10718 10713 10712 10709 ] final   76.53 input   66.30 | X-H torsion
[ 10763 10752 10751 10750 ] final  -29.75 input  -60.55 | X-H torsion
[ 11005 11000 10999 10996 ] final -109.35 input  -57.11 | X-H torsion

> <Gold.Protein.ActiveResidues>
 VAL166  LYS551  ARG553  GLY616  TRP617  ASP618  TYR619  PRO620  LYS621  CYS622 
 ASP623  PHE694  ASN695  SER759  ASP760  ASP761  ALA762  ILE779  LEU786  VAL792 
 PHE793  MET794  SER795  GLU796  ALA797  LYS798  CYS799  TRP800  GLU811  SER814 

> <Gold.Protein.RotatedAtoms>
  152.0547  133.4035  159.4391 H   0  0  0  0  0  0  0  0  0  0  0  0  # atno 6907 bound_to 6896
  150.6868  134.3268  159.4819 H   0  0  0  0  0  0  0  0  0  0  0  0  # atno 6908 bound_to 6896
  152.1082  134.9293  160.0618 H   0  0  0  0  0  0  0  0  0  0  0  0  # atno 6909 bound_to 6896
  144.7456  139.8637  143.6383 H   0  0  0  0  0  0  0  0  0  0  0  0  # atno 7974 bound_to 7965
  154.6053  140.0638  156.9423 H   0  0  0  0  0  0  0  0  0  0  0  0  # atno 8008 bound_to 7997
  155.2063  140.3319  155.4317 H   0  0  0  0  0  0  0  0  0  0  0  0  # atno 8009 bound_to 7997
  156.2344  140.1856  156.7143 H   0  0  0  0  0  0  0  0  0  0  0  0  # atno 8010 bound_to 7997
  140.7287  143.4474  151.0567 H   0  0  0  0  0  0  0  0  0  0  0  0  # atno 10167 bound_to 10162
  157.6677  130.9779  150.1511 H   0  0  0  0  0  0  0  0  0  0  0  0  # atno 10718 bound_to 10713
  153.7697  135.6913  153.4909 H   0  0  0  0  0  0  0  0  0  0  0  0  # atno 10763 bound_to 10752
  153.1883  135.4480  155.0115 H   0  0  0  0  0  0  0  0  0  0  0  0  # atno 10764 bound_to 10752
  154.8122  135.3383  154.7207 H   0  0  0  0  0  0  0  0  0  0  0  0  # atno 10765 bound_to 10752
  141.0852  133.9151  157.2200 H   0  0  0  0  0  0  0  0  0  0  0  0  # atno 11005 bound_to 11000
  146.1330  139.4369  143.0157 LP  0  0  0  0  0  0  0  0  0  0  0  0  # atno 17320 bound_to 7965
  145.7135  141.0098  143.1441 LP  0  0  0  0  0  0  0  0  0  0  0  0  # atno 17321 bound_to 7965
  139.8147  143.7903  152.3173 LP  0  0  0  0  0  0  0  0  0  0  0  0  # atno 17342 bound_to 10162
  139.7964  144.7391  150.9884 LP  0  0  0  0  0  0  0  0  0  0  0  0  # atno 17343 bound_to 10162
  156.2310  130.3682  149.8445 LP  0  0  0  0  0  0  0  0  0  0  0  0  # atno 17370 bound_to 10713
  156.6272  130.8650  151.3488 LP  0  0  0  0  0  0  0  0  0  0  0  0  # atno 17371 bound_to 10713
  139.9670  135.0139  156.9412 LP  0  0  0  0  0  0  0  0  0  0  0  0  # atno 17394 bound_to 11000
  140.5378  134.0749  155.7333 LP  0  0  0  0  0  0  0  0  0  0  0  0  # atno 17395 bound_to 11000

$$$$
