AV-unprocessed.smi:2701|AV-procd|sdf|10429|dock3
  -GOLD-   2272014473D 1   1.00000     0.00000
 Structure written by MMmdl.
 31 32  0  0  0  0  0  0  0  0  2 V2000
  150.7851  134.9786  155.3556 C   0  0  0  0  0  0  0  0  0  0  0  0
  151.0809  136.3581  155.9714 C   0  0  2  0  0  0  0  0  0  0  0  0
  150.3191  136.5299  157.3125 C   0  0  0  0  0  0  0  0  0  0  0  0
  150.9455  136.5303  158.3730 O   0  0  0  0  0  0  0  0  0  0  0  0
  148.9861  136.6833  157.1324 N   0  5  0  0  0  0  0  0  0  0  0  0
  147.9966  137.0067  158.3687 S   0  0  0  0  0  0  0  0  0  0  0  0
  148.2353  138.3387  158.9467 O   0  0  0  0  0  0  0  0  0  0  0  0
  146.6024  136.6336  158.0816 O   0  0  0  0  0  0  0  0  0  0  0  0
  148.6048  135.7924  159.6164 C   0  0  0  0  0  0  0  0  0  0  0  0
  147.8235  135.9270  160.8933 C   0  0  0  0  0  0  0  0  0  0  0  0
  147.4484  134.9077  161.8122 C   0  0  0  0  0  0  0  0  0  0  0  0
  146.7669  135.5858  162.7809 C   0  0  0  0  0  0  0  0  0  0  0  0
  146.7293  136.9118  162.4959 O   0  0  0  0  0  0  0  0  0  0  0  0
  147.4096  137.1205  161.2908 N   0  0  0  0  0  0  0  0  0  0  0  0
  150.8320  137.5053  154.9775 C   0  0  0  0  0  0  0  0  0  0  0  0
  151.7410  138.6178  155.4733 C   0  0  0  0  0  0  0  0  0  0  0  0
  152.8514  137.8702  156.2169 C   0  0  0  0  0  0  0  0  0  0  0  0
  152.4891  136.4904  156.1747 O   0  0  0  0  0  0  0  0  0  0  0  0
  149.7282  134.8766  155.1073 H   0  0  0  0  0  0  0  0  0  0  0  0
  151.0462  134.1693  156.0386 H   0  0  0  0  0  0  0  0  0  0  0  0
  151.3564  134.8252  154.4398 H   0  0  0  0  0  0  0  0  0  0  0  0
  148.4977  134.7916  159.1992 H   0  0  0  0  0  0  0  0  0  0  0  0
  149.6679  135.9726  159.7776 H   0  0  0  0  0  0  0  0  0  0  0  0
  147.6437  133.8467  161.7621 H   0  0  0  0  0  0  0  0  0  0  0  0
  146.2749  135.2819  163.6930 H   0  0  0  0  0  0  0  0  0  0  0  0
  151.1470  137.2047  153.9773 H   0  0  0  0  0  0  0  0  0  0  0  0
  149.7888  137.8146  154.9040 H   0  0  0  0  0  0  0  0  0  0  0  0
  152.1227  139.2303  154.6561 H   0  0  0  0  0  0  0  0  0  0  0  0
  151.2037  139.2715  156.1617 H   0  0  0  0  0  0  0  0  0  0  0  0
  153.8260  138.0124  155.7496 H   0  0  0  0  0  0  0  0  0  0  0  0
  152.9200  138.2060  157.2524 H   0  0  0  0  0  0  0  0  0  0  0  0
  1  2  1  0  0  0  0
  1 19  1  0  0  0  0
  1 20  1  0  0  0  0
  1 21  1  0  0  0  0
  2 18  1  0  0  0  0
  2  3  1  0  0  0  0
  2 15  1  0  0  0  0
  3  4  2  0  0  0  0
  3  5  1  0  0  0  0
  5  6  1  0  0  0  0
  6  7  2  0  0  0  0
  6  8  2  0  0  0  0
  6  9  1  0  0  0  0
  9 10  1  0  0  0  0
  9 22  1  0  0  0  0
  9 23  1  0  0  0  0
 10 14  2  0  0  0  0
 10 11  1  0  0  0  0
 11 12  2  0  0  0  0
 11 24  1  0  0  0  0
 12 13  1  0  0  0  0
 12 25  1  0  0  0  0
 13 14  1  0  0  0  0
 15 16  1  0  0  0  0
 15 26  1  0  0  0  0
 15 27  1  0  0  0  0
 16 17  1  0  0  0  0
 16 28  1  0  0  0  0
 16 29  1  0  0  0  0
 17 18  1  0  0  0  0
 17 30  1  0  0  0  0
 17 31  1  0  0  0  0
M  CHG  1   5  -1
M  END
> <s_m_source_file>
AV-unprocessed.smi

> <i_m_source_file_index>
2701

> <i_lp_mmshare_version>
43012

> <i_f3d_flags>
0

> <s_epik_input>
TzFbQ0gyXVtDSDJdW0NIMl1bQ0BAXTEoW0NIM10pQyg9TylbTkhdUyg9TykoPU8pW0NIMl1jMltjSF1bY0hdb24y

> <s_epik_cmdline>
J2VwaWtfcHl0aG9uJywgJy1waCcsICc3LjAnLCAnLXRuJywgJzgnLCAnLW1hJywgJzIwMCcsICctbWV0YWxfYmluZGluZycsICctaW1hZScsICc8aW5maWxlLm1hZT4nLCAnLW9tYWUnLCAnPG91dGZpbGUubWFlPic=

> <r_lp_tautomer_probability>
1

> <r_epik_Ionization_Penalty>
0.000279175

> <r_epik_Ionization_Penalty_Charging>
0.000279174

> <r_epik_Ionization_Penalty_Neutral>
1.67252e-10

> <r_epik_State_Penalty>
-0

> <r_epik_Charging_Adjusted_Penalty>
0.000279174

> <i_epik_Tot_Q>
-1

> <i_epik_Tot_abs_Q>
1

> <r_epik_Metal_State_Penalty>
-0

> <b_epik_Metal_Only>
0

> <s_lp_Force_Field>
OPLS_2005

> <r_lp_Energy>
16.1622

> <b_lp_Chiralities_Consistent>
1

> <s_lp_Variant>
AV-unprocessed.smi:2701-2

> <Gold.Version>
5.8.1

> <Gold.Id.Protein>
6NUR|6NUR_protein|mol2

> <Gold.PLP.Fitness>
35.8193

> <Gold.PLP.PLP>
-26.4865

> <Gold.PLP.part.hbond>
-5.0000

> <Gold.PLP.part.metal>
0.0000

> <Gold.PLP.part.buried>
-4.2389

> <Gold.PLP.part.nonpolar>
-17.9037

> <Gold.PLP.part.repulsive>
0.0074

> <Gold.PLP.ligand.clash>
0.0000

> <Gold.PLP.ligand.torsion>
1.1870

> <Gold.PLP.Chemscore.Hbond>
3.5459

> <Gold.PLP.Chemscore.CHOScore>
0.0000

> <Gold.PLP.Chemscore.Metal>
0.0000

> <Gold.Chemscore.Hbonds>
donor molecule, donor type, donor heavy atom, donor atom, acceptor molecule, acceptor atom, score
      P1  H  6896  6909       L1     4  0.70
      P1  H  6931  6943       L1    14  0.84
      P1  H  6934  6947       L1    14  0.98
      P1  H 10752 10763       L1    18  1.00

> <Gold.PLP.Chemscore.Internal.Correction>
1.0690

> <Gold.Rescore>
     Score         DG    S(hbond)    S(metal)    S(lipo)     H(rot)  DE(clash)    DE(int)     intcor
     13.37     -17.86       2.87        0.00      57.98       1.56       0.44       4.05       ----

> <Gold.Chemscore.Fitness>
13.3749

> <Gold.Chemscore.DG>
-17.8638

> <Gold.Chemscore.ZeroCoef>
-5.4800

> <Gold.Chemscore.Hbond>
2.8716

> <Gold.Chemscore.Metal>
0.0000

> <Gold.Chemscore.Lipo>
57.9837

> <Gold.Chemscore.Internal_Hbond>
0.0000

> <Gold.Chemscore.DEClash>
0.4435

> <Gold.Chemscore.DEInternal>
4.0454

> <Gold.Chemscore.Rot>
1.5591

> <Gold.Chemscore.Internal.Correction>
   9.000000E+99

> <Gold.Chemscore.Hbonds>
donor molecule, donor type, donor heavy atom, donor atom, acceptor molecule, acceptor atom, score
      P1  H  6896  6909       L1     4  0.69
      P1  H  6931  6943       L1    14  0.20
      P1  H  6934  6947       L1    14  0.41
      P1  H 10752 10763       L1    18  0.74

> <Gold.Chemscore.Hbond.Weighted>
-9.5911

> <Gold.Chemscore.Metal.Weighted>
-0.0000

> <Gold.Chemscore.Lipo.Weighted>
-6.7841

> <Gold.Chemscore.Internal_Hbond.Weighted>
0.0000

> <Gold.Chemscore.DEClash.Weighted>
0.4435

> <Gold.Chemscore.DEInternal.Weighted>
4.0454

> <Gold.Chemscore.Rot.Weighted>
3.9914

> <Gold.Chemscore.Internal.Correction.Weighted>
   9.000000E+99

> <Gold.Protein.RotatedTorsions>
[ 6907 6896 6895 6894 ] final   88.36 input  -60.11 | X-H torsion
[ 7974 7965 7964 7962 ] final   43.40 input  175.53 | X-H torsion
[ 8008 7997 7996 7995 ] final  -20.83 input   59.86 | X-H torsion
[ 10167 10162 10161 10158 ] final  162.01 input  -65.29 | X-H torsion
[ 10718 10713 10712 10709 ] final -139.39 input   66.30 | X-H torsion
[ 10763 10752 10751 10750 ] final  104.18 input  -60.55 | X-H torsion
[ 11005 11000 10999 10996 ] final  -14.99 input  -57.11 | X-H torsion

> <Gold.Protein.ActiveResidues>
 VAL166  LYS551  ARG553  GLY616  TRP617  ASP618  TYR619  PRO620  LYS621  CYS622 
 ASP623  PHE694  ASN695  SER759  ASP760  ASP761  ALA762  ILE779  LEU786  VAL792 
 PHE793  MET794  SER795  GLU796  ALA797  LYS798  CYS799  TRP800  GLU811  SER814 

> <Gold.Protein.RotatedAtoms>
  152.5424  134.2134  159.8758 H   0  0  0  0  0  0  0  0  0  0  0  0  # atno 6907 bound_to 6896
  151.2115  133.4546  159.2606 H   0  0  0  0  0  0  0  0  0  0  0  0  # atno 6908 bound_to 6896
  151.0892  134.9918  159.8450 H   0  0  0  0  0  0  0  0  0  0  0  0  # atno 6909 bound_to 6896
  146.0659  139.5191  142.9629 H   0  0  0  0  0  0  0  0  0  0  0  0  # atno 7974 bound_to 7965
  154.4744  140.2051  155.9914 H   0  0  0  0  0  0  0  0  0  0  0  0  # atno 8008 bound_to 7997
  156.1065  140.3236  155.7984 H   0  0  0  0  0  0  0  0  0  0  0  0  # atno 8009 bound_to 7997
  155.4708  140.0531  157.2970 H   0  0  0  0  0  0  0  0  0  0  0  0  # atno 8010 bound_to 7997
  139.4855  144.4480  151.8867 H   0  0  0  0  0  0  0  0  0  0  0  0  # atno 10167 bound_to 10162
  156.3102  130.7477  151.1551 H   0  0  0  0  0  0  0  0  0  0  0  0  # atno 10718 bound_to 10713
  153.3625  135.3952  155.1729 H   0  0  0  0  0  0  0  0  0  0  0  0  # atno 10763 bound_to 10752
  154.8681  135.3683  154.5081 H   0  0  0  0  0  0  0  0  0  0  0  0  # atno 10764 bound_to 10752
  153.5541  135.7082  153.5638 H   0  0  0  0  0  0  0  0  0  0  0  0  # atno 10765 bound_to 10752
  140.7921  133.8280  155.9389 H   0  0  0  0  0  0  0  0  0  0  0  0  # atno 11005 bound_to 11000
  145.6478  141.0270  143.1776 LP  0  0  0  0  0  0  0  0  0  0  0  0  # atno 17320 bound_to 7965
  144.7202  139.8057  143.7384 LP  0  0  0  0  0  0  0  0  0  0  0  0  # atno 17321 bound_to 7965
  140.3935  144.2585  150.5898 LP  0  0  0  0  0  0  0  0  0  0  0  0  # atno 17342 bound_to 10162
  140.5124  143.2287  151.8515 LP  0  0  0  0  0  0  0  0  0  0  0  0  # atno 17343 bound_to 10162
  157.7389  131.0535  150.5265 LP  0  0  0  0  0  0  0  0  0  0  0  0  # atno 17370 bound_to 10713
  156.5403  130.4206  149.6157 LP  0  0  0  0  0  0  0  0  0  0  0  0  # atno 17371 bound_to 10713
  140.9379  134.1938  157.4818 LP  0  0  0  0  0  0  0  0  0  0  0  0  # atno 17394 bound_to 11000
  139.8730  134.9860  156.5304 LP  0  0  0  0  0  0  0  0  0  0  0  0  # atno 17395 bound_to 11000

$$$$
