AV-unprocessed.smi:199|AV-procd|sdf|1562|dock3
  -GOLD-   2262019433D 1   1.00000     0.00000
 Structure written by MMmdl.
 51 55  0  0  0  0  0  0  0  0  1 V2000
  145.6156  133.1238  162.3151 C   0  0  0  0  0  0  0  0  0  0  0  0
  146.7017  134.2059  162.2007 C   0  0  2  0  0  0  0  0  0  0  0  0
  146.7930  134.9550  163.4035 O   0  0  0  0  0  0  0  0  0  0  0  0
  147.5157  136.1343  163.1002 C   0  0  0  0  0  0  0  0  0  0  0  0
  146.8978  136.5788  161.7798 C   0  0  0  0  0  0  0  0  0  0  0  0
  146.5316  135.2659  161.0799 C   0  0  2  0  0  0  0  0  0  0  0  0
  145.1842  135.3582  160.6465 O   0  0  0  0  0  0  0  0  0  0  0  0
  147.4209  134.9970  159.8405 C   0  0  0  0  0  0  0  0  0  0  0  0
  147.7056  136.1931  159.0618 N   0  0  0  0  0  0  0  0  0  0  0  0
  146.8334  137.2180  158.7763 C   0  0  0  0  0  0  0  0  0  0  0  0
  147.3263  138.1784  158.0445 N   0  0  0  0  0  0  0  0  0  0  0  0
  148.6400  137.7920  157.8036 C   0  0  0  0  0  0  0  0  0  0  0  0
  149.7318  138.3538  157.0778 C   0  0  0  0  0  0  0  0  0  0  0  0
  149.6696  139.5257  156.3864 N   0  0  0  0  0  0  0  0  0  0  0  0
  150.5610  140.6271  156.7217 C   0  0  1  0  0  0  0  0  0  0  0  0
  151.9301  140.1897  156.1585 C   0  0  0  0  0  0  0  0  0  0  0  0
  151.5032  139.4031  154.9091 C   0  0  0  0  0  0  0  0  0  0  0  0
  149.9703  139.5635  154.9621 C   0  0  2  0  0  0  0  0  0  0  0  0
  149.6052  141.0136  154.5702 C   0  0  1  0  0  0  0  0  0  0  0  0
  148.1204  141.1971  154.2077 C   0  0  0  0  0  0  0  0  0  0  0  0
  147.8005  140.4520  153.0520 O   0  0  0  0  0  0  0  0  0  0  0  0
  150.0031  141.7669  155.8554 C   0  0  0  0  0  0  0  0  0  0  0  0
  150.9101  137.6755  157.1076 N   0  0  0  0  0  0  0  0  0  0  0  0
  151.0142  136.5209  157.7702 C   0  0  0  0  0  0  0  0  0  0  0  0
  150.0803  135.8737  158.4671 N   0  0  0  0  0  0  0  0  0  0  0  0
  148.8982  136.5525  158.4580 C   0  0  0  0  0  0  0  0  0  0  0  0
  145.5307  132.5509  161.3914 H   0  0  0  0  0  0  0  0  0  0  0  0
  144.6396  133.5557  162.5362 H   0  0  0  0  0  0  0  0  0  0  0  0
  145.8531  132.4235  163.1159 H   0  0  0  0  0  0  0  0  0  0  0  0
  147.6675  133.7129  162.0864 H   0  0  0  0  0  0  0  0  0  0  0  0
  147.4163  136.8833  163.8860 H   0  0  0  0  0  0  0  0  0  0  0  0
  148.5740  135.8977  162.9787 H   0  0  0  0  0  0  0  0  0  0  0  0
  146.0070  137.1725  161.9929 H   0  0  0  0  0  0  0  0  0  0  0  0
  147.5752  137.2071  161.2001 H   0  0  0  0  0  0  0  0  0  0  0  0
  144.8327  136.1867  160.9341 H   0  0  0  0  0  0  0  0  0  0  0  0
  148.3698  134.5508  160.1416 H   0  0  0  0  0  0  0  0  0  0  0  0
  146.9389  134.2694  159.1862 H   0  0  0  0  0  0  0  0  0  0  0  0
  145.8102  137.2274  159.1225 H   0  0  0  0  0  0  0  0  0  0  0  0
  150.5911  140.8899  157.7796 H   0  0  0  0  0  0  0  0  0  0  0  0
  152.5770  141.0362  155.9259 H   0  0  0  0  0  0  0  0  0  0  0  0
  152.4597  139.5422  156.8583 H   0  0  0  0  0  0  0  0  0  0  0  0
  151.9397  139.7939  153.9896 H   0  0  0  0  0  0  0  0  0  0  0  0
  151.7883  138.3539  154.9989 H   0  0  0  0  0  0  0  0  0  0  0  0
  149.4495  138.8318  154.3478 H   0  0  0  0  0  0  0  0  0  0  0  0
  150.2150  141.3520  153.7308 H   0  0  0  0  0  0  0  0  0  0  0  0
  147.4737  140.8859  155.0288 H   0  0  0  0  0  0  0  0  0  0  0  0
  147.9077  142.2475  154.0075 H   0  0  0  0  0  0  0  0  0  0  0  0
  148.5212  140.5163  152.4440 H   0  0  0  0  0  0  0  0  0  0  0  0
  149.1348  142.2189  156.3372 H   0  0  0  0  0  0  0  0  0  0  0  0
  150.7340  142.5559  155.6751 H   0  0  0  0  0  0  0  0  0  0  0  0
  151.9844  136.0476  157.7352 H   0  0  0  0  0  0  0  0  0  0  0  0
  1  2  1  0  0  0  0
  1 27  1  0  0  0  0
  1 28  1  0  0  0  0
  1 29  1  0  0  0  0
  2  6  1  0  0  0  0
  2  3  1  0  0  0  0
  2 30  1  0  0  0  0
  3  4  1  0  0  0  0
  4  5  1  0  0  0  0
  4 31  1  0  0  0  0
  4 32  1  0  0  0  0
  5  6  1  0  0  0  0
  5 33  1  0  0  0  0
  5 34  1  0  0  0  0
  6  7  1  0  0  0  0
  6  8  1  0  0  0  0
  7 35  1  0  0  0  0
  8  9  1  0  0  0  0
  8 36  1  0  0  0  0
  8 37  1  0  0  0  0
  9 26  1  0  0  0  0
  9 10  1  0  0  0  0
 10 11  2  0  0  0  0
 10 38  1  0  0  0  0
 11 12  1  0  0  0  0
 12 26  2  0  0  0  0
 12 13  1  0  0  0  0
 13 14  1  0  0  0  0
 13 23  2  0  0  0  0
 14 18  1  0  0  0  0
 14 15  1  0  0  0  0
 15 22  1  0  0  0  0
 15 16  1  0  0  0  0
 15 39  1  0  0  0  0
 16 17  1  0  0  0  0
 16 40  1  0  0  0  0
 16 41  1  0  0  0  0
 17 18  1  0  0  0  0
 17 42  1  0  0  0  0
 17 43  1  0  0  0  0
 18 19  1  0  0  0  0
 18 44  1  0  0  0  0
 19 20  1  0  0  0  0
 19 22  1  0  0  0  0
 19 45  1  0  0  0  0
 20 21  1  0  0  0  0
 20 46  1  0  0  0  0
 20 47  1  0  0  0  0
 21 48  1  0  0  0  0
 22 49  1  0  0  0  0
 22 50  1  0  0  0  0
 23 24  1  0  0  0  0
 24 25  2  0  0  0  0
 24 51  1  0  0  0  0
 25 26  1  0  0  0  0
M  END
> <s_m_source_file>
AV-unprocessed.smi

> <i_m_source_file_index>
199

> <i_lp_mmshare_version>
43012

> <i_f3d_flags>
0

> <s_epik_input>
W0NIMl0xW0NIMl1PW0NAQEhdKFtDSDNdKVtDQEBdMShbT0hdKVtDSDJdbihbY0hdbjIpYyhjMjMpbltjSF1uYzNOKFtDQEBIXTQ1KVtDQEhdKFtDSDJdW0NIMl00KVtDQEhdKFtDSDJdNSlbQ0gyXVtPSF0=

> <s_epik_cmdline>
J2VwaWtfcHl0aG9uJywgJy1waCcsICc3LjAnLCAnLXRuJywgJzgnLCAnLW1hJywgJzIwMCcsICctbWV0YWxfYmluZGluZycsICctaW1hZScsICc8aW5maWxlLm1hZT4nLCAnLW9tYWUnLCAnPG91dGZpbGUubWFlPic=

> <r_lp_tautomer_probability>
1

> <r_epik_Ionization_Penalty>
0.00583903

> <r_epik_Ionization_Penalty_Charging>
0

> <r_epik_Ionization_Penalty_Neutral>
0.00583903

> <r_epik_State_Penalty>
-0

> <r_epik_Charging_Adjusted_Penalty>
0

> <i_epik_Tot_Q>
0

> <i_epik_Tot_abs_Q>
0

> <r_epik_Metal_State_Penalty>
-0

> <b_epik_Metal_Only>
0

> <s_lp_Force_Field>
OPLS_2005

> <r_lp_Energy>
83.6045

> <b_lp_Chiralities_Consistent>
1

> <s_lp_Variant>
AV-unprocessed.smi:199-3

> <Gold.Version>
5.8.1

> <Gold.Id.Protein>
6NUR|6NUR_protein|mol2

> <Gold.PLP.Fitness>
45.3652

> <Gold.PLP.PLP>
-40.5187

> <Gold.PLP.part.hbond>
-3.0000

> <Gold.PLP.part.metal>
0.0000

> <Gold.PLP.part.buried>
-3.1904

> <Gold.PLP.part.nonpolar>
-35.1591

> <Gold.PLP.part.repulsive>
0.0051

> <Gold.PLP.ligand.clash>
0.0000

> <Gold.PLP.ligand.torsion>
0.6185

> <Gold.PLP.Chemscore.Hbond>
2.0000

> <Gold.PLP.Chemscore.CHOScore>
0.0000

> <Gold.PLP.Chemscore.Metal>
0.0000

> <Gold.Chemscore.Hbonds>
donor molecule, donor type, donor heavy atom, donor atom, acceptor molecule, acceptor atom, score
      L1  H    21    48       P1  7957  1.00
      P1  H  6896  6909       L1    25  0.93

> <Gold.PLP.Chemscore.Internal.Correction>
0.0835

> <Gold.Rescore>
     Score         DG    S(hbond)    S(metal)    S(lipo)     H(rot)  DE(clash)    DE(int)     intcor
     11.01     -14.89       1.79        0.00      96.67       3.07       0.65       3.24       ----

> <Gold.Chemscore.Fitness>
11.0051

> <Gold.Chemscore.DG>
-14.8926

> <Gold.Chemscore.ZeroCoef>
-5.4800

> <Gold.Chemscore.Hbond>
1.7869

> <Gold.Chemscore.Metal>
0.0000

> <Gold.Chemscore.Lipo>
96.6748

> <Gold.Chemscore.Internal_Hbond>
0.0000

> <Gold.Chemscore.DEClash>
0.6508

> <Gold.Chemscore.DEInternal>
3.2367

> <Gold.Chemscore.Rot>
3.0729

> <Gold.Chemscore.Internal.Correction>
   9.000000E+99

> <Gold.Chemscore.Hbonds>
donor molecule, donor type, donor heavy atom, donor atom, acceptor molecule, acceptor atom, score
      L1  H    21    48       P1  7957  0.99
      P1  H  6896  6909       L1    25  0.82

> <Gold.Chemscore.Hbond.Weighted>
-5.9683

> <Gold.Chemscore.Metal.Weighted>
-0.0000

> <Gold.Chemscore.Lipo.Weighted>
-11.3109

> <Gold.Chemscore.Internal_Hbond.Weighted>
0.0000

> <Gold.Chemscore.DEClash.Weighted>
0.6508

> <Gold.Chemscore.DEInternal.Weighted>
3.2367

> <Gold.Chemscore.Rot.Weighted>
7.8667

> <Gold.Chemscore.Internal.Correction.Weighted>
   9.000000E+99

> <Gold.Protein.RotatedTorsions>
[ 6907 6896 6895 6894 ] final   50.14 input  -60.11 | X-H torsion
[ 7974 7965 7964 7962 ] final  -43.23 input  175.53 | X-H torsion
[ 8008 7997 7996 7995 ] final -146.79 input   59.86 | X-H torsion
[ 10167 10162 10161 10158 ] final   77.87 input  -65.29 | X-H torsion
[ 10718 10713 10712 10709 ] final  155.35 input   66.30 | X-H torsion
[ 10763 10752 10751 10750 ] final  151.03 input  -60.55 | X-H torsion
[ 11005 11000 10999 10996 ] final  -97.38 input  -57.11 | X-H torsion

> <Gold.Protein.ActiveResidues>
 VAL166  LYS551  ARG553  GLY616  TRP617  ASP618  TYR619  PRO620  LYS621  CYS622 
 ASP623  PHE694  ASN695  SER759  ASP760  ASP761  ALA762  ILE779  LEU786  VAL792 
 PHE793  MET794  SER795  GLU796  ALA797  LYS798  CYS799  TRP800  GLU811  SER814 

> <Gold.Protein.RotatedAtoms>
  152.2986  134.7638  160.0362 H   0  0  0  0  0  0  0  0  0  0  0  0  # atno 6907 bound_to 6896
  151.8159  133.3382  159.3577 H   0  0  0  0  0  0  0  0  0  0  0  0  # atno 6908 bound_to 6896
  150.7263  134.5549  159.5857 H   0  0  0  0  0  0  0  0  0  0  0  0  # atno 6909 bound_to 6896
  146.0039  140.7042  142.9257 H   0  0  0  0  0  0  0  0  0  0  0  0  # atno 7974 bound_to 7965
  155.5651  140.0629  157.2820 H   0  0  0  0  0  0  0  0  0  0  0  0  # atno 8008 bound_to 7997
  154.4378  140.1879  156.0868 H   0  0  0  0  0  0  0  0  0  0  0  0  # atno 8009 bound_to 7997
  156.0418  140.3294  155.7256 H   0  0  0  0  0  0  0  0  0  0  0  0  # atno 8010 bound_to 7997
  139.9770  144.5854  150.7934 H   0  0  0  0  0  0  0  0  0  0  0  0  # atno 10167 bound_to 10162
  157.2195  131.0715  151.1920 H   0  0  0  0  0  0  0  0  0  0  0  0  # atno 10718 bound_to 10713
  154.0972  135.2848  155.3259 H   0  0  0  0  0  0  0  0  0  0  0  0  # atno 10763 bound_to 10752
  154.6580  135.5345  153.7986 H   0  0  0  0  0  0  0  0  0  0  0  0  # atno 10764 bound_to 10752
  153.0392  135.6527  154.1137 H   0  0  0  0  0  0  0  0  0  0  0  0  # atno 10765 bound_to 10752
  141.1381  133.8166  157.0698 H   0  0  0  0  0  0  0  0  0  0  0  0  # atno 11005 bound_to 11000
  144.6929  140.3281  143.7220 LP  0  0  0  0  0  0  0  0  0  0  0  0  # atno 17320 bound_to 7965
  145.7445  139.1774  143.2357 LP  0  0  0  0  0  0  0  0  0  0  0  0  # atno 17321 bound_to 7965
  140.7502  143.2952  151.3224 LP  0  0  0  0  0  0  0  0  0  0  0  0  # atno 17342 bound_to 10162
  139.6438  144.0489  152.2575 LP  0  0  0  0  0  0  0  0  0  0  0  0  # atno 17343 bound_to 10162
  157.3590  130.7121  149.6489 LP  0  0  0  0  0  0  0  0  0  0  0  0  # atno 17370 bound_to 10713
  155.9683  130.4231  150.4546 LP  0  0  0  0  0  0  0  0  0  0  0  0  # atno 17371 bound_to 10713
  140.0519  134.9801  157.1151 LP  0  0  0  0  0  0  0  0  0  0  0  0  # atno 17394 bound_to 11000
  140.3978  134.2115  155.7164 LP  0  0  0  0  0  0  0  0  0  0  0  0  # atno 17395 bound_to 11000

$$$$
