AV-unprocessed.smi:780|AV-procd|sdf|3706|dock10
  -GOLD-   22720 1133D 1   1.00000     0.00000
 Structure written by MMmdl.
 48 49  0  0  0  0  0  0  0  0  1 V2000
  153.3353  142.9829  163.3770 C   0  0  0  0  0  0  0  0  0  0  0  0
  152.8929  143.0283  161.9291 C   0  0  0  0  0  0  0  0  0  0  0  0
  152.0637  144.1113  161.4437 C   0  0  0  0  0  0  0  0  0  0  0  0
  151.6826  144.1160  160.1569 C   0  0  0  0  0  0  0  0  0  0  0  0
  152.0642  143.0981  159.2637 N   0  0  0  0  0  0  0  0  0  0  0  0
  151.5326  143.1820  157.8895 C   0  0  0  0  0  0  0  0  0  0  0  0
  150.6273  142.0035  157.4853 C   0  0  0  0  0  0  0  0  0  0  0  0
  151.0281  140.8507  157.6389 O   0  0  0  0  0  0  0  0  0  0  0  0
  149.4274  142.2925  156.9607 N   0  0  0  0  0  0  0  0  0  0  0  0
  148.4501  141.3363  156.4642 C   0  0  0  0  0  0  0  0  0  0  0  0
  147.0500  141.6818  156.9979 C   0  0  0  0  0  0  0  0  0  0  0  0
  147.0665  142.3258  158.3938 C   0  0  0  0  0  0  0  0  0  0  0  0
  146.0071  141.7834  159.1672 O   0  0  0  0  0  0  0  0  0  0  0  0
  145.2924  142.7437  159.9357 C   0  0  0  0  0  0  0  0  0  0  0  0
  146.1034  143.1740  161.1780 C   0  0  0  0  0  0  0  0  0  0  0  0
  145.2878  144.1091  162.0854 C   0  0  0  0  0  0  0  0  0  0  0  0
  143.9523  143.4682  162.4941 C   0  0  0  0  0  0  0  0  0  0  0  0
  143.1431  143.0363  161.2610 C   0  0  0  0  0  0  0  0  0  0  0  0
  143.9620  142.0974  160.3607 C   0  0  0  0  0  0  0  0  0  0  0  0
  152.8504  142.0509  159.6572 C   0  0  0  0  0  0  0  0  0  0  0  0
  153.1780  141.1509  158.8840 O   0  0  0  0  0  0  0  0  0  0  0  0
  153.2626  142.0569  161.0657 C   0  0  0  0  0  0  0  0  0  0  0  0
  152.7747  143.6968  163.9810 H   0  0  0  0  0  0  0  0  0  0  0  0
  154.3954  143.2250  163.4563 H   0  0  0  0  0  0  0  0  0  0  0  0
  153.1756  141.9885  163.7954 H   0  0  0  0  0  0  0  0  0  0  0  0
  151.7499  144.9044  162.1065 H   0  0  0  0  0  0  0  0  0  0  0  0
  151.0565  144.8878  159.7329 H   0  0  0  0  0  0  0  0  0  0  0  0
  150.9611  144.1039  157.7711 H   0  0  0  0  0  0  0  0  0  0  0  0
  152.3444  143.2600  157.1644 H   0  0  0  0  0  0  0  0  0  0  0  0
  149.1809  143.2677  156.8748 H   0  0  0  0  0  0  0  0  0  0  0  0
  148.4528  141.3496  155.3733 H   0  0  0  0  0  0  0  0  0  0  0  0
  148.7299  140.3291  156.7766 H   0  0  0  0  0  0  0  0  0  0  0  0
  146.5513  142.3516  156.2969 H   0  0  0  0  0  0  0  0  0  0  0  0
  146.4477  140.7729  157.0306 H   0  0  0  0  0  0  0  0  0  0  0  0
  148.0209  142.1357  158.8833 H   0  0  0  0  0  0  0  0  0  0  0  0
  146.9533  143.4077  158.3100 H   0  0  0  0  0  0  0  0  0  0  0  0
  145.0673  143.6170  159.3203 H   0  0  0  0  0  0  0  0  0  0  0  0
  146.4052  142.2910  161.7428 H   0  0  0  0  0  0  0  0  0  0  0  0
  147.0221  143.6806  160.8859 H   0  0  0  0  0  0  0  0  0  0  0  0
  145.8661  144.3608  162.9747 H   0  0  0  0  0  0  0  0  0  0  0  0
  145.0983  145.0484  161.5641 H   0  0  0  0  0  0  0  0  0  0  0  0
  144.1423  142.6012  163.1281 H   0  0  0  0  0  0  0  0  0  0  0  0
  143.3711  144.1689  163.0942 H   0  0  0  0  0  0  0  0  0  0  0  0
  142.2234  142.5422  161.5750 H   0  0  0  0  0  0  0  0  0  0  0  0
  142.8428  143.9176  160.6927 H   0  0  0  0  0  0  0  0  0  0  0  0
  143.3799  141.8313  159.4779 H   0  0  0  0  0  0  0  0  0  0  0  0
  144.1595  141.1655  160.8926 H   0  0  0  0  0  0  0  0  0  0  0  0
  153.8816  141.2460  161.4219 H   0  0  0  0  0  0  0  0  0  0  0  0
  1  2  1  0  0  0  0
  1 23  1  0  0  0  0
  1 24  1  0  0  0  0
  1 25  1  0  0  0  0
  2 22  2  0  0  0  0
  2  3  1  0  0  0  0
  3  4  2  0  0  0  0
  3 26  1  0  0  0  0
  4  5  1  0  0  0  0
  4 27  1  0  0  0  0
  5  6  1  0  0  0  0
  5 20  1  0  0  0  0
  6  7  1  0  0  0  0
  6 28  1  0  0  0  0
  6 29  1  0  0  0  0
  7  8  2  0  0  0  0
  7  9  1  0  0  0  0
  9 10  1  0  0  0  0
  9 30  1  0  0  0  0
 10 11  1  0  0  0  0
 10 31  1  0  0  0  0
 10 32  1  0  0  0  0
 11 12  1  0  0  0  0
 11 33  1  0  0  0  0
 11 34  1  0  0  0  0
 12 13  1  0  0  0  0
 12 35  1  0  0  0  0
 12 36  1  0  0  0  0
 13 14  1  0  0  0  0
 14 19  1  0  0  0  0
 14 15  1  0  0  0  0
 14 37  1  0  0  0  0
 15 16  1  0  0  0  0
 15 38  1  0  0  0  0
 15 39  1  0  0  0  0
 16 17  1  0  0  0  0
 16 40  1  0  0  0  0
 16 41  1  0  0  0  0
 17 18  1  0  0  0  0
 17 42  1  0  0  0  0
 17 43  1  0  0  0  0
 18 19  1  0  0  0  0
 18 44  1  0  0  0  0
 18 45  1  0  0  0  0
 19 46  1  0  0  0  0
 19 47  1  0  0  0  0
 20 21  2  0  0  0  0
 20 22  1  0  0  0  0
 22 48  1  0  0  0  0
M  END
> <s_m_source_file>
AV-unprocessed.smi

> <i_m_source_file_index>
780

> <i_lp_mmshare_version>
43012

> <i_f3d_flags>
0

> <s_epik_input>
W0NIM11jMVtjSF1bY0hdbihjKD1PKVtjSF0xKVtDSDJdQyg9TylbTkhdW0NIMl1bQ0gyXVtDSDJdT1tDSF0yW0NIMl1bQ0gyXVtDSDJdW0NIMl1bQ0gyXTI=

> <s_epik_cmdline>
J2VwaWtfcHl0aG9uJywgJy1waCcsICc3LjAnLCAnLXRuJywgJzgnLCAnLW1hJywgJzIwMCcsICctbWV0YWxfYmluZGluZycsICctaW1hZScsICc8aW5maWxlLm1hZT4nLCAnLW9tYWUnLCAnPG91dGZpbGUubWFlPic=

> <r_lp_tautomer_probability>
1

> <r_epik_Ionization_Penalty>
5.32667e-07

> <r_epik_Ionization_Penalty_Charging>
5.13386e-07

> <r_epik_Ionization_Penalty_Neutral>
1.92812e-08

> <r_epik_State_Penalty>
-0

> <r_epik_Charging_Adjusted_Penalty>
5.13386e-07

> <i_epik_Tot_Q>
0

> <i_epik_Tot_abs_Q>
0

> <r_epik_Metal_State_Penalty>
-0

> <b_epik_Metal_Only>
0

> <s_lp_Force_Field>
OPLS_2005

> <r_lp_Energy>
20.4059

> <b_lp_Chiralities_Consistent>
1

> <s_lp_Variant>
AV-unprocessed.smi:780-1

> <Gold.Version>
5.8.1

> <Gold.Id.Protein>
6NUR|6NUR_protein|mol2

> <Gold.PLP.Fitness>
53.6064

> <Gold.PLP.PLP>
-50.1698

> <Gold.PLP.part.hbond>
-2.3382

> <Gold.PLP.part.metal>
0.0000

> <Gold.PLP.part.buried>
-5.7983

> <Gold.PLP.part.nonpolar>
-41.7343

> <Gold.PLP.part.repulsive>
0.0130

> <Gold.PLP.ligand.clash>
0.0000

> <Gold.PLP.ligand.torsion>
1.0484

> <Gold.PLP.Chemscore.Hbond>
1.8224

> <Gold.PLP.Chemscore.CHOScore>
0.0000

> <Gold.PLP.Chemscore.Metal>
0.0000

> <Gold.Chemscore.Hbonds>
donor molecule, donor type, donor heavy atom, donor atom, acceptor molecule, acceptor atom, score
      L1  H     9    30       P1  8028  0.93
      P1  H  6934  6946       L1    13  0.88

> <Gold.PLP.Chemscore.Internal.Correction>
0.0661

> <Gold.Rescore>
     Score         DG    S(hbond)    S(metal)    S(lipo)     H(rot)  DE(clash)    DE(int)     intcor
     14.57     -17.17       1.16        0.00     109.87       1.97       0.13       2.47       ----

> <Gold.Chemscore.Fitness>
14.5660

> <Gold.Chemscore.DG>
-17.1705

> <Gold.Chemscore.ZeroCoef>
-5.4800

> <Gold.Chemscore.Hbond>
1.1591

> <Gold.Chemscore.Metal>
0.0000

> <Gold.Chemscore.Lipo>
109.8700

> <Gold.Chemscore.Internal_Hbond>
0.0000

> <Gold.Chemscore.DEClash>
0.1338

> <Gold.Chemscore.DEInternal>
2.4707

> <Gold.Chemscore.Rot>
1.9671

> <Gold.Chemscore.Internal.Correction>
   9.000000E+99

> <Gold.Chemscore.Hbonds>
donor molecule, donor type, donor heavy atom, donor atom, acceptor molecule, acceptor atom, score
      L1  H     9    30       P1  8028  0.84
      P1  H  6934  6946       L1    13  0.08

> <Gold.Chemscore.Hbond.Weighted>
-3.8715

> <Gold.Chemscore.Metal.Weighted>
-0.0000

> <Gold.Chemscore.Lipo.Weighted>
-12.8548

> <Gold.Chemscore.Internal_Hbond.Weighted>
0.0000

> <Gold.Chemscore.DEClash.Weighted>
0.1338

> <Gold.Chemscore.DEInternal.Weighted>
2.4707

> <Gold.Chemscore.Rot.Weighted>
5.0359

> <Gold.Chemscore.Internal.Correction.Weighted>
   9.000000E+99

> <Gold.Protein.RotatedTorsions>
[ 6907 6896 6895 6894 ] final  -81.50 input  -60.11 | X-H torsion
[ 7974 7965 7964 7962 ] final   57.24 input  175.53 | X-H torsion
[ 8008 7997 7996 7995 ] final -124.92 input   59.86 | X-H torsion
[ 10167 10162 10161 10158 ] final  -30.18 input  -65.29 | X-H torsion
[ 10718 10713 10712 10709 ] final   46.56 input   66.30 | X-H torsion
[ 10763 10752 10751 10750 ] final -128.61 input  -60.55 | X-H torsion
[ 11005 11000 10999 10996 ] final  -61.92 input  -57.11 | X-H torsion

> <Gold.Protein.ActiveResidues>
 VAL166  LYS551  ARG553  GLY616  TRP617  ASP618  TYR619  PRO620  LYS621  CYS622 
 ASP623  PHE694  ASN695  SER759  ASP760  ASP761  ALA762  ILE779  LEU786  VAL792 
 PHE793  MET794  SER795  GLU796  ALA797  LYS798  CYS799  TRP800  GLU811  SER814 

> <Gold.Protein.RotatedAtoms>
  150.6911  134.3808  159.5032 H   0  0  0  0  0  0  0  0  0  0  0  0  # atno 6907 bound_to 6896
  152.1610  134.8909  160.0551 H   0  0  0  0  0  0  0  0  0  0  0  0  # atno 6908 bound_to 6896
  151.9971  133.3777  159.4204 H   0  0  0  0  0  0  0  0  0  0  0  0  # atno 6909 bound_to 6896
  145.9311  139.3808  143.0420 H   0  0  0  0  0  0  0  0  0  0  0  0  # atno 7974 bound_to 7965
  155.2048  140.0417  157.2923 H   0  0  0  0  0  0  0  0  0  0  0  0  # atno 8008 bound_to 7997
  154.6051  140.2462  155.7713 H   0  0  0  0  0  0  0  0  0  0  0  0  # atno 8009 bound_to 7997
  156.2345  140.2926  156.0284 H   0  0  0  0  0  0  0  0  0  0  0  0  # atno 8010 bound_to 7997
  140.7252  143.3869  151.1499 H   0  0  0  0  0  0  0  0  0  0  0  0  # atno 10167 bound_to 10162
  157.4493  130.8129  149.7772 H   0  0  0  0  0  0  0  0  0  0  0  0  # atno 10718 bound_to 10713
  154.8756  135.3923  154.3784 H   0  0  0  0  0  0  0  0  0  0  0  0  # atno 10763 bound_to 10752
  153.4535  135.7028  153.6099 H   0  0  0  0  0  0  0  0  0  0  0  0  # atno 10764 bound_to 10752
  153.4629  135.3808  155.2317 H   0  0  0  0  0  0  0  0  0  0  0  0  # atno 10765 bound_to 10752
  141.1341  133.6635  156.5449 H   0  0  0  0  0  0  0  0  0  0  0  0  # atno 11005 bound_to 11000
  145.8424  140.9573  143.0792 LP  0  0  0  0  0  0  0  0  0  0  0  0  # atno 17320 bound_to 7965
  144.6765  140.0302  143.7482 LP  0  0  0  0  0  0  0  0  0  0  0  0  # atno 17321 bound_to 7965
  139.7468  143.8840  152.3065 LP  0  0  0  0  0  0  0  0  0  0  0  0  # atno 17342 bound_to 10162
  139.8680  144.7083  150.9021 LP  0  0  0  0  0  0  0  0  0  0  0  0  # atno 17343 bound_to 10162
  155.9980  130.3896  150.2717 LP  0  0  0  0  0  0  0  0  0  0  0  0  # atno 17370 bound_to 10713
  157.0887  131.0163  151.3129 LP  0  0  0  0  0  0  0  0  0  0  0  0  # atno 17371 bound_to 10713
  140.4110  134.7272  157.4836 LP  0  0  0  0  0  0  0  0  0  0  0  0  # atno 17394 bound_to 11000
  140.0427  134.6244  155.8960 LP  0  0  0  0  0  0  0  0  0  0  0  0  # atno 17395 bound_to 11000

$$$$
