AV-unprocessed.smi:1493|AV-procd|sdf|6051|dock3
  -GOLD-   22720 6163D 1   1.00000     0.00000
 Structure written by MMmdl.
 34 34  0  0  0  0  0  0  0  0  1 V2000
  154.0247  141.5978  160.5682 C   0  0  0  0  0  0  0  0  0  0  0  0
  152.6269  142.0130  160.0973 C   0  0  0  0  0  0  0  0  0  0  0  0
  152.6658  143.1636  159.0761 C   0  0  0  0  0  0  0  0  0  0  0  0
  151.2873  143.7961  158.8049 C   0  0  1  0  0  0  0  0  0  0  0  0
  151.3773  145.3228  158.6705 C   0  0  0  0  0  0  0  0  0  0  0  0
  150.7043  143.2375  157.5864 N   0  0  0  0  0  0  0  0  0  0  0  0
  150.6824  141.9400  157.2443 C   0  0  0  0  0  0  0  0  0  0  0  0
  151.1755  141.0475  157.9355 O   0  0  0  0  0  0  0  0  0  0  0  0
  150.0146  141.6171  155.8994 C   0  0  0  0  0  0  0  0  0  0  0  0
  150.4526  140.3402  155.3176 N   0  0  0  0  0  0  0  0  0  0  0  0
  151.7340  139.9597  155.6864 N   0  0  0  0  0  0  0  0  0  0  0  0
  152.2277  138.8505  155.2499 C   0  0  0  0  0  0  0  0  0  0  0  0
  153.4989  138.5109  155.6426 O   0  0  0  0  0  0  0  0  0  0  0  0
  151.4685  137.9869  154.3724 C   0  0  0  0  0  0  0  0  0  0  0  0
  150.2225  138.3680  154.0155 C   0  0  0  0  0  0  0  0  0  0  0  0
  149.6318  139.6198  154.4925 C   0  0  0  0  0  0  0  0  0  0  0  0
  148.5005  139.9926  154.1825 O   0  0  0  0  0  0  0  0  0  0  0  0
  153.6048  137.6062  155.3913 H   0  0  0  0  0  0  0  0  0  0  0  0
  153.9655  140.7820  161.2890 H   0  0  0  0  0  0  0  0  0  0  0  0
  154.5418  142.4289  161.0487 H   0  0  0  0  0  0  0  0  0  0  0  0
  154.6371  141.2592  159.7322 H   0  0  0  0  0  0  0  0  0  0  0  0
  152.1279  141.1449  159.6656 H   0  0  0  0  0  0  0  0  0  0  0  0
  152.0316  142.3117  160.9609 H   0  0  0  0  0  0  0  0  0  0  0  0
  153.3434  143.9351  159.4440 H   0  0  0  0  0  0  0  0  0  0  0  0
  153.0956  142.8056  158.1394 H   0  0  0  0  0  0  0  0  0  0  0  0
  150.6493  143.5790  159.6632 H   0  0  0  0  0  0  0  0  0  0  0  0
  151.7952  145.7723  159.5717 H   0  0  0  0  0  0  0  0  0  0  0  0
  150.3913  145.7612  158.5123 H   0  0  0  0  0  0  0  0  0  0  0  0
  152.0094  145.6118  157.8301 H   0  0  0  0  0  0  0  0  0  0  0  0
  150.2787  143.8958  156.9500 H   0  0  0  0  0  0  0  0  0  0  0  0
  148.9299  141.6163  156.0233 H   0  0  0  0  0  0  0  0  0  0  0  0
  150.2288  142.4371  155.2115 H   0  0  0  0  0  0  0  0  0  0  0  0
  151.8964  137.0613  154.0162 H   0  0  0  0  0  0  0  0  0  0  0  0
  149.6440  137.7327  153.3610 H   0  0  0  0  0  0  0  0  0  0  0  0
  1  2  1  0  0  0  0
  1 19  1  0  0  0  0
  1 20  1  0  0  0  0
  1 21  1  0  0  0  0
  2  3  1  0  0  0  0
  2 22  1  0  0  0  0
  2 23  1  0  0  0  0
  3  4  1  0  0  0  0
  3 24  1  0  0  0  0
  3 25  1  0  0  0  0
  4  5  1  0  0  0  0
  4  6  1  0  0  0  0
  4 26  1  0  0  0  0
  5 27  1  0  0  0  0
  5 28  1  0  0  0  0
  5 29  1  0  0  0  0
  6  7  1  0  0  0  0
  6 30  1  0  0  0  0
  7  8  2  0  0  0  0
  7  9  1  0  0  0  0
  9 31  1  0  0  0  0
  9 32  1  0  0  0  0
  9 10  1  0  0  0  0
 10 11  1  0  0  0  0
 10 16  1  0  0  0  0
 11 12  2  0  0  0  0
 12 13  1  0  0  0  0
 12 14  1  0  0  0  0
 13 18  1  0  0  0  0
 14 33  1  0  0  0  0
 14 15  2  0  0  0  0
 15 34  1  0  0  0  0
 15 16  1  0  0  0  0
 16 17  2  0  0  0  0
M  END
> <s_m_source_file>
AV-unprocessed.smi

> <i_m_source_file_index>
1493

> <i_lp_mmshare_version>
43012

> <i_f3d_flags>
0

> <s_epik_input>
W0NIM11bQ0gyXVtDSDJdW0NASF0oW0NIM10pW05IXUMoPU8pW0NIMl1uMVtuSF1jKD1PKVtjSF1bY0hdYzE9Tw==

> <s_epik_cmdline>
J2VwaWtfcHl0aG9uJywgJy1waCcsICc3LjAnLCAnLXRuJywgJzgnLCAnLW1hJywgJzIwMCcsICctbWV0YWxfYmluZGluZycsICctaW1hZScsICc8aW5maWxlLm1hZT4nLCAnLW9tYWUnLCAnPG91dGZpbGUubWFlPic=

> <r_lp_tautomer_probability>
0.9996

> <r_epik_Ionization_Penalty>
2.12047

> <r_epik_Ionization_Penalty_Charging>
3.81971e-08

> <r_epik_Ionization_Penalty_Neutral>
2.12047

> <r_epik_State_Penalty>
1.69728

> <r_epik_Charging_Adjusted_Penalty>
1.69728

> <i_epik_Tot_Q>
0

> <i_epik_Tot_abs_Q>
0

> <r_epik_Metal_State_Penalty>
1.69728

> <b_epik_Metal_Only>
0

> <s_lp_Force_Field>
OPLS_2005

> <r_lp_Energy>
15.6532

> <b_lp_Chiralities_Consistent>
1

> <s_lp_Variant>
AV-unprocessed.smi:1493-4

> <Gold.Version>
5.8.1

> <Gold.Id.Protein>
6NUR|6NUR_protein|mol2

> <Gold.PLP.Fitness>
43.1295

> <Gold.PLP.PLP>
-40.3699

> <Gold.PLP.part.hbond>
-2.8524

> <Gold.PLP.part.metal>
0.0000

> <Gold.PLP.part.buried>
-3.5433

> <Gold.PLP.part.nonpolar>
-33.9101

> <Gold.PLP.part.repulsive>
0.1394

> <Gold.PLP.ligand.clash>
0.0000

> <Gold.PLP.ligand.torsion>
1.4280

> <Gold.PLP.Chemscore.Hbond>
1.8553

> <Gold.PLP.Chemscore.CHOScore>
0.0000

> <Gold.PLP.Chemscore.Metal>
0.0000

> <Gold.Chemscore.Hbonds>
donor molecule, donor type, donor heavy atom, donor atom, acceptor molecule, acceptor atom, score
      L1  H     6    30       P1  8028  0.94
      P1  H  7997  8008       L1    13  0.82

> <Gold.PLP.Chemscore.Internal.Correction>
0.0499

> <Gold.Rescore>
     Score         DG    S(hbond)    S(metal)    S(lipo)     H(rot)  DE(clash)    DE(int)     intcor
      7.74     -13.70       1.75        0.00      81.11       2.78       0.19       5.78       ----

> <Gold.Chemscore.Fitness>
7.7397

> <Gold.Chemscore.DG>
-13.7035

> <Gold.Chemscore.ZeroCoef>
-5.4800

> <Gold.Chemscore.Hbond>
1.7505

> <Gold.Chemscore.Metal>
0.0000

> <Gold.Chemscore.Lipo>
81.1092

> <Gold.Chemscore.Internal_Hbond>
0.0000

> <Gold.Chemscore.DEClash>
0.1887

> <Gold.Chemscore.DEInternal>
5.7752

> <Gold.Chemscore.Rot>
2.7785

> <Gold.Chemscore.Internal.Correction>
   9.000000E+99

> <Gold.Chemscore.Hbonds>
donor molecule, donor type, donor heavy atom, donor atom, acceptor molecule, acceptor atom, score
      L1  H     6    30       P1  8028  0.89
      P1  H  7997  8008       L1    13  0.49

> <Gold.Chemscore.Hbond.Weighted>
-5.8467

> <Gold.Chemscore.Metal.Weighted>
-0.0000

> <Gold.Chemscore.Lipo.Weighted>
-9.4898

> <Gold.Chemscore.Internal_Hbond.Weighted>
0.0000

> <Gold.Chemscore.DEClash.Weighted>
0.1887

> <Gold.Chemscore.DEInternal.Weighted>
5.7752

> <Gold.Chemscore.Rot.Weighted>
7.1129

> <Gold.Chemscore.Internal.Correction.Weighted>
   9.000000E+99

> <Gold.Protein.RotatedTorsions>
[ 6907 6896 6895 6894 ] final  119.92 input  -60.11 | X-H torsion
[ 7974 7965 7964 7962 ] final   63.92 input  175.53 | X-H torsion
[ 8008 7997 7996 7995 ] final  -25.63 input   59.86 | X-H torsion
[ 10167 10162 10161 10158 ] final   87.82 input  -65.29 | X-H torsion
[ 10718 10713 10712 10709 ] final -129.51 input   66.30 | X-H torsion
[ 10763 10752 10751 10750 ] final   62.59 input  -60.55 | X-H torsion
[ 11005 11000 10999 10996 ] final  121.07 input  -57.11 | X-H torsion

> <Gold.Protein.ActiveResidues>
 VAL166  LYS551  ARG553  GLY616  TRP617  ASP618  TYR619  PRO620  LYS621  CYS622 
 ASP623  PHE694  ASN695  SER759  ASP760  ASP761  ALA762  ILE779  LEU786  VAL792 
 PHE793  MET794  SER795  GLU796  ALA797  LYS798  CYS799  TRP800  GLU811  SER814 

> <Gold.Protein.RotatedAtoms>
  152.4436  133.7495  159.6685 H   0  0  0  0  0  0  0  0  0  0  0  0  # atno 6907 bound_to 6896
  150.8332  133.8047  159.3096 H   0  0  0  0  0  0  0  0  0  0  0  0  # atno 6908 bound_to 6896
  151.5694  135.1065  160.0043 H   0  0  0  0  0  0  0  0  0  0  0  0  # atno 6909 bound_to 6896
  145.8562  139.3285  143.0846 H   0  0  0  0  0  0  0  0  0  0  0  0  # atno 7974 bound_to 7965
  154.4466  140.1921  156.0649 H   0  0  0  0  0  0  0  0  0  0  0  0  # atno 8008 bound_to 7997
  156.0555  140.3303  155.7373 H   0  0  0  0  0  0  0  0  0  0  0  0  # atno 8009 bound_to 7997
  155.5492  140.0593  157.2844 H   0  0  0  0  0  0  0  0  0  0  0  0  # atno 8010 bound_to 7997
  139.8735  144.6480  150.8923 H   0  0  0  0  0  0  0  0  0  0  0  0  # atno 10167 bound_to 10162
  156.2054  130.6884  151.0588 H   0  0  0  0  0  0  0  0  0  0  0  0  # atno 10718 bound_to 10713
  152.9988  135.5459  154.6218 H   0  0  0  0  0  0  0  0  0  0  0  0  # atno 10763 bound_to 10752
  154.5515  135.2827  155.1006 H   0  0  0  0  0  0  0  0  0  0  0  0  # atno 10764 bound_to 10752
  154.2244  135.6445  153.5207 H   0  0  0  0  0  0  0  0  0  0  0  0  # atno 10765 bound_to 10752
  139.9211  134.9637  156.7903 H   0  0  0  0  0  0  0  0  0  0  0  0  # atno 11005 bound_to 11000
  145.9301  140.9055  143.0361 LP  0  0  0  0  0  0  0  0  0  0  0  0  # atno 17320 bound_to 7965
  144.6727  140.1406  143.7437 LP  0  0  0  0  0  0  0  0  0  0  0  0  # atno 17321 bound_to 7965
  140.7757  143.3644  151.1766 LP  0  0  0  0  0  0  0  0  0  0  0  0  # atno 17342 bound_to 10162
  139.7262  143.9145  152.3003 LP  0  0  0  0  0  0  0  0  0  0  0  0  # atno 17343 bound_to 10162
  157.7009  131.0776  150.6822 LP  0  0  0  0  0  0  0  0  0  0  0  0  # atno 17370 bound_to 10713
  156.6881  130.4587  149.5608 LP  0  0  0  0  0  0  0  0  0  0  0  0  # atno 17371 bound_to 10713
  140.6472  133.9764  155.7737 LP  0  0  0  0  0  0  0  0  0  0  0  0  # atno 17394 bound_to 11000
  141.0732  134.0174  157.3496 LP  0  0  0  0  0  0  0  0  0  0  0  0  # atno 17395 bound_to 11000

$$$$
