AV-unprocessed.smi:1487|AV-procd|sdf|6017|dock4
  -GOLD-   22720 6123D 1   1.00000     0.00000
 Structure written by MMmdl.
 49 51  0  0  0  0  0  0  0  0  3 V2000
  152.5847  143.4809  160.6430 C   0  0  0  0  0  0  0  0  0  0  0  0
  152.1409  142.5725  159.5088 C   0  0  0  0  0  0  0  0  0  0  0  0
  151.2396  143.0847  158.5480 C   0  0  0  0  0  0  0  0  0  0  0  0
  150.8540  142.2305  157.5216 C   0  0  0  0  0  0  0  0  0  0  0  0
  149.9982  142.4308  156.4361 N   0  3  0  0  0  0  0  0  0  0  0  0
  149.9367  141.2935  155.6893 C   0  0  0  0  0  0  0  0  0  0  0  0
  150.7321  140.3658  156.2892 N   0  0  0  0  0  0  0  0  0  0  0  0
  151.0347  138.9832  155.8966 C   0  0  0  0  0  0  0  0  0  0  0  0
  150.1387  138.4579  154.7557 C   0  0  2  0  0  0  0  0  0  0  0  0
  150.4575  139.2040  153.5987 O   0  0  0  0  0  0  0  0  0  0  0  0
  148.6279  138.5970  155.0497 C   0  0  0  0  0  0  0  0  0  0  0  0
  147.7763  137.9773  154.0019 N   0  3  2  0  0  0  0  0  0  0  0  0
  147.2177  138.9818  153.0613 C   0  0  0  0  0  0  0  0  0  0  0  0
  146.5027  138.2965  151.8867 C   0  0  0  0  0  0  0  0  0  0  0  0
  145.3957  137.3590  152.3877 C   0  0  0  0  0  0  0  0  0  0  0  0
  145.9387  136.3688  153.4320 C   0  0  1  0  0  0  0  0  0  0  0  0
  146.7724  135.4076  152.8153 O   0  0  0  0  0  0  0  0  0  0  0  0
  146.7152  137.0888  154.5519 C   0  0  0  0  0  0  0  0  0  0  0  0
  151.3318  140.9088  157.4305 C   0  0  0  0  0  0  0  0  0  0  0  0
  152.2221  140.3891  158.3666 C   0  0  0  0  0  0  0  0  0  0  0  0
  152.6245  141.2413  159.4198 C   0  0  0  0  0  0  0  0  0  0  0  0
  153.5923  140.7007  160.4588 C   0  0  0  0  0  0  0  0  0  0  0  0
  152.1751  144.4856  160.5342 H   0  0  0  0  0  0  0  0  0  0  0  0
  153.6712  143.5673  160.6644 H   0  0  0  0  0  0  0  0  0  0  0  0
  152.2492  143.0860  161.6023 H   0  0  0  0  0  0  0  0  0  0  0  0
  150.8695  144.0981  158.6082 H   0  0  0  0  0  0  0  0  0  0  0  0
  149.3608  141.1542  154.7854 H   0  0  0  0  0  0  0  0  0  0  0  0
  152.0834  138.9549  155.5966 H   0  0  0  0  0  0  0  0  0  0  0  0
  150.9501  138.3524  156.7829 H   0  0  0  0  0  0  0  0  0  0  0  0
  150.3969  137.4182  154.5623 H   0  0  0  0  0  0  0  0  0  0  0  0
  150.0270  138.8170  152.8517 H   0  0  0  0  0  0  0  0  0  0  0  0
  148.3730  138.1517  156.0119 H   0  0  0  0  0  0  0  0  0  0  0  0
  148.3946  139.6594  155.1379 H   0  0  0  0  0  0  0  0  0  0  0  0
  146.5295  139.6407  153.5931 H   0  0  0  0  0  0  0  0  0  0  0  0
  148.0193  139.6088  152.6688 H   0  0  0  0  0  0  0  0  0  0  0  0
  146.0789  139.0472  151.2190 H   0  0  0  0  0  0  0  0  0  0  0  0
  147.2256  137.7326  151.2957 H   0  0  0  0  0  0  0  0  0  0  0  0
  144.6019  137.9556  152.8392 H   0  0  0  0  0  0  0  0  0  0  0  0
  144.9403  136.8263  151.5519 H   0  0  0  0  0  0  0  0  0  0  0  0
  145.1011  135.8244  153.8700 H   0  0  0  0  0  0  0  0  0  0  0  0
  147.6299  135.7849  152.6879 H   0  0  0  0  0  0  0  0  0  0  0  0
  147.1393  136.3491  155.2300 H   0  0  0  0  0  0  0  0  0  0  0  0
  146.0246  137.6905  155.1450 H   0  0  0  0  0  0  0  0  0  0  0  0
  152.5959  139.3784  158.2947 H   0  0  0  0  0  0  0  0  0  0  0  0
  153.8348  139.6540  160.2721 H   0  0  0  0  0  0  0  0  0  0  0  0
  153.1610  140.7688  161.4578 H   0  0  0  0  0  0  0  0  0  0  0  0
  154.5242  141.2663  160.4436 H   0  0  0  0  0  0  0  0  0  0  0  0
  148.3866  137.3941  153.4474 H   0  0  0  0  0  0  0  0  0  0  0  0
  149.4987  143.2829  156.2141 H   0  0  0  0  0  0  0  0  0  0  0  0
  1  2  1  0  0  0  0
  1 23  1  0  0  0  0
  1 24  1  0  0  0  0
  1 25  1  0  0  0  0
  2 21  1  0  0  0  0
  2  3  2  0  0  0  0
  3  4  1  0  0  0  0
  3 26  1  0  0  0  0
  4 19  2  0  0  0  0
  4  5  1  0  0  0  0
  5  6  2  0  0  0  0
  5 49  1  0  0  0  0
  6  7  1  0  0  0  0
  6 27  1  0  0  0  0
  7  8  1  0  0  0  0
  7 19  1  0  0  0  0
  8  9  1  0  0  0  0
  8 28  1  0  0  0  0
  8 29  1  0  0  0  0
  9 10  1  0  0  0  0
  9 11  1  0  0  0  0
  9 30  1  0  0  0  0
 10 31  1  0  0  0  0
 11 12  1  0  0  0  0
 11 32  1  0  0  0  0
 11 33  1  0  0  0  0
 12 18  1  0  0  0  0
 12 13  1  0  0  0  0
 12 48  1  0  0  0  0
 13 14  1  0  0  0  0
 13 34  1  0  0  0  0
 13 35  1  0  0  0  0
 14 15  1  0  0  0  0
 14 36  1  0  0  0  0
 14 37  1  0  0  0  0
 15 16  1  0  0  0  0
 15 38  1  0  0  0  0
 15 39  1  0  0  0  0
 16 17  1  0  0  0  0
 16 18  1  0  0  0  0
 16 40  1  0  0  0  0
 17 41  1  0  0  0  0
 18 42  1  0  0  0  0
 18 43  1  0  0  0  0
 19 20  1  0  0  0  0
 20 21  2  0  0  0  0
 20 44  1  0  0  0  0
 21 22  1  0  0  0  0
 22 45  1  0  0  0  0
 22 46  1  0  0  0  0
 22 47  1  0  0  0  0
M  CHG  1   5   1
M  CHG  1  12   1
M  END
> <s_m_source_file>
AV-unprocessed.smi

> <i_m_source_file_index>
1487

> <i_lp_mmshare_version>
43012

> <i_f3d_flags>
0

> <s_epik_input>
W0NIM11jKFtjSF0xKWMoW0NIM10pW2NIXWMoYzEyKW4oW2NIXW4yKVtDSDJdW0NASF0oW09IXSlbQ0gyXU4zW0NIMl1bQ0gyXVtDSDJdW0NAQEhdKFtPSF0pW0NIMl0z

> <s_epik_cmdline>
J2VwaWtfcHl0aG9uJywgJy1waCcsICc3LjAnLCAnLXRuJywgJzgnLCAnLW1hJywgJzIwMCcsICctbWV0YWxfYmluZGluZycsICctaW1hZScsICc8aW5maWxlLm1hZT4nLCAnLW9tYWUnLCAnPG91dGZpbGUubWFlPic=

> <r_epik_Ionization_Penalty>
1.1857

> <r_epik_Ionization_Penalty_Charging>
1.1857

> <r_epik_Ionization_Penalty_Neutral>
1.75578e-06

> <r_epik_State_Penalty>
1.26953

> <r_epik_Charging_Adjusted_Penalty>
2.45524

> <i_epik_Tot_Q>
2

> <i_epik_Tot_abs_Q>
2

> <r_epik_Metal_State_Penalty>
5.28243

> <b_epik_Metal_Only>
0

> <s_lp_Force_Field>
OPLS_2005

> <r_lp_Energy>
35.9042

> <b_lp_Chiralities_Consistent>
1

> <s_lp_Variant>
AV-unprocessed.smi:1487-11

> <Gold.Version>
5.8.1

> <Gold.Id.Protein>
6NUR|6NUR_protein|mol2

> <Gold.PLP.Fitness>
58.6588

> <Gold.PLP.PLP>
-41.3545

> <Gold.PLP.part.hbond>
-4.6772

> <Gold.PLP.part.metal>
0.0000

> <Gold.PLP.part.buried>
-0.6760

> <Gold.PLP.part.nonpolar>
-36.5745

> <Gold.PLP.part.repulsive>
0.0859

> <Gold.PLP.ligand.clash>
0.0000

> <Gold.PLP.ligand.torsion>
0.7566

> <Gold.PLP.Chemscore.Hbond>
6.2640

> <Gold.PLP.Chemscore.CHOScore>
0.0000

> <Gold.PLP.Chemscore.Metal>
0.0000

> <Gold.Chemscore.Hbonds>
donor molecule, donor type, donor heavy atom, donor atom, acceptor molecule, acceptor atom, score
      L1  H     5    49       P1  8028  2.00
      L1  H    10    31       P1  7957  0.31
      L1  H    12    48       P1  7948  1.95
      L1  H    17    41       P1  7948  1.00
      P1  H  7989  7998       L1    10  0.90

> <Gold.PLP.Chemscore.Internal.Correction>
0.0255

> <Gold.Rescore>
     Score         DG    S(hbond)    S(metal)    S(lipo)     H(rot)  DE(clash)    DE(int)     intcor
     22.48     -26.03       4.17        0.00     116.64       2.74       1.62       1.93       ----

> <Gold.Chemscore.Fitness>
22.4788

> <Gold.Chemscore.DG>
-26.0343

> <Gold.Chemscore.ZeroCoef>
-5.4800

> <Gold.Chemscore.Hbond>
4.1670

> <Gold.Chemscore.Metal>
0.0000

> <Gold.Chemscore.Lipo>
116.6404

> <Gold.Chemscore.Internal_Hbond>
0.0000

> <Gold.Chemscore.DEClash>
1.6226

> <Gold.Chemscore.DEInternal>
1.9329

> <Gold.Chemscore.Rot>
2.7384

> <Gold.Chemscore.Internal.Correction>
   9.000000E+99

> <Gold.Chemscore.Hbonds>
donor molecule, donor type, donor heavy atom, donor atom, acceptor molecule, acceptor atom, score
      L1  H     5    49       P1  8028  1.00
      L1  H    10    31       P1  7957  0.20
      L1  H    12    48       P1  7948  0.92
      L1  H    17    41       P1  7948  0.97
      P1  H  7989  7998       L1    10  0.83

> <Gold.Chemscore.Hbond.Weighted>
-13.9177

> <Gold.Chemscore.Metal.Weighted>
-0.0000

> <Gold.Chemscore.Lipo.Weighted>
-13.6469

> <Gold.Chemscore.Internal_Hbond.Weighted>
0.0000

> <Gold.Chemscore.DEClash.Weighted>
1.6226

> <Gold.Chemscore.DEInternal.Weighted>
1.9329

> <Gold.Chemscore.Rot.Weighted>
7.0103

> <Gold.Chemscore.Internal.Correction.Weighted>
   9.000000E+99

> <Gold.Protein.RotatedTorsions>
[ 6907 6896 6895 6894 ] final   85.47 input  -60.11 | X-H torsion
[ 7974 7965 7964 7962 ] final  107.34 input  175.53 | X-H torsion
[ 8008 7997 7996 7995 ] final -178.28 input   59.86 | X-H torsion
[ 10167 10162 10161 10158 ] final -118.89 input  -65.29 | X-H torsion
[ 10718 10713 10712 10709 ] final -101.99 input   66.30 | X-H torsion
[ 10763 10752 10751 10750 ] final  126.64 input  -60.55 | X-H torsion
[ 11005 11000 10999 10996 ] final  -95.30 input  -57.11 | X-H torsion

> <Gold.Protein.ActiveResidues>
 VAL166  LYS551  ARG553  GLY616  TRP617  ASP618  TYR619  PRO620  LYS621  CYS622 
 ASP623  PHE694  ASN695  SER759  ASP760  ASP761  ALA762  ILE779  LEU786  VAL792 
 PHE793  MET794  SER795  GLU796  ALA797  LYS798  CYS799  TRP800  GLU811  SER814 

> <Gold.Protein.RotatedAtoms>
  152.5375  134.2580  159.8924 H   0  0  0  0  0  0  0  0  0  0  0  0  # atno 6907 bound_to 6896
  151.2541  133.4328  159.2620 H   0  0  0  0  0  0  0  0  0  0  0  0  # atno 6908 bound_to 6896
  151.0512  134.9688  159.8269 H   0  0  0  0  0  0  0  0  0  0  0  0  # atno 6909 bound_to 6896
  145.2950  139.2588  143.3845 H   0  0  0  0  0  0  0  0  0  0  0  0  # atno 7974 bound_to 7965
  156.0169  140.1252  157.0397 H   0  0  0  0  0  0  0  0  0  0  0  0  # atno 8008 bound_to 7997
  154.4297  140.1076  156.5978 H   0  0  0  0  0  0  0  0  0  0  0  0  # atno 8009 bound_to 7997
  155.6000  140.3470  155.4593 H   0  0  0  0  0  0  0  0  0  0  0  0  # atno 8010 bound_to 7997
  140.0526  143.5045  152.2074 H   0  0  0  0  0  0  0  0  0  0  0  0  # atno 10167 bound_to 10162
  156.0213  130.5399  150.7044 H   0  0  0  0  0  0  0  0  0  0  0  0  # atno 10718 bound_to 10713
  153.6966  135.3290  155.3215 H   0  0  0  0  0  0  0  0  0  0  0  0  # atno 10763 bound_to 10752
  154.8425  135.4444  154.1454 H   0  0  0  0  0  0  0  0  0  0  0  0  # atno 10764 bound_to 10752
  153.2510  135.6981  153.7758 H   0  0  0  0  0  0  0  0  0  0  0  0  # atno 10765 bound_to 10752
  141.1446  133.8016  157.0416 H   0  0  0  0  0  0  0  0  0  0  0  0  # atno 11005 bound_to 11000
  146.3172  140.3450  142.8651 LP  0  0  0  0  0  0  0  0  0  0  0  0  # atno 17320 bound_to 7965
  144.9141  140.7792  143.5789 LP  0  0  0  0  0  0  0  0  0  0  0  0  # atno 17321 bound_to 7965
  139.5943  144.7561  151.3323 LP  0  0  0  0  0  0  0  0  0  0  0  0  # atno 17342 bound_to 10162
  140.7210  143.7137  150.7750 LP  0  0  0  0  0  0  0  0  0  0  0  0  # atno 17343 bound_to 10162
  157.4696  131.0892  151.0656 LP  0  0  0  0  0  0  0  0  0  0  0  0  # atno 17370 bound_to 10713
  157.1121  130.6026  149.5484 LP  0  0  0  0  0  0  0  0  0  0  0  0  # atno 17371 bound_to 10713
  140.0689  134.9713  157.1433 LP  0  0  0  0  0  0  0  0  0  0  0  0  # atno 17394 bound_to 11000
  140.3739  134.2360  155.7176 LP  0  0  0  0  0  0  0  0  0  0  0  0  # atno 17395 bound_to 11000

$$$$
