AV-unprocessed.smi:1240|AV-procd|sdf|5205|dock10
  -GOLD-   22720 4293D 1   1.00000     0.00000
 Structure written by MMmdl.
 48 50  0  0  0  0  0  0  0  0  2 V2000
  147.5559  134.3453  152.9844 O   0  0  0  0  0  0  0  0  0  0  0  0
  147.9303  133.3490  152.3665 C   0  0  0  0  0  0  0  0  0  0  0  0
  149.1675  132.8423  152.4631 N   0  0  0  0  0  0  0  0  0  0  0  0
  150.2338  133.3880  153.2996 C   0  0  0  0  0  0  0  0  0  0  0  0
  150.2354  132.8281  154.7576 C   0  0  2  0  0  0  0  0  0  0  0  0
  149.7556  133.9532  155.7379 C   0  0  1  0  0  0  0  0  0  0  0  0
  149.7013  133.6856  157.2323 C   0  0  0  0  0  0  0  0  0  0  0  0
  149.4993  135.0908  157.7857 C   0  0  0  0  0  0  0  0  0  0  0  0
  150.2570  135.9369  156.9271 O   0  0  0  0  0  0  0  0  0  0  0  0
  150.5839  135.2439  155.7244 C   0  0  0  0  0  0  0  0  0  0  0  0
  151.4991  132.1706  155.1781 N   0  0  0  0  0  0  0  0  0  0  0  0
  151.7622  130.9497  154.4043 C   0  0  0  0  0  0  0  0  0  0  0  0
  153.0078  130.2012  154.9053 C   0  0  0  0  0  0  0  0  0  0  0  0
  154.1373  131.0606  154.8159 O   0  0  0  0  0  0  0  0  0  0  0  0
  153.9652  132.2629  155.5560 C   0  0  0  0  0  0  0  0  0  0  0  0
  152.7032  133.0016  155.0736 C   0  0  0  0  0  0  0  0  0  0  0  0
  147.1804  132.6448  151.5009 N   0  0  0  0  0  0  0  0  0  0  0  0
  145.8314  132.8712  151.1134 C   0  0  0  0  0  0  0  0  0  0  0  0
  145.3016  132.0621  150.0837 C   0  0  0  0  0  0  0  0  0  0  0  0
  143.9647  132.2437  149.6745 C   0  0  0  0  0  0  0  0  0  0  0  0
  143.1988  133.1793  150.2753 N   0  3  0  0  0  0  0  0  0  0  0  0
  143.6550  133.9653  151.2737 C   0  0  0  0  0  0  0  0  0  0  0  0
  144.9837  133.8299  151.7253 C   0  0  0  0  0  0  0  0  0  0  0  0
  149.3938  132.0229  151.9183 H   0  0  0  0  0  0  0  0  0  0  0  0
  151.1760  133.1724  152.7943 H   0  0  0  0  0  0  0  0  0  0  0  0
  150.1329  134.4736  153.3059 H   0  0  0  0  0  0  0  0  0  0  0  0
  149.4607  132.0599  154.7685 H   0  0  0  0  0  0  0  0  0  0  0  0
  148.7372  134.2221  155.4529 H   0  0  0  0  0  0  0  0  0  0  0  0
  148.9099  132.9949  157.5245 H   0  0  0  0  0  0  0  0  0  0  0  0
  150.6561  133.3162  157.6061 H   0  0  0  0  0  0  0  0  0  0  0  0
  148.4489  135.3782  157.7269 H   0  0  0  0  0  0  0  0  0  0  0  0
  149.8198  135.1826  158.8236 H   0  0  0  0  0  0  0  0  0  0  0  0
  151.6513  135.0196  155.7328 H   0  0  0  0  0  0  0  0  0  0  0  0
  150.3763  135.8668  154.8541 H   0  0  0  0  0  0  0  0  0  0  0  0
  150.9189  130.2671  154.4116 H   0  0  0  0  0  0  0  0  0  0  0  0
  151.9102  131.2103  153.3551 H   0  0  0  0  0  0  0  0  0  0  0  0
  152.8708  129.8652  155.9343 H   0  0  0  0  0  0  0  0  0  0  0  0
  153.1877  129.3141  154.2978 H   0  0  0  0  0  0  0  0  0  0  0  0
  153.8925  132.0332  156.6202 H   0  0  0  0  0  0  0  0  0  0  0  0
  154.8461  132.8908  155.4235 H   0  0  0  0  0  0  0  0  0  0  0  0
  152.8450  133.3278  154.0421 H   0  0  0  0  0  0  0  0  0  0  0  0
  152.6000  133.8986  155.6835 H   0  0  0  0  0  0  0  0  0  0  0  0
  147.6532  131.8992  151.0114 H   0  0  0  0  0  0  0  0  0  0  0  0
  145.9139  131.3121  149.6038 H   0  0  0  0  0  0  0  0  0  0  0  0
  143.4882  131.6716  148.8917 H   0  0  0  0  0  0  0  0  0  0  0  0
  142.9467  134.6708  151.6831 H   0  0  0  0  0  0  0  0  0  0  0  0
  145.3211  134.4551  152.5378 H   0  0  0  0  0  0  0  0  0  0  0  0
  142.2333  133.2941  149.9654 H   0  0  0  0  0  0  0  0  0  0  0  0
  1  2  2  0  0  0  0
  2  3  1  0  0  0  0
  2 17  1  0  0  0  0
  3  4  1  0  0  0  0
  3 24  1  0  0  0  0
  4  5  1  0  0  0  0
  4 25  1  0  0  0  0
  4 26  1  0  0  0  0
  5  6  1  0  0  0  0
  5 11  1  0  0  0  0
  5 27  1  0  0  0  0
  6 10  1  0  0  0  0
  6  7  1  0  0  0  0
  6 28  1  0  0  0  0
  7  8  1  0  0  0  0
  7 29  1  0  0  0  0
  7 30  1  0  0  0  0
  8  9  1  0  0  0  0
  8 31  1  0  0  0  0
  8 32  1  0  0  0  0
  9 10  1  0  0  0  0
 10 33  1  0  0  0  0
 10 34  1  0  0  0  0
 11 16  1  0  0  0  0
 11 12  1  0  0  0  0
 12 13  1  0  0  0  0
 12 35  1  0  0  0  0
 12 36  1  0  0  0  0
 13 14  1  0  0  0  0
 13 37  1  0  0  0  0
 13 38  1  0  0  0  0
 14 15  1  0  0  0  0
 15 16  1  0  0  0  0
 15 39  1  0  0  0  0
 15 40  1  0  0  0  0
 16 41  1  0  0  0  0
 16 42  1  0  0  0  0
 17 18  1  0  0  0  0
 17 43  1  0  0  0  0
 18 23  1  0  0  0  0
 18 19  2  0  0  0  0
 19 20  1  0  0  0  0
 19 44  1  0  0  0  0
 20 21  2  0  0  0  0
 20 45  1  0  0  0  0
 21 22  1  0  0  0  0
 21 48  1  0  0  0  0
 22 23  2  0  0  0  0
 22 46  1  0  0  0  0
 23 47  1  0  0  0  0
M  CHG  1  21   1
M  END
> <s_m_source_file>
AV-unprocessed.smi

> <i_m_source_file_index>
1240

> <i_lp_mmshare_version>
43012

> <i_f3d_flags>
0

> <s_epik_input>
W2NIXTFbY0hdbltjSF1bY0hdYzFbTkhdQyg9TylbTkhdW0NIMl1bQ0BIXShbQ0BASF0yW0NIMl1bQ0gyXU9bQ0gyXTIpTjNbQ0gyXVtDSDJdT1tDSDJdW0NIMl0z

> <s_epik_cmdline>
J2VwaWtfcHl0aG9uJywgJy1waCcsICc3LjAnLCAnLXRuJywgJzgnLCAnLW1hJywgJzIwMCcsICctbWV0YWxfYmluZGluZycsICctaW1hZScsICc8aW5maWxlLm1hZT4nLCAnLW9tYWUnLCAnPG91dGZpbGUubWFlPic=

> <r_epik_Ionization_Penalty>
1.15944

> <r_epik_Ionization_Penalty_Charging>
1.0344

> <r_epik_Ionization_Penalty_Neutral>
0.125034

> <r_epik_State_Penalty>
1.2199

> <r_epik_Charging_Adjusted_Penalty>
2.25431

> <i_epik_Tot_Q>
1

> <i_epik_Tot_abs_Q>
1

> <r_epik_Metal_State_Penalty>
1.3155

> <b_epik_Metal_Only>
0

> <s_lp_Force_Field>
OPLS_2005

> <r_lp_Energy>
67.1195

> <b_lp_Chiralities_Consistent>
1

> <s_lp_Variant>
AV-unprocessed.smi:1240-11

> <Gold.Version>
5.8.1

> <Gold.Id.Protein>
6NUR|6NUR_protein|mol2

> <Gold.PLP.Fitness>
48.0585

> <Gold.PLP.PLP>
-35.0532

> <Gold.PLP.part.hbond>
-4.0000

> <Gold.PLP.part.metal>
0.0000

> <Gold.PLP.part.buried>
-6.0001

> <Gold.PLP.part.nonpolar>
-24.1013

> <Gold.PLP.part.repulsive>
0.1814

> <Gold.PLP.ligand.clash>
0.0000

> <Gold.PLP.ligand.torsion>
1.0532

> <Gold.PLP.Chemscore.Hbond>
4.9753

> <Gold.PLP.Chemscore.CHOScore>
0.0000

> <Gold.PLP.Chemscore.Metal>
0.0000

> <Gold.Chemscore.Hbonds>
donor molecule, donor type, donor heavy atom, donor atom, acceptor molecule, acceptor atom, score
      L1  H     3    24       P1 10747  0.98
      L1  H    17    43       P1 10747  1.00
      L1  H    21    48       P1 10186  1.86

> <Gold.PLP.Chemscore.Internal.Correction>
0.1860

> <Gold.Rescore>
     Score         DG    S(hbond)    S(metal)    S(lipo)     H(rot)  DE(clash)    DE(int)     intcor
     19.11     -21.45       3.21        0.00      81.94       1.69       0.03       2.31       ----

> <Gold.Chemscore.Fitness>
19.1054

> <Gold.Chemscore.DG>
-21.4456

> <Gold.Chemscore.ZeroCoef>
-5.4800

> <Gold.Chemscore.Hbond>
3.2060

> <Gold.Chemscore.Metal>
0.0000

> <Gold.Chemscore.Lipo>
81.9391

> <Gold.Chemscore.Internal_Hbond>
0.0000

> <Gold.Chemscore.DEClash>
0.0255

> <Gold.Chemscore.DEInternal>
2.3146

> <Gold.Chemscore.Rot>
1.6912

> <Gold.Chemscore.Internal.Correction>
   9.000000E+99

> <Gold.Chemscore.Hbonds>
donor molecule, donor type, donor heavy atom, donor atom, acceptor molecule, acceptor atom, score
      L1  H     3    24       P1 10747  0.35
      L1  H    17    43       P1 10747  1.00
      L1  H    21    48       P1 10186  0.90

> <Gold.Chemscore.Hbond.Weighted>
-10.7082

> <Gold.Chemscore.Metal.Weighted>
-0.0000

> <Gold.Chemscore.Lipo.Weighted>
-9.5869

> <Gold.Chemscore.Internal_Hbond.Weighted>
0.0000

> <Gold.Chemscore.DEClash.Weighted>
0.0255

> <Gold.Chemscore.DEInternal.Weighted>
2.3146

> <Gold.Chemscore.Rot.Weighted>
4.3295

> <Gold.Chemscore.Internal.Correction.Weighted>
   9.000000E+99

> <Gold.Protein.RotatedTorsions>
[ 6907 6896 6895 6894 ] final    2.77 input  -60.11 | X-H torsion
[ 7974 7965 7964 7962 ] final   44.98 input  175.53 | X-H torsion
[ 8008 7997 7996 7995 ] final   62.36 input   59.86 | X-H torsion
[ 10167 10162 10161 10158 ] final  -73.98 input  -65.29 | X-H torsion
[ 10718 10713 10712 10709 ] final -110.44 input   66.30 | X-H torsion
[ 10763 10752 10751 10750 ] final  -42.00 input  -60.55 | X-H torsion
[ 11005 11000 10999 10996 ] final   -1.81 input  -57.11 | X-H torsion

> <Gold.Protein.ActiveResidues>
 VAL166  LYS551  ARG553  GLY616  TRP617  ASP618  TYR619  PRO620  LYS621  CYS622 
 ASP623  PHE694  ASN695  SER759  ASP760  ASP761  ALA762  ILE779  LEU786  VAL792 
 PHE793  MET794  SER795  GLU796  ALA797  LYS798  CYS799  TRP800  GLU811  SER814 

> <Gold.Protein.RotatedAtoms>
  151.6143  135.1037  160.0087 H   0  0  0  0  0  0  0  0  0  0  0  0  # atno 6907 bound_to 6896
  152.4192  133.7083  159.6475 H   0  0  0  0  0  0  0  0  0  0  0  0  # atno 6908 bound_to 6896
  150.8079  133.8402  159.3218 H   0  0  0  0  0  0  0  0  0  0  0  0  # atno 6909 bound_to 6896
  146.0520  139.5014  142.9712 H   0  0  0  0  0  0  0  0  0  0  0  0  # atno 7974 bound_to 7965
  155.6131  140.3495  155.4628 H   0  0  0  0  0  0  0  0  0  0  0  0  # atno 8008 bound_to 7997
  156.0138  140.1239  157.0451 H   0  0  0  0  0  0  0  0  0  0  0  0  # atno 8009 bound_to 7997
  154.4290  140.1076  156.5854 H   0  0  0  0  0  0  0  0  0  0  0  0  # atno 8010 bound_to 7997
  140.5065  143.2352  151.7665 H   0  0  0  0  0  0  0  0  0  0  0  0  # atno 10167 bound_to 10162
  156.0591  130.5815  150.8237 H   0  0  0  0  0  0  0  0  0  0  0  0  # atno 10718 bound_to 10713
  153.9718  135.6727  153.4747 H   0  0  0  0  0  0  0  0  0  0  0  0  # atno 10763 bound_to 10752
  153.0789  135.4934  154.8459 H   0  0  0  0  0  0  0  0  0  0  0  0  # atno 10764 bound_to 10752
  154.7215  135.3118  154.9001 H   0  0  0  0  0  0  0  0  0  0  0  0  # atno 10765 bound_to 10752
  140.6514  133.9401  155.8382 H   0  0  0  0  0  0  0  0  0  0  0  0  # atno 11005 bound_to 11000
  145.6707  141.0217  143.1659 LP  0  0  0  0  0  0  0  0  0  0  0  0  # atno 17320 bound_to 7965
  144.7128  139.8308  143.7409 LP  0  0  0  0  0  0  0  0  0  0  0  0  # atno 17321 bound_to 7965
  139.4885  144.4450  151.9720 LP  0  0  0  0  0  0  0  0  0  0  0  0  # atno 17342 bound_to 10162
  140.3541  144.3053  150.5944 LP  0  0  0  0  0  0  0  0  0  0  0  0  # atno 17343 bound_to 10162
  157.5585  131.0945  150.9593 LP  0  0  0  0  0  0  0  0  0  0  0  0  # atno 17370 bound_to 10713
  156.9836  130.5536  149.5298 LP  0  0  0  0  0  0  0  0  0  0  0  0  # atno 17371 bound_to 10713
  141.0534  134.0452  157.3754 LP  0  0  0  0  0  0  0  0  0  0  0  0  # atno 17394 bound_to 11000
  139.9044  135.0175  156.7420 LP  0  0  0  0  0  0  0  0  0  0  0  0  # atno 17395 bound_to 11000

$$$$
