AV-unprocessed.smi:1561|AV-procd|sdf|6283|dock6
  -GOLD-   22720 6483D 1   1.00000     0.00000
 Structure written by MMmdl.
 33 34  0  0  0  0  0  0  0  0  1 V2000
  149.1481  141.5871  154.4431 C   0  0  0  0  0  0  0  0  0  0  0  0
  149.7285  140.7631  155.6108 C   0  0  2  0  0  0  0  0  0  0  0  0
  150.9063  141.4636  156.3049 C   0  0  0  0  0  0  0  0  0  0  0  0
  151.9258  140.8381  156.5989 O   0  0  0  0  0  0  0  0  0  0  0  0
  150.7383  142.7669  156.5812 N   0  0  0  0  0  0  0  0  0  0  0  0
  151.6765  143.6032  157.3216 C   0  0  0  0  0  0  0  0  0  0  0  0
  151.5278  143.4056  158.8421 C   0  0  2  0  0  0  0  0  0  0  0  0
  151.4922  144.7062  159.6343 C   0  0  0  0  0  0  0  0  0  0  0  0
  152.2134  144.3730  160.9453 C   0  0  0  0  0  0  0  0  0  0  0  0
  152.5079  142.9840  160.8810 O   0  0  0  0  0  0  0  0  0  0  0  0
  152.6682  142.6429  159.5153 C   0  0  0  0  0  0  0  0  0  0  0  0
  150.1216  139.4190  155.2014 N   0  0  0  0  0  0  0  0  0  0  0  0
  149.7538  138.2176  155.7730 C   0  0  0  0  0  0  0  0  0  0  0  0
  150.3990  137.2240  155.0941 C   0  0  0  0  0  0  0  0  0  0  0  0
  151.1628  137.9226  154.1189 C   0  0  0  0  0  0  0  0  0  0  0  0
  151.0026  139.2336  154.1905 N   0  0  0  0  0  0  0  0  0  0  0  0
  148.8126  142.5672  154.7837 H   0  0  0  0  0  0  0  0  0  0  0  0
  148.2873  141.0830  154.0030 H   0  0  0  0  0  0  0  0  0  0  0  0
  149.8783  141.7470  153.6486 H   0  0  0  0  0  0  0  0  0  0  0  0
  148.9338  140.6530  156.3505 H   0  0  0  0  0  0  0  0  0  0  0  0
  149.8718  143.2008  156.2976 H   0  0  0  0  0  0  0  0  0  0  0  0
  152.7042  143.4126  157.0071 H   0  0  0  0  0  0  0  0  0  0  0  0
  151.4685  144.6427  157.0673 H   0  0  0  0  0  0  0  0  0  0  0  0
  150.6013  142.8647  159.0420 H   0  0  0  0  0  0  0  0  0  0  0  0
  152.0188  145.5079  159.1148 H   0  0  0  0  0  0  0  0  0  0  0  0
  150.4672  145.0376  159.8040 H   0  0  0  0  0  0  0  0  0  0  0  0
  153.1450  144.9353  161.0232 H   0  0  0  0  0  0  0  0  0  0  0  0
  151.6069  144.5976  161.8229 H   0  0  0  0  0  0  0  0  0  0  0  0
  152.6049  141.5650  159.3629 H   0  0  0  0  0  0  0  0  0  0  0  0
  153.6421  142.9865  159.1621 H   0  0  0  0  0  0  0  0  0  0  0  0
  149.0714  138.1698  156.6088 H   0  0  0  0  0  0  0  0  0  0  0  0
  150.3397  136.1605  155.2715 H   0  0  0  0  0  0  0  0  0  0  0  0
  151.8283  137.5194  153.3698 H   0  0  0  0  0  0  0  0  0  0  0  0
  1  2  1  0  0  0  0
  1 17  1  0  0  0  0
  1 18  1  0  0  0  0
  1 19  1  0  0  0  0
  2  3  1  0  0  0  0
  2 12  1  0  0  0  0
  2 20  1  0  0  0  0
  3  4  2  0  0  0  0
  3  5  1  0  0  0  0
  5  6  1  0  0  0  0
  5 21  1  0  0  0  0
  6  7  1  0  0  0  0
  6 22  1  0  0  0  0
  6 23  1  0  0  0  0
  7 11  1  0  0  0  0
  7  8  1  0  0  0  0
  7 24  1  0  0  0  0
  8  9  1  0  0  0  0
  8 25  1  0  0  0  0
  8 26  1  0  0  0  0
  9 10  1  0  0  0  0
  9 27  1  0  0  0  0
  9 28  1  0  0  0  0
 10 11  1  0  0  0  0
 11 29  1  0  0  0  0
 11 30  1  0  0  0  0
 12 16  1  0  0  0  0
 12 13  1  0  0  0  0
 13 14  2  0  0  0  0
 13 31  1  0  0  0  0
 14 15  1  0  0  0  0
 14 32  1  0  0  0  0
 15 16  2  0  0  0  0
 15 33  1  0  0  0  0
M  END
> <s_m_source_file>
AV-unprocessed.smi

> <i_m_source_file_index>
1561

> <i_lp_mmshare_version>
43012

> <i_f3d_flags>
0

> <s_epik_input>
bjFbY0hdW2NIXVtjSF1uMVtDQEhdKFtDSDNdKUMoPU8pW05IXVtDSDJdW0NAQEhdMltDSDJdW0NIMl1PW0NIMl0y

> <s_epik_cmdline>
J2VwaWtfcHl0aG9uJywgJy1waCcsICc3LjAnLCAnLXRuJywgJzgnLCAnLW1hJywgJzIwMCcsICctbWV0YWxfYmluZGluZycsICctaW1hZScsICc8aW5maWxlLm1hZT4nLCAnLW9tYWUnLCAnPG91dGZpbGUubWFlPic=

> <r_lp_tautomer_probability>
1

> <r_epik_Ionization_Penalty>
3.82077e-05

> <r_epik_Ionization_Penalty_Charging>
0

> <r_epik_Ionization_Penalty_Neutral>
3.82077e-05

> <r_epik_State_Penalty>
-0

> <r_epik_Charging_Adjusted_Penalty>
0

> <i_epik_Tot_Q>
0

> <i_epik_Tot_abs_Q>
0

> <r_epik_Metal_State_Penalty>
-0

> <b_epik_Metal_Only>
0

> <s_lp_Force_Field>
OPLS_2005

> <r_lp_Energy>
22.2594

> <b_lp_Chiralities_Consistent>
1

> <s_lp_Variant>
AV-unprocessed.smi:1561-1

> <Gold.Version>
5.8.1

> <Gold.Id.Protein>
6NUR|6NUR_protein|mol2

> <Gold.PLP.Fitness>
38.9392

> <Gold.PLP.PLP>
-32.5588

> <Gold.PLP.part.hbond>
-2.0000

> <Gold.PLP.part.metal>
0.0000

> <Gold.PLP.part.buried>
-1.8989

> <Gold.PLP.part.nonpolar>
-27.7199

> <Gold.PLP.part.repulsive>
0.2911

> <Gold.PLP.ligand.clash>
0.0000

> <Gold.PLP.ligand.torsion>
1.2415

> <Gold.PLP.Chemscore.Hbond>
1.9920

> <Gold.PLP.Chemscore.CHOScore>
0.9251

> <Gold.PLP.Chemscore.Metal>
0.0000

> <Gold.Chemscore.Hbonds>
donor molecule, donor type, donor heavy atom, donor atom, acceptor molecule, acceptor atom, score
      L1  H     5    21       P1  8028  1.00
      P1  H  7989  7998       L1    16  1.00
      L1  C    15    33       P1  7949  0.92

> <Gold.PLP.Chemscore.Internal.Correction>
0.1121

> <Gold.Rescore>
     Score         DG    S(hbond)    S(metal)    S(lipo)     H(rot)  DE(clash)    DE(int)     intcor
     16.04     -18.04       1.84        0.00      90.11       1.61       0.63       1.37       ----

> <Gold.Chemscore.Fitness>
16.0430

> <Gold.Chemscore.DG>
-18.0416

> <Gold.Chemscore.ZeroCoef>
-5.4800

> <Gold.Chemscore.Hbond>
1.8381

> <Gold.Chemscore.Metal>
0.0000

> <Gold.Chemscore.Lipo>
90.1061

> <Gold.Chemscore.Internal_Hbond>
0.0000

> <Gold.Chemscore.DEClash>
0.6307

> <Gold.Chemscore.DEInternal>
1.3679

> <Gold.Chemscore.Rot>
1.6094

> <Gold.Chemscore.Internal.Correction>
   9.000000E+99

> <Gold.Chemscore.Hbonds>
donor molecule, donor type, donor heavy atom, donor atom, acceptor molecule, acceptor atom, score
      L1  H     5    21       P1  8028  0.94
      P1  H  7989  7998       L1    16  0.85

> <Gold.Chemscore.Hbond.Weighted>
-6.1393

> <Gold.Chemscore.Metal.Weighted>
-0.0000

> <Gold.Chemscore.Lipo.Weighted>
-10.5424

> <Gold.Chemscore.Internal_Hbond.Weighted>
0.0000

> <Gold.Chemscore.DEClash.Weighted>
0.6307

> <Gold.Chemscore.DEInternal.Weighted>
1.3679

> <Gold.Chemscore.Rot.Weighted>
4.1201

> <Gold.Chemscore.Internal.Correction.Weighted>
   9.000000E+99

> <Gold.Protein.RotatedTorsions>
[ 6907 6896 6895 6894 ] final   92.08 input  -60.11 | X-H torsion
[ 7974 7965 7964 7962 ] final   28.07 input  175.53 | X-H torsion
[ 8008 7997 7996 7995 ] final  138.00 input   59.86 | X-H torsion
[ 10167 10162 10161 10158 ] final  122.25 input  -65.29 | X-H torsion
[ 10718 10713 10712 10709 ] final -100.17 input   66.30 | X-H torsion
[ 10763 10752 10751 10750 ] final  155.33 input  -60.55 | X-H torsion
[ 11005 11000 10999 10996 ] final  160.74 input  -57.11 | X-H torsion

> <Gold.Protein.ActiveResidues>
 VAL166  LYS551  ARG553  GLY616  TRP617  ASP618  TYR619  PRO620  LYS621  CYS622 
 ASP623  PHE694  ASN695  SER759  ASP760  ASP761  ALA762  ILE779  LEU786  VAL792 
 PHE793  MET794  SER795  GLU796  ALA797  LYS798  CYS799  TRP800  GLU811  SER814 

> <Gold.Protein.RotatedAtoms>
  152.5452  134.1558  159.8536 H   0  0  0  0  0  0  0  0  0  0  0  0  # atno 6907 bound_to 6896
  151.1580  133.4856  159.2602 H   0  0  0  0  0  0  0  0  0  0  0  0  # atno 6908 bound_to 6896
  151.1402  135.0186  159.8677 H   0  0  0  0  0  0  0  0  0  0  0  0  # atno 6909 bound_to 6896
  146.1749  139.7105  142.8941 H   0  0  0  0  0  0  0  0  0  0  0  0  # atno 7974 bound_to 7965
  156.3000  140.2405  156.4001 H   0  0  0  0  0  0  0  0  0  0  0  0  # atno 8008 bound_to 7997
  154.8535  140.0423  157.1639 H   0  0  0  0  0  0  0  0  0  0  0  0  # atno 8009 bound_to 7997
  154.8973  140.2972  155.5341 H   0  0  0  0  0  0  0  0  0  0  0  0  # atno 8010 bound_to 7997
  139.5870  144.7010  151.3384 H   0  0  0  0  0  0  0  0  0  0  0  0  # atno 10167 bound_to 10162
  156.0155  130.5316  150.6778 H   0  0  0  0  0  0  0  0  0  0  0  0  # atno 10718 bound_to 10713
  154.1667  135.2806  155.3093 H   0  0  0  0  0  0  0  0  0  0  0  0  # atno 10763 bound_to 10752
  154.6106  135.5500  153.7472 H   0  0  0  0  0  0  0  0  0  0  0  0  # atno 10764 bound_to 10752
  153.0176  135.6414  154.1808 H   0  0  0  0  0  0  0  0  0  0  0  0  # atno 10765 bound_to 10752
  140.2089  134.8282  157.3099 H   0  0  0  0  0  0  0  0  0  0  0  0  # atno 11005 bound_to 11000
  145.4239  141.0409  143.2948 LP  0  0  0  0  0  0  0  0  0  0  0  0  # atno 17320 bound_to 7965
  144.8221  139.5774  143.6982 LP  0  0  0  0  0  0  0  0  0  0  0  0  # atno 17321 bound_to 7965
  140.7140  143.7315  150.7620 LP  0  0  0  0  0  0  0  0  0  0  0  0  # atno 17342 bound_to 10162
  140.0862  143.4921  152.2503 LP  0  0  0  0  0  0  0  0  0  0  0  0  # atno 17343 bound_to 10162
  157.4487  131.0870  151.0868 LP  0  0  0  0  0  0  0  0  0  0  0  0  # atno 17370 bound_to 10713
  157.1391  130.6135  149.5550 LP  0  0  0  0  0  0  0  0  0  0  0  0  # atno 17371 bound_to 10713
  140.1973  134.4298  155.7682 LP  0  0  0  0  0  0  0  0  0  0  0  0  # atno 17394 bound_to 11000
  141.2226  133.7055  156.8125 LP  0  0  0  0  0  0  0  0  0  0  0  0  # atno 17395 bound_to 11000

$$$$
