AV-unprocessed.smi:2439|AV-procd|sdf|9614|dock3
  -GOLD-   2272013243D 1   1.00000     0.00000
 Structure written by MMmdl.
 40 42  0  0  0  0  0  0  0  0  1 V2000
  153.0781  136.5745  160.2319 N   0  0  0  0  0  0  0  0  0  0  0  0
  153.5246  136.9416  161.2341 C   0  0  0  0  0  0  0  0  0  0  0  0
  154.0877  137.4041  162.4968 C   0  0  0  0  0  0  0  0  0  0  0  0
  153.5971  136.8607  163.7028 C   0  0  0  0  0  0  0  0  0  0  0  0
  154.1366  137.3034  164.9244 C   0  0  0  0  0  0  0  0  0  0  0  0
  155.1527  138.2752  164.8899 C   0  0  0  0  0  0  0  0  0  0  0  0
  155.6322  138.8015  163.7440 N   0  0  0  0  0  0  0  0  0  0  0  0
  155.1148  138.3841  162.5621 C   0  0  0  0  0  0  0  0  0  0  0  0
  155.6350  138.9494  161.3826 N   0  0  0  0  0  0  0  0  0  0  0  0
  154.7717  139.5270  160.3588 C   0  0  0  0  0  0  0  0  0  0  0  0
  154.4528  141.0071  160.6264 C   0  0  1  0  0  0  0  0  0  0  0  0
  153.6916  141.6448  159.4499 C   0  0  0  0  0  0  0  0  0  0  0  0
  153.3211  143.0264  159.7280 N   0  0  0  0  0  0  0  0  0  0  0  0
  152.5942  143.6184  158.6060 C   0  0  0  0  0  0  0  0  0  0  0  0
  152.2220  145.0879  158.8597 C   0  0  0  0  0  0  0  0  0  0  0  0
  151.4021  145.2149  160.1515 C   0  0  0  0  0  0  0  0  0  0  0  0
  152.1458  144.5431  161.3162 C   0  0  0  0  0  0  0  0  0  0  0  0
  152.5314  143.0921  160.9614 C   0  0  2  0  0  0  0  0  0  0  0  0
  153.2828  142.4259  162.1322 C   0  0  0  0  0  0  0  0  0  0  0  0
  153.6298  141.0887  161.7873 O   0  0  0  0  0  0  0  0  0  0  0  0
  152.8166  136.1132  163.6973 H   0  0  0  0  0  0  0  0  0  0  0  0
  153.7811  136.9068  165.8639 H   0  0  0  0  0  0  0  0  0  0  0  0
  155.5934  138.6394  165.8063 H   0  0  0  0  0  0  0  0  0  0  0  0
  156.6022  138.7802  161.1457 H   0  0  0  0  0  0  0  0  0  0  0  0
  155.2388  139.4089  159.3807 H   0  0  0  0  0  0  0  0  0  0  0  0
  153.8471  138.9508  160.3223 H   0  0  0  0  0  0  0  0  0  0  0  0
  155.3768  141.5625  160.7968 H   0  0  0  0  0  0  0  0  0  0  0  0
  154.3114  141.6051  158.5535 H   0  0  0  0  0  0  0  0  0  0  0  0
  152.7964  141.0583  159.2364 H   0  0  0  0  0  0  0  0  0  0  0  0
  153.2020  143.5565  157.7026 H   0  0  0  0  0  0  0  0  0  0  0  0
  151.6878  143.0442  158.4077 H   0  0  0  0  0  0  0  0  0  0  0  0
  153.1302  145.6870  158.9385 H   0  0  0  0  0  0  0  0  0  0  0  0
  151.6580  145.4849  158.0153 H   0  0  0  0  0  0  0  0  0  0  0  0
  151.2098  146.2640  160.3778 H   0  0  0  0  0  0  0  0  0  0  0  0
  150.4299  144.7396  160.0159 H   0  0  0  0  0  0  0  0  0  0  0  0
  153.0441  145.1159  161.5518 H   0  0  0  0  0  0  0  0  0  0  0  0
  151.5223  144.5607  162.2107 H   0  0  0  0  0  0  0  0  0  0  0  0
  151.6068  142.5325  160.8083 H   0  0  0  0  0  0  0  0  0  0  0  0
  154.1844  142.9851  162.3874 H   0  0  0  0  0  0  0  0  0  0  0  0
  152.6564  142.4055  163.0245 H   0  0  0  0  0  0  0  0  0  0  0  0
  1  2  3  0  0  0  0
  2  3  1  0  0  0  0
  3  8  1  0  0  0  0
  3  4  2  0  0  0  0
  4  5  1  0  0  0  0
  4 21  1  0  0  0  0
  5  6  2  0  0  0  0
  5 22  1  0  0  0  0
  6  7  1  0  0  0  0
  6 23  1  0  0  0  0
  7  8  2  0  0  0  0
  8  9  1  0  0  0  0
  9 10  1  0  0  0  0
  9 24  1  0  0  0  0
 10 11  1  0  0  0  0
 10 25  1  0  0  0  0
 10 26  1  0  0  0  0
 11 20  1  0  0  0  0
 11 12  1  0  0  0  0
 11 27  1  0  0  0  0
 12 13  1  0  0  0  0
 12 28  1  0  0  0  0
 12 29  1  0  0  0  0
 13 18  1  0  0  0  0
 13 14  1  0  0  0  0
 14 15  1  0  0  0  0
 14 30  1  0  0  0  0
 14 31  1  0  0  0  0
 15 16  1  0  0  0  0
 15 32  1  0  0  0  0
 15 33  1  0  0  0  0
 16 17  1  0  0  0  0
 16 34  1  0  0  0  0
 16 35  1  0  0  0  0
 17 18  1  0  0  0  0
 17 36  1  0  0  0  0
 17 37  1  0  0  0  0
 18 19  1  0  0  0  0
 18 38  1  0  0  0  0
 19 20  1  0  0  0  0
 19 39  1  0  0  0  0
 19 40  1  0  0  0  0
M  END
> <s_m_source_file>
AV-unprocessed.smi

> <i_m_source_file_index>
2439

> <i_lp_mmshare_version>
43012

> <i_f3d_flags>
0

> <s_epik_input>
TiNDYzFbY0hdW2NIXVtjSF1uYzFbTkhdW0NIMl1bQ0BIXShbQ0gyXTIpT1tDSDJdW0NAQEhdKE4yMylbQ0gyXVtDSDJdW0NIMl1bQ0gyXTM=

> <s_epik_cmdline>
J2VwaWtfcHl0aG9uJywgJy1waCcsICc3LjAnLCAnLXRuJywgJzgnLCAnLW1hJywgJzIwMCcsICctbWV0YWxfYmluZGluZycsICctaW1hZScsICc8aW5maWxlLm1hZT4nLCAnLW9tYWUnLCAnPG91dGZpbGUubWFlPic=

> <r_epik_Ionization_Penalty>
1.22355

> <r_epik_Ionization_Penalty_Charging>
0

> <r_epik_Ionization_Penalty_Neutral>
1.22355

> <r_epik_State_Penalty>
1.29103

> <r_epik_Charging_Adjusted_Penalty>
1.29103

> <i_epik_Tot_Q>
0

> <i_epik_Tot_abs_Q>
0

> <r_epik_Metal_State_Penalty>
1.29103

> <b_epik_Metal_Only>
0

> <s_lp_Force_Field>
OPLS_2005

> <r_lp_Energy>
37.4095

> <b_lp_Chiralities_Consistent>
1

> <s_lp_Variant>
AV-unprocessed.smi:2439-12

> <Gold.Version>
5.8.1

> <Gold.Id.Protein>
6NUR|6NUR_protein|mol2

> <Gold.PLP.Fitness>
51.3585

> <Gold.PLP.PLP>
-49.7014

> <Gold.PLP.part.hbond>
-1.0000

> <Gold.PLP.part.metal>
0.0000

> <Gold.PLP.part.buried>
-6.1882

> <Gold.PLP.part.nonpolar>
-42.5267

> <Gold.PLP.part.repulsive>
0.0000

> <Gold.PLP.ligand.clash>
0.0000

> <Gold.PLP.ligand.torsion>
0.6729

> <Gold.PLP.Chemscore.Hbond>
1.0000

> <Gold.PLP.Chemscore.CHOScore>
0.0000

> <Gold.PLP.Chemscore.Metal>
0.0000

> <Gold.Chemscore.Hbonds>
donor molecule, donor type, donor heavy atom, donor atom, acceptor molecule, acceptor atom, score
      P1  H  6896  6909       L1     1  1.00

> <Gold.PLP.Chemscore.Internal.Correction>
0.0028

> <Gold.Rescore>
     Score         DG    S(hbond)    S(metal)    S(lipo)     H(rot)  DE(clash)    DE(int)     intcor
     20.36     -21.28       0.99        0.00     134.05       1.25       0.16       0.76       ----

> <Gold.Chemscore.Fitness>
20.3608

> <Gold.Chemscore.DG>
-21.2836

> <Gold.Chemscore.ZeroCoef>
-5.4800

> <Gold.Chemscore.Hbond>
0.9928

> <Gold.Chemscore.Metal>
0.0000

> <Gold.Chemscore.Lipo>
134.0495

> <Gold.Chemscore.Internal_Hbond>
0.0000

> <Gold.Chemscore.DEClash>
0.1630

> <Gold.Chemscore.DEInternal>
0.7598

> <Gold.Chemscore.Rot>
1.2485

> <Gold.Chemscore.Internal.Correction>
   9.000000E+99

> <Gold.Chemscore.Hbonds>
donor molecule, donor type, donor heavy atom, donor atom, acceptor molecule, acceptor atom, score
      P1  H  6896  6909       L1     1  0.99

> <Gold.Chemscore.Hbond.Weighted>
-3.3159

> <Gold.Chemscore.Metal.Weighted>
-0.0000

> <Gold.Chemscore.Lipo.Weighted>
-15.6838

> <Gold.Chemscore.Internal_Hbond.Weighted>
0.0000

> <Gold.Chemscore.DEClash.Weighted>
0.1630

> <Gold.Chemscore.DEInternal.Weighted>
0.7598

> <Gold.Chemscore.Rot.Weighted>
3.1961

> <Gold.Chemscore.Internal.Correction.Weighted>
   9.000000E+99

> <Gold.Protein.RotatedTorsions>
[ 6907 6896 6895 6894 ] final  149.70 input  -60.11 | X-H torsion
[ 7974 7965 7964 7962 ] final   10.16 input  175.53 | X-H torsion
[ 8008 7997 7996 7995 ] final  128.27 input   59.86 | X-H torsion
[ 10167 10162 10161 10158 ] final  -31.40 input  -65.29 | X-H torsion
[ 10718 10713 10712 10709 ] final   16.79 input   66.30 | X-H torsion
[ 10763 10752 10751 10750 ] final   63.58 input  -60.55 | X-H torsion
[ 11005 11000 10999 10996 ] final   82.79 input  -57.11 | X-H torsion

> <Gold.Protein.ActiveResidues>
 VAL166  LYS551  ARG553  GLY616  TRP617  ASP618  TYR619  PRO620  LYS621  CYS622 
 ASP623  PHE694  ASN695  SER759  ASP760  ASP761  ALA762  ILE779  LEU786  VAL792 
 PHE793  MET794  SER795  GLU796  ALA797  LYS798  CYS799  TRP800  GLU811  SER814 

> <Gold.Protein.RotatedAtoms>
  152.1244  133.4372  159.4690 H   0  0  0  0  0  0  0  0  0  0  0  0  # atno 6907 bound_to 6896
  150.6874  134.2496  159.4514 H   0  0  0  0  0  0  0  0  0  0  0  0  # atno 6908 bound_to 6896
  152.0375  134.9731  160.0624 H   0  0  0  0  0  0  0  0  0  0  0  0  # atno 6909 bound_to 6896
  146.2393  139.9676  142.8451 H   0  0  0  0  0  0  0  0  0  0  0  0  # atno 7974 bound_to 7965
  156.2911  140.2648  156.2409 H   0  0  0  0  0  0  0  0  0  0  0  0  # atno 8008 bound_to 7997
  154.9978  140.0388  157.2365 H   0  0  0  0  0  0  0  0  0  0  0  0  # atno 8009 bound_to 7997
  154.7628  140.2764  155.6205 H   0  0  0  0  0  0  0  0  0  0  0  0  # atno 8010 bound_to 7997
  140.7237  143.3774  151.1664 H   0  0  0  0  0  0  0  0  0  0  0  0  # atno 10167 bound_to 10162
  157.0728  130.6355  149.5809 H   0  0  0  0  0  0  0  0  0  0  0  0  # atno 10718 bound_to 10713
  153.0023  135.5424  154.6375 H   0  0  0  0  0  0  0  0  0  0  0  0  # atno 10763 bound_to 10752
  154.5638  135.2836  155.0896 H   0  0  0  0  0  0  0  0  0  0  0  0  # atno 10764 bound_to 10752
  154.2088  135.6471  153.5161 H   0  0  0  0  0  0  0  0  0  0  0  0  # atno 10765 bound_to 10752
  139.9052  134.8097  156.2222 H   0  0  0  0  0  0  0  0  0  0  0  0  # atno 11005 bound_to 11000
  145.1712  140.9721  143.4321 LP  0  0  0  0  0  0  0  0  0  0  0  0  # atno 17320 bound_to 7965
  145.0027  139.3583  143.6159 LP  0  0  0  0  0  0  0  0  0  0  0  0  # atno 17321 bound_to 7965
  139.7356  143.9004  152.3034 LP  0  0  0  0  0  0  0  0  0  0  0  0  # atno 17342 bound_to 10162
  139.8807  144.7019  150.8880 LP  0  0  0  0  0  0  0  0  0  0  0  0  # atno 17343 bound_to 10162
  155.9945  130.5010  150.7424 LP  0  0  0  0  0  0  0  0  0  0  0  0  # atno 17370 bound_to 10713
  157.4864  131.0907  151.0478 LP  0  0  0  0  0  0  0  0  0  0  0  0  # atno 17371 bound_to 10713
  141.0398  133.6944  156.1578 LP  0  0  0  0  0  0  0  0  0  0  0  0  # atno 17394 bound_to 11000
  140.6972  134.4603  157.5587 LP  0  0  0  0  0  0  0  0  0  0  0  0  # atno 17395 bound_to 11000

$$$$
