AV-unprocessed.smi:1487|AV-procd|sdf|6012|dock7
  -GOLD-   22720 6113D 1   1.00000     0.00000
 Structure written by MMmdl.
 48 50  0  0  0  0  0  0  0  0  2 V2000
  153.1430  142.8696  161.0753 C   0  0  0  0  0  0  0  0  0  0  0  0
  152.4825  142.5201  159.7534 C   0  0  0  0  0  0  0  0  0  0  0  0
  152.8319  141.3117  159.1095 C   0  0  0  0  0  0  0  0  0  0  0  0
  152.2404  140.9491  157.8798 C   0  0  0  0  0  0  0  0  0  0  0  0
  152.4271  139.8293  157.0873 N   0  0  0  0  0  0  0  0  0  0  0  0
  151.5937  140.0712  156.0800 C   0  0  0  0  0  0  0  0  0  0  0  0
  150.8851  141.2156  156.1274 N   0  0  0  0  0  0  0  0  0  0  0  0
  149.9185  141.6859  155.1514 C   0  0  0  0  0  0  0  0  0  0  0  0
  148.8394  140.6324  154.8350 C   0  0  1  0  0  0  0  0  0  0  0  0
  147.6027  141.2796  154.6026 O   0  0  0  0  0  0  0  0  0  0  0  0
  149.2012  139.8053  153.5856 C   0  0  0  0  0  0  0  0  0  0  0  0
  148.1969  138.7520  153.2865 N   0  3  1  0  0  0  0  0  0  0  0  0
  147.7229  138.0585  154.5114 C   0  0  0  0  0  0  0  0  0  0  0  0
  146.8312  136.8590  154.1556 C   0  0  0  0  0  0  0  0  0  0  0  0
  145.6407  137.2949  153.2903 C   0  0  0  0  0  0  0  0  0  0  0  0
  146.1127  138.0866  152.0592 C   0  0  2  0  0  0  0  0  0  0  0  0
  146.7526  137.2278  151.1353 O   0  0  0  0  0  0  0  0  0  0  0  0
  147.0639  139.2350  152.4499 C   0  0  0  0  0  0  0  0  0  0  0  0
  151.2832  141.8364  157.3066 C   0  0  0  0  0  0  0  0  0  0  0  0
  150.9284  143.0421  157.9368 C   0  0  0  0  0  0  0  0  0  0  0  0
  151.5277  143.3883  159.1657 C   0  0  0  0  0  0  0  0  0  0  0  0
  151.1351  144.6906  159.8408 C   0  0  0  0  0  0  0  0  0  0  0  0
  153.8208  142.0804  161.4024 H   0  0  0  0  0  0  0  0  0  0  0  0
  152.3928  143.0091  161.8539 H   0  0  0  0  0  0  0  0  0  0  0  0
  153.7205  143.7895  160.9810 H   0  0  0  0  0  0  0  0  0  0  0  0
  153.5593  140.6503  159.5569 H   0  0  0  0  0  0  0  0  0  0  0  0
  151.4903  139.3748  155.2605 H   0  0  0  0  0  0  0  0  0  0  0  0
  149.4638  142.6041  155.5263 H   0  0  0  0  0  0  0  0  0  0  0  0
  150.4575  141.9558  154.2422 H   0  0  0  0  0  0  0  0  0  0  0  0
  148.7260  139.9846  155.7036 H   0  0  0  0  0  0  0  0  0  0  0  0
  147.5824  141.5778  153.7053 H   0  0  0  0  0  0  0  0  0  0  0  0
  149.2840  140.4874  152.7377 H   0  0  0  0  0  0  0  0  0  0  0  0
  150.1838  139.3447  153.6999 H   0  0  0  0  0  0  0  0  0  0  0  0
  148.5770  137.7035  155.0895 H   0  0  0  0  0  0  0  0  0  0  0  0
  147.1800  138.7620  155.1445 H   0  0  0  0  0  0  0  0  0  0  0  0
  147.4198  136.1094  153.6248 H   0  0  0  0  0  0  0  0  0  0  0  0
  146.4717  136.3787  155.0663 H   0  0  0  0  0  0  0  0  0  0  0  0
  145.0516  136.4283  152.9878 H   0  0  0  0  0  0  0  0  0  0  0  0
  144.9783  137.9230  153.8875 H   0  0  0  0  0  0  0  0  0  0  0  0
  145.2414  138.5014  151.5512 H   0  0  0  0  0  0  0  0  0  0  0  0
  147.2484  136.5804  151.6136 H   0  0  0  0  0  0  0  0  0  0  0  0
  146.5106  139.9913  153.0090 H   0  0  0  0  0  0  0  0  0  0  0  0
  147.4289  139.7240  151.5473 H   0  0  0  0  0  0  0  0  0  0  0  0
  150.1987  143.6937  157.4791 H   0  0  0  0  0  0  0  0  0  0  0  0
  150.4079  145.2438  159.2460 H   0  0  0  0  0  0  0  0  0  0  0  0
  152.0083  145.3284  159.9795 H   0  0  0  0  0  0  0  0  0  0  0  0
  150.6899  144.4953  160.8166 H   0  0  0  0  0  0  0  0  0  0  0  0
  148.6824  138.0517  152.7430 H   0  0  0  0  0  0  0  0  0  0  0  0
  1  2  1  0  0  0  0
  1 23  1  0  0  0  0
  1 24  1  0  0  0  0
  1 25  1  0  0  0  0
  2 21  1  0  0  0  0
  2  3  2  0  0  0  0
  3  4  1  0  0  0  0
  3 26  1  0  0  0  0
  4 19  2  0  0  0  0
  4  5  1  0  0  0  0
  5  6  2  0  0  0  0
  6  7  1  0  0  0  0
  6 27  1  0  0  0  0
  7  8  1  0  0  0  0
  7 19  1  0  0  0  0
  8  9  1  0  0  0  0
  8 28  1  0  0  0  0
  8 29  1  0  0  0  0
  9 10  1  0  0  0  0
  9 11  1  0  0  0  0
  9 30  1  0  0  0  0
 10 31  1  0  0  0  0
 11 12  1  0  0  0  0
 11 32  1  0  0  0  0
 11 33  1  0  0  0  0
 12 18  1  0  0  0  0
 12 13  1  0  0  0  0
 12 48  1  0  0  0  0
 13 14  1  0  0  0  0
 13 34  1  0  0  0  0
 13 35  1  0  0  0  0
 14 15  1  0  0  0  0
 14 36  1  0  0  0  0
 14 37  1  0  0  0  0
 15 16  1  0  0  0  0
 15 38  1  0  0  0  0
 15 39  1  0  0  0  0
 16 17  1  0  0  0  0
 16 18  1  0  0  0  0
 16 40  1  0  0  0  0
 17 41  1  0  0  0  0
 18 42  1  0  0  0  0
 18 43  1  0  0  0  0
 19 20  1  0  0  0  0
 20 21  2  0  0  0  0
 20 44  1  0  0  0  0
 21 22  1  0  0  0  0
 22 45  1  0  0  0  0
 22 46  1  0  0  0  0
 22 47  1  0  0  0  0
M  CHG  1  12   1
M  END
> <s_m_source_file>
AV-unprocessed.smi

> <i_m_source_file_index>
1487

> <i_lp_mmshare_version>
43012

> <i_f3d_flags>
0

> <s_epik_input>
W0NIM11jKFtjSF0xKWMoW0NIM10pW2NIXWMoYzEyKW4oW2NIXW4yKVtDSDJdW0NASF0oW09IXSlbQ0gyXU4zW0NIMl1bQ0gyXVtDSDJdW0NAQEhdKFtPSF0pW0NIMl0z

> <s_epik_cmdline>
J2VwaWtfcHl0aG9uJywgJy1waCcsICc3LjAnLCAnLXRuJywgJzgnLCAnLW1hJywgJzIwMCcsICctbWV0YWxfYmluZGluZycsICctaW1hZScsICc8aW5maWxlLm1hZT4nLCAnLW9tYWUnLCAnPG91dGZpbGUubWFlPic=

> <r_epik_Ionization_Penalty>
0.0940186

> <r_epik_Ionization_Penalty_Charging>
0.00679686

> <r_epik_Ionization_Penalty_Neutral>
0.0872218

> <r_epik_State_Penalty>
0.0799311

> <r_epik_Charging_Adjusted_Penalty>
0.086728

> <i_epik_Tot_Q>
1

> <i_epik_Tot_abs_Q>
1

> <r_epik_Metal_State_Penalty>
7.95545e-05

> <b_epik_Metal_Only>
0

> <s_lp_Force_Field>
OPLS_2005

> <r_lp_Energy>
22.2404

> <b_lp_Chiralities_Consistent>
1

> <s_lp_Variant>
AV-unprocessed.smi:1487-6

> <Gold.Version>
5.8.1

> <Gold.Id.Protein>
6NUR|6NUR_protein|mol2

> <Gold.PLP.Fitness>
54.8997

> <Gold.PLP.PLP>
-42.2273

> <Gold.PLP.part.hbond>
-4.7762

> <Gold.PLP.part.metal>
0.0000

> <Gold.PLP.part.buried>
3.7089

> <Gold.PLP.part.nonpolar>
-39.7410

> <Gold.PLP.part.repulsive>
0.0484

> <Gold.PLP.ligand.clash>
0.0000

> <Gold.PLP.ligand.torsion>
0.7614

> <Gold.PLP.Chemscore.Hbond>
4.7200

> <Gold.PLP.Chemscore.CHOScore>
0.0000

> <Gold.PLP.Chemscore.Metal>
0.0000

> <Gold.Chemscore.Hbonds>
donor molecule, donor type, donor heavy atom, donor atom, acceptor molecule, acceptor atom, score
      L1  H    12    48       P1  7948  2.00
      L1  H    17    41       P1  7948  0.69
      P1  H  7954  7966       L1    17  0.95
      P1  H  7997  8009       L1     5  0.95

> <Gold.PLP.Chemscore.Internal.Correction>
0.0352

> <Gold.Rescore>
     Score         DG    S(hbond)    S(metal)    S(lipo)     H(rot)  DE(clash)    DE(int)     intcor
     18.15     -22.44       2.87        0.00     121.36       2.67       2.83       1.46       ----

> <Gold.Chemscore.Fitness>
18.1520

> <Gold.Chemscore.DG>
-22.4426

> <Gold.Chemscore.ZeroCoef>
-5.4800

> <Gold.Chemscore.Hbond>
2.8747

> <Gold.Chemscore.Metal>
0.0000

> <Gold.Chemscore.Lipo>
121.3629

> <Gold.Chemscore.Internal_Hbond>
0.0000

> <Gold.Chemscore.DEClash>
2.8263

> <Gold.Chemscore.DEInternal>
1.4643

> <Gold.Chemscore.Rot>
2.6712

> <Gold.Chemscore.Internal.Correction>
   9.000000E+99

> <Gold.Chemscore.Hbonds>
donor molecule, donor type, donor heavy atom, donor atom, acceptor molecule, acceptor atom, score
      L1  H    12    48       P1  7948  0.94
      L1  H    17    41       P1  7948  0.70
      P1  H  7954  7966       L1    17  0.21
      P1  H  7997  8009       L1     5  0.18

> <Gold.Chemscore.Hbond.Weighted>
-9.6015

> <Gold.Chemscore.Metal.Weighted>
-0.0000

> <Gold.Chemscore.Lipo.Weighted>
-14.1995

> <Gold.Chemscore.Internal_Hbond.Weighted>
0.0000

> <Gold.Chemscore.DEClash.Weighted>
2.8263

> <Gold.Chemscore.DEInternal.Weighted>
1.4643

> <Gold.Chemscore.Rot.Weighted>
6.8383

> <Gold.Chemscore.Internal.Correction.Weighted>
   9.000000E+99

> <Gold.Protein.RotatedTorsions>
[ 6907 6896 6895 6894 ] final   -4.53 input  -60.11 | X-H torsion
[ 7974 7965 7964 7962 ] final  -19.41 input  175.53 | X-H torsion
[ 8008 7997 7996 7995 ] final -177.27 input   59.86 | X-H torsion
[ 10167 10162 10161 10158 ] final  -83.89 input  -65.29 | X-H torsion
[ 10718 10713 10712 10709 ] final   50.66 input   66.30 | X-H torsion
[ 10763 10752 10751 10750 ] final -139.69 input  -60.55 | X-H torsion
[ 11005 11000 10999 10996 ] final   80.97 input  -57.11 | X-H torsion

> <Gold.Protein.ActiveResidues>
 VAL166  LYS551  ARG553  GLY616  TRP617  ASP618  TYR619  PRO620  LYS621  CYS622 
 ASP623  PHE694  ASN695  SER759  ASP760  ASP761  ALA762  ILE779  LEU786  VAL792 
 PHE793  MET794  SER795  GLU796  ALA797  LYS798  CYS799  TRP800  GLU811  SER814 

> <Gold.Protein.RotatedAtoms>
  151.4961  135.1060  159.9816 H   0  0  0  0  0  0  0  0  0  0  0  0  # atno 6907 bound_to 6896
  152.4721  133.8049  159.6983 H   0  0  0  0  0  0  0  0  0  0  0  0  # atno 6908 bound_to 6896
  150.8736  133.7407  159.2979 H   0  0  0  0  0  0  0  0  0  0  0  0  # atno 6909 bound_to 6896
  146.1842  140.4059  142.8482 H   0  0  0  0  0  0  0  0  0  0  0  0  # atno 7974 bound_to 7965
  156.0049  140.1228  157.0511 H   0  0  0  0  0  0  0  0  0  0  0  0  # atno 8008 bound_to 7997
  154.4255  140.1099  156.5817 H   0  0  0  0  0  0  0  0  0  0  0  0  # atno 8009 bound_to 7997
  155.6161  140.3472  155.4639 H   0  0  0  0  0  0  0  0  0  0  0  0  # atno 8010 bound_to 7997
  140.4184  143.2594  151.8923 H   0  0  0  0  0  0  0  0  0  0  0  0  # atno 10167 bound_to 10162
  157.4906  130.8374  149.8199 H   0  0  0  0  0  0  0  0  0  0  0  0  # atno 10718 bound_to 10713
  154.8601  135.3575  154.5587 H   0  0  0  0  0  0  0  0  0  0  0  0  # atno 10763 bound_to 10752
  153.6203  135.7006  153.5318 H   0  0  0  0  0  0  0  0  0  0  0  0  # atno 10764 bound_to 10752
  153.3135  135.4172  155.1316 H   0  0  0  0  0  0  0  0  0  0  0  0  # atno 10765 bound_to 10752
  139.9115  134.7961  156.1980 H   0  0  0  0  0  0  0  0  0  0  0  0  # atno 11005 bound_to 11000
  144.8368  140.6795  143.6255 LP  0  0  0  0  0  0  0  0  0  0  0  0  # atno 17320 bound_to 7965
  145.3987  139.1602  143.4189 LP  0  0  0  0  0  0  0  0  0  0  0  0  # atno 17321 bound_to 7965
  139.4782  144.5463  151.8453 LP  0  0  0  0  0  0  0  0  0  0  0  0  # atno 17342 bound_to 10162
  140.4561  144.1788  150.5901 LP  0  0  0  0  0  0  0  0  0  0  0  0  # atno 17343 bound_to 10162
  156.0171  130.3809  150.2075 LP  0  0  0  0  0  0  0  0  0  0  0  0  # atno 17370 bound_to 10713
  157.0264  130.9994  151.3325 LP  0  0  0  0  0  0  0  0  0  0  0  0  # atno 17371 bound_to 10713
  141.0543  133.6873  156.1830 LP  0  0  0  0  0  0  0  0  0  0  0  0  # atno 17394 bound_to 11000
  140.6762  134.4815  157.5588 LP  0  0  0  0  0  0  0  0  0  0  0  0  # atno 17395 bound_to 11000

$$$$
