AV-unprocessed.smi:2953|AV-procd|sdf|11293|dock2
  -GOLD-   2272016183D 1   1.00000     0.00000
 Structure written by MMmdl.
 45 47  0  0  0  0  0  0  0  0  1 V2000
  151.2530  144.7052  160.3895 C   0  0  0  0  0  0  0  0  0  0  0  0
  152.0674  143.4349  160.5439 C   0  0  0  0  0  0  0  0  0  0  0  0
  152.8242  143.2344  161.7174 C   0  0  0  0  0  0  0  0  0  0  0  0
  153.5808  142.0600  161.8816 C   0  0  0  0  0  0  0  0  0  0  0  0
  153.5815  141.0818  160.8718 C   0  0  0  0  0  0  0  0  0  0  0  0
  152.8273  141.2767  159.6991 C   0  0  0  0  0  0  0  0  0  0  0  0
  152.0609  142.4575  159.5209 C   0  0  0  0  0  0  0  0  0  0  0  0
  151.3012  142.7148  158.3978 O   0  0  0  0  0  0  0  0  0  0  0  0
  150.7432  141.6142  157.6919 C   0  0  0  0  0  0  0  0  0  0  0  0
  150.9788  141.7874  156.1852 C   0  0  0  0  0  0  0  0  0  0  0  0
  150.4119  140.6943  155.4072 N   0  0  0  0  0  0  0  0  0  0  0  0
  150.9144  139.4494  155.1908 C   0  0  0  0  0  0  0  0  0  0  0  0
  152.2215  138.9900  155.7915 C   0  0  2  0  0  0  0  0  0  0  0  0
  153.3171  138.6844  154.7514 C   0  0  0  0  0  0  0  0  0  0  0  0
  151.9757  137.8654  156.6949 N   0  0  0  0  0  0  0  0  0  0  0  0
  151.6034  136.6296  156.3330 C   0  0  0  0  0  0  0  0  0  0  0  0
  151.4231  136.2992  155.1637 O   0  0  0  0  0  0  0  0  0  0  0  0
  150.1347  138.6351  154.4743 N   0  0  0  0  0  0  0  0  0  0  0  0
  149.0538  139.4346  154.1631 C   0  0  0  0  0  0  0  0  0  0  0  0
  147.8921  139.1560  153.4080 C   0  0  0  0  0  0  0  0  0  0  0  0
  146.9054  140.1470  153.2251 C   0  0  0  0  0  0  0  0  0  0  0  0
  147.0651  141.4267  153.7949 C   0  0  0  0  0  0  0  0  0  0  0  0
  148.2140  141.7233  154.5533 C   0  0  0  0  0  0  0  0  0  0  0  0
  149.1968  140.7310  154.7307 C   0  0  0  0  0  0  0  0  0  0  0  0
  151.4904  145.4291  161.1697 H   0  0  0  0  0  0  0  0  0  0  0  0
  150.1892  144.4750  160.4510 H   0  0  0  0  0  0  0  0  0  0  0  0
  151.4510  145.1742  159.4253 H   0  0  0  0  0  0  0  0  0  0  0  0
  152.8266  143.9811  162.4980 H   0  0  0  0  0  0  0  0  0  0  0  0
  154.1589  141.9096  162.7815 H   0  0  0  0  0  0  0  0  0  0  0  0
  154.1613  140.1789  160.9962 H   0  0  0  0  0  0  0  0  0  0  0  0
  152.8551  140.5012  158.9495 H   0  0  0  0  0  0  0  0  0  0  0  0
  151.2044  140.6813  158.0193 H   0  0  0  0  0  0  0  0  0  0  0  0
  149.6722  141.5484  157.8899 H   0  0  0  0  0  0  0  0  0  0  0  0
  150.5751  142.7383  155.8400 H   0  0  0  0  0  0  0  0  0  0  0  0
  152.0497  141.8297  155.9840 H   0  0  0  0  0  0  0  0  0  0  0  0
  152.6152  139.7989  156.4057 H   0  0  0  0  0  0  0  0  0  0  0  0
  153.5161  139.5555  154.1278 H   0  0  0  0  0  0  0  0  0  0  0  0
  153.0365  137.8661  154.0877 H   0  0  0  0  0  0  0  0  0  0  0  0
  154.2521  138.4084  155.2393 H   0  0  0  0  0  0  0  0  0  0  0  0
  152.0954  138.0452  157.6810 H   0  0  0  0  0  0  0  0  0  0  0  0
  151.4828  135.9629  157.2008 H   0  0  0  0  0  0  0  0  0  0  0  0
  147.7600  138.1783  152.9688 H   0  0  0  0  0  0  0  0  0  0  0  0
  146.0216  139.9239  152.6454 H   0  0  0  0  0  0  0  0  0  0  0  0
  146.3048  142.1802  153.6506 H   0  0  0  0  0  0  0  0  0  0  0  0
  148.3388  142.7018  154.9924 H   0  0  0  0  0  0  0  0  0  0  0  0
  1  2  1  0  0  0  0
  1 25  1  0  0  0  0
  1 26  1  0  0  0  0
  1 27  1  0  0  0  0
  2  7  1  0  0  0  0
  2  3  2  0  0  0  0
  3  4  1  0  0  0  0
  3 28  1  0  0  0  0
  4  5  2  0  0  0  0
  4 29  1  0  0  0  0
  5  6  1  0  0  0  0
  5 30  1  0  0  0  0
  6  7  2  0  0  0  0
  6 31  1  0  0  0  0
  7  8  1  0  0  0  0
  8  9  1  0  0  0  0
  9 10  1  0  0  0  0
  9 32  1  0  0  0  0
  9 33  1  0  0  0  0
 10 11  1  0  0  0  0
 10 34  1  0  0  0  0
 10 35  1  0  0  0  0
 11 24  1  0  0  0  0
 11 12  1  0  0  0  0
 12 13  1  0  0  0  0
 12 18  2  0  0  0  0
 13 14  1  0  0  0  0
 13 15  1  0  0  0  0
 13 36  1  0  0  0  0
 14 37  1  0  0  0  0
 14 38  1  0  0  0  0
 14 39  1  0  0  0  0
 15 16  1  0  0  0  0
 15 40  1  0  0  0  0
 16 17  2  0  0  0  0
 16 41  1  0  0  0  0
 18 19  1  0  0  0  0
 19 24  2  0  0  0  0
 19 20  1  0  0  0  0
 20 21  2  0  0  0  0
 20 42  1  0  0  0  0
 21 22  1  0  0  0  0
 21 43  1  0  0  0  0
 22 23  2  0  0  0  0
 22 44  1  0  0  0  0
 23 24  1  0  0  0  0
 23 45  1  0  0  0  0
M  END
> <s_m_source_file>
AV-unprocessed.smi

> <i_m_source_file_index>
2953

> <i_lp_mmshare_version>
43012

> <i_f3d_flags>
0

> <s_epik_input>
W0NIM11jMVtjSF1bY0hdW2NIXVtjSF1jMU9bQ0gyXVtDSDJdbihjKG4yKVtDQEhdKFtDSDNdKVtOSF1bQ0hdPU8pYyhjMjMpW2NIXVtjSF1bY0hdW2NIXTM=

> <s_epik_cmdline>
J2VwaWtfcHl0aG9uJywgJy1waCcsICc3LjAnLCAnLXRuJywgJzgnLCAnLW1hJywgJzIwMCcsICctbWV0YWxfYmluZGluZycsICctaW1hZScsICc8aW5maWxlLm1hZT4nLCAnLW9tYWUnLCAnPG91dGZpbGUubWFlPic=

> <r_lp_tautomer_probability>
1

> <r_epik_Ionization_Penalty>
0.0924205

> <r_epik_Ionization_Penalty_Charging>
0

> <r_epik_Ionization_Penalty_Neutral>
0.0924205

> <r_epik_State_Penalty>
0.0827154

> <r_epik_Charging_Adjusted_Penalty>
0.0827154

> <i_epik_Tot_Q>
0

> <i_epik_Tot_abs_Q>
0

> <r_epik_Metal_State_Penalty>
0.071464

> <b_epik_Metal_Only>
0

> <s_lp_Force_Field>
OPLS_2005

> <r_lp_Energy>
13.673

> <b_lp_Chiralities_Consistent>
1

> <s_lp_Variant>
AV-unprocessed.smi:2953-1

> <Gold.Version>
5.8.1

> <Gold.Id.Protein>
6NUR|6NUR_protein|mol2

> <Gold.PLP.Fitness>
55.0838

> <Gold.PLP.PLP>
-54.0638

> <Gold.PLP.part.hbond>
-1.0000

> <Gold.PLP.part.metal>
0.0000

> <Gold.PLP.part.buried>
-2.6744

> <Gold.PLP.part.nonpolar>
-50.7061

> <Gold.PLP.part.repulsive>
0.4428

> <Gold.PLP.ligand.clash>
0.0000

> <Gold.PLP.ligand.torsion>
1.0778

> <Gold.PLP.Chemscore.Hbond>
1.0000

> <Gold.PLP.Chemscore.CHOScore>
0.0000

> <Gold.PLP.Chemscore.Metal>
0.0000

> <Gold.Chemscore.Hbonds>
donor molecule, donor type, donor heavy atom, donor atom, acceptor molecule, acceptor atom, score
      P1  H 10752 10764       L1    17  1.00

> <Gold.PLP.Chemscore.Internal.Correction>
0.1757

> <Gold.Rescore>
     Score         DG    S(hbond)    S(metal)    S(lipo)     H(rot)  DE(clash)    DE(int)     intcor
     15.85     -19.31       0.93        0.00     141.30       2.26       0.11       3.35       ----

> <Gold.Chemscore.Fitness>
15.8534

> <Gold.Chemscore.DG>
-19.3126

> <Gold.Chemscore.ZeroCoef>
-5.4800

> <Gold.Chemscore.Hbond>
0.9255

> <Gold.Chemscore.Metal>
0.0000

> <Gold.Chemscore.Lipo>
141.2987

> <Gold.Chemscore.Internal_Hbond>
0.0000

> <Gold.Chemscore.DEClash>
0.1097

> <Gold.Chemscore.DEInternal>
3.3494

> <Gold.Chemscore.Rot>
2.2619

> <Gold.Chemscore.Internal.Correction>
   9.000000E+99

> <Gold.Chemscore.Hbonds>
donor molecule, donor type, donor heavy atom, donor atom, acceptor molecule, acceptor atom, score
      P1  H 10752 10764       L1    17  0.82

> <Gold.Chemscore.Hbond.Weighted>
-3.0912

> <Gold.Chemscore.Metal.Weighted>
-0.0000

> <Gold.Chemscore.Lipo.Weighted>
-16.5320

> <Gold.Chemscore.Internal_Hbond.Weighted>
0.0000

> <Gold.Chemscore.DEClash.Weighted>
0.1097

> <Gold.Chemscore.DEInternal.Weighted>
3.3494

> <Gold.Chemscore.Rot.Weighted>
5.7906

> <Gold.Chemscore.Internal.Correction.Weighted>
   9.000000E+99

> <Gold.Protein.RotatedTorsions>
[ 6907 6896 6895 6894 ] final  156.72 input  -60.11 | X-H torsion
[ 7974 7965 7964 7962 ] final  101.71 input  175.53 | X-H torsion
[ 8008 7997 7996 7995 ] final -125.10 input   59.86 | X-H torsion
[ 10167 10162 10161 10158 ] final   11.87 input  -65.29 | X-H torsion
[ 10718 10713 10712 10709 ] final  114.53 input   66.30 | X-H torsion
[ 10763 10752 10751 10750 ] final  -70.31 input  -60.55 | X-H torsion
[ 11005 11000 10999 10996 ] final   54.39 input  -57.11 | X-H torsion

> <Gold.Protein.ActiveResidues>
 VAL166  LYS551  ARG553  GLY616  TRP617  ASP618  TYR619  PRO620  LYS621  CYS622 
 ASP623  PHE694  ASN695  SER759  ASP760  ASP761  ALA762  ILE779  LEU786  VAL792 
 PHE793  MET794  SER795  GLU796  ALA797  LYS798  CYS799  TRP800  GLU811  SER814 

> <Gold.Protein.RotatedAtoms>
  152.0255  133.3916  159.4275 H   0  0  0  0  0  0  0  0  0  0  0  0  # atno 6907 bound_to 6896
  150.6886  134.3578  159.4946 H   0  0  0  0  0  0  0  0  0  0  0  0  # atno 6908 bound_to 6896
  152.1358  134.9100  160.0607 H   0  0  0  0  0  0  0  0  0  0  0  0  # atno 6909 bound_to 6896
  145.3687  139.2402  143.3467 H   0  0  0  0  0  0  0  0  0  0  0  0  # atno 7974 bound_to 7965
  155.2077  140.0418  157.2928 H   0  0  0  0  0  0  0  0  0  0  0  0  # atno 8008 bound_to 7997
  154.6032  140.2457  155.7736 H   0  0  0  0  0  0  0  0  0  0  0  0  # atno 8009 bound_to 7997
  156.2334  140.2930  156.0257 H   0  0  0  0  0  0  0  0  0  0  0  0  # atno 8010 bound_to 7997
  140.6104  143.8419  150.7060 H   0  0  0  0  0  0  0  0  0  0  0  0  # atno 10167 bound_to 10162
  157.6276  131.1000  150.7199 H   0  0  0  0  0  0  0  0  0  0  0  0  # atno 10718 bound_to 10713
  154.4159  135.5998  153.5980 H   0  0  0  0  0  0  0  0  0  0  0  0  # atno 10763 bound_to 10752
  152.9792  135.5940  154.4014 H   0  0  0  0  0  0  0  0  0  0  0  0  # atno 10764 bound_to 10752
  154.3833  135.2841  155.2177 H   0  0  0  0  0  0  0  0  0  0  0  0  # atno 10765 bound_to 10752
  140.0690  134.5495  155.9067 H   0  0  0  0  0  0  0  0  0  0  0  0  # atno 11005 bound_to 11000
  146.2895  140.4335  142.8745 LP  0  0  0  0  0  0  0  0  0  0  0  0  # atno 17320 bound_to 7965
  144.8592  140.7115  143.6118 LP  0  0  0  0  0  0  0  0  0  0  0  0  # atno 17321 bound_to 7965
  140.1986  143.3978  152.1809 LP  0  0  0  0  0  0  0  0  0  0  0  0  # atno 17342 bound_to 10162
  139.5357  144.7207  151.4901 LP  0  0  0  0  0  0  0  0  0  0  0  0  # atno 17343 bound_to 10162
  156.7544  130.4779  149.5450 LP  0  0  0  0  0  0  0  0  0  0  0  0  # atno 17370 bound_to 10713
  156.1457  130.6275  151.0528 LP  0  0  0  0  0  0  0  0  0  0  0  0  # atno 17371 bound_to 10713
  141.2004  133.6612  156.5897 LP  0  0  0  0  0  0  0  0  0  0  0  0  # atno 17394 bound_to 11000
  140.3655  134.7651  157.4563 LP  0  0  0  0  0  0  0  0  0  0  0  0  # atno 17395 bound_to 11000

$$$$
