AV-unprocessed.smi:2547|AV-procd|sdf|10002|dock6
  -GOLD-   2272014 53D 1   1.00000     0.00000
 Structure written by MMmdl.
 44 45  0  0  0  0  0  0  0  0  2 V2000
  148.4185  135.5036  155.2224 C   0  0  0  0  0  0  0  0  0  0  0  0
  148.9570  136.7375  154.6112 N   0  3  2  0  0  0  0  0  0  0  0  0
  150.3408  137.0326  155.0591 C   0  0  0  0  0  0  0  0  0  0  0  0
  150.9204  138.2470  154.3106 C   0  0  0  0  0  0  0  0  0  0  0  0
  150.0209  139.4894  154.4397 C   0  0  2  0  0  0  0  0  0  0  0  0
  150.0880  140.0317  155.7967 N   0  0  0  0  0  0  0  0  0  0  0  0
  151.2113  140.1881  156.5128 C   0  0  0  0  0  0  0  0  0  0  0  0
  152.3300  139.8959  156.0891 O   0  0  0  0  0  0  0  0  0  0  0  0
  150.9467  140.6998  157.7281 N   0  0  0  0  0  0  0  0  0  0  0  0
  151.8653  141.0120  158.7655 C   0  0  0  0  0  0  0  0  0  0  0  0
  152.9175  140.0883  158.9355 C   0  0  0  0  0  0  0  0  0  0  0  0
  153.8746  140.3165  159.9402 C   0  0  0  0  0  0  0  0  0  0  0  0
  153.7562  141.4613  160.7483 C   0  0  0  0  0  0  0  0  0  0  0  0
  152.6764  142.3489  160.5248 C   0  0  0  0  0  0  0  0  0  0  0  0
  152.5031  143.5154  161.3039 N   0  0  0  0  0  0  0  0  0  0  0  0
  152.8815  143.5072  162.7137 C   0  0  0  0  0  0  0  0  0  0  0  0
  151.8401  144.6829  160.7366 C   0  0  0  0  0  0  0  0  0  0  0  0
  151.7634  142.1105  159.5519 N   0  0  0  0  0  0  0  0  0  0  0  0
  148.5762  139.1319  154.0345 C   0  0  0  0  0  0  0  0  0  0  0  0
  148.0526  137.8998  154.7937 C   0  0  0  0  0  0  0  0  0  0  0  0
  148.3313  135.6085  156.3048 H   0  0  0  0  0  0  0  0  0  0  0  0
  149.0688  134.6541  155.0119 H   0  0  0  0  0  0  0  0  0  0  0  0
  147.4315  135.2733  154.8198 H   0  0  0  0  0  0  0  0  0  0  0  0
  150.3460  137.2120  156.1353 H   0  0  0  0  0  0  0  0  0  0  0  0
  150.9745  136.1627  154.8816 H   0  0  0  0  0  0  0  0  0  0  0  0
  151.9254  138.4674  154.6727 H   0  0  0  0  0  0  0  0  0  0  0  0
  151.0289  137.9940  153.2549 H   0  0  0  0  0  0  0  0  0  0  0  0
  150.3995  140.2515  153.7557 H   0  0  0  0  0  0  0  0  0  0  0  0
  149.2135  140.2935  156.2274 H   0  0  0  0  0  0  0  0  0  0  0  0
  149.9778  140.8882  157.9372 H   0  0  0  0  0  0  0  0  0  0  0  0
  152.9950  139.2133  158.3067 H   0  0  0  0  0  0  0  0  0  0  0  0
  154.6888  139.6228  160.0894 H   0  0  0  0  0  0  0  0  0  0  0  0
  154.4912  141.6336  161.5197 H   0  0  0  0  0  0  0  0  0  0  0  0
  152.2844  142.7808  163.2657 H   0  0  0  0  0  0  0  0  0  0  0  0
  152.7294  144.4839  163.1728 H   0  0  0  0  0  0  0  0  0  0  0  0
  153.9346  143.2478  162.8280 H   0  0  0  0  0  0  0  0  0  0  0  0
  150.8380  144.4260  160.3925 H   0  0  0  0  0  0  0  0  0  0  0  0
  152.4099  145.0757  159.8940 H   0  0  0  0  0  0  0  0  0  0  0  0
  151.7440  145.4812  161.4727 H   0  0  0  0  0  0  0  0  0  0  0  0
  147.9091  139.9802  154.1924 H   0  0  0  0  0  0  0  0  0  0  0  0
  148.5480  138.9262  152.9636 H   0  0  0  0  0  0  0  0  0  0  0  0
  147.0562  137.6472  154.4289 H   0  0  0  0  0  0  0  0  0  0  0  0
  147.9518  138.1239  155.8569 H   0  0  0  0  0  0  0  0  0  0  0  0
  149.0066  136.5657  153.6170 H   0  0  0  0  0  0  0  0  0  0  0  0
  1  2  1  0  0  0  0
  1 21  1  0  0  0  0
  1 22  1  0  0  0  0
  1 23  1  0  0  0  0
  2 20  1  0  0  0  0
  2  3  1  0  0  0  0
  2 44  1  0  0  0  0
  3  4  1  0  0  0  0
  3 24  1  0  0  0  0
  3 25  1  0  0  0  0
  4  5  1  0  0  0  0
  4 26  1  0  0  0  0
  4 27  1  0  0  0  0
  5  6  1  0  0  0  0
  5 19  1  0  0  0  0
  5 28  1  0  0  0  0
  6  7  1  0  0  0  0
  6 29  1  0  0  0  0
  7  8  2  0  0  0  0
  7  9  1  0  0  0  0
  9 10  1  0  0  0  0
  9 30  1  0  0  0  0
 10 18  1  0  0  0  0
 10 11  2  0  0  0  0
 11 12  1  0  0  0  0
 11 31  1  0  0  0  0
 12 13  2  0  0  0  0
 12 32  1  0  0  0  0
 13 14  1  0  0  0  0
 13 33  1  0  0  0  0
 14 15  1  0  0  0  0
 14 18  2  0  0  0  0
 15 16  1  0  0  0  0
 15 17  1  0  0  0  0
 16 34  1  0  0  0  0
 16 35  1  0  0  0  0
 16 36  1  0  0  0  0
 17 37  1  0  0  0  0
 17 38  1  0  0  0  0
 17 39  1  0  0  0  0
 19 20  1  0  0  0  0
 19 40  1  0  0  0  0
 19 41  1  0  0  0  0
 20 42  1  0  0  0  0
 20 43  1  0  0  0  0
M  CHG  1   2   1
M  END
> <s_m_source_file>
AV-unprocessed.smi

> <i_m_source_file_index>
2547

> <i_lp_mmshare_version>
43012

> <i_f3d_flags>
0

> <s_epik_input>
W0NIM11OMVtDSDJdW0NIMl1bQ0hdKFtDSDJdW0NIMl0xKVtOSF1DKD1PKVtOSF1jMltjSF1bY0hdW2NIXWMobjIpTihbQ0gzXSlbQ0gzXQ==

> <s_epik_cmdline>
J2VwaWtfcHl0aG9uJywgJy1waCcsICc3LjAnLCAnLXRuJywgJzgnLCAnLW1hJywgJzIwMCcsICctbWV0YWxfYmluZGluZycsICctaW1hZScsICc8aW5maWxlLm1hZT4nLCAnLW9tYWUnLCAnPG91dGZpbGUubWFlPic=

> <r_lp_tautomer_probability>
1

> <r_epik_Ionization_Penalty>
0.0212039

> <r_epik_Ionization_Penalty_Charging>
0.00366825

> <r_epik_Ionization_Penalty_Neutral>
0.0175357

> <r_epik_State_Penalty>
0.0137702

> <r_epik_Charging_Adjusted_Penalty>
0.0174385

> <i_epik_Tot_Q>
1

> <i_epik_Tot_abs_Q>
1

> <r_epik_Metal_State_Penalty>
0.0148742

> <b_epik_Metal_Only>
0

> <s_lp_Force_Field>
OPLS_2005

> <r_lp_Energy>
18.1173

> <b_lp_Chiralities_Consistent>
1

> <s_lp_Variant>
AV-unprocessed.smi:2547-2

> <Gold.Version>
5.8.1

> <Gold.Id.Protein>
6NUR|6NUR_protein|mol2

> <Gold.PLP.Fitness>
48.5430

> <Gold.PLP.PLP>
-41.3175

> <Gold.PLP.part.hbond>
-2.0000

> <Gold.PLP.part.metal>
0.0000

> <Gold.PLP.part.buried>
-3.8554

> <Gold.PLP.part.nonpolar>
-34.8802

> <Gold.PLP.part.repulsive>
0.1366

> <Gold.PLP.ligand.clash>
0.0000

> <Gold.PLP.ligand.torsion>
0.8928

> <Gold.PLP.Chemscore.Hbond>
3.0000

> <Gold.PLP.Chemscore.CHOScore>
0.0000

> <Gold.PLP.Chemscore.Metal>
0.0000

> <Gold.Chemscore.Hbonds>
donor molecule, donor type, donor heavy atom, donor atom, acceptor molecule, acceptor atom, score
      L1  H     2    44       P1  7948  2.00
      P1  H  7997  8008       L1     8  0.96

> <Gold.PLP.Chemscore.Internal.Correction>
0.0112

> <Gold.Rescore>
     Score         DG    S(hbond)    S(metal)    S(lipo)     H(rot)  DE(clash)    DE(int)     intcor
     15.82     -19.10       1.99        0.00      81.40       1.00       0.16       3.12       ----

> <Gold.Chemscore.Fitness>
15.8222

> <Gold.Chemscore.DG>
-19.1013

> <Gold.Chemscore.ZeroCoef>
-5.4800

> <Gold.Chemscore.Hbond>
1.9933

> <Gold.Chemscore.Metal>
0.0000

> <Gold.Chemscore.Lipo>
81.3979

> <Gold.Chemscore.Internal_Hbond>
0.0000

> <Gold.Chemscore.DEClash>
0.1567

> <Gold.Chemscore.DEInternal>
3.1224

> <Gold.Chemscore.Rot>
1.0000

> <Gold.Chemscore.Internal.Correction>
   9.000000E+99

> <Gold.Chemscore.Hbonds>
donor molecule, donor type, donor heavy atom, donor atom, acceptor molecule, acceptor atom, score
      L1  H     2    44       P1  7948  1.00
      P1  H  7997  8008       L1     8  0.91

> <Gold.Chemscore.Hbond.Weighted>
-6.6578

> <Gold.Chemscore.Metal.Weighted>
-0.0000

> <Gold.Chemscore.Lipo.Weighted>
-9.5236

> <Gold.Chemscore.Internal_Hbond.Weighted>
0.0000

> <Gold.Chemscore.DEClash.Weighted>
0.1567

> <Gold.Chemscore.DEInternal.Weighted>
3.1224

> <Gold.Chemscore.Rot.Weighted>
2.5600

> <Gold.Chemscore.Internal.Correction.Weighted>
   9.000000E+99

> <Gold.Protein.RotatedTorsions>
[ 6907 6896 6895 6894 ] final   29.88 input  -60.11 | X-H torsion
[ 7974 7965 7964 7962 ] final  -25.05 input  175.53 | X-H torsion
[ 8008 7997 7996 7995 ] final  -29.95 input   59.86 | X-H torsion
[ 10167 10162 10161 10158 ] final -161.04 input  -65.29 | X-H torsion
[ 10718 10713 10712 10709 ] final -154.81 input   66.30 | X-H torsion
[ 10763 10752 10751 10750 ] final   86.80 input  -60.55 | X-H torsion
[ 11005 11000 10999 10996 ] final  129.08 input  -57.11 | X-H torsion

> <Gold.Protein.ActiveResidues>
 VAL166  LYS551  ARG553  GLY616  TRP617  ASP618  TYR619  PRO620  LYS621  CYS622 
 ASP623  PHE694  ASN695  SER759  ASP760  ASP761  ALA762  ILE779  LEU786  VAL792 
 PHE793  MET794  SER795  GLU796  ALA797  LYS798  CYS799  TRP800  GLU811  SER814 

> <Gold.Protein.RotatedAtoms>
  152.0379  134.9729  160.0573 H   0  0  0  0  0  0  0  0  0  0  0  0  # atno 6907 bound_to 6896
  152.1179  133.4332  159.4670 H   0  0  0  0  0  0  0  0  0  0  0  0  # atno 6908 bound_to 6896
  150.6847  134.2489  159.4546 H   0  0  0  0  0  0  0  0  0  0  0  0  # atno 6909 bound_to 6896
  146.1516  140.4834  142.8609 H   0  0  0  0  0  0  0  0  0  0  0  0  # atno 7974 bound_to 7965
  154.4269  140.1804  156.1329 H   0  0  0  0  0  0  0  0  0  0  0  0  # atno 8008 bound_to 7997
  156.0053  140.3356  155.6861 H   0  0  0  0  0  0  0  0  0  0  0  0  # atno 8009 bound_to 7997
  155.6186  140.0657  157.2676 H   0  0  0  0  0  0  0  0  0  0  0  0  # atno 8010 bound_to 7997
  139.6495  144.0111  152.2151 H   0  0  0  0  0  0  0  0  0  0  0  0  # atno 10167 bound_to 10162
  156.5044  130.8406  151.2622 H   0  0  0  0  0  0  0  0  0  0  0  0  # atno 10718 bound_to 10713
  153.1605  135.4567  154.9766 H   0  0  0  0  0  0  0  0  0  0  0  0  # atno 10763 bound_to 10752
  154.7894  135.3215  154.7814 H   0  0  0  0  0  0  0  0  0  0  0  0  # atno 10764 bound_to 10752
  153.8305  135.6939  153.4869 H   0  0  0  0  0  0  0  0  0  0  0  0  # atno 10765 bound_to 10752
  139.9596  134.9605  156.9096 H   0  0  0  0  0  0  0  0  0  0  0  0  # atno 11005 bound_to 11000
  144.7911  140.6033  143.6541 LP  0  0  0  0  0  0  0  0  0  0  0  0  # atno 17320 bound_to 7965
  145.4809  139.1495  143.3762 LP  0  0  0  0  0  0  0  0  0  0  0  0  # atno 17321 bound_to 7965
  139.9821  144.6421  150.7891 LP  0  0  0  0  0  0  0  0  0  0  0  0  # atno 17342 bound_to 10162
  140.7530  143.3001  151.3101 LP  0  0  0  0  0  0  0  0  0  0  0  0  # atno 17343 bound_to 10162
  157.7459  130.9971  150.2803 LP  0  0  0  0  0  0  0  0  0  0  0  0  # atno 17370 bound_to 10713
  156.3301  130.3799  149.7498 LP  0  0  0  0  0  0  0  0  0  0  0  0  # atno 17371 bound_to 10713
  140.5531  134.0608  155.7375 LP  0  0  0  0  0  0  0  0  0  0  0  0  # atno 17394 bound_to 11000
  141.1271  133.9364  157.2612 LP  0  0  0  0  0  0  0  0  0  0  0  0  # atno 17395 bound_to 11000

$$$$
