AV-unprocessed.smi:1896|AV-procd|sdf|7682|dock4
  -GOLD-   22720 9423D 1   1.00000     0.00000
 Structure written by MMmdl.
 47 48  0  0  0  0  0  0  0  0  2 V2000
  150.8503  141.7477  157.1528 C   0  0  0  0  0  0  0  0  0  0  0  0
  151.6084  142.1653  158.3806 C   0  0  0  0  0  0  0  0  0  0  0  0
  152.6068  141.4132  158.8124 N   0  0  0  0  0  0  0  0  0  0  0  0
  153.0637  142.0448  159.9122 N   0  0  0  0  0  0  0  0  0  0  0  0
  154.1793  141.4790  160.6457 C   0  0  0  0  0  0  0  0  0  0  0  0
  152.3525  143.1991  160.1756 C   0  0  0  0  0  0  0  0  0  0  0  0
  152.6649  144.0770  161.3445 C   0  0  0  0  0  0  0  0  0  0  0  0
  151.3949  143.3108  159.2027 C   0  0  0  0  0  0  0  0  0  0  0  0
  150.3493  144.3830  159.0301 C   0  0  0  0  0  0  0  0  0  0  0  0
  148.9807  143.8284  159.4238 C   0  0  0  0  0  0  0  0  0  0  0  0
  148.6333  143.8280  160.6045 O   0  0  0  0  0  0  0  0  0  0  0  0
  148.2154  143.3577  158.4260 N   0  0  0  0  0  0  0  0  0  0  0  0
  146.9018  142.7388  158.5844 C   0  0  0  0  0  0  0  0  0  0  0  0
  145.9531  143.5504  159.5047 C   0  0  2  0  0  0  0  0  0  0  0  0
  144.7261  142.7121  159.9307 C   0  0  0  0  0  0  0  0  0  0  0  0
  145.5346  144.8146  158.8308 N   0  3  0  0  0  0  0  0  0  0  0  0
  144.5110  144.6770  157.7710 C   0  0  0  0  0  0  0  0  0  0  0  0
  143.9195  146.0720  157.6087 C   0  0  0  0  0  0  0  0  0  0  0  0
  143.8932  146.5998  159.0379 C   0  0  0  0  0  0  0  0  0  0  0  0
  145.0595  145.8898  159.7392 C   0  0  0  0  0  0  0  0  0  0  0  0
  149.8549  141.3892  157.4147 H   0  0  0  0  0  0  0  0  0  0  0  0
  151.3605  140.9475  156.6153 H   0  0  0  0  0  0  0  0  0  0  0  0
  150.7322  142.5830  156.4628 H   0  0  0  0  0  0  0  0  0  0  0  0
  155.0495  142.1276  160.5449 H   0  0  0  0  0  0  0  0  0  0  0  0
  154.4292  140.4886  160.2627 H   0  0  0  0  0  0  0  0  0  0  0  0
  153.9204  141.3908  161.7010 H   0  0  0  0  0  0  0  0  0  0  0  0
  152.0058  144.9443  161.3763 H   0  0  0  0  0  0  0  0  0  0  0  0
  153.6917  144.4392  161.2937 H   0  0  0  0  0  0  0  0  0  0  0  0
  152.5425  143.5328  162.2811 H   0  0  0  0  0  0  0  0  0  0  0  0
  150.5692  145.2563  159.6452 H   0  0  0  0  0  0  0  0  0  0  0  0
  150.3111  144.7455  158.0022 H   0  0  0  0  0  0  0  0  0  0  0  0
  148.5880  143.4023  157.4882 H   0  0  0  0  0  0  0  0  0  0  0  0
  146.4866  142.6549  157.5806 H   0  0  0  0  0  0  0  0  0  0  0  0
  146.9966  141.7155  158.9524 H   0  0  0  0  0  0  0  0  0  0  0  0
  146.4989  143.8225  160.4098 H   0  0  0  0  0  0  0  0  0  0  0  0
  145.0210  141.8006  160.4492 H   0  0  0  0  0  0  0  0  0  0  0  0
  144.1268  142.4220  159.0671 H   0  0  0  0  0  0  0  0  0  0  0  0
  144.0789  143.2497  160.6229 H   0  0  0  0  0  0  0  0  0  0  0  0
  144.9352  144.3052  156.8378 H   0  0  0  0  0  0  0  0  0  0  0  0
  143.7333  143.9833  158.0957 H   0  0  0  0  0  0  0  0  0  0  0  0
  144.5810  146.6872  156.9970 H   0  0  0  0  0  0  0  0  0  0  0  0
  142.9351  146.0647  157.1393 H   0  0  0  0  0  0  0  0  0  0  0  0
  143.9748  147.6864  159.0823 H   0  0  0  0  0  0  0  0  0  0  0  0
  142.9530  146.3191  159.5149 H   0  0  0  0  0  0  0  0  0  0  0  0
  144.7203  145.4909  160.6966 H   0  0  0  0  0  0  0  0  0  0  0  0
  145.8810  146.5788  159.9383 H   0  0  0  0  0  0  0  0  0  0  0  0
  146.3533  145.1849  158.3692 H   0  0  0  0  0  0  0  0  0  0  0  0
  1  2  1  0  0  0  0
  1 21  1  0  0  0  0
  1 22  1  0  0  0  0
  1 23  1  0  0  0  0
  2  8  1  0  0  0  0
  2  3  2  0  0  0  0
  3  4  1  0  0  0  0
  4  5  1  0  0  0  0
  4  6  1  0  0  0  0
  5 24  1  0  0  0  0
  5 25  1  0  0  0  0
  5 26  1  0  0  0  0
  6  7  1  0  0  0  0
  6  8  2  0  0  0  0
  7 27  1  0  0  0  0
  7 28  1  0  0  0  0
  7 29  1  0  0  0  0
  8  9  1  0  0  0  0
  9 10  1  0  0  0  0
  9 30  1  0  0  0  0
  9 31  1  0  0  0  0
 10 11  2  0  0  0  0
 10 12  1  0  0  0  0
 12 13  1  0  0  0  0
 12 32  1  0  0  0  0
 13 14  1  0  0  0  0
 13 33  1  0  0  0  0
 13 34  1  0  0  0  0
 14 15  1  0  0  0  0
 14 16  1  0  0  0  0
 14 35  1  0  0  0  0
 15 36  1  0  0  0  0
 15 37  1  0  0  0  0
 15 38  1  0  0  0  0
 16 20  1  0  0  0  0
 16 17  1  0  0  0  0
 16 47  1  0  0  0  0
 17 18  1  0  0  0  0
 17 39  1  0  0  0  0
 17 40  1  0  0  0  0
 18 19  1  0  0  0  0
 18 41  1  0  0  0  0
 18 42  1  0  0  0  0
 19 20  1  0  0  0  0
 19 43  1  0  0  0  0
 19 44  1  0  0  0  0
 20 45  1  0  0  0  0
 20 46  1  0  0  0  0
M  CHG  1  16   1
M  END
> <s_m_source_file>
AV-unprocessed.smi

> <i_m_source_file_index>
1896

> <i_lp_mmshare_version>
43012

> <i_f3d_flags>
0

> <s_epik_input>
W0NIM11jMW5uKFtDSDNdKWMoW0NIM10pYzFbQ0gyXUMoPU8pW05IXVtDSDJdW0NASF0oW0NIM10pTjJbQ0gyXVtDSDJdW0NIMl1bQ0gyXTI=

> <s_epik_cmdline>
J2VwaWtfcHl0aG9uJywgJy1waCcsICc3LjAnLCAnLXRuJywgJzgnLCAnLW1hJywgJzIwMCcsICctbWV0YWxfYmluZGluZycsICctaW1hZScsICc8aW5maWxlLm1hZT4nLCAnLW9tYWUnLCAnPG91dGZpbGUubWFlPic=

> <r_lp_tautomer_probability>
1

> <r_epik_Ionization_Penalty>
0.00723064

> <r_epik_Ionization_Penalty_Charging>
0.0050435

> <r_epik_Ionization_Penalty_Neutral>
0.00218714

> <r_epik_State_Penalty>
-0

> <r_epik_Charging_Adjusted_Penalty>
0.0050435

> <i_epik_Tot_Q>
1

> <i_epik_Tot_abs_Q>
1

> <r_epik_Metal_State_Penalty>
-0

> <b_epik_Metal_Only>
0

> <s_lp_Force_Field>
OPLS_2005

> <r_lp_Energy>
25.1325

> <b_lp_Chiralities_Consistent>
1

> <s_lp_Variant>
AV-unprocessed.smi:1896-1

> <Gold.Version>
5.8.1

> <Gold.Id.Protein>
6NUR|6NUR_protein|mol2

> <Gold.PLP.Fitness>
44.0572

> <Gold.PLP.PLP>
-34.9484

> <Gold.PLP.part.hbond>
-4.0000

> <Gold.PLP.part.metal>
0.0000

> <Gold.PLP.part.buried>
-3.1534

> <Gold.PLP.part.nonpolar>
-28.4314

> <Gold.PLP.part.repulsive>
0.1910

> <Gold.PLP.ligand.clash>
0.0000

> <Gold.PLP.ligand.torsion>
0.9238

> <Gold.PLP.Chemscore.Hbond>
3.6320

> <Gold.PLP.Chemscore.CHOScore>
0.0000

> <Gold.PLP.Chemscore.Metal>
0.0000

> <Gold.Chemscore.Hbonds>
donor molecule, donor type, donor heavy atom, donor atom, acceptor molecule, acceptor atom, score
      L1  H    12    32       P1  8028  0.29
      L1  H    16    47       P1  8029  2.00
      P1  H  6933  6944       L1    11  0.83

> <Gold.PLP.Chemscore.Internal.Correction>
0.0603

> <Gold.Rescore>
     Score         DG    S(hbond)    S(metal)    S(lipo)     H(rot)  DE(clash)    DE(int)     intcor
     15.71     -18.16       2.14        0.00      83.38       1.65       0.18       2.27       ----

> <Gold.Chemscore.Fitness>
15.7138

> <Gold.Chemscore.DG>
-18.1579

> <Gold.Chemscore.ZeroCoef>
-5.4800

> <Gold.Chemscore.Hbond>
2.1392

> <Gold.Chemscore.Metal>
0.0000

> <Gold.Chemscore.Lipo>
83.3829

> <Gold.Chemscore.Internal_Hbond>
0.0000

> <Gold.Chemscore.DEClash>
0.1773

> <Gold.Chemscore.DEInternal>
2.2668

> <Gold.Chemscore.Rot>
1.6495

> <Gold.Chemscore.Internal.Correction>
   9.000000E+99

> <Gold.Chemscore.Hbonds>
donor molecule, donor type, donor heavy atom, donor atom, acceptor molecule, acceptor atom, score
      L1  H    12    32       P1  8028  0.04
      L1  H    16    47       P1  8029  0.96
      P1  H  6933  6944       L1    11  0.81

> <Gold.Chemscore.Hbond.Weighted>
-7.1448

> <Gold.Chemscore.Metal.Weighted>
-0.0000

> <Gold.Chemscore.Lipo.Weighted>
-9.7558

> <Gold.Chemscore.Internal_Hbond.Weighted>
0.0000

> <Gold.Chemscore.DEClash.Weighted>
0.1773

> <Gold.Chemscore.DEInternal.Weighted>
2.2668

> <Gold.Chemscore.Rot.Weighted>
4.2227

> <Gold.Chemscore.Internal.Correction.Weighted>
   9.000000E+99

> <Gold.Protein.RotatedTorsions>
[ 6907 6896 6895 6894 ] final -129.52 input  -60.11 | X-H torsion
[ 7974 7965 7964 7962 ] final   16.86 input  175.53 | X-H torsion
[ 8008 7997 7996 7995 ] final -152.48 input   59.86 | X-H torsion
[ 10167 10162 10161 10158 ] final  179.42 input  -65.29 | X-H torsion
[ 10718 10713 10712 10709 ] final -158.11 input   66.30 | X-H torsion
[ 10763 10752 10751 10750 ] final   33.04 input  -60.55 | X-H torsion
[ 11005 11000 10999 10996 ] final  -86.92 input  -57.11 | X-H torsion

> <Gold.Protein.ActiveResidues>
 VAL166  LYS551  ARG553  GLY616  TRP617  ASP618  TYR619  PRO620  LYS621  CYS622 
 ASP623  PHE694  ASN695  SER759  ASP760  ASP761  ALA762  ILE779  LEU786  VAL792 
 PHE793  MET794  SER795  GLU796  ALA797  LYS798  CYS799  TRP800  GLU811  SER814 

> <Gold.Protein.RotatedAtoms>
  150.9296  133.6782  159.2813 H   0  0  0  0  0  0  0  0  0  0  0  0  # atno 6907 bound_to 6896
  151.4209  135.0996  159.9623 H   0  0  0  0  0  0  0  0  0  0  0  0  # atno 6908 bound_to 6896
  152.5019  133.8748  159.7371 H   0  0  0  0  0  0  0  0  0  0  0  0  # atno 6909 bound_to 6896
  146.2237  139.8687  142.8591 H   0  0  0  0  0  0  0  0  0  0  0  0  # atno 7974 bound_to 7965
  155.6558  140.0717  157.2571 H   0  0  0  0  0  0  0  0  0  0  0  0  # atno 8008 bound_to 7997
  154.4153  140.1725  156.1773 H   0  0  0  0  0  0  0  0  0  0  0  0  # atno 8009 bound_to 7997
  155.9739  140.3359  155.6604 H   0  0  0  0  0  0  0  0  0  0  0  0  # atno 8010 bound_to 7997
  139.5335  144.2563  152.0743 H   0  0  0  0  0  0  0  0  0  0  0  0  # atno 10167 bound_to 10162
  156.5496  130.8599  151.2775 H   0  0  0  0  0  0  0  0  0  0  0  0  # atno 10718 bound_to 10713
  153.0232  135.6397  154.1449 H   0  0  0  0  0  0  0  0  0  0  0  0  # atno 10763 bound_to 10752
  154.1181  135.2848  155.3216 H   0  0  0  0  0  0  0  0  0  0  0  0  # atno 10764 bound_to 10752
  154.6283  135.5501  153.7714 H   0  0  0  0  0  0  0  0  0  0  0  0  # atno 10765 bound_to 10752
  141.1624  133.7481  156.9231 H   0  0  0  0  0  0  0  0  0  0  0  0  # atno 11005 bound_to 11000
  145.2630  141.0083  143.3815 LP  0  0  0  0  0  0  0  0  0  0  0  0  # atno 17320 bound_to 7965
  144.9283  139.4329  143.6507 LP  0  0  0  0  0  0  0  0  0  0  0  0  # atno 17321 bound_to 7965
  140.2030  144.4639  150.6422 LP  0  0  0  0  0  0  0  0  0  0  0  0  # atno 17342 bound_to 10162
  140.6529  143.2229  151.6036 LP  0  0  0  0  0  0  0  0  0  0  0  0  # atno 17343 bound_to 10162
  157.7390  130.9823  150.2287 LP  0  0  0  0  0  0  0  0  0  0  0  0  # atno 17370 bound_to 10713
  156.2897  130.3744  149.7854 LP  0  0  0  0  0  0  0  0  0  0  0  0  # atno 17371 bound_to 10713
  140.1438  134.9276  157.2502 LP  0  0  0  0  0  0  0  0  0  0  0  0  # atno 17394 bound_to 11000
  140.2805  134.3356  155.7345 LP  0  0  0  0  0  0  0  0  0  0  0  0  # atno 17395 bound_to 11000

$$$$
