AV-unprocessed.smi:2120|AV-procd|sdf|8639|dock4
  -GOLD-   2272011383D 1   1.00000     0.00000
 Structure written by MMmdl.
 46 49  0  0  0  0  0  0  0  0  2 V2000
  150.8347  140.5873  156.5223 O   0  0  0  0  0  0  0  0  0  0  0  0
  150.5208  141.7773  156.5769 C   0  0  0  0  0  0  0  0  0  0  0  0
  149.7145  142.3442  155.6633 N   0  0  0  0  0  0  0  0  0  0  0  0
  149.1286  141.6562  154.5192 C   0  0  0  0  0  0  0  0  0  0  0  0
  147.7275  141.1073  154.8398 C   0  0  0  0  0  0  0  0  0  0  0  0
  146.6610  142.1839  154.7823 C   0  0  0  0  0  0  0  0  0  0  0  0
  146.0437  142.6417  155.9674 C   0  0  0  0  0  0  0  0  0  0  0  0
  145.0544  143.6439  155.8897 C   0  0  0  0  0  0  0  0  0  0  0  0
  144.7066  144.1682  154.6281 C   0  0  0  0  0  0  0  0  0  0  0  0
  145.3198  143.7067  153.5159 N   0  3  0  0  0  0  0  0  0  0  0  0
  146.2703  142.7467  153.5478 C   0  0  0  0  0  0  0  0  0  0  0  0
  151.0579  142.6579  157.7301 C   0  0  0  0  0  0  0  0  0  0  0  0
  151.9718  141.7970  158.6443 C   0  0  0  0  0  0  0  0  0  0  0  0
  152.5665  142.6616  159.7772 C   0  0  1  0  0  0  0  0  0  0  0  0
  153.4080  143.8023  159.1676 C   0  0  0  0  0  0  0  0  0  0  0  0
  152.5049  144.6786  158.2746 C   0  0  2  0  0  0  0  0  0  0  0  0
  151.3651  145.2802  159.1220 C   0  0  0  0  0  0  0  0  0  0  0  0
  150.5290  144.1371  159.7334 C   0  0  2  0  0  0  0  0  0  0  0  0
  151.4263  143.2575  160.6289 C   0  0  0  0  0  0  0  0  0  0  0  0
  149.9251  143.2757  158.6038 C   0  0  0  0  0  0  0  0  0  0  0  0
  151.9088  143.8173  157.1404 C   0  0  0  0  0  0  0  0  0  0  0  0
  149.4990  143.3253  155.7682 H   0  0  0  0  0  0  0  0  0  0  0  0
  149.0701  142.3636  153.6915 H   0  0  0  0  0  0  0  0  0  0  0  0
  149.7931  140.8533  154.1957 H   0  0  0  0  0  0  0  0  0  0  0  0
  147.4556  140.3206  154.1350 H   0  0  0  0  0  0  0  0  0  0  0  0
  147.7252  140.6464  155.8287 H   0  0  0  0  0  0  0  0  0  0  0  0
  146.3234  142.2282  156.9258 H   0  0  0  0  0  0  0  0  0  0  0  0
  144.5700  144.0052  156.7853 H   0  0  0  0  0  0  0  0  0  0  0  0
  143.9624  144.9365  154.4765 H   0  0  0  0  0  0  0  0  0  0  0  0
  146.6854  142.4619  152.5919 H   0  0  0  0  0  0  0  0  0  0  0  0
  151.4063  140.9679  159.0730 H   0  0  0  0  0  0  0  0  0  0  0  0
  152.7817  141.3464  158.0679 H   0  0  0  0  0  0  0  0  0  0  0  0
  153.2030  142.0411  160.4088 H   0  0  0  0  0  0  0  0  0  0  0  0
  153.8579  144.4047  159.9578 H   0  0  0  0  0  0  0  0  0  0  0  0
  154.2335  143.3929  158.5841 H   0  0  0  0  0  0  0  0  0  0  0  0
  153.0979  145.4848  157.8416 H   0  0  0  0  0  0  0  0  0  0  0  0
  151.7742  145.9133  159.9104 H   0  0  0  0  0  0  0  0  0  0  0  0
  150.7348  145.9227  158.5058 H   0  0  0  0  0  0  0  0  0  0  0  0
  149.7240  144.5609  160.3344 H   0  0  0  0  0  0  0  0  0  0  0  0
  150.8395  142.4603  161.0869 H   0  0  0  0  0  0  0  0  0  0  0  0
  151.8364  143.8477  161.4494 H   0  0  0  0  0  0  0  0  0  0  0  0
  149.2614  143.8910  157.9939 H   0  0  0  0  0  0  0  0  0  0  0  0
  149.3055  142.4928  159.0443 H   0  0  0  0  0  0  0  0  0  0  0  0
  152.7190  143.4291  156.5208 H   0  0  0  0  0  0  0  0  0  0  0  0
  151.2979  144.4411  156.4861 H   0  0  0  0  0  0  0  0  0  0  0  0
  145.0541  144.1008  152.6128 H   0  0  0  0  0  0  0  0  0  0  0  0
  1  2  2  0  0  0  0
  2  3  1  0  0  0  0
  2 12  1  0  0  0  0
  3  4  1  0  0  0  0
  3 22  1  0  0  0  0
  4  5  1  0  0  0  0
  4 23  1  0  0  0  0
  4 24  1  0  0  0  0
  5  6  1  0  0  0  0
  5 25  1  0  0  0  0
  5 26  1  0  0  0  0
  6 11  1  0  0  0  0
  6  7  2  0  0  0  0
  7  8  1  0  0  0  0
  7 27  1  0  0  0  0
  8  9  2  0  0  0  0
  8 28  1  0  0  0  0
  9 10  1  0  0  0  0
  9 29  1  0  0  0  0
 10 11  2  0  0  0  0
 10 46  1  0  0  0  0
 11 30  1  0  0  0  0
 12 20  1  0  0  0  0
 12 21  1  0  0  0  0
 12 13  1  0  0  0  0
 13 14  1  0  0  0  0
 13 31  1  0  0  0  0
 13 32  1  0  0  0  0
 14 19  1  0  0  0  0
 14 15  1  0  0  0  0
 14 33  1  0  0  0  0
 15 16  1  0  0  0  0
 15 34  1  0  0  0  0
 15 35  1  0  0  0  0
 16 17  1  0  0  0  0
 16 21  1  0  0  0  0
 16 36  1  0  0  0  0
 17 18  1  0  0  0  0
 17 37  1  0  0  0  0
 17 38  1  0  0  0  0
 18 19  1  0  0  0  0
 18 20  1  0  0  0  0
 18 39  1  0  0  0  0
 19 40  1  0  0  0  0
 19 41  1  0  0  0  0
 20 42  1  0  0  0  0
 20 43  1  0  0  0  0
 21 44  1  0  0  0  0
 21 45  1  0  0  0  0
M  CHG  1  10   1
M  END
> <s_m_source_file>
AV-unprocessed.smi

> <i_m_source_file_index>
2120

> <i_lp_mmshare_version>
43012

> <i_f3d_flags>
0

> <s_epik_input>
W0NIMl0xW0NASF0oW0NIMl0yKVtDSDJdW0NASF0oW0NIMl0zKVtDSDJdW0NAQEhdMVtDSDJdQzIzQyg9TylbTkhdW0NIMl1bQ0gyXWM0W2NIXVtjSF1bY0hdbltjSF00

> <s_epik_cmdline>
J2VwaWtfcHl0aG9uJywgJy1waCcsICc3LjAnLCAnLXRuJywgJzgnLCAnLW1hJywgJzIwMCcsICctbWV0YWxfYmluZGluZycsICctaW1hZScsICc8aW5maWxlLm1hZT4nLCAnLW9tYWUnLCAnPG91dGZpbGUubWFlPic=

> <r_epik_Ionization_Penalty>
2.23732

> <r_epik_Ionization_Penalty_Charging>
2.23732

> <r_epik_Ionization_Penalty_Neutral>
2.68417e-08

> <r_epik_State_Penalty>
2.38345

> <r_epik_Charging_Adjusted_Penalty>
4.62076

> <i_epik_Tot_Q>
1

> <i_epik_Tot_abs_Q>
1

> <r_epik_Metal_State_Penalty>
2.39692

> <b_epik_Metal_Only>
0

> <s_lp_Force_Field>
OPLS_2005

> <r_lp_Energy>
42.1143

> <b_lp_Chiralities_Consistent>
1

> <s_lp_Variant>
AV-unprocessed.smi:2120-2

> <Gold.Version>
5.8.1

> <Gold.Id.Protein>
6NUR|6NUR_protein|mol2

> <Gold.PLP.Fitness>
47.7694

> <Gold.PLP.PLP>
-45.4979

> <Gold.PLP.part.hbond>
-1.4741

> <Gold.PLP.part.metal>
0.0000

> <Gold.PLP.part.buried>
-6.3489

> <Gold.PLP.part.nonpolar>
-37.9593

> <Gold.PLP.part.repulsive>
0.2761

> <Gold.PLP.ligand.clash>
0.0000

> <Gold.PLP.ligand.torsion>
0.3705

> <Gold.PLP.Chemscore.Hbond>
1.0000

> <Gold.PLP.Chemscore.CHOScore>
0.0000

> <Gold.PLP.Chemscore.Metal>
0.0000

> <Gold.Chemscore.Hbonds>
donor molecule, donor type, donor heavy atom, donor atom, acceptor molecule, acceptor atom, score
      L1  H     3    22       P1  8028  0.99

> <Gold.PLP.Chemscore.Internal.Correction>
0.0124

> <Gold.Rescore>
     Score         DG    S(hbond)    S(metal)    S(lipo)     H(rot)  DE(clash)    DE(int)     intcor
     20.26     -21.96       1.00        0.00     143.28       1.41       1.19       0.51       ----

> <Gold.Chemscore.Fitness>
20.2567

> <Gold.Chemscore.DG>
-21.9574

> <Gold.Chemscore.ZeroCoef>
-5.4800

> <Gold.Chemscore.Hbond>
0.9985

> <Gold.Chemscore.Metal>
0.0000

> <Gold.Chemscore.Lipo>
143.2764

> <Gold.Chemscore.Internal_Hbond>
0.0000

> <Gold.Chemscore.DEClash>
1.1885

> <Gold.Chemscore.DEInternal>
0.5121

> <Gold.Chemscore.Rot>
1.4145

> <Gold.Chemscore.Internal.Correction>
   9.000000E+99

> <Gold.Chemscore.Hbonds>
donor molecule, donor type, donor heavy atom, donor atom, acceptor molecule, acceptor atom, score
      L1  H     3    22       P1  8028  0.92

> <Gold.Chemscore.Hbond.Weighted>
-3.3351

> <Gold.Chemscore.Metal.Weighted>
-0.0000

> <Gold.Chemscore.Lipo.Weighted>
-16.7633

> <Gold.Chemscore.Internal_Hbond.Weighted>
0.0000

> <Gold.Chemscore.DEClash.Weighted>
1.1885

> <Gold.Chemscore.DEInternal.Weighted>
0.5121

> <Gold.Chemscore.Rot.Weighted>
3.6210

> <Gold.Chemscore.Internal.Correction.Weighted>
   9.000000E+99

> <Gold.Protein.RotatedTorsions>
[ 6907 6896 6895 6894 ] final  -57.92 input  -60.11 | X-H torsion
[ 7974 7965 7964 7962 ] final  103.64 input  175.53 | X-H torsion
[ 8008 7997 7996 7995 ] final    2.70 input   59.86 | X-H torsion
[ 10167 10162 10161 10158 ] final    2.27 input  -65.29 | X-H torsion
[ 10718 10713 10712 10709 ] final   25.68 input   66.30 | X-H torsion
[ 10763 10752 10751 10750 ] final  -25.85 input  -60.55 | X-H torsion
[ 11005 11000 10999 10996 ] final   28.29 input  -57.11 | X-H torsion

> <Gold.Protein.ActiveResidues>
 VAL166  LYS551  ARG553  GLY616  TRP617  ASP618  TYR619  PRO620  LYS621  CYS622 
 ASP623  PHE694  ASN695  SER759  ASP760  ASP761  ALA762  ILE779  LEU786  VAL792 
 PHE793  MET794  SER795  GLU796  ALA797  LYS798  CYS799  TRP800  GLU811  SER814 

> <Gold.Protein.RotatedAtoms>
  150.8047  134.7165  159.6632 H   0  0  0  0  0  0  0  0  0  0  0  0  # atno 6907 bound_to 6896
  152.4166  134.6027  160.0014 H   0  0  0  0  0  0  0  0  0  0  0  0  # atno 6908 bound_to 6896
  151.6254  133.3299  159.3133 H   0  0  0  0  0  0  0  0  0  0  0  0  # atno 6909 bound_to 6896
  145.3432  139.2457  143.3598 H   0  0  0  0  0  0  0  0  0  0  0  0  # atno 7974 bound_to 7965
  154.6948  140.2660  155.6777 H   0  0  0  0  0  0  0  0  0  0  0  0  # atno 8008 bound_to 7997
  156.2744  140.2784  156.1462 H   0  0  0  0  0  0  0  0  0  0  0  0  # atno 8009 bound_to 7997
  155.0847  140.0373  157.2640 H   0  0  0  0  0  0  0  0  0  0  0  0  # atno 8010 bound_to 7997
  140.6643  143.7221  150.7797 H   0  0  0  0  0  0  0  0  0  0  0  0  # atno 10167 bound_to 10162
  157.1966  130.6871  149.6171 H   0  0  0  0  0  0  0  0  0  0  0  0  # atno 10718 bound_to 10713
  153.7064  135.6953  153.5049 H   0  0  0  0  0  0  0  0  0  0  0  0  # atno 10763 bound_to 10752
  153.2305  135.4339  155.0588 H   0  0  0  0  0  0  0  0  0  0  0  0  # atno 10764 bound_to 10752
  154.8328  135.3483  154.6602 H   0  0  0  0  0  0  0  0  0  0  0  0  # atno 10765 bound_to 10752
  140.3171  134.2584  155.7723 H   0  0  0  0  0  0  0  0  0  0  0  0  # atno 11005 bound_to 11000
  146.2999  140.4033  142.8708 LP  0  0  0  0  0  0  0  0  0  0  0  0  # atno 17320 bound_to 7965
  144.8774  140.7355  143.6008 LP  0  0  0  0  0  0  0  0  0  0  0  0  # atno 17321 bound_to 7965
  140.0895  143.4891  152.2486 LP  0  0  0  0  0  0  0  0  0  0  0  0  # atno 17342 bound_to 10162
  139.5887  144.7541  151.3455 LP  0  0  0  0  0  0  0  0  0  0  0  0  # atno 17343 bound_to 10162
  155.9705  130.4596  150.6044 LP  0  0  0  0  0  0  0  0  0  0  0  0  # atno 17370 bound_to 10713
  157.3808  131.0780  151.1478 LP  0  0  0  0  0  0  0  0  0  0  0  0  # atno 17371 bound_to 10713
  141.2095  133.7747  156.9993 LP  0  0  0  0  0  0  0  0  0  0  0  0  # atno 17394 bound_to 11000
  140.0974  134.9556  157.1870 LP  0  0  0  0  0  0  0  0  0  0  0  0  # atno 17395 bound_to 11000

$$$$
