AV-unprocessed.smi:1851|AV-procd|sdf|7523|dock4
  -GOLD-   22720 9233D 1   1.00000     0.00000
 Structure written by MMmdl.
 39 41  0  0  0  0  0  0  0  0  1 V2000
  146.1172  142.4949  161.5610 O   0  0  0  0  0  0  0  0  0  0  0  0
  145.4149  142.8938  160.6335 C   0  0  0  0  0  0  0  0  0  0  0  0
  145.8809  143.2638  159.4320 N   0  0  0  0  0  0  0  0  0  0  0  0
  147.2865  143.2589  159.0397 C   0  0  0  0  0  0  0  0  0  0  0  0
  147.4209  142.6047  157.6955 C   0  0  0  0  0  0  0  0  0  0  0  0
  146.4796  142.7178  156.7575 N   0  0  0  0  0  0  0  0  0  0  0  0
  147.0042  141.9875  155.7092 C   0  0  0  0  0  0  0  0  0  0  0  0
  146.4846  141.7252  154.4213 C   0  0  0  0  0  0  0  0  0  0  0  0
  147.2168  140.9456  153.5016 C   0  0  0  0  0  0  0  0  0  0  0  0
  148.4754  140.4178  153.8558 C   0  0  0  0  0  0  0  0  0  0  0  0
  149.0101  140.6654  155.1347 C   0  0  0  0  0  0  0  0  0  0  0  0
  148.2750  141.4434  156.0490 C   0  0  0  0  0  0  0  0  0  0  0  0
  148.5075  141.8672  157.3534 N   0  0  0  0  0  0  0  0  0  0  0  0
  149.6869  141.5743  158.1520 C   0  0  0  0  0  0  0  0  0  0  0  0
  150.8452  142.5187  157.8098 C   0  0  0  0  0  0  0  0  0  0  0  0
  152.0556  141.9413  158.2781 O   0  0  0  0  0  0  0  0  0  0  0  0
  152.4434  142.2025  159.5749 C   0  0  0  0  0  0  0  0  0  0  0  0
  151.9847  143.4059  160.1501 C   0  0  0  0  0  0  0  0  0  0  0  0
  152.3333  143.7539  161.4693 C   0  0  0  0  0  0  0  0  0  0  0  0
  153.1485  142.8961  162.2310 C   0  0  0  0  0  0  0  0  0  0  0  0
  153.5779  143.3202  163.8475 Cl  0  0  0  0  0  0  0  0  0  0  0  0
  153.6124  141.6914  161.6705 C   0  0  0  0  0  0  0  0  0  0  0  0
  153.2636  141.3439  160.3506 C   0  0  0  0  0  0  0  0  0  0  0  0
  144.3196  142.9945  160.6769 H   0  0  0  0  0  0  0  0  0  0  0  0
  145.2148  143.5775  158.7411 H   0  0  0  0  0  0  0  0  0  0  0  0
  147.6882  144.2732  159.0014 H   0  0  0  0  0  0  0  0  0  0  0  0
  147.8727  142.7176  159.7819 H   0  0  0  0  0  0  0  0  0  0  0  0
  145.5219  142.1257  154.1401 H   0  0  0  0  0  0  0  0  0  0  0  0
  146.8113  140.7526  152.5193 H   0  0  0  0  0  0  0  0  0  0  0  0
  149.0301  139.8228  153.1453 H   0  0  0  0  0  0  0  0  0  0  0  0
  149.9737  140.2630  155.4092 H   0  0  0  0  0  0  0  0  0  0  0  0
  149.4363  141.6410  159.2105 H   0  0  0  0  0  0  0  0  0  0  0  0
  149.9807  140.5397  157.9722 H   0  0  0  0  0  0  0  0  0  0  0  0
  150.8911  142.6681  156.7298 H   0  0  0  0  0  0  0  0  0  0  0  0
  150.6836  143.4890  158.2822 H   0  0  0  0  0  0  0  0  0  0  0  0
  151.3591  144.0708  159.5729 H   0  0  0  0  0  0  0  0  0  0  0  0
  151.9743  144.6794  161.8953 H   0  0  0  0  0  0  0  0  0  0  0  0
  154.2377  141.0302  162.2522 H   0  0  0  0  0  0  0  0  0  0  0  0
  153.6390  140.4118  159.9567 H   0  0  0  0  0  0  0  0  0  0  0  0
  1  2  2  0  0  0  0
  2  3  1  0  0  0  0
  2 24  1  0  0  0  0
  3  4  1  0  0  0  0
  3 25  1  0  0  0  0
  4  5  1  0  0  0  0
  4 26  1  0  0  0  0
  4 27  1  0  0  0  0
  5 13  1  0  0  0  0
  5  6  2  0  0  0  0
  6  7  1  0  0  0  0
  7 12  2  0  0  0  0
  7  8  1  0  0  0  0
  8  9  2  0  0  0  0
  8 28  1  0  0  0  0
  9 10  1  0  0  0  0
  9 29  1  0  0  0  0
 10 11  2  0  0  0  0
 10 30  1  0  0  0  0
 11 12  1  0  0  0  0
 11 31  1  0  0  0  0
 12 13  1  0  0  0  0
 13 14  1  0  0  0  0
 14 15  1  0  0  0  0
 14 32  1  0  0  0  0
 14 33  1  0  0  0  0
 15 16  1  0  0  0  0
 15 34  1  0  0  0  0
 15 35  1  0  0  0  0
 16 17  1  0  0  0  0
 17 23  1  0  0  0  0
 17 18  2  0  0  0  0
 18 19  1  0  0  0  0
 18 36  1  0  0  0  0
 19 20  2  0  0  0  0
 19 37  1  0  0  0  0
 20 21  1  0  0  0  0
 20 22  1  0  0  0  0
 22 23  2  0  0  0  0
 22 38  1  0  0  0  0
 23 39  1  0  0  0  0
M  END
> <s_m_source_file>
AV-unprocessed.smi

> <i_m_source_file_index>
1851

> <i_lp_mmshare_version>
43012

> <i_f3d_flags>
0

> <s_epik_input>
Tz1bQ0hdW05IXVtDSDJdYyhuMSluKGMoYzEyKVtjSF1bY0hdW2NIXVtjSF0yKVtDSDJdW0NIMl1PYzNbY0hdW2NIXWMoQ2wpW2NIXVtjSF0z

> <s_epik_cmdline>
J2VwaWtfcHl0aG9uJywgJy1waCcsICc3LjAnLCAnLXRuJywgJzgnLCAnLW1hJywgJzIwMCcsICctbWV0YWxfYmluZGluZycsICctaW1hZScsICc8aW5maWxlLm1hZT4nLCAnLW9tYWUnLCAnPG91dGZpbGUubWFlPic=

> <r_lp_tautomer_probability>
1

> <r_epik_Ionization_Penalty>
0.0670201

> <r_epik_Ionization_Penalty_Charging>
0

> <r_epik_Ionization_Penalty_Neutral>
0.0670201

> <r_epik_State_Penalty>
0.0585513

> <r_epik_Charging_Adjusted_Penalty>
0.0585513

> <i_epik_Tot_Q>
0

> <i_epik_Tot_abs_Q>
0

> <r_epik_Metal_State_Penalty>
0.0525581

> <b_epik_Metal_Only>
0

> <s_lp_Force_Field>
OPLS_2005

> <r_lp_Energy>
12.626

> <b_lp_Chiralities_Consistent>
1

> <s_lp_Variant>
AV-unprocessed.smi:1851-1

> <Gold.Version>
5.8.1

> <Gold.Id.Protein>
6NUR|6NUR_protein|mol2

> <Gold.PLP.Fitness>
47.5919

> <Gold.PLP.PLP>
-47.4479

> <Gold.PLP.part.hbond>
-2.0000

> <Gold.PLP.part.metal>
0.0000

> <Gold.PLP.part.buried>
-4.1101

> <Gold.PLP.part.nonpolar>
-40.5137

> <Gold.PLP.part.repulsive>
0.2811

> <Gold.PLP.ligand.clash>
0.0000

> <Gold.PLP.ligand.torsion>
1.3494

> <Gold.PLP.Chemscore.Hbond>
0.9162

> <Gold.PLP.Chemscore.CHOScore>
0.0000

> <Gold.PLP.Chemscore.Metal>
0.0000

> <Gold.Chemscore.Hbonds>
donor molecule, donor type, donor heavy atom, donor atom, acceptor molecule, acceptor atom, score
      P1  H  6933  6944       L1     1  0.10
      P1  H  6934  6946       L1     1  0.72

> <Gold.PLP.Chemscore.Internal.Correction>
0.0944

> <Gold.Rescore>
     Score         DG    S(hbond)    S(metal)    S(lipo)     H(rot)  DE(clash)    DE(int)     intcor
     14.96     -17.30       0.95        0.00     126.76       2.42       1.09       1.24       ----

> <Gold.Chemscore.Fitness>
14.9614

> <Gold.Chemscore.DG>
-17.2993

> <Gold.Chemscore.ZeroCoef>
-5.4800

> <Gold.Chemscore.Hbond>
0.9534

> <Gold.Chemscore.Metal>
0.0000

> <Gold.Chemscore.Lipo>
126.7642

> <Gold.Chemscore.Internal_Hbond>
0.0000

> <Gold.Chemscore.DEClash>
1.0943

> <Gold.Chemscore.DEInternal>
1.2436

> <Gold.Chemscore.Rot>
2.4205

> <Gold.Chemscore.Internal.Correction>
   9.000000E+99

> <Gold.Chemscore.Hbonds>
donor molecule, donor type, donor heavy atom, donor atom, acceptor molecule, acceptor atom, score
      P1  H  6933  6944       L1     1  0.10
      P1  H  6934  6946       L1     1  0.21

> <Gold.Chemscore.Hbond.Weighted>
-3.1844

> <Gold.Chemscore.Metal.Weighted>
-0.0000

> <Gold.Chemscore.Lipo.Weighted>
-14.8314

> <Gold.Chemscore.Internal_Hbond.Weighted>
0.0000

> <Gold.Chemscore.DEClash.Weighted>
1.0943

> <Gold.Chemscore.DEInternal.Weighted>
1.2436

> <Gold.Chemscore.Rot.Weighted>
6.1965

> <Gold.Chemscore.Internal.Correction.Weighted>
   9.000000E+99

> <Gold.Protein.RotatedTorsions>
[ 6907 6896 6895 6894 ] final  111.83 input  -60.11 | X-H torsion
[ 7974 7965 7964 7962 ] final -112.05 input  175.53 | X-H torsion
[ 8008 7997 7996 7995 ] final  -60.48 input   59.86 | X-H torsion
[ 10167 10162 10161 10158 ] final  -80.28 input  -65.29 | X-H torsion
[ 10718 10713 10712 10709 ] final  -12.14 input   66.30 | X-H torsion
[ 10763 10752 10751 10750 ] final  -40.13 input  -60.55 | X-H torsion
[ 11005 11000 10999 10996 ] final   92.89 input  -57.11 | X-H torsion

> <Gold.Protein.ActiveResidues>
 VAL166  LYS551  ARG553  GLY616  TRP617  ASP618  TYR619  PRO620  LYS621  CYS622 
 ASP623  PHE694  ASN695  SER759  ASP760  ASP761  ALA762  ILE779  LEU786  VAL792 
 PHE793  MET794  SER795  GLU796  ALA797  LYS798  CYS799  TRP800  GLU811  SER814 

> <Gold.Protein.RotatedAtoms>
  152.4949  133.8601  159.7245 H   0  0  0  0  0  0  0  0  0  0  0  0  # atno 6907 bound_to 6896
  150.9115  133.6982  159.2860 H   0  0  0  0  0  0  0  0  0  0  0  0  # atno 6908 bound_to 6896
  151.4390  135.1022  159.9717 H   0  0  0  0  0  0  0  0  0  0  0  0  # atno 6909 bound_to 6896
  145.1487  140.8817  143.3659 H   0  0  0  0  0  0  0  0  0  0  0  0  # atno 7974 bound_to 7965
  154.4401  140.1038  156.6280 H   0  0  0  0  0  0  0  0  0  0  0  0  # atno 8008 bound_to 7997
  155.5635  140.3488  155.4478 H   0  0  0  0  0  0  0  0  0  0  0  0  # atno 8009 bound_to 7997
  156.0442  140.1289  157.0111 H   0  0  0  0  0  0  0  0  0  0  0  0  # atno 8010 bound_to 7997
  140.4517  143.2481  151.8479 H   0  0  0  0  0  0  0  0  0  0  0  0  # atno 10167 bound_to 10162
  156.6489  130.4949  149.6069 H   0  0  0  0  0  0  0  0  0  0  0  0  # atno 10718 bound_to 10713
  153.9409  135.6761  153.4744 H   0  0  0  0  0  0  0  0  0  0  0  0  # atno 10763 bound_to 10752
  153.0932  135.4864  154.8726 H   0  0  0  0  0  0  0  0  0  0  0  0  # atno 10764 bound_to 10752
  154.7377  135.3153  154.8740 H   0  0  0  0  0  0  0  0  0  0  0  0  # atno 10765 bound_to 10752
  139.8817  134.8759  156.3639 H   0  0  0  0  0  0  0  0  0  0  0  0  # atno 11005 bound_to 11000
  145.0454  139.3225  143.5956 LP  0  0  0  0  0  0  0  0  0  0  0  0  # atno 17320 bound_to 7965
  146.3497  139.9842  142.8692 LP  0  0  0  0  0  0  0  0  0  0  0  0  # atno 17321 bound_to 7965
  139.4797  144.5112  151.8930 LP  0  0  0  0  0  0  0  0  0  0  0  0  # atno 17342 bound_to 10162
  140.4199  144.2257  150.5887 LP  0  0  0  0  0  0  0  0  0  0  0  0  # atno 17343 bound_to 10162
  156.2100  130.6673  151.1259 LP  0  0  0  0  0  0  0  0  0  0  0  0  # atno 17370 bound_to 10713
  157.7147  131.0716  150.6370 LP  0  0  0  0  0  0  0  0  0  0  0  0  # atno 17371 bound_to 10713
  140.9510  133.7451  156.0272 LP  0  0  0  0  0  0  0  0  0  0  0  0  # atno 17394 bound_to 11000
  140.8105  134.3405  157.5413 LP  0  0  0  0  0  0  0  0  0  0  0  0  # atno 17395 bound_to 11000

$$$$
