AV-unprocessed.smi:2565|AV-procd|sdf|10068|dock4
  -GOLD-   2272014103D 1   1.00000     0.00000
 Structure written by MMmdl.
 25 26  0  0  0  0  0  0  0  0  2 V2000
  152.0953  144.5929  159.5481 C   0  0  0  0  0  0  0  0  0  0  0  0
  152.5367  143.2126  159.5258 N   0  0  0  0  0  0  0  0  0  0  0  0
  153.4179  142.6037  160.3335 C   0  0  0  0  0  0  0  0  0  0  0  0
  153.6184  141.3120  160.0764 N   0  0  0  0  0  0  0  0  0  0  0  0
  152.7957  141.0398  159.0022 N   0  0  0  0  0  0  0  0  0  0  0  0
  152.1850  142.1963  158.7110 C   0  0  0  0  0  0  0  0  0  0  0  0
  151.1729  142.3536  157.6142 C   0  0  2  0  0  0  0  0  0  0  0  0
  149.7441  142.5385  158.1612 C   0  0  0  0  0  0  0  0  0  0  0  0
  148.7778  142.5874  157.0465 N   0  3  0  0  0  0  0  0  0  0  0  0
  148.8942  141.3991  156.1781 C   0  0  0  0  0  0  0  0  0  0  0  0
  150.3465  141.2347  155.6967 C   0  0  0  0  0  0  0  0  0  0  0  0
  151.2215  141.1712  156.8184 O   0  0  0  0  0  0  0  0  0  0  0  0
  152.4993  145.1014  160.4241 H   0  0  0  0  0  0  0  0  0  0  0  0
  151.0064  144.6329  159.5881 H   0  0  0  0  0  0  0  0  0  0  0  0
  152.4427  145.1048  158.6505 H   0  0  0  0  0  0  0  0  0  0  0  0
  153.9250  143.1177  161.1371 H   0  0  0  0  0  0  0  0  0  0  0  0
  151.4511  143.2055  156.9914 H   0  0  0  0  0  0  0  0  0  0  0  0
  149.4800  141.7133  158.8243 H   0  0  0  0  0  0  0  0  0  0  0  0
  149.6694  143.4567  158.7444 H   0  0  0  0  0  0  0  0  0  0  0  0
  147.8395  142.6418  157.4171 H   0  0  0  0  0  0  0  0  0  0  0  0
  148.5794  140.5156  156.7354 H   0  0  0  0  0  0  0  0  0  0  0  0
  148.2176  141.5028  155.3297 H   0  0  0  0  0  0  0  0  0  0  0  0
  150.4484  140.3176  155.1163 H   0  0  0  0  0  0  0  0  0  0  0  0
  150.6360  142.0588  155.0426 H   0  0  0  0  0  0  0  0  0  0  0  0
  148.9616  143.4121  156.4930 H   0  0  0  0  0  0  0  0  0  0  0  0
  1  2  1  0  0  0  0
  1 13  1  0  0  0  0
  1 14  1  0  0  0  0
  1 15  1  0  0  0  0
  2  6  1  0  0  0  0
  2  3  1  0  0  0  0
  3  4  2  0  0  0  0
  3 16  1  0  0  0  0
  4  5  1  0  0  0  0
  5  6  2  0  0  0  0
  6  7  1  0  0  0  0
  7 12  1  0  0  0  0
  7  8  1  0  0  0  0
  7 17  1  0  0  0  0
  8  9  1  0  0  0  0
  8 18  1  0  0  0  0
  8 19  1  0  0  0  0
  9 10  1  0  0  0  0
  9 20  1  0  0  0  0
  9 25  1  0  0  0  0
 10 11  1  0  0  0  0
 10 21  1  0  0  0  0
 10 22  1  0  0  0  0
 11 12  1  0  0  0  0
 11 23  1  0  0  0  0
 11 24  1  0  0  0  0
M  CHG  1   9   1
M  END
> <s_m_source_file>
AV-unprocessed.smi

> <i_m_source_file_index>
2565

> <i_lp_mmshare_version>
43012

> <i_f3d_flags>
0

> <s_epik_input>
W0NIM11uMVtjSF1ubmMxW0NAQEhdMltDSDJdW05IXVtDSDJdW0NIMl1PMg==

> <s_epik_cmdline>
J2VwaWtfcHl0aG9uJywgJy1waCcsICc3LjAnLCAnLXRuJywgJzgnLCAnLW1hJywgJzIwMCcsICctbWV0YWxfYmluZGluZycsICctaW1hZScsICc8aW5maWxlLm1hZT4nLCAnLW9tYWUnLCAnPG91dGZpbGUubWFlPic=

> <r_lp_tautomer_probability>
1

> <r_epik_Ionization_Penalty>
0.12571

> <r_epik_Ionization_Penalty_Charging>
0.125708

> <r_epik_Ionization_Penalty_Neutral>
1.64918e-06

> <r_epik_State_Penalty>
0.115169

> <r_epik_Charging_Adjusted_Penalty>
0.240877

> <i_epik_Tot_Q>
1

> <i_epik_Tot_abs_Q>
1

> <r_epik_Metal_State_Penalty>
0.115216

> <b_epik_Metal_Only>
0

> <s_lp_Force_Field>
OPLS_2005

> <r_lp_Energy>
13.9295

> <b_lp_Chiralities_Consistent>
1

> <s_lp_Variant>
AV-unprocessed.smi:2565-1

> <Gold.Version>
5.8.1

> <Gold.Id.Protein>
6NUR|6NUR_protein|mol2

> <Gold.PLP.Fitness>
30.6938

> <Gold.PLP.PLP>
-25.1303

> <Gold.PLP.part.hbond>
-1.0000

> <Gold.PLP.part.metal>
0.0000

> <Gold.PLP.part.buried>
-3.7225

> <Gold.PLP.part.nonpolar>
-19.9631

> <Gold.PLP.part.repulsive>
0.0383

> <Gold.PLP.ligand.clash>
0.0000

> <Gold.PLP.ligand.torsion>
0.2202

> <Gold.PLP.Chemscore.Hbond>
2.0000

> <Gold.PLP.Chemscore.CHOScore>
0.0000

> <Gold.PLP.Chemscore.Metal>
0.0000

> <Gold.Chemscore.Hbonds>
donor molecule, donor type, donor heavy atom, donor atom, acceptor molecule, acceptor atom, score
      L1  H     9    25       P1  8028  2.00

> <Gold.PLP.Chemscore.Internal.Correction>
0.0039

> <Gold.Rescore>
     Score         DG    S(hbond)    S(metal)    S(lipo)     H(rot)  DE(clash)    DE(int)     intcor
     10.41     -10.46       0.99        0.00      36.13       1.00       0.00       0.05       ----

> <Gold.Chemscore.Fitness>
10.4118

> <Gold.Chemscore.DG>
-10.4582

> <Gold.Chemscore.ZeroCoef>
-5.4800

> <Gold.Chemscore.Hbond>
0.9914

> <Gold.Chemscore.Metal>
0.0000

> <Gold.Chemscore.Lipo>
36.1272

> <Gold.Chemscore.Internal_Hbond>
0.0000

> <Gold.Chemscore.DEClash>
0.0000

> <Gold.Chemscore.DEInternal>
0.0465

> <Gold.Chemscore.Rot>
1.0000

> <Gold.Chemscore.Internal.Correction>
   9.000000E+99

> <Gold.Chemscore.Hbonds>
donor molecule, donor type, donor heavy atom, donor atom, acceptor molecule, acceptor atom, score
      L1  H     9    25       P1  8028  0.91

> <Gold.Chemscore.Hbond.Weighted>
-3.3113

> <Gold.Chemscore.Metal.Weighted>
-0.0000

> <Gold.Chemscore.Lipo.Weighted>
-4.2269

> <Gold.Chemscore.Internal_Hbond.Weighted>
0.0000

> <Gold.Chemscore.DEClash.Weighted>
0.0000

> <Gold.Chemscore.DEInternal.Weighted>
0.0465

> <Gold.Chemscore.Rot.Weighted>
2.5600

> <Gold.Chemscore.Internal.Correction.Weighted>
   9.000000E+99

> <Gold.Protein.RotatedTorsions>
[ 6907 6896 6895 6894 ] final   59.89 input  -60.11 | X-H torsion
[ 7974 7965 7964 7962 ] final  121.00 input  175.53 | X-H torsion
[ 8008 7997 7996 7995 ] final  -52.32 input   59.86 | X-H torsion
[ 10167 10162 10161 10158 ] final   -0.76 input  -65.29 | X-H torsion
[ 10718 10713 10712 10709 ] final   33.45 input   66.30 | X-H torsion
[ 10763 10752 10751 10750 ] final   83.42 input  -60.55 | X-H torsion
[ 11005 11000 10999 10996 ] final  -96.09 input  -57.11 | X-H torsion

> <Gold.Protein.ActiveResidues>
 VAL166  LYS551  ARG553  GLY616  TRP617  ASP618  TYR619  PRO620  LYS621  CYS622 
 ASP623  PHE694  ASN695  SER759  ASP760  ASP761  ALA762  ILE779  LEU786  VAL792 
 PHE793  MET794  SER795  GLU796  ALA797  LYS798  CYS799  TRP800  GLU811  SER814 

> <Gold.Protein.RotatedAtoms>
  152.3955  134.6372  160.0090 H   0  0  0  0  0  0  0  0  0  0  0  0  # atno 6907 bound_to 6896
  151.6593  133.3312  159.3178 H   0  0  0  0  0  0  0  0  0  0  0  0  # atno 6908 bound_to 6896
  150.7863  134.6895  159.6533 H   0  0  0  0  0  0  0  0  0  0  0  0  # atno 6909 bound_to 6896
  145.1244  139.3367  143.4697 H   0  0  0  0  0  0  0  0  0  0  0  0  # atno 7974 bound_to 7965
  154.4104  140.1227  156.4972 H   0  0  0  0  0  0  0  0  0  0  0  0  # atno 8008 bound_to 7997
  155.6931  140.3495  155.4882 H   0  0  0  0  0  0  0  0  0  0  0  0  # atno 8009 bound_to 7997
  155.9451  140.1094  157.1013 H   0  0  0  0  0  0  0  0  0  0  0  0  # atno 8010 bound_to 7997
  140.6781  143.6856  150.8069 H   0  0  0  0  0  0  0  0  0  0  0  0  # atno 10167 bound_to 10162
  157.2980  130.7336  149.6649 H   0  0  0  0  0  0  0  0  0  0  0  0  # atno 10718 bound_to 10713
  153.1290  135.4692  154.9318 H   0  0  0  0  0  0  0  0  0  0  0  0  # atno 10763 bound_to 10752
  154.7646  135.3141  154.8313 H   0  0  0  0  0  0  0  0  0  0  0  0  # atno 10764 bound_to 10752
  153.8860  135.6889  153.4817 H   0  0  0  0  0  0  0  0  0  0  0  0  # atno 10765 bound_to 10752
  141.1422  133.8072  157.0523 H   0  0  0  0  0  0  0  0  0  0  0  0  # atno 11005 bound_to 11000
  146.3518  140.1217  142.8600 LP  0  0  0  0  0  0  0  0  0  0  0  0  # atno 17320 bound_to 7965
  145.0704  140.9151  143.4885 LP  0  0  0  0  0  0  0  0  0  0  0  0  # atno 17321 bound_to 7965
  140.0552  143.5209  152.2654 LP  0  0  0  0  0  0  0  0  0  0  0  0  # atno 17342 bound_to 10162
  139.6086  144.7603  151.3004 LP  0  0  0  0  0  0  0  0  0  0  0  0  # atno 17343 bound_to 10162
  155.9670  130.4289  150.4807 LP  0  0  0  0  0  0  0  0  0  0  0  0  # atno 17370 bound_to 10713
  157.2782  131.0601  151.2215 LP  0  0  0  0  0  0  0  0  0  0  0  0  # atno 17371 bound_to 10713
  140.0624  134.9747  157.1327 LP  0  0  0  0  0  0  0  0  0  0  0  0  # atno 17394 bound_to 11000
  140.3829  134.2267  155.7170 LP  0  0  0  0  0  0  0  0  0  0  0  0  # atno 17395 bound_to 11000

$$$$
