AV-unprocessed.smi:2233|AV-procd|sdf|9041|dock10
  -GOLD-   2272012253D 1   1.00000     0.00000
 Structure written by MMmdl.
 42 43  0  0  0  0  0  0  0  0  1 V2000
  144.6455  146.8027  157.7466 C   0  0  0  0  0  0  0  0  0  0  0  0
  144.1169  145.9528  157.0472 C   0  0  0  0  0  0  0  0  0  0  0  0
  143.4938  144.9263  156.1931 C   0  0  0  0  0  0  0  0  0  0  0  0
  144.3041  144.5559  154.9372 C   0  0  0  0  0  0  0  0  0  0  0  0
  145.3080  143.4076  155.1470 C   0  0  0  0  0  0  0  0  0  0  0  0
  146.1089  143.0908  153.8710 C   0  0  0  0  0  0  0  0  0  0  0  0
  147.1169  141.9504  154.0511 C   0  0  0  0  0  0  0  0  0  0  0  0
  146.9267  140.8630  153.5065 O   0  0  0  0  0  0  0  0  0  0  0  0
  148.1866  142.2435  154.8116 N   0  0  0  0  0  0  0  0  0  0  0  0
  149.2812  141.4055  155.1687 C   0  0  0  0  0  0  0  0  0  0  0  0
  149.8348  140.4398  154.2915 C   0  0  0  0  0  0  0  0  0  0  0  0
  150.8542  139.6222  154.6283 N   0  0  0  0  0  0  0  0  0  0  0  0
  151.3674  139.7299  155.8701 C   0  0  0  0  0  0  0  0  0  0  0  0
  150.8860  140.6415  156.8284 C   0  0  0  0  0  0  0  0  0  0  0  0
  149.8159  141.4949  156.4775 C   0  0  0  0  0  0  0  0  0  0  0  0
  149.2986  142.4240  157.3952 N   0  0  0  0  0  0  0  0  0  0  0  0
  148.0360  142.0316  158.0076 C   0  0  0  0  0  0  0  0  0  0  0  0
  147.4933  143.1876  158.8652 C   0  0  0  0  0  0  0  0  0  0  0  0
  148.4712  143.5621  159.8321 O   0  0  0  0  0  0  0  0  0  0  0  0
  149.6816  144.0095  159.2264 C   0  0  0  0  0  0  0  0  0  0  0  0
  150.2804  142.8804  158.3695 C   0  0  0  0  0  0  0  0  0  0  0  0
  145.1118  147.5443  158.3557 H   0  0  0  0  0  0  0  0  0  0  0  0
  143.3230  144.0416  156.8070 H   0  0  0  0  0  0  0  0  0  0  0  0
  142.5125  145.3015  155.9015 H   0  0  0  0  0  0  0  0  0  0  0  0
  143.6065  144.2743  154.1476 H   0  0  0  0  0  0  0  0  0  0  0  0
  144.8309  145.4381  154.5704 H   0  0  0  0  0  0  0  0  0  0  0  0
  145.9974  143.6661  155.9517 H   0  0  0  0  0  0  0  0  0  0  0  0
  144.7708  142.5158  155.4732 H   0  0  0  0  0  0  0  0  0  0  0  0
  145.4201  142.8338  153.0648 H   0  0  0  0  0  0  0  0  0  0  0  0
  146.6535  143.9780  153.5459 H   0  0  0  0  0  0  0  0  0  0  0  0
  148.2650  143.2042  155.1132 H   0  0  0  0  0  0  0  0  0  0  0  0
  149.4471  140.2867  153.2963 H   0  0  0  0  0  0  0  0  0  0  0  0
  152.1842  139.0655  156.1104 H   0  0  0  0  0  0  0  0  0  0  0  0
  151.3357  140.6815  157.8095 H   0  0  0  0  0  0  0  0  0  0  0  0
  147.3153  141.7668  157.2331 H   0  0  0  0  0  0  0  0  0  0  0  0
  148.1817  141.1488  158.6314 H   0  0  0  0  0  0  0  0  0  0  0  0
  147.2348  144.0457  158.2426 H   0  0  0  0  0  0  0  0  0  0  0  0
  146.5828  142.8802  159.3796 H   0  0  0  0  0  0  0  0  0  0  0  0
  149.4903  144.8967  158.6205 H   0  0  0  0  0  0  0  0  0  0  0  0
  150.3833  144.3018  160.0076 H   0  0  0  0  0  0  0  0  0  0  0  0
  150.5791  142.0478  159.0079 H   0  0  0  0  0  0  0  0  0  0  0  0
  151.1766  143.2335  157.8576 H   0  0  0  0  0  0  0  0  0  0  0  0
  1  2  3  0  0  0  0
  1 22  1  0  0  0  0
  2  3  1  0  0  0  0
  3  4  1  0  0  0  0
  3 23  1  0  0  0  0
  3 24  1  0  0  0  0
  4  5  1  0  0  0  0
  4 25  1  0  0  0  0
  4 26  1  0  0  0  0
  5  6  1  0  0  0  0
  5 27  1  0  0  0  0
  5 28  1  0  0  0  0
  6  7  1  0  0  0  0
  6 29  1  0  0  0  0
  6 30  1  0  0  0  0
  7  8  2  0  0  0  0
  7  9  1  0  0  0  0
  9 10  1  0  0  0  0
  9 31  1  0  0  0  0
 10 15  1  0  0  0  0
 10 11  2  0  0  0  0
 11 12  1  0  0  0  0
 11 32  1  0  0  0  0
 12 13  2  0  0  0  0
 13 14  1  0  0  0  0
 13 33  1  0  0  0  0
 14 15  2  0  0  0  0
 14 34  1  0  0  0  0
 15 16  1  0  0  0  0
 16 21  1  0  0  0  0
 16 17  1  0  0  0  0
 17 18  1  0  0  0  0
 17 35  1  0  0  0  0
 17 36  1  0  0  0  0
 18 19  1  0  0  0  0
 18 37  1  0  0  0  0
 18 38  1  0  0  0  0
 19 20  1  0  0  0  0
 20 21  1  0  0  0  0
 20 39  1  0  0  0  0
 20 40  1  0  0  0  0
 21 41  1  0  0  0  0
 21 42  1  0  0  0  0
M  END
> <s_m_source_file>
AV-unprocessed.smi

> <i_m_source_file_index>
2233

> <i_lp_mmshare_version>
43012

> <i_f3d_flags>
0

> <s_epik_input>
W0NIXSNDW0NIMl1bQ0gyXVtDSDJdW0NIMl1DKD1PKVtOSF1jMVtjSF1uW2NIXVtjSF1jMU4yW0NIMl1bQ0gyXU9bQ0gyXVtDSDJdMg==

> <s_epik_cmdline>
J2VwaWtfcHl0aG9uJywgJy1waCcsICc3LjAnLCAnLXRuJywgJzgnLCAnLW1hJywgJzIwMCcsICctbWV0YWxfYmluZGluZycsICctaW1hZScsICc8aW5maWxlLm1hZT4nLCAnLW9tYWUnLCAnPG91dGZpbGUubWFlPic=

> <r_lp_tautomer_probability>
1

> <r_epik_Ionization_Penalty>
0.8765

> <r_epik_Ionization_Penalty_Charging>
0

> <r_epik_Ionization_Penalty_Neutral>
0.8765

> <r_epik_State_Penalty>
0.914306

> <r_epik_Charging_Adjusted_Penalty>
0.914306

> <i_epik_Tot_Q>
0

> <i_epik_Tot_abs_Q>
0

> <r_epik_Metal_State_Penalty>
0.361009

> <b_epik_Metal_Only>
0

> <s_lp_Force_Field>
OPLS_2005

> <r_lp_Energy>
23.7364

> <b_lp_Chiralities_Consistent>
1

> <s_lp_Variant>
AV-unprocessed.smi:2233-2

> <Gold.Version>
5.8.1

> <Gold.Id.Protein>
6NUR|6NUR_protein|mol2

> <Gold.PLP.Fitness>
41.4868

> <Gold.PLP.PLP>
-35.4697

> <Gold.PLP.part.hbond>
-3.0000

> <Gold.PLP.part.metal>
0.0000

> <Gold.PLP.part.buried>
-4.1869

> <Gold.PLP.part.nonpolar>
-29.7021

> <Gold.PLP.part.repulsive>
2.0901

> <Gold.PLP.ligand.clash>
0.0000

> <Gold.PLP.ligand.torsion>
1.1706

> <Gold.PLP.Chemscore.Hbond>
1.7360

> <Gold.PLP.Chemscore.CHOScore>
1.0000

> <Gold.PLP.Chemscore.Metal>
0.0000

> <Gold.Chemscore.Hbonds>
donor molecule, donor type, donor heavy atom, donor atom, acceptor molecule, acceptor atom, score
      L1  H     9    31       P1  8028  1.00
      P1  H  6933  6944       L1    19  0.74
      L1  C    11    32       P1  7957  1.00

> <Gold.PLP.Chemscore.Internal.Correction>
0.1502

> <Gold.Rescore>
     Score         DG    S(hbond)    S(metal)    S(lipo)     H(rot)  DE(clash)    DE(int)     intcor
     13.63     -15.58       1.62        0.00      72.80       1.49       0.06       1.90       ----

> <Gold.Chemscore.Fitness>
13.6271

> <Gold.Chemscore.DG>
-15.5837

> <Gold.Chemscore.ZeroCoef>
-5.4800

> <Gold.Chemscore.Hbond>
1.6156

> <Gold.Chemscore.Metal>
0.0000

> <Gold.Chemscore.Lipo>
72.7975

> <Gold.Chemscore.Internal_Hbond>
0.0000

> <Gold.Chemscore.DEClash>
0.0553

> <Gold.Chemscore.DEInternal>
1.9013

> <Gold.Chemscore.Rot>
1.4882

> <Gold.Chemscore.Internal.Correction>
   9.000000E+99

> <Gold.Chemscore.Hbonds>
donor molecule, donor type, donor heavy atom, donor atom, acceptor molecule, acceptor atom, score
      L1  H     9    31       P1  8028  0.98
      P1  H  6933  6944       L1    19  0.62

> <Gold.Chemscore.Hbond.Weighted>
-5.3962

> <Gold.Chemscore.Metal.Weighted>
-0.0000

> <Gold.Chemscore.Lipo.Weighted>
-8.5173

> <Gold.Chemscore.Internal_Hbond.Weighted>
0.0000

> <Gold.Chemscore.DEClash.Weighted>
0.0553

> <Gold.Chemscore.DEInternal.Weighted>
1.9013

> <Gold.Chemscore.Rot.Weighted>
3.8099

> <Gold.Chemscore.Internal.Correction.Weighted>
   9.000000E+99

> <Gold.Protein.RotatedTorsions>
[ 6907 6896 6895 6894 ] final   55.81 input  -60.11 | X-H torsion
[ 7974 7965 7964 7962 ] final  107.19 input  175.53 | X-H torsion
[ 8008 7997 7996 7995 ] final  135.13 input   59.86 | X-H torsion
[ 10167 10162 10161 10158 ] final   89.07 input  -65.29 | X-H torsion
[ 10718 10713 10712 10709 ] final -132.17 input   66.30 | X-H torsion
[ 10763 10752 10751 10750 ] final -104.29 input  -60.55 | X-H torsion
[ 11005 11000 10999 10996 ] final  -95.75 input  -57.11 | X-H torsion

> <Gold.Protein.ActiveResidues>
 VAL166  LYS551  ARG553  GLY616  TRP617  ASP618  TYR619  PRO620  LYS621  CYS622 
 ASP623  PHE694  ASN695  SER759  ASP760  ASP761  ALA762  ILE779  LEU786  VAL792 
 PHE793  MET794  SER795  GLU796  ALA797  LYS798  CYS799  TRP800  GLU811  SER814 

> <Gold.Protein.RotatedAtoms>
  152.3575  134.6919  160.0217 H   0  0  0  0  0  0  0  0  0  0  0  0  # atno 6907 bound_to 6896
  151.7253  133.3310  159.3334 H   0  0  0  0  0  0  0  0  0  0  0  0  # atno 6908 bound_to 6896
  150.7582  134.6345  159.6249 H   0  0  0  0  0  0  0  0  0  0  0  0  # atno 6909 bound_to 6896
  145.2968  139.2582  143.3835 H   0  0  0  0  0  0  0  0  0  0  0  0  # atno 7974 bound_to 7965
  156.3002  140.2478  156.3531 H   0  0  0  0  0  0  0  0  0  0  0  0  # atno 8008 bound_to 7997
  154.8947  140.0408  157.1878 H   0  0  0  0  0  0  0  0  0  0  0  0  # atno 8009 bound_to 7997
  154.8561  140.2913  155.5572 H   0  0  0  0  0  0  0  0  0  0  0  0  # atno 8010 bound_to 7997
  139.8610  144.6544  150.9059 H   0  0  0  0  0  0  0  0  0  0  0  0  # atno 10167 bound_to 10162
  156.2319  130.7042  151.0867 H   0  0  0  0  0  0  0  0  0  0  0  0  # atno 10718 bound_to 10713
  154.7868  135.4792  153.9963 H   0  0  0  0  0  0  0  0  0  0  0  0  # atno 10763 bound_to 10752
  153.1571  135.6802  153.8803 H   0  0  0  0  0  0  0  0  0  0  0  0  # atno 10764 bound_to 10752
  153.8429  135.3177  155.3405 H   0  0  0  0  0  0  0  0  0  0  0  0  # atno 10765 bound_to 10752
  141.1432  133.8048  157.0477 H   0  0  0  0  0  0  0  0  0  0  0  0  # atno 11005 bound_to 11000
  146.3166  140.3473  142.8653 LP  0  0  0  0  0  0  0  0  0  0  0  0  # atno 17320 bound_to 7965
  144.9127  140.7776  143.5798 LP  0  0  0  0  0  0  0  0  0  0  0  0  # atno 17321 bound_to 7965
  140.7775  143.3744  151.1589 LP  0  0  0  0  0  0  0  0  0  0  0  0  # atno 17342 bound_to 10162
  139.7374  143.8978  152.3039 LP  0  0  0  0  0  0  0  0  0  0  0  0  # atno 17343 bound_to 10162
  157.7137  131.0721  150.6408 LP  0  0  0  0  0  0  0  0  0  0  0  0  # atno 17370 bound_to 10713
  156.6476  130.4476  149.5730 LP  0  0  0  0  0  0  0  0  0  0  0  0  # atno 17371 bound_to 10713
  140.0652  134.9733  157.1373 LP  0  0  0  0  0  0  0  0  0  0  0  0  # atno 17394 bound_to 11000
  140.3791  134.2307  155.7172 LP  0  0  0  0  0  0  0  0  0  0  0  0  # atno 17395 bound_to 11000

$$$$
