AV-unprocessed.smi:2876|AV-procd|sdf|11042|dock2
  -GOLD-   2272015503D 1   1.00000     0.00000
 Structure written by MMmdl.
 25 26  0  0  0  0  0  0  0  0  2 V2000
  151.9634  137.3117  155.0912 O   0  0  0  0  0  0  0  0  0  0  0  0
  152.3972  138.4723  155.2568 C   0  0  0  0  0  0  0  0  0  0  0  0
  153.5973  138.7540  155.0358 O   0  5  0  0  0  0  0  0  0  0  0  0
  151.4760  139.5733  155.7318 C   0  0  0  0  0  0  0  0  0  0  0  0
  151.9968  140.4318  156.6440 N   0  0  0  0  0  0  0  0  0  0  0  0
  151.2232  141.4212  157.0970 C   0  0  0  0  0  0  0  0  0  0  0  0
  151.7694  142.2837  158.0288 N   0  0  0  0  0  0  0  0  0  0  0  0
  151.1707  143.6095  158.1141 C   0  0  0  0  0  0  0  0  0  0  0  0
  152.0558  144.5416  158.9596 C   0  0  0  0  0  0  0  0  0  0  0  0
  152.2708  143.9637  160.2436 O   0  0  0  0  0  0  0  0  0  0  0  0
  152.9275  142.7027  160.1567 C   0  0  0  0  0  0  0  0  0  0  0  0
  152.0630  141.7247  159.3422 C   0  0  0  0  0  0  0  0  0  0  0  0
  149.9622  141.6649  156.7422 N   0  0  0  0  0  0  0  0  0  0  0  0
  149.4191  140.8273  155.8354 C   0  0  0  0  0  0  0  0  0  0  0  0
  150.1329  139.7445  155.2822 C   0  0  0  0  0  0  0  0  0  0  0  0
  149.3312  138.7348  154.1262 Cl  0  0  0  0  0  0  0  0  0  0  0  0
  151.0418  144.0217  157.1125 H   0  0  0  0  0  0  0  0  0  0  0  0
  150.1777  143.5295  158.5590 H   0  0  0  0  0  0  0  0  0  0  0  0
  153.0119  144.7231  158.4660 H   0  0  0  0  0  0  0  0  0  0  0  0
  151.5717  145.5104  159.0829 H   0  0  0  0  0  0  0  0  0  0  0  0
  153.9116  142.8239  159.7012 H   0  0  0  0  0  0  0  0  0  0  0  0
  153.0874  142.3154  161.1630 H   0  0  0  0  0  0  0  0  0  0  0  0
  151.1283  141.5233  159.8673 H   0  0  0  0  0  0  0  0  0  0  0  0
  152.5807  140.7712  159.2299 H   0  0  0  0  0  0  0  0  0  0  0  0
  148.3972  141.0247  155.5469 H   0  0  0  0  0  0  0  0  0  0  0  0
  1  2  2  0  0  0  0
  2  3  1  0  0  0  0
  2  4  1  0  0  0  0
  4 15  1  0  0  0  0
  4  5  2  0  0  0  0
  5  6  1  0  0  0  0
  6  7  1  0  0  0  0
  6 13  2  0  0  0  0
  7 12  1  0  0  0  0
  7  8  1  0  0  0  0
  8  9  1  0  0  0  0
  8 17  1  0  0  0  0
  8 18  1  0  0  0  0
  9 10  1  0  0  0  0
  9 19  1  0  0  0  0
  9 20  1  0  0  0  0
 10 11  1  0  0  0  0
 11 12  1  0  0  0  0
 11 21  1  0  0  0  0
 11 22  1  0  0  0  0
 12 23  1  0  0  0  0
 12 24  1  0  0  0  0
 13 14  1  0  0  0  0
 14 15  2  0  0  0  0
 14 25  1  0  0  0  0
 15 16  1  0  0  0  0
M  CHG  1   3  -1
M  END
> <s_m_source_file>
AV-unprocessed.smi

> <i_m_source_file_index>
2876

> <i_lp_mmshare_version>
43012

> <i_f3d_flags>
0

> <s_epik_input>
Tz1DKFtPSF0pYzFuYyhuW2NIXWMxQ2wpTjJbQ0gyXVtDSDJdT1tDSDJdW0NIMl0y

> <s_epik_cmdline>
J2VwaWtfcHl0aG9uJywgJy1waCcsICc3LjAnLCAnLXRuJywgJzgnLCAnLW1hJywgJzIwMCcsICctbWV0YWxfYmluZGluZycsICctaW1hZScsICc8aW5maWxlLm1hZT4nLCAnLW9tYWUnLCAnPG91dGZpbGUubWFlPic=

> <r_lp_tautomer_probability>
1

> <r_epik_Ionization_Penalty>
2.42258e-06

> <r_epik_Ionization_Penalty_Charging>
2.2596e-06

> <r_epik_Ionization_Penalty_Neutral>
1.62982e-07

> <r_epik_State_Penalty>
-0

> <r_epik_Charging_Adjusted_Penalty>
2.2596e-06

> <i_epik_Tot_Q>
-1

> <i_epik_Tot_abs_Q>
1

> <r_epik_Metal_State_Penalty>
-0

> <b_epik_Metal_Only>
0

> <s_lp_Force_Field>
OPLS_2005

> <r_lp_Energy>
19.4651

> <b_lp_Chiralities_Consistent>
1

> <s_lp_Variant>
AV-unprocessed.smi:2876-1

> <Gold.Version>
5.8.1

> <Gold.Id.Protein>
6NUR|6NUR_protein|mol2

> <Gold.PLP.Fitness>
40.3801

> <Gold.PLP.PLP>
-31.2430

> <Gold.PLP.part.hbond>
-2.2579

> <Gold.PLP.part.metal>
0.0000

> <Gold.PLP.part.buried>
-4.6520

> <Gold.PLP.part.nonpolar>
-25.2803

> <Gold.PLP.part.repulsive>
0.2523

> <Gold.PLP.ligand.clash>
0.0000

> <Gold.PLP.ligand.torsion>
1.0309

> <Gold.PLP.Chemscore.Hbond>
3.6480

> <Gold.PLP.Chemscore.CHOScore>
0.0000

> <Gold.PLP.Chemscore.Metal>
0.0000

> <Gold.Chemscore.Hbonds>
donor molecule, donor type, donor heavy atom, donor atom, acceptor molecule, acceptor atom, score
      P1  H  7997  8008       L1     3  1.86
      P1  H 10752 10763       L1     1  1.79

> <Gold.PLP.Chemscore.Internal.Correction>
0.2549

> <Gold.Rescore>
     Score         DG    S(hbond)    S(metal)    S(lipo)     H(rot)  DE(clash)    DE(int)     intcor
     16.05     -16.96       1.76        0.00      69.69       1.00       0.03       0.87       ----

> <Gold.Chemscore.Fitness>
16.0510

> <Gold.Chemscore.DG>
-16.9566

> <Gold.Chemscore.ZeroCoef>
-5.4800

> <Gold.Chemscore.Hbond>
1.7615

> <Gold.Chemscore.Metal>
0.0000

> <Gold.Chemscore.Lipo>
69.6855

> <Gold.Chemscore.Internal_Hbond>
0.0000

> <Gold.Chemscore.DEClash>
0.0348

> <Gold.Chemscore.DEInternal>
0.8708

> <Gold.Chemscore.Rot>
1.0000

> <Gold.Chemscore.Internal.Correction>
   9.000000E+99

> <Gold.Chemscore.Hbonds>
donor molecule, donor type, donor heavy atom, donor atom, acceptor molecule, acceptor atom, score
      P1  H  7997  8008       L1     3  0.90
      P1  H 10752 10763       L1     1  0.82

> <Gold.Chemscore.Hbond.Weighted>
-5.8834

> <Gold.Chemscore.Metal.Weighted>
-0.0000

> <Gold.Chemscore.Lipo.Weighted>
-8.1532

> <Gold.Chemscore.Internal_Hbond.Weighted>
0.0000

> <Gold.Chemscore.DEClash.Weighted>
0.0348

> <Gold.Chemscore.DEInternal.Weighted>
0.8708

> <Gold.Chemscore.Rot.Weighted>
2.5600

> <Gold.Chemscore.Internal.Correction.Weighted>
   9.000000E+99

> <Gold.Protein.RotatedTorsions>
[ 6907 6896 6895 6894 ] final -116.94 input  -60.11 | X-H torsion
[ 7974 7965 7964 7962 ] final  116.03 input  175.53 | X-H torsion
[ 8008 7997 7996 7995 ] final  -17.39 input   59.86 | X-H torsion
[ 10167 10162 10161 10158 ] final  100.77 input  -65.29 | X-H torsion
[ 10718 10713 10712 10709 ] final   12.02 input   66.30 | X-H torsion
[ 10763 10752 10751 10750 ] final   58.90 input  -60.55 | X-H torsion
[ 11005 11000 10999 10996 ] final   49.25 input  -57.11 | X-H torsion

> <Gold.Protein.ActiveResidues>
 VAL166  LYS551  ARG553  GLY616  TRP617  ASP618  TYR619  PRO620  LYS621  CYS622 
 ASP623  PHE694  ASN695  SER759  ASP760  ASP761  ALA762  ILE779  LEU786  VAL792 
 PHE793  MET794  SER795  GLU796  ALA797  LYS798  CYS799  TRP800  GLU811  SER814 

> <Gold.Protein.RotatedAtoms>
  150.8096  133.8446  159.3188 H   0  0  0  0  0  0  0  0  0  0  0  0  # atno 6907 bound_to 6896
  151.6235  135.1028  160.0116 H   0  0  0  0  0  0  0  0  0  0  0  0  # atno 6908 bound_to 6896
  152.4188  133.7042  159.6498 H   0  0  0  0  0  0  0  0  0  0  0  0  # atno 6909 bound_to 6896
  145.1846  139.3032  143.4400 H   0  0  0  0  0  0  0  0  0  0  0  0  # atno 7974 bound_to 7965
  154.4981  140.2144  155.9403 H   0  0  0  0  0  0  0  0  0  0  0  0  # atno 8008 bound_to 7997
  156.1398  140.3182  155.8445 H   0  0  0  0  0  0  0  0  0  0  0  0  # atno 8009 bound_to 7997
  155.4142  140.0492  157.3020 H   0  0  0  0  0  0  0  0  0  0  0  0  # atno 8010 bound_to 7997
  139.7497  144.6987  151.0450 H   0  0  0  0  0  0  0  0  0  0  0  0  # atno 10167 bound_to 10162
  157.0040  130.6091  149.5700 H   0  0  0  0  0  0  0  0  0  0  0  0  # atno 10718 bound_to 10713
  152.9881  135.5590  154.5627 H   0  0  0  0  0  0  0  0  0  0  0  0  # atno 10763 bound_to 10752
  154.5042  135.2799  155.1397 H   0  0  0  0  0  0  0  0  0  0  0  0  # atno 10764 bound_to 10752
  154.2815  135.6344  153.5402 H   0  0  0  0  0  0  0  0  0  0  0  0  # atno 10765 bound_to 10752
  140.1119  134.4943  155.8670 H   0  0  0  0  0  0  0  0  0  0  0  0  # atno 11005 bound_to 11000
  146.3447  140.2038  142.8589 LP  0  0  0  0  0  0  0  0  0  0  0  0  # atno 17320 bound_to 7965
  145.0102  140.8707  143.5229 LP  0  0  0  0  0  0  0  0  0  0  0  0  # atno 17321 bound_to 7965
  140.7796  143.4823  151.0001 LP  0  0  0  0  0  0  0  0  0  0  0  0  # atno 17342 bound_to 10162
  139.8511  143.7437  152.3178 LP  0  0  0  0  0  0  0  0  0  0  0  0  # atno 17343 bound_to 10162
  156.0160  130.5254  150.8137 LP  0  0  0  0  0  0  0  0  0  0  0  0  # atno 17370 bound_to 10713
  157.5369  131.0939  150.9880 LP  0  0  0  0  0  0  0  0  0  0  0  0  # atno 17371 bound_to 10713
  141.2132  133.6730  156.6722 LP  0  0  0  0  0  0  0  0  0  0  0  0  # atno 17394 bound_to 11000
  140.3079  134.8110  157.4152 LP  0  0  0  0  0  0  0  0  0  0  0  0  # atno 17395 bound_to 11000

$$$$
