AV-unprocessed.smi:278|AV-procd|sdf|2088|dock2
  -GOLD-   2262021363D 1   1.00000     0.00000
 Structure written by MMmdl.
 50 54  0  0  0  0  0  0  0  0  1 V2000
  149.7587  143.8473  160.1376 O   0  0  0  0  0  0  0  0  0  0  0  0
  151.1506  144.3212  160.0857 S   0  0  0  0  0  0  0  0  0  0  0  0
  151.4551  145.7600  160.0940 O   0  0  0  0  0  0  0  0  0  0  0  0
  152.1119  143.5005  161.4160 C   0  0  0  0  0  0  0  0  0  0  0  0
  153.2922  142.8030  160.7264 C   0  0  0  0  0  0  0  0  0  0  0  0
  152.8838  142.4178  159.2926 C   0  0  1  0  0  0  0  0  0  0  0  0
  151.9482  141.2064  159.2183 C   0  0  0  0  0  0  0  0  0  0  0  0
  151.1316  141.4204  158.0307 N   0  0  0  0  0  0  0  0  0  0  0  0
  150.0493  140.6376  157.7789 C   0  0  0  0  0  0  0  0  0  0  0  0
  149.5987  139.8054  158.7559 N   0  0  0  0  0  0  0  0  0  0  0  0
  148.5286  139.0322  158.5521 C   0  0  0  0  0  0  0  0  0  0  0  0
  147.7711  138.9288  157.4595 N   0  0  0  0  0  0  0  0  0  0  0  0
  148.2260  139.7444  156.4667 C   0  0  0  0  0  0  0  0  0  0  0  0
  149.3485  140.6192  156.5362 C   0  0  0  0  0  0  0  0  0  0  0  0
  149.5041  141.2739  155.3182 N   0  0  0  0  0  0  0  0  0  0  0  0
  148.5253  140.8257  154.5811 C   0  0  0  0  0  0  0  0  0  0  0  0
  147.7046  139.9094  155.1964 N   0  0  0  0  0  0  0  0  0  0  0  0
  146.5389  139.2594  154.6242 C   0  0  0  0  0  0  0  0  0  0  0  0
  146.9207  138.1699  153.6024 C   0  0  1  0  0  0  0  0  0  0  0  0
  147.7883  137.2388  154.2217 O   0  0  0  0  0  0  0  0  0  0  0  0
  145.6912  137.4214  153.0558 C   0  0  2  0  0  0  0  0  0  0  0  0
  145.1170  136.3699  154.0085 C   0  0  0  0  0  0  0  0  0  0  0  0
  144.4183  135.4351  153.0490 C   0  0  0  0  0  0  0  0  0  0  0  0
  145.3928  135.4163  151.8762 C   0  0  0  0  0  0  0  0  0  0  0  0
  146.0355  136.6886  151.8810 O   0  0  0  0  0  0  0  0  0  0  0  0
  151.1069  142.8361  157.6839 C   0  0  0  0  0  0  0  0  0  0  0  0
  152.0440  143.5371  158.6767 C   0  0  1  0  0  0  0  0  0  0  0  0
  153.7619  142.2269  158.6738 H   0  0  0  0  0  0  0  0  0  0  0  0
  152.6598  144.3008  158.2010 H   0  0  0  0  0  0  0  0  0  0  0  0
  152.4254  144.2322  162.1609 H   0  0  0  0  0  0  0  0  0  0  0  0
  151.4604  142.7726  161.9001 H   0  0  0  0  0  0  0  0  0  0  0  0
  154.1261  143.5037  160.6713 H   0  0  0  0  0  0  0  0  0  0  0  0
  153.6416  141.9419  161.2969 H   0  0  0  0  0  0  0  0  0  0  0  0
  152.5082  140.2728  159.1527 H   0  0  0  0  0  0  0  0  0  0  0  0
  151.3041  141.1555  160.0973 H   0  0  0  0  0  0  0  0  0  0  0  0
  148.2359  138.4098  159.3849 H   0  0  0  0  0  0  0  0  0  0  0  0
  148.3698  141.1587  153.5650 H   0  0  0  0  0  0  0  0  0  0  0  0
  145.9429  138.8340  155.4329 H   0  0  0  0  0  0  0  0  0  0  0  0
  145.9226  140.0252  154.1518 H   0  0  0  0  0  0  0  0  0  0  0  0
  147.4586  138.6278  152.7712 H   0  0  0  0  0  0  0  0  0  0  0  0
  147.9529  136.5347  153.6132 H   0  0  0  0  0  0  0  0  0  0  0  0
  144.9044  138.1283  152.7867 H   0  0  0  0  0  0  0  0  0  0  0  0
  145.9176  135.8402  154.5275 H   0  0  0  0  0  0  0  0  0  0  0  0
  144.4466  136.7937  154.7565 H   0  0  0  0  0  0  0  0  0  0  0  0
  144.2337  134.4456  153.4681 H   0  0  0  0  0  0  0  0  0  0  0  0
  143.4630  135.8615  152.7398 H   0  0  0  0  0  0  0  0  0  0  0  0
  146.1512  134.6465  152.0240 H   0  0  0  0  0  0  0  0  0  0  0  0
  144.8957  135.2240  150.9251 H   0  0  0  0  0  0  0  0  0  0  0  0
  151.4872  142.9468  156.6682 H   0  0  0  0  0  0  0  0  0  0  0  0
  150.1020  143.2576  157.7094 H   0  0  0  0  0  0  0  0  0  0  0  0
  1  2  2  0  0  0  0
  2 27  1  0  0  0  0
  2  3  2  0  0  0  0
  2  4  1  0  0  0  0
  4  5  1  0  0  0  0
  4 30  1  0  0  0  0
  4 31  1  0  0  0  0
  5  6  1  0  0  0  0
  5 32  1  0  0  0  0
  5 33  1  0  0  0  0
  6 28  1  0  0  0  0
  6 27  1  0  0  0  0
  6  7  1  0  0  0  0
  7  8  1  0  0  0  0
  7 34  1  0  0  0  0
  7 35  1  0  0  0  0
  8  9  1  0  0  0  0
  8 26  1  0  0  0  0
  9 14  1  0  0  0  0
  9 10  2  0  0  0  0
 10 11  1  0  0  0  0
 11 12  2  0  0  0  0
 11 36  1  0  0  0  0
 12 13  1  0  0  0  0
 13 17  1  0  0  0  0
 13 14  2  0  0  0  0
 14 15  1  0  0  0  0
 15 16  2  0  0  0  0
 16 17  1  0  0  0  0
 16 37  1  0  0  0  0
 17 18  1  0  0  0  0
 18 19  1  0  0  0  0
 18 38  1  0  0  0  0
 18 39  1  0  0  0  0
 19 20  1  0  0  0  0
 19 21  1  0  0  0  0
 19 40  1  0  0  0  0
 20 41  1  0  0  0  0
 21 25  1  0  0  0  0
 21 22  1  0  0  0  0
 21 42  1  0  0  0  0
 22 23  1  0  0  0  0
 22 43  1  0  0  0  0
 22 44  1  0  0  0  0
 23 24  1  0  0  0  0
 23 45  1  0  0  0  0
 23 46  1  0  0  0  0
 24 25  1  0  0  0  0
 24 47  1  0  0  0  0
 24 48  1  0  0  0  0
 26 27  1  0  0  0  0
 26 49  1  0  0  0  0
 26 50  1  0  0  0  0
 27 29  1  0  0  0  0
M  END
> <s_m_source_file>
AV-unprocessed.smi

> <i_m_source_file_index>
278

> <i_lp_mmshare_version>
43012

> <i_f3d_flags>
0

> <s_epik_input>
W0NIMl0xW0NIMl1TKD1PKSg9TylbQ0BASF0oW0NAQEhdMTIpW0NIMl1OKFtDSDJdMiljKG5bY0hdbjMpYyhjMzQpbltjSF1uNFtDSDJdW0NASF0oW09IXSlbQ0BASF01W0NIMl1bQ0gyXVtDSDJdTzU=

> <s_epik_cmdline>
J2VwaWtfcHl0aG9uJywgJy1waCcsICc3LjAnLCAnLXRuJywgJzgnLCAnLW1hJywgJzIwMCcsICctbWV0YWxfYmluZGluZycsICctaW1hZScsICc8aW5maWxlLm1hZT4nLCAnLW9tYWUnLCAnPG91dGZpbGUubWFlPic=

> <r_lp_tautomer_probability>
1

> <r_epik_Ionization_Penalty>
0.000636766

> <r_epik_Ionization_Penalty_Charging>
0

> <r_epik_Ionization_Penalty_Neutral>
0.000636766

> <r_epik_State_Penalty>
0.000329976

> <r_epik_Charging_Adjusted_Penalty>
0.000329976

> <i_epik_Tot_Q>
0

> <i_epik_Tot_abs_Q>
0

> <r_epik_Metal_State_Penalty>
-0

> <b_epik_Metal_Only>
0

> <s_lp_Force_Field>
OPLS_2005

> <r_lp_Energy>
48.1975

> <b_lp_Chiralities_Consistent>
1

> <s_lp_Variant>
AV-unprocessed.smi:278-2

> <Gold.Version>
5.8.1

> <Gold.Id.Protein>
6NUR|6NUR_protein|mol2

> <Gold.PLP.Fitness>
51.6561

> <Gold.PLP.PLP>
-44.6493

> <Gold.PLP.part.hbond>
-4.7927

> <Gold.PLP.part.metal>
0.0000

> <Gold.PLP.part.buried>
-0.9171

> <Gold.PLP.part.nonpolar>
-43.1800

> <Gold.PLP.part.repulsive>
3.0067

> <Gold.PLP.ligand.clash>
0.0000

> <Gold.PLP.ligand.torsion>
0.8687

> <Gold.PLP.Chemscore.Hbond>
2.0338

> <Gold.PLP.Chemscore.CHOScore>
0.7756

> <Gold.PLP.Chemscore.Metal>
0.0000

> <Gold.Chemscore.Hbonds>
donor molecule, donor type, donor heavy atom, donor atom, acceptor molecule, acceptor atom, score
      L1  H    20    41       P1  7948  0.75
      P1  H  6933  6944       L1     1  0.08
      L1  C    16    37       P1  7957  0.03

> <Gold.PLP.Chemscore.Internal.Correction>
0.3158

> <Gold.Rescore>
     Score         DG    S(hbond)    S(metal)    S(lipo)     H(rot)  DE(clash)    DE(int)     intcor
     13.20     -14.94       1.07        0.00      97.11       2.13       0.80       0.94       ----

> <Gold.Chemscore.Fitness>
13.1974

> <Gold.Chemscore.DG>
-14.9396

> <Gold.Chemscore.ZeroCoef>
-5.4800

> <Gold.Chemscore.Hbond>
1.0667

> <Gold.Chemscore.Metal>
0.0000

> <Gold.Chemscore.Lipo>
97.1065

> <Gold.Chemscore.Internal_Hbond>
0.0000

> <Gold.Chemscore.DEClash>
0.8047

> <Gold.Chemscore.DEInternal>
0.9374

> <Gold.Chemscore.Rot>
2.1346

> <Gold.Chemscore.Internal.Correction>
   9.000000E+99

> <Gold.Chemscore.Hbonds>
donor molecule, donor type, donor heavy atom, donor atom, acceptor molecule, acceptor atom, score
      L1  H    20    41       P1  7948  0.72
      P1  H  6933  6944       L1     1  0.08

> <Gold.Chemscore.Hbond.Weighted>
-3.5628

> <Gold.Chemscore.Metal.Weighted>
-0.0000

> <Gold.Chemscore.Lipo.Weighted>
-11.3615

> <Gold.Chemscore.Internal_Hbond.Weighted>
0.0000

> <Gold.Chemscore.DEClash.Weighted>
0.8047

> <Gold.Chemscore.DEInternal.Weighted>
0.9374

> <Gold.Chemscore.Rot.Weighted>
5.4646

> <Gold.Chemscore.Internal.Correction.Weighted>
   9.000000E+99

> <Gold.Protein.RotatedTorsions>
[ 6907 6896 6895 6894 ] final  115.61 input  -60.11 | X-H torsion
[ 7974 7965 7964 7962 ] final -118.44 input  175.53 | X-H torsion
[ 8008 7997 7996 7995 ] final  163.30 input   59.86 | X-H torsion
[ 10167 10162 10161 10158 ] final  -81.46 input  -65.29 | X-H torsion
[ 10718 10713 10712 10709 ] final -140.69 input   66.30 | X-H torsion
[ 10763 10752 10751 10750 ] final -174.90 input  -60.55 | X-H torsion
[ 11005 11000 10999 10996 ] final  -22.77 input  -57.11 | X-H torsion

> <Gold.Protein.ActiveResidues>
 VAL166  LYS551  ARG553  GLY616  TRP617  ASP618  TYR619  PRO620  LYS621  CYS622 
 ASP623  PHE694  ASN695  SER759  ASP760  ASP761  ALA762  ILE779  LEU786  VAL792 
 PHE793  MET794  SER795  GLU796  ALA797  LYS798  CYS799  TRP800  GLU811  SER814 

> <Gold.Protein.RotatedAtoms>
  152.4731  133.8075  159.6985 H   0  0  0  0  0  0  0  0  0  0  0  0  # atno 6907 bound_to 6896
  150.8731  133.7467  159.2961 H   0  0  0  0  0  0  0  0  0  0  0  0  # atno 6908 bound_to 6896
  151.4996  135.1064  159.9877 H   0  0  0  0  0  0  0  0  0  0  0  0  # atno 6909 bound_to 6896
  145.0738  140.8378  143.4080 H   0  0  0  0  0  0  0  0  0  0  0  0  # atno 7974 bound_to 7965
  156.1967  140.1727  156.7982 H   0  0  0  0  0  0  0  0  0  0  0  0  # atno 8008 bound_to 7997
  154.5539  140.0712  156.8744 H   0  0  0  0  0  0  0  0  0  0  0  0  # atno 8009 bound_to 7997
  155.2975  140.3359  155.4251 H   0  0  0  0  0  0  0  0  0  0  0  0  # atno 8010 bound_to 7997
  140.4410  143.2515  151.8626 H   0  0  0  0  0  0  0  0  0  0  0  0  # atno 10167 bound_to 10162
  156.3253  130.7556  151.1663 H   0  0  0  0  0  0  0  0  0  0  0  0  # atno 10718 bound_to 10713
  154.5907  135.2845  155.0638 H   0  0  0  0  0  0  0  0  0  0  0  0  # atno 10763 bound_to 10752
  154.1939  135.6436  153.5071 H   0  0  0  0  0  0  0  0  0  0  0  0  # atno 10764 bound_to 10752
  153.0120  135.5453  154.6592 H   0  0  0  0  0  0  0  0  0  0  0  0  # atno 10765 bound_to 10752
  140.8688  133.7735  156.0162 H   0  0  0  0  0  0  0  0  0  0  0  0  # atno 11005 bound_to 11000
  145.1261  139.2662  143.5563 LP  0  0  0  0  0  0  0  0  0  0  0  0  # atno 17320 bound_to 7965
  146.3529  140.0898  142.8613 LP  0  0  0  0  0  0  0  0  0  0  0  0  # atno 17321 bound_to 7965
  139.4789  144.5229  151.8776 LP  0  0  0  0  0  0  0  0  0  0  0  0  # atno 17342 bound_to 10162
  140.4319  144.2104  150.5888 LP  0  0  0  0  0  0  0  0  0  0  0  0  # atno 17343 bound_to 10162
  157.7420  131.0496  150.5057 LP  0  0  0  0  0  0  0  0  0  0  0  0  # atno 17370 bound_to 10713
  156.5215  130.4163  149.6248 LP  0  0  0  0  0  0  0  0  0  0  0  0  # atno 17371 bound_to 10713
  140.8597  134.2855  157.5240 LP  0  0  0  0  0  0  0  0  0  0  0  0  # atno 17394 bound_to 11000
  139.8711  134.9512  156.4077 LP  0  0  0  0  0  0  0  0  0  0  0  0  # atno 17395 bound_to 11000

$$$$
