AV-unprocessed.smi:3342|AV-procd|sdf|12888|dock5
  -GOLD-   2272019293D 1   1.00000     0.00000
 Structure written by MMmdl.
 42 43  0  0  0  0  0  0  0  0  2 V2000
  145.6416  136.4842  151.4503 C   0  0  0  0  0  0  0  0  0  0  0  0
  145.8589  135.5826  152.6730 C   0  0  1  0  0  0  0  0  0  0  0  0
  146.3041  134.1656  152.2506 C   0  0  0  0  0  0  0  0  0  0  0  0
  145.3168  133.4784  151.4116 N   0  0  0  0  0  0  0  0  0  0  0  0
  145.5044  132.3429  150.6655 C   0  0  0  0  0  0  0  0  0  0  0  0
  144.3033  132.0685  150.0637 C   0  0  0  0  0  0  0  0  0  0  0  0
  143.4365  133.0505  150.4623 N   0  3  0  0  0  0  0  0  0  0  0  0
  144.0559  133.9095  151.2782 C   0  0  0  0  0  0  0  0  0  0  0  0
  146.8501  136.2072  153.5481 N   0  0  0  0  0  0  0  0  0  0  0  0
  146.6501  136.5998  154.8187 C   0  0  0  0  0  0  0  0  0  0  0  0
  145.5734  136.4323  155.3939 O   0  0  0  0  0  0  0  0  0  0  0  0
  147.7366  137.1456  155.4208 N   0  0  0  0  0  0  0  0  0  0  0  0
  149.0934  137.2326  154.8546 C   0  0  0  0  0  0  0  0  0  0  0  0
  149.3491  138.6829  154.4054 C   0  0  0  0  0  0  0  0  0  0  0  0
  149.1594  139.6721  155.5800 C   0  0  0  0  0  0  0  0  0  0  0  0
  149.2803  141.1255  155.1023 C   0  0  0  0  0  0  0  0  0  0  0  0
  149.2812  142.0766  156.0396 N   0  0  0  0  0  0  0  0  0  0  0  0
  149.3720  141.3888  153.9048 O   0  0  0  0  0  0  0  0  0  0  0  0
  147.8058  139.4314  156.2895 C   0  0  0  0  0  0  0  0  0  0  0  0
  147.6240  137.9450  156.6468 C   0  0  0  0  0  0  0  0  0  0  0  0
  144.8835  136.0686  150.7858 H   0  0  0  0  0  0  0  0  0  0  0  0
  146.5599  136.6025  150.8741 H   0  0  0  0  0  0  0  0  0  0  0  0
  145.3060  137.4780  151.7492 H   0  0  0  0  0  0  0  0  0  0  0  0
  144.9017  135.5133  153.1929 H   0  0  0  0  0  0  0  0  0  0  0  0
  147.2346  134.2129  151.6829 H   0  0  0  0  0  0  0  0  0  0  0  0
  146.4995  133.5434  153.1253 H   0  0  0  0  0  0  0  0  0  0  0  0
  146.4511  131.8240  150.6254 H   0  0  0  0  0  0  0  0  0  0  0  0
  144.0079  131.2689  149.3999 H   0  0  0  0  0  0  0  0  0  0  0  0
  143.6201  134.7742  151.7461 H   0  0  0  0  0  0  0  0  0  0  0  0
  147.7642  136.3692  153.1507 H   0  0  0  0  0  0  0  0  0  0  0  0
  149.8187  136.9473  155.6180 H   0  0  0  0  0  0  0  0  0  0  0  0
  149.2719  136.5527  154.0218 H   0  0  0  0  0  0  0  0  0  0  0  0
  150.3594  138.7696  154.0037 H   0  0  0  0  0  0  0  0  0  0  0  0
  148.6695  138.9276  153.5869 H   0  0  0  0  0  0  0  0  0  0  0  0
  149.9520  139.4796  156.3058 H   0  0  0  0  0  0  0  0  0  0  0  0
  149.3607  143.0474  155.7742 H   0  0  0  0  0  0  0  0  0  0  0  0
  149.2042  141.8195  157.0130 H   0  0  0  0  0  0  0  0  0  0  0  0
  147.7450  140.0366  157.1949 H   0  0  0  0  0  0  0  0  0  0  0  0
  146.9795  139.7485  155.6507 H   0  0  0  0  0  0  0  0  0  0  0  0
  146.6732  137.7970  157.1608 H   0  0  0  0  0  0  0  0  0  0  0  0
  148.3921  137.6324  157.3556 H   0  0  0  0  0  0  0  0  0  0  0  0
  142.4654  133.1175  150.1839 H   0  0  0  0  0  0  0  0  0  0  0  0
  1  2  1  0  0  0  0
  1 21  1  0  0  0  0
  1 22  1  0  0  0  0
  1 23  1  0  0  0  0
  2  3  1  0  0  0  0
  2  9  1  0  0  0  0
  2 24  1  0  0  0  0
  3  4  1  0  0  0  0
  3 25  1  0  0  0  0
  3 26  1  0  0  0  0
  4  8  1  0  0  0  0
  4  5  1  0  0  0  0
  5  6  2  0  0  0  0
  5 27  1  0  0  0  0
  6  7  1  0  0  0  0
  6 28  1  0  0  0  0
  7  8  2  0  0  0  0
  7 42  1  0  0  0  0
  8 29  1  0  0  0  0
  9 10  1  0  0  0  0
  9 30  1  0  0  0  0
 10 11  2  0  0  0  0
 10 12  1  0  0  0  0
 12 20  1  0  0  0  0
 12 13  1  0  0  0  0
 13 14  1  0  0  0  0
 13 31  1  0  0  0  0
 13 32  1  0  0  0  0
 14 15  1  0  0  0  0
 14 33  1  0  0  0  0
 14 34  1  0  0  0  0
 15 16  1  0  0  0  0
 15 19  1  0  0  0  0
 15 35  1  0  0  0  0
 16 17  1  0  0  0  0
 16 18  2  0  0  0  0
 17 36  1  0  0  0  0
 17 37  1  0  0  0  0
 19 20  1  0  0  0  0
 19 38  1  0  0  0  0
 19 39  1  0  0  0  0
 20 40  1  0  0  0  0
 20 41  1  0  0  0  0
M  CHG  1   7   1
M  END
> <s_m_source_file>
AV-unprocessed.smi

> <i_m_source_file_index>
3342

> <i_lp_mmshare_version>
43012

> <i_f3d_flags>
0

> <s_epik_input>
W2NIXTFuW2NIXVtjSF1uMVtDSDJdW0NAQEhdKFtDSDNdKVtOSF1DKD1PKU4yW0NIMl1bQ0gyXVtDSF0oQyg9TylbTkgyXSlbQ0gyXVtDSDJdMg==

> <s_epik_cmdline>
J2VwaWtfcHl0aG9uJywgJy1waCcsICc3LjAnLCAnLXRuJywgJzgnLCAnLW1hJywgJzIwMCcsICctbWV0YWxfYmluZGluZycsICctaW1hZScsICc8aW5maWxlLm1hZT4nLCAnLW9tYWUnLCAnPG91dGZpbGUubWFlPic=

> <r_lp_tautomer_probability>
1

> <r_epik_Ionization_Penalty>
0.254015

> <r_epik_Ionization_Penalty_Charging>
0

> <r_epik_Ionization_Penalty_Neutral>
0.254015

> <r_epik_State_Penalty>
0.245417

> <r_epik_Charging_Adjusted_Penalty>
0.245417

> <i_epik_Tot_Q>
1

> <i_epik_Tot_abs_Q>
1

> <r_epik_Metal_State_Penalty>
0.535589

> <b_epik_Metal_Only>
0

> <s_lp_Force_Field>
OPLS_2005

> <r_lp_Energy>
31.4878

> <b_lp_Chiralities_Consistent>
1

> <s_lp_Variant>
AV-unprocessed.smi:3342-2

> <Gold.Version>
5.8.1

> <Gold.Id.Protein>
6NUR|6NUR_protein|mol2

> <Gold.PLP.Fitness>
42.1617

> <Gold.PLP.PLP>
-26.1501

> <Gold.PLP.part.hbond>
-5.0000

> <Gold.PLP.part.metal>
0.0000

> <Gold.PLP.part.buried>
-0.9452

> <Gold.PLP.part.nonpolar>
-20.0785

> <Gold.PLP.part.repulsive>
1.1287

> <Gold.PLP.ligand.clash>
0.0000

> <Gold.PLP.ligand.torsion>
0.3097

> <Gold.PLP.Chemscore.Hbond>
4.8074

> <Gold.PLP.Chemscore.CHOScore>
0.7104

> <Gold.PLP.Chemscore.Metal>
0.0000

> <Gold.Chemscore.Hbonds>
donor molecule, donor type, donor heavy atom, donor atom, acceptor molecule, acceptor atom, score
      L1  H     7    42       P1 10186  1.66
      L1  H     9    30       P1  7948  1.00
      L1  H    17    36       P1  8028  1.00
      P1  H  7989  7998       L1    18  0.07
      P1  H  8011  8017       L1    18  0.77
      L1  C     5    27       P1 10747  0.52

> <Gold.PLP.Chemscore.Internal.Correction>
0.0775

> <Gold.Rescore>
     Score         DG    S(hbond)    S(metal)    S(lipo)     H(rot)  DE(clash)    DE(int)     intcor
     16.95     -17.52       3.67        0.00      49.25       2.34       0.29       0.28       ----

> <Gold.Chemscore.Fitness>
16.9504

> <Gold.Chemscore.DG>
-17.5213

> <Gold.Chemscore.ZeroCoef>
-5.4800

> <Gold.Chemscore.Hbond>
3.6734

> <Gold.Chemscore.Metal>
0.0000

> <Gold.Chemscore.Lipo>
49.2537

> <Gold.Chemscore.Internal_Hbond>
0.0000

> <Gold.Chemscore.DEClash>
0.2929

> <Gold.Chemscore.DEInternal>
0.2781

> <Gold.Chemscore.Rot>
2.3400

> <Gold.Chemscore.Internal.Correction>
   9.000000E+99

> <Gold.Chemscore.Hbonds>
donor molecule, donor type, donor heavy atom, donor atom, acceptor molecule, acceptor atom, score
      L1  H     7    42       P1 10186  0.78
      L1  H     9    30       P1  7948  0.96
      L1  H    17    36       P1  8028  0.99
      P1  H  7989  7998       L1    18  0.02
      P1  H  8011  8017       L1    18  0.75

> <Gold.Chemscore.Hbond.Weighted>
-12.2690

> <Gold.Chemscore.Metal.Weighted>
-0.0000

> <Gold.Chemscore.Lipo.Weighted>
-5.7627

> <Gold.Chemscore.Internal_Hbond.Weighted>
0.0000

> <Gold.Chemscore.DEClash.Weighted>
0.2929

> <Gold.Chemscore.DEInternal.Weighted>
0.2781

> <Gold.Chemscore.Rot.Weighted>
5.9904

> <Gold.Chemscore.Internal.Correction.Weighted>
   9.000000E+99

> <Gold.Protein.RotatedTorsions>
[ 6907 6896 6895 6894 ] final  121.53 input  -60.11 | X-H torsion
[ 7974 7965 7964 7962 ] final  102.12 input  175.53 | X-H torsion
[ 8008 7997 7996 7995 ] final  -58.33 input   59.86 | X-H torsion
[ 10167 10162 10161 10158 ] final -133.64 input  -65.29 | X-H torsion
[ 10718 10713 10712 10709 ] final   72.46 input   66.30 | X-H torsion
[ 10763 10752 10751 10750 ] final   70.05 input  -60.55 | X-H torsion
[ 11005 11000 10999 10996 ] final  -25.96 input  -57.11 | X-H torsion

> <Gold.Protein.ActiveResidues>
 VAL166  LYS551  ARG553  GLY616  TRP617  ASP618  TYR619  PRO620  LYS621  CYS622 
 ASP623  PHE694  ASN695  SER759  ASP760  ASP761  ALA762  ILE779  LEU786  VAL792 
 PHE793  MET794  SER795  GLU796  ALA797  LYS798  CYS799  TRP800  GLU811  SER814 

> <Gold.Protein.RotatedAtoms>
  152.4314  133.7285  159.6573 H   0  0  0  0  0  0  0  0  0  0  0  0  # atno 6907 bound_to 6896
  150.8194  133.8269  159.3152 H   0  0  0  0  0  0  0  0  0  0  0  0  # atno 6908 bound_to 6896
  151.5956  135.1053  160.0100 H   0  0  0  0  0  0  0  0  0  0  0  0  # atno 6909 bound_to 6896
  145.3632  139.2413  143.3495 H   0  0  0  0  0  0  0  0  0  0  0  0  # atno 7974 bound_to 7965
  154.4304  140.1086  156.5940 H   0  0  0  0  0  0  0  0  0  0  0  0  # atno 8008 bound_to 7997
  155.5982  140.3493  155.4567 H   0  0  0  0  0  0  0  0  0  0  0  0  # atno 8009 bound_to 7997
  156.0194  140.1236  157.0362 H   0  0  0  0  0  0  0  0  0  0  0  0  # atno 8010 bound_to 7997
  139.8962  143.6662  152.2603 H   0  0  0  0  0  0  0  0  0  0  0  0  # atno 10167 bound_to 10162
  157.6502  130.9579  150.0931 H   0  0  0  0  0  0  0  0  0  0  0  0  # atno 10718 bound_to 10713
  153.0320  135.5188  154.7382 H   0  0  0  0  0  0  0  0  0  0  0  0  # atno 10763 bound_to 10752
  154.6389  135.2910  155.0129 H   0  0  0  0  0  0  0  0  0  0  0  0  # atno 10764 bound_to 10752
  154.1054  135.6630  153.4928 H   0  0  0  0  0  0  0  0  0  0  0  0  # atno 10765 bound_to 10752
  140.8986  133.7539  156.0514 H   0  0  0  0  0  0  0  0  0  0  0  0  # atno 11005 bound_to 11000
  146.2918  140.4270  142.8736 LP  0  0  0  0  0  0  0  0  0  0  0  0  # atno 17320 bound_to 7965
  144.8630  140.7167  143.6095 LP  0  0  0  0  0  0  0  0  0  0  0  0  # atno 17321 bound_to 7965
  139.7066  144.7627  151.1183 LP  0  0  0  0  0  0  0  0  0  0  0  0  # atno 17342 bound_to 10162
  140.7716  143.5387  150.9338 LP  0  0  0  0  0  0  0  0  0  0  0  0  # atno 17343 bound_to 10162
  156.1875  130.3653  149.8954 LP  0  0  0  0  0  0  0  0  0  0  0  0  # atno 17370 bound_to 10713
  156.6891  130.8888  151.3586 LP  0  0  0  0  0  0  0  0  0  0  0  0  # atno 17371 bound_to 10713
  140.8258  134.3236  157.5366 LP  0  0  0  0  0  0  0  0  0  0  0  0  # atno 17394 bound_to 11000
  139.8739  134.9335  156.3583 LP  0  0  0  0  0  0  0  0  0  0  0  0  # atno 17395 bound_to 11000

$$$$
