AV-unprocessed.smi:2397|AV-procd|sdf|9493|dock7
  -GOLD-   2272013123D 1   1.00000     0.00000
 Structure written by MMmdl.
 36 37  0  0  0  0  0  0  0  0  1 V2000
  151.9511  144.0359  161.2732 C   0  0  0  0  0  0  0  0  0  0  0  0
  152.5322  143.8495  159.8628 C   0  0  0  0  0  0  0  0  0  0  0  0
  151.7713  144.6429  158.7896 C   0  0  0  0  0  0  0  0  0  0  0  0
  152.6694  142.3784  159.4931 C   0  0  0  0  0  0  0  0  0  0  0  0
  153.4469  141.6283  160.2796 N   0  0  0  0  0  0  0  0  0  0  0  0
  153.5668  140.3244  159.9532 C   0  0  0  0  0  0  0  0  0  0  0  0
  152.9081  139.7731  158.8365 C   0  0  0  0  0  0  0  0  0  0  0  0
  152.1162  140.6583  158.0653 C   0  0  0  0  0  0  0  0  0  0  0  0
  151.3928  140.2499  156.9263 N   0  0  0  0  0  0  0  0  0  0  0  0
  152.2654  139.6346  155.9283 C   0  0  0  0  0  0  0  0  0  0  0  0
  151.4389  138.9950  154.8036 C   0  0  0  0  0  0  0  0  0  0  0  0
  150.5775  139.9756  154.2420 O   0  0  0  0  0  0  0  0  0  0  0  0
  149.6455  140.4608  155.2010 C   0  0  0  0  0  0  0  0  0  0  0  0
  150.3811  141.1602  156.3686 C   0  0  1  0  0  0  0  0  0  0  0  0
  149.3231  141.6486  157.3754 C   0  0  0  0  0  0  0  0  0  0  0  0
  149.1971  142.9691  157.5288 N   0  0  0  0  0  0  0  0  0  0  0  0
  148.6224  140.8496  157.9946 O   0  0  0  0  0  0  0  0  0  0  0  0
  152.0009  141.9602  158.4132 N   0  0  0  0  0  0  0  0  0  0  0  0
  152.5581  143.5203  162.0177 H   0  0  0  0  0  0  0  0  0  0  0  0
  150.9359  143.6437  161.3409 H   0  0  0  0  0  0  0  0  0  0  0  0
  151.9171  145.0905  161.5471 H   0  0  0  0  0  0  0  0  0  0  0  0
  153.5396  144.2687  159.8923 H   0  0  0  0  0  0  0  0  0  0  0  0
  152.2518  144.5441  157.8160 H   0  0  0  0  0  0  0  0  0  0  0  0
  151.7391  145.7044  159.0360 H   0  0  0  0  0  0  0  0  0  0  0  0
  150.7429  144.2945  158.6905 H   0  0  0  0  0  0  0  0  0  0  0  0
  154.1906  139.7144  160.5895 H   0  0  0  0  0  0  0  0  0  0  0  0
  153.0126  138.7253  158.5995 H   0  0  0  0  0  0  0  0  0  0  0  0
  152.9298  140.3947  155.5147 H   0  0  0  0  0  0  0  0  0  0  0  0
  152.8995  138.8714  156.3817 H   0  0  0  0  0  0  0  0  0  0  0  0
  152.0975  138.6123  154.0239 H   0  0  0  0  0  0  0  0  0  0  0  0
  150.8592  138.1485  155.1758 H   0  0  0  0  0  0  0  0  0  0  0  0
  148.9752  141.1601  154.6995 H   0  0  0  0  0  0  0  0  0  0  0  0
  149.0270  139.6352  155.5592 H   0  0  0  0  0  0  0  0  0  0  0  0
  150.9014  142.0275  155.9587 H   0  0  0  0  0  0  0  0  0  0  0  0
  148.5177  143.3399  158.1770 H   0  0  0  0  0  0  0  0  0  0  0  0
  149.7842  143.5925  156.9940 H   0  0  0  0  0  0  0  0  0  0  0  0
  1  2  1  0  0  0  0
  1 19  1  0  0  0  0
  1 20  1  0  0  0  0
  1 21  1  0  0  0  0
  2  3  1  0  0  0  0
  2  4  1  0  0  0  0
  2 22  1  0  0  0  0
  3 23  1  0  0  0  0
  3 24  1  0  0  0  0
  3 25  1  0  0  0  0
  4 18  1  0  0  0  0
  4  5  2  0  0  0  0
  5  6  1  0  0  0  0
  6  7  2  0  0  0  0
  6 26  1  0  0  0  0
  7  8  1  0  0  0  0
  7 27  1  0  0  0  0
  8  9  1  0  0  0  0
  8 18  2  0  0  0  0
  9 14  1  0  0  0  0
  9 10  1  0  0  0  0
 10 11  1  0  0  0  0
 10 28  1  0  0  0  0
 10 29  1  0  0  0  0
 11 12  1  0  0  0  0
 11 30  1  0  0  0  0
 11 31  1  0  0  0  0
 12 13  1  0  0  0  0
 13 14  1  0  0  0  0
 13 32  1  0  0  0  0
 13 33  1  0  0  0  0
 14 15  1  0  0  0  0
 14 34  1  0  0  0  0
 15 16  1  0  0  0  0
 15 17  2  0  0  0  0
 16 35  1  0  0  0  0
 16 36  1  0  0  0  0
M  END
> <s_m_source_file>
AV-unprocessed.smi

> <i_m_source_file_index>
2397

> <i_lp_mmshare_version>
43012

> <i_f3d_flags>
0

> <s_epik_input>
W0NIM11bQ0hdKFtDSDNdKWMxbltjSF1bY0hdYyhuMSlOMltDSDJdW0NIMl1PW0NIMl1bQ0BIXTJDKD1PKVtOSDJd

> <s_epik_cmdline>
J2VwaWtfcHl0aG9uJywgJy1waCcsICc3LjAnLCAnLXRuJywgJzgnLCAnLW1hJywgJzIwMCcsICctbWV0YWxfYmluZGluZycsICctaW1hZScsICc8aW5maWxlLm1hZT4nLCAnLW9tYWUnLCAnPG91dGZpbGUubWFlPic=

> <r_lp_tautomer_probability>
1

> <r_epik_Ionization_Penalty>
0.0323151

> <r_epik_Ionization_Penalty_Charging>
0

> <r_epik_Ionization_Penalty_Neutral>
0.0323151

> <r_epik_State_Penalty>
0.0267324

> <r_epik_Charging_Adjusted_Penalty>
0.0267324

> <i_epik_Tot_Q>
0

> <i_epik_Tot_abs_Q>
0

> <r_epik_Metal_State_Penalty>
0.0253461

> <b_epik_Metal_Only>
0

> <s_lp_Force_Field>
OPLS_2005

> <r_lp_Energy>
6.33426

> <b_lp_Chiralities_Consistent>
1

> <s_lp_Variant>
AV-unprocessed.smi:2397-1

> <Gold.Version>
5.8.1

> <Gold.Id.Protein>
6NUR|6NUR_protein|mol2

> <Gold.PLP.Fitness>
41.4668

> <Gold.PLP.PLP>
-37.5684

> <Gold.PLP.part.hbond>
-2.6316

> <Gold.PLP.part.metal>
0.0000

> <Gold.PLP.part.buried>
-5.2374

> <Gold.PLP.part.nonpolar>
-30.6251

> <Gold.PLP.part.repulsive>
0.1835

> <Gold.PLP.ligand.clash>
0.0000

> <Gold.PLP.ligand.torsion>
0.2437

> <Gold.PLP.Chemscore.Hbond>
1.3520

> <Gold.PLP.Chemscore.CHOScore>
0.0000

> <Gold.PLP.Chemscore.Metal>
0.0000

> <Gold.Chemscore.Hbonds>
donor molecule, donor type, donor heavy atom, donor atom, acceptor molecule, acceptor atom, score
      L1  H    16    36       P1  8028  0.34
      P1  H  7989  7998       L1    12  1.00

> <Gold.PLP.Chemscore.Internal.Correction>
0.3297

> <Gold.Rescore>
     Score         DG    S(hbond)    S(metal)    S(lipo)     H(rot)  DE(clash)    DE(int)     intcor
     12.64     -14.94       1.36        0.00      80.30       1.74       0.25       2.05       ----

> <Gold.Chemscore.Fitness>
12.6402

> <Gold.Chemscore.DG>
-14.9413

> <Gold.Chemscore.ZeroCoef>
-5.4800

> <Gold.Chemscore.Hbond>
1.3555

> <Gold.Chemscore.Metal>
0.0000

> <Gold.Chemscore.Lipo>
80.2976

> <Gold.Chemscore.Internal_Hbond>
0.0000

> <Gold.Chemscore.DEClash>
0.2511

> <Gold.Chemscore.DEInternal>
2.0500

> <Gold.Chemscore.Rot>
1.7426

> <Gold.Chemscore.Internal.Correction>
   9.000000E+99

> <Gold.Chemscore.Hbonds>
donor molecule, donor type, donor heavy atom, donor atom, acceptor molecule, acceptor atom, score
      L1  H    16    36       P1  8028  0.33
      P1  H  7989  7998       L1    12  0.25

> <Gold.Chemscore.Hbond.Weighted>
-4.5275

> <Gold.Chemscore.Metal.Weighted>
-0.0000

> <Gold.Chemscore.Lipo.Weighted>
-9.3948

> <Gold.Chemscore.Internal_Hbond.Weighted>
0.0000

> <Gold.Chemscore.DEClash.Weighted>
0.2511

> <Gold.Chemscore.DEInternal.Weighted>
2.0500

> <Gold.Chemscore.Rot.Weighted>
4.4610

> <Gold.Chemscore.Internal.Correction.Weighted>
   9.000000E+99

> <Gold.Protein.RotatedTorsions>
[ 6907 6896 6895 6894 ] final   46.93 input  -60.11 | X-H torsion
[ 7974 7965 7964 7962 ] final   26.83 input  175.53 | X-H torsion
[ 8008 7997 7996 7995 ] final    3.74 input   59.86 | X-H torsion
[ 10167 10162 10161 10158 ] final   27.46 input  -65.29 | X-H torsion
[ 10718 10713 10712 10709 ] final  168.17 input   66.30 | X-H torsion
[ 10763 10752 10751 10750 ] final  -37.32 input  -60.55 | X-H torsion
[ 11005 11000 10999 10996 ] final   58.06 input  -57.11 | X-H torsion

> <Gold.Protein.ActiveResidues>
 VAL166  LYS551  ARG553  GLY616  TRP617  ASP618  TYR619  PRO620  LYS621  CYS622 
 ASP623  PHE694  ASN695  SER759  ASP760  ASP761  ALA762  ILE779  LEU786  VAL792 
 PHE793  MET794  SER795  GLU796  ALA797  LYS798  CYS799  TRP800  GLU811  SER814 

> <Gold.Protein.RotatedAtoms>
  152.2621  134.8023  160.0428 H   0  0  0  0  0  0  0  0  0  0  0  0  # atno 6907 bound_to 6896
  151.8665  133.3462  159.3729 H   0  0  0  0  0  0  0  0  0  0  0  0  # atno 6908 bound_to 6896
  150.7120  134.5082  159.5638 H   0  0  0  0  0  0  0  0  0  0  0  0  # atno 6909 bound_to 6896
  146.1816  139.7274  142.8896 H   0  0  0  0  0  0  0  0  0  0  0  0  # atno 7974 bound_to 7965
  154.7073  140.2685  155.6662 H   0  0  0  0  0  0  0  0  0  0  0  0  # atno 8008 bound_to 7997
  156.2784  140.2760  156.1628 H   0  0  0  0  0  0  0  0  0  0  0  0  # atno 8009 bound_to 7997
  155.0682  140.0372  157.2590 H   0  0  0  0  0  0  0  0  0  0  0  0  # atno 8010 bound_to 7997
  140.4937  144.0427  150.6306 H   0  0  0  0  0  0  0  0  0  0  0  0  # atno 10167 bound_to 10162
  157.0409  131.0286  151.2713 H   0  0  0  0  0  0  0  0  0  0  0  0  # atno 10718 bound_to 10713
  153.8944  135.6809  153.4759 H   0  0  0  0  0  0  0  0  0  0  0  0  # atno 10763 bound_to 10752
  153.1163  135.4760  154.9119 H   0  0  0  0  0  0  0  0  0  0  0  0  # atno 10764 bound_to 10752
  154.7606  135.3210  154.8338 H   0  0  0  0  0  0  0  0  0  0  0  0  # atno 10765 bound_to 10752
  140.0406  134.5879  155.9387 H   0  0  0  0  0  0  0  0  0  0  0  0  # atno 11005 bound_to 11000
  145.4058  141.0391  143.3045 LP  0  0  0  0  0  0  0  0  0  0  0  0  # atno 17320 bound_to 7965
  144.8326  139.5604  143.6937 LP  0  0  0  0  0  0  0  0  0  0  0  0  # atno 17321 bound_to 7965
  140.3703  143.2858  152.0286 LP  0  0  0  0  0  0  0  0  0  0  0  0  # atno 17342 bound_to 10162
  139.4856  144.6235  151.7209 LP  0  0  0  0  0  0  0  0  0  0  0  0  # atno 17343 bound_to 10162
  157.5105  130.7935  149.7700 LP  0  0  0  0  0  0  0  0  0  0  0  0  # atno 17370 bound_to 10713
  156.0038  130.3866  150.2506 LP  0  0  0  0  0  0  0  0  0  0  0  0  # atno 17371 bound_to 10713
  141.1881  133.6561  156.5309 LP  0  0  0  0  0  0  0  0  0  0  0  0  # atno 17394 bound_to 11000
  140.4076  134.7301  157.4817 LP  0  0  0  0  0  0  0  0  0  0  0  0  # atno 17395 bound_to 11000

$$$$
