AV-unprocessed.smi:72|AV-procd|sdf|743|dock8
  -GOLD-   2262017 73D 1   1.00000     0.00000
 Structure written by MMmdl.
 29 30  0  0  0  0  0  0  0  0  1 V2000
  146.2527  141.4644  153.4419 N   0  0  0  0  0  0  0  0  0  0  0  0
  147.2815  140.6326  153.8312 C   0  0  0  0  0  0  0  0  0  0  0  0
  147.0519  139.2557  153.7022 N   0  0  0  0  0  0  0  0  0  0  0  0
  148.0212  138.4715  154.0527 C   0  0  0  0  0  0  0  0  0  0  0  0
  149.2799  139.0011  154.5452 N   0  0  0  0  0  0  0  0  0  0  0  0
  150.4075  138.0807  154.9549 C   0  0  2  0  0  0  0  0  0  0  0  0
  150.7375  138.3378  156.2882 O   0  0  0  0  0  0  0  0  0  0  0  0
  152.1521  138.4095  156.4316 C   0  0  2  0  0  0  0  0  0  0  0  0
  152.5031  139.2852  157.6437 C   0  0  0  0  0  0  0  0  0  0  0  0
  153.8687  139.1358  157.9672 O   0  0  0  0  0  0  0  0  0  0  0  0
  152.5893  139.0098  155.0943 C   0  0  1  0  0  0  0  0  0  0  0  0
  153.9610  138.8016  154.8139 O   0  0  0  0  0  0  0  0  0  0  0  0
  151.6564  138.3324  154.0948 C   0  0  1  0  0  0  0  0  0  0  0  0
  152.1802  137.1142  153.5989 O   0  0  0  0  0  0  0  0  0  0  0  0
  149.4342  140.4081  154.6794 C   0  0  0  0  0  0  0  0  0  0  0  0
  150.4750  140.8793  155.1374 O   0  0  0  0  0  0  0  0  0  0  0  0
  148.3590  141.2110  154.2791 N   0  0  0  0  0  0  0  0  0  0  0  0
  150.0255  137.0611  154.8886 H   0  0  0  0  0  0  0  0  0  0  0  0
  152.5588  137.4014  156.5343 H   0  0  0  0  0  0  0  0  0  0  0  0
  152.3901  140.0823  155.0943 H   0  0  0  0  0  0  0  0  0  0  0  0
  151.4303  138.9825  153.2481 H   0  0  0  0  0  0  0  0  0  0  0  0
  146.3049  142.4714  153.4908 H   0  0  0  0  0  0  0  0  0  0  0  0
  145.3687  141.1294  153.0868 H   0  0  0  0  0  0  0  0  0  0  0  0
  147.9568  137.3834  154.0052 H   0  0  0  0  0  0  0  0  0  0  0  0
  152.3351  140.3368  157.4093 H   0  0  0  0  0  0  0  0  0  0  0  0
  151.8795  139.0406  158.5042 H   0  0  0  0  0  0  0  0  0  0  0  0
  153.9398  138.9777  158.8963 H   0  0  0  0  0  0  0  0  0  0  0  0
  154.0693  137.9233  154.4826 H   0  0  0  0  0  0  0  0  0  0  0  0
  151.6909  136.8675  152.8290 H   0  0  0  0  0  0  0  0  0  0  0  0
  1  2  1  0  0  0  0
  1 22  1  0  0  0  0
  1 23  1  0  0  0  0
  2 17  2  0  0  0  0
  2  3  1  0  0  0  0
  3  4  2  0  0  0  0
  4  5  1  0  0  0  0
  4 24  1  0  0  0  0
  5  6  1  0  0  0  0
  5 15  1  0  0  0  0
  6 18  1  0  0  0  0
  6 13  1  0  0  0  0
  6  7  1  0  0  0  0
  7  8  1  0  0  0  0
  8 19  1  0  0  0  0
  8  9  1  0  0  0  0
  8 11  1  0  0  0  0
  9 10  1  0  0  0  0
  9 25  1  0  0  0  0
  9 26  1  0  0  0  0
 10 27  1  0  0  0  0
 11 20  1  0  0  0  0
 11 12  1  0  0  0  0
 11 13  1  0  0  0  0
 12 28  1  0  0  0  0
 13 21  1  0  0  0  0
 13 14  1  0  0  0  0
 14 29  1  0  0  0  0
 15 16  2  0  0  0  0
 15 17  1  0  0  0  0
M  END
> <s_m_source_file>
AV-unprocessed.smi

> <i_m_source_file_index>
72

> <i_lp_mmshare_version>
43012

> <i_f3d_flags>
0

> <s_epik_input>
W05IMl1jMW5bY0hdbihjKD1PKW4xKVtDQEBIXTJPW0NASF0oW0NIMl1bT0hdKVtDQEBIXShbT0hdKVtDQEhdMltPSF0=

> <s_epik_cmdline>
J2VwaWtfcHl0aG9uJywgJy1waCcsICc3LjAnLCAnLXRuJywgJzgnLCAnLW1hJywgJzIwMCcsICctbWV0YWxfYmluZGluZycsICctaW1hZScsICc8aW5maWxlLm1hZT4nLCAnLW9tYWUnLCAnPG91dGZpbGUubWFlPic=

> <r_lp_tautomer_probability>
4.77166e-05

> <r_epik_Ionization_Penalty>
1.3546

> <r_epik_Ionization_Penalty_Charging>
1.46833e-10

> <r_epik_Ionization_Penalty_Neutral>
1.3546

> <r_epik_State_Penalty>
3.51908

> <r_epik_Charging_Adjusted_Penalty>
3.51908

> <i_epik_Tot_Q>
0

> <i_epik_Tot_abs_Q>
0

> <r_epik_Metal_State_Penalty>
3.44088

> <b_epik_Metal_Only>
1

> <s_epik_Chemistry_Notes>
This compound contains an acetal/aminal-like group ( X-CH(R)-Y where X, Y are N, S, or O) that may be acid/base labile, releasing an aldehyde.

> <s_lp_Force_Field>
OPLS_2005

> <r_lp_Energy>
30.18

> <b_lp_Chiralities_Consistent>
1

> <s_lp_Variant>
AV-unprocessed.smi:72-81

> <Gold.Version>
5.8.1

> <Gold.Id.Protein>
6NUR|6NUR_protein|mol2

> <Gold.PLP.Fitness>
43.1320

> <Gold.PLP.PLP>
-24.5058

> <Gold.PLP.part.hbond>
-5.8917

> <Gold.PLP.part.metal>
0.0000

> <Gold.PLP.part.buried>
-3.5826

> <Gold.PLP.part.nonpolar>
-15.1204

> <Gold.PLP.part.repulsive>
0.4602

> <Gold.PLP.ligand.clash>
0.0000

> <Gold.PLP.ligand.torsion>
0.1328

> <Gold.PLP.Chemscore.Hbond>
5.5660

> <Gold.PLP.Chemscore.CHOScore>
0.7264

> <Gold.PLP.Chemscore.Metal>
0.0000

> <Gold.Chemscore.Hbonds>
donor molecule, donor type, donor heavy atom, donor atom, acceptor molecule, acceptor atom, score
      L1  H     1    23       P1 10175  0.95
      L1  H    14    29       P1  7949  1.00
      P1  H  7989  7998       L1    16  0.78
      P1  H  7997  8009       L1    10  1.00
      P1  H  7997  8010       L1    12  0.82
      P1  H 10752 10763       L1    14  1.00
      L1  C     4    24       P1  7948  0.55

> <Gold.PLP.Chemscore.Internal.Correction>
0.0147

> <Gold.Rescore>
     Score         DG    S(hbond)    S(metal)    S(lipo)     H(rot)  DE(clash)    DE(int)     intcor
      8.85     -12.95       4.38        0.00      27.68       4.06       0.07       4.03       ----

> <Gold.Chemscore.Fitness>
8.8509

> <Gold.Chemscore.DG>
-12.9527

> <Gold.Chemscore.ZeroCoef>
-5.4800

> <Gold.Chemscore.Hbond>
4.3797

> <Gold.Chemscore.Metal>
0.0000

> <Gold.Chemscore.Lipo>
27.6764

> <Gold.Chemscore.Internal_Hbond>
0.0000

> <Gold.Chemscore.DEClash>
0.0735

> <Gold.Chemscore.DEInternal>
4.0283

> <Gold.Chemscore.Rot>
4.0600

> <Gold.Chemscore.Internal.Correction>
   9.000000E+99

> <Gold.Chemscore.Hbonds>
donor molecule, donor type, donor heavy atom, donor atom, acceptor molecule, acceptor atom, score
      L1  H     1    23       P1 10175  0.22
      L1  H    14    29       P1  7949  0.99
      P1  H  7989  7998       L1    16  0.22
      P1  H  7997  8009       L1    10  0.86
      P1  H  7997  8010       L1    12  0.28
      P1  H 10752 10763       L1    14  0.48

> <Gold.Chemscore.Hbond.Weighted>
-14.6282

> <Gold.Chemscore.Metal.Weighted>
-0.0000

> <Gold.Chemscore.Lipo.Weighted>
-3.2381

> <Gold.Chemscore.Internal_Hbond.Weighted>
0.0000

> <Gold.Chemscore.DEClash.Weighted>
0.0735

> <Gold.Chemscore.DEInternal.Weighted>
4.0283

> <Gold.Chemscore.Rot.Weighted>
10.3936

> <Gold.Chemscore.Internal.Correction.Weighted>
   9.000000E+99

> <Gold.Protein.RotatedTorsions>
[ 6907 6896 6895 6894 ] final  -11.03 input  -60.11 | X-H torsion
[ 7974 7965 7964 7962 ] final  -23.27 input  175.53 | X-H torsion
[ 8008 7997 7996 7995 ] final  128.41 input   59.86 | X-H torsion
[ 10167 10162 10161 10158 ] final  -36.49 input  -65.29 | X-H torsion
[ 10718 10713 10712 10709 ] final   56.22 input   66.30 | X-H torsion
[ 10763 10752 10751 10750 ] final   27.13 input  -60.55 | X-H torsion
[ 11005 11000 10999 10996 ] final  162.92 input  -57.11 | X-H torsion

> <Gold.Protein.ActiveResidues>
 VAL166  LYS551  ARG553  GLY616  TRP617  ASP618  TYR619  PRO620  LYS621  CYS622 
 ASP623  PHE694  ASN695  SER759  ASP760  ASP761  ALA762  ILE779  LEU786  VAL792 
 PHE793  MET794  SER795  GLU796  ALA797  LYS798  CYS799  TRP800  GLU811  SER814 

> <Gold.Protein.RotatedAtoms>
  151.3927  135.0958  159.9530 H   0  0  0  0  0  0  0  0  0  0  0  0  # atno 6907 bound_to 6896
  152.5075  133.8964  159.7430 H   0  0  0  0  0  0  0  0  0  0  0  0  # atno 6908 bound_to 6896
  150.9421  133.6588  159.2817 H   0  0  0  0  0  0  0  0  0  0  0  0  # atno 6909 bound_to 6896
  146.1626  140.4592  142.8565 H   0  0  0  0  0  0  0  0  0  0  0  0  # atno 7974 bound_to 7965
  156.2914  140.2645  156.2431 H   0  0  0  0  0  0  0  0  0  0  0  0  # atno 8008 bound_to 7997
  154.9957  140.0388  157.2357 H   0  0  0  0  0  0  0  0  0  0  0  0  # atno 8009 bound_to 7997
  154.7646  140.2767  155.6191 H   0  0  0  0  0  0  0  0  0  0  0  0  # atno 8010 bound_to 7997
  140.7141  143.3405  151.2368 H   0  0  0  0  0  0  0  0  0  0  0  0  # atno 10167 bound_to 10162
  157.5412  130.8699  149.8825 H   0  0  0  0  0  0  0  0  0  0  0  0  # atno 10718 bound_to 10713
  153.0576  135.6544  154.0540 H   0  0  0  0  0  0  0  0  0  0  0  0  # atno 10763 bound_to 10752
  154.0215  135.2919  155.3382 H   0  0  0  0  0  0  0  0  0  0  0  0  # atno 10764 bound_to 10752
  154.6899  135.5287  153.8445 H   0  0  0  0  0  0  0  0  0  0  0  0  # atno 10765 bound_to 10752
  140.2306  134.8126  157.3313 H   0  0  0  0  0  0  0  0  0  0  0  0  # atno 11005 bound_to 11000
  144.8048  140.6280  143.6454 LP  0  0  0  0  0  0  0  0  0  0  0  0  # atno 17320 bound_to 7965
  145.4549  139.1519  143.3898 LP  0  0  0  0  0  0  0  0  0  0  0  0  # atno 17321 bound_to 7965
  139.6911  143.9691  152.2859 LP  0  0  0  0  0  0  0  0  0  0  0  0  # atno 17342 bound_to 10162
  139.9352  144.6716  150.8322 LP  0  0  0  0  0  0  0  0  0  0  0  0  # atno 17343 bound_to 10162
  156.0498  130.3720  150.1228 LP  0  0  0  0  0  0  0  0  0  0  0  0  # atno 17370 bound_to 10713
  156.9407  130.9743  151.3516 LP  0  0  0  0  0  0  0  0  0  0  0  0  # atno 17371 bound_to 10713
  140.1754  134.4556  155.7805 LP  0  0  0  0  0  0  0  0  0  0  0  0  # atno 17394 bound_to 11000
  141.2218  133.6960  156.7779 LP  0  0  0  0  0  0  0  0  0  0  0  0  # atno 17395 bound_to 11000

$$$$
