AV-unprocessed.smi:227|AV-procd|sdf|1737|dock4
  -GOLD-   2262020233D 1   1.00000     0.00000
 Structure written by MMmdl.
 54 58  0  0  0  0  0  0  0  0  1 V2000
  151.1852  132.7244  157.3521 O   0  0  0  0  0  0  0  0  0  0  0  0
  150.3753  131.7473  156.7313 C   0  0  0  0  0  0  0  0  0  0  0  0
  151.1046  131.0819  155.5382 C   0  0  2  0  0  0  0  0  0  0  0  0
  150.2597  129.9734  154.8621 C   0  0  0  0  0  0  0  0  0  0  0  0
  149.0893  130.4889  154.1729 N   0  0  0  0  0  0  0  0  0  0  0  0
  148.1016  129.7465  153.5692 C   0  0  0  0  0  0  0  0  0  0  0  0
  147.1507  130.4416  153.0080 N   0  0  0  0  0  0  0  0  0  0  0  0
  147.5082  131.7657  153.2392 C   0  0  0  0  0  0  0  0  0  0  0  0
  146.9347  133.0275  152.9065 C   0  0  0  0  0  0  0  0  0  0  0  0
  145.7803  133.1696  152.2001 N   0  0  0  0  0  0  0  0  0  0  0  0
  144.6644  133.9384  152.7309 C   0  0  1  0  0  0  0  0  0  0  0  0
  145.1084  135.4084  152.5766 C   0  0  0  0  0  0  0  0  0  0  0  0
  145.9358  135.3370  151.2838 C   0  0  0  0  0  0  0  0  0  0  0  0
  145.7885  133.8475  150.9126 C   0  0  2  0  0  0  0  0  0  0  0  0
  144.3566  133.5999  150.3876 C   0  0  1  0  0  0  0  0  0  0  0  0
  144.2016  132.2639  149.6376 C   0  0  0  0  0  0  0  0  0  0  0  0
  142.8527  132.0554  149.2772 O   0  0  0  0  0  0  0  0  0  0  0  0
  143.5576  133.6395  151.7066 C   0  0  0  0  0  0  0  0  0  0  0  0
  147.5772  134.1396  153.3535 N   0  0  0  0  0  0  0  0  0  0  0  0
  148.7120  134.0344  154.0497 C   0  0  0  0  0  0  0  0  0  0  0  0
  149.3670  132.9314  154.4135 N   0  0  0  0  0  0  0  0  0  0  0  0
  148.7204  131.8097  153.9865 C   0  0  0  0  0  0  0  0  0  0  0  0
  152.5145  130.5694  155.9273 C   0  0  1  0  0  0  0  0  0  0  0  0
  152.5436  129.6052  157.1001 C   0  0  0  0  0  0  0  0  0  0  0  0
  153.9093  128.9481  156.9389 C   0  0  0  0  0  0  0  0  0  0  0  0
  154.1388  128.8876  155.5363 O   0  0  0  0  0  0  0  0  0  0  0  0
  153.2081  129.7228  154.8538 C   0  0  0  0  0  0  0  0  0  0  0  0
  151.6122  133.2335  156.6800 H   0  0  0  0  0  0  0  0  0  0  0  0
  150.0855  131.0074  157.4775 H   0  0  0  0  0  0  0  0  0  0  0  0
  149.4490  132.2195  156.4051 H   0  0  0  0  0  0  0  0  0  0  0  0
  151.2443  131.8659  154.7925 H   0  0  0  0  0  0  0  0  0  0  0  0
  150.8564  129.4285  154.1307 H   0  0  0  0  0  0  0  0  0  0  0  0
  149.9363  129.2400  155.6018 H   0  0  0  0  0  0  0  0  0  0  0  0
  148.1116  128.6663  153.5549 H   0  0  0  0  0  0  0  0  0  0  0  0
  144.3703  133.6780  153.7483 H   0  0  0  0  0  0  0  0  0  0  0  0
  144.2645  136.0952  152.5026 H   0  0  0  0  0  0  0  0  0  0  0  0
  145.7305  135.7273  153.4136 H   0  0  0  0  0  0  0  0  0  0  0  0
  145.5691  136.0070  150.5055 H   0  0  0  0  0  0  0  0  0  0  0  0
  146.9789  135.5881  151.4810 H   0  0  0  0  0  0  0  0  0  0  0  0
  146.5498  133.5163  150.2088 H   0  0  0  0  0  0  0  0  0  0  0  0
  144.0404  134.4108  149.7294 H   0  0  0  0  0  0  0  0  0  0  0  0
  144.8216  132.2411  148.7406 H   0  0  0  0  0  0  0  0  0  0  0  0
  144.5193  131.4358  150.2717 H   0  0  0  0  0  0  0  0  0  0  0  0
  142.3968  132.8816  149.3318 H   0  0  0  0  0  0  0  0  0  0  0  0
  143.0930  132.6756  151.9196 H   0  0  0  0  0  0  0  0  0  0  0  0
  142.7717  134.3954  151.7026 H   0  0  0  0  0  0  0  0  0  0  0  0
  149.1585  134.9675  154.3600 H   0  0  0  0  0  0  0  0  0  0  0  0
  153.1578  131.4173  156.1690 H   0  0  0  0  0  0  0  0  0  0  0  0
  152.4317  130.0972  158.0667 H   0  0  0  0  0  0  0  0  0  0  0  0
  151.7543  128.8583  157.0017 H   0  0  0  0  0  0  0  0  0  0  0  0
  154.6847  129.5677  157.3913 H   0  0  0  0  0  0  0  0  0  0  0  0
  153.9551  127.9595  157.3962 H   0  0  0  0  0  0  0  0  0  0  0  0
  152.4898  129.0815  154.3414 H   0  0  0  0  0  0  0  0  0  0  0  0
  153.7095  130.3334  154.1027 H   0  0  0  0  0  0  0  0  0  0  0  0
  1  2  1  0  0  0  0
  1 28  1  0  0  0  0
  2  3  1  0  0  0  0
  2 29  1  0  0  0  0
  2 30  1  0  0  0  0
  3  4  1  0  0  0  0
  3 23  1  0  0  0  0
  3 31  1  0  0  0  0
  4  5  1  0  0  0  0
  4 32  1  0  0  0  0
  4 33  1  0  0  0  0
  5 22  1  0  0  0  0
  5  6  1  0  0  0  0
  6  7  2  0  0  0  0
  6 34  1  0  0  0  0
  7  8  1  0  0  0  0
  8 22  2  0  0  0  0
  8  9  1  0  0  0  0
  9 10  1  0  0  0  0
  9 19  2  0  0  0  0
 10 14  1  0  0  0  0
 10 11  1  0  0  0  0
 11 18  1  0  0  0  0
 11 12  1  0  0  0  0
 11 35  1  0  0  0  0
 12 13  1  0  0  0  0
 12 36  1  0  0  0  0
 12 37  1  0  0  0  0
 13 14  1  0  0  0  0
 13 38  1  0  0  0  0
 13 39  1  0  0  0  0
 14 15  1  0  0  0  0
 14 40  1  0  0  0  0
 15 16  1  0  0  0  0
 15 18  1  0  0  0  0
 15 41  1  0  0  0  0
 16 17  1  0  0  0  0
 16 42  1  0  0  0  0
 16 43  1  0  0  0  0
 17 44  1  0  0  0  0
 18 45  1  0  0  0  0
 18 46  1  0  0  0  0
 19 20  1  0  0  0  0
 20 21  2  0  0  0  0
 20 47  1  0  0  0  0
 21 22  1  0  0  0  0
 23 27  1  0  0  0  0
 23 24  1  0  0  0  0
 23 48  1  0  0  0  0
 24 25  1  0  0  0  0
 24 49  1  0  0  0  0
 24 50  1  0  0  0  0
 25 26  1  0  0  0  0
 25 51  1  0  0  0  0
 25 52  1  0  0  0  0
 26 27  1  0  0  0  0
 27 53  1  0  0  0  0
 27 54  1  0  0  0  0
M  END
> <s_m_source_file>
AV-unprocessed.smi

> <i_m_source_file_index>
227

> <i_lp_mmshare_version>
43012

> <i_f3d_flags>
0

> <s_epik_input>
W0NIMl0xT1tDSDJdW0NIMl1bQ0BIXTFbQ0BIXShbQ0gyXVtPSF0pW0NIMl1uKFtjSF1uMiljKGMyMyluW2NIXW5jM04oW0NASF00NSlbQ0BASF0oW0NIMl1bQ0gyXTQpW0NASF0oW0NIMl01KVtDSDJdW09IXQ==

> <s_epik_cmdline>
J2VwaWtfcHl0aG9uJywgJy1waCcsICc3LjAnLCAnLXRuJywgJzgnLCAnLW1hJywgJzIwMCcsICctbWV0YWxfYmluZGluZycsICctaW1hZScsICc8aW5maWxlLm1hZT4nLCAnLW9tYWUnLCAnPG91dGZpbGUubWFlPic=

> <r_lp_tautomer_probability>
1

> <r_epik_Ionization_Penalty>
0.0055791

> <r_epik_Ionization_Penalty_Charging>
0

> <r_epik_Ionization_Penalty_Neutral>
0.0055791

> <r_epik_State_Penalty>
0.00401299

> <r_epik_Charging_Adjusted_Penalty>
0.00401299

> <i_epik_Tot_Q>
0

> <i_epik_Tot_abs_Q>
0

> <r_epik_Metal_State_Penalty>
-0

> <b_epik_Metal_Only>
0

> <s_lp_Force_Field>
OPLS_2005

> <r_lp_Energy>
87.9703

> <b_lp_Chiralities_Consistent>
1

> <s_lp_Variant>
AV-unprocessed.smi:227-11

> <Gold.Version>
5.8.1

> <Gold.Id.Protein>
6NUR|6NUR_protein|mol2

> <Gold.PLP.Fitness>
49.2843

> <Gold.PLP.PLP>
-41.5817

> <Gold.PLP.part.hbond>
-4.0000

> <Gold.PLP.part.metal>
0.0000

> <Gold.PLP.part.buried>
-6.4964

> <Gold.PLP.part.nonpolar>
-32.6421

> <Gold.PLP.part.repulsive>
1.6585

> <Gold.PLP.ligand.clash>
0.0000

> <Gold.PLP.ligand.torsion>
0.2828

> <Gold.PLP.Chemscore.Hbond>
2.6413

> <Gold.PLP.Chemscore.CHOScore>
0.0378

> <Gold.PLP.Chemscore.Metal>
0.0000

> <Gold.Chemscore.Hbonds>
donor molecule, donor type, donor heavy atom, donor atom, acceptor molecule, acceptor atom, score
      L1  H    17    44       P1 10186  0.88
      P1  H  6896  6907       L1     1  1.00
      P1  H 10785 10796       L1    17  0.65
      L1  C    20    47       P1  7948  0.12

> <Gold.PLP.Chemscore.Internal.Correction>
0.2310

> <Gold.Rescore>
     Score         DG    S(hbond)    S(metal)    S(lipo)     H(rot)  DE(clash)    DE(int)     intcor
      6.32     -11.87       1.99        0.00      76.84       3.61       0.02       5.53       ----

> <Gold.Chemscore.Fitness>
6.3167

> <Gold.Chemscore.DG>
-11.8720

> <Gold.Chemscore.ZeroCoef>
-5.4800

> <Gold.Chemscore.Hbond>
1.9870

> <Gold.Chemscore.Metal>
0.0000

> <Gold.Chemscore.Lipo>
76.8354

> <Gold.Chemscore.Internal_Hbond>
0.0000

> <Gold.Chemscore.DEClash>
0.0243

> <Gold.Chemscore.DEInternal>
5.5309

> <Gold.Chemscore.Rot>
3.6071

> <Gold.Chemscore.Internal.Correction>
   9.000000E+99

> <Gold.Chemscore.Hbonds>
donor molecule, donor type, donor heavy atom, donor atom, acceptor molecule, acceptor atom, score
      L1  H    17    44       P1 10186  0.86
      P1  H  6896  6907       L1     1  0.90
      P1  H 10785 10796       L1    17  0.05

> <Gold.Chemscore.Hbond.Weighted>
-6.6364

> <Gold.Chemscore.Metal.Weighted>
-0.0000

> <Gold.Chemscore.Lipo.Weighted>
-8.9897

> <Gold.Chemscore.Internal_Hbond.Weighted>
0.0000

> <Gold.Chemscore.DEClash.Weighted>
0.0243

> <Gold.Chemscore.DEInternal.Weighted>
5.5309

> <Gold.Chemscore.Rot.Weighted>
9.2342

> <Gold.Chemscore.Internal.Correction.Weighted>
   9.000000E+99

> <Gold.Protein.RotatedTorsions>
[ 6907 6896 6895 6894 ] final -162.79 input  -60.11 | X-H torsion
[ 7974 7965 7964 7962 ] final  -46.43 input  175.53 | X-H torsion
[ 8008 7997 7996 7995 ] final  102.47 input   59.86 | X-H torsion
[ 10167 10162 10161 10158 ] final   52.09 input  -65.29 | X-H torsion
[ 10718 10713 10712 10709 ] final  -70.35 input   66.30 | X-H torsion
[ 10763 10752 10751 10750 ] final  -53.24 input  -60.55 | X-H torsion
[ 11005 11000 10999 10996 ] final -135.18 input  -57.11 | X-H torsion

> <Gold.Protein.ActiveResidues>
 VAL166  LYS551  ARG553  GLY616  TRP617  ASP618  TYR619  PRO620  LYS621  CYS622 
 ASP623  PHE694  ASN695  SER759  ASP760  ASP761  ALA762  ILE779  LEU786  VAL792 
 PHE793  MET794  SER795  GLU796  ALA797  LYS798  CYS799  TRP800  GLU811  SER814 

> <Gold.Protein.RotatedAtoms>
  151.3859  133.3805  159.2715 H   0  0  0  0  0  0  0  0  0  0  0  0  # atno 6907 bound_to 6896
  150.9542  134.8940  159.7701 H   0  0  0  0  0  0  0  0  0  0  0  0  # atno 6908 bound_to 6896
  152.5124  134.3815  159.9405 H   0  0  0  0  0  0  0  0  0  0  0  0  # atno 6909 bound_to 6896
  145.9719  140.7374  142.9406 H   0  0  0  0  0  0  0  0  0  0  0  0  # atno 7974 bound_to 7965
  156.1396  140.3180  155.8474 H   0  0  0  0  0  0  0  0  0  0  0  0  # atno 8008 bound_to 7997
  155.4179  140.0510  157.3044 H   0  0  0  0  0  0  0  0  0  0  0  0  # atno 8009 bound_to 7997
  154.4965  140.2113  155.9448 H   0  0  0  0  0  0  0  0  0  0  0  0  # atno 8010 bound_to 7997
  140.2550  144.3436  150.6336 H   0  0  0  0  0  0  0  0  0  0  0  0  # atno 10167 bound_to 10162
  156.0412  130.4330  150.2282 H   0  0  0  0  0  0  0  0  0  0  0  0  # atno 10718 bound_to 10713
  154.1557  135.6483  153.4974 H   0  0  0  0  0  0  0  0  0  0  0  0  # atno 10763 bound_to 10752
  153.0125  135.5348  154.6762 H   0  0  0  0  0  0  0  0  0  0  0  0  # atno 10764 bound_to 10752
  154.6062  135.2949  155.0453 H   0  0  0  0  0  0  0  0  0  0  0  0  # atno 10765 bound_to 10752
  140.8922  134.1798  157.4520 H   0  0  0  0  0  0  0  0  0  0  0  0  # atno 11005 bound_to 11000
  144.6839  140.2764  143.7298 LP  0  0  0  0  0  0  0  0  0  0  0  0  # atno 17320 bound_to 7965
  145.7893  139.1921  143.2112 LP  0  0  0  0  0  0  0  0  0  0  0  0  # atno 17321 bound_to 7965
  140.6011  143.2167  151.7071 LP  0  0  0  0  0  0  0  0  0  0  0  0  # atno 17342 bound_to 10162
  139.5034  144.3792  152.0393 LP  0  0  0  0  0  0  0  0  0  0  0  0  # atno 17343 bound_to 10162
  157.0377  131.0026  151.3293 LP  0  0  0  0  0  0  0  0  0  0  0  0  # atno 17370 bound_to 10713
  157.5232  130.8011  149.7832 LP  0  0  0  0  0  0  0  0  0  0  0  0  # atno 17371 bound_to 10713
  139.8731  134.9863  156.5319 LP  0  0  0  0  0  0  0  0  0  0  0  0  # atno 17394 bound_to 11000
  140.8333  133.8262  155.9005 LP  0  0  0  0  0  0  0  0  0  0  0  0  # atno 17395 bound_to 11000

$$$$
