AV-unprocessed.smi:2421|AV-procd|sdf|9555|dock10
  -GOLD-   2272013183D 1   1.00000     0.00000
 Structure written by MMmdl.
 44 46  0  0  0  0  0  0  0  0  1 V2000
  147.7000  133.1562  152.0662 C   0  0  0  0  0  0  0  0  0  0  0  0
  148.4200  132.8639  153.3507 C   0  0  0  0  0  0  0  0  0  0  0  0
  148.6757  131.6128  153.7028 N   0  0  0  0  0  0  0  0  0  0  0  0
  149.3590  131.6754  154.9296 O   0  0  0  0  0  0  0  0  0  0  0  0
  149.5014  132.9790  155.2916 C   0  0  0  0  0  0  0  0  0  0  0  0
  150.2125  133.2615  156.5711 C   0  0  0  0  0  0  0  0  0  0  0  0
  148.9182  133.7551  154.3355 C   0  0  0  0  0  0  0  0  0  0  0  0
  148.8638  135.1637  154.3073 N   0  0  0  0  0  0  0  0  0  0  0  0
  149.8378  135.9617  154.7749 C   0  0  0  0  0  0  0  0  0  0  0  0
  150.9124  135.5421  155.2012 O   0  0  0  0  0  0  0  0  0  0  0  0
  149.5558  137.2765  154.7328 N   0  0  0  0  0  0  0  0  0  0  0  0
  150.3963  138.3962  155.1622 C   0  0  2  0  0  0  0  0  0  0  0  0
  151.8487  138.1477  154.7373 C   0  0  0  0  0  0  0  0  0  0  0  0
  152.7599  139.2692  155.2556 C   0  0  0  0  0  0  0  0  0  0  0  0
  152.6418  139.4006  156.6710 O   0  0  0  0  0  0  0  0  0  0  0  0
  151.3256  139.6635  157.1720 C   0  0  0  0  0  0  0  0  0  0  0  0
  150.8717  141.1005  156.8579 C   0  0  0  0  0  0  0  0  0  0  0  0
  151.6472  141.9883  157.8355 C   0  0  0  0  0  0  0  0  0  0  0  0
  151.9871  141.0961  159.0377 C   0  0  0  0  0  0  0  0  0  0  0  0
  151.4478  139.7007  158.7001 C   0  0  0  0  0  0  0  0  0  0  0  0
  150.3502  138.5676  156.6907 C   0  0  0  0  0  0  0  0  0  0  0  0
  147.5358  134.2262  151.9371 H   0  0  0  0  0  0  0  0  0  0  0  0
  146.7257  132.6678  152.0437 H   0  0  0  0  0  0  0  0  0  0  0  0
  148.2716  132.8033  151.2075 H   0  0  0  0  0  0  0  0  0  0  0  0
  150.2167  134.3298  156.7886 H   0  0  0  0  0  0  0  0  0  0  0  0
  151.2471  132.9222  156.5204 H   0  0  0  0  0  0  0  0  0  0  0  0
  149.7278  132.7502  157.4026 H   0  0  0  0  0  0  0  0  0  0  0  0
  148.0172  135.5884  153.9575 H   0  0  0  0  0  0  0  0  0  0  0  0
  148.6643  137.5291  154.3312 H   0  0  0  0  0  0  0  0  0  0  0  0
  150.0560  139.3138  154.6791 H   0  0  0  0  0  0  0  0  0  0  0  0
  152.1952  137.1915  155.1324 H   0  0  0  0  0  0  0  0  0  0  0  0
  151.9214  138.0822  153.6510 H   0  0  0  0  0  0  0  0  0  0  0  0
  153.7989  139.0399  155.0185 H   0  0  0  0  0  0  0  0  0  0  0  0
  152.5353  140.2118  154.7576 H   0  0  0  0  0  0  0  0  0  0  0  0
  151.0110  141.4020  155.8208 H   0  0  0  0  0  0  0  0  0  0  0  0
  149.8057  141.1959  157.0693 H   0  0  0  0  0  0  0  0  0  0  0  0
  152.5675  142.3408  157.3681 H   0  0  0  0  0  0  0  0  0  0  0  0
  151.0698  142.8670  158.1247 H   0  0  0  0  0  0  0  0  0  0  0  0
  153.0684  141.0594  159.1765 H   0  0  0  0  0  0  0  0  0  0  0  0
  151.5518  141.4753  159.9628 H   0  0  0  0  0  0  0  0  0  0  0  0
  150.4608  139.5844  159.1507 H   0  0  0  0  0  0  0  0  0  0  0  0
  152.0786  138.9024  159.0931 H   0  0  0  0  0  0  0  0  0  0  0  0
  149.3364  138.7948  157.0227 H   0  0  0  0  0  0  0  0  0  0  0  0
  150.6187  137.6214  157.1635 H   0  0  0  0  0  0  0  0  0  0  0  0
  1  2  1  0  0  0  0
  1 22  1  0  0  0  0
  1 23  1  0  0  0  0
  1 24  1  0  0  0  0
  2  7  1  0  0  0  0
  2  3  2  0  0  0  0
  3  4  1  0  0  0  0
  4  5  1  0  0  0  0
  5  6  1  0  0  0  0
  5  7  2  0  0  0  0
  6 25  1  0  0  0  0
  6 26  1  0  0  0  0
  6 27  1  0  0  0  0
  7  8  1  0  0  0  0
  8  9  1  0  0  0  0
  8 28  1  0  0  0  0
  9 10  2  0  0  0  0
  9 11  1  0  0  0  0
 11 12  1  0  0  0  0
 11 29  1  0  0  0  0
 12 21  1  0  0  0  0
 12 13  1  0  0  0  0
 12 30  1  0  0  0  0
 13 14  1  0  0  0  0
 13 31  1  0  0  0  0
 13 32  1  0  0  0  0
 14 15  1  0  0  0  0
 14 33  1  0  0  0  0
 14 34  1  0  0  0  0
 15 16  1  0  0  0  0
 16 20  1  0  0  0  0
 16 17  1  0  0  0  0
 16 21  1  0  0  0  0
 17 18  1  0  0  0  0
 17 35  1  0  0  0  0
 17 36  1  0  0  0  0
 18 19  1  0  0  0  0
 18 37  1  0  0  0  0
 18 38  1  0  0  0  0
 19 20  1  0  0  0  0
 19 39  1  0  0  0  0
 19 40  1  0  0  0  0
 20 41  1  0  0  0  0
 20 42  1  0  0  0  0
 21 43  1  0  0  0  0
 21 44  1  0  0  0  0
M  END
> <s_m_source_file>
AV-unprocessed.smi

> <i_m_source_file_index>
2421

> <i_lp_mmshare_version>
43012

> <i_f3d_flags>
0

> <s_epik_input>
W0NIM11jMW5vYyhbQ0gzXSljMVtOSF1DKD1PKVtOSF1bQ0BASF0oW0NIMl0yKVtDSDJdW0NIMl1PQzIzW0NIMl1bQ0gyXVtDSDJdW0NIMl0z

> <s_epik_cmdline>
J2VwaWtfcHl0aG9uJywgJy1waCcsICc3LjAnLCAnLXRuJywgJzgnLCAnLW1hJywgJzIwMCcsICctbWV0YWxfYmluZGluZycsICctaW1hZScsICc8aW5maWxlLm1hZT4nLCAnLW9tYWUnLCAnPG91dGZpbGUubWFlPic=

> <r_lp_tautomer_probability>
1

> <r_epik_Ionization_Penalty>
3.59808e-05

> <r_epik_Ionization_Penalty_Charging>
0

> <r_epik_Ionization_Penalty_Neutral>
3.59808e-05

> <r_epik_State_Penalty>
-0

> <r_epik_Charging_Adjusted_Penalty>
0

> <i_epik_Tot_Q>
0

> <i_epik_Tot_abs_Q>
0

> <r_epik_Metal_State_Penalty>
-0

> <b_epik_Metal_Only>
0

> <s_lp_Force_Field>
OPLS_2005

> <r_lp_Energy>
43.4187

> <b_lp_Chiralities_Consistent>
1

> <s_lp_Variant>
AV-unprocessed.smi:2421-1

> <Gold.Version>
5.8.1

> <Gold.Id.Protein>
6NUR|6NUR_protein|mol2

> <Gold.PLP.Fitness>
38.9608

> <Gold.PLP.PLP>
-33.4812

> <Gold.PLP.part.hbond>
-3.7187

> <Gold.PLP.part.metal>
0.0000

> <Gold.PLP.part.buried>
-2.1494

> <Gold.PLP.part.nonpolar>
-28.1075

> <Gold.PLP.part.repulsive>
0.2482

> <Gold.PLP.ligand.clash>
0.0000

> <Gold.PLP.ligand.torsion>
0.5114

> <Gold.PLP.Chemscore.Hbond>
2.0000

> <Gold.PLP.Chemscore.CHOScore>
0.0000

> <Gold.PLP.Chemscore.Metal>
0.0000

> <Gold.Chemscore.Hbonds>
donor molecule, donor type, donor heavy atom, donor atom, acceptor molecule, acceptor atom, score
      P1  H  7997  8009       L1    15  0.25
      P1  H 10752 10765       L1    10  0.80

> <Gold.PLP.Chemscore.Internal.Correction>
0.5025

> <Gold.Rescore>
     Score         DG    S(hbond)    S(metal)    S(lipo)     H(rot)  DE(clash)    DE(int)     intcor
     13.85     -19.70       1.92        0.00      88.66       1.00       1.41       4.43       ----

> <Gold.Chemscore.Fitness>
13.8509

> <Gold.Chemscore.DG>
-19.6980

> <Gold.Chemscore.ZeroCoef>
-5.4800

> <Gold.Chemscore.Hbond>
1.9175

> <Gold.Chemscore.Metal>
0.0000

> <Gold.Chemscore.Lipo>
88.6630

> <Gold.Chemscore.Internal_Hbond>
0.0000

> <Gold.Chemscore.DEClash>
1.4134

> <Gold.Chemscore.DEInternal>
4.4336

> <Gold.Chemscore.Rot>
1.0000

> <Gold.Chemscore.Internal.Correction>
   9.000000E+99

> <Gold.Chemscore.Hbonds>
donor molecule, donor type, donor heavy atom, donor atom, acceptor molecule, acceptor atom, score
      P1  H 10752 10765       L1    10  0.77

> <Gold.Chemscore.Hbond.Weighted>
-6.4044

> <Gold.Chemscore.Metal.Weighted>
-0.0000

> <Gold.Chemscore.Lipo.Weighted>
-10.3736

> <Gold.Chemscore.Internal_Hbond.Weighted>
0.0000

> <Gold.Chemscore.DEClash.Weighted>
1.4134

> <Gold.Chemscore.DEInternal.Weighted>
4.4336

> <Gold.Chemscore.Rot.Weighted>
2.5600

> <Gold.Chemscore.Internal.Correction.Weighted>
   9.000000E+99

> <Gold.Protein.RotatedTorsions>
[ 6907 6896 6895 6894 ] final  -14.61 input  -60.11 | X-H torsion
[ 7974 7965 7964 7962 ] final   44.87 input  175.53 | X-H torsion
[ 8008 7997 7996 7995 ] final -176.66 input   59.86 | X-H torsion
[ 10167 10162 10161 10158 ] final -101.07 input  -65.29 | X-H torsion
[ 10718 10713 10712 10709 ] final  105.64 input   66.30 | X-H torsion
[ 10763 10752 10751 10750 ] final  176.67 input  -60.55 | X-H torsion
[ 11005 11000 10999 10996 ] final   33.63 input  -57.11 | X-H torsion

> <Gold.Protein.ActiveResidues>
 VAL166  LYS551  ARG553  GLY616  TRP617  ASP618  TYR619  PRO620  LYS621  CYS622 
 ASP623  PHE694  ASN695  SER759  ASP760  ASP761  ALA762  ILE779  LEU786  VAL792 
 PHE793  MET794  SER795  GLU796  ALA797  LYS798  CYS799  TRP800  GLU811  SER814 

> <Gold.Protein.RotatedAtoms>
  151.3367  135.0854  159.9356 H   0  0  0  0  0  0  0  0  0  0  0  0  # atno 6907 bound_to 6896
  152.5221  133.9488  159.7672 H   0  0  0  0  0  0  0  0  0  0  0  0  # atno 6908 bound_to 6896
  150.9837  133.6166  159.2748 H   0  0  0  0  0  0  0  0  0  0  0  0  # atno 6909 bound_to 6896
  146.0531  139.5027  142.9706 H   0  0  0  0  0  0  0  0  0  0  0  0  # atno 7974 bound_to 7965
  155.9975  140.1213  157.0579 H   0  0  0  0  0  0  0  0  0  0  0  0  # atno 8008 bound_to 7997
  154.4231  140.1113  156.5720 H   0  0  0  0  0  0  0  0  0  0  0  0  # atno 8009 bound_to 7997
  155.6258  140.3472  155.4669 H   0  0  0  0  0  0  0  0  0  0  0  0  # atno 8010 bound_to 7997
  140.2452  143.3510  152.0765 H   0  0  0  0  0  0  0  0  0  0  0  0  # atno 10167 bound_to 10162
  157.6698  131.0832  150.5888 H   0  0  0  0  0  0  0  0  0  0  0  0  # atno 10718 bound_to 10713
  154.4842  135.2776  155.1547 H   0  0  0  0  0  0  0  0  0  0  0  0  # atno 10763 bound_to 10752
  154.3245  135.6203  153.5526 H   0  0  0  0  0  0  0  0  0  0  0  0  # atno 10764 bound_to 10752
  152.9879  135.5750  154.5249 H   0  0  0  0  0  0  0  0  0  0  0  0  # atno 10765 bound_to 10752
  140.2611  134.3191  155.7857 H   0  0  0  0  0  0  0  0  0  0  0  0  # atno 11005 bound_to 11000
  145.6691  141.0221  143.1667 LP  0  0  0  0  0  0  0  0  0  0  0  0  # atno 17320 bound_to 7965
  144.7133  139.8289  143.7407 LP  0  0  0  0  0  0  0  0  0  0  0  0  # atno 17321 bound_to 7965
  139.5064  144.6813  151.6002 LP  0  0  0  0  0  0  0  0  0  0  0  0  # atno 17342 bound_to 10162
  140.6083  143.9484  150.6434 LP  0  0  0  0  0  0  0  0  0  0  0  0  # atno 17343 bound_to 10162
  156.6188  130.4400  149.5830 LP  0  0  0  0  0  0  0  0  0  0  0  0  # atno 17370 bound_to 10713
  156.2372  130.6830  151.1521 LP  0  0  0  0  0  0  0  0  0  0  0  0  # atno 17371 bound_to 10713
  141.2190  133.7410  156.9188 LP  0  0  0  0  0  0  0  0  0  0  0  0  # atno 17394 bound_to 11000
  140.1464  134.9260  157.2534 LP  0  0  0  0  0  0  0  0  0  0  0  0  # atno 17395 bound_to 11000

$$$$
