AV-unprocessed.smi:676|AV-procd|sdf|3307|dock5
  -GOLD-   22720 0273D 1   1.00000     0.00000
 Structure written by MMmdl.
 42 43  0  0  0  0  0  0  0  0  1 V2000
  151.8778  139.6856  155.5453 C   0  0  0  0  0  0  0  0  0  0  0  0
  150.7882  140.4166  154.9958 O   0  0  0  0  0  0  0  0  0  0  0  0
  149.4932  139.8026  155.0368 C   0  0  1  0  0  0  0  0  0  0  0  0
  149.4763  138.5422  154.1620 C   0  0  0  0  0  0  0  0  0  0  0  0
  148.9865  139.7199  156.4900 C   0  0  0  0  0  0  0  0  0  0  0  0
  148.3891  141.1203  156.3284 C   0  0  1  0  0  0  0  0  0  0  0  0
  149.3098  142.1580  156.7910 N   0  0  0  0  0  0  0  0  0  0  0  0
  150.0824  142.0667  157.8817 C   0  0  0  0  0  0  0  0  0  0  0  0
  150.1039  141.0763  158.6133 O   0  0  0  0  0  0  0  0  0  0  0  0
  150.9861  143.2729  158.1694 C   0  0  0  0  0  0  0  0  0  0  0  0
  151.6518  143.1882  159.4793 N   0  0  0  0  0  0  0  0  0  0  0  0
  151.3467  144.1903  160.4221 C   0  0  0  0  0  0  0  0  0  0  0  0
  151.9003  144.2066  161.6448 C   0  0  0  0  0  0  0  0  0  0  0  0
  152.8315  143.1573  161.9867 C   0  0  0  0  0  0  0  0  0  0  0  0
  153.1334  142.1966  161.0908 C   0  0  0  0  0  0  0  0  0  0  0  0
  152.5351  142.1783  159.7508 C   0  0  0  0  0  0  0  0  0  0  0  0
  152.8097  141.3074  158.9244 O   0  0  0  0  0  0  0  0  0  0  0  0
  148.4141  140.9079  154.7925 C   0  0  0  0  0  0  0  0  0  0  0  0
  148.8158  142.0966  153.9033 C   0  0  0  0  0  0  0  0  0  0  0  0
  147.0720  140.4167  154.2291 C   0  0  0  0  0  0  0  0  0  0  0  0
  152.7530  140.3336  155.5883 H   0  0  0  0  0  0  0  0  0  0  0  0
  152.1424  138.8301  154.9240 H   0  0  0  0  0  0  0  0  0  0  0  0
  151.6778  139.3354  156.5574 H   0  0  0  0  0  0  0  0  0  0  0  0
  148.4796  138.1083  154.0930 H   0  0  0  0  0  0  0  0  0  0  0  0
  150.1178  137.7580  154.5629 H   0  0  0  0  0  0  0  0  0  0  0  0
  149.8083  138.7609  153.1468 H   0  0  0  0  0  0  0  0  0  0  0  0
  148.2179  138.9568  156.6216 H   0  0  0  0  0  0  0  0  0  0  0  0
  149.7485  139.6336  157.2644 H   0  0  0  0  0  0  0  0  0  0  0  0
  147.3802  141.2091  156.7356 H   0  0  0  0  0  0  0  0  0  0  0  0
  149.3627  142.9999  156.2357 H   0  0  0  0  0  0  0  0  0  0  0  0
  151.7234  143.3415  157.3685 H   0  0  0  0  0  0  0  0  0  0  0  0
  150.4060  144.1954  158.1014 H   0  0  0  0  0  0  0  0  0  0  0  0
  150.6474  144.9417  160.0852 H   0  0  0  0  0  0  0  0  0  0  0  0
  151.6587  144.9860  162.3524 H   0  0  0  0  0  0  0  0  0  0  0  0
  153.2882  143.1427  162.9653 H   0  0  0  0  0  0  0  0  0  0  0  0
  153.8320  141.4194  161.3639 H   0  0  0  0  0  0  0  0  0  0  0  0
  148.0699  142.8913  153.9409 H   0  0  0  0  0  0  0  0  0  0  0  0
  148.9215  141.7947  152.8609 H   0  0  0  0  0  0  0  0  0  0  0  0
  149.7649  142.5437  154.1979 H   0  0  0  0  0  0  0  0  0  0  0  0
  146.3132  141.1989  154.2699 H   0  0  0  0  0  0  0  0  0  0  0  0
  146.6793  139.5687  154.7910 H   0  0  0  0  0  0  0  0  0  0  0  0
  147.1609  140.1024  153.1887 H   0  0  0  0  0  0  0  0  0  0  0  0
  1  2  1  0  0  0  0
  1 21  1  0  0  0  0
  1 22  1  0  0  0  0
  1 23  1  0  0  0  0
  2  3  1  0  0  0  0
  3 18  1  0  0  0  0
  3  4  1  0  0  0  0
  3  5  1  0  0  0  0
  4 24  1  0  0  0  0
  4 25  1  0  0  0  0
  4 26  1  0  0  0  0
  5  6  1  0  0  0  0
  5 27  1  0  0  0  0
  5 28  1  0  0  0  0
  6  7  1  0  0  0  0
  6 18  1  0  0  0  0
  6 29  1  0  0  0  0
  7  8  1  0  0  0  0
  7 30  1  0  0  0  0
  8  9  2  0  0  0  0
  8 10  1  0  0  0  0
 10 11  1  0  0  0  0
 10 31  1  0  0  0  0
 10 32  1  0  0  0  0
 11 16  1  0  0  0  0
 11 12  1  0  0  0  0
 12 13  2  0  0  0  0
 12 33  1  0  0  0  0
 13 14  1  0  0  0  0
 13 34  1  0  0  0  0
 14 15  2  0  0  0  0
 14 35  1  0  0  0  0
 15 16  1  0  0  0  0
 15 36  1  0  0  0  0
 16 17  2  0  0  0  0
 18 19  1  0  0  0  0
 18 20  1  0  0  0  0
 19 37  1  0  0  0  0
 19 38  1  0  0  0  0
 19 39  1  0  0  0  0
 20 40  1  0  0  0  0
 20 41  1  0  0  0  0
 20 42  1  0  0  0  0
M  END
> <s_m_source_file>
AV-unprocessed.smi

> <i_m_source_file_index>
676

> <i_lp_mmshare_version>
43012

> <i_f3d_flags>
0

> <s_epik_input>
W0NIM11PW0NAQF0xKFtDSDNdKVtDSDJdW0NASF0oQzEoW0NIM10pW0NIM10pW05IXUMoPU8pW0NIMl1uMltjSF1bY0hdW2NIXVtjSF1jMj1P

> <s_epik_cmdline>
J2VwaWtfcHl0aG9uJywgJy1waCcsICc3LjAnLCAnLXRuJywgJzgnLCAnLW1hJywgJzIwMCcsICctbWV0YWxfYmluZGluZycsICctaW1hZScsICc8aW5maWxlLm1hZT4nLCAnLW9tYWUnLCAnPG91dGZpbGUubWFlPic=

> <r_lp_tautomer_probability>
1

> <r_epik_Ionization_Penalty>
4.09771e-07

> <r_epik_Ionization_Penalty_Charging>
3.90712e-07

> <r_epik_Ionization_Penalty_Neutral>
1.90591e-08

> <r_epik_State_Penalty>
-0

> <r_epik_Charging_Adjusted_Penalty>
3.90712e-07

> <i_epik_Tot_Q>
0

> <i_epik_Tot_abs_Q>
0

> <r_epik_Metal_State_Penalty>
-0

> <b_epik_Metal_Only>
0

> <s_lp_Force_Field>
OPLS_2005

> <r_lp_Energy>
33.6273

> <b_lp_Chiralities_Consistent>
1

> <s_lp_Variant>
AV-unprocessed.smi:676-1

> <Gold.Version>
5.8.1

> <Gold.Id.Protein>
6NUR|6NUR_protein|mol2

> <Gold.PLP.Fitness>
43.1058

> <Gold.PLP.PLP>
-37.6803

> <Gold.PLP.part.hbond>
-2.0049

> <Gold.PLP.part.metal>
0.0000

> <Gold.PLP.part.buried>
-1.0537

> <Gold.PLP.part.nonpolar>
-33.6522

> <Gold.PLP.part.repulsive>
0.0702

> <Gold.PLP.ligand.clash>
0.0000

> <Gold.PLP.ligand.torsion>
0.4455

> <Gold.PLP.Chemscore.Hbond>
1.9760

> <Gold.PLP.Chemscore.CHOScore>
0.0000

> <Gold.PLP.Chemscore.Metal>
0.0000

> <Gold.Chemscore.Hbonds>
donor molecule, donor type, donor heavy atom, donor atom, acceptor molecule, acceptor atom, score
      L1  H     7    30       P1  8028  1.00
      P1  H  7989  7998       L1     2  0.80

> <Gold.PLP.Chemscore.Internal.Correction>
0.3884

> <Gold.Rescore>
     Score         DG    S(hbond)    S(metal)    S(lipo)     H(rot)  DE(clash)    DE(int)     intcor
     11.89     -17.90       1.43        0.00     100.72       1.62       1.67       4.33       ----

> <Gold.Chemscore.Fitness>
11.8949

> <Gold.Chemscore.DG>
-17.9018

> <Gold.Chemscore.ZeroCoef>
-5.4800

> <Gold.Chemscore.Hbond>
1.4307

> <Gold.Chemscore.Metal>
0.0000

> <Gold.Chemscore.Lipo>
100.7188

> <Gold.Chemscore.Internal_Hbond>
0.0000

> <Gold.Chemscore.DEClash>
1.6722

> <Gold.Chemscore.DEInternal>
4.3347

> <Gold.Chemscore.Rot>
1.6175

> <Gold.Chemscore.Internal.Correction>
   9.000000E+99

> <Gold.Chemscore.Hbonds>
donor molecule, donor type, donor heavy atom, donor atom, acceptor molecule, acceptor atom, score
      L1  H     7    30       P1  8028  0.99
      P1  H  7989  7998       L1     2  0.11

> <Gold.Chemscore.Hbond.Weighted>
-4.7784

> <Gold.Chemscore.Metal.Weighted>
-0.0000

> <Gold.Chemscore.Lipo.Weighted>
-11.7841

> <Gold.Chemscore.Internal_Hbond.Weighted>
0.0000

> <Gold.Chemscore.DEClash.Weighted>
1.6722

> <Gold.Chemscore.DEInternal.Weighted>
4.3347

> <Gold.Chemscore.Rot.Weighted>
4.1408

> <Gold.Chemscore.Internal.Correction.Weighted>
   9.000000E+99

> <Gold.Protein.RotatedTorsions>
[ 6907 6896 6895 6894 ] final -121.48 input  -60.11 | X-H torsion
[ 7974 7965 7964 7962 ] final  114.87 input  175.53 | X-H torsion
[ 8008 7997 7996 7995 ] final  -94.13 input   59.86 | X-H torsion
[ 10167 10162 10161 10158 ] final   13.39 input  -65.29 | X-H torsion
[ 10718 10713 10712 10709 ] final  174.19 input   66.30 | X-H torsion
[ 10763 10752 10751 10750 ] final -176.92 input  -60.55 | X-H torsion
[ 11005 11000 10999 10996 ] final -115.75 input  -57.11 | X-H torsion

> <Gold.Protein.ActiveResidues>
 VAL166  LYS551  ARG553  GLY616  TRP617  ASP618  TYR619  PRO620  LYS621  CYS622 
 ASP623  PHE694  ASN695  SER759  ASP760  ASP761  ALA762  ILE779  LEU786  VAL792 
 PHE793  MET794  SER795  GLU796  ALA797  LYS798  CYS799  TRP800  GLU811  SER814 

> <Gold.Protein.RotatedAtoms>
  150.8487  133.7821  159.3033 H   0  0  0  0  0  0  0  0  0  0  0  0  # atno 6907 bound_to 6896
  151.5499  135.1066  159.9957 H   0  0  0  0  0  0  0  0  0  0  0  0  # atno 6908 bound_to 6896
  152.4535  133.7633  159.6814 H   0  0  0  0  0  0  0  0  0  0  0  0  # atno 6909 bound_to 6896
  145.1991  139.2961  143.4328 H   0  0  0  0  0  0  0  0  0  0  0  0  # atno 7974 bound_to 7965
  154.7445  140.0492  157.0840 H   0  0  0  0  0  0  0  0  0  0  0  0  # atno 8008 bound_to 7997
  155.0136  140.3139  155.4801 H   0  0  0  0  0  0  0  0  0  0  0  0  # atno 8009 bound_to 7997
  156.2871  140.2179  156.5252 H   0  0  0  0  0  0  0  0  0  0  0  0  # atno 8010 bound_to 7997
  140.6006  143.8612  150.6961 H   0  0  0  0  0  0  0  0  0  0  0  0  # atno 10167 bound_to 10162
  156.9532  131.0037  151.2944 H   0  0  0  0  0  0  0  0  0  0  0  0  # atno 10718 bound_to 10713
  154.5665  135.2824  155.0869 H   0  0  0  0  0  0  0  0  0  0  0  0  # atno 10763 bound_to 10752
  154.2258  135.6383  153.5163 H   0  0  0  0  0  0  0  0  0  0  0  0  # atno 10764 bound_to 10752
  153.0044  135.5525  154.6275 H   0  0  0  0  0  0  0  0  0  0  0  0  # atno 10765 bound_to 10752
  141.0467  133.9751  157.2905 H   0  0  0  0  0  0  0  0  0  0  0  0  # atno 11005 bound_to 11000
  146.3421  140.2229  142.8592 LP  0  0  0  0  0  0  0  0  0  0  0  0  # atno 17320 bound_to 7965
  144.9966  140.8594  143.5307 LP  0  0  0  0  0  0  0  0  0  0  0  0  # atno 17321 bound_to 7965
  140.2157  143.3848  152.1683 LP  0  0  0  0  0  0  0  0  0  0  0  0  # atno 17342 bound_to 10162
  139.5288  144.7135  151.5130 LP  0  0  0  0  0  0  0  0  0  0  0  0  # atno 17343 bound_to 10162
  157.5708  130.8309  149.8389 LP  0  0  0  0  0  0  0  0  0  0  0  0  # atno 17370 bound_to 10713
  156.0354  130.3753  150.1575 LP  0  0  0  0  0  0  0  0  0  0  0  0  # atno 17371 bound_to 10713
  139.9318  135.0199  156.8424 LP  0  0  0  0  0  0  0  0  0  0  0  0  # atno 17394 bound_to 11000
  140.6132  134.0063  155.7586 LP  0  0  0  0  0  0  0  0  0  0  0  0  # atno 17395 bound_to 11000

$$$$
