AV-unprocessed.smi:1028|AV-procd|sdf|4473|dock1
  -GOLD-   22720 2453D 1   1.00000     0.00000
 Structure written by MMmdl.
 43 44  0  0  0  0  0  0  0  0  1 V2000
  146.5030  145.8812  160.5927 C   0  0  0  0  0  0  0  0  0  0  0  0
  146.9454  144.4635  161.0056 C   0  0  0  0  0  0  0  0  0  0  0  0
  148.3415  144.5192  161.6561 C   0  0  0  0  0  0  0  0  0  0  0  0
  145.9479  143.9422  162.0621 C   0  0  0  0  0  0  0  0  0  0  0  0
  146.9783  143.5590  159.7893 C   0  0  0  0  0  0  0  0  0  0  0  0
  145.9756  143.3269  158.8754 C   0  0  0  0  0  0  0  0  0  0  0  0
  146.4636  142.2175  157.6236 S   0  0  0  0  0  0  0  0  0  0  0  0
  148.0339  142.0840  158.3995 C   0  0  0  0  0  0  0  0  0  0  0  0
  149.1489  141.2559  157.8560 C   0  0  0  0  0  0  0  0  0  0  0  0
  150.1855  142.0985  157.0967 C   0  0  0  0  0  0  0  0  0  0  0  0
  151.2457  142.5694  157.9802 N   0  0  0  0  0  0  0  0  0  0  0  0
  152.1621  141.7869  158.5706 C   0  0  0  0  0  0  0  0  0  0  0  0
  152.1997  140.5648  158.4228 O   0  0  0  0  0  0  0  0  0  0  0  0
  153.1891  142.4950  159.4694 C   0  0  0  0  0  0  0  0  0  0  0  0
  153.4269  141.7285  160.7918 C   0  0  0  0  0  0  0  0  0  0  0  0
  153.0684  142.6871  161.9338 C   0  0  0  0  0  0  0  0  0  0  0  0
  152.1523  143.7326  161.3055 C   0  0  0  0  0  0  0  0  0  0  0  0
  152.7063  143.8967  159.8914 C   0  0  0  0  0  0  0  0  0  0  0  0
  148.1453  142.8419  159.4926 N   0  0  0  0  0  0  0  0  0  0  0  0
  146.4533  146.5488  161.4535 H   0  0  0  0  0  0  0  0  0  0  0  0
  145.5160  145.8688  160.1287 H   0  0  0  0  0  0  0  0  0  0  0  0
  147.1958  146.3263  159.8778 H   0  0  0  0  0  0  0  0  0  0  0  0
  149.0881  144.9235  160.9719 H   0  0  0  0  0  0  0  0  0  0  0  0
  148.6775  143.5267  161.9582 H   0  0  0  0  0  0  0  0  0  0  0  0
  148.3416  145.1519  162.5444 H   0  0  0  0  0  0  0  0  0  0  0  0
  145.9210  144.5930  162.9368 H   0  0  0  0  0  0  0  0  0  0  0  0
  146.2173  142.9445  162.4105 H   0  0  0  0  0  0  0  0  0  0  0  0
  144.9331  143.8930  161.6652 H   0  0  0  0  0  0  0  0  0  0  0  0
  144.9792  143.7425  158.8548 H   0  0  0  0  0  0  0  0  0  0  0  0
  149.6262  140.7258  158.6812 H   0  0  0  0  0  0  0  0  0  0  0  0
  148.7241  140.4949  157.2005 H   0  0  0  0  0  0  0  0  0  0  0  0
  150.6109  141.5279  156.2693 H   0  0  0  0  0  0  0  0  0  0  0  0
  149.7023  142.9708  156.6556 H   0  0  0  0  0  0  0  0  0  0  0  0
  151.2861  143.5629  158.1552 H   0  0  0  0  0  0  0  0  0  0  0  0
  154.1293  142.5928  158.9237 H   0  0  0  0  0  0  0  0  0  0  0  0
  152.8066  140.8328  160.8588 H   0  0  0  0  0  0  0  0  0  0  0  0
  154.4619  141.3957  160.8773 H   0  0  0  0  0  0  0  0  0  0  0  0
  152.6039  142.1773  162.7783 H   0  0  0  0  0  0  0  0  0  0  0  0
  153.9743  143.1724  162.2997 H   0  0  0  0  0  0  0  0  0  0  0  0
  151.1303  143.3535  161.2633 H   0  0  0  0  0  0  0  0  0  0  0  0
  152.1391  144.6697  161.8628 H   0  0  0  0  0  0  0  0  0  0  0  0
  153.5552  144.5815  159.9095 H   0  0  0  0  0  0  0  0  0  0  0  0
  151.9659  144.3260  159.2141 H   0  0  0  0  0  0  0  0  0  0  0  0
  1  2  1  0  0  0  0
  1 20  1  0  0  0  0
  1 21  1  0  0  0  0
  1 22  1  0  0  0  0
  2  3  1  0  0  0  0
  2  4  1  0  0  0  0
  2  5  1  0  0  0  0
  3 23  1  0  0  0  0
  3 24  1  0  0  0  0
  3 25  1  0  0  0  0
  4 26  1  0  0  0  0
  4 27  1  0  0  0  0
  4 28  1  0  0  0  0
  5 19  1  0  0  0  0
  5  6  2  0  0  0  0
  6  7  1  0  0  0  0
  6 29  1  0  0  0  0
  7  8  1  0  0  0  0
  8  9  1  0  0  0  0
  8 19  2  0  0  0  0
  9 10  1  0  0  0  0
  9 30  1  0  0  0  0
  9 31  1  0  0  0  0
 10 11  1  0  0  0  0
 10 32  1  0  0  0  0
 10 33  1  0  0  0  0
 11 12  1  0  0  0  0
 11 34  1  0  0  0  0
 12 13  2  0  0  0  0
 12 14  1  0  0  0  0
 14 18  1  0  0  0  0
 14 15  1  0  0  0  0
 14 35  1  0  0  0  0
 15 16  1  0  0  0  0
 15 36  1  0  0  0  0
 15 37  1  0  0  0  0
 16 17  1  0  0  0  0
 16 38  1  0  0  0  0
 16 39  1  0  0  0  0
 17 18  1  0  0  0  0
 17 40  1  0  0  0  0
 17 41  1  0  0  0  0
 18 42  1  0  0  0  0
 18 43  1  0  0  0  0
M  END
> <s_m_source_file>
AV-unprocessed.smi

> <i_m_source_file_index>
1028

> <i_lp_mmshare_version>
43012

> <i_f3d_flags>
0

> <s_epik_input>
W0NIM11DKFtDSDNdKShbQ0gzXSljMVtjSF1zYyhuMSlbQ0gyXVtDSDJdW05IXUMoPU8pW0NIXTJbQ0gyXVtDSDJdW0NIMl1bQ0gyXTI=

> <s_epik_cmdline>
J2VwaWtfcHl0aG9uJywgJy1waCcsICc3LjAnLCAnLXRuJywgJzgnLCAnLW1hJywgJzIwMCcsICctbWV0YWxfYmluZGluZycsICctaW1hZScsICc8aW5maWxlLm1hZT4nLCAnLW9tYWUnLCAnPG91dGZpbGUubWFlPic=

> <r_epik_Ionization_Penalty>
0.000842107

> <r_epik_Ionization_Penalty_Charging>
0

> <r_epik_Ionization_Penalty_Neutral>
0.000842107

> <r_epik_State_Penalty>
0.000542609

> <r_epik_Charging_Adjusted_Penalty>
0.000542609

> <i_epik_Tot_Q>
0

> <i_epik_Tot_abs_Q>
0

> <r_epik_Metal_State_Penalty>
-0

> <b_epik_Metal_Only>
0

> <s_lp_Force_Field>
OPLS_2005

> <r_lp_Energy>
10.9616

> <b_lp_Chiralities_Consistent>
1

> <s_lp_Variant>
AV-unprocessed.smi:1028-1

> <Gold.Version>
5.8.1

> <Gold.Id.Protein>
6NUR|6NUR_protein|mol2

> <Gold.PLP.Fitness>
42.0561

> <Gold.PLP.PLP>
-43.1838

> <Gold.PLP.part.hbond>
-1.0781

> <Gold.PLP.part.metal>
0.0000

> <Gold.PLP.part.buried>
-7.6399

> <Gold.PLP.part.nonpolar>
-35.0297

> <Gold.PLP.part.repulsive>
0.1461

> <Gold.PLP.ligand.clash>
0.0955

> <Gold.PLP.ligand.torsion>
1.0608

> <Gold.PLP.Chemscore.Hbond>
0.3370

> <Gold.PLP.Chemscore.CHOScore>
0.0000

> <Gold.PLP.Chemscore.Metal>
0.0000

> <Gold.Chemscore.Hbonds>
donor molecule, donor type, donor heavy atom, donor atom, acceptor molecule, acceptor atom, score
      P1  H  6933  6944       L1    19  0.40

> <Gold.PLP.Chemscore.Internal.Correction>
0.0786

> <Gold.Rescore>
     Score         DG    S(hbond)    S(metal)    S(lipo)     H(rot)  DE(clash)    DE(int)     intcor
     14.45     -15.47       0.54        0.00     101.15       1.42       0.07       0.96       ----

> <Gold.Chemscore.Fitness>
14.4452

> <Gold.Chemscore.DG>
-15.4736

> <Gold.Chemscore.ZeroCoef>
-5.4800

> <Gold.Chemscore.Hbond>
0.5392

> <Gold.Chemscore.Metal>
0.0000

> <Gold.Chemscore.Lipo>
101.1497

> <Gold.Chemscore.Internal_Hbond>
0.0000

> <Gold.Chemscore.DEClash>
0.0716

> <Gold.Chemscore.DEInternal>
0.9568

> <Gold.Chemscore.Rot>
1.4226

> <Gold.Chemscore.Internal.Correction>
   9.000000E+99

> <Gold.Chemscore.Hbonds>
donor molecule, donor type, donor heavy atom, donor atom, acceptor molecule, acceptor atom, score
      P1  H  6933  6944       L1    19  0.05

> <Gold.Chemscore.Hbond.Weighted>
-1.8010

> <Gold.Chemscore.Metal.Weighted>
-0.0000

> <Gold.Chemscore.Lipo.Weighted>
-11.8345

> <Gold.Chemscore.Internal_Hbond.Weighted>
0.0000

> <Gold.Chemscore.DEClash.Weighted>
0.0716

> <Gold.Chemscore.DEInternal.Weighted>
0.9568

> <Gold.Chemscore.Rot.Weighted>
3.6419

> <Gold.Chemscore.Internal.Correction.Weighted>
   9.000000E+99

> <Gold.Protein.RotatedTorsions>
[ 6907 6896 6895 6894 ] final   42.55 input  -60.11 | X-H torsion
[ 7974 7965 7964 7962 ] final  -59.87 input  175.53 | X-H torsion
[ 8008 7997 7996 7995 ] final   86.75 input   59.86 | X-H torsion
[ 10167 10162 10161 10158 ] final  -61.90 input  -65.29 | X-H torsion
[ 10718 10713 10712 10709 ] final   24.97 input   66.30 | X-H torsion
[ 10763 10752 10751 10750 ] final   41.76 input  -60.55 | X-H torsion
[ 11005 11000 10999 10996 ] final  -66.35 input  -57.11 | X-H torsion

> <Gold.Protein.ActiveResidues>
 VAL166  LYS551  ARG553  GLY616  TRP617  ASP618  TYR619  PRO620  LYS621  CYS622 
 ASP623  PHE694  ASN695  SER759  ASP760  ASP761  ALA762  ILE779  LEU786  VAL792 
 PHE793  MET794  SER795  GLU796  ALA797  LYS798  CYS799  TRP800  GLU811  SER814 

> <Gold.Protein.RotatedAtoms>
  152.2092  134.8517  160.0499 H   0  0  0  0  0  0  0  0  0  0  0  0  # atno 6907 bound_to 6896
  151.9341  133.3614  159.3950 H   0  0  0  0  0  0  0  0  0  0  0  0  # atno 6908 bound_to 6896
  150.6972  134.4431  159.5345 H   0  0  0  0  0  0  0  0  0  0  0  0  # atno 6909 bound_to 6896
  145.8223  140.8533  143.0126 H   0  0  0  0  0  0  0  0  0  0  0  0  # atno 7974 bound_to 7965
  155.9667  140.3389  155.6538 H   0  0  0  0  0  0  0  0  0  0  0  0  # atno 8008 bound_to 7997
  155.6728  140.0729  157.2532 H   0  0  0  0  0  0  0  0  0  0  0  0  # atno 8009 bound_to 7997
  154.4156  140.1688  156.1885 H   0  0  0  0  0  0  0  0  0  0  0  0  # atno 8010 bound_to 7997
  140.5975  143.2354  151.6003 H   0  0  0  0  0  0  0  0  0  0  0  0  # atno 10167 bound_to 10162
  157.1870  130.6828  149.6135 H   0  0  0  0  0  0  0  0  0  0  0  0  # atno 10718 bound_to 10713
  152.9900  135.6152  154.2839 H   0  0  0  0  0  0  0  0  0  0  0  0  # atno 10763 bound_to 10752
  154.2567  135.2783  155.2796 H   0  0  0  0  0  0  0  0  0  0  0  0  # atno 10764 bound_to 10752
  154.5241  135.5806  153.6762 H   0  0  0  0  0  0  0  0  0  0  0  0  # atno 10765 bound_to 10752
  141.1480  133.6698  156.6126 H   0  0  0  0  0  0  0  0  0  0  0  0  # atno 11005 bound_to 11000
  144.6746  140.0551  143.7477 LP  0  0  0  0  0  0  0  0  0  0  0  0  # atno 17320 bound_to 7965
  145.9662  139.2836  143.1126 LP  0  0  0  0  0  0  0  0  0  0  0  0  # atno 17321 bound_to 7965
  139.5268  144.3034  152.1054 LP  0  0  0  0  0  0  0  0  0  0  0  0  # atno 17342 bound_to 10162
  140.2209  144.4467  150.6342 LP  0  0  0  0  0  0  0  0  0  0  0  0  # atno 17343 bound_to 10162
  155.9717  130.4627  150.6157 LP  0  0  0  0  0  0  0  0  0  0  0  0  # atno 17370 bound_to 10713
  157.3898  131.0794  151.1404 LP  0  0  0  0  0  0  0  0  0  0  0  0  # atno 17371 bound_to 10713
  140.3602  134.7694  157.4529 LP  0  0  0  0  0  0  0  0  0  0  0  0  # atno 17394 bound_to 11000
  140.0791  134.5756  155.8560 LP  0  0  0  0  0  0  0  0  0  0  0  0  # atno 17395 bound_to 11000

$$$$
