AV-unprocessed.smi:2478|AV-procd|sdf|9764|dock2
  -GOLD-   2272013403D 1   1.00000     0.00000
 Structure written by MMmdl.
 42 43  0  0  0  0  0  0  0  0  1 V2000
  150.5854  141.3904  158.3625 C   0  0  0  0  0  0  0  0  0  0  0  0
  149.6450  141.1513  157.1709 C   0  0  1  0  0  0  0  0  0  0  0  0
  150.3550  141.3877  155.8224 C   0  0  0  0  0  0  0  0  0  0  0  0
  149.3984  141.1817  154.6367 C   0  0  0  0  0  0  0  0  0  0  0  0
  148.7437  139.7929  154.6817 C   0  0  0  0  0  0  0  0  0  0  0  0
  148.0336  139.5563  156.0246 C   0  0  0  0  0  0  0  0  0  0  0  0
  148.9928  139.7513  157.2187 C   0  0  1  0  0  0  0  0  0  0  0  0
  150.0262  138.7726  157.1909 O   0  0  0  0  0  0  0  0  0  0  0  0
  149.5710  137.4281  157.2465 C   0  0  0  0  0  0  0  0  0  0  0  0
  149.5419  136.9674  158.7037 C   0  0  0  0  0  0  0  0  0  0  0  0
  150.5971  136.7970  159.3159 O   0  0  0  0  0  0  0  0  0  0  0  0
  148.3150  136.7713  159.2203 N   0  0  0  0  0  0  0  0  0  0  0  0
  147.9617  136.3354  160.5271 C   0  0  0  0  0  0  0  0  0  0  0  0
  148.0989  137.1145  161.6290 N   0  0  0  0  0  0  0  0  0  0  0  0
  147.7403  136.6269  162.8338 C   0  0  0  0  0  0  0  0  0  0  0  0
  147.2205  135.3340  163.0136 C   0  0  0  0  0  0  0  0  0  0  0  0
  147.0723  134.5155  161.8809 C   0  0  0  0  0  0  0  0  0  0  0  0
  147.4557  135.0133  160.6119 C   0  0  0  0  0  0  0  0  0  0  0  0
  147.3224  134.2713  159.4576 O   0  0  0  0  0  0  0  0  0  0  0  0
  148.1991  133.2616  159.2111 C   0  0  0  0  0  0  0  0  0  0  0  0
  148.0676  132.2830  160.1402 F   0  0  0  0  0  0  0  0  0  0  0  0
  147.9372  132.7146  157.9995 F   0  0  0  0  0  0  0  0  0  0  0  0
  151.4392  140.7125  158.3400 H   0  0  0  0  0  0  0  0  0  0  0  0
  150.0661  141.2404  159.3093 H   0  0  0  0  0  0  0  0  0  0  0  0
  150.9725  142.4096  158.3573 H   0  0  0  0  0  0  0  0  0  0  0  0
  148.8427  141.8865  157.2502 H   0  0  0  0  0  0  0  0  0  0  0  0
  150.7637  142.3980  155.7880 H   0  0  0  0  0  0  0  0  0  0  0  0
  151.2044  140.7099  155.7267 H   0  0  0  0  0  0  0  0  0  0  0  0
  148.6246  141.9503  154.6540 H   0  0  0  0  0  0  0  0  0  0  0  0
  149.9382  141.3073  153.6977 H   0  0  0  0  0  0  0  0  0  0  0  0
  148.0319  139.6917  153.8620 H   0  0  0  0  0  0  0  0  0  0  0  0
  149.5027  139.0247  154.5276 H   0  0  0  0  0  0  0  0  0  0  0  0
  147.2024  140.2565  156.1169 H   0  0  0  0  0  0  0  0  0  0  0  0
  147.5879  138.5624  156.0385 H   0  0  0  0  0  0  0  0  0  0  0  0
  148.4320  139.6658  158.1513 H   0  0  0  0  0  0  0  0  0  0  0  0
  148.5713  137.3552  156.8147 H   0  0  0  0  0  0  0  0  0  0  0  0
  150.2282  136.7632  156.6864 H   0  0  0  0  0  0  0  0  0  0  0  0
  147.5373  136.9561  158.6035 H   0  0  0  0  0  0  0  0  0  0  0  0
  147.8687  137.2885  163.6774 H   0  0  0  0  0  0  0  0  0  0  0  0
  146.9392  134.9811  163.9948 H   0  0  0  0  0  0  0  0  0  0  0  0
  146.6633  133.5227  161.9948 H   0  0  0  0  0  0  0  0  0  0  0  0
  149.2303  133.6159  159.2010 H   0  0  0  0  0  0  0  0  0  0  0  0
  1  2  1  0  0  0  0
  1 23  1  0  0  0  0
  1 24  1  0  0  0  0
  1 25  1  0  0  0  0
  2  7  1  0  0  0  0
  2  3  1  0  0  0  0
  2 26  1  0  0  0  0
  3  4  1  0  0  0  0
  3 27  1  0  0  0  0
  3 28  1  0  0  0  0
  4  5  1  0  0  0  0
  4 29  1  0  0  0  0
  4 30  1  0  0  0  0
  5  6  1  0  0  0  0
  5 31  1  0  0  0  0
  5 32  1  0  0  0  0
  6  7  1  0  0  0  0
  6 33  1  0  0  0  0
  6 34  1  0  0  0  0
  7  8  1  0  0  0  0
  7 35  1  0  0  0  0
  8  9  1  0  0  0  0
  9 10  1  0  0  0  0
  9 36  1  0  0  0  0
  9 37  1  0  0  0  0
 10 11  2  0  0  0  0
 10 12  1  0  0  0  0
 12 13  1  0  0  0  0
 12 38  1  0  0  0  0
 13 18  1  0  0  0  0
 13 14  2  0  0  0  0
 14 15  1  0  0  0  0
 15 16  2  0  0  0  0
 15 39  1  0  0  0  0
 16 17  1  0  0  0  0
 16 40  1  0  0  0  0
 17 18  2  0  0  0  0
 17 41  1  0  0  0  0
 18 19  1  0  0  0  0
 19 20  1  0  0  0  0
 20 21  1  0  0  0  0
 20 22  1  0  0  0  0
 20 42  1  0  0  0  0
M  END
> <s_m_source_file>
AV-unprocessed.smi

> <i_m_source_file_index>
2478

> <i_lp_mmshare_version>
43012

> <i_f3d_flags>
0

> <s_epik_input>
W0NIM11bQ0BASF0xW0NIMl1bQ0gyXVtDSDJdW0NIMl1bQ0BIXTFPW0NIMl1DKD1PKVtOSF1jMm5bY0hdW2NIXVtjSF1jMk9bQ0hdKEYpRg==

> <s_epik_cmdline>
J2VwaWtfcHl0aG9uJywgJy1waCcsICc3LjAnLCAnLXRuJywgJzgnLCAnLW1hJywgJzIwMCcsICctbWV0YWxfYmluZGluZycsICctaW1hZScsICc8aW5maWxlLm1hZT4nLCAnLW9tYWUnLCAnPG91dGZpbGUubWFlPic=

> <r_lp_tautomer_probability>
1

> <r_epik_Ionization_Penalty>
6.06012e-05

> <r_epik_Ionization_Penalty_Charging>
0

> <r_epik_Ionization_Penalty_Neutral>
6.06012e-05

> <r_epik_State_Penalty>
-0

> <r_epik_Charging_Adjusted_Penalty>
0

> <i_epik_Tot_Q>
0

> <i_epik_Tot_abs_Q>
0

> <r_epik_Metal_State_Penalty>
-0

> <b_epik_Metal_Only>
0

> <s_lp_Force_Field>
OPLS_2005

> <r_lp_Energy>
14.9607

> <b_lp_Chiralities_Consistent>
1

> <s_lp_Variant>
AV-unprocessed.smi:2478-2

> <Gold.Version>
5.8.1

> <Gold.Id.Protein>
6NUR|6NUR_protein|mol2

> <Gold.PLP.Fitness>
40.1703

> <Gold.PLP.PLP>
-35.2361

> <Gold.PLP.part.hbond>
-2.9406

> <Gold.PLP.part.metal>
0.0000

> <Gold.PLP.part.buried>
-3.2734

> <Gold.PLP.part.nonpolar>
-28.6231

> <Gold.PLP.part.repulsive>
0.1650

> <Gold.PLP.ligand.clash>
0.0000

> <Gold.PLP.ligand.torsion>
1.1606

> <Gold.PLP.Chemscore.Hbond>
2.3650

> <Gold.PLP.Chemscore.CHOScore>
0.0000

> <Gold.PLP.Chemscore.Metal>
0.0000

> <Gold.Chemscore.Hbonds>
donor molecule, donor type, donor heavy atom, donor atom, acceptor molecule, acceptor atom, score
      P1  H  6896  6908       L1    11  1.00
      P1  H  6931  6943       L1    14  0.91
      P1  H  6934  6947       L1    14  0.32

> <Gold.PLP.Chemscore.Internal.Correction>
0.1602

> <Gold.Rescore>
     Score         DG    S(hbond)    S(metal)    S(lipo)     H(rot)  DE(clash)    DE(int)     intcor
     14.58     -16.11       2.13        0.00      70.45       1.85       0.18       1.35       ----

> <Gold.Chemscore.Fitness>
14.5842

> <Gold.Chemscore.DG>
-16.1132

> <Gold.Chemscore.ZeroCoef>
-5.4800

> <Gold.Chemscore.Hbond>
2.1323

> <Gold.Chemscore.Metal>
0.0000

> <Gold.Chemscore.Lipo>
70.4483

> <Gold.Chemscore.Internal_Hbond>
0.0000

> <Gold.Chemscore.DEClash>
0.1826

> <Gold.Chemscore.DEInternal>
1.3464

> <Gold.Chemscore.Rot>
1.8481

> <Gold.Chemscore.Internal.Correction>
   9.000000E+99

> <Gold.Chemscore.Hbonds>
donor molecule, donor type, donor heavy atom, donor atom, acceptor molecule, acceptor atom, score
      P1  H  6896  6908       L1    11  0.97
      P1  H  6931  6943       L1    14  0.48
      P1  H  6934  6947       L1    14  0.11

> <Gold.Chemscore.Hbond.Weighted>
-7.1219

> <Gold.Chemscore.Metal.Weighted>
-0.0000

> <Gold.Chemscore.Lipo.Weighted>
-8.2425

> <Gold.Chemscore.Internal_Hbond.Weighted>
0.0000

> <Gold.Chemscore.DEClash.Weighted>
0.1826

> <Gold.Chemscore.DEInternal.Weighted>
1.3464

> <Gold.Chemscore.Rot.Weighted>
4.7311

> <Gold.Chemscore.Internal.Correction.Weighted>
   9.000000E+99

> <Gold.Protein.RotatedTorsions>
[ 6907 6896 6895 6894 ] final -150.90 input  -60.11 | X-H torsion
[ 7974 7965 7964 7962 ] final  -43.63 input  175.53 | X-H torsion
[ 8008 7997 7996 7995 ] final -133.03 input   59.86 | X-H torsion
[ 10167 10162 10161 10158 ] final  -12.69 input  -65.29 | X-H torsion
[ 10718 10713 10712 10709 ] final   70.30 input   66.30 | X-H torsion
[ 10763 10752 10751 10750 ] final  178.60 input  -60.55 | X-H torsion
[ 11005 11000 10999 10996 ] final  160.95 input  -57.11 | X-H torsion

> <Gold.Protein.ActiveResidues>
 VAL166  LYS551  ARG553  GLY616  TRP617  ASP618  TYR619  PRO620  LYS621  CYS622 
 ASP623  PHE694  ASN695  SER759  ASP760  ASP761  ALA762  ILE779  LEU786  VAL792 
 PHE793  MET794  SER795  GLU796  ALA797  LYS798  CYS799  TRP800  GLU811  SER814 

> <Gold.Protein.RotatedAtoms>
  151.2053  133.4587  159.2596 H   0  0  0  0  0  0  0  0  0  0  0  0  # atno 6907 bound_to 6896
  151.1030  134.9983  159.8467 H   0  0  0  0  0  0  0  0  0  0  0  0  # atno 6908 bound_to 6896
  152.5445  134.1978  159.8753 H   0  0  0  0  0  0  0  0  0  0  0  0  # atno 6909 bound_to 6896
  146.0000  140.7085  142.9275 H   0  0  0  0  0  0  0  0  0  0  0  0  # atno 7974 bound_to 7965
  155.3388  140.0471  157.3044 H   0  0  0  0  0  0  0  0  0  0  0  0  # atno 8008 bound_to 7997
  154.5289  140.2250  155.8806 H   0  0  0  0  0  0  0  0  0  0  0  0  # atno 8009 bound_to 7997
  156.1768  140.3083  155.9079 H   0  0  0  0  0  0  0  0  0  0  0  0  # atno 8010 bound_to 7997
  140.7166  143.5506  150.9306 H   0  0  0  0  0  0  0  0  0  0  0  0  # atno 10167 bound_to 10162
  157.6392  130.9470  150.0632 H   0  0  0  0  0  0  0  0  0  0  0  0  # atno 10718 bound_to 10713
  154.5097  135.2788  155.1352 H   0  0  0  0  0  0  0  0  0  0  0  0  # atno 10763 bound_to 10752
  154.2953  135.6259  153.5405 H   0  0  0  0  0  0  0  0  0  0  0  0  # atno 10764 bound_to 10752
  152.9916  135.5684  154.5560 H   0  0  0  0  0  0  0  0  0  0  0  0  # atno 10765 bound_to 10752
  140.2110  134.8267  157.3120 H   0  0  0  0  0  0  0  0  0  0  0  0  # atno 11005 bound_to 11000
  144.6916  140.3216  143.7231 LP  0  0  0  0  0  0  0  0  0  0  0  0  # atno 17320 bound_to 7965
  145.7502  139.1791  143.2326 LP  0  0  0  0  0  0  0  0  0  0  0  0  # atno 17321 bound_to 7965
  139.9230  143.6583  152.3093 LP  0  0  0  0  0  0  0  0  0  0  0  0  # atno 17342 bound_to 10162
  139.7007  144.7635  151.1278 LP  0  0  0  0  0  0  0  0  0  0  0  0  # atno 17343 bound_to 10162
  156.1658  130.3645  149.9234 LP  0  0  0  0  0  0  0  0  0  0  0  0  # atno 17370 bound_to 10713
  156.7221  130.9011  151.3619 LP  0  0  0  0  0  0  0  0  0  0  0  0  # atno 17371 bound_to 10713
  140.1951  134.4324  155.7694 LP  0  0  0  0  0  0  0  0  0  0  0  0  # atno 17394 bound_to 11000
  141.2226  133.7045  156.8091 LP  0  0  0  0  0  0  0  0  0  0  0  0  # atno 17395 bound_to 11000

$$$$
