AV-unprocessed.smi:1554|AV-procd|sdf|6259|dock2
  -GOLD-   22720 6443D 1   1.00000     0.00000
 Structure written by MMmdl.
 49 51  0  0  0  0  0  0  0  0  3 V2000
  152.0761  143.5027  160.3906 C   0  0  0  0  0  0  0  0  0  0  0  0
  151.8109  142.6522  159.1599 C   0  0  0  0  0  0  0  0  0  0  0  0
  150.8702  143.1132  158.2116 C   0  0  0  0  0  0  0  0  0  0  0  0
  150.6500  142.3137  157.0962 C   0  0  0  0  0  0  0  0  0  0  0  0
  149.8009  142.4884  156.0021 N   0  3  0  0  0  0  0  0  0  0  0  0
  149.9300  141.4319  155.1532 C   0  0  0  0  0  0  0  0  0  0  0  0
  150.8508  140.5839  155.6881 N   0  0  0  0  0  0  0  0  0  0  0  0
  151.3539  139.3022  155.1719 C   0  0  0  0  0  0  0  0  0  0  0  0
  150.2236  138.3226  154.7987 C   0  0  1  0  0  0  0  0  0  0  0  0
  149.8090  138.5607  153.4670 O   0  0  0  0  0  0  0  0  0  0  0  0
  150.6746  136.8537  154.9234 C   0  0  0  0  0  0  0  0  0  0  0  0
  149.6046  135.8966  154.5315 N   0  3  2  0  0  0  0  0  0  0  0  0
  148.3824  135.9523  155.3740 C   0  0  0  0  0  0  0  0  0  0  0  0
  148.5795  135.2089  156.7097 C   0  0  0  0  0  0  0  0  0  0  0  0
  149.0098  133.8756  156.4639 O   0  0  0  0  0  0  0  0  0  0  0  0
  150.2504  133.8225  155.7679 C   0  0  1  0  0  0  0  0  0  0  0  0
  150.6650  132.3523  155.6416 C   0  0  0  0  0  0  0  0  0  0  0  0
  150.0766  134.4971  154.3915 C   0  0  0  0  0  0  0  0  0  0  0  0
  151.3267  141.0933  156.9034 C   0  0  0  0  0  0  0  0  0  0  0  0
  152.2578  140.6257  157.8287 C   0  0  0  0  0  0  0  0  0  0  0  0
  152.4959  141.4243  158.9705 C   0  0  0  0  0  0  0  0  0  0  0  0
  153.5054  140.9383  159.9968 C   0  0  0  0  0  0  0  0  0  0  0  0
  151.4423  144.3900  160.4073 H   0  0  0  0  0  0  0  0  0  0  0  0
  153.1146  143.8346  160.4083 H   0  0  0  0  0  0  0  0  0  0  0  0
  151.8773  142.9357  161.3004 H   0  0  0  0  0  0  0  0  0  0  0  0
  150.3460  144.0478  158.3478 H   0  0  0  0  0  0  0  0  0  0  0  0
  149.3977  141.2933  154.2230 H   0  0  0  0  0  0  0  0  0  0  0  0
  152.0181  139.4861  154.3275 H   0  0  0  0  0  0  0  0  0  0  0  0
  151.9744  138.8669  155.9562 H   0  0  0  0  0  0  0  0  0  0  0  0
  149.3742  138.5137  155.4539 H   0  0  0  0  0  0  0  0  0  0  0  0
  149.8216  137.7430  152.9932 H   0  0  0  0  0  0  0  0  0  0  0  0
  151.5506  136.7087  154.2894 H   0  0  0  0  0  0  0  0  0  0  0  0
  151.0051  136.6441  155.9408 H   0  0  0  0  0  0  0  0  0  0  0  0
  148.0704  136.9808  155.5512 H   0  0  0  0  0  0  0  0  0  0  0  0
  147.5698  135.4796  154.8210 H   0  0  0  0  0  0  0  0  0  0  0  0
  149.2965  135.7221  157.3517 H   0  0  0  0  0  0  0  0  0  0  0  0
  147.6381  135.1761  157.2584 H   0  0  0  0  0  0  0  0  0  0  0  0
  151.0124  134.3454  156.3484 H   0  0  0  0  0  0  0  0  0  0  0  0
  151.6179  132.2568  155.1204 H   0  0  0  0  0  0  0  0  0  0  0  0
  149.9218  131.7768  155.0890 H   0  0  0  0  0  0  0  0  0  0  0  0
  150.7776  131.8932  156.6241 H   0  0  0  0  0  0  0  0  0  0  0  0
  149.3372  133.9467  153.8079 H   0  0  0  0  0  0  0  0  0  0  0  0
  151.0037  134.4616  153.8180 H   0  0  0  0  0  0  0  0  0  0  0  0
  152.7833  139.6933  157.6878 H   0  0  0  0  0  0  0  0  0  0  0  0
  153.9714  140.0025  159.6866 H   0  0  0  0  0  0  0  0  0  0  0  0
  153.0207  140.7668  160.9582 H   0  0  0  0  0  0  0  0  0  0  0  0
  154.2980  141.6741  160.1346 H   0  0  0  0  0  0  0  0  0  0  0  0
  149.3290  136.1858  153.6032 H   0  0  0  0  0  0  0  0  0  0  0  0
  149.1776  143.2703  155.8445 H   0  0  0  0  0  0  0  0  0  0  0  0
  1  2  1  0  0  0  0
  1 23  1  0  0  0  0
  1 24  1  0  0  0  0
  1 25  1  0  0  0  0
  2 21  1  0  0  0  0
  2  3  2  0  0  0  0
  3  4  1  0  0  0  0
  3 26  1  0  0  0  0
  4 19  2  0  0  0  0
  4  5  1  0  0  0  0
  5  6  2  0  0  0  0
  5 49  1  0  0  0  0
  6  7  1  0  0  0  0
  6 27  1  0  0  0  0
  7  8  1  0  0  0  0
  7 19  1  0  0  0  0
  8  9  1  0  0  0  0
  8 28  1  0  0  0  0
  8 29  1  0  0  0  0
  9 10  1  0  0  0  0
  9 11  1  0  0  0  0
  9 30  1  0  0  0  0
 10 31  1  0  0  0  0
 11 12  1  0  0  0  0
 11 32  1  0  0  0  0
 11 33  1  0  0  0  0
 12 18  1  0  0  0  0
 12 13  1  0  0  0  0
 12 48  1  0  0  0  0
 13 14  1  0  0  0  0
 13 34  1  0  0  0  0
 13 35  1  0  0  0  0
 14 15  1  0  0  0  0
 14 36  1  0  0  0  0
 14 37  1  0  0  0  0
 15 16  1  0  0  0  0
 16 17  1  0  0  0  0
 16 18  1  0  0  0  0
 16 38  1  0  0  0  0
 17 39  1  0  0  0  0
 17 40  1  0  0  0  0
 17 41  1  0  0  0  0
 18 42  1  0  0  0  0
 18 43  1  0  0  0  0
 19 20  1  0  0  0  0
 20 21  2  0  0  0  0
 20 44  1  0  0  0  0
 21 22  1  0  0  0  0
 22 45  1  0  0  0  0
 22 46  1  0  0  0  0
 22 47  1  0  0  0  0
M  CHG  1   5   1
M  CHG  1  12   1
M  END
> <s_m_source_file>
AV-unprocessed.smi

> <i_m_source_file_index>
1554

> <i_lp_mmshare_version>
43012

> <i_f3d_flags>
0

> <s_epik_input>
W0NIM11jKFtjSF0xKWMoW0NIM10pW2NIXWMoYzEyKW4oW2NIXW4yKVtDSDJdW0NASF0oW09IXSlbQ0gyXU4zW0NIMl1bQ0gyXU9bQ0BASF0oW0NIM10pW0NIMl0z

> <s_epik_cmdline>
J2VwaWtfcHl0aG9uJywgJy1waCcsICc3LjAnLCAnLXRuJywgJzgnLCAnLW1hJywgJzIwMCcsICctbWV0YWxfYmluZGluZycsICctaW1hZScsICc8aW5maWxlLm1hZT4nLCAnLW9tYWUnLCAnPG91dGZpbGUubWFlPic=

> <r_epik_Ionization_Penalty>
1.8848

> <r_epik_Ionization_Penalty_Charging>
1.88479

> <r_epik_Ionization_Penalty_Neutral>
1.42224e-05

> <r_epik_State_Penalty>
1.94551

> <r_epik_Charging_Adjusted_Penalty>
3.8303

> <i_epik_Tot_Q>
2

> <i_epik_Tot_abs_Q>
2

> <r_epik_Metal_State_Penalty>
5.95849

> <b_epik_Metal_Only>
0

> <s_lp_Force_Field>
OPLS_2005

> <r_lp_Energy>
32.9811

> <b_lp_Chiralities_Consistent>
1

> <s_lp_Variant>
AV-unprocessed.smi:1554-20

> <Gold.Version>
5.8.1

> <Gold.Id.Protein>
6NUR|6NUR_protein|mol2

> <Gold.PLP.Fitness>
56.3245

> <Gold.PLP.PLP>
-42.1104

> <Gold.PLP.part.hbond>
-3.9719

> <Gold.PLP.part.metal>
0.0000

> <Gold.PLP.part.buried>
-5.6859

> <Gold.PLP.part.nonpolar>
-33.6158

> <Gold.PLP.part.repulsive>
0.1368

> <Gold.PLP.ligand.clash>
0.0000

> <Gold.PLP.ligand.torsion>
0.4256

> <Gold.PLP.Chemscore.Hbond>
5.0000

> <Gold.PLP.Chemscore.CHOScore>
0.0000

> <Gold.PLP.Chemscore.Metal>
0.0000

> <Gold.Chemscore.Hbonds>
donor molecule, donor type, donor heavy atom, donor atom, acceptor molecule, acceptor atom, score
      L1  H     5    49       P1  8028  1.79
      L1  H    10    31       P1  7948  0.99
      L1  H    12    48       P1  7948  2.00

> <Gold.PLP.Chemscore.Internal.Correction>
0.0652

> <Gold.Rescore>
     Score         DG    S(hbond)    S(metal)    S(lipo)     H(rot)  DE(clash)    DE(int)     intcor
     21.88     -22.32       2.87        0.00     108.23       2.11       0.02       0.42       ----

> <Gold.Chemscore.Fitness>
21.8795

> <Gold.Chemscore.DG>
-22.3187

> <Gold.Chemscore.ZeroCoef>
-5.4800

> <Gold.Chemscore.Hbond>
2.8693

> <Gold.Chemscore.Metal>
0.0000

> <Gold.Chemscore.Lipo>
108.2269

> <Gold.Chemscore.Internal_Hbond>
0.0000

> <Gold.Chemscore.DEClash>
0.0174

> <Gold.Chemscore.DEInternal>
0.4218

> <Gold.Chemscore.Rot>
2.1122

> <Gold.Chemscore.Internal.Correction>
   9.000000E+99

> <Gold.Chemscore.Hbonds>
donor molecule, donor type, donor heavy atom, donor atom, acceptor molecule, acceptor atom, score
      L1  H     5    49       P1  8028  0.84
      L1  H    10    31       P1  7948  0.45
      L1  H    12    48       P1  7948  0.78

> <Gold.Chemscore.Hbond.Weighted>
-9.5834

> <Gold.Chemscore.Metal.Weighted>
-0.0000

> <Gold.Chemscore.Lipo.Weighted>
-12.6625

> <Gold.Chemscore.Internal_Hbond.Weighted>
0.0000

> <Gold.Chemscore.DEClash.Weighted>
0.0174

> <Gold.Chemscore.DEInternal.Weighted>
0.4218

> <Gold.Chemscore.Rot.Weighted>
5.4073

> <Gold.Chemscore.Internal.Correction.Weighted>
   9.000000E+99

> <Gold.Protein.RotatedTorsions>
[ 6907 6896 6895 6894 ] final  103.01 input  -60.11 | X-H torsion
[ 7974 7965 7964 7962 ] final -135.27 input  175.53 | X-H torsion
[ 8008 7997 7996 7995 ] final  112.62 input   59.86 | X-H torsion
[ 10167 10162 10161 10158 ] final  109.32 input  -65.29 | X-H torsion
[ 10718 10713 10712 10709 ] final  -34.31 input   66.30 | X-H torsion
[ 10763 10752 10751 10750 ] final   27.81 input  -60.55 | X-H torsion
[ 11005 11000 10999 10996 ] final -153.77 input  -57.11 | X-H torsion

> <Gold.Protein.ActiveResidues>
 VAL166  LYS551  ARG553  GLY616  TRP617  ASP618  TYR619  PRO620  LYS621  CYS622 
 ASP623  PHE694  ASN695  SER759  ASP760  ASP761  ALA762  ILE779  LEU786  VAL792 
 PHE793  MET794  SER795  GLU796  ALA797  LYS798  CYS799  TRP800  GLU811  SER814 

> <Gold.Protein.RotatedAtoms>
  152.5308  133.9889  159.7841 H   0  0  0  0  0  0  0  0  0  0  0  0  # atno 6907 bound_to 6896
  151.0129  133.5940  159.2687 H   0  0  0  0  0  0  0  0  0  0  0  0  # atno 6908 bound_to 6896
  151.3008  135.0775  159.9291 H   0  0  0  0  0  0  0  0  0  0  0  0  # atno 6909 bound_to 6896
  144.9029  140.6794  143.5074 H   0  0  0  0  0  0  0  0  0  0  0  0  # atno 7974 bound_to 7965
  156.2204  140.2996  155.9939 H   0  0  0  0  0  0  0  0  0  0  0  0  # atno 8008 bound_to 7997
  155.2496  140.0425  157.3002 H   0  0  0  0  0  0  0  0  0  0  0  0  # atno 8009 bound_to 7997
  154.5832  140.2381  155.8032 H   0  0  0  0  0  0  0  0  0  0  0  0  # atno 8010 bound_to 7997
  139.6776  144.7121  151.1574 H   0  0  0  0  0  0  0  0  0  0  0  0  # atno 10167 bound_to 10162
  156.3521  130.4310  149.7695 H   0  0  0  0  0  0  0  0  0  0  0  0  # atno 10718 bound_to 10713
  153.0531  135.6528  154.0643 H   0  0  0  0  0  0  0  0  0  0  0  0  # atno 10763 bound_to 10752
  154.0327  135.2910  155.3368 H   0  0  0  0  0  0  0  0  0  0  0  0  # atno 10764 bound_to 10752
  154.6831  135.5312  153.8357 H   0  0  0  0  0  0  0  0  0  0  0  0  # atno 10765 bound_to 10752
  140.7045  134.3900  157.5205 H   0  0  0  0  0  0  0  0  0  0  0  0  # atno 11005 bound_to 11000
  145.3586  139.1687  143.4396 LP  0  0  0  0  0  0  0  0  0  0  0  0  # atno 17320 bound_to 7965
  146.3118  140.3646  142.8668 LP  0  0  0  0  0  0  0  0  0  0  0  0  # atno 17321 bound_to 7965
  140.7641  143.5748  150.8957 LP  0  0  0  0  0  0  0  0  0  0  0  0  # atno 17342 bound_to 10162
  139.9418  143.6373  152.3052 LP  0  0  0  0  0  0  0  0  0  0  0  0  # atno 17343 bound_to 10162
  156.4892  130.8077  151.3087 LP  0  0  0  0  0  0  0  0  0  0  0  0  # atno 17370 bound_to 10713
  157.7462  130.9981  150.2839 LP  0  0  0  0  0  0  0  0  0  0  0  0  # atno 17371 bound_to 10713
  139.8888  134.8847  156.2456 LP  0  0  0  0  0  0  0  0  0  0  0  0  # atno 17394 bound_to 11000
  141.0136  133.7081  156.1152 LP  0  0  0  0  0  0  0  0  0  0  0  0  # atno 17395 bound_to 11000

$$$$
