AV-unprocessed.smi:1830|AV-procd|sdf|7433|dock2
  -GOLD-   22720 9113D 1   1.00000     0.00000
 Structure written by MMmdl.
 53 56  0  0  0  0  0  0  0  0  2 V2000
  151.1823  135.0074  155.2153 O   0  0  0  0  0  0  0  0  0  0  0  0
  150.4517  135.3990  154.3053 C   0  0  0  0  0  0  0  0  0  0  0  0
  149.6871  134.5832  153.5674 N   0  0  0  0  0  0  0  0  0  0  0  0
  149.6256  133.1338  153.7160 C   0  0  0  0  0  0  0  0  0  0  0  0
  148.1817  132.6434  153.9681 C   0  0  1  0  0  0  0  0  0  0  0  0
  147.2229  133.7832  154.3899 C   0  0  0  0  0  0  0  0  0  0  0  0
  146.8908  134.5975  153.2058 N   0  3  2  0  0  0  0  0  0  0  0  0
  145.9859  135.7463  153.3837 C   0  0  0  0  0  0  0  0  0  0  0  0
  145.3734  135.9868  151.9894 C   0  0  0  0  0  0  0  0  0  0  0  0
  145.8524  134.8140  151.1148 C   0  0  0  0  0  0  0  0  0  0  0  0
  146.3070  133.7801  152.1404 C   0  0  1  0  0  0  0  0  0  0  0  0
  147.3300  132.7283  151.6970 C   0  0  0  0  0  0  0  0  0  0  0  0
  147.6607  131.9290  152.8357 O   0  0  0  0  0  0  0  0  0  0  0  0
  150.3285  136.6739  153.9025 N   0  0  0  0  0  0  0  0  0  0  0  0
  151.0373  137.8125  154.3769 C   0  0  0  0  0  0  0  0  0  0  0  0
  152.2969  137.6867  155.0118 C   0  0  0  0  0  0  0  0  0  0  0  0
  152.9253  138.8326  155.5288 C   0  0  0  0  0  0  0  0  0  0  0  0
  152.2630  140.0654  155.4073 C   0  0  0  0  0  0  0  0  0  0  0  0
  151.0587  140.1998  154.8170 N   0  0  0  0  0  0  0  0  0  0  0  0
  150.4463  139.1062  154.3000 C   0  0  0  0  0  0  0  0  0  0  0  0
  149.1945  139.3091  153.6747 N   0  0  0  0  0  0  0  0  0  0  0  0
  148.0165  138.5731  154.1216 C   0  0  0  0  0  0  0  0  0  0  0  0
  146.8319  139.3175  153.5128 C   0  0  0  0  0  0  0  0  0  0  0  0
  147.2955  140.7698  153.5708 C   0  0  0  0  0  0  0  0  0  0  0  0
  148.8089  140.6788  153.3471 C   0  0  0  0  0  0  0  0  0  0  0  0
  149.1199  134.9933  152.8396 H   0  0  0  0  0  0  0  0  0  0  0  0
  150.0326  132.6571  152.8227 H   0  0  0  0  0  0  0  0  0  0  0  0
  150.2859  132.8470  154.5338 H   0  0  0  0  0  0  0  0  0  0  0  0
  148.2159  131.9293  154.7916 H   0  0  0  0  0  0  0  0  0  0  0  0
  146.3070  133.3655  154.8107 H   0  0  0  0  0  0  0  0  0  0  0  0
  147.6744  134.4077  155.1614 H   0  0  0  0  0  0  0  0  0  0  0  0
  145.2012  135.4961  154.0993 H   0  0  0  0  0  0  0  0  0  0  0  0
  146.5253  136.6156  153.7605 H   0  0  0  0  0  0  0  0  0  0  0  0
  144.2849  136.0031  152.0553 H   0  0  0  0  0  0  0  0  0  0  0  0
  145.6914  136.9412  151.5684 H   0  0  0  0  0  0  0  0  0  0  0  0
  145.0752  134.4354  150.4501 H   0  0  0  0  0  0  0  0  0  0  0  0
  146.6960  135.1316  150.5000 H   0  0  0  0  0  0  0  0  0  0  0  0
  145.4224  133.2737  152.5335 H   0  0  0  0  0  0  0  0  0  0  0  0
  146.9049  132.0864  150.9252 H   0  0  0  0  0  0  0  0  0  0  0  0
  148.2219  133.1897  151.2720 H   0  0  0  0  0  0  0  0  0  0  0  0
  149.7599  136.8307  153.0832 H   0  0  0  0  0  0  0  0  0  0  0  0
  152.7785  136.7278  155.1312 H   0  0  0  0  0  0  0  0  0  0  0  0
  153.8853  138.7649  156.0188 H   0  0  0  0  0  0  0  0  0  0  0  0
  152.7086  140.9677  155.7994 H   0  0  0  0  0  0  0  0  0  0  0  0
  148.0512  137.5323  153.7982 H   0  0  0  0  0  0  0  0  0  0  0  0
  147.9360  138.5925  155.2092 H   0  0  0  0  0  0  0  0  0  0  0  0
  146.6905  139.0119  152.4751 H   0  0  0  0  0  0  0  0  0  0  0  0
  145.8993  139.1435  154.0499 H   0  0  0  0  0  0  0  0  0  0  0  0
  146.7971  141.4062  152.8392 H   0  0  0  0  0  0  0  0  0  0  0  0
  147.0955  141.1771  154.5629 H   0  0  0  0  0  0  0  0  0  0  0  0
  149.3448  141.4123  153.9516 H   0  0  0  0  0  0  0  0  0  0  0  0
  149.0405  140.8694  152.2989 H   0  0  0  0  0  0  0  0  0  0  0  0
  147.7564  134.9689  152.8410 H   0  0  0  0  0  0  0  0  0  0  0  0
  1  2  2  0  0  0  0
  2  3  1  0  0  0  0
  2 14  1  0  0  0  0
  3  4  1  0  0  0  0
  3 26  1  0  0  0  0
  4  5  1  0  0  0  0
  4 27  1  0  0  0  0
  4 28  1  0  0  0  0
  5 13  1  0  0  0  0
  5  6  1  0  0  0  0
  5 29  1  0  0  0  0
  6  7  1  0  0  0  0
  6 30  1  0  0  0  0
  6 31  1  0  0  0  0
  7 11  1  0  0  0  0
  7  8  1  0  0  0  0
  7 53  1  0  0  0  0
  8  9  1  0  0  0  0
  8 32  1  0  0  0  0
  8 33  1  0  0  0  0
  9 10  1  0  0  0  0
  9 34  1  0  0  0  0
  9 35  1  0  0  0  0
 10 11  1  0  0  0  0
 10 36  1  0  0  0  0
 10 37  1  0  0  0  0
 11 12  1  0  0  0  0
 11 38  1  0  0  0  0
 12 13  1  0  0  0  0
 12 39  1  0  0  0  0
 12 40  1  0  0  0  0
 14 15  1  0  0  0  0
 14 41  1  0  0  0  0
 15 20  1  0  0  0  0
 15 16  2  0  0  0  0
 16 17  1  0  0  0  0
 16 42  1  0  0  0  0
 17 18  2  0  0  0  0
 17 43  1  0  0  0  0
 18 19  1  0  0  0  0
 18 44  1  0  0  0  0
 19 20  2  0  0  0  0
 20 21  1  0  0  0  0
 21 25  1  0  0  0  0
 21 22  1  0  0  0  0
 22 23  1  0  0  0  0
 22 45  1  0  0  0  0
 22 46  1  0  0  0  0
 23 24  1  0  0  0  0
 23 47  1  0  0  0  0
 23 48  1  0  0  0  0
 24 25  1  0  0  0  0
 24 49  1  0  0  0  0
 24 50  1  0  0  0  0
 25 51  1  0  0  0  0
 25 52  1  0  0  0  0
M  CHG  1   7   1
M  END
> <s_m_source_file>
AV-unprocessed.smi

> <i_m_source_file_index>
1830

> <i_lp_mmshare_version>
43012

> <i_f3d_flags>
0

> <s_epik_input>
W0NIMl0xW0NIMl1bQ0gyXVtDQEhdKE4xMilbQ0gyXU9bQ0BASF0oW0NIMl0yKVtDSDJdW05IXUMoPU8pW05IXWMzW2NIXVtjSF1bY0hdbmMzTjRbQ0gyXVtDSDJdW0NIMl1bQ0gyXTQ=

> <s_epik_cmdline>
J2VwaWtfcHl0aG9uJywgJy1waCcsICc3LjAnLCAnLXRuJywgJzgnLCAnLW1hJywgJzIwMCcsICctbWV0YWxfYmluZGluZycsICctaW1hZScsICc8aW5maWxlLm1hZT4nLCAnLW9tYWUnLCAnPG91dGZpbGUubWFlPic=

> <r_lp_tautomer_probability>
1

> <r_epik_Ionization_Penalty>
0.193547

> <r_epik_Ionization_Penalty_Charging>
0.10673

> <r_epik_Ionization_Penalty_Neutral>
0.0868166

> <r_epik_State_Penalty>
0.173595

> <r_epik_Charging_Adjusted_Penalty>
0.280326

> <i_epik_Tot_Q>
1

> <i_epik_Tot_abs_Q>
1

> <r_epik_Metal_State_Penalty>
0.164683

> <b_epik_Metal_Only>
0

> <s_lp_Force_Field>
OPLS_2005

> <r_lp_Energy>
66.0686

> <b_lp_Chiralities_Consistent>
1

> <s_lp_Variant>
AV-unprocessed.smi:1830-2

> <Gold.Version>
5.8.1

> <Gold.Id.Protein>
6NUR|6NUR_protein|mol2

> <Gold.PLP.Fitness>
45.8963

> <Gold.PLP.PLP>
-33.9832

> <Gold.PLP.part.hbond>
-6.5075

> <Gold.PLP.part.metal>
0.0000

> <Gold.PLP.part.buried>
3.8678

> <Gold.PLP.part.nonpolar>
-32.1509

> <Gold.PLP.part.repulsive>
1.3704

> <Gold.PLP.ligand.clash>
1.1484

> <Gold.PLP.ligand.torsion>
0.9923

> <Gold.PLP.Chemscore.Hbond>
4.9047

> <Gold.PLP.Chemscore.CHOScore>
0.0000

> <Gold.PLP.Chemscore.Metal>
0.0000

> <Gold.Chemscore.Hbonds>
donor molecule, donor type, donor heavy atom, donor atom, acceptor molecule, acceptor atom, score
      L1  H     3    26       P1  7948  0.45
      L1  H     7    53       P1  7948  2.00
      L1  H    14    41       P1  7948  0.96
      P1  H  7989  7998       L1    19  0.70
      P1  H 10752 10764       L1     1  0.85

> <Gold.PLP.Chemscore.Internal.Correction>
0.3319

> <Gold.Rescore>
     Score         DG    S(hbond)    S(metal)    S(lipo)     H(rot)  DE(clash)    DE(int)     intcor
     12.55     -20.25       2.35        0.00      89.95       1.41       3.18       4.52       ----

> <Gold.Chemscore.Fitness>
12.5505

> <Gold.Chemscore.DG>
-20.2511

> <Gold.Chemscore.ZeroCoef>
-5.4800

> <Gold.Chemscore.Hbond>
2.3497

> <Gold.Chemscore.Metal>
0.0000

> <Gold.Chemscore.Lipo>
89.9517

> <Gold.Chemscore.Internal_Hbond>
0.0000

> <Gold.Chemscore.DEClash>
3.1834

> <Gold.Chemscore.DEInternal>
4.5173

> <Gold.Chemscore.Rot>
1.4067

> <Gold.Chemscore.Internal.Correction>
   9.000000E+99

> <Gold.Chemscore.Hbonds>
donor molecule, donor type, donor heavy atom, donor atom, acceptor molecule, acceptor atom, score
      L1  H     3    26       P1  7948  0.02
      L1  H     7    53       P1  7948  0.96
      L1  H    14    41       P1  7948  0.26
      P1  H  7989  7998       L1    19  0.02
      P1  H 10752 10764       L1     1  0.58

> <Gold.Chemscore.Hbond.Weighted>
-7.8479

> <Gold.Chemscore.Metal.Weighted>
-0.0000

> <Gold.Chemscore.Lipo.Weighted>
-10.5244

> <Gold.Chemscore.Internal_Hbond.Weighted>
0.0000

> <Gold.Chemscore.DEClash.Weighted>
3.1834

> <Gold.Chemscore.DEInternal.Weighted>
4.5173

> <Gold.Chemscore.Rot.Weighted>
3.6011

> <Gold.Chemscore.Internal.Correction.Weighted>
   9.000000E+99

> <Gold.Protein.RotatedTorsions>
[ 6907 6896 6895 6894 ] final   75.18 input  -60.11 | X-H torsion
[ 7974 7965 7964 7962 ] final -114.20 input  175.53 | X-H torsion
[ 8008 7997 7996 7995 ] final  -38.03 input   59.86 | X-H torsion
[ 10167 10162 10161 10158 ] final   41.40 input  -65.29 | X-H torsion
[ 10718 10713 10712 10709 ] final  151.58 input   66.30 | X-H torsion
[ 10763 10752 10751 10750 ] final  -44.76 input  -60.55 | X-H torsion
[ 11005 11000 10999 10996 ] final  -13.07 input  -57.11 | X-H torsion

> <Gold.Protein.ActiveResidues>
 VAL166  LYS551  ARG553  GLY616  TRP617  ASP618  TYR619  PRO620  LYS621  CYS622 
 ASP623  PHE694  ASN695  SER759  ASP760  ASP761  ALA762  ILE779  LEU786  VAL792 
 PHE793  MET794  SER795  GLU796  ALA797  LYS798  CYS799  TRP800  GLU811  SER814 

> <Gold.Protein.RotatedAtoms>
  152.5013  134.4160  159.9464 H   0  0  0  0  0  0  0  0  0  0  0  0  # atno 6907 bound_to 6896
  151.4130  133.3715  159.2754 H   0  0  0  0  0  0  0  0  0  0  0  0  # atno 6908 bound_to 6896
  150.9277  134.8716  159.7590 H   0  0  0  0  0  0  0  0  0  0  0  0  # atno 6909 bound_to 6896
  145.1230  140.8680  143.3803 H   0  0  0  0  0  0  0  0  0  0  0  0  # atno 7974 bound_to 7965
  154.4043  140.1588  156.2634 H   0  0  0  0  0  0  0  0  0  0  0  0  # atno 8008 bound_to 7997
  155.9016  140.3433  155.6009 H   0  0  0  0  0  0  0  0  0  0  0  0  # atno 8009 bound_to 7997
  155.7441  140.0796  157.2223 H   0  0  0  0  0  0  0  0  0  0  0  0  # atno 8010 bound_to 7997
  140.3647  144.2183  150.6136 H   0  0  0  0  0  0  0  0  0  0  0  0  # atno 10167 bound_to 10162
  157.2689  131.0813  151.1614 H   0  0  0  0  0  0  0  0  0  0  0  0  # atno 10718 bound_to 10713
  154.0174  135.6673  153.4770 H   0  0  0  0  0  0  0  0  0  0  0  0  # atno 10763 bound_to 10752
  153.0595  135.5036  154.8055 H   0  0  0  0  0  0  0  0  0  0  0  0  # atno 10764 bound_to 10752
  154.6958  135.3069  154.9377 H   0  0  0  0  0  0  0  0  0  0  0  0  # atno 10765 bound_to 10752
  140.7723  133.8429  155.9218 H   0  0  0  0  0  0  0  0  0  0  0  0  # atno 11005 bound_to 11000
  145.0719  139.3025  143.5827 LP  0  0  0  0  0  0  0  0  0  0  0  0  # atno 17320 bound_to 7965
  146.3519  140.0197  142.8659 LP  0  0  0  0  0  0  0  0  0  0  0  0  # atno 17321 bound_to 7965
  140.5093  143.2295  151.8560 LP  0  0  0  0  0  0  0  0  0  0  0  0  # atno 17342 bound_to 10162
  139.4810  144.4969  151.9112 LP  0  0  0  0  0  0  0  0  0  0  0  0  # atno 17343 bound_to 10162
  157.3093  130.6882  149.6207 LP  0  0  0  0  0  0  0  0  0  0  0  0  # atno 17370 bound_to 10713
  155.9663  130.4368  150.5150 LP  0  0  0  0  0  0  0  0  0  0  0  0  # atno 17371 bound_to 10713
  140.9562  134.1715  157.4690 LP  0  0  0  0  0  0  0  0  0  0  0  0  # atno 17394 bound_to 11000
  139.8754  134.9928  156.5613 LP  0  0  0  0  0  0  0  0  0  0  0  0  # atno 17395 bound_to 11000

$$$$
