AV-unprocessed.smi:2999|AV-procd|sdf|11422|dock1
  -GOLD-   2272016343D 1   1.00000     0.00000
 Structure written by MMmdl.
 38 40  0  0  0  0  0  0  0  0  2 V2000
  149.0302  134.5776  158.5549 O   0  0  0  0  0  0  0  0  0  0  0  0
  148.9754  135.8064  158.5141 C   0  0  0  0  0  0  0  0  0  0  0  0
  149.3582  136.5263  157.4498 N   0  0  0  0  0  0  0  0  0  0  0  0
  149.9123  135.9800  156.2133 C   0  0  0  0  0  0  0  0  0  0  0  0
  149.8182  136.9591  155.0265 C   0  0  1  0  0  0  0  0  0  0  0  0
  148.3874  137.4467  154.7126 C   0  0  0  0  0  0  0  0  0  0  0  0
  148.4054  138.3860  153.5691 N   0  3  1  0  0  0  0  0  0  0  0  0
  147.0510  138.8507  153.1993 C   0  0  0  0  0  0  0  0  0  0  0  0
  146.7700  138.7842  151.7163 C   0  0  0  0  0  0  0  0  0  0  0  0
  147.0471  140.1172  152.3756 C   0  0  0  0  0  0  0  0  0  0  0  0
  149.3353  139.5074  153.8339 C   0  0  0  0  0  0  0  0  0  0  0  0
  150.7341  138.9708  154.1807 C   0  0  0  0  0  0  0  0  0  0  0  0
  150.6489  138.0860  155.2922 O   0  0  0  0  0  0  0  0  0  0  0  0
  148.5251  136.5973  159.5010 N   0  0  0  0  0  0  0  0  0  0  0  0
  148.0097  136.2038  160.7608 C   0  0  0  0  0  0  0  0  0  0  0  0
  147.6625  137.1469  161.6383 N   0  0  0  0  0  0  0  0  0  0  0  0
  147.1698  136.6015  162.8275 C   0  0  0  0  0  0  0  0  0  0  0  0
  147.1490  135.2287  162.8381 C   0  0  0  0  0  0  0  0  0  0  0  0
  147.7505  134.5583  161.3457 S   0  0  0  0  0  0  0  0  0  0  0  0
  149.2726  137.5311  157.5016 H   0  0  0  0  0  0  0  0  0  0  0  0
  150.9588  135.7361  156.3980 H   0  0  0  0  0  0  0  0  0  0  0  0
  149.4273  135.0367  155.9572 H   0  0  0  0  0  0  0  0  0  0  0  0
  150.2117  136.4421  154.1493 H   0  0  0  0  0  0  0  0  0  0  0  0
  147.7461  136.5955  154.4811 H   0  0  0  0  0  0  0  0  0  0  0  0
  147.9508  137.9531  155.5740 H   0  0  0  0  0  0  0  0  0  0  0  0
  146.2581  138.6557  153.9195 H   0  0  0  0  0  0  0  0  0  0  0  0
  147.5397  138.3777  151.0627 H   0  0  0  0  0  0  0  0  0  0  0  0
  145.7457  138.5839  151.4088 H   0  0  0  0  0  0  0  0  0  0  0  0
  146.2055  140.7956  152.5005 H   0  0  0  0  0  0  0  0  0  0  0  0
  148.0006  140.5954  152.1580 H   0  0  0  0  0  0  0  0  0  0  0  0
  149.3922  140.1545  152.9580 H   0  0  0  0  0  0  0  0  0  0  0  0
  148.9536  140.1138  154.6569 H   0  0  0  0  0  0  0  0  0  0  0  0
  151.1776  138.4580  153.3256 H   0  0  0  0  0  0  0  0  0  0  0  0
  151.3999  139.7951  154.4368 H   0  0  0  0  0  0  0  0  0  0  0  0
  148.5435  137.5920  159.3307 H   0  0  0  0  0  0  0  0  0  0  0  0
  146.8540  137.2662  163.6179 H   0  0  0  0  0  0  0  0  0  0  0  0
  146.8174  134.5738  163.6301 H   0  0  0  0  0  0  0  0  0  0  0  0
  148.7708  137.8789  152.7757 H   0  0  0  0  0  0  0  0  0  0  0  0
  1  2  2  0  0  0  0
  2  3  1  0  0  0  0
  2 14  1  0  0  0  0
  3  4  1  0  0  0  0
  3 20  1  0  0  0  0
  4  5  1  0  0  0  0
  4 21  1  0  0  0  0
  4 22  1  0  0  0  0
  5 13  1  0  0  0  0
  5  6  1  0  0  0  0
  5 23  1  0  0  0  0
  6  7  1  0  0  0  0
  6 24  1  0  0  0  0
  6 25  1  0  0  0  0
  7  8  1  0  0  0  0
  7 11  1  0  0  0  0
  7 38  1  0  0  0  0
  8 10  1  0  0  0  0
  8  9  1  0  0  0  0
  8 26  1  0  0  0  0
  9 10  1  0  0  0  0
  9 27  1  0  0  0  0
  9 28  1  0  0  0  0
 10 29  1  0  0  0  0
 10 30  1  0  0  0  0
 11 12  1  0  0  0  0
 11 31  1  0  0  0  0
 11 32  1  0  0  0  0
 12 13  1  0  0  0  0
 12 33  1  0  0  0  0
 12 34  1  0  0  0  0
 14 15  1  0  0  0  0
 14 35  1  0  0  0  0
 15 19  1  0  0  0  0
 15 16  2  0  0  0  0
 16 17  1  0  0  0  0
 17 18  2  0  0  0  0
 17 36  1  0  0  0  0
 18 19  1  0  0  0  0
 18 37  1  0  0  0  0
M  CHG  1   7   1
M  END
> <s_m_source_file>
AV-unprocessed.smi

> <i_m_source_file_index>
2999

> <i_lp_mmshare_version>
43012

> <i_f3d_flags>
0

> <s_epik_input>
czFbY0hdW2NIXW5jMVtOSF1DKD1PKVtOSF1bQ0gyXVtDQEBIXTJbQ0gyXU4oW0NIMl1bQ0gyXU8yKVtDSF0zW0NIMl1bQ0gyXTM=

> <s_epik_cmdline>
J2VwaWtfcHl0aG9uJywgJy1waCcsICc3LjAnLCAnLXRuJywgJzgnLCAnLW1hJywgJzIwMCcsICctbWV0YWxfYmluZGluZycsICctaW1hZScsICc8aW5maWxlLm1hZT4nLCAnLW9tYWUnLCAnPG91dGZpbGUubWFlPic=

> <r_lp_tautomer_probability>
0.999

> <r_epik_Ionization_Penalty>
1.55235

> <r_epik_Ionization_Penalty_Charging>
1.55221

> <r_epik_Ionization_Penalty_Neutral>
0.000139685

> <r_epik_State_Penalty>
1.64652

> <r_epik_Charging_Adjusted_Penalty>
3.19873

> <i_epik_Tot_Q>
1

> <i_epik_Tot_abs_Q>
1

> <r_epik_Metal_State_Penalty>
1.68612

> <b_epik_Metal_Only>
0

> <s_lp_Force_Field>
OPLS_2005

> <r_lp_Energy>
20.9615

> <b_lp_Chiralities_Consistent>
1

> <s_lp_Variant>
AV-unprocessed.smi:2999-6

> <Gold.Version>
5.8.1

> <Gold.Id.Protein>
6NUR|6NUR_protein|mol2

> <Gold.PLP.Fitness>
45.2239

> <Gold.PLP.PLP>
-31.6375

> <Gold.PLP.part.hbond>
-4.6519

> <Gold.PLP.part.metal>
0.0000

> <Gold.PLP.part.buried>
4.6622

> <Gold.PLP.part.nonpolar>
-30.4316

> <Gold.PLP.part.repulsive>
0.3498

> <Gold.PLP.ligand.clash>
0.0000

> <Gold.PLP.ligand.torsion>
0.9977

> <Gold.PLP.Chemscore.Hbond>
4.7680

> <Gold.PLP.Chemscore.CHOScore>
0.0000

> <Gold.PLP.Chemscore.Metal>
0.0000

> <Gold.Chemscore.Hbonds>
donor molecule, donor type, donor heavy atom, donor atom, acceptor molecule, acceptor atom, score
      L1  H     7    38       P1  7948  1.98
      P1  H  6896  6907       L1     1  1.00
      P1  H  6931  6943       L1    16  1.00
      P1  H  6934  6947       L1    16  0.71

> <Gold.PLP.Chemscore.Internal.Correction>
1.2778

> <Gold.Rescore>
     Score         DG    S(hbond)    S(metal)    S(lipo)     H(rot)  DE(clash)    DE(int)     intcor
     15.89     -20.64       2.86        0.00      82.38       1.58       3.07       1.68       ----

> <Gold.Chemscore.Fitness>
15.8878

> <Gold.Chemscore.DG>
-20.6379

> <Gold.Chemscore.ZeroCoef>
-5.4800

> <Gold.Chemscore.Hbond>
2.8631

> <Gold.Chemscore.Metal>
0.0000

> <Gold.Chemscore.Lipo>
82.3823

> <Gold.Chemscore.Internal_Hbond>
0.0000

> <Gold.Chemscore.DEClash>
3.0718

> <Gold.Chemscore.DEInternal>
1.6784

> <Gold.Chemscore.Rot>
1.5795

> <Gold.Chemscore.Internal.Correction>
   9.000000E+99

> <Gold.Chemscore.Hbonds>
donor molecule, donor type, donor heavy atom, donor atom, acceptor molecule, acceptor atom, score
      L1  H     7    38       P1  7948  0.94
      P1  H  6896  6907       L1     1  0.69
      P1  H  6931  6943       L1    16  0.58
      P1  H  6934  6947       L1    16  0.66

> <Gold.Chemscore.Hbond.Weighted>
-9.5627

> <Gold.Chemscore.Metal.Weighted>
-0.0000

> <Gold.Chemscore.Lipo.Weighted>
-9.6387

> <Gold.Chemscore.Internal_Hbond.Weighted>
0.0000

> <Gold.Chemscore.DEClash.Weighted>
3.0718

> <Gold.Chemscore.DEInternal.Weighted>
1.6784

> <Gold.Chemscore.Rot.Weighted>
4.0434

> <Gold.Chemscore.Internal.Correction.Weighted>
   9.000000E+99

> <Gold.Protein.RotatedTorsions>
[ 6907 6896 6895 6894 ] final -104.23 input  -60.11 | X-H torsion
[ 7974 7965 7964 7962 ] final  -88.88 input  175.53 | X-H torsion
[ 8008 7997 7996 7995 ] final    9.66 input   59.86 | X-H torsion
[ 10167 10162 10161 10158 ] final -106.47 input  -65.29 | X-H torsion
[ 10718 10713 10712 10709 ] final -119.04 input   66.30 | X-H torsion
[ 10763 10752 10751 10750 ] final   96.33 input  -60.55 | X-H torsion
[ 11005 11000 10999 10996 ] final    1.54 input  -57.11 | X-H torsion

> <Gold.Protein.ActiveResidues>
 VAL166  LYS551  ARG553  GLY616  TRP617  ASP618  TYR619  PRO620  LYS621  CYS622 
 ASP623  PHE694  ASN695  SER759  ASP760  ASP761  ALA762  ILE779  LEU786  VAL792 
 PHE793  MET794  SER795  GLU796  ALA797  LYS798  CYS799  TRP800  GLU811  SER814 

> <Gold.Protein.RotatedAtoms>
  150.7277  134.0308  159.3732 H   0  0  0  0  0  0  0  0  0  0  0  0  # atno 6907 bound_to 6896
  151.8278  135.0629  160.0442 H   0  0  0  0  0  0  0  0  0  0  0  0  # atno 6908 bound_to 6896
  152.2956  133.5568  159.5622 H   0  0  0  0  0  0  0  0  0  0  0  0  # atno 6909 bound_to 6896
  145.4472  140.9560  143.2042 H   0  0  0  0  0  0  0  0  0  0  0  0  # atno 7974 bound_to 7965
  154.7829  140.2822  155.6049 H   0  0  0  0  0  0  0  0  0  0  0  0  # atno 8008 bound_to 7997
  156.2953  140.2619  156.2587 H   0  0  0  0  0  0  0  0  0  0  0  0  # atno 8009 bound_to 7997
  154.9762  140.0375  157.2246 H   0  0  0  0  0  0  0  0  0  0  0  0  # atno 8010 bound_to 7997
  140.1874  143.3919  152.1234 H   0  0  0  0  0  0  0  0  0  0  0  0  # atno 10167 bound_to 10162
  156.1151  130.6279  150.9367 H   0  0  0  0  0  0  0  0  0  0  0  0  # atno 10718 bound_to 10713
  153.2637  135.4222  155.0920 H   0  0  0  0  0  0  0  0  0  0  0  0  # atno 10763 bound_to 10752
  154.8430  135.3455  154.6341 H   0  0  0  0  0  0  0  0  0  0  0  0  # atno 10764 bound_to 10752
  153.6761  135.7041  153.5189 H   0  0  0  0  0  0  0  0  0  0  0  0  # atno 10765 bound_to 10752
  140.6143  133.9719  155.8193 H   0  0  0  0  0  0  0  0  0  0  0  0  # atno 11005 bound_to 11000
  144.8084  139.6008  143.7040 LP  0  0  0  0  0  0  0  0  0  0  0  0  # atno 17320 bound_to 7965
  146.2524  139.6228  142.9418 LP  0  0  0  0  0  0  0  0  0  0  0  0  # atno 17321 bound_to 7965
  139.5270  144.7114  151.5192 LP  0  0  0  0  0  0  0  0  0  0  0  0  # atno 17342 bound_to 10162
  140.6479  143.8757  150.6755 LP  0  0  0  0  0  0  0  0  0  0  0  0  # atno 17343 bound_to 10162
  157.6334  131.0918  150.8396 LP  0  0  0  0  0  0  0  0  0  0  0  0  # atno 17370 bound_to 10713
  156.8501  130.5077  149.5312 LP  0  0  0  0  0  0  0  0  0  0  0  0  # atno 17371 bound_to 10713
  141.0786  134.0096  157.3420 LP  0  0  0  0  0  0  0  0  0  0  0  0  # atno 17394 bound_to 11000
  139.9179  135.0198  156.7953 LP  0  0  0  0  0  0  0  0  0  0  0  0  # atno 17395 bound_to 11000

$$$$
