AV-unprocessed.smi:229|AV-procd|sdf|1753|dock6
  -GOLD-   2262020273D 1   1.00000     0.00000
 Structure written by MMmdl.
 58 62  0  0  0  0  0  0  0  0  1 V2000
  151.1866  144.4093  160.6856 C   0  0  0  0  0  0  0  0  0  0  0  0
  152.3228  144.5440  159.6643 C   0  0  0  0  0  0  0  0  0  0  0  0
  152.9385  143.1930  159.2707 C   0  0  2  0  0  0  0  0  0  0  0  0
  152.0212  142.4027  158.3215 C   0  0  0  0  0  0  0  0  0  0  0  0
  152.5895  141.0842  158.0617 N   0  0  0  0  0  0  0  0  0  0  0  0
  152.0950  140.3605  157.0250 C   0  0  0  0  0  0  0  0  0  0  0  0
  152.6913  139.1913  156.6680 N   0  0  0  0  0  0  0  0  0  0  0  0
  152.2106  138.4695  155.6519 C   0  0  0  0  0  0  0  0  0  0  0  0
  151.1606  138.7261  154.8702 N   0  0  0  0  0  0  0  0  0  0  0  0
  150.5553  139.8969  155.2209 C   0  0  0  0  0  0  0  0  0  0  0  0
  150.9511  140.7644  156.2784 C   0  0  0  0  0  0  0  0  0  0  0  0
  150.0788  141.8433  156.3528 N   0  0  0  0  0  0  0  0  0  0  0  0
  149.2240  141.6311  155.3904 C   0  0  0  0  0  0  0  0  0  0  0  0
  149.4441  140.4924  154.6466 N   0  0  0  0  0  0  0  0  0  0  0  0
  148.6458  139.9993  153.5308 C   0  0  0  0  0  0  0  0  0  0  0  0
  147.2049  140.5625  153.4693 C   0  0  1  0  0  0  0  0  0  0  0  0
  146.6550  140.2254  152.2109 O   0  0  0  0  0  0  0  0  0  0  0  0
  146.2479  140.0354  154.5607 C   0  0  1  0  0  0  0  0  0  0  0  0
  146.1883  138.5070  154.6842 C   0  0  0  0  0  0  0  0  0  0  0  0
  145.9680  138.2460  156.1679 C   0  0  0  0  0  0  0  0  0  0  0  0
  146.0482  139.6320  156.8026 C   0  0  0  0  0  0  0  0  0  0  0  0
  146.7428  140.4062  155.8399 O   0  0  0  0  0  0  0  0  0  0  0  0
  152.8463  140.3299  159.2830 C   0  0  0  0  0  0  0  0  0  0  0  0
  153.7371  141.1415  160.2513 C   0  0  1  0  0  0  0  0  0  0  0  0
  153.8411  140.4509  161.6072 C   0  0  0  0  0  0  0  0  0  0  0  0
  155.1332  139.6560  161.4949 C   0  0  0  0  0  0  0  0  0  0  0  0
  155.9820  140.5573  160.8101 O   0  0  0  0  0  0  0  0  0  0  0  0
  155.2165  141.2099  159.8037 C   0  0  0  0  0  0  0  0  0  0  0  0
  153.1560  142.4319  160.4608 O   0  0  0  0  0  0  0  0  0  0  0  0
  150.7878  145.3881  160.9525 H   0  0  0  0  0  0  0  0  0  0  0  0
  151.5348  143.9310  161.6014 H   0  0  0  0  0  0  0  0  0  0  0  0
  150.3649  143.8135  160.2876 H   0  0  0  0  0  0  0  0  0  0  0  0
  151.9541  145.0541  158.7737 H   0  0  0  0  0  0  0  0  0  0  0  0
  153.0977  145.1847  160.0865 H   0  0  0  0  0  0  0  0  0  0  0  0
  153.8875  143.3805  158.7677 H   0  0  0  0  0  0  0  0  0  0  0  0
  151.0294  142.2890  158.7617 H   0  0  0  0  0  0  0  0  0  0  0  0
  151.9033  142.9527  157.3869 H   0  0  0  0  0  0  0  0  0  0  0  0
  152.7429  137.5553  155.4345 H   0  0  0  0  0  0  0  0  0  0  0  0
  148.4036  142.3074  155.2012 H   0  0  0  0  0  0  0  0  0  0  0  0
  149.1657  140.2417  152.6039 H   0  0  0  0  0  0  0  0  0  0  0  0
  148.6254  138.9099  153.5813 H   0  0  0  0  0  0  0  0  0  0  0  0
  147.2569  141.6502  153.5296 H   0  0  0  0  0  0  0  0  0  0  0  0
  145.7174  140.3342  152.2549 H   0  0  0  0  0  0  0  0  0  0  0  0
  145.2395  140.4341  154.4304 H   0  0  0  0  0  0  0  0  0  0  0  0
  145.3937  138.0788  154.0748 H   0  0  0  0  0  0  0  0  0  0  0  0
  147.1306  138.0554  154.3716 H   0  0  0  0  0  0  0  0  0  0  0  0
  145.0073  137.7712  156.3689 H   0  0  0  0  0  0  0  0  0  0  0  0
  146.7527  137.5954  156.5555 H   0  0  0  0  0  0  0  0  0  0  0  0
  145.0512  140.0498  156.9509 H   0  0  0  0  0  0  0  0  0  0  0  0
  146.5655  139.6276  157.7622 H   0  0  0  0  0  0  0  0  0  0  0  0
  151.8852  140.1189  159.7541 H   0  0  0  0  0  0  0  0  0  0  0  0
  153.3059  139.3641  159.0770 H   0  0  0  0  0  0  0  0  0  0  0  0
  153.9496  141.1929  162.3998 H   0  0  0  0  0  0  0  0  0  0  0  0
  152.9793  139.8296  161.8521 H   0  0  0  0  0  0  0  0  0  0  0  0
  155.5426  139.3731  162.4647 H   0  0  0  0  0  0  0  0  0  0  0  0
  154.9919  138.7533  160.8982 H   0  0  0  0  0  0  0  0  0  0  0  0
  155.3690  140.7022  158.8504 H   0  0  0  0  0  0  0  0  0  0  0  0
  155.5822  142.2307  159.6972 H   0  0  0  0  0  0  0  0  0  0  0  0
  1  2  1  0  0  0  0
  1 30  1  0  0  0  0
  1 31  1  0  0  0  0
  1 32  1  0  0  0  0
  2  3  1  0  0  0  0
  2 33  1  0  0  0  0
  2 34  1  0  0  0  0
  3 29  1  0  0  0  0
  3  4  1  0  0  0  0
  3 35  1  0  0  0  0
  4  5  1  0  0  0  0
  4 36  1  0  0  0  0
  4 37  1  0  0  0  0
  5  6  1  0  0  0  0
  5 23  1  0  0  0  0
  6 11  1  0  0  0  0
  6  7  2  0  0  0  0
  7  8  1  0  0  0  0
  8  9  2  0  0  0  0
  8 38  1  0  0  0  0
  9 10  1  0  0  0  0
 10 14  1  0  0  0  0
 10 11  2  0  0  0  0
 11 12  1  0  0  0  0
 12 13  2  0  0  0  0
 13 14  1  0  0  0  0
 13 39  1  0  0  0  0
 14 15  1  0  0  0  0
 15 16  1  0  0  0  0
 15 40  1  0  0  0  0
 15 41  1  0  0  0  0
 16 17  1  0  0  0  0
 16 18  1  0  0  0  0
 16 42  1  0  0  0  0
 17 43  1  0  0  0  0
 18 22  1  0  0  0  0
 18 19  1  0  0  0  0
 18 44  1  0  0  0  0
 19 20  1  0  0  0  0
 19 45  1  0  0  0  0
 19 46  1  0  0  0  0
 20 21  1  0  0  0  0
 20 47  1  0  0  0  0
 20 48  1  0  0  0  0
 21 22  1  0  0  0  0
 21 49  1  0  0  0  0
 21 50  1  0  0  0  0
 23 24  1  0  0  0  0
 23 51  1  0  0  0  0
 23 52  1  0  0  0  0
 24 28  1  0  0  0  0
 24 25  1  0  0  0  0
 24 29  1  0  0  0  0
 25 26  1  0  0  0  0
 25 53  1  0  0  0  0
 25 54  1  0  0  0  0
 26 27  1  0  0  0  0
 26 55  1  0  0  0  0
 26 56  1  0  0  0  0
 27 28  1  0  0  0  0
 28 57  1  0  0  0  0
 28 58  1  0  0  0  0
M  END
> <s_m_source_file>
AV-unprocessed.smi

> <i_m_source_file_index>
229

> <i_lp_mmshare_version>
43012

> <i_f3d_flags>
0

> <s_epik_input>
W0NIMl0xT1tDSDJdW0NIMl1bQ0BdMTJbQ0gyXU4oW0NIMl1bQ0BIXShPMilbQ0gyXVtDSDNdKWMobltjSF1uMyljKGMzNCluW2NIXW40W0NIMl1bQ0BIXShbT0hdKVtDQEBIXTVbQ0gyXVtDSDJdW0NIMl1PNQ==

> <s_epik_cmdline>
J2VwaWtfcHl0aG9uJywgJy1waCcsICc3LjAnLCAnLXRuJywgJzgnLCAnLW1hJywgJzIwMCcsICctbWV0YWxfYmluZGluZycsICctaW1hZScsICc8aW5maWxlLm1hZT4nLCAnLW9tYWUnLCAnPG91dGZpbGUubWFlPic=

> <r_lp_tautomer_probability>
1

> <r_epik_Ionization_Penalty>
0.00318402

> <r_epik_Ionization_Penalty_Charging>
0

> <r_epik_Ionization_Penalty_Neutral>
0.00318402

> <r_epik_State_Penalty>
0.00215642

> <r_epik_Charging_Adjusted_Penalty>
0.00215642

> <i_epik_Tot_Q>
0

> <i_epik_Tot_abs_Q>
0

> <r_epik_Metal_State_Penalty>
-0

> <b_epik_Metal_Only>
0

> <s_lp_Force_Field>
OPLS_2005

> <r_lp_Energy>
56.4777

> <b_lp_Chiralities_Consistent>
1

> <s_lp_Variant>
AV-unprocessed.smi:229-7

> <Gold.Version>
5.8.1

> <Gold.Id.Protein>
6NUR|6NUR_protein|mol2

> <Gold.PLP.Fitness>
49.8070

> <Gold.PLP.PLP>
-44.0337

> <Gold.PLP.part.hbond>
-4.1643

> <Gold.PLP.part.metal>
0.0000

> <Gold.PLP.part.buried>
-0.8326

> <Gold.PLP.part.nonpolar>
-40.2323

> <Gold.PLP.part.repulsive>
0.2353

> <Gold.PLP.ligand.clash>
0.0000

> <Gold.PLP.ligand.torsion>
0.6754

> <Gold.PLP.Chemscore.Hbond>
1.5500

> <Gold.PLP.Chemscore.CHOScore>
0.7018

> <Gold.PLP.Chemscore.Metal>
0.0000

> <Gold.Chemscore.Hbonds>
donor molecule, donor type, donor heavy atom, donor atom, acceptor molecule, acceptor atom, score
      L1  H    17    43       P1 10175  0.98
      P1  H  7997  8008       L1     7  0.50
      L1  C    13    39       P1  8028  0.72

> <Gold.PLP.Chemscore.Internal.Correction>
0.3687

> <Gold.Rescore>
     Score         DG    S(hbond)    S(metal)    S(lipo)     H(rot)  DE(clash)    DE(int)     intcor
     12.45     -14.78       0.99        0.00     104.93       2.46       0.04       2.29       ----

> <Gold.Chemscore.Fitness>
12.4516

> <Gold.Chemscore.DG>
-14.7812

> <Gold.Chemscore.ZeroCoef>
-5.4800

> <Gold.Chemscore.Hbond>
0.9940

> <Gold.Chemscore.Metal>
0.0000

> <Gold.Chemscore.Lipo>
104.9271

> <Gold.Chemscore.Internal_Hbond>
0.0000

> <Gold.Chemscore.DEClash>
0.0421

> <Gold.Chemscore.DEInternal>
2.2875

> <Gold.Chemscore.Rot>
2.4591

> <Gold.Chemscore.Internal.Correction>
   9.000000E+99

> <Gold.Chemscore.Hbonds>
donor molecule, donor type, donor heavy atom, donor atom, acceptor molecule, acceptor atom, score
      L1  H    17    43       P1 10175  0.41
      P1  H  7997  8008       L1     7  0.02

> <Gold.Chemscore.Hbond.Weighted>
-3.3201

> <Gold.Chemscore.Metal.Weighted>
-0.0000

> <Gold.Chemscore.Lipo.Weighted>
-12.2765

> <Gold.Chemscore.Internal_Hbond.Weighted>
0.0000

> <Gold.Chemscore.DEClash.Weighted>
0.0421

> <Gold.Chemscore.DEInternal.Weighted>
2.2875

> <Gold.Chemscore.Rot.Weighted>
6.2953

> <Gold.Chemscore.Internal.Correction.Weighted>
   9.000000E+99

> <Gold.Protein.RotatedTorsions>
[ 6907 6896 6895 6894 ] final -170.29 input  -60.11 | X-H torsion
[ 7974 7965 7964 7962 ] final   51.41 input  175.53 | X-H torsion
[ 8008 7997 7996 7995 ] final  -56.78 input   59.86 | X-H torsion
[ 10167 10162 10161 10158 ] final -107.71 input  -65.29 | X-H torsion
[ 10718 10713 10712 10709 ] final   22.86 input   66.30 | X-H torsion
[ 10763 10752 10751 10750 ] final  133.82 input  -60.55 | X-H torsion
[ 11005 11000 10999 10996 ] final  -70.52 input  -57.11 | X-H torsion

> <Gold.Protein.ActiveResidues>
 VAL166  LYS551  ARG553  GLY616  TRP617  ASP618  TYR619  PRO620  LYS621  CYS622 
 ASP623  PHE694  ASN695  SER759  ASP760  ASP761  ALA762  ILE779  LEU786  VAL792 
 PHE793  MET794  SER795  GLU796  ALA797  LYS798  CYS799  TRP800  GLU811  SER814 

> <Gold.Protein.RotatedAtoms>
  151.5053  133.3496  159.2875 H   0  0  0  0  0  0  0  0  0  0  0  0  # atno 6907 bound_to 6896
  150.8747  134.8130  159.7192 H   0  0  0  0  0  0  0  0  0  0  0  0  # atno 6908 bound_to 6896
  152.4722  134.4942  159.9756 H   0  0  0  0  0  0  0  0  0  0  0  0  # atno 6909 bound_to 6896
  145.9916  139.4345  143.0070 H   0  0  0  0  0  0  0  0  0  0  0  0  # atno 7974 bound_to 7965
  154.4243  140.1122  156.5692 H   0  0  0  0  0  0  0  0  0  0  0  0  # atno 8008 bound_to 7997
  155.6230  140.3495  155.4639 H   0  0  0  0  0  0  0  0  0  0  0  0  # atno 8009 bound_to 7997
  156.0009  140.1199  157.0538 H   0  0  0  0  0  0  0  0  0  0  0  0  # atno 8010 bound_to 7997
  140.1740  143.4020  152.1333 H   0  0  0  0  0  0  0  0  0  0  0  0  # atno 10167 bound_to 10162
  157.1581  130.6704  149.6034 H   0  0  0  0  0  0  0  0  0  0  0  0  # atno 10718 bound_to 10713
  153.8135  135.3126  155.3403 H   0  0  0  0  0  0  0  0  0  0  0  0  # atno 10763 bound_to 10752
  154.8042  135.4708  154.0353 H   0  0  0  0  0  0  0  0  0  0  0  0  # atno 10764 bound_to 10752
  153.1739  135.6882  153.8659 H   0  0  0  0  0  0  0  0  0  0  0  0  # atno 10765 bound_to 10752
  141.1575  133.6792  156.6765 H   0  0  0  0  0  0  0  0  0  0  0  0  # atno 11005 bound_to 11000
  145.7622  140.9931  143.1194 LP  0  0  0  0  0  0  0  0  0  0  0  0  # atno 17320 bound_to 7965
  144.6890  139.9344  143.7473 LP  0  0  0  0  0  0  0  0  0  0  0  0  # atno 17321 bound_to 7965
  139.5325  144.7175  151.5005 LP  0  0  0  0  0  0  0  0  0  0  0  0  # atno 17342 bound_to 10162
  140.6564  143.8591  150.6839 LP  0  0  0  0  0  0  0  0  0  0  0  0  # atno 17343 bound_to 10162
  155.9758  130.4721  150.6488 LP  0  0  0  0  0  0  0  0  0  0  0  0  # atno 17370 bound_to 10713
  157.4158  131.0830  151.1178 LP  0  0  0  0  0  0  0  0  0  0  0  0  # atno 17371 bound_to 10713
  140.3135  134.8067  157.4195 LP  0  0  0  0  0  0  0  0  0  0  0  0  # atno 17394 bound_to 11000
  140.1158  134.5285  155.8226 LP  0  0  0  0  0  0  0  0  0  0  0  0  # atno 17395 bound_to 11000

$$$$
