AV-unprocessed.smi:626|AV-procd|sdf|3109|dock3
  -GOLD-   22720 0 33D 1   1.00000     0.00000
 Structure written by MMmdl.
 34 36  0  0  0  0  0  0  0  0  1 V2000
  149.9618  136.1590  155.3509 C   0  0  0  0  0  0  0  0  0  0  0  0
  150.7060  137.3859  155.1109 N   0  0  0  0  0  0  0  0  0  0  0  0
  151.9820  137.5781  155.4760 C   0  0  0  0  0  0  0  0  0  0  0  0
  152.6486  136.7186  156.0552 O   0  0  0  0  0  0  0  0  0  0  0  0
  152.5797  138.9460  155.1196 C   0  0  0  0  0  0  0  0  0  0  0  0
  151.9333  140.0687  155.8707 C   0  0  0  0  0  0  0  0  0  0  0  0
  150.9299  140.7629  155.3473 N   0  0  0  0  0  0  0  0  0  0  0  0
  150.6347  141.7047  156.3433 O   0  0  0  0  0  0  0  0  0  0  0  0
  151.4792  141.4404  157.3698 C   0  0  0  0  0  0  0  0  0  0  0  0
  151.4637  142.3489  158.5615 C   0  0  2  0  0  0  0  0  0  0  0  0
  150.4289  143.4904  158.4769 C   0  0  0  0  0  0  0  0  0  0  0  0
  151.2729  144.7337  158.8175 C   0  0  1  0  0  0  0  0  0  0  0  0
  151.7172  144.6781  160.2925 C   0  0  0  0  0  0  0  0  0  0  0  0
  152.7995  143.5795  160.2844 C   0  0  0  0  0  0  0  0  0  0  0  0
  152.7869  143.1067  158.8181 C   0  0  2  0  0  0  0  0  0  0  0  0
  152.5746  144.4302  158.0866 C   0  0  0  0  0  0  0  0  0  0  0  0
  152.3437  140.4616  157.1081 N   0  0  0  0  0  0  0  0  0  0  0  0
  148.9555  136.2487  154.9419 H   0  0  0  0  0  0  0  0  0  0  0  0
  149.8790  135.9577  156.4198 H   0  0  0  0  0  0  0  0  0  0  0  0
  150.4495  135.3084  154.8728 H   0  0  0  0  0  0  0  0  0  0  0  0
  150.2227  138.1345  154.6354 H   0  0  0  0  0  0  0  0  0  0  0  0
  153.6484  138.9341  155.3375 H   0  0  0  0  0  0  0  0  0  0  0  0
  152.4761  139.1214  154.0476 H   0  0  0  0  0  0  0  0  0  0  0  0
  151.2391  141.7220  159.4259 H   0  0  0  0  0  0  0  0  0  0  0  0
  150.0244  143.5828  157.4676 H   0  0  0  0  0  0  0  0  0  0  0  0
  149.5903  143.3465  159.1590 H   0  0  0  0  0  0  0  0  0  0  0  0
  150.7969  145.6740  158.5380 H   0  0  0  0  0  0  0  0  0  0  0  0
  152.1418  145.6317  160.6086 H   0  0  0  0  0  0  0  0  0  0  0  0
  150.8892  144.4413  160.9616 H   0  0  0  0  0  0  0  0  0  0  0  0
  153.7719  143.9991  160.5454 H   0  0  0  0  0  0  0  0  0  0  0  0
  152.5860  142.7753  160.9896 H   0  0  0  0  0  0  0  0  0  0  0  0
  153.6832  142.5507  158.5398 H   0  0  0  0  0  0  0  0  0  0  0  0
  152.4487  144.3206  157.0086 H   0  0  0  0  0  0  0  0  0  0  0  0
  153.3609  145.1624  158.2789 H   0  0  0  0  0  0  0  0  0  0  0  0
  1  2  1  0  0  0  0
  1 18  1  0  0  0  0
  1 19  1  0  0  0  0
  1 20  1  0  0  0  0
  2  3  1  0  0  0  0
  2 21  1  0  0  0  0
  3  4  2  0  0  0  0
  3  5  1  0  0  0  0
  5  6  1  0  0  0  0
  5 22  1  0  0  0  0
  5 23  1  0  0  0  0
  6 17  1  0  0  0  0
  6  7  2  0  0  0  0
  7  8  1  0  0  0  0
  8  9  1  0  0  0  0
  9 10  1  0  0  0  0
  9 17  2  0  0  0  0
 10 15  1  0  0  0  0
 10 11  1  0  0  0  0
 10 24  1  0  0  0  0
 11 12  1  0  0  0  0
 11 25  1  0  0  0  0
 11 26  1  0  0  0  0
 12 16  1  0  0  0  0
 12 13  1  0  0  0  0
 12 27  1  0  0  0  0
 13 14  1  0  0  0  0
 13 28  1  0  0  0  0
 13 29  1  0  0  0  0
 14 15  1  0  0  0  0
 14 30  1  0  0  0  0
 14 31  1  0  0  0  0
 15 16  1  0  0  0  0
 15 32  1  0  0  0  0
 16 33  1  0  0  0  0
 16 34  1  0  0  0  0
M  END
> <s_m_source_file>
AV-unprocessed.smi

> <i_m_source_file_index>
626

> <i_lp_mmshare_version>
43012

> <i_f3d_flags>
0

> <s_epik_input>
W0NIM11bTkhdQyg9TylbQ0gyXWMxbm9jKG4xKVtDQEhdKFtDSDJdW0NAQEhdMjMpW0NAQEhdKFtDSDJdMylbQ0gyXVtDSDJdMg==

> <s_epik_cmdline>
J2VwaWtfcHl0aG9uJywgJy1waCcsICc3LjAnLCAnLXRuJywgJzgnLCAnLW1hJywgJzIwMCcsICctbWV0YWxfYmluZGluZycsICctaW1hZScsICc8aW5maWxlLm1hZT4nLCAnLW9tYWUnLCAnPG91dGZpbGUubWFlPic=

> <r_lp_tautomer_probability>
1

> <r_epik_Ionization_Penalty>
1.02916e-07

> <r_epik_Ionization_Penalty_Charging>
0

> <r_epik_Ionization_Penalty_Neutral>
1.02916e-07

> <r_epik_State_Penalty>
-0

> <r_epik_Charging_Adjusted_Penalty>
0

> <i_epik_Tot_Q>
0

> <i_epik_Tot_abs_Q>
0

> <r_epik_Metal_State_Penalty>
-0

> <b_epik_Metal_Only>
0

> <s_lp_Force_Field>
OPLS_2005

> <r_lp_Energy>
49.0538

> <b_lp_Chiralities_Consistent>
1

> <s_lp_Variant>
AV-unprocessed.smi:626-1

> <Gold.Version>
5.8.1

> <Gold.Id.Protein>
6NUR|6NUR_protein|mol2

> <Gold.PLP.Fitness>
44.0091

> <Gold.PLP.PLP>
-38.1314

> <Gold.PLP.part.hbond>
-2.8831

> <Gold.PLP.part.metal>
0.0000

> <Gold.PLP.part.buried>
-4.2360

> <Gold.PLP.part.nonpolar>
-31.1140

> <Gold.PLP.part.repulsive>
0.1864

> <Gold.PLP.ligand.clash>
0.0000

> <Gold.PLP.ligand.torsion>
0.4426

> <Gold.PLP.Chemscore.Hbond>
2.2288

> <Gold.PLP.Chemscore.CHOScore>
0.0000

> <Gold.PLP.Chemscore.Metal>
0.0000

> <Gold.Chemscore.Hbonds>
donor molecule, donor type, donor heavy atom, donor atom, acceptor molecule, acceptor atom, score
      P1  H  7989  7998       L1     7  0.75
      P1  H  7997  8010       L1    17  0.50
      P1  H 10752 10765       L1     4  0.93

> <Gold.PLP.Chemscore.Internal.Correction>
0.0764

> <Gold.Rescore>
     Score         DG    S(hbond)    S(metal)    S(lipo)     H(rot)  DE(clash)    DE(int)     intcor
     16.62     -17.22       1.52        0.00      92.26       1.61       0.19       0.41       ----

> <Gold.Chemscore.Fitness>
16.6190

> <Gold.Chemscore.DG>
-17.2230

> <Gold.Chemscore.ZeroCoef>
-5.4800

> <Gold.Chemscore.Hbond>
1.5197

> <Gold.Chemscore.Metal>
0.0000

> <Gold.Chemscore.Lipo>
92.2559

> <Gold.Chemscore.Internal_Hbond>
0.0000

> <Gold.Chemscore.DEClash>
0.1921

> <Gold.Chemscore.DEInternal>
0.4118

> <Gold.Chemscore.Rot>
1.6119

> <Gold.Chemscore.Internal.Correction>
   9.000000E+99

> <Gold.Chemscore.Hbonds>
donor molecule, donor type, donor heavy atom, donor atom, acceptor molecule, acceptor atom, score
      P1  H  7989  7998       L1     7  0.14
      P1  H  7997  8010       L1    17  0.07
      P1  H 10752 10765       L1     4  0.84

> <Gold.Chemscore.Hbond.Weighted>
-5.0757

> <Gold.Chemscore.Metal.Weighted>
-0.0000

> <Gold.Chemscore.Lipo.Weighted>
-10.7939

> <Gold.Chemscore.Internal_Hbond.Weighted>
0.0000

> <Gold.Chemscore.DEClash.Weighted>
0.1921

> <Gold.Chemscore.DEInternal.Weighted>
0.4118

> <Gold.Chemscore.Rot.Weighted>
4.1266

> <Gold.Chemscore.Internal.Correction.Weighted>
   9.000000E+99

> <Gold.Protein.RotatedTorsions>
[ 6907 6896 6895 6894 ] final   78.60 input  -60.11 | X-H torsion
[ 7974 7965 7964 7962 ] final  -70.91 input  175.53 | X-H torsion
[ 8008 7997 7996 7995 ] final   51.67 input   59.86 | X-H torsion
[ 10167 10162 10161 10158 ] final -137.56 input  -65.29 | X-H torsion
[ 10718 10713 10712 10709 ] final  -89.72 input   66.30 | X-H torsion
[ 10763 10752 10751 10750 ] final -142.93 input  -60.55 | X-H torsion
[ 11005 11000 10999 10996 ] final   62.19 input  -57.11 | X-H torsion

> <Gold.Protein.ActiveResidues>
 VAL166  LYS551  ARG553  GLY616  TRP617  ASP618  TYR619  PRO620  LYS621  CYS622 
 ASP623  PHE694  ASN695  SER759  ASP760  ASP761  ALA762  ILE779  LEU786  VAL792 
 PHE793  MET794  SER795  GLU796  ALA797  LYS798  CYS799  TRP800  GLU811  SER814 

> <Gold.Protein.RotatedAtoms>
  152.5166  134.3639  159.9294 H   0  0  0  0  0  0  0  0  0  0  0  0  # atno 6907 bound_to 6896
  151.3592  133.3890  159.2695 H   0  0  0  0  0  0  0  0  0  0  0  0  # atno 6908 bound_to 6896
  150.9665  134.9064  159.7820 H   0  0  0  0  0  0  0  0  0  0  0  0  # atno 6909 bound_to 6896
  145.6848  140.9174  143.0813 H   0  0  0  0  0  0  0  0  0  0  0  0  # atno 7974 bound_to 7965
  155.4390  140.3453  155.4288 H   0  0  0  0  0  0  0  0  0  0  0  0  # atno 8008 bound_to 7997
  156.1290  140.1508  156.9124 H   0  0  0  0  0  0  0  0  0  0  0  0  # atno 8009 bound_to 7997
  154.4880  140.0849  156.7510 H   0  0  0  0  0  0  0  0  0  0  0  0  # atno 8010 bound_to 7997
  139.8565  143.7131  152.2654 H   0  0  0  0  0  0  0  0  0  0  0  0  # atno 10167 bound_to 10162
  155.9985  130.4883  150.5214 H   0  0  0  0  0  0  0  0  0  0  0  0  # atno 10718 bound_to 10713
  154.8490  135.3482  154.6106 H   0  0  0  0  0  0  0  0  0  0  0  0  # atno 10763 bound_to 10752
  153.6714  135.6985  153.5150 H   0  0  0  0  0  0  0  0  0  0  0  0  # atno 10764 bound_to 10752
  153.2739  135.4284  155.0971 H   0  0  0  0  0  0  0  0  0  0  0  0  # atno 10765 bound_to 10752
  140.0109  134.6298  155.9782 H   0  0  0  0  0  0  0  0  0  0  0  0  # atno 11005 bound_to 11000
  144.7014  139.8744  143.7443 LP  0  0  0  0  0  0  0  0  0  0  0  0  # atno 17320 bound_to 7965
  146.0933  139.3923  143.0392 LP  0  0  0  0  0  0  0  0  0  0  0  0  # atno 17321 bound_to 7965
  139.7415  144.7558  151.0646 LP  0  0  0  0  0  0  0  0  0  0  0  0  # atno 17342 bound_to 10162
  140.7781  143.4967  150.9823 LP  0  0  0  0  0  0  0  0  0  0  0  0  # atno 17343 bound_to 10162
  157.3175  131.0675  151.1956 LP  0  0  0  0  0  0  0  0  0  0  0  0  # atno 17370 bound_to 10713
  157.2881  130.6782  149.6100 LP  0  0  0  0  0  0  0  0  0  0  0  0  # atno 17371 bound_to 10713
  141.1710  133.6537  156.4651 LP  0  0  0  0  0  0  0  0  0  0  0  0  # atno 17394 bound_to 11000
  140.4557  134.6888  157.5061 LP  0  0  0  0  0  0  0  0  0  0  0  0  # atno 17395 bound_to 11000

$$$$
