AV-unprocessed.smi:2747|AV-procd|sdf|10580|dock1
  -GOLD-   2272015 33D 1   1.00000     0.00000
 Structure written by MMmdl.
 23 24  0  0  0  0  0  0  0  0  2 V2000
  152.8547  139.0726  157.0223 O   0  5  0  0  0  0  0  0  0  0  0  0
  151.6811  139.3122  156.4862 C   0  0  1  0  0  0  0  0  0  0  0  0
  151.6142  140.8302  156.1604 C   0  0  0  0  0  0  0  0  0  0  0  0
  151.4529  141.6972  157.3257 N   0  0  0  0  0  0  0  0  0  0  0  0
  150.5721  142.7408  157.2784 N   0  0  0  0  0  0  0  0  0  0  0  0
  150.6208  143.3816  158.4083 N   0  0  0  0  0  0  0  0  0  0  0  0
  151.5569  142.7566  159.2149 C   0  0  0  0  0  0  0  0  0  0  0  0
  152.0084  143.0359  160.5242 C   0  0  0  0  0  0  0  0  0  0  0  0
  152.9971  142.2268  161.1266 C   0  0  0  0  0  0  0  0  0  0  0  0
  153.5245  142.6020  162.7288 Cl  0  0  0  0  0  0  0  0  0  0  0  0
  153.5457  141.1266  160.4242 C   0  0  0  0  0  0  0  0  0  0  0  0
  154.7555  140.1264  161.1464 Cl  0  0  0  0  0  0  0  0  0  0  0  0
  153.1055  140.8376  159.1175 C   0  0  0  0  0  0  0  0  0  0  0  0
  152.1210  141.6548  158.5366 C   0  0  0  0  0  0  0  0  0  0  0  0
  151.5671  138.4567  155.2009 C   0  0  0  0  0  0  0  0  0  0  0  0
  152.7208  138.4689  154.5306 F   0  0  0  0  0  0  0  0  0  0  0  0
  151.2999  137.1914  155.5275 F   0  0  0  0  0  0  0  0  0  0  0  0
  150.5923  138.8968  154.4014 F   0  0  0  0  0  0  0  0  0  0  0  0
  150.7729  139.0991  157.0524 H   0  0  0  0  0  0  0  0  0  0  0  0
  152.5124  141.1463  155.6275 H   0  0  0  0  0  0  0  0  0  0  0  0
  150.7838  141.0260  155.4806 H   0  0  0  0  0  0  0  0  0  0  0  0
  151.5954  143.8748  161.0646 H   0  0  0  0  0  0  0  0  0  0  0  0
  153.5113  139.9996  158.5699 H   0  0  0  0  0  0  0  0  0  0  0  0
  1  2  1  0  0  0  0
  2  3  1  0  0  0  0
  2 15  1  0  0  0  0
  2 19  1  0  0  0  0
  3  4  1  0  0  0  0
  3 20  1  0  0  0  0
  3 21  1  0  0  0  0
  4 14  1  0  0  0  0
  4  5  1  0  0  0  0
  5  6  2  0  0  0  0
  6  7  1  0  0  0  0
  7 14  2  0  0  0  0
  7  8  1  0  0  0  0
  8  9  2  0  0  0  0
  8 22  1  0  0  0  0
  9 10  1  0  0  0  0
  9 11  1  0  0  0  0
 11 12  1  0  0  0  0
 11 13  2  0  0  0  0
 13 14  1  0  0  0  0
 13 23  1  0  0  0  0
 15 16  1  0  0  0  0
 15 17  1  0  0  0  0
 15 18  1  0  0  0  0
M  CHG  1   1  -1
M  END
> <s_m_source_file>
AV-unprocessed.smi

> <i_m_source_file_index>
2747

> <i_lp_mmshare_version>
43012

> <i_f3d_flags>
0

> <s_epik_input>
RkMoRikoRilbQ0BIXShbT0hdKVtDSDJdbihubjEpYyhjMTIpW2NIXWMoQ2wpYyhDbClbY0hdMg==

> <s_epik_cmdline>
J2VwaWtfcHl0aG9uJywgJy1waCcsICc3LjAnLCAnLXRuJywgJzgnLCAnLW1hJywgJzIwMCcsICctbWV0YWxfYmluZGluZycsICctaW1hZScsICc8aW5maWxlLm1hZT4nLCAnLW9tYWUnLCAnPG91dGZpbGUubWFlPic=

> <r_lp_tautomer_probability>
1

> <r_epik_Ionization_Penalty>
1.2724

> <r_epik_Ionization_Penalty_Charging>
1.2724

> <r_epik_Ionization_Penalty_Neutral>
1.57383e-10

> <r_epik_State_Penalty>
1.34397

> <r_epik_Charging_Adjusted_Penalty>
2.61637

> <i_epik_Tot_Q>
-1

> <i_epik_Tot_abs_Q>
1

> <r_epik_Metal_State_Penalty>
1.34397

> <b_epik_Metal_Only>
0

> <s_lp_Force_Field>
OPLS_2005

> <r_lp_Energy>
12.5023

> <b_lp_Chiralities_Consistent>
1

> <s_lp_Variant>
AV-unprocessed.smi:2747-4

> <Gold.Version>
5.8.1

> <Gold.Id.Protein>
6NUR|6NUR_protein|mol2

> <Gold.PLP.Fitness>
44.3935

> <Gold.PLP.PLP>
-39.7353

> <Gold.PLP.part.hbond>
-1.0000

> <Gold.PLP.part.metal>
0.0000

> <Gold.PLP.part.buried>
-6.2433

> <Gold.PLP.part.nonpolar>
-33.3890

> <Gold.PLP.part.repulsive>
0.7516

> <Gold.PLP.ligand.clash>
0.0000

> <Gold.PLP.ligand.torsion>
0.6775

> <Gold.PLP.Chemscore.Hbond>
2.0000

> <Gold.PLP.Chemscore.CHOScore>
0.0000

> <Gold.PLP.Chemscore.Metal>
0.0000

> <Gold.Chemscore.Hbonds>
donor molecule, donor type, donor heavy atom, donor atom, acceptor molecule, acceptor atom, score
      P1  H  7997  8009       L1     1  1.98

> <Gold.PLP.Chemscore.Internal.Correction>
0.0131

> <Gold.Rescore>
     Score         DG    S(hbond)    S(metal)    S(lipo)     H(rot)  DE(clash)    DE(int)     intcor
     15.45     -16.24       0.99        0.00      93.22       1.35       0.10       0.69       ----

> <Gold.Chemscore.Fitness>
15.4506

> <Gold.Chemscore.DG>
-16.2412

> <Gold.Chemscore.ZeroCoef>
-5.4800

> <Gold.Chemscore.Hbond>
0.9890

> <Gold.Chemscore.Metal>
0.0000

> <Gold.Chemscore.Lipo>
93.2243

> <Gold.Chemscore.Internal_Hbond>
0.0000

> <Gold.Chemscore.DEClash>
0.1024

> <Gold.Chemscore.DEInternal>
0.6882

> <Gold.Chemscore.Rot>
1.3474

> <Gold.Chemscore.Internal.Correction>
   9.000000E+99

> <Gold.Chemscore.Hbonds>
donor molecule, donor type, donor heavy atom, donor atom, acceptor molecule, acceptor atom, score
      P1  H  7997  8009       L1     1  0.87

> <Gold.Chemscore.Hbond.Weighted>
-3.3034

> <Gold.Chemscore.Metal.Weighted>
-0.0000

> <Gold.Chemscore.Lipo.Weighted>
-10.9072

> <Gold.Chemscore.Internal_Hbond.Weighted>
0.0000

> <Gold.Chemscore.DEClash.Weighted>
0.1024

> <Gold.Chemscore.DEInternal.Weighted>
0.6882

> <Gold.Chemscore.Rot.Weighted>
3.4494

> <Gold.Chemscore.Internal.Correction.Weighted>
   9.000000E+99

> <Gold.Protein.RotatedTorsions>
[ 6907 6896 6895 6894 ] final  -42.80 input  -60.11 | X-H torsion
[ 7974 7965 7964 7962 ] final -137.17 input  175.53 | X-H torsion
[ 8008 7997 7996 7995 ] final -160.27 input   59.86 | X-H torsion
[ 10167 10162 10161 10158 ] final   -5.21 input  -65.29 | X-H torsion
[ 10718 10713 10712 10709 ] final   98.70 input   66.30 | X-H torsion
[ 10763 10752 10751 10750 ] final    8.40 input  -60.55 | X-H torsion
[ 11005 11000 10999 10996 ] final  -51.03 input  -57.11 | X-H torsion

> <Gold.Protein.ActiveResidues>
 VAL166  LYS551  ARG553  GLY616  TRP617  ASP618  TYR619  PRO620  LYS621  CYS622 
 ASP623  PHE694  ASN695  SER759  ASP760  ASP761  ALA762  ILE779  LEU786  VAL792 
 PHE793  MET794  SER795  GLU796  ALA797  LYS798  CYS799  TRP800  GLU811  SER814 

> <Gold.Protein.RotatedAtoms>
  150.9511  134.8911  159.7672 H   0  0  0  0  0  0  0  0  0  0  0  0  # atno 6907 bound_to 6896
  152.5120  134.3805  159.9359 H   0  0  0  0  0  0  0  0  0  0  0  0  # atno 6908 bound_to 6896
  151.3821  133.3777  159.2746 H   0  0  0  0  0  0  0  0  0  0  0  0  # atno 6909 bound_to 6896
  144.8864  140.6581  143.5173 H   0  0  0  0  0  0  0  0  0  0  0  0  # atno 7974 bound_to 7965
  155.7750  140.0857  157.2088 H   0  0  0  0  0  0  0  0  0  0  0  0  # atno 8008 bound_to 7997
  154.3993  140.1518  156.3043 H   0  0  0  0  0  0  0  0  0  0  0  0  # atno 8009 bound_to 7997
  155.8710  140.3425  155.5824 H   0  0  0  0  0  0  0  0  0  0  0  0  # atno 8010 bound_to 7997
  140.6955  143.6334  150.8502 H   0  0  0  0  0  0  0  0  0  0  0  0  # atno 10167 bound_to 10162
  157.6890  131.0648  150.4835 H   0  0  0  0  0  0  0  0  0  0  0  0  # atno 10718 bound_to 10713
  153.2255  135.6886  153.7950 H   0  0  0  0  0  0  0  0  0  0  0  0  # atno 10763 bound_to 10752
  153.7133  135.3279  155.3252 H   0  0  0  0  0  0  0  0  0  0  0  0  # atno 10764 bound_to 10752
  154.8290  135.4596  154.1120 H   0  0  0  0  0  0  0  0  0  0  0  0  # atno 10765 bound_to 10752
  141.0849  133.6645  156.3818 H   0  0  0  0  0  0  0  0  0  0  0  0  # atno 11005 bound_to 11000
  145.3861  139.1626  143.4254 LP  0  0  0  0  0  0  0  0  0  0  0  0  # atno 17320 bound_to 7965
  146.3027  140.3946  142.8698 LP  0  0  0  0  0  0  0  0  0  0  0  0  # atno 17321 bound_to 7965
  140.0051  143.5702  152.2860 LP  0  0  0  0  0  0  0  0  0  0  0  0  # atno 17342 bound_to 10162
  139.6405  144.7654  151.2348 LP  0  0  0  0  0  0  0  0  0  0  0  0  # atno 17343 bound_to 10162
  156.5166  130.4152  149.6273 LP  0  0  0  0  0  0  0  0  0  0  0  0  # atno 17370 bound_to 10713
  156.3192  130.7271  151.2180 LP  0  0  0  0  0  0  0  0  0  0  0  0  # atno 17371 bound_to 10713
  140.5386  134.6142  157.5373 LP  0  0  0  0  0  0  0  0  0  0  0  0  # atno 17394 bound_to 11000
  139.9666  134.7363  156.0126 LP  0  0  0  0  0  0  0  0  0  0  0  0  # atno 17395 bound_to 11000

$$$$
