AV-unprocessed.smi:1590|AV-procd|sdf|6396|dock3
  -GOLD-   22720 7 33D 1   1.00000     0.00000
 Structure written by MMmdl.
 34 35  0  0  0  0  0  0  0  0  2 V2000
  152.5969  143.0279  161.6546 C   0  0  0  0  0  0  0  0  0  0  0  0
  152.7283  143.3477  160.1587 C   0  0  0  0  0  0  0  0  0  0  0  0
  151.7552  144.4459  159.7056 C   0  0  0  0  0  0  0  0  0  0  0  0
  152.6147  142.1165  159.3138 C   0  0  0  0  0  0  0  0  0  0  0  0
  153.4768  141.0996  159.4014 N   0  0  0  0  0  0  0  0  0  0  0  0
  153.1669  140.0706  158.5245 N   0  0  0  0  0  0  0  0  0  0  0  0
  152.0712  140.3150  157.7925 C   0  0  0  0  0  0  0  0  0  0  0  0
  151.6035  139.4435  156.8835 N   0  5  0  0  0  0  0  0  0  0  0  0
  151.2189  139.8814  155.6628 C   0  0  0  0  0  0  0  0  0  0  0  0
  151.8535  139.7675  154.6115 O   0  0  0  0  0  0  0  0  0  0  0  0
  150.0243  140.4877  155.6575 N   0  0  0  0  0  0  0  0  0  0  0  0
  149.3753  141.0515  154.4815 C   0  0  0  0  0  0  0  0  0  0  0  0
  147.8670  141.1219  154.6876 C   0  0  0  0  0  0  0  0  0  0  0  0
  147.0111  141.9742  153.7390 C   0  0  0  0  0  0  0  0  0  0  0  0
  146.1085  142.3113  154.9292 C   0  0  0  0  0  0  0  0  0  0  0  0
  147.2899  141.9613  155.8378 C   0  0  0  0  0  0  0  0  0  0  0  0
  151.3393  141.8836  158.1260 S   0  0  0  0  0  0  0  0  0  0  0  0
  153.3442  142.2970  161.9649 H   0  0  0  0  0  0  0  0  0  0  0  0
  151.6136  142.6196  161.8903 H   0  0  0  0  0  0  0  0  0  0  0  0
  152.7384  143.9226  162.2611 H   0  0  0  0  0  0  0  0  0  0  0  0
  153.7345  143.7430  160.0112 H   0  0  0  0  0  0  0  0  0  0  0  0
  151.9151  144.7026  158.6581 H   0  0  0  0  0  0  0  0  0  0  0  0
  151.8896  145.3551  160.2920 H   0  0  0  0  0  0  0  0  0  0  0  0
  150.7174  144.1302  159.8166 H   0  0  0  0  0  0  0  0  0  0  0  0
  149.5333  140.5642  156.5361 H   0  0  0  0  0  0  0  0  0  0  0  0
  149.7819  142.0450  154.2873 H   0  0  0  0  0  0  0  0  0  0  0  0
  149.6100  140.4362  153.6119 H   0  0  0  0  0  0  0  0  0  0  0  0
  147.4367  140.1190  154.7358 H   0  0  0  0  0  0  0  0  0  0  0  0
  147.5436  142.8461  153.3553 H   0  0  0  0  0  0  0  0  0  0  0  0
  146.5240  141.4167  152.9384 H   0  0  0  0  0  0  0  0  0  0  0  0
  145.7856  143.3515  154.9784 H   0  0  0  0  0  0  0  0  0  0  0  0
  145.2720  141.6189  155.0368 H   0  0  0  0  0  0  0  0  0  0  0  0
  147.0287  141.3927  156.7306 H   0  0  0  0  0  0  0  0  0  0  0  0
  147.9066  142.8284  156.0806 H   0  0  0  0  0  0  0  0  0  0  0  0
  1  2  1  0  0  0  0
  1 18  1  0  0  0  0
  1 19  1  0  0  0  0
  1 20  1  0  0  0  0
  2  3  1  0  0  0  0
  2  4  1  0  0  0  0
  2 21  1  0  0  0  0
  3 22  1  0  0  0  0
  3 23  1  0  0  0  0
  3 24  1  0  0  0  0
  4 17  1  0  0  0  0
  4  5  2  0  0  0  0
  5  6  1  0  0  0  0
  6  7  2  0  0  0  0
  7  8  1  0  0  0  0
  7 17  1  0  0  0  0
  8  9  1  0  0  0  0
  9 10  2  0  0  0  0
  9 11  1  0  0  0  0
 11 12  1  0  0  0  0
 11 25  1  0  0  0  0
 12 13  1  0  0  0  0
 12 26  1  0  0  0  0
 12 27  1  0  0  0  0
 13 16  1  0  0  0  0
 13 14  1  0  0  0  0
 13 28  1  0  0  0  0
 14 15  1  0  0  0  0
 14 29  1  0  0  0  0
 14 30  1  0  0  0  0
 15 16  1  0  0  0  0
 15 31  1  0  0  0  0
 15 32  1  0  0  0  0
 16 33  1  0  0  0  0
 16 34  1  0  0  0  0
M  CHG  1   8  -1
M  END
> <s_m_source_file>
AV-unprocessed.smi

> <i_m_source_file_index>
1590

> <i_lp_mmshare_version>
43012

> <i_f3d_flags>
0

> <s_epik_input>
W0NIM11bQ0hdKFtDSDNdKWMxbm5jKHMxKVtOSF1DKD1PKVtOSF1bQ0gyXVtDSF0yW0NIMl1bQ0gyXVtDSDJdMg==

> <s_epik_cmdline>
J2VwaWtfcHl0aG9uJywgJy1waCcsICc3LjAnLCAnLXRuJywgJzgnLCAnLW1hJywgJzIwMCcsICctbWV0YWxfYmluZGluZycsICctaW1hZScsICc8aW5maWxlLm1hZT4nLCAnLW9tYWUnLCAnPG91dGZpbGUubWFlPic=

> <r_lp_tautomer_probability>
1

> <r_epik_Ionization_Penalty>
4.56565

> <r_epik_Ionization_Penalty_Charging>
4.40687

> <r_epik_Ionization_Penalty_Neutral>
0.158778

> <r_epik_State_Penalty>
4.40652

> <r_epik_Charging_Adjusted_Penalty>
8.8134

> <i_epik_Tot_Q>
-1

> <i_epik_Tot_abs_Q>
1

> <r_epik_Metal_State_Penalty>
0.774635

> <b_epik_Metal_Only>
1

> <s_lp_Force_Field>
OPLS_2005

> <r_lp_Energy>
4.00522

> <b_lp_Chiralities_Consistent>
1

> <s_lp_Variant>
AV-unprocessed.smi:1590-2

> <Gold.Version>
5.8.1

> <Gold.Id.Protein>
6NUR|6NUR_protein|mol2

> <Gold.PLP.Fitness>
39.9950

> <Gold.PLP.PLP>
-36.8141

> <Gold.PLP.part.hbond>
-2.0000

> <Gold.PLP.part.metal>
0.0000

> <Gold.PLP.part.buried>
-3.2036

> <Gold.PLP.part.nonpolar>
-30.2810

> <Gold.PLP.part.repulsive>
0.1506

> <Gold.PLP.ligand.clash>
0.0000

> <Gold.PLP.ligand.torsion>
1.3810

> <Gold.PLP.Chemscore.Hbond>
1.9280

> <Gold.PLP.Chemscore.CHOScore>
0.0000

> <Gold.PLP.Chemscore.Metal>
0.0000

> <Gold.Chemscore.Hbonds>
donor molecule, donor type, donor heavy atom, donor atom, acceptor molecule, acceptor atom, score
      P1  H  7989  7998       L1    10  0.99
      P1  H  7997  8008       L1     6  0.89

> <Gold.PLP.Chemscore.Internal.Correction>
0.1589

> <Gold.Rescore>
     Score         DG    S(hbond)    S(metal)    S(lipo)     H(rot)  DE(clash)    DE(int)     intcor
     14.46     -15.85       1.28        0.00      81.97       1.36       0.04       1.35       ----

> <Gold.Chemscore.Fitness>
14.4559

> <Gold.Chemscore.DG>
-15.8499

> <Gold.Chemscore.ZeroCoef>
-5.4800

> <Gold.Chemscore.Hbond>
1.2761

> <Gold.Chemscore.Metal>
0.0000

> <Gold.Chemscore.Lipo>
81.9678

> <Gold.Chemscore.Internal_Hbond>
0.0000

> <Gold.Chemscore.DEClash>
0.0391

> <Gold.Chemscore.DEInternal>
1.3549

> <Gold.Chemscore.Rot>
1.3604

> <Gold.Chemscore.Internal.Correction>
   9.000000E+99

> <Gold.Chemscore.Hbonds>
donor molecule, donor type, donor heavy atom, donor atom, acceptor molecule, acceptor atom, score
      P1  H  7989  7998       L1    10  0.88
      P1  H  7997  8008       L1     6  0.21

> <Gold.Chemscore.Hbond.Weighted>
-4.2623

> <Gold.Chemscore.Metal.Weighted>
-0.0000

> <Gold.Chemscore.Lipo.Weighted>
-9.5902

> <Gold.Chemscore.Internal_Hbond.Weighted>
0.0000

> <Gold.Chemscore.DEClash.Weighted>
0.0391

> <Gold.Chemscore.DEInternal.Weighted>
1.3549

> <Gold.Chemscore.Rot.Weighted>
3.4826

> <Gold.Chemscore.Internal.Correction.Weighted>
   9.000000E+99

> <Gold.Protein.RotatedTorsions>
[ 6907 6896 6895 6894 ] final   31.82 input  -60.11 | X-H torsion
[ 7974 7965 7964 7962 ] final   74.89 input  175.53 | X-H torsion
[ 8008 7997 7996 7995 ] final  -96.16 input   59.86 | X-H torsion
[ 10167 10162 10161 10158 ] final    2.82 input  -65.29 | X-H torsion
[ 10718 10713 10712 10709 ] final  -91.77 input   66.30 | X-H torsion
[ 10763 10752 10751 10750 ] final  -17.12 input  -60.55 | X-H torsion
[ 11005 11000 10999 10996 ] final -119.61 input  -57.11 | X-H torsion

> <Gold.Protein.ActiveResidues>
 VAL166  LYS551  ARG553  GLY616  TRP617  ASP618  TYR619  PRO620  LYS621  CYS622 
 ASP623  PHE694  ASN695  SER759  ASP760  ASP761  ALA762  ILE779  LEU786  VAL792 
 PHE793  MET794  SER795  GLU796  ALA797  LYS798  CYS799  TRP800  GLU811  SER814 

> <Gold.Protein.RotatedAtoms>
  152.0657  134.9565  160.0574 H   0  0  0  0  0  0  0  0  0  0  0  0  # atno 6907 bound_to 6896
  152.0911  133.4196  159.4552 H   0  0  0  0  0  0  0  0  0  0  0  0  # atno 6908 bound_to 6896
  150.6837  134.2790  159.4663 H   0  0  0  0  0  0  0  0  0  0  0  0  # atno 6909 bound_to 6896
  145.7226  139.2654  143.1587 H   0  0  0  0  0  0  0  0  0  0  0  0  # atno 7974 bound_to 7965
  154.7709  140.0473  157.1050 H   0  0  0  0  0  0  0  0  0  0  0  0  # atno 8008 bound_to 7997
  154.9822  140.3103  155.4922 H   0  0  0  0  0  0  0  0  0  0  0  0  # atno 8009 bound_to 7997
  156.2921  140.2234  156.4922 H   0  0  0  0  0  0  0  0  0  0  0  0  # atno 8010 bound_to 7997
  140.6616  143.7288  150.7749 H   0  0  0  0  0  0  0  0  0  0  0  0  # atno 10167 bound_to 10162
  155.9996  130.4961  150.5525 H   0  0  0  0  0  0  0  0  0  0  0  0  # atno 10718 bound_to 10713
  153.5690  135.7008  153.5513 H   0  0  0  0  0  0  0  0  0  0  0  0  # atno 10763 bound_to 10752
  153.3361  135.4034  155.1534 H   0  0  0  0  0  0  0  0  0  0  0  0  # atno 10764 bound_to 10752
  154.8636  135.3731  154.5212 H   0  0  0  0  0  0  0  0  0  0  0  0  # atno 10765 bound_to 10752
  141.0203  134.0134  157.3292 H   0  0  0  0  0  0  0  0  0  0  0  0  # atno 11005 bound_to 11000
  146.0612  140.7969  142.9734 LP  0  0  0  0  0  0  0  0  0  0  0  0  # atno 17320 bound_to 7965
  144.6913  140.3199  143.7234 LP  0  0  0  0  0  0  0  0  0  0  0  0  # atno 17321 bound_to 7965
  140.0958  143.4834  152.2453 LP  0  0  0  0  0  0  0  0  0  0  0  0  # atno 17342 bound_to 10162
  139.5852  144.7528  151.3539 LP  0  0  0  0  0  0  0  0  0  0  0  0  # atno 17343 bound_to 10162
  157.3446  131.0723  151.1761 LP  0  0  0  0  0  0  0  0  0  0  0  0  # atno 17370 bound_to 10713
  157.2598  130.6653  149.5969 LP  0  0  0  0  0  0  0  0  0  0  0  0  # atno 17371 bound_to 10713
  139.9142  135.0194  156.7814 LP  0  0  0  0  0  0  0  0  0  0  0  0  # atno 17394 bound_to 11000
  140.6584  133.9667  155.7792 LP  0  0  0  0  0  0  0  0  0  0  0  0  # atno 17395 bound_to 11000

$$$$
