AV-unprocessed.smi:15|AV-procd|sdf|86|dock1
  -GOLD-   2262015223D 1   1.00000     0.00000
 Structure written by MMmdl.
 53 56  0  0  0  0  0  0  0  0  1 V2000
  154.8320  139.7908  161.9958 C   0  0  0  0  0  0  0  0  0  0  0  0
  153.7491  139.0207  161.2289 C   0  0  0  0  0  0  0  0  0  0  0  0
  153.5946  139.4825  159.8495 N   0  0  0  0  0  0  0  0  0  0  0  0
  154.0383  140.8244  159.4667 C   0  0  0  0  0  0  0  0  0  0  0  0
  153.2040  141.9467  160.1132 C   0  0  1  0  0  0  0  0  0  0  0  0
  153.4104  143.3130  159.4643 C   0  0  0  0  0  0  0  0  0  0  0  0
  152.1272  144.0604  159.7944 C   0  0  0  0  0  0  0  0  0  0  0  0
  151.1511  142.9570  160.2131 C   0  0  0  0  0  0  0  0  0  0  0  0
  151.8152  141.7405  159.9046 O   0  0  0  0  0  0  0  0  0  0  0  0
  152.5090  139.0411  159.1693 C   0  0  0  0  0  0  0  0  0  0  0  0
  151.7233  138.1168  159.7784 N   0  0  0  0  0  0  0  0  0  0  0  0
  150.6516  137.6259  159.1499 C   0  0  0  0  0  0  0  0  0  0  0  0
  150.1975  137.9104  157.9280 N   0  0  0  0  0  0  0  0  0  0  0  0
  150.9890  138.8314  157.3069 C   0  0  0  0  0  0  0  0  0  0  0  0
  152.1529  139.4462  157.8497 C   0  0  0  0  0  0  0  0  0  0  0  0
  152.7046  140.3149  156.9145 N   0  0  0  0  0  0  0  0  0  0  0  0
  151.9092  140.2246  155.8842 C   0  0  0  0  0  0  0  0  0  0  0  0
  150.8495  139.3596  156.0353 N   0  0  0  0  0  0  0  0  0  0  0  0
  149.8207  139.0626  155.0498 C   0  0  0  0  0  0  0  0  0  0  0  0
  149.0302  140.3140  154.5868 C   0  0  2  0  0  0  0  0  0  0  0  0
  149.8080  140.9802  153.6052 O   0  0  0  0  0  0  0  0  0  0  0  0
  148.7423  141.3071  155.7087 C   0  0  0  0  0  0  0  0  0  0  0  0
  147.4742  141.9985  155.2330 C   0  0  0  0  0  0  0  0  0  0  0  0
  146.7336  140.9299  154.6701 O   0  0  0  0  0  0  0  0  0  0  0  0
  147.6231  140.0573  153.9763 C   0  0  2  0  0  0  0  0  0  0  0  0
  147.0624  138.6321  154.1082 C   0  0  0  0  0  0  0  0  0  0  0  0
  154.9690  139.3682  162.9912 H   0  0  0  0  0  0  0  0  0  0  0  0
  154.5692  140.8408  162.1235 H   0  0  0  0  0  0  0  0  0  0  0  0
  155.7909  139.7410  161.4793 H   0  0  0  0  0  0  0  0  0  0  0  0
  154.0182  137.9634  161.2278 H   0  0  0  0  0  0  0  0  0  0  0  0
  152.7983  139.0995  161.7557 H   0  0  0  0  0  0  0  0  0  0  0  0
  155.0811  140.9387  159.7602 H   0  0  0  0  0  0  0  0  0  0  0  0
  154.0300  140.9327  158.3815 H   0  0  0  0  0  0  0  0  0  0  0  0
  153.4039  142.0213  161.1833 H   0  0  0  0  0  0  0  0  0  0  0  0
  154.3042  143.8205  159.8278 H   0  0  0  0  0  0  0  0  0  0  0  0
  153.5008  143.2054  158.3824 H   0  0  0  0  0  0  0  0  0  0  0  0
  152.2766  144.7678  160.6109 H   0  0  0  0  0  0  0  0  0  0  0  0
  151.7653  144.6168  158.9294 H   0  0  0  0  0  0  0  0  0  0  0  0
  150.9602  142.9995  161.2862 H   0  0  0  0  0  0  0  0  0  0  0  0
  150.1947  143.0224  159.6942 H   0  0  0  0  0  0  0  0  0  0  0  0
  150.0780  136.8974  159.7039 H   0  0  0  0  0  0  0  0  0  0  0  0
  152.0738  140.7910  154.9791 H   0  0  0  0  0  0  0  0  0  0  0  0
  150.2975  138.5771  154.1974 H   0  0  0  0  0  0  0  0  0  0  0  0
  149.1482  138.3251  155.4879 H   0  0  0  0  0  0  0  0  0  0  0  0
  149.8174  140.4511  152.8222 H   0  0  0  0  0  0  0  0  0  0  0  0
  148.5229  140.7738  156.6345 H   0  0  0  0  0  0  0  0  0  0  0  0
  149.5619  141.9988  155.9092 H   0  0  0  0  0  0  0  0  0  0  0  0
  146.9285  142.4854  156.0412 H   0  0  0  0  0  0  0  0  0  0  0  0
  147.6942  142.7411  154.4647 H   0  0  0  0  0  0  0  0  0  0  0  0
  147.6082  140.3357  152.9209 H   0  0  0  0  0  0  0  0  0  0  0  0
  147.6898  137.9063  153.5910 H   0  0  0  0  0  0  0  0  0  0  0  0
  146.0656  138.5698  153.6710 H   0  0  0  0  0  0  0  0  0  0  0  0
  146.9789  138.3301  155.1523 H   0  0  0  0  0  0  0  0  0  0  0  0
  1  2  1  0  0  0  0
  1 27  1  0  0  0  0
  1 28  1  0  0  0  0
  1 29  1  0  0  0  0
  2  3  1  0  0  0  0
  2 30  1  0  0  0  0
  2 31  1  0  0  0  0
  3  4  1  0  0  0  0
  3 10  1  0  0  0  0
  4  5  1  0  0  0  0
  4 32  1  0  0  0  0
  4 33  1  0  0  0  0
  5  9  1  0  0  0  0
  5  6  1  0  0  0  0
  5 34  1  0  0  0  0
  6  7  1  0  0  0  0
  6 35  1  0  0  0  0
  6 36  1  0  0  0  0
  7  8  1  0  0  0  0
  7 37  1  0  0  0  0
  7 38  1  0  0  0  0
  8  9  1  0  0  0  0
  8 39  1  0  0  0  0
  8 40  1  0  0  0  0
 10 15  1  0  0  0  0
 10 11  2  0  0  0  0
 11 12  1  0  0  0  0
 12 13  2  0  0  0  0
 12 41  1  0  0  0  0
 13 14  1  0  0  0  0
 14 18  1  0  0  0  0
 14 15  2  0  0  0  0
 15 16  1  0  0  0  0
 16 17  2  0  0  0  0
 17 18  1  0  0  0  0
 17 42  1  0  0  0  0
 18 19  1  0  0  0  0
 19 20  1  0  0  0  0
 19 43  1  0  0  0  0
 19 44  1  0  0  0  0
 20 25  1  0  0  0  0
 20 21  1  0  0  0  0
 20 22  1  0  0  0  0
 21 45  1  0  0  0  0
 22 23  1  0  0  0  0
 22 46  1  0  0  0  0
 22 47  1  0  0  0  0
 23 24  1  0  0  0  0
 23 48  1  0  0  0  0
 23 49  1  0  0  0  0
 24 25  1  0  0  0  0
 25 26  1  0  0  0  0
 25 50  1  0  0  0  0
 26 51  1  0  0  0  0
 26 52  1  0  0  0  0
 26 53  1  0  0  0  0
M  END
> <s_m_source_file>
AV-unprocessed.smi

> <i_m_source_file_index>
15

> <i_lp_mmshare_version>
43012

> <i_f3d_flags>
0

> <s_epik_input>
TzFbQ0gyXVtDSDJdW0NIMl1bQ0BIXTFbQ0gyXU4oW0NIMl1bQ0gzXSljKG5bY0hdbjIpYyhjMjMpbltjSF1uM1tDSDJdW0NAQF00KFtPSF0pW0NIMl1bQ0gyXU9bQ0BIXTRbQ0gzXQ==

> <s_epik_cmdline>
J2VwaWtfcHl0aG9uJywgJy1waCcsICc3LjAnLCAnLXRuJywgJzgnLCAnLW1hJywgJzIwMCcsICctbWV0YWxfYmluZGluZycsICctaW1hZScsICc8aW5maWxlLm1hZT4nLCAnLW9tYWUnLCAnPG91dGZpbGUubWFlPic=

> <r_lp_tautomer_probability>
1

> <r_epik_Ionization_Penalty>
0.00360814

> <r_epik_Ionization_Penalty_Charging>
0

> <r_epik_Ionization_Penalty_Neutral>
0.00360814

> <r_epik_State_Penalty>
0.00237482

> <r_epik_Charging_Adjusted_Penalty>
0.00237482

> <i_epik_Tot_Q>
0

> <i_epik_Tot_abs_Q>
0

> <r_epik_Metal_State_Penalty>
-0

> <b_epik_Metal_Only>
0

> <s_lp_Force_Field>
OPLS_2005

> <r_lp_Energy>
45.3604

> <b_lp_Chiralities_Consistent>
1

> <s_lp_Variant>
AV-unprocessed.smi:15-8

> <Gold.Version>
5.8.1

> <Gold.Id.Protein>
6NUR|6NUR_protein|mol2

> <Gold.PLP.Fitness>
44.0254

> <Gold.PLP.PLP>
-36.4029

> <Gold.PLP.part.hbond>
-3.8163

> <Gold.PLP.part.metal>
0.0000

> <Gold.PLP.part.buried>
2.5973

> <Gold.PLP.part.nonpolar>
-33.8028

> <Gold.PLP.part.repulsive>
0.1245

> <Gold.PLP.ligand.clash>
0.0000

> <Gold.PLP.ligand.torsion>
0.9365

> <Gold.PLP.Chemscore.Hbond>
2.8413

> <Gold.PLP.Chemscore.CHOScore>
0.0000

> <Gold.PLP.Chemscore.Metal>
0.0000

> <Gold.Chemscore.Hbonds>
donor molecule, donor type, donor heavy atom, donor atom, acceptor molecule, acceptor atom, score
      L1  H    21    45       P1  7957  1.00
      P1  H  7989  7998       L1    21  0.06
      P1  H  7997  8009       L1    16  0.90
      P1  H  8011  8017       L1    21  0.10

> <Gold.PLP.Chemscore.Internal.Correction>
0.9716

> <Gold.Rescore>
     Score         DG    S(hbond)    S(metal)    S(lipo)     H(rot)  DE(clash)    DE(int)     intcor
     14.24     -18.22       1.94        0.00     107.12       2.44       0.82       3.16       ----

> <Gold.Chemscore.Fitness>
14.2356

> <Gold.Chemscore.DG>
-18.2224

> <Gold.Chemscore.ZeroCoef>
-5.4800

> <Gold.Chemscore.Hbond>
1.9352

> <Gold.Chemscore.Metal>
0.0000

> <Gold.Chemscore.Lipo>
107.1217

> <Gold.Chemscore.Internal_Hbond>
0.0000

> <Gold.Chemscore.DEClash>
0.8246

> <Gold.Chemscore.DEInternal>
3.1621

> <Gold.Chemscore.Rot>
2.4431

> <Gold.Chemscore.Internal.Correction>
   9.000000E+99

> <Gold.Chemscore.Hbonds>
donor molecule, donor type, donor heavy atom, donor atom, acceptor molecule, acceptor atom, score
      L1  H    21    45       P1  7957  0.99
      P1  H  7997  8009       L1    16  0.61

> <Gold.Chemscore.Hbond.Weighted>
-6.4636

> <Gold.Chemscore.Metal.Weighted>
-0.0000

> <Gold.Chemscore.Lipo.Weighted>
-12.5332

> <Gold.Chemscore.Internal_Hbond.Weighted>
0.0000

> <Gold.Chemscore.DEClash.Weighted>
0.8246

> <Gold.Chemscore.DEInternal.Weighted>
3.1621

> <Gold.Chemscore.Rot.Weighted>
6.2544

> <Gold.Chemscore.Internal.Correction.Weighted>
   9.000000E+99

> <Gold.Protein.RotatedTorsions>
[ 6907 6896 6895 6894 ] final  150.51 input  -60.11 | X-H torsion
[ 7974 7965 7964 7962 ] final   56.78 input  175.53 | X-H torsion
[ 8008 7997 7996 7995 ] final -163.60 input   59.86 | X-H torsion
[ 10167 10162 10161 10158 ] final   26.97 input  -65.29 | X-H torsion
[ 10718 10713 10712 10709 ] final -153.70 input   66.30 | X-H torsion
[ 10763 10752 10751 10750 ] final -175.06 input  -60.55 | X-H torsion
[ 11005 11000 10999 10996 ] final  156.64 input  -57.11 | X-H torsion

> <Gold.Protein.ActiveResidues>
 VAL166  LYS551  ARG553  GLY616  TRP617  ASP618  TYR619  PRO620  LYS621  CYS622 
 ASP623  PHE694  ASN695  SER759  ASP760  ASP761  ALA762  ILE779  LEU786  VAL792 
 PHE793  MET794  SER795  GLU796  ALA797  LYS798  CYS799  TRP800  GLU811  SER814 

> <Gold.Protein.RotatedAtoms>
  152.1135  133.4313  159.4641 H   0  0  0  0  0  0  0  0  0  0  0  0  # atno 6907 bound_to 6896
  150.6868  134.2620  159.4562 H   0  0  0  0  0  0  0  0  0  0  0  0  # atno 6908 bound_to 6896
  152.0491  134.9664  160.0625 H   0  0  0  0  0  0  0  0  0  0  0  0  # atno 6909 bound_to 6896
  145.9361  139.3848  143.0392 H   0  0  0  0  0  0  0  0  0  0  0  0  # atno 7974 bound_to 7965
  155.8237  140.0923  157.1834 H   0  0  0  0  0  0  0  0  0  0  0  0  # atno 8008 bound_to 7997
  154.3979  140.1432  156.3590 H   0  0  0  0  0  0  0  0  0  0  0  0  # atno 8009 bound_to 7997
  155.8240  140.3445  155.5534 H   0  0  0  0  0  0  0  0  0  0  0  0  # atno 8010 bound_to 7997
  140.4978  144.0364  150.6321 H   0  0  0  0  0  0  0  0  0  0  0  0  # atno 10167 bound_to 10162
  156.4893  130.8340  151.2563 H   0  0  0  0  0  0  0  0  0  0  0  0  # atno 10718 bound_to 10713
  154.5888  135.2843  155.0657 H   0  0  0  0  0  0  0  0  0  0  0  0  # atno 10763 bound_to 10752
  154.1965  135.6432  153.5078 H   0  0  0  0  0  0  0  0  0  0  0  0  # atno 10764 bound_to 10752
  153.0114  135.5458  154.6567 H   0  0  0  0  0  0  0  0  0  0  0  0  # atno 10765 bound_to 10752
  140.1694  134.8553  157.2672 H   0  0  0  0  0  0  0  0  0  0  0  0  # atno 11005 bound_to 11000
  145.8362  140.9605  143.0823 LP  0  0  0  0  0  0  0  0  0  0  0  0  # atno 17320 bound_to 7965
  144.6772  140.0225  143.7483 LP  0  0  0  0  0  0  0  0  0  0  0  0  # atno 17321 bound_to 7965
  140.3651  143.2886  152.0340 LP  0  0  0  0  0  0  0  0  0  0  0  0  # atno 17342 bound_to 10162
  139.4865  144.6273  151.7139 LP  0  0  0  0  0  0  0  0  0  0  0  0  # atno 17343 bound_to 10162
  157.7475  131.0019  150.2979 LP  0  0  0  0  0  0  0  0  0  0  0  0  # atno 17370 bound_to 10713
  156.3442  130.3820  149.7383 LP  0  0  0  0  0  0  0  0  0  0  0  0  # atno 17371 bound_to 10713
  140.2395  134.3813  155.7487 LP  0  0  0  0  0  0  0  0  0  0  0  0  # atno 17394 bound_to 11000
  141.2216  133.7257  156.8767 LP  0  0  0  0  0  0  0  0  0  0  0  0  # atno 17395 bound_to 11000

$$$$
