AV-unprocessed.smi:3226|AV-procd|sdf|12315|dock5
  -GOLD-   2272018163D 1   1.00000     0.00000
 Structure written by MMmdl.
 41 43  0  0  0  0  0  0  0  0  2 V2000
  150.6436  129.8066  154.2933 C   0  0  0  0  0  0  0  0  0  0  0  0
  149.6293  130.8190  154.8373 C   0  0  0  0  0  0  0  0  0  0  0  0
  150.2791  131.9302  155.6030 C   0  0  0  0  0  0  0  0  0  0  0  0
  150.9822  131.7360  156.7251 N   0  0  0  0  0  0  0  0  0  0  0  0
  151.4360  132.9838  157.1025 N   0  0  0  0  0  0  0  0  0  0  0  0
  150.9701  133.8067  156.1651 C   0  0  0  0  0  0  0  0  0  0  0  0
  150.2385  133.2197  155.2050 N   0  0  0  0  0  0  0  0  0  0  0  0
  149.5969  133.8379  154.0569 C   0  0  0  0  0  0  0  0  0  0  0  0
  148.0629  133.7973  154.1520 C   0  0  0  0  0  0  0  0  0  0  0  0
  147.4278  133.9983  152.8338 N   0  3  0  0  0  0  0  0  0  0  0  0
  147.1632  132.7472  152.0975 C   0  0  0  0  0  0  0  0  0  0  0  0
  146.4245  133.0233  150.7744 C   0  0  2  0  0  0  0  0  0  0  0  0
  145.2393  134.0275  150.9128 C   0  0  0  0  0  0  0  0  0  0  0  0
  144.0572  133.2612  150.2754 C   0  0  2  0  0  0  0  0  0  0  0  0
  143.7193  132.0982  151.1833 C   0  0  0  0  0  0  0  0  0  0  0  0
  144.7188  131.2198  151.0914 C   0  0  0  0  0  0  0  0  0  0  0  0
  145.7354  131.7924  150.1238 C   0  0  1  0  0  0  0  0  0  0  0  0
  144.7936  132.5188  149.1556 C   0  0  0  0  0  0  0  0  0  0  0  0
  150.1414  129.0111  153.7425 H   0  0  0  0  0  0  0  0  0  0  0  0
  151.2111  129.3448  155.1020 H   0  0  0  0  0  0  0  0  0  0  0  0
  151.3529  130.2836  153.6164 H   0  0  0  0  0  0  0  0  0  0  0  0
  149.0362  131.2305  154.0212 H   0  0  0  0  0  0  0  0  0  0  0  0
  148.9248  130.3099  155.4961 H   0  0  0  0  0  0  0  0  0  0  0  0
  151.1649  134.8691  156.1816 H   0  0  0  0  0  0  0  0  0  0  0  0
  149.9470  134.8676  153.9715 H   0  0  0  0  0  0  0  0  0  0  0  0
  149.9304  133.3248  153.1544 H   0  0  0  0  0  0  0  0  0  0  0  0
  147.7524  132.8294  154.5476 H   0  0  0  0  0  0  0  0  0  0  0  0
  147.7033  134.5557  154.8486 H   0  0  0  0  0  0  0  0  0  0  0  0
  146.5516  134.4828  152.9682 H   0  0  0  0  0  0  0  0  0  0  0  0
  148.1024  132.2224  151.9189 H   0  0  0  0  0  0  0  0  0  0  0  0
  146.5535  132.0952  152.7246 H   0  0  0  0  0  0  0  0  0  0  0  0
  147.1418  133.4361  150.0624 H   0  0  0  0  0  0  0  0  0  0  0  0
  145.0304  134.2969  151.9494 H   0  0  0  0  0  0  0  0  0  0  0  0
  145.4491  134.9487  150.3675 H   0  0  0  0  0  0  0  0  0  0  0  0
  143.2030  133.8612  149.9611 H   0  0  0  0  0  0  0  0  0  0  0  0
  142.8374  132.0355  151.8037 H   0  0  0  0  0  0  0  0  0  0  0  0
  144.8287  130.2851  151.6212 H   0  0  0  0  0  0  0  0  0  0  0  0
  146.3941  131.0568  149.6614 H   0  0  0  0  0  0  0  0  0  0  0  0
  144.1463  131.8384  148.5982 H   0  0  0  0  0  0  0  0  0  0  0  0
  145.3026  133.1775  148.4488 H   0  0  0  0  0  0  0  0  0  0  0  0
  148.0339  134.5766  152.2695 H   0  0  0  0  0  0  0  0  0  0  0  0
  1  2  1  0  0  0  0
  1 19  1  0  0  0  0
  1 20  1  0  0  0  0
  1 21  1  0  0  0  0
  2  3  1  0  0  0  0
  2 22  1  0  0  0  0
  2 23  1  0  0  0  0
  3  7  1  0  0  0  0
  3  4  2  0  0  0  0
  4  5  1  0  0  0  0
  5  6  2  0  0  0  0
  6  7  1  0  0  0  0
  6 24  1  0  0  0  0
  7  8  1  0  0  0  0
  8  9  1  0  0  0  0
  8 25  1  0  0  0  0
  8 26  1  0  0  0  0
  9 10  1  0  0  0  0
  9 27  1  0  0  0  0
  9 28  1  0  0  0  0
 10 11  1  0  0  0  0
 10 29  1  0  0  0  0
 10 41  1  0  0  0  0
 11 12  1  0  0  0  0
 11 30  1  0  0  0  0
 11 31  1  0  0  0  0
 12 17  1  0  0  0  0
 12 13  1  0  0  0  0
 12 32  1  0  0  0  0
 13 14  1  0  0  0  0
 13 33  1  0  0  0  0
 13 34  1  0  0  0  0
 14 18  1  0  0  0  0
 14 15  1  0  0  0  0
 14 35  1  0  0  0  0
 15 16  2  0  0  0  0
 15 36  1  0  0  0  0
 16 17  1  0  0  0  0
 16 37  1  0  0  0  0
 17 18  1  0  0  0  0
 17 38  1  0  0  0  0
 18 39  1  0  0  0  0
 18 40  1  0  0  0  0
M  CHG  1  10   1
M  END
> <s_m_source_file>
AV-unprocessed.smi

> <i_m_source_file_index>
3226

> <i_lp_mmshare_version>
43012

> <i_f3d_flags>
0

> <s_epik_input>
W0NIM11bQ0gyXWMxbm5bY0hdbjFbQ0gyXVtDSDJdW05IXVtDSDJdW0NASF0oW0NIMl1bQ0BASF0yMylbQ0BASF0oW0NIMl0zKVtDSF09W0NIXTI=

> <s_epik_cmdline>
J2VwaWtfcHl0aG9uJywgJy1waCcsICc3LjAnLCAnLXRuJywgJzgnLCAnLW1hJywgJzIwMCcsICctbWV0YWxfYmluZGluZycsICctaW1hZScsICc8aW5maWxlLm1hZT4nLCAnLW9tYWUnLCAnPG91dGZpbGUubWFlPic=

> <r_lp_tautomer_probability>
1

> <r_epik_Ionization_Penalty>
0.00175008

> <r_epik_Ionization_Penalty_Charging>
0.00173932

> <r_epik_Ionization_Penalty_Neutral>
1.07546e-05

> <r_epik_State_Penalty>
-0

> <r_epik_Charging_Adjusted_Penalty>
0.00173932

> <i_epik_Tot_Q>
1

> <i_epik_Tot_abs_Q>
1

> <r_epik_Metal_State_Penalty>
-0

> <b_epik_Metal_Only>
0

> <s_lp_Force_Field>
OPLS_2005

> <r_lp_Energy>
64.9624

> <b_lp_Chiralities_Consistent>
1

> <s_lp_Variant>
AV-unprocessed.smi:3226-3

> <Gold.Version>
5.8.1

> <Gold.Id.Protein>
6NUR|6NUR_protein|mol2

> <Gold.PLP.Fitness>
45.8881

> <Gold.PLP.PLP>
-38.2319

> <Gold.PLP.part.hbond>
-2.0000

> <Gold.PLP.part.metal>
0.0000

> <Gold.PLP.part.buried>
-3.3564

> <Gold.PLP.part.nonpolar>
-32.6646

> <Gold.PLP.part.repulsive>
0.0000

> <Gold.PLP.ligand.clash>
0.0000

> <Gold.PLP.ligand.torsion>
0.4854

> <Gold.PLP.Chemscore.Hbond>
2.8564

> <Gold.PLP.Chemscore.CHOScore>
0.0000

> <Gold.PLP.Chemscore.Metal>
0.0000

> <Gold.Chemscore.Hbonds>
donor molecule, donor type, donor heavy atom, donor atom, acceptor molecule, acceptor atom, score
      L1  H    10    41       P1  7948  2.00
      P1  H  6896  6907       L1     5  0.63

> <Gold.PLP.Chemscore.Internal.Correction>
0.0576

> <Gold.Rescore>
     Score         DG    S(hbond)    S(metal)    S(lipo)     H(rot)  DE(clash)    DE(int)     intcor
     16.46     -16.89       1.83        0.00      90.25       2.06       0.11       0.32       ----

> <Gold.Chemscore.Fitness>
16.4620

> <Gold.Chemscore.DG>
-16.8873

> <Gold.Chemscore.ZeroCoef>
-5.4800

> <Gold.Chemscore.Hbond>
1.8348

> <Gold.Chemscore.Metal>
0.0000

> <Gold.Chemscore.Lipo>
90.2460

> <Gold.Chemscore.Internal_Hbond>
0.0000

> <Gold.Chemscore.DEClash>
0.1087

> <Gold.Chemscore.DEInternal>
0.3166

> <Gold.Chemscore.Rot>
2.0623

> <Gold.Chemscore.Internal.Correction>
   9.000000E+99

> <Gold.Chemscore.Hbonds>
donor molecule, donor type, donor heavy atom, donor atom, acceptor molecule, acceptor atom, score
      L1  H    10    41       P1  7948  0.29
      P1  H  6896  6907       L1     5  0.56

> <Gold.Chemscore.Hbond.Weighted>
-6.1281

> <Gold.Chemscore.Metal.Weighted>
-0.0000

> <Gold.Chemscore.Lipo.Weighted>
-10.5588

> <Gold.Chemscore.Internal_Hbond.Weighted>
0.0000

> <Gold.Chemscore.DEClash.Weighted>
0.1087

> <Gold.Chemscore.DEInternal.Weighted>
0.3166

> <Gold.Chemscore.Rot.Weighted>
5.2796

> <Gold.Chemscore.Internal.Correction.Weighted>
   9.000000E+99

> <Gold.Protein.RotatedTorsions>
[ 6907 6896 6895 6894 ] final -164.40 input  -60.11 | X-H torsion
[ 7974 7965 7964 7962 ] final  -64.55 input  175.53 | X-H torsion
[ 8008 7997 7996 7995 ] final   54.53 input   59.86 | X-H torsion
[ 10167 10162 10161 10158 ] final   -7.75 input  -65.29 | X-H torsion
[ 10718 10713 10712 10709 ] final   23.93 input   66.30 | X-H torsion
[ 10763 10752 10751 10750 ] final  177.02 input  -60.55 | X-H torsion
[ 11005 11000 10999 10996 ] final   -5.99 input  -57.11 | X-H torsion

> <Gold.Protein.ActiveResidues>
 VAL166  LYS551  ARG553  GLY616  TRP617  ASP618  TYR619  PRO620  LYS621  CYS622 
 ASP623  PHE694  ASN695  SER759  ASP760  ASP761  ALA762  ILE779  LEU786  VAL792 
 PHE793  MET794  SER795  GLU796  ALA797  LYS798  CYS799  TRP800  GLU811  SER814 

> <Gold.Protein.RotatedAtoms>
  151.4112  133.3727  159.2743 H   0  0  0  0  0  0  0  0  0  0  0  0  # atno 6907 bound_to 6896
  150.9362  134.8775  159.7593 H   0  0  0  0  0  0  0  0  0  0  0  0  # atno 6908 bound_to 6896
  152.5051  134.4060  159.9484 H   0  0  0  0  0  0  0  0  0  0  0  0  # atno 6909 bound_to 6896
  145.7654  140.8840  143.0408 H   0  0  0  0  0  0  0  0  0  0  0  0  # atno 7974 bound_to 7965
  155.4863  140.3470  155.4348 H   0  0  0  0  0  0  0  0  0  0  0  0  # atno 8008 bound_to 7997
  156.1006  140.1434  156.9501 H   0  0  0  0  0  0  0  0  0  0  0  0  # atno 8009 bound_to 7997
  154.4691  140.0907  156.7077 H   0  0  0  0  0  0  0  0  0  0  0  0  # atno 8010 bound_to 7997
  140.7038  143.6046  150.8764 H   0  0  0  0  0  0  0  0  0  0  0  0  # atno 10167 bound_to 10162
  157.1729  130.6767  149.6084 H   0  0  0  0  0  0  0  0  0  0  0  0  # atno 10718 bound_to 10713
  154.4889  135.2778  155.1512 H   0  0  0  0  0  0  0  0  0  0  0  0  # atno 10763 bound_to 10752
  154.3192  135.6213  153.5504 H   0  0  0  0  0  0  0  0  0  0  0  0  # atno 10764 bound_to 10752
  152.9885  135.5738  154.5306 H   0  0  0  0  0  0  0  0  0  0  0  0  # atno 10765 bound_to 10752
  140.6971  133.9021  155.8658 H   0  0  0  0  0  0  0  0  0  0  0  0  # atno 11005 bound_to 11000
  144.6822  139.9780  143.7483 LP  0  0  0  0  0  0  0  0  0  0  0  0  # atno 17320 bound_to 7965
  146.0223  139.3262  143.0805 LP  0  0  0  0  0  0  0  0  0  0  0  0  # atno 17321 bound_to 7965
  139.9769  143.5994  152.2955 LP  0  0  0  0  0  0  0  0  0  0  0  0  # atno 17342 bound_to 10162
  139.6601  144.7662  151.1980 LP  0  0  0  0  0  0  0  0  0  0  0  0  # atno 17343 bound_to 10162
  155.9736  130.4673  150.6319 LP  0  0  0  0  0  0  0  0  0  0  0  0  # atno 17370 bound_to 10713
  157.4026  131.0812  151.1294 LP  0  0  0  0  0  0  0  0  0  0  0  0  # atno 17371 bound_to 10713
  141.0194  134.0910  157.4137 LP  0  0  0  0  0  0  0  0  0  0  0  0  # atno 17394 bound_to 11000
  139.8907  135.0113  156.6750 LP  0  0  0  0  0  0  0  0  0  0  0  0  # atno 17395 bound_to 11000

$$$$
