AV-unprocessed.smi:3029|AV-procd|sdf|11529|dock3
  -GOLD-   2272016473D 1   1.00000     0.00000
 Structure written by MMmdl.
 41 42  0  0  0  0  0  0  0  0  3 V2000
  150.2021  140.7010  154.2104 O   0  0  0  0  0  0  0  0  0  0  0  0
  150.4110  139.6638  154.8396 C   0  0  0  0  0  0  0  0  0  0  0  0
  150.2107  138.3390  154.2431 C   0  0  0  0  0  0  0  0  0  0  0  0
  150.4557  137.2074  154.9325 C   0  0  0  0  0  0  0  0  0  0  0  0
  150.9341  137.2683  156.3002 C   0  0  0  0  0  0  0  0  0  0  0  0
  151.2149  136.0599  157.0438 N   0  3  0  0  0  0  0  0  0  0  0  0
  151.8625  135.1666  156.5061 O   0  0  0  0  0  0  0  0  0  0  0  0
  150.7955  135.9655  158.1929 O   0  5  0  0  0  0  0  0  0  0  0  0
  151.1108  138.4866  156.8484 C   0  0  0  0  0  0  0  0  0  0  0  0
  150.8451  139.6722  156.1364 N   0  0  0  0  0  0  0  0  0  0  0  0
  151.0758  140.9391  156.8418 C   0  0  0  0  0  0  0  0  0  0  0  0
  149.7642  141.7164  157.0305 C   0  0  0  0  0  0  0  0  0  0  0  0
  150.0604  143.0617  157.4966 N   0  0  0  0  0  0  0  0  0  0  0  0
  149.5134  143.2916  158.8286 C   0  0  2  0  0  0  0  0  0  0  0  0
  147.9782  143.2697  158.6779 C   0  0  0  0  0  0  0  0  0  0  0  0
  147.2701  143.5955  159.9981 C   0  0  0  0  0  0  0  0  0  0  0  0
  147.7364  144.9517  160.5379 C   0  0  0  0  0  0  0  0  0  0  0  0
  149.2610  144.9730  160.7162 C   0  0  0  0  0  0  0  0  0  0  0  0
  150.0188  144.6454  159.4071 C   0  0  1  0  0  0  0  0  0  0  0  0
  151.5490  144.6808  159.6547 C   0  0  0  0  0  0  0  0  0  0  0  0
  151.9000  143.7611  160.5542 F   0  0  0  0  0  0  0  0  0  0  0  0
  152.2311  144.4653  158.5301 F   0  0  0  0  0  0  0  0  0  0  0  0
  151.9077  145.8811  160.1112 F   0  0  0  0  0  0  0  0  0  0  0  0
  149.8561  138.2705  153.2251 H   0  0  0  0  0  0  0  0  0  0  0  0
  150.2919  136.2547  154.4505 H   0  0  0  0  0  0  0  0  0  0  0  0
  151.4686  138.6400  157.8564 H   0  0  0  0  0  0  0  0  0  0  0  0
  151.5456  140.7546  157.8100 H   0  0  0  0  0  0  0  0  0  0  0  0
  151.7926  141.5512  156.2915 H   0  0  0  0  0  0  0  0  0  0  0  0
  149.2151  141.7680  156.0894 H   0  0  0  0  0  0  0  0  0  0  0  0
  149.1267  141.2085  157.7552 H   0  0  0  0  0  0  0  0  0  0  0  0
  149.6763  143.7353  156.8493 H   0  0  0  0  0  0  0  0  0  0  0  0
  149.8001  142.4878  159.5093 H   0  0  0  0  0  0  0  0  0  0  0  0
  147.6667  143.9920  157.9212 H   0  0  0  0  0  0  0  0  0  0  0  0
  147.6505  142.2915  158.3233 H   0  0  0  0  0  0  0  0  0  0  0  0
  146.1900  143.6050  159.8492 H   0  0  0  0  0  0  0  0  0  0  0  0
  147.4769  142.8145  160.7309 H   0  0  0  0  0  0  0  0  0  0  0  0
  147.4339  145.7456  159.8538 H   0  0  0  0  0  0  0  0  0  0  0  0
  147.2481  145.1604  161.4901 H   0  0  0  0  0  0  0  0  0  0  0  0
  149.5575  145.9546  161.0866 H   0  0  0  0  0  0  0  0  0  0  0  0
  149.5411  144.2576  161.4903 H   0  0  0  0  0  0  0  0  0  0  0  0
  149.7809  145.4324  158.6892 H   0  0  0  0  0  0  0  0  0  0  0  0
  1  2  2  0  0  0  0
  2 10  1  0  0  0  0
  2  3  1  0  0  0  0
  3  4  2  0  0  0  0
  3 24  1  0  0  0  0
  4  5  1  0  0  0  0
  4 25  1  0  0  0  0
  5  6  1  0  0  0  0
  5  9  2  0  0  0  0
  6  7  2  0  0  0  0
  6  8  1  0  0  0  0
  9 10  1  0  0  0  0
  9 26  1  0  0  0  0
 10 11  1  0  0  0  0
 11 12  1  0  0  0  0
 11 27  1  0  0  0  0
 11 28  1  0  0  0  0
 12 13  1  0  0  0  0
 12 29  1  0  0  0  0
 12 30  1  0  0  0  0
 13 14  1  0  0  0  0
 13 31  1  0  0  0  0
 14 19  1  0  0  0  0
 14 15  1  0  0  0  0
 14 32  1  0  0  0  0
 15 16  1  0  0  0  0
 15 33  1  0  0  0  0
 15 34  1  0  0  0  0
 16 17  1  0  0  0  0
 16 35  1  0  0  0  0
 16 36  1  0  0  0  0
 17 18  1  0  0  0  0
 17 37  1  0  0  0  0
 17 38  1  0  0  0  0
 18 19  1  0  0  0  0
 18 39  1  0  0  0  0
 18 40  1  0  0  0  0
 19 20  1  0  0  0  0
 19 41  1  0  0  0  0
 20 21  1  0  0  0  0
 20 22  1  0  0  0  0
 20 23  1  0  0  0  0
M  CHG  1   6   1
M  CHG  1   8  -1
M  END
> <s_m_source_file>
AV-unprocessed.smi

> <i_m_source_file_index>
3029

> <i_lp_mmshare_version>
43012

> <i_f3d_flags>
0

> <s_epik_input>
Tz1jMVtjSF1bY0hdYyhbTitdKD1PKVtPLV0pW2NIXW4xW0NIMl1bQ0gyXVtOSF1bQ0BASF0yW0NIMl1bQ0gyXVtDSDJdW0NIMl1bQ0BIXTJDKEYpKEYpRg==

> <s_epik_cmdline>
J2VwaWtfcHl0aG9uJywgJy1waCcsICc3LjAnLCAnLXRuJywgJzgnLCAnLW1hJywgJzIwMCcsICctbWV0YWxfYmluZGluZycsICctaW1hZScsICc8aW5maWxlLm1hZT4nLCAnLW9tYWUnLCAnPG91dGZpbGUubWFlPic=

> <r_lp_tautomer_probability>
1

> <r_epik_Ionization_Penalty>
1.65565

> <r_epik_Ionization_Penalty_Charging>
3.32684e-10

> <r_epik_Ionization_Penalty_Neutral>
1.65565

> <r_epik_State_Penalty>
1.75811

> <r_epik_Charging_Adjusted_Penalty>
1.75811

> <i_epik_Tot_Q>
0

> <i_epik_Tot_abs_Q>
2

> <r_epik_Metal_State_Penalty>
1.75811

> <b_epik_Metal_Only>
0

> <s_lp_Force_Field>
OPLS_2005

> <r_lp_Energy>
33.0444

> <b_lp_Chiralities_Consistent>
1

> <s_lp_Variant>
AV-unprocessed.smi:3029-5

> <Gold.Version>
5.8.1

> <Gold.Id.Protein>
6NUR|6NUR_protein|mol2

> <Gold.PLP.Fitness>
50.2480

> <Gold.PLP.PLP>
-42.7136

> <Gold.PLP.part.hbond>
-3.6504

> <Gold.PLP.part.metal>
0.0000

> <Gold.PLP.part.buried>
-2.9315

> <Gold.PLP.part.nonpolar>
-36.3967

> <Gold.PLP.part.repulsive>
0.1503

> <Gold.PLP.ligand.clash>
0.0000

> <Gold.PLP.ligand.torsion>
1.2456

> <Gold.PLP.Chemscore.Hbond>
3.3280

> <Gold.PLP.Chemscore.CHOScore>
0.0000

> <Gold.PLP.Chemscore.Metal>
0.0000

> <Gold.Chemscore.Hbonds>
donor molecule, donor type, donor heavy atom, donor atom, acceptor molecule, acceptor atom, score
      L1  H    13    31       P1  8028  1.00
      P1  H  6896  6908       L1     8  0.59
      P1  H  7989  7998       L1     1  0.74
      P1  H 10752 10763       L1     7  1.00

> <Gold.PLP.Chemscore.Internal.Correction>
0.0417

> <Gold.Rescore>
     Score         DG    S(hbond)    S(metal)    S(lipo)     H(rot)  DE(clash)    DE(int)     intcor
     15.33     -19.11       2.97        0.00      72.40       1.86       0.21       3.57       ----

> <Gold.Chemscore.Fitness>
15.3266

> <Gold.Chemscore.DG>
-19.1098

> <Gold.Chemscore.ZeroCoef>
-5.4800

> <Gold.Chemscore.Hbond>
2.9690

> <Gold.Chemscore.Metal>
0.0000

> <Gold.Chemscore.Lipo>
72.4025

> <Gold.Chemscore.Internal_Hbond>
0.0000

> <Gold.Chemscore.DEClash>
0.2140

> <Gold.Chemscore.DEInternal>
3.5693

> <Gold.Chemscore.Rot>
1.8584

> <Gold.Chemscore.Internal.Correction>
   9.000000E+99

> <Gold.Chemscore.Hbonds>
donor molecule, donor type, donor heavy atom, donor atom, acceptor molecule, acceptor atom, score
      L1  H    13    31       P1  8028  0.98
      P1  H  6896  6908       L1     8  0.60
      P1  H  7989  7998       L1     1  0.22
      P1  H 10752 10763       L1     7  0.94

> <Gold.Chemscore.Hbond.Weighted>
-9.9163

> <Gold.Chemscore.Metal.Weighted>
-0.0000

> <Gold.Chemscore.Lipo.Weighted>
-8.4711

> <Gold.Chemscore.Internal_Hbond.Weighted>
0.0000

> <Gold.Chemscore.DEClash.Weighted>
0.2140

> <Gold.Chemscore.DEInternal.Weighted>
3.5693

> <Gold.Chemscore.Rot.Weighted>
4.7576

> <Gold.Chemscore.Internal.Correction.Weighted>
   9.000000E+99

> <Gold.Protein.RotatedTorsions>
[ 6907 6896 6895 6894 ] final -175.07 input  -60.11 | X-H torsion
[ 7974 7965 7964 7962 ] final  177.03 input  175.53 | X-H torsion
[ 8008 7997 7996 7995 ] final -129.23 input   59.86 | X-H torsion
[ 10167 10162 10161 10158 ] final -153.29 input  -65.29 | X-H torsion
[ 10718 10713 10712 10709 ] final -113.66 input   66.30 | X-H torsion
[ 10763 10752 10751 10750 ] final  107.62 input  -60.55 | X-H torsion
[ 11005 11000 10999 10996 ] final  -97.59 input  -57.11 | X-H torsion

> <Gold.Protein.ActiveResidues>
 VAL166  LYS551  ARG553  GLY616  TRP617  ASP618  TYR619  PRO620  LYS621  CYS622 
 ASP623  PHE694  ASN695  SER759  ASP760  ASP761  ALA762  ILE779  LEU786  VAL792 
 PHE793  MET794  SER795  GLU796  ALA797  LYS798  CYS799  TRP800  GLU811  SER814 

> <Gold.Protein.RotatedAtoms>
  151.5827  133.3376  159.3011 H   0  0  0  0  0  0  0  0  0  0  0  0  # atno 6907 bound_to 6896
  150.8304  134.7558  159.6860 H   0  0  0  0  0  0  0  0  0  0  0  0  # atno 6908 bound_to 6896
  152.4388  134.5638  159.9953 H   0  0  0  0  0  0  0  0  0  0  0  0  # atno 6909 bound_to 6896
  144.7175  140.0185  143.6440 H   0  0  0  0  0  0  0  0  0  0  0  0  # atno 7974 bound_to 7965
  155.2757  140.0442  157.3011 H   0  0  0  0  0  0  0  0  0  0  0  0  # atno 8008 bound_to 7997
  154.5626  140.2350  155.8280 H   0  0  0  0  0  0  0  0  0  0  0  0  # atno 8009 bound_to 7997
  156.2060  140.3012  155.9635 H   0  0  0  0  0  0  0  0  0  0  0  0  # atno 8010 bound_to 7997
  139.7109  143.9110  152.2467 H   0  0  0  0  0  0  0  0  0  0  0  0  # atno 10167 bound_to 10162
  156.0781  130.5985  150.8672 H   0  0  0  0  0  0  0  0  0  0  0  0  # atno 10718 bound_to 10713
  153.4092  135.3838  155.2039 H   0  0  0  0  0  0  0  0  0  0  0  0  # atno 10763 bound_to 10752
  154.8736  135.3790  154.4521 H   0  0  0  0  0  0  0  0  0  0  0  0  # atno 10764 bound_to 10752
  153.5028  135.7088  153.5885 H   0  0  0  0  0  0  0  0  0  0  0  0  # atno 10765 bound_to 10752
  141.1374  133.8182  157.0727 H   0  0  0  0  0  0  0  0  0  0  0  0  # atno 11005 bound_to 11000
  146.0200  139.3243  143.0818 LP  0  0  0  0  0  0  0  0  0  0  0  0  # atno 17320 bound_to 7965
  145.8580  140.9492  143.0715 LP  0  0  0  0  0  0  0  0  0  0  0  0  # atno 17321 bound_to 7965
  139.8979  144.6928  150.8697 LP  0  0  0  0  0  0  0  0  0  0  0  0  # atno 17342 bound_to 10162
  140.7733  143.3536  151.1965 LP  0  0  0  0  0  0  0  0  0  0  0  0  # atno 17343 bound_to 10162
  157.5885  131.0945  150.9157 LP  0  0  0  0  0  0  0  0  0  0  0  0  # atno 17370 bound_to 10713
  156.9337  130.5359  149.5279 LP  0  0  0  0  0  0  0  0  0  0  0  0  # atno 17371 bound_to 10713
  140.0501  134.9810  157.1121 LP  0  0  0  0  0  0  0  0  0  0  0  0  # atno 17394 bound_to 11000
  140.4003  134.2090  155.7163 LP  0  0  0  0  0  0  0  0  0  0  0  0  # atno 17395 bound_to 11000

$$$$
