AV-unprocessed.smi:130|AV-procd|sdf|1160|dock4
  -GOLD-   2262018303D 1   1.00000     0.00000
 Structure written by MMmdl.
 44 47  0  0  0  0  0  0  0  0  1 V2000
  154.4053  142.0387  162.0742 O   0  0  0  0  0  0  0  0  0  0  0  0
  154.1357  141.2270  161.1880 C   0  0  0  0  0  0  0  0  0  0  0  0
  154.8896  139.8790  161.1585 C   0  0  0  0  0  0  0  0  0  0  0  0
  155.1952  139.3386  162.5023 N   0  0  0  0  0  0  0  0  0  0  0  0
  154.5783  138.1283  162.9070 C   0  0  0  0  0  0  0  0  0  0  0  0
  153.8132  137.5198  162.1575 O   0  0  0  0  0  0  0  0  0  0  0  0
  154.9034  137.6753  164.2548 C   0  0  0  0  0  0  0  0  0  0  0  0
  154.3585  136.5405  164.7251 F   0  0  0  0  0  0  0  0  0  0  0  0
  155.7411  138.3811  165.0420 C   0  0  0  0  0  0  0  0  0  0  0  0
  156.3397  139.5586  164.6321 N   0  0  0  0  0  0  0  0  0  0  0  0
  157.2656  140.3323  165.5448 C   0  0  1  0  0  0  0  0  0  0  0  0
  156.8229  141.7973  165.6328 C   0  0  0  0  0  0  0  0  0  0  0  0
  155.9553  141.7860  166.8725 C   0  0  0  0  0  0  0  0  0  0  0  0
  156.6766  140.7620  167.7415 C   0  0  0  0  0  0  0  0  0  0  0  0
  157.1945  139.7930  166.8337 O   0  0  0  0  0  0  0  0  0  0  0  0
  156.0631  140.0719  163.3466 C   0  0  0  0  0  0  0  0  0  0  0  0
  156.5574  141.1388  162.9754 O   0  0  0  0  0  0  0  0  0  0  0  0
  153.2033  141.4540  160.2293 N   0  0  0  0  0  0  0  0  0  0  0  0
  152.8752  140.4852  159.1687 C   0  0  0  0  0  0  0  0  0  0  0  0
  151.7707  141.1387  158.3093 C   0  0  0  0  0  0  0  0  0  0  0  0
  151.5606  142.4647  158.9782 C   0  0  0  0  0  0  0  0  0  0  0  0
  150.6518  143.4654  158.5929 C   0  0  0  0  0  0  0  0  0  0  0  0
  150.6032  144.6521  159.3543 C   0  0  0  0  0  0  0  0  0  0  0  0
  151.4521  144.8181  160.4725 C   0  0  0  0  0  0  0  0  0  0  0  0
  152.3594  143.8021  160.8456 C   0  0  0  0  0  0  0  0  0  0  0  0
  152.4004  142.6160  160.0777 C   0  0  0  0  0  0  0  0  0  0  0  0
  154.3040  139.1620  160.5818 H   0  0  0  0  0  0  0  0  0  0  0  0
  155.8102  139.9963  160.5854 H   0  0  0  0  0  0  0  0  0  0  0  0
  155.9383  138.0015  166.0332 H   0  0  0  0  0  0  0  0  0  0  0  0
  158.2716  140.1952  165.1451 H   0  0  0  0  0  0  0  0  0  0  0  0
  157.7058  142.4183  165.7898 H   0  0  0  0  0  0  0  0  0  0  0  0
  156.3092  142.1341  164.7316 H   0  0  0  0  0  0  0  0  0  0  0  0
  155.8710  142.7642  167.3467 H   0  0  0  0  0  0  0  0  0  0  0  0
  154.9518  141.4360  166.6277 H   0  0  0  0  0  0  0  0  0  0  0  0
  157.5109  141.2303  168.2653 H   0  0  0  0  0  0  0  0  0  0  0  0
  156.0224  140.3048  168.4843 H   0  0  0  0  0  0  0  0  0  0  0  0
  153.7517  140.2696  158.5565 H   0  0  0  0  0  0  0  0  0  0  0  0
  152.5173  139.5484  159.5977 H   0  0  0  0  0  0  0  0  0  0  0  0
  152.0900  141.2796  157.2763 H   0  0  0  0  0  0  0  0  0  0  0  0
  150.8492  140.5557  158.3180 H   0  0  0  0  0  0  0  0  0  0  0  0
  150.0074  143.3304  157.7366 H   0  0  0  0  0  0  0  0  0  0  0  0
  149.9142  145.4378  159.0813 H   0  0  0  0  0  0  0  0  0  0  0  0
  151.4066  145.7309  161.0478 H   0  0  0  0  0  0  0  0  0  0  0  0
  152.9939  143.9591  161.7031 H   0  0  0  0  0  0  0  0  0  0  0  0
  1  2  2  0  0  0  0
  2  3  1  0  0  0  0
  2 18  1  0  0  0  0
  3  4  1  0  0  0  0
  3 27  1  0  0  0  0
  3 28  1  0  0  0  0
  4 16  1  0  0  0  0
  4  5  1  0  0  0  0
  5  6  2  0  0  0  0
  5  7  1  0  0  0  0
  7  8  1  0  0  0  0
  7  9  2  0  0  0  0
  9 10  1  0  0  0  0
  9 29  1  0  0  0  0
 10 11  1  0  0  0  0
 10 16  1  0  0  0  0
 11 15  1  0  0  0  0
 11 12  1  0  0  0  0
 11 30  1  0  0  0  0
 12 13  1  0  0  0  0
 12 31  1  0  0  0  0
 12 32  1  0  0  0  0
 13 14  1  0  0  0  0
 13 33  1  0  0  0  0
 13 34  1  0  0  0  0
 14 15  1  0  0  0  0
 14 35  1  0  0  0  0
 14 36  1  0  0  0  0
 16 17  2  0  0  0  0
 18 26  1  0  0  0  0
 18 19  1  0  0  0  0
 19 20  1  0  0  0  0
 19 37  1  0  0  0  0
 19 38  1  0  0  0  0
 20 21  1  0  0  0  0
 20 39  1  0  0  0  0
 20 40  1  0  0  0  0
 21 26  2  0  0  0  0
 21 22  1  0  0  0  0
 22 23  2  0  0  0  0
 22 41  1  0  0  0  0
 23 24  1  0  0  0  0
 23 42  1  0  0  0  0
 24 25  2  0  0  0  0
 24 43  1  0  0  0  0
 25 26  1  0  0  0  0
 25 44  1  0  0  0  0
M  END
> <s_m_source_file>
AV-unprocessed.smi

> <i_m_source_file_index>
130

> <i_lp_mmshare_version>
43012

> <i_f3d_flags>
0

> <s_epik_input>
W2NIXTFbY0hdW2NIXVtjSF1jKGMxMilOKFtDSDJdW0NIMl0yKUMoPU8pW0NIMl1uM2MoPU8pYyhGKVtjSF1uKGMzPU8pW0NAQEhdNFtDSDJdW0NIMl1bQ0gyXU80

> <s_epik_cmdline>
J2VwaWtfcHl0aG9uJywgJy1waCcsICc3LjAnLCAnLXRuJywgJzgnLCAnLW1hJywgJzIwMCcsICctbWV0YWxfYmluZGluZycsICctaW1hZScsICc8aW5maWxlLm1hZT4nLCAnLW9tYWUnLCAnPG91dGZpbGUubWFlPic=

> <r_lp_tautomer_probability>
1

> <r_epik_Ionization_Penalty>
1.67926e-06

> <r_epik_Ionization_Penalty_Charging>
3.62822e-09

> <r_epik_Ionization_Penalty_Neutral>
1.67563e-06

> <r_epik_State_Penalty>
-0

> <r_epik_Charging_Adjusted_Penalty>
3.62822e-09

> <i_epik_Tot_Q>
0

> <i_epik_Tot_abs_Q>
0

> <r_epik_Metal_State_Penalty>
-0

> <b_epik_Metal_Only>
0

> <s_epik_Chemistry_Notes>
This compound contains an acetal/aminal-like group ( X-CH(R)-Y where X, Y are N, S, or O) that may be acid/base labile, releasing an aldehyde.

> <s_lp_Force_Field>
OPLS_2005

> <r_lp_Energy>
53.4438

> <b_lp_Chiralities_Consistent>
1

> <s_lp_Variant>
AV-unprocessed.smi:130-2

> <Gold.Version>
5.8.1

> <Gold.Id.Protein>
6NUR|6NUR_protein|mol2

> <Gold.PLP.Fitness>
56.0147

> <Gold.PLP.PLP>
-57.0884

> <Gold.PLP.part.hbond>
-2.2086

> <Gold.PLP.part.metal>
0.0000

> <Gold.PLP.part.buried>
-5.6568

> <Gold.PLP.part.nonpolar>
-48.2382

> <Gold.PLP.part.repulsive>
0.0706

> <Gold.PLP.ligand.clash>
0.0000

> <Gold.PLP.ligand.torsion>
0.5421

> <Gold.PLP.Chemscore.Hbond>
0.0000

> <Gold.PLP.Chemscore.CHOScore>
0.0000

> <Gold.PLP.Chemscore.Metal>
0.0000

> <Gold.PLP.Chemscore.Internal.Correction>
0.0103

> <Gold.Rescore>
     Score         DG    S(hbond)    S(metal)    S(lipo)     H(rot)  DE(clash)    DE(int)     intcor
      6.18     -13.83       0.00        0.00     105.77       1.57       1.70       5.96       ----

> <Gold.Chemscore.Fitness>
6.1771

> <Gold.Chemscore.DG>
-13.8343

> <Gold.Chemscore.ZeroCoef>
-5.4800

> <Gold.Chemscore.Hbond>
0.0000

> <Gold.Chemscore.Metal>
0.0000

> <Gold.Chemscore.Lipo>
105.7661

> <Gold.Chemscore.Internal_Hbond>
0.0000

> <Gold.Chemscore.DEClash>
1.6985

> <Gold.Chemscore.DEInternal>
5.9587

> <Gold.Chemscore.Rot>
1.5704

> <Gold.Chemscore.Internal.Correction>
   9.000000E+99

> <Gold.Chemscore.Hbond.Weighted>
-0.0000

> <Gold.Chemscore.Metal.Weighted>
-0.0000

> <Gold.Chemscore.Lipo.Weighted>
-12.3746

> <Gold.Chemscore.Internal_Hbond.Weighted>
0.0000

> <Gold.Chemscore.DEClash.Weighted>
1.6985

> <Gold.Chemscore.DEInternal.Weighted>
5.9587

> <Gold.Chemscore.Rot.Weighted>
4.0203

> <Gold.Chemscore.Internal.Correction.Weighted>
   9.000000E+99

> <Gold.Protein.RotatedTorsions>
[ 6907 6896 6895 6894 ] final  -13.27 input  -60.11 | X-H torsion
[ 7974 7965 7964 7962 ] final   49.37 input  175.53 | X-H torsion
[ 8008 7997 7996 7995 ] final   50.07 input   59.86 | X-H torsion
[ 10167 10162 10161 10158 ] final  -10.08 input  -65.29 | X-H torsion
[ 10718 10713 10712 10709 ] final   75.45 input   66.30 | X-H torsion
[ 10763 10752 10751 10750 ] final -176.71 input  -60.55 | X-H torsion
[ 11005 11000 10999 10996 ] final  170.24 input  -57.11 | X-H torsion

> <Gold.Protein.ActiveResidues>
 VAL166  LYS551  ARG553  GLY616  TRP617  ASP618  TYR619  PRO620  LYS621  CYS622 
 ASP623  PHE694  ASN695  SER759  ASP760  ASP761  ALA762  ILE779  LEU786  VAL792 
 PHE793  MET794  SER795  GLU796  ALA797  LYS798  CYS799  TRP800  GLU811  SER814 

> <Gold.Protein.RotatedAtoms>
  151.3575  135.0897  159.9423 H   0  0  0  0  0  0  0  0  0  0  0  0  # atno 6907 bound_to 6896
  152.5171  133.9292  159.7582 H   0  0  0  0  0  0  0  0  0  0  0  0  # atno 6908 bound_to 6896
  150.9679  133.6321  159.2772 H   0  0  0  0  0  0  0  0  0  0  0  0  # atno 6909 bound_to 6896
  146.0116  139.4549  142.9953 H   0  0  0  0  0  0  0  0  0  0  0  0  # atno 7974 bound_to 7965
  155.4126  140.3443  155.4265 H   0  0  0  0  0  0  0  0  0  0  0  0  # atno 8008 bound_to 7997
  156.1440  140.1550  156.8908 H   0  0  0  0  0  0  0  0  0  0  0  0  # atno 8009 bound_to 7997
  154.4994  140.0819  156.7747 H   0  0  0  0  0  0  0  0  0  0  0  0  # atno 8010 bound_to 7997
  140.7104  143.5787  150.9015 H   0  0  0  0  0  0  0  0  0  0  0  0  # atno 10167 bound_to 10162
  157.6634  130.9727  150.1355 H   0  0  0  0  0  0  0  0  0  0  0  0  # atno 10718 bound_to 10713
  154.5691  135.2826  155.0845 H   0  0  0  0  0  0  0  0  0  0  0  0  # atno 10763 bound_to 10752
  154.2225  135.6388  153.5153 H   0  0  0  0  0  0  0  0  0  0  0  0  # atno 10764 bound_to 10752
  153.0052  135.5518  154.6308 H   0  0  0  0  0  0  0  0  0  0  0  0  # atno 10765 bound_to 10752
  140.3062  134.7554  157.3956 H   0  0  0  0  0  0  0  0  0  0  0  0  # atno 11005 bound_to 11000
  145.7334  141.0034  143.1340 LP  0  0  0  0  0  0  0  0  0  0  0  0  # atno 17320 bound_to 7965
  144.6955  139.9011  143.7458 LP  0  0  0  0  0  0  0  0  0  0  0  0  # atno 17321 bound_to 7965
  139.9513  143.6269  152.3028 LP  0  0  0  0  0  0  0  0  0  0  0  0  # atno 17342 bound_to 10162
  139.6788  144.7657  151.1646 LP  0  0  0  0  0  0  0  0  0  0  0  0  # atno 17343 bound_to 10162
  156.2191  130.3672  149.8577 LP  0  0  0  0  0  0  0  0  0  0  0  0  # atno 17370 bound_to 10713
  156.6435  130.8714  151.3518 LP  0  0  0  0  0  0  0  0  0  0  0  0  # atno 17371 bound_to 10713
  140.1065  134.5403  155.8305 LP  0  0  0  0  0  0  0  0  0  0  0  0  # atno 17394 bound_to 11000
  141.2118  133.6711  156.6608 LP  0  0  0  0  0  0  0  0  0  0  0  0  # atno 17395 bound_to 11000

$$$$
