AV-unprocessed.smi:34|AV-procd|sdf|216|dock1
  -GOLD-   2262015523D 1   1.00000     0.00000
 Structure written by MMmdl.
 55 59  0  0  0  0  0  0  0  0  1 V2000
  153.1100  140.1341  158.5211 O   0  0  0  0  0  0  0  0  0  0  0  0
  152.3598  140.9919  158.0544 C   0  0  0  0  0  0  0  0  0  0  0  0
  151.5379  140.7456  156.8824 N   0  0  0  0  0  0  0  0  0  0  0  0
  151.5116  139.6442  156.0956 C   0  0  0  0  0  0  0  0  0  0  0  0
  151.8420  139.6815  154.7780 N   0  0  0  0  0  0  0  0  0  0  0  0
  151.7987  138.5672  154.0427 C   0  0  0  0  0  0  0  0  0  0  0  0
  151.4568  137.3344  154.4205 N   0  0  0  0  0  0  0  0  0  0  0  0
  151.1199  137.2851  155.7409 C   0  0  0  0  0  0  0  0  0  0  0  0
  151.1223  138.3910  156.6370 C   0  0  0  0  0  0  0  0  0  0  0  0
  150.7251  137.9739  157.9003 N   0  0  0  0  0  0  0  0  0  0  0  0
  150.5025  136.6957  157.7551 C   0  0  0  0  0  0  0  0  0  0  0  0
  150.7177  136.1954  156.4901 N   0  0  0  0  0  0  0  0  0  0  0  0
  150.5513  134.7736  156.0448 C   0  0  1  0  0  0  0  0  0  0  0  0
  149.8385  134.0467  157.0038 O   0  0  0  0  0  0  0  0  0  0  0  0
  148.8563  133.2061  156.3894 C   0  0  1  0  0  0  0  0  0  0  0  0
  147.4562  133.7359  156.7399 C   0  0  0  0  0  0  0  0  0  0  0  0
  147.3820  133.9602  158.1387 O   0  0  0  0  0  0  0  0  0  0  0  0
  147.5095  135.2075  158.6333 C   0  0  0  0  0  0  0  0  0  0  0  0
  147.7789  136.1928  157.9431 O   0  0  0  0  0  0  0  0  0  0  0  0
  147.3023  135.2703  160.1086 C   0  0  0  0  0  0  0  0  0  0  0  0
  147.4542  136.5074  160.7773 C   0  0  0  0  0  0  0  0  0  0  0  0
  147.2674  136.5976  162.1704 C   0  0  0  0  0  0  0  0  0  0  0  0
  146.9263  135.4517  162.9118 C   0  0  0  0  0  0  0  0  0  0  0  0
  146.7734  134.2149  162.2586 C   0  0  0  0  0  0  0  0  0  0  0  0
  146.9602  134.1224  160.8656 C   0  0  0  0  0  0  0  0  0  0  0  0
  149.1851  133.2722  154.8942 C   0  0  1  0  0  0  0  0  0  0  0  0
  148.1591  133.0288  154.0764 F   0  0  0  0  0  0  0  0  0  0  0  0
  149.8000  134.6465  154.7134 C   0  0  1  0  0  0  0  0  0  0  0  0
  148.8280  135.6592  154.5162 O   0  0  0  0  0  0  0  0  0  0  0  0
  152.1766  142.3254  158.7194 C   0  0  0  0  0  0  0  0  0  0  0  0
  152.5640  142.5026  160.0670 C   0  0  0  0  0  0  0  0  0  0  0  0
  152.4119  143.7546  160.6940 C   0  0  0  0  0  0  0  0  0  0  0  0
  151.8785  144.8420  159.9769 C   0  0  0  0  0  0  0  0  0  0  0  0
  151.5008  144.6776  158.6310 C   0  0  0  0  0  0  0  0  0  0  0  0
  151.6523  143.4261  158.0027 C   0  0  0  0  0  0  0  0  0  0  0  0
  150.9174  141.4951  156.6136 H   0  0  0  0  0  0  0  0  0  0  0  0
  152.0785  138.6782  153.0053 H   0  0  0  0  0  0  0  0  0  0  0  0
  150.1756  136.0745  158.5763 H   0  0  0  0  0  0  0  0  0  0  0  0
  151.5668  134.3789  155.9897 H   0  0  0  0  0  0  0  0  0  0  0  0
  148.9592  132.1825  156.7514 H   0  0  0  0  0  0  0  0  0  0  0  0
  147.2421  134.6493  156.1851 H   0  0  0  0  0  0  0  0  0  0  0  0
  146.6947  133.0049  156.4667 H   0  0  0  0  0  0  0  0  0  0  0  0
  147.7168  137.4007  160.2289 H   0  0  0  0  0  0  0  0  0  0  0  0
  147.3862  137.5478  162.6699 H   0  0  0  0  0  0  0  0  0  0  0  0
  146.7828  135.5208  163.9801 H   0  0  0  0  0  0  0  0  0  0  0  0
  146.5123  133.3342  162.8269 H   0  0  0  0  0  0  0  0  0  0  0  0
  146.8354  133.1579  160.3957 H   0  0  0  0  0  0  0  0  0  0  0  0
  149.9393  132.5172  154.6674 H   0  0  0  0  0  0  0  0  0  0  0  0
  150.5080  134.6763  153.8848 H   0  0  0  0  0  0  0  0  0  0  0  0
  148.6239  135.7038  153.5945 H   0  0  0  0  0  0  0  0  0  0  0  0
  152.9769  141.6783  160.6308 H   0  0  0  0  0  0  0  0  0  0  0  0
  152.7064  143.8808  161.7255 H   0  0  0  0  0  0  0  0  0  0  0  0
  151.7629  145.8022  160.4579 H   0  0  0  0  0  0  0  0  0  0  0  0
  151.0971  145.5133  158.0783 H   0  0  0  0  0  0  0  0  0  0  0  0
  151.3655  143.3247  156.9660 H   0  0  0  0  0  0  0  0  0  0  0  0
  1  2  2  0  0  0  0
  2  3  1  0  0  0  0
  2 30  1  0  0  0  0
  3  4  1  0  0  0  0
  3 36  1  0  0  0  0
  4  9  1  0  0  0  0
  4  5  2  0  0  0  0
  5  6  1  0  0  0  0
  6  7  2  0  0  0  0
  6 37  1  0  0  0  0
  7  8  1  0  0  0  0
  8 12  1  0  0  0  0
  8  9  2  0  0  0  0
  9 10  1  0  0  0  0
 10 11  2  0  0  0  0
 11 12  1  0  0  0  0
 11 38  1  0  0  0  0
 12 13  1  0  0  0  0
 13 28  1  0  0  0  0
 13 14  1  0  0  0  0
 13 39  1  0  0  0  0
 14 15  1  0  0  0  0
 15 16  1  0  0  0  0
 15 26  1  0  0  0  0
 15 40  1  0  0  0  0
 16 17  1  0  0  0  0
 16 41  1  0  0  0  0
 16 42  1  0  0  0  0
 17 18  1  0  0  0  0
 18 19  2  0  0  0  0
 18 20  1  0  0  0  0
 20 25  1  0  0  0  0
 20 21  2  0  0  0  0
 21 22  1  0  0  0  0
 21 43  1  0  0  0  0
 22 23  2  0  0  0  0
 22 44  1  0  0  0  0
 23 24  1  0  0  0  0
 23 45  1  0  0  0  0
 24 25  2  0  0  0  0
 24 46  1  0  0  0  0
 25 47  1  0  0  0  0
 26 27  1  0  0  0  0
 26 28  1  0  0  0  0
 26 48  1  0  0  0  0
 28 29  1  0  0  0  0
 28 49  1  0  0  0  0
 29 50  1  0  0  0  0
 30 35  1  0  0  0  0
 30 31  2  0  0  0  0
 31 32  1  0  0  0  0
 31 51  1  0  0  0  0
 32 33  2  0  0  0  0
 32 52  1  0  0  0  0
 33 34  1  0  0  0  0
 33 53  1  0  0  0  0
 34 35  2  0  0  0  0
 34 54  1  0  0  0  0
 35 55  1  0  0  0  0
M  END
> <s_m_source_file>
AV-unprocessed.smi

> <i_m_source_file_index>
34

> <i_lp_mmshare_version>
43012

> <i_f3d_flags>
0

> <s_epik_input>
W2NIXTFbY0hdW2NIXVtjSF1bY0hdYzFDKD1PKVtOSF1jKG5bY0hdbjIpYyhjMjMpbltjSF1uM1tDQEBIXTRPW0NASF0oW0NAQEhdKEYpW0NASF00W09IXSlbQ0gyXU9DKD1PKWM1W2NIXVtjSF1bY0hdW2NIXVtjSF01

> <s_epik_cmdline>
J2VwaWtfcHl0aG9uJywgJy1waCcsICc3LjAnLCAnLXRuJywgJzgnLCAnLW1hJywgJzIwMCcsICctbWV0YWxfYmluZGluZycsICctaW1hZScsICc8aW5maWxlLm1hZT4nLCAnLW9tYWUnLCAnPG91dGZpbGUubWFlPic=

> <r_lp_tautomer_probability>
1

> <r_epik_Ionization_Penalty>
0.00257489

> <r_epik_Ionization_Penalty_Charging>
0

> <r_epik_Ionization_Penalty_Neutral>
0.00257489

> <r_epik_State_Penalty>
0.00519398

> <r_epik_Charging_Adjusted_Penalty>
0.00519398

> <i_epik_Tot_Q>
0

> <i_epik_Tot_abs_Q>
0

> <r_epik_Metal_State_Penalty>
0.335891

> <b_epik_Metal_Only>
0

> <s_epik_Chemistry_Notes>
This compound has an ester and may undergo hydrolysis at high or low pH. This compound contains an acetal/aminal-like group ( X-CH(R)-Y where X, Y are N, S, or O) that may be acid/base labile, releasing an aldehyde.

> <s_lp_Force_Field>
OPLS_2005

> <r_lp_Energy>
55.8297

> <b_lp_Chiralities_Consistent>
1

> <s_lp_Variant>
AV-unprocessed.smi:34-2

> <Gold.Version>
5.8.1

> <Gold.Id.Protein>
6NUR|6NUR_protein|mol2

> <Gold.PLP.Fitness>
75.3679

> <Gold.PLP.PLP>
-64.3233

> <Gold.PLP.part.hbond>
-5.0000

> <Gold.PLP.part.metal>
0.0000

> <Gold.PLP.part.buried>
-8.4519

> <Gold.PLP.part.nonpolar>
-50.6221

> <Gold.PLP.part.repulsive>
0.2990

> <Gold.PLP.ligand.clash>
0.0000

> <Gold.PLP.ligand.torsion>
1.5069

> <Gold.PLP.Chemscore.Hbond>
4.4913

> <Gold.PLP.Chemscore.CHOScore>
0.0000

> <Gold.PLP.Chemscore.Metal>
0.0000

> <Gold.Chemscore.Hbonds>
donor molecule, donor type, donor heavy atom, donor atom, acceptor molecule, acceptor atom, score
      L1  H    29    50       P1  7948  1.00
      P1  H  7989  7998       L1     5  0.95
      P1  H  7997  8009       L1     1  0.68
      P1  H 10752 10765       L1     7  0.49

> <Gold.PLP.Chemscore.Internal.Correction>
0.5847

> <Gold.Rescore>
     Score         DG    S(hbond)    S(metal)    S(lipo)     H(rot)  DE(clash)    DE(int)     intcor
     20.65     -23.43       2.65        0.00     137.41       2.72       0.48       2.30       ----

> <Gold.Chemscore.Fitness>
20.6517

> <Gold.Chemscore.DG>
-23.4256

> <Gold.Chemscore.ZeroCoef>
-5.4800

> <Gold.Chemscore.Hbond>
2.6455

> <Gold.Chemscore.Metal>
0.0000

> <Gold.Chemscore.Lipo>
137.4089

> <Gold.Chemscore.Internal_Hbond>
0.0000

> <Gold.Chemscore.DEClash>
0.4755

> <Gold.Chemscore.DEInternal>
2.2985

> <Gold.Chemscore.Rot>
2.7215

> <Gold.Chemscore.Internal.Correction>
   9.000000E+99

> <Gold.Chemscore.Hbonds>
donor molecule, donor type, donor heavy atom, donor atom, acceptor molecule, acceptor atom, score
      L1  H    29    50       P1  7948  0.96
      P1  H  6896  6908       L1    14  0.03
      P1  H  7989  7998       L1     5  0.20
      P1  H  7997  8009       L1     1  0.33
      P1  H 10752 10765       L1     7  0.12

> <Gold.Chemscore.Hbond.Weighted>
-8.8358

> <Gold.Chemscore.Metal.Weighted>
-0.0000

> <Gold.Chemscore.Lipo.Weighted>
-16.0768

> <Gold.Chemscore.Internal_Hbond.Weighted>
0.0000

> <Gold.Chemscore.DEClash.Weighted>
0.4755

> <Gold.Chemscore.DEInternal.Weighted>
2.2985

> <Gold.Chemscore.Rot.Weighted>
6.9670

> <Gold.Chemscore.Internal.Correction.Weighted>
   9.000000E+99

> <Gold.Protein.RotatedTorsions>
[ 6907 6896 6895 6894 ] final  116.40 input  -60.11 | X-H torsion
[ 7974 7965 7964 7962 ] final   21.40 input  175.53 | X-H torsion
[ 8008 7997 7996 7995 ] final  140.07 input   59.86 | X-H torsion
[ 10167 10162 10161 10158 ] final -145.15 input  -65.29 | X-H torsion
[ 10718 10713 10712 10709 ] final -115.98 input   66.30 | X-H torsion
[ 10763 10752 10751 10750 ] final  164.28 input  -60.55 | X-H torsion
[ 11005 11000 10999 10996 ] final  132.73 input  -57.11 | X-H torsion

> <Gold.Protein.ActiveResidues>
 VAL166  LYS551  ARG553  GLY616  TRP617  ASP618  TYR619  PRO620  LYS621  CYS622 
 ASP623  PHE694  ASN695  SER759  ASP760  ASP761  ALA762  ILE779  LEU786  VAL792 
 PHE793  MET794  SER795  GLU796  ALA797  LYS798  CYS799  TRP800  GLU811  SER814 

> <Gold.Protein.RotatedAtoms>
  152.4680  133.7966  159.6930 H   0  0  0  0  0  0  0  0  0  0  0  0  # atno 6907 bound_to 6896
  150.8655  133.7572  159.2984 H   0  0  0  0  0  0  0  0  0  0  0  0  # atno 6908 bound_to 6896
  151.5123  135.1068  159.9909 H   0  0  0  0  0  0  0  0  0  0  0  0  # atno 6909 bound_to 6896
  146.2073  139.8033  142.8716 H   0  0  0  0  0  0  0  0  0  0  0  0  # atno 7974 bound_to 7965
  156.2983  140.2351  156.4341 H   0  0  0  0  0  0  0  0  0  0  0  0  # atno 8008 bound_to 7997
  154.8244  140.0436  157.1454 H   0  0  0  0  0  0  0  0  0  0  0  0  # atno 8009 bound_to 7997
  154.9278  140.3012  155.5186 H   0  0  0  0  0  0  0  0  0  0  0  0  # atno 8010 bound_to 7997
  139.7832  143.8071  152.2641 H   0  0  0  0  0  0  0  0  0  0  0  0  # atno 10167 bound_to 10162
  156.0932  130.6110  150.8976 H   0  0  0  0  0  0  0  0  0  0  0  0  # atno 10718 bound_to 10713
  154.3064  135.2758  155.2586 H   0  0  0  0  0  0  0  0  0  0  0  0  # atno 10763 bound_to 10752
  154.5001  135.5810  153.6528 H   0  0  0  0  0  0  0  0  0  0  0  0  # atno 10764 bound_to 10752
  152.9893  135.6155  154.3239 H   0  0  0  0  0  0  0  0  0  0  0  0  # atno 10765 bound_to 10752
  139.9808  134.9549  156.9624 H   0  0  0  0  0  0  0  0  0  0  0  0  # atno 11005 bound_to 11000
  145.3273  141.0258  143.3466 LP  0  0  0  0  0  0  0  0  0  0  0  0  # atno 17320 bound_to 7965
  144.8824  139.4886  143.6717 LP  0  0  0  0  0  0  0  0  0  0  0  0  # atno 17321 bound_to 7965
  139.8140  144.7324  150.9660 LP  0  0  0  0  0  0  0  0  0  0  0  0  # atno 17342 bound_to 10162
  140.7819  143.4223  151.0822 LP  0  0  0  0  0  0  0  0  0  0  0  0  # atno 17343 bound_to 10162
  157.6087  131.0937  150.8834 LP  0  0  0  0  0  0  0  0  0  0  0  0  # atno 17370 bound_to 10713
  156.8978  130.5235  149.5284 LP  0  0  0  0  0  0  0  0  0  0  0  0  # atno 17371 bound_to 10713
  140.5101  134.1011  155.7268 LP  0  0  0  0  0  0  0  0  0  0  0  0  # atno 17394 bound_to 11000
  141.1480  133.9020  157.2168 LP  0  0  0  0  0  0  0  0  0  0  0  0  # atno 17395 bound_to 11000

$$$$
