AV-unprocessed.smi:2739|AV-procd|sdf|10552|dock6
  -GOLD-   2272015 03D 1   1.00000     0.00000
 Structure written by MMmdl.
 35 35  0  0  0  0  0  0  0  0  1 V2000
  153.0793  142.7023  162.4808 C   0  0  0  0  0  0  0  0  0  0  0  0
  152.6205  143.0342  161.0534 C   0  0  0  0  0  0  0  0  0  0  0  0
  152.6812  141.8387  160.0821 C   0  0  2  0  0  0  0  0  0  0  0  0
  154.0894  141.2310  160.0210 C   0  0  0  0  0  0  0  0  0  0  0  0
  152.2782  142.2425  158.7363 N   0  0  0  0  0  0  0  0  0  0  0  0
  151.1330  141.9076  158.1201 C   0  0  0  0  0  0  0  0  0  0  0  0
  150.2554  141.2159  158.6356 O   0  0  0  0  0  0  0  0  0  0  0  0
  150.9475  142.4399  156.6990 C   0  0  0  0  0  0  0  0  0  0  0  0
  150.3576  141.4316  155.8373 N   0  0  0  0  0  0  0  0  0  0  0  0
  149.0984  141.4138  155.2769 C   0  0  0  0  0  0  0  0  0  0  0  0
  148.9949  140.2637  154.5487 C   0  0  0  0  0  0  0  0  0  0  0  0
  150.2568  139.6271  154.7246 C   0  0  0  0  0  0  0  0  0  0  0  0
  150.7156  138.3161  154.1400 C   0  0  1  0  0  0  0  0  0  0  0  0
  152.1662  138.0001  154.5295 C   0  0  0  0  0  0  0  0  0  0  0  0
  149.8976  137.2342  154.5378 O   0  0  0  0  0  0  0  0  0  0  0  0
  151.0696  140.3354  155.4981 N   0  0  0  0  0  0  0  0  0  0  0  0
  153.0753  143.5956  163.1054 H   0  0  0  0  0  0  0  0  0  0  0  0
  154.0922  142.2989  162.4842 H   0  0  0  0  0  0  0  0  0  0  0  0
  152.4248  141.9697  162.9530 H   0  0  0  0  0  0  0  0  0  0  0  0
  151.6063  143.4345  161.0849 H   0  0  0  0  0  0  0  0  0  0  0  0
  153.2497  143.8375  160.6682 H   0  0  0  0  0  0  0  0  0  0  0  0
  152.0113  141.0630  160.4568 H   0  0  0  0  0  0  0  0  0  0  0  0
  154.4124  140.8894  161.0046 H   0  0  0  0  0  0  0  0  0  0  0  0
  154.8212  141.9566  159.6640 H   0  0  0  0  0  0  0  0  0  0  0  0
  154.1171  140.3718  159.3499 H   0  0  0  0  0  0  0  0  0  0  0  0
  152.9330  142.8151  158.2229 H   0  0  0  0  0  0  0  0  0  0  0  0
  150.2963  143.3148  156.7105 H   0  0  0  0  0  0  0  0  0  0  0  0
  151.9070  142.7592  156.2886 H   0  0  0  0  0  0  0  0  0  0  0  0
  148.3895  142.2117  155.4429 H   0  0  0  0  0  0  0  0  0  0  0  0
  148.1442  139.9265  153.9754 H   0  0  0  0  0  0  0  0  0  0  0  0
  150.6573  138.3716  153.0525 H   0  0  0  0  0  0  0  0  0  0  0  0
  152.8405  138.7897  154.1961 H   0  0  0  0  0  0  0  0  0  0  0  0
  152.5019  137.0672  154.0757 H   0  0  0  0  0  0  0  0  0  0  0  0
  152.2763  137.9033  155.6102 H   0  0  0  0  0  0  0  0  0  0  0  0
  149.6814  136.7264  153.7708 H   0  0  0  0  0  0  0  0  0  0  0  0
  1  2  1  0  0  0  0
  1 17  1  0  0  0  0
  1 18  1  0  0  0  0
  1 19  1  0  0  0  0
  2  3  1  0  0  0  0
  2 20  1  0  0  0  0
  2 21  1  0  0  0  0
  3  4  1  0  0  0  0
  3  5  1  0  0  0  0
  3 22  1  0  0  0  0
  4 23  1  0  0  0  0
  4 24  1  0  0  0  0
  4 25  1  0  0  0  0
  5  6  1  0  0  0  0
  5 26  1  0  0  0  0
  6  7  2  0  0  0  0
  6  8  1  0  0  0  0
  8  9  1  0  0  0  0
  8 27  1  0  0  0  0
  8 28  1  0  0  0  0
  9 16  1  0  0  0  0
  9 10  1  0  0  0  0
 10 11  2  0  0  0  0
 10 29  1  0  0  0  0
 11 12  1  0  0  0  0
 11 30  1  0  0  0  0
 12 13  1  0  0  0  0
 12 16  2  0  0  0  0
 13 14  1  0  0  0  0
 13 15  1  0  0  0  0
 13 31  1  0  0  0  0
 14 32  1  0  0  0  0
 14 33  1  0  0  0  0
 14 34  1  0  0  0  0
 15 35  1  0  0  0  0
M  END
> <s_m_source_file>
AV-unprocessed.smi

> <i_m_source_file_index>
2739

> <i_lp_mmshare_version>
43012

> <i_f3d_flags>
0

> <s_epik_input>
W0NIM11bQ0gyXVtDQEhdKFtDSDNdKVtOSF1DKD1PKVtDSDJdbjFbY0hdW2NIXWMobjEpW0NASF0oW0NIM10pW09IXQ==

> <s_epik_cmdline>
J2VwaWtfcHl0aG9uJywgJy1waCcsICc3LjAnLCAnLXRuJywgJzgnLCAnLW1hJywgJzIwMCcsICctbWV0YWxfYmluZGluZycsICctaW1hZScsICc8aW5maWxlLm1hZT4nLCAnLW9tYWUnLCAnPG91dGZpbGUubWFlPic=

> <r_lp_tautomer_probability>
1

> <r_epik_Ionization_Penalty>
5.22246e-06

> <r_epik_Ionization_Penalty_Charging>
0

> <r_epik_Ionization_Penalty_Neutral>
5.22246e-06

> <r_epik_State_Penalty>
-0

> <r_epik_Charging_Adjusted_Penalty>
0

> <i_epik_Tot_Q>
0

> <i_epik_Tot_abs_Q>
0

> <r_epik_Metal_State_Penalty>
-0

> <b_epik_Metal_Only>
0

> <s_lp_Force_Field>
OPLS_2005

> <r_lp_Energy>
1.64389

> <b_lp_Chiralities_Consistent>
1

> <s_lp_Variant>
AV-unprocessed.smi:2739-3

> <Gold.Version>
5.8.1

> <Gold.Id.Protein>
6NUR|6NUR_protein|mol2

> <Gold.PLP.Fitness>
44.9232

> <Gold.PLP.PLP>
-39.7840

> <Gold.PLP.part.hbond>
-2.0000

> <Gold.PLP.part.metal>
0.0000

> <Gold.PLP.part.buried>
-3.8584

> <Gold.PLP.part.nonpolar>
-33.9967

> <Gold.PLP.part.repulsive>
0.1122

> <Gold.PLP.ligand.clash>
0.0000

> <Gold.PLP.ligand.torsion>
0.4457

> <Gold.PLP.Chemscore.Hbond>
1.0000

> <Gold.PLP.Chemscore.CHOScore>
0.9992

> <Gold.PLP.Chemscore.Metal>
0.0000

> <Gold.Chemscore.Hbonds>
donor molecule, donor type, donor heavy atom, donor atom, acceptor molecule, acceptor atom, score
      L1  H    15    35       P1  7948  0.89
      L1  C    10    29       P1  8028  0.91

> <Gold.PLP.Chemscore.Internal.Correction>
0.0331

> <Gold.Rescore>
     Score         DG    S(hbond)    S(metal)    S(lipo)     H(rot)  DE(clash)    DE(int)     intcor
     12.92     -13.34       0.98        0.00      90.67       2.34       0.02       0.41       ----

> <Gold.Chemscore.Fitness>
12.9168

> <Gold.Chemscore.DG>
-13.3435

> <Gold.Chemscore.ZeroCoef>
-5.4800

> <Gold.Chemscore.Hbond>
0.9754

> <Gold.Chemscore.Metal>
0.0000

> <Gold.Chemscore.Lipo>
90.6692

> <Gold.Chemscore.Internal_Hbond>
0.0000

> <Gold.Chemscore.DEClash>
0.0194

> <Gold.Chemscore.DEInternal>
0.4073

> <Gold.Chemscore.Rot>
2.3448

> <Gold.Chemscore.Internal.Correction>
   9.000000E+99

> <Gold.Chemscore.Hbonds>
donor molecule, donor type, donor heavy atom, donor atom, acceptor molecule, acceptor atom, score
      L1  H    15    35       P1  7948  0.57

> <Gold.Chemscore.Hbond.Weighted>
-3.2580

> <Gold.Chemscore.Metal.Weighted>
-0.0000

> <Gold.Chemscore.Lipo.Weighted>
-10.6083

> <Gold.Chemscore.Internal_Hbond.Weighted>
0.0000

> <Gold.Chemscore.DEClash.Weighted>
0.0194

> <Gold.Chemscore.DEInternal.Weighted>
0.4073

> <Gold.Chemscore.Rot.Weighted>
6.0027

> <Gold.Chemscore.Internal.Correction.Weighted>
   9.000000E+99

> <Gold.Protein.RotatedTorsions>
[ 6907 6896 6895 6894 ] final -131.26 input  -60.11 | X-H torsion
[ 7974 7965 7964 7962 ] final   70.58 input  175.53 | X-H torsion
[ 8008 7997 7996 7995 ] final  119.54 input   59.86 | X-H torsion
[ 10167 10162 10161 10158 ] final -156.33 input  -65.29 | X-H torsion
[ 10718 10713 10712 10709 ] final -133.79 input   66.30 | X-H torsion
[ 10763 10752 10751 10750 ] final   36.33 input  -60.55 | X-H torsion
[ 11005 11000 10999 10996 ] final   99.58 input  -57.11 | X-H torsion

> <Gold.Protein.ActiveResidues>
 VAL166  LYS551  ARG553  GLY616  TRP617  ASP618  TYR619  PRO620  LYS621  CYS622 
 ASP623  PHE694  ASN695  SER759  ASP760  ASP761  ALA762  ILE779  LEU786  VAL792 
 PHE793  MET794  SER795  GLU796  ALA797  LYS798  CYS799  TRP800  GLU811  SER814 

> <Gold.Protein.RotatedAtoms>
  150.9490  133.6571  159.2775 H   0  0  0  0  0  0  0  0  0  0  0  0  # atno 6907 bound_to 6896
  151.3933  135.0958  159.9543 H   0  0  0  0  0  0  0  0  0  0  0  0  # atno 6908 bound_to 6896
  152.5102  133.9000  159.7491 H   0  0  0  0  0  0  0  0  0  0  0  0  # atno 6909 bound_to 6896
  145.7765  139.2867  143.1291 H   0  0  0  0  0  0  0  0  0  0  0  0  # atno 7974 bound_to 7965
  156.2600  140.2850  156.1008 H   0  0  0  0  0  0  0  0  0  0  0  0  # atno 8008 bound_to 7997
  155.1362  140.0394  157.2804 H   0  0  0  0  0  0  0  0  0  0  0  0  # atno 8009 bound_to 7997
  154.6563  140.2556  155.7164 H   0  0  0  0  0  0  0  0  0  0  0  0  # atno 8010 bound_to 7997
  139.6859  143.9502  152.2361 H   0  0  0  0  0  0  0  0  0  0  0  0  # atno 10167 bound_to 10162
  156.2486  130.7139  151.1029 H   0  0  0  0  0  0  0  0  0  0  0  0  # atno 10718 bound_to 10713
  153.0081  135.6309  154.1968 H   0  0  0  0  0  0  0  0  0  0  0  0  # atno 10763 bound_to 10752
  154.1711  135.2818  155.3082 H   0  0  0  0  0  0  0  0  0  0  0  0  # atno 10764 bound_to 10752
  154.5908  135.5618  153.7336 H   0  0  0  0  0  0  0  0  0  0  0  0  # atno 10765 bound_to 10752
  139.8771  134.9102  156.4628 H   0  0  0  0  0  0  0  0  0  0  0  0  # atno 11005 bound_to 11000
  146.0118  140.8429  142.9967 LP  0  0  0  0  0  0  0  0  0  0  0  0  # atno 17320 bound_to 7965
  144.6803  140.2500  143.7333 LP  0  0  0  0  0  0  0  0  0  0  0  0  # atno 17321 bound_to 7965
  139.9305  144.6744  150.8368 LP  0  0  0  0  0  0  0  0  0  0  0  0  # atno 17342 bound_to 10162
  140.7667  143.3312  151.2406 LP  0  0  0  0  0  0  0  0  0  0  0  0  # atno 17343 bound_to 10162
  157.7205  131.0684  150.6154 LP  0  0  0  0  0  0  0  0  0  0  0  0  # atno 17370 bound_to 10713
  156.6232  130.4411  149.5814 LP  0  0  0  0  0  0  0  0  0  0  0  0  # atno 17371 bound_to 10713
  140.8852  133.7889  155.9510 LP  0  0  0  0  0  0  0  0  0  0  0  0  # atno 17394 bound_to 11000
  140.8812  134.2609  157.5143 LP  0  0  0  0  0  0  0  0  0  0  0  0  # atno 17395 bound_to 11000

$$$$
