AV-unprocessed.smi:1267|AV-procd|sdf|5322|dock1
  -GOLD-   22720 4443D 1   1.00000     0.00000
 Structure written by MMmdl.
 37 38  0  0  0  0  0  0  0  0  1 V2000
  149.2230  135.3068  155.1938 C   0  0  0  0  0  0  0  0  0  0  0  0
  150.0957  136.6872  156.0404 S   0  0  0  0  0  0  0  0  0  0  0  0
  149.4316  136.9265  157.3308 O   0  0  0  0  0  0  0  0  0  0  0  0
  151.5393  136.4069  156.0049 O   0  0  0  0  0  0  0  0  0  0  0  0
  149.7965  138.0676  155.0235 N   0  0  0  0  0  0  0  0  0  0  0  0
  148.5769  138.8772  155.2187 C   0  0  0  0  0  0  0  0  0  0  0  0
  148.8733  140.1759  155.9893 C   0  0  0  0  0  0  0  0  0  0  0  0
  149.9974  140.9818  155.3226 C   0  0  0  0  0  0  0  0  0  0  0  0
  150.2876  142.1712  156.1168 N   0  0  0  0  0  0  0  0  0  0  0  0
  150.8602  142.1744  157.3307 C   0  0  0  0  0  0  0  0  0  0  0  0
  151.1980  141.1517  157.9265 O   0  0  0  0  0  0  0  0  0  0  0  0
  151.0880  143.5438  157.9709 C   0  0  0  0  0  0  0  0  0  0  0  0
  151.5717  143.4080  159.3328 N   0  0  0  0  0  0  0  0  0  0  0  0
  152.6361  142.6609  159.7926 C   0  0  0  0  0  0  0  0  0  0  0  0
  152.7128  142.8507  161.1426 C   0  0  0  0  0  0  0  0  0  0  0  0
  151.6395  143.7430  161.4199 C   0  0  0  0  0  0  0  0  0  0  0  0
  150.9581  144.0749  160.3353 N   0  0  0  0  0  0  0  0  0  0  0  0
  151.2455  140.0932  155.1840 C   0  0  0  0  0  0  0  0  0  0  0  0
  150.9287  138.7970  154.4182 C   0  0  0  0  0  0  0  0  0  0  0  0
  149.3611  134.3927  155.7706 H   0  0  0  0  0  0  0  0  0  0  0  0
  149.6366  135.1610  154.1976 H   0  0  0  0  0  0  0  0  0  0  0  0
  148.1586  135.5248  155.1285 H   0  0  0  0  0  0  0  0  0  0  0  0
  148.1663  139.1215  154.2384 H   0  0  0  0  0  0  0  0  0  0  0  0
  147.8136  138.2957  155.7349 H   0  0  0  0  0  0  0  0  0  0  0  0
  147.9662  140.7790  156.0449 H   0  0  0  0  0  0  0  0  0  0  0  0
  149.1447  139.9423  157.0183 H   0  0  0  0  0  0  0  0  0  0  0  0
  149.6616  141.2890  154.3301 H   0  0  0  0  0  0  0  0  0  0  0  0
  150.0513  143.0628  155.7055 H   0  0  0  0  0  0  0  0  0  0  0  0
  151.8039  144.1226  157.3849 H   0  0  0  0  0  0  0  0  0  0  0  0
  150.1543  144.1078  157.9844 H   0  0  0  0  0  0  0  0  0  0  0  0
  153.2432  142.0646  159.1275 H   0  0  0  0  0  0  0  0  0  0  0  0
  153.4270  142.4188  161.8274 H   0  0  0  0  0  0  0  0  0  0  0  0
  151.3380  144.1562  162.3711 H   0  0  0  0  0  0  0  0  0  0  0  0
  152.0358  140.6334  154.6617 H   0  0  0  0  0  0  0  0  0  0  0  0
  151.6427  139.8554  156.1703 H   0  0  0  0  0  0  0  0  0  0  0  0
  151.8110  138.1594  154.3708 H   0  0  0  0  0  0  0  0  0  0  0  0
  150.6693  139.0389  153.3868 H   0  0  0  0  0  0  0  0  0  0  0  0
  1  2  1  0  0  0  0
  1 20  1  0  0  0  0
  1 21  1  0  0  0  0
  1 22  1  0  0  0  0
  2  3  2  0  0  0  0
  2  4  2  0  0  0  0
  2  5  1  0  0  0  0
  5 19  1  0  0  0  0
  5  6  1  0  0  0  0
  6  7  1  0  0  0  0
  6 23  1  0  0  0  0
  6 24  1  0  0  0  0
  7  8  1  0  0  0  0
  7 25  1  0  0  0  0
  7 26  1  0  0  0  0
  8  9  1  0  0  0  0
  8 18  1  0  0  0  0
  8 27  1  0  0  0  0
  9 10  1  0  0  0  0
  9 28  1  0  0  0  0
 10 11  2  0  0  0  0
 10 12  1  0  0  0  0
 12 13  1  0  0  0  0
 12 29  1  0  0  0  0
 12 30  1  0  0  0  0
 13 17  1  0  0  0  0
 13 14  1  0  0  0  0
 14 15  2  0  0  0  0
 14 31  1  0  0  0  0
 15 16  1  0  0  0  0
 15 32  1  0  0  0  0
 16 17  2  0  0  0  0
 16 33  1  0  0  0  0
 18 19  1  0  0  0  0
 18 34  1  0  0  0  0
 18 35  1  0  0  0  0
 19 36  1  0  0  0  0
 19 37  1  0  0  0  0
M  END
> <s_m_source_file>
AV-unprocessed.smi

> <i_m_source_file_index>
1267

> <i_lp_mmshare_version>
43012

> <i_f3d_flags>
0

> <s_epik_input>
W0NIM11TKD1PKSg9TylOMVtDSDJdW0NIMl1bQ0hdKFtDSDJdW0NIMl0xKVtOSF1DKD1PKVtDSDJdbjJbY0hdW2NIXVtjSF1uMg==

> <s_epik_cmdline>
J2VwaWtfcHl0aG9uJywgJy1waCcsICc3LjAnLCAnLXRuJywgJzgnLCAnLW1hJywgJzIwMCcsICctbWV0YWxfYmluZGluZycsICctaW1hZScsICc8aW5maWxlLm1hZT4nLCAnLW9tYWUnLCAnPG91dGZpbGUubWFlPic=

> <r_lp_tautomer_probability>
1

> <r_epik_Ionization_Penalty>
1.58465e-05

> <r_epik_Ionization_Penalty_Charging>
0

> <r_epik_Ionization_Penalty_Neutral>
1.58465e-05

> <r_epik_State_Penalty>
-0

> <r_epik_Charging_Adjusted_Penalty>
0

> <i_epik_Tot_Q>
0

> <i_epik_Tot_abs_Q>
0

> <r_epik_Metal_State_Penalty>
-0

> <b_epik_Metal_Only>
0

> <s_lp_Force_Field>
OPLS_2005

> <r_lp_Energy>
-1.31745

> <b_lp_Chiralities_Consistent>
1

> <s_lp_Variant>
AV-unprocessed.smi:1267-1

> <Gold.Version>
5.8.1

> <Gold.Id.Protein>
6NUR|6NUR_protein|mol2

> <Gold.PLP.Fitness>
39.6710

> <Gold.PLP.PLP>
-34.0896

> <Gold.PLP.part.hbond>
-2.0000

> <Gold.PLP.part.metal>
0.0000

> <Gold.PLP.part.buried>
-2.3555

> <Gold.PLP.part.nonpolar>
-29.9437

> <Gold.PLP.part.repulsive>
0.2433

> <Gold.PLP.ligand.clash>
0.0000

> <Gold.PLP.ligand.torsion>
1.2228

> <Gold.PLP.Chemscore.Hbond>
1.9913

> <Gold.PLP.Chemscore.CHOScore>
0.0000

> <Gold.PLP.Chemscore.Metal>
0.0000

> <Gold.Chemscore.Hbonds>
donor molecule, donor type, donor heavy atom, donor atom, acceptor molecule, acceptor atom, score
      L1  H     9    28       P1  8028  1.00
      P1  H 10752 10764       L1     4  0.89

> <Gold.PLP.Chemscore.Internal.Correction>
2.0533

> <Gold.Rescore>
     Score         DG    S(hbond)    S(metal)    S(lipo)     H(rot)  DE(clash)    DE(int)     intcor
     13.31     -16.98       2.00        0.00      74.80       1.53       0.32       3.34       ----

> <Gold.Chemscore.Fitness>
13.3089

> <Gold.Chemscore.DG>
-16.9765

> <Gold.Chemscore.ZeroCoef>
-5.4800

> <Gold.Chemscore.Hbond>
1.9965

> <Gold.Chemscore.Metal>
0.0000

> <Gold.Chemscore.Lipo>
74.7957

> <Gold.Chemscore.Internal_Hbond>
0.0000

> <Gold.Chemscore.DEClash>
0.3248

> <Gold.Chemscore.DEInternal>
3.3427

> <Gold.Chemscore.Rot>
1.5324

> <Gold.Chemscore.Internal.Correction>
   9.000000E+99

> <Gold.Chemscore.Hbonds>
donor molecule, donor type, donor heavy atom, donor atom, acceptor molecule, acceptor atom, score
      L1  H     9    28       P1  8028  0.89
      P1  H 10752 10764       L1     4  0.87

> <Gold.Chemscore.Hbond.Weighted>
-6.6683

> <Gold.Chemscore.Metal.Weighted>
-0.0000

> <Gold.Chemscore.Lipo.Weighted>
-8.7511

> <Gold.Chemscore.Internal_Hbond.Weighted>
0.0000

> <Gold.Chemscore.DEClash.Weighted>
0.3248

> <Gold.Chemscore.DEInternal.Weighted>
3.3427

> <Gold.Chemscore.Rot.Weighted>
3.9229

> <Gold.Chemscore.Internal.Correction.Weighted>
   9.000000E+99

> <Gold.Protein.RotatedTorsions>
[ 6907 6896 6895 6894 ] final   59.21 input  -60.11 | X-H torsion
[ 7974 7965 7964 7962 ] final -171.30 input  175.53 | X-H torsion
[ 8008 7997 7996 7995 ] final  -80.22 input   59.86 | X-H torsion
[ 10167 10162 10161 10158 ] final  126.82 input  -65.29 | X-H torsion
[ 10718 10713 10712 10709 ] final  -58.20 input   66.30 | X-H torsion
[ 10763 10752 10751 10750 ] final  -46.21 input  -60.55 | X-H torsion
[ 11005 11000 10999 10996 ] final  122.48 input  -57.11 | X-H torsion

> <Gold.Protein.ActiveResidues>
 VAL166  LYS551  ARG553  GLY616  TRP617  ASP618  TYR619  PRO620  LYS621  CYS622 
 ASP623  PHE694  ASN695  SER759  ASP760  ASP761  ALA762  ILE779  LEU786  VAL792 
 PHE793  MET794  SER795  GLU796  ALA797  LYS798  CYS799  TRP800  GLU811  SER814 

> <Gold.Protein.RotatedAtoms>
  152.3894  134.6465  160.0113 H   0  0  0  0  0  0  0  0  0  0  0  0  # atno 6907 bound_to 6896
  151.6704  133.3308  159.3203 H   0  0  0  0  0  0  0  0  0  0  0  0  # atno 6908 bound_to 6896
  150.7813  134.6804  159.6485 H   0  0  0  0  0  0  0  0  0  0  0  0  # atno 6909 bound_to 6896
  144.7159  140.1943  143.6345 H   0  0  0  0  0  0  0  0  0  0  0  0  # atno 7974 bound_to 7965
  154.5862  140.0666  156.9174 H   0  0  0  0  0  0  0  0  0  0  0  0  # atno 8008 bound_to 7997
  155.2375  140.3342  155.4278 H   0  0  0  0  0  0  0  0  0  0  0  0  # atno 8009 bound_to 7997
  156.2224  140.1804  156.7429 H   0  0  0  0  0  0  0  0  0  0  0  0  # atno 8010 bound_to 7997
  139.5611  144.6882  151.4042 H   0  0  0  0  0  0  0  0  0  0  0  0  # atno 10167 bound_to 10162
  156.1153  130.4171  150.0545 H   0  0  0  0  0  0  0  0  0  0  0  0  # atno 10718 bound_to 10713
  154.0412  135.6644  153.4790 H   0  0  0  0  0  0  0  0  0  0  0  0  # atno 10763 bound_to 10752
  153.0501  135.5090  154.7840 H   0  0  0  0  0  0  0  0  0  0  0  0  # atno 10764 bound_to 10752
  154.6817  135.3046  154.9569 H   0  0  0  0  0  0  0  0  0  0  0  0  # atno 10765 bound_to 10752
  139.9270  134.9641  156.8116 H   0  0  0  0  0  0  0  0  0  0  0  0  # atno 11005 bound_to 11000
  145.8739  139.2286  143.1645 LP  0  0  0  0  0  0  0  0  0  0  0  0  # atno 17320 bound_to 7965
  146.0059  140.8479  142.9995 LP  0  0  0  0  0  0  0  0  0  0  0  0  # atno 17321 bound_to 7965
  140.6890  143.7906  150.7228 LP  0  0  0  0  0  0  0  0  0  0  0  0  # atno 17342 bound_to 10162
  140.1382  143.4464  152.2210 LP  0  0  0  0  0  0  0  0  0  0  0  0  # atno 17343 bound_to 10162
  156.8498  130.9455  151.3626 LP  0  0  0  0  0  0  0  0  0  0  0  0  # atno 17370 bound_to 10713
  157.6336  130.8748  149.9318 LP  0  0  0  0  0  0  0  0  0  0  0  0  # atno 17371 bound_to 10713
  140.6308  133.9908  155.7661 LP  0  0  0  0  0  0  0  0  0  0  0  0  # atno 17394 bound_to 11000
  141.0834  134.0027  157.3350 LP  0  0  0  0  0  0  0  0  0  0  0  0  # atno 17395 bound_to 11000

$$$$
