AV-unprocessed.smi:1902|AV-procd|sdf|7720|dock1
  -GOLD-   22720 9463D 1   1.00000     0.00000
 Structure written by MMmdl.
 44 45  0  0  0  0  0  0  0  0  2 V2000
  144.8578  134.6836  150.6097 C   0  0  0  0  0  0  0  0  0  0  0  0
  145.7233  134.1055  151.7383 C   0  0  2  0  0  0  0  0  0  0  0  0
  146.0410  135.1608  152.8108 C   0  0  0  0  0  0  0  0  0  0  0  0
  146.9374  134.5816  153.9186 C   0  0  0  0  0  0  0  0  0  0  0  0
  148.1928  134.0189  153.3570 N   0  3  1  0  0  0  0  0  0  0  0  0
  149.1312  133.5757  154.4184 C   0  0  0  0  0  0  0  0  0  0  0  0
  149.4746  134.7033  155.4119 C   0  0  0  0  0  0  0  0  0  0  0  0
  149.7344  135.9591  154.7186 N   0  0  0  0  0  0  0  0  0  0  0  0
  150.6485  136.8663  155.0939 C   0  0  0  0  0  0  0  0  0  0  0  0
  151.3485  136.7389  156.0993 O   0  0  0  0  0  0  0  0  0  0  0  0
  150.7793  138.1076  154.2003 C   0  0  0  0  0  0  0  0  0  0  0  0
  150.4476  139.3583  154.9032 N   0  0  0  0  0  0  0  0  0  0  0  0
  149.3126  140.0656  154.4590 C   0  0  0  0  0  0  0  0  0  0  0  0
  148.9216  141.2136  155.0346 C   0  0  0  0  0  0  0  0  0  0  0  0
  149.6990  141.7230  156.1394 C   0  0  0  0  0  0  0  0  0  0  0  0
  150.7852  141.0534  156.5735 C   0  0  0  0  0  0  0  0  0  0  0  0
  151.2156  139.7977  155.9483 C   0  0  0  0  0  0  0  0  0  0  0  0
  152.2040  139.1765  156.3410 O   0  0  0  0  0  0  0  0  0  0  0  0
  147.9098  132.9667  152.3448 C   0  0  0  0  0  0  0  0  0  0  0  0
  147.0387  133.5163  151.2028 C   0  0  0  0  0  0  0  0  0  0  0  0
  145.3666  135.5000  150.0960 H   0  0  0  0  0  0  0  0  0  0  0  0
  143.9150  135.0709  150.9970 H   0  0  0  0  0  0  0  0  0  0  0  0
  144.6195  133.9212  149.8678 H   0  0  0  0  0  0  0  0  0  0  0  0
  145.1582  133.3003  152.2105 H   0  0  0  0  0  0  0  0  0  0  0  0
  146.5368  136.0180  152.3529 H   0  0  0  0  0  0  0  0  0  0  0  0
  145.1160  135.5373  153.2487 H   0  0  0  0  0  0  0  0  0  0  0  0
  147.1736  135.3717  154.6326 H   0  0  0  0  0  0  0  0  0  0  0  0
  146.4033  133.8055  154.4694 H   0  0  0  0  0  0  0  0  0  0  0  0
  148.6709  132.7577  154.9743 H   0  0  0  0  0  0  0  0  0  0  0  0
  150.0366  133.1675  153.9665 H   0  0  0  0  0  0  0  0  0  0  0  0
  148.6499  134.8811  156.1008 H   0  0  0  0  0  0  0  0  0  0  0  0
  150.3366  134.4282  156.0224 H   0  0  0  0  0  0  0  0  0  0  0  0
  149.1939  136.1451  153.8858 H   0  0  0  0  0  0  0  0  0  0  0  0
  151.7928  138.1681  153.7987 H   0  0  0  0  0  0  0  0  0  0  0  0
  150.1349  137.9689  153.3311 H   0  0  0  0  0  0  0  0  0  0  0  0
  148.7825  139.6153  153.6322 H   0  0  0  0  0  0  0  0  0  0  0  0
  148.0469  141.7407  154.6826 H   0  0  0  0  0  0  0  0  0  0  0  0
  149.4072  142.6444  156.6212 H   0  0  0  0  0  0  0  0  0  0  0  0
  151.3536  141.4491  157.4022 H   0  0  0  0  0  0  0  0  0  0  0  0
  148.8376  132.5831  151.9227 H   0  0  0  0  0  0  0  0  0  0  0  0
  147.4101  132.1232  152.8246 H   0  0  0  0  0  0  0  0  0  0  0  0
  146.8276  132.7204  150.4876 H   0  0  0  0  0  0  0  0  0  0  0  0
  147.5936  134.2813  150.6579 H   0  0  0  0  0  0  0  0  0  0  0  0
  148.6483  134.7802  152.8740 H   0  0  0  0  0  0  0  0  0  0  0  0
  1  2  1  0  0  0  0
  1 21  1  0  0  0  0
  1 22  1  0  0  0  0
  1 23  1  0  0  0  0
  2 20  1  0  0  0  0
  2  3  1  0  0  0  0
  2 24  1  0  0  0  0
  3  4  1  0  0  0  0
  3 25  1  0  0  0  0
  3 26  1  0  0  0  0
  4  5  1  0  0  0  0
  4 27  1  0  0  0  0
  4 28  1  0  0  0  0
  5  6  1  0  0  0  0
  5 19  1  0  0  0  0
  5 44  1  0  0  0  0
  6  7  1  0  0  0  0
  6 29  1  0  0  0  0
  6 30  1  0  0  0  0
  7  8  1  0  0  0  0
  7 31  1  0  0  0  0
  7 32  1  0  0  0  0
  8  9  1  0  0  0  0
  8 33  1  0  0  0  0
  9 10  2  0  0  0  0
  9 11  1  0  0  0  0
 11 12  1  0  0  0  0
 11 34  1  0  0  0  0
 11 35  1  0  0  0  0
 12 17  1  0  0  0  0
 12 13  1  0  0  0  0
 13 14  2  0  0  0  0
 13 36  1  0  0  0  0
 14 15  1  0  0  0  0
 14 37  1  0  0  0  0
 15 16  2  0  0  0  0
 15 38  1  0  0  0  0
 16 17  1  0  0  0  0
 16 39  1  0  0  0  0
 17 18  2  0  0  0  0
 19 20  1  0  0  0  0
 19 40  1  0  0  0  0
 19 41  1  0  0  0  0
 20 42  1  0  0  0  0
 20 43  1  0  0  0  0
M  CHG  1   5   1
M  END
> <s_m_source_file>
AV-unprocessed.smi

> <i_m_source_file_index>
1902

> <i_lp_mmshare_version>
43012

> <i_f3d_flags>
0

> <s_epik_input>
W0NIM11bQ0hdMVtDSDJdW0NIMl1OKFtDSDJdW0NIMl0xKVtDSDJdW0NIMl1bTkhdQyg9TylbQ0gyXW4yW2NIXVtjSF1bY0hdW2NIXWMyPU8=

> <s_epik_cmdline>
J2VwaWtfcHl0aG9uJywgJy1waCcsICc3LjAnLCAnLXRuJywgJzgnLCAnLW1hJywgJzIwMCcsICctbWV0YWxfYmluZGluZycsICctaW1hZScsICc8aW5maWxlLm1hZT4nLCAnLW9tYWUnLCAnPG91dGZpbGUubWFlPic=

> <r_lp_tautomer_probability>
1

> <r_epik_Ionization_Penalty>
0.00156146

> <r_epik_Ionization_Penalty_Charging>
0.00156137

> <r_epik_Ionization_Penalty_Neutral>
8.12891e-08

> <r_epik_State_Penalty>
0.00104868

> <r_epik_Charging_Adjusted_Penalty>
0.00261006

> <i_epik_Tot_Q>
1

> <i_epik_Tot_abs_Q>
1

> <r_epik_Metal_State_Penalty>
-0

> <b_epik_Metal_Only>
0

> <s_lp_Force_Field>
OPLS_2005

> <r_lp_Energy>
24.6388

> <b_lp_Chiralities_Consistent>
1

> <s_lp_Variant>
AV-unprocessed.smi:1902-1

> <Gold.Version>
5.8.1

> <Gold.Id.Protein>
6NUR|6NUR_protein|mol2

> <Gold.PLP.Fitness>
57.6169

> <Gold.PLP.PLP>
-40.5606

> <Gold.PLP.part.hbond>
-4.0000

> <Gold.PLP.part.metal>
0.0000

> <Gold.PLP.part.buried>
-2.0878

> <Gold.PLP.part.nonpolar>
-34.4158

> <Gold.PLP.part.repulsive>
0.0838

> <Gold.PLP.ligand.clash>
0.0000

> <Gold.PLP.ligand.torsion>
0.2736

> <Gold.PLP.Chemscore.Hbond>
5.0000

> <Gold.PLP.Chemscore.CHOScore>
0.8309

> <Gold.PLP.Chemscore.Metal>
0.0000

> <Gold.Chemscore.Hbonds>
donor molecule, donor type, donor heavy atom, donor atom, acceptor molecule, acceptor atom, score
      L1  H     5    44       P1  7948  1.90
      L1  H     8    33       P1  7948  1.00
      P1  H  7997  8010       L1    18  0.19
      P1  H 10752 10764       L1    10  0.03
      L1  C    13    36       P1  7957  0.58

> <Gold.PLP.Chemscore.Internal.Correction>
0.1108

> <Gold.Rescore>
     Score         DG    S(hbond)    S(metal)    S(lipo)     H(rot)  DE(clash)    DE(int)     intcor
     19.73     -20.70       3.59        0.00      68.22       1.86       0.19       0.78       ----

> <Gold.Chemscore.Fitness>
19.7348

> <Gold.Chemscore.DG>
-20.7031

> <Gold.Chemscore.ZeroCoef>
-5.4800

> <Gold.Chemscore.Hbond>
3.5928

> <Gold.Chemscore.Metal>
0.0000

> <Gold.Chemscore.Lipo>
68.2151

> <Gold.Chemscore.Internal_Hbond>
0.0000

> <Gold.Chemscore.DEClash>
0.1919

> <Gold.Chemscore.DEInternal>
0.7765

> <Gold.Chemscore.Rot>
1.8586

> <Gold.Chemscore.Internal.Correction>
   9.000000E+99

> <Gold.Chemscore.Hbonds>
donor molecule, donor type, donor heavy atom, donor atom, acceptor molecule, acceptor atom, score
      L1  H     5    44       P1  7948  0.22
      L1  H     8    33       P1  7948  0.82
      P1  H  7997  8010       L1    18  0.21
      P1  H 10752 10764       L1    10  0.01

> <Gold.Chemscore.Hbond.Weighted>
-12.0001

> <Gold.Chemscore.Metal.Weighted>
-0.0000

> <Gold.Chemscore.Lipo.Weighted>
-7.9812

> <Gold.Chemscore.Internal_Hbond.Weighted>
0.0000

> <Gold.Chemscore.DEClash.Weighted>
0.1919

> <Gold.Chemscore.DEInternal.Weighted>
0.7765

> <Gold.Chemscore.Rot.Weighted>
4.7581

> <Gold.Chemscore.Internal.Correction.Weighted>
   9.000000E+99

> <Gold.Protein.RotatedTorsions>
[ 6907 6896 6895 6894 ] final  174.05 input  -60.11 | X-H torsion
[ 7974 7965 7964 7962 ] final  -82.61 input  175.53 | X-H torsion
[ 8008 7997 7996 7995 ] final   85.39 input   59.86 | X-H torsion
[ 10167 10162 10161 10158 ] final    0.71 input  -65.29 | X-H torsion
[ 10718 10713 10712 10709 ] final  -10.47 input   66.30 | X-H torsion
[ 10763 10752 10751 10750 ] final  -32.21 input  -60.55 | X-H torsion
[ 11005 11000 10999 10996 ] final   13.95 input  -57.11 | X-H torsion

> <Gold.Protein.ActiveResidues>
 VAL166  LYS551  ARG553  GLY616  TRP617  ASP618  TYR619  PRO620  LYS621  CYS622 
 ASP623  PHE694  ASN695  SER759  ASP760  ASP761  ALA762  ILE779  LEU786  VAL792 
 PHE793  MET794  SER795  GLU796  ALA797  LYS798  CYS799  TRP800  GLU811  SER814 

> <Gold.Protein.RotatedAtoms>
  151.7585  133.3332  159.3410 H   0  0  0  0  0  0  0  0  0  0  0  0  # atno 6907 bound_to 6896
  150.7507  134.6128  159.6104 H   0  0  0  0  0  0  0  0  0  0  0  0  # atno 6908 bound_to 6896
  152.3421  134.7122  160.0312 H   0  0  0  0  0  0  0  0  0  0  0  0  # atno 6909 bound_to 6896
  145.5310  140.9521  143.1603 H   0  0  0  0  0  0  0  0  0  0  0  0  # atno 7974 bound_to 7965
  155.9493  140.3402  155.6394 H   0  0  0  0  0  0  0  0  0  0  0  0  # atno 8008 bound_to 7997
  155.6940  140.0752  157.2455 H   0  0  0  0  0  0  0  0  0  0  0  0  # atno 8009 bound_to 7997
  154.4118  140.1652  156.2105 H   0  0  0  0  0  0  0  0  0  0  0  0  # atno 8010 bound_to 7997
  140.6716  143.7032  150.7935 H   0  0  0  0  0  0  0  0  0  0  0  0  # atno 10167 bound_to 10162
  156.6731  130.5015  149.5994 H   0  0  0  0  0  0  0  0  0  0  0  0  # atno 10718 bound_to 10713
  153.8101  135.6883  153.4842 H   0  0  0  0  0  0  0  0  0  0  0  0  # atno 10763 bound_to 10752
  153.1634  135.4571  154.9801 H   0  0  0  0  0  0  0  0  0  0  0  0  # atno 10764 bound_to 10752
  154.7971  135.3323  154.7582 H   0  0  0  0  0  0  0  0  0  0  0  0  # atno 10765 bound_to 10752
  140.4750  134.0993  155.7740 H   0  0  0  0  0  0  0  0  0  0  0  0  # atno 11005 bound_to 11000
  144.7626  139.6921  143.7228 LP  0  0  0  0  0  0  0  0  0  0  0  0  # atno 17320 bound_to 7965
  146.2044  139.5358  142.9722 LP  0  0  0  0  0  0  0  0  0  0  0  0  # atno 17321 bound_to 7965
  140.0718  143.5053  152.2576 LP  0  0  0  0  0  0  0  0  0  0  0  0  # atno 17342 bound_to 10162
  139.5987  144.7576  151.3223 LP  0  0  0  0  0  0  0  0  0  0  0  0  # atno 17343 bound_to 10162
  156.1924  130.6568  151.1076 LP  0  0  0  0  0  0  0  0  0  0  0  0  # atno 17370 bound_to 10713
  157.7070  131.0752  150.6632 LP  0  0  0  0  0  0  0  0  0  0  0  0  # atno 17371 bound_to 10713
  141.1559  133.8884  157.1979 LP  0  0  0  0  0  0  0  0  0  0  0  0  # atno 17394 bound_to 11000
  139.9861  135.0081  156.9867 LP  0  0  0  0  0  0  0  0  0  0  0  0  # atno 17395 bound_to 11000

$$$$
