AV-unprocessed.smi:2591|AV-procd|sdf|10153|dock8
  -GOLD-   2272014163D 1   1.00000     0.00000
 Structure written by MMmdl.
 35 36  0  0  0  0  0  0  0  0  2 V2000
  146.9040  138.3084  153.1329 C   0  0  0  0  0  0  0  0  0  0  0  0
  147.6271  139.5858  153.3090 N   0  3  1  0  0  0  0  0  0  0  0  0
  146.7266  140.7072  153.6579 C   0  0  0  0  0  0  0  0  0  0  0  0
  147.5280  142.0118  153.7854 C   0  0  0  0  0  0  0  0  0  0  0  0
  148.5506  141.8460  154.7596 O   0  0  0  0  0  0  0  0  0  0  0  0
  149.4882  140.8301  154.4034 C   0  0  1  0  0  0  0  0  0  0  0  0
  150.6046  140.7903  155.4591 C   0  0  0  0  0  0  0  0  0  0  0  0
  151.5962  140.0844  155.2722 O   0  0  0  0  0  0  0  0  0  0  0  0
  150.4241  141.5726  156.5413 N   0  0  0  0  0  0  0  0  0  0  0  0
  151.2757  141.7323  157.6664 C   0  0  0  0  0  0  0  0  0  0  0  0
  151.0544  142.9048  158.4222 C   0  0  0  0  0  0  0  0  0  0  0  0
  151.8431  143.1616  159.5636 C   0  0  0  0  0  0  0  0  0  0  0  0
  151.6132  144.4224  160.3824 C   0  0  0  0  0  0  0  0  0  0  0  0
  152.2633  144.3812  161.5459 F   0  0  0  0  0  0  0  0  0  0  0  0
  152.0388  145.4801  159.6928 F   0  0  0  0  0  0  0  0  0  0  0  0
  150.3118  144.5670  160.6312 F   0  0  0  0  0  0  0  0  0  0  0  0
  152.8419  142.2283  159.9096 C   0  0  0  0  0  0  0  0  0  0  0  0
  152.9961  141.0864  159.1028 C   0  0  0  0  0  0  0  0  0  0  0  0
  152.2376  140.8426  158.0142 N   0  0  0  0  0  0  0  0  0  0  0  0
  148.7427  139.4803  154.2774 C   0  0  0  0  0  0  0  0  0  0  0  0
  146.4272  137.9961  154.0629 H   0  0  0  0  0  0  0  0  0  0  0  0
  147.5881  137.5202  152.8174 H   0  0  0  0  0  0  0  0  0  0  0  0
  146.1325  138.4059  152.3685 H   0  0  0  0  0  0  0  0  0  0  0  0
  145.9585  140.8165  152.8915 H   0  0  0  0  0  0  0  0  0  0  0  0
  146.2155  140.4897  154.5973 H   0  0  0  0  0  0  0  0  0  0  0  0
  147.9632  142.2999  152.8272 H   0  0  0  0  0  0  0  0  0  0  0  0
  146.8732  142.8260  154.0960 H   0  0  0  0  0  0  0  0  0  0  0  0
  149.9504  141.0881  153.4488 H   0  0  0  0  0  0  0  0  0  0  0  0
  149.5677  142.1064  156.5660 H   0  0  0  0  0  0  0  0  0  0  0  0
  150.2855  143.6068  158.1327 H   0  0  0  0  0  0  0  0  0  0  0  0
  153.4782  142.3754  160.7696 H   0  0  0  0  0  0  0  0  0  0  0  0
  153.7497  140.3491  159.3368 H   0  0  0  0  0  0  0  0  0  0  0  0
  148.3510  139.1708  155.2483 H   0  0  0  0  0  0  0  0  0  0  0  0
  149.4275  138.6990  153.9435 H   0  0  0  0  0  0  0  0  0  0  0  0
  148.0394  139.8108  152.4146 H   0  0  0  0  0  0  0  0  0  0  0  0
  1  2  1  0  0  0  0
  1 21  1  0  0  0  0
  1 22  1  0  0  0  0
  1 23  1  0  0  0  0
  2 20  1  0  0  0  0
  2  3  1  0  0  0  0
  2 35  1  0  0  0  0
  3  4  1  0  0  0  0
  3 24  1  0  0  0  0
  3 25  1  0  0  0  0
  4  5  1  0  0  0  0
  4 26  1  0  0  0  0
  4 27  1  0  0  0  0
  5  6  1  0  0  0  0
  6  7  1  0  0  0  0
  6 20  1  0  0  0  0
  6 28  1  0  0  0  0
  7  8  2  0  0  0  0
  7  9  1  0  0  0  0
  9 10  1  0  0  0  0
  9 29  1  0  0  0  0
 10 19  1  0  0  0  0
 10 11  2  0  0  0  0
 11 12  1  0  0  0  0
 11 30  1  0  0  0  0
 12 13  1  0  0  0  0
 12 17  2  0  0  0  0
 13 14  1  0  0  0  0
 13 15  1  0  0  0  0
 13 16  1  0  0  0  0
 17 18  1  0  0  0  0
 17 31  1  0  0  0  0
 18 19  2  0  0  0  0
 18 32  1  0  0  0  0
 20 33  1  0  0  0  0
 20 34  1  0  0  0  0
M  CHG  1   2   1
M  END
> <s_m_source_file>
AV-unprocessed.smi

> <i_m_source_file_index>
2591

> <i_lp_mmshare_version>
43012

> <i_f3d_flags>
0

> <s_epik_input>
W0NIM11OMVtDSDJdW0NIMl1PW0NASF0oW0NIMl0xKUMoPU8pW05IXWMyW2NIXWMoQyhGKShGKUYpW2NIXVtjSF1uMg==

> <s_epik_cmdline>
J2VwaWtfcHl0aG9uJywgJy1waCcsICc3LjAnLCAnLXRuJywgJzgnLCAnLW1hJywgJzIwMCcsICctbWV0YWxfYmluZGluZycsICctaW1hZScsICc8aW5maWxlLm1hZT4nLCAnLW9tYWUnLCAnPG91dGZpbGUubWFlPic=

> <r_epik_Ionization_Penalty>
0.314028

> <r_epik_Ionization_Penalty_Charging>
0.314023

> <r_epik_Ionization_Penalty_Neutral>
5.2303e-06

> <r_epik_State_Penalty>
0.308208

> <r_epik_Charging_Adjusted_Penalty>
0.62223

> <i_epik_Tot_Q>
1

> <i_epik_Tot_abs_Q>
1

> <r_epik_Metal_State_Penalty>
0.308209

> <b_epik_Metal_Only>
0

> <s_lp_Force_Field>
OPLS_2005

> <r_lp_Energy>
17.8582

> <b_lp_Chiralities_Consistent>
1

> <s_lp_Variant>
AV-unprocessed.smi:2591-1

> <Gold.Version>
5.8.1

> <Gold.Id.Protein>
6NUR|6NUR_protein|mol2

> <Gold.PLP.Fitness>
43.4001

> <Gold.PLP.PLP>
-40.4746

> <Gold.PLP.part.hbond>
-2.0000

> <Gold.PLP.part.metal>
0.0000

> <Gold.PLP.part.buried>
-3.2211

> <Gold.PLP.part.nonpolar>
-36.7955

> <Gold.PLP.part.repulsive>
0.9193

> <Gold.PLP.ligand.clash>
0.0000

> <Gold.PLP.ligand.torsion>
0.5598

> <Gold.PLP.Chemscore.Hbond>
1.3472

> <Gold.PLP.Chemscore.CHOScore>
0.0000

> <Gold.PLP.Chemscore.Metal>
0.0000

> <Gold.Chemscore.Hbonds>
donor molecule, donor type, donor heavy atom, donor atom, acceptor molecule, acceptor atom, score
      L1  H     2    35       P1  7957  1.00
      P1  H  7989  7998       L1     8  0.30

> <Gold.PLP.Chemscore.Internal.Correction>
0.0034

> <Gold.Rescore>
     Score         DG    S(hbond)    S(metal)    S(lipo)     H(rot)  DE(clash)    DE(int)     intcor
     13.56     -15.67       0.94        0.00      82.12       1.00       0.54       1.57       ----

> <Gold.Chemscore.Fitness>
13.5584

> <Gold.Chemscore.DG>
-15.6697

> <Gold.Chemscore.ZeroCoef>
-5.4800

> <Gold.Chemscore.Hbond>
0.9407

> <Gold.Chemscore.Metal>
0.0000

> <Gold.Chemscore.Lipo>
82.1191

> <Gold.Chemscore.Internal_Hbond>
0.0000

> <Gold.Chemscore.DEClash>
0.5434

> <Gold.Chemscore.DEInternal>
1.5679

> <Gold.Chemscore.Rot>
1.0000

> <Gold.Chemscore.Internal.Correction>
   9.000000E+99

> <Gold.Chemscore.Hbonds>
donor molecule, donor type, donor heavy atom, donor atom, acceptor molecule, acceptor atom, score
      L1  H     2    35       P1  7957  0.93

> <Gold.Chemscore.Hbond.Weighted>
-3.1418

> <Gold.Chemscore.Metal.Weighted>
-0.0000

> <Gold.Chemscore.Lipo.Weighted>
-9.6079

> <Gold.Chemscore.Internal_Hbond.Weighted>
0.0000

> <Gold.Chemscore.DEClash.Weighted>
0.5434

> <Gold.Chemscore.DEInternal.Weighted>
1.5679

> <Gold.Chemscore.Rot.Weighted>
2.5600

> <Gold.Chemscore.Internal.Correction.Weighted>
   9.000000E+99

> <Gold.Protein.RotatedTorsions>
[ 6907 6896 6895 6894 ] final   -1.44 input  -60.11 | X-H torsion
[ 7974 7965 7964 7962 ] final   66.82 input  175.53 | X-H torsion
[ 8008 7997 7996 7995 ] final   11.81 input   59.86 | X-H torsion
[ 10167 10162 10161 10158 ] final -116.37 input  -65.29 | X-H torsion
[ 10718 10713 10712 10709 ] final  -42.88 input   66.30 | X-H torsion
[ 10763 10752 10751 10750 ] final   10.09 input  -60.55 | X-H torsion
[ 11005 11000 10999 10996 ] final  -68.50 input  -57.11 | X-H torsion

> <Gold.Protein.ActiveResidues>
 VAL166  LYS551  ARG553  GLY616  TRP617  ASP618  TYR619  PRO620  LYS621  CYS622 
 ASP623  PHE694  ASN695  SER759  ASP760  ASP761  ALA762  ILE779  LEU786  VAL792 
 PHE793  MET794  SER795  GLU796  ALA797  LYS798  CYS799  TRP800  GLU811  SER814 

> <Gold.Protein.RotatedAtoms>
  151.5460  135.1068  159.9937 H   0  0  0  0  0  0  0  0  0  0  0  0  # atno 6907 bound_to 6896
  152.4513  133.7631  159.6768 H   0  0  0  0  0  0  0  0  0  0  0  0  # atno 6908 bound_to 6896
  150.8443  133.7820  159.3073 H   0  0  0  0  0  0  0  0  0  0  0  0  # atno 6909 bound_to 6896
  145.8220  139.3090  143.1037 H   0  0  0  0  0  0  0  0  0  0  0  0  # atno 7974 bound_to 7965
  154.8121  140.2870  155.5846 H   0  0  0  0  0  0  0  0  0  0  0  0  # atno 8008 bound_to 7997
  156.2989  140.2566  156.2941 H   0  0  0  0  0  0  0  0  0  0  0  0  # atno 8009 bound_to 7997
  154.9436  140.0381  157.2098 H   0  0  0  0  0  0  0  0  0  0  0  0  # atno 8010 bound_to 7997
  140.0799  143.4797  152.1932 H   0  0  0  0  0  0  0  0  0  0  0  0  # atno 10167 bound_to 10162
  156.2549  130.4191  149.8608 H   0  0  0  0  0  0  0  0  0  0  0  0  # atno 10718 bound_to 10713
  153.2069  135.6864  153.8161 H   0  0  0  0  0  0  0  0  0  0  0  0  # atno 10763 bound_to 10752
  153.7408  135.3238  155.3304 H   0  0  0  0  0  0  0  0  0  0  0  0  # atno 10764 bound_to 10752
  154.8202  135.4658  154.0860 H   0  0  0  0  0  0  0  0  0  0  0  0  # atno 10765 bound_to 10752
  141.1533  133.6742  156.6456 H   0  0  0  0  0  0  0  0  0  0  0  0  # atno 11005 bound_to 11000
  145.9664  140.8795  143.0184 LP  0  0  0  0  0  0  0  0  0  0  0  0  # atno 17320 bound_to 7965
  144.6747  140.1884  143.7399 LP  0  0  0  0  0  0  0  0  0  0  0  0  # atno 17321 bound_to 7965
  139.5786  144.7499  151.3700 LP  0  0  0  0  0  0  0  0  0  0  0  0  # atno 17342 bound_to 10162
  140.7083  143.7457  150.7521 LP  0  0  0  0  0  0  0  0  0  0  0  0  # atno 17343 bound_to 10162
  156.6143  130.8600  151.3461 LP  0  0  0  0  0  0  0  0  0  0  0  0  # atno 17370 bound_to 10713
  157.7229  130.9582  150.1511 LP  0  0  0  0  0  0  0  0  0  0  0  0  # atno 17371 bound_to 10713
  140.3360  134.7889  157.4362 LP  0  0  0  0  0  0  0  0  0  0  0  0  # atno 17394 bound_to 11000
  140.0977  134.5514  155.8382 LP  0  0  0  0  0  0  0  0  0  0  0  0  # atno 17395 bound_to 11000

$$$$
