AV-unprocessed.smi:3305|AV-procd|sdf|12699|dock2
  -GOLD-   2272019 33D 1   1.00000     0.00000
 Structure written by MMmdl.
 32 33  0  0  0  0  0  0  0  0  1 V2000
  153.0819  142.3512  162.0307 C   0  0  0  0  0  0  0  0  0  0  0  0
  152.5294  143.2255  160.9496 C   0  0  0  0  0  0  0  0  0  0  0  0
  152.0840  144.5180  161.0734 C   0  0  0  0  0  0  0  0  0  0  0  0
  151.4993  145.1521  159.5589 S   0  0  0  0  0  0  0  0  0  0  0  0
  151.9007  143.6178  158.7971 C   0  0  0  0  0  0  0  0  0  0  0  0
  151.6217  143.3152  157.3588 C   0  0  0  0  0  0  0  0  0  0  0  0
  150.8343  142.0067  157.1356 C   0  0  0  0  0  0  0  0  0  0  0  0
  149.9150  142.0816  156.0039 N   0  0  0  0  0  0  0  0  0  0  0  0
  149.8183  141.1692  155.0251 C   0  0  0  0  0  0  0  0  0  0  0  0
  150.5679  140.1964  154.9339 O   0  0  0  0  0  0  0  0  0  0  0  0
  148.6809  141.3792  154.0133 C   0  0  2  0  0  0  0  0  0  0  0  0
  147.5631  142.2549  154.5900 C   0  0  0  0  0  0  0  0  0  0  0  0
  146.3443  141.3326  154.6674 C   0  0  0  0  0  0  0  0  0  0  0  0
  146.8827  140.0225  154.6057 O   0  0  0  0  0  0  0  0  0  0  0  0
  147.9559  140.0682  153.6801 C   0  0  0  0  0  0  0  0  0  0  0  0
  152.4217  142.7293  159.6485 N   0  0  0  0  0  0  0  0  0  0  0  0
  153.1193  142.8730  162.9870 H   0  0  0  0  0  0  0  0  0  0  0  0
  154.0943  142.0239  161.7934 H   0  0  0  0  0  0  0  0  0  0  0  0
  152.4689  141.4597  162.1653 H   0  0  0  0  0  0  0  0  0  0  0  0
  152.0578  145.1313  161.9620 H   0  0  0  0  0  0  0  0  0  0  0  0
  151.0751  144.1528  156.9254 H   0  0  0  0  0  0  0  0  0  0  0  0
  152.5734  143.2677  156.8276 H   0  0  0  0  0  0  0  0  0  0  0  0
  151.5349  141.1981  156.9259 H   0  0  0  0  0  0  0  0  0  0  0  0
  150.2981  141.7230  158.0424 H   0  0  0  0  0  0  0  0  0  0  0  0
  149.2600  142.8500  156.0004 H   0  0  0  0  0  0  0  0  0  0  0  0
  149.0866  141.8192  153.1010 H   0  0  0  0  0  0  0  0  0  0  0  0
  147.8092  142.6373  155.5824 H   0  0  0  0  0  0  0  0  0  0  0  0
  147.3605  143.1197  153.9576 H   0  0  0  0  0  0  0  0  0  0  0  0
  145.7609  141.4823  155.5759 H   0  0  0  0  0  0  0  0  0  0  0  0
  145.6876  141.4909  153.8106 H   0  0  0  0  0  0  0  0  0  0  0  0
  147.5613  140.0945  152.6632 H   0  0  0  0  0  0  0  0  0  0  0  0
  148.5878  139.1833  153.7682 H   0  0  0  0  0  0  0  0  0  0  0  0
  1  2  1  0  0  0  0
  1 17  1  0  0  0  0
  1 18  1  0  0  0  0
  1 19  1  0  0  0  0
  2 16  1  0  0  0  0
  2  3  2  0  0  0  0
  3  4  1  0  0  0  0
  3 20  1  0  0  0  0
  4  5  1  0  0  0  0
  5  6  1  0  0  0  0
  5 16  2  0  0  0  0
  6  7  1  0  0  0  0
  6 21  1  0  0  0  0
  6 22  1  0  0  0  0
  7  8  1  0  0  0  0
  7 23  1  0  0  0  0
  7 24  1  0  0  0  0
  8  9  1  0  0  0  0
  8 25  1  0  0  0  0
  9 10  2  0  0  0  0
  9 11  1  0  0  0  0
 11 15  1  0  0  0  0
 11 12  1  0  0  0  0
 11 26  1  0  0  0  0
 12 13  1  0  0  0  0
 12 27  1  0  0  0  0
 12 28  1  0  0  0  0
 13 14  1  0  0  0  0
 13 29  1  0  0  0  0
 13 30  1  0  0  0  0
 14 15  1  0  0  0  0
 15 31  1  0  0  0  0
 15 32  1  0  0  0  0
M  END
> <s_m_source_file>
AV-unprocessed.smi

> <i_m_source_file_index>
3305

> <i_lp_mmshare_version>
43012

> <i_f3d_flags>
0

> <s_epik_input>
W0NIM11jMVtjSF1zYyhuMSlbQ0gyXVtDSDJdW05IXUMoPU8pW0NAQEhdMltDSDJdW0NIMl1PW0NIMl0y

> <s_epik_cmdline>
J2VwaWtfcHl0aG9uJywgJy1waCcsICc3LjAnLCAnLXRuJywgJzgnLCAnLW1hJywgJzIwMCcsICctbWV0YWxfYmluZGluZycsICctaW1hZScsICc8aW5maWxlLm1hZT4nLCAnLW9tYWUnLCAnPG91dGZpbGUubWFlPic=

> <r_epik_Ionization_Penalty>
0.00102754

> <r_epik_Ionization_Penalty_Charging>
0

> <r_epik_Ionization_Penalty_Neutral>
0.00102754

> <r_epik_State_Penalty>
0.000671034

> <r_epik_Charging_Adjusted_Penalty>
0.000671034

> <i_epik_Tot_Q>
0

> <i_epik_Tot_abs_Q>
0

> <r_epik_Metal_State_Penalty>
-0

> <b_epik_Metal_Only>
0

> <s_lp_Force_Field>
OPLS_2005

> <r_lp_Energy>
8.47785

> <b_lp_Chiralities_Consistent>
1

> <s_lp_Variant>
AV-unprocessed.smi:3305-1

> <Gold.Version>
5.8.1

> <Gold.Id.Protein>
6NUR|6NUR_protein|mol2

> <Gold.PLP.Fitness>
42.5982

> <Gold.PLP.PLP>
-38.7129

> <Gold.PLP.part.hbond>
-2.0000

> <Gold.PLP.part.metal>
0.0000

> <Gold.PLP.part.buried>
-2.6767

> <Gold.PLP.part.nonpolar>
-32.8026

> <Gold.PLP.part.repulsive>
0.2469

> <Gold.PLP.ligand.clash>
0.0130

> <Gold.PLP.ligand.torsion>
0.9224

> <Gold.PLP.Chemscore.Hbond>
1.8960

> <Gold.PLP.Chemscore.CHOScore>
0.0000

> <Gold.PLP.Chemscore.Metal>
0.0000

> <Gold.Chemscore.Hbonds>
donor molecule, donor type, donor heavy atom, donor atom, acceptor molecule, acceptor atom, score
      L1  H     8    25       P1  8028  0.99
      P1  H  7989  7998       L1    10  0.80

> <Gold.PLP.Chemscore.Internal.Correction>
0.0551

> <Gold.Rescore>
     Score         DG    S(hbond)    S(metal)    S(lipo)     H(rot)  DE(clash)    DE(int)     intcor
     15.70     -16.94       0.94        0.00     104.23       1.52       0.36       0.88       ----

> <Gold.Chemscore.Fitness>
15.7030

> <Gold.Chemscore.DG>
-16.9447

> <Gold.Chemscore.ZeroCoef>
-5.4800

> <Gold.Chemscore.Hbond>
0.9431

> <Gold.Chemscore.Metal>
0.0000

> <Gold.Chemscore.Lipo>
104.2333

> <Gold.Chemscore.Internal_Hbond>
0.0000

> <Gold.Chemscore.DEClash>
0.3608

> <Gold.Chemscore.DEInternal>
0.8809

> <Gold.Chemscore.Rot>
1.5159

> <Gold.Chemscore.Internal.Correction>
   9.000000E+99

> <Gold.Chemscore.Hbonds>
donor molecule, donor type, donor heavy atom, donor atom, acceptor molecule, acceptor atom, score
      L1  H     8    25       P1  8028  0.94
      P1  H  7989  7998       L1    10  0.12

> <Gold.Chemscore.Hbond.Weighted>
-3.1500

> <Gold.Chemscore.Metal.Weighted>
-0.0000

> <Gold.Chemscore.Lipo.Weighted>
-12.1953

> <Gold.Chemscore.Internal_Hbond.Weighted>
0.0000

> <Gold.Chemscore.DEClash.Weighted>
0.3608

> <Gold.Chemscore.DEInternal.Weighted>
0.8809

> <Gold.Chemscore.Rot.Weighted>
3.8807

> <Gold.Chemscore.Internal.Correction.Weighted>
   9.000000E+99

> <Gold.Protein.RotatedTorsions>
[ 6907 6896 6895 6894 ] final  -11.02 input  -60.11 | X-H torsion
[ 7974 7965 7964 7962 ] final  155.68 input  175.53 | X-H torsion
[ 8008 7997 7996 7995 ] final  -86.34 input   59.86 | X-H torsion
[ 10167 10162 10161 10158 ] final   14.27 input  -65.29 | X-H torsion
[ 10718 10713 10712 10709 ] final  -33.80 input   66.30 | X-H torsion
[ 10763 10752 10751 10750 ] final  151.31 input  -60.55 | X-H torsion
[ 11005 11000 10999 10996 ] final  145.49 input  -57.11 | X-H torsion

> <Gold.Protein.ActiveResidues>
 VAL166  LYS551  ARG553  GLY616  TRP617  ASP618  TYR619  PRO620  LYS621  CYS622 
 ASP623  PHE694  ASN695  SER759  ASP760  ASP761  ALA762  ILE779  LEU786  VAL792 
 PHE793  MET794  SER795  GLU796  ALA797  LYS798  CYS799  TRP800  GLU811  SER814 

> <Gold.Protein.RotatedAtoms>
  151.3928  135.0959  159.9531 H   0  0  0  0  0  0  0  0  0  0  0  0  # atno 6907 bound_to 6896
  152.5074  133.8963  159.7429 H   0  0  0  0  0  0  0  0  0  0  0  0  # atno 6908 bound_to 6896
  150.9420  133.6589  159.2817 H   0  0  0  0  0  0  0  0  0  0  0  0  # atno 6909 bound_to 6896
  144.8010  139.7101  143.6182 H   0  0  0  0  0  0  0  0  0  0  0  0  # atno 7974 bound_to 7965
  154.6508  140.0580  156.9953 H   0  0  0  0  0  0  0  0  0  0  0  0  # atno 8008 bound_to 7997
  155.1374  140.3262  155.4441 H   0  0  0  0  0  0  0  0  0  0  0  0  # atno 8009 bound_to 7997
  156.2575  140.1970  156.6491 H   0  0  0  0  0  0  0  0  0  0  0  0  # atno 8010 bound_to 7997
  140.5946  143.8726  150.6906 H   0  0  0  0  0  0  0  0  0  0  0  0  # atno 10167 bound_to 10162
  156.3583  130.4319  149.7646 H   0  0  0  0  0  0  0  0  0  0  0  0  # atno 10718 bound_to 10713
  154.1016  135.2845  155.3250 H   0  0  0  0  0  0  0  0  0  0  0  0  # atno 10763 bound_to 10752
  154.6551  135.5355  153.7952 H   0  0  0  0  0  0  0  0  0  0  0  0  # atno 10764 bound_to 10752
  153.0377  135.6520  154.1180 H   0  0  0  0  0  0  0  0  0  0  0  0  # atno 10765 bound_to 10752
  140.0716  134.9148  157.1354 H   0  0  0  0  0  0  0  0  0  0  0  0  # atno 11005 bound_to 11000
  146.2291  139.5779  142.9567 LP  0  0  0  0  0  0  0  0  0  0  0  0  # atno 17320 bound_to 7965
  145.5554  141.0409  143.2255 LP  0  0  0  0  0  0  0  0  0  0  0  0  # atno 17321 bound_to 7965
  140.2258  143.3774  152.1606 LP  0  0  0  0  0  0  0  0  0  0  0  0  # atno 17342 bound_to 10162
  139.5250  144.7090  151.5264 LP  0  0  0  0  0  0  0  0  0  0  0  0  # atno 17343 bound_to 10162
  156.4820  130.8045  151.3059 LP  0  0  0  0  0  0  0  0  0  0  0  0  # atno 17370 bound_to 10713
  157.7470  131.0003  150.2920 LP  0  0  0  0  0  0  0  0  0  0  0  0  # atno 17371 bound_to 10713
  140.3619  134.2485  155.7186 LP  0  0  0  0  0  0  0  0  0  0  0  0  # atno 17394 bound_to 11000
  141.2014  133.7964  157.0443 LP  0  0  0  0  0  0  0  0  0  0  0  0  # atno 17395 bound_to 11000

$$$$
