AV-unprocessed.smi:2160|AV-procd|sdf|8797|dock3
  -GOLD-   2272011583D 1   1.00000     0.00000
 Structure written by MMmdl.
 43 45  0  0  0  0  0  0  0  0  1 V2000
  145.1514  135.2948  150.3710 C   0  0  0  0  0  0  0  0  0  0  0  0
  145.1821  135.6236  151.7522 O   0  0  0  0  0  0  0  0  0  0  0  0
  145.7367  136.8311  152.1192 C   0  0  0  0  0  0  0  0  0  0  0  0
  146.3230  137.7476  151.2105 C   0  0  0  0  0  0  0  0  0  0  0  0
  146.8679  138.9614  151.6731 C   0  0  0  0  0  0  0  0  0  0  0  0
  146.8308  139.2831  153.0446 C   0  0  0  0  0  0  0  0  0  0  0  0
  147.4384  140.5843  153.5350 C   0  0  0  0  0  0  0  0  0  0  0  0
  148.3435  140.3804  154.6075 O   0  0  0  0  0  0  0  0  0  0  0  0
  149.2879  141.4290  154.7440 C   0  0  0  0  0  0  0  0  0  0  0  0
  150.5209  140.8907  155.4834 C   0  0  2  0  0  0  0  0  0  0  0  0
  151.0002  139.7513  154.7968 O   0  0  0  0  0  0  0  0  0  0  0  0
  150.2162  140.5263  156.9496 C   0  0  0  0  0  0  0  0  0  0  0  0
  151.4203  140.4232  157.7530 N   0  0  0  0  0  0  0  0  0  0  0  0
  152.3836  139.4856  157.6670 C   0  0  0  0  0  0  0  0  0  0  0  0
  153.4080  139.5855  158.5101 N   0  0  0  0  0  0  0  0  0  0  0  0
  153.0702  140.7211  159.2266 C   0  0  0  0  0  0  0  0  0  0  0  0
  153.7448  141.3755  160.2822 C   0  0  0  0  0  0  0  0  0  0  0  0
  153.1989  142.5370  160.8679 C   0  0  0  0  0  0  0  0  0  0  0  0
  151.9728  143.0611  160.4089 C   0  0  0  0  0  0  0  0  0  0  0  0
  151.2824  142.4266  159.3585 C   0  0  0  0  0  0  0  0  0  0  0  0
  151.8308  141.2684  158.7772 C   0  0  0  0  0  0  0  0  0  0  0  0
  146.2571  138.3706  153.9537 C   0  0  0  0  0  0  0  0  0  0  0  0
  145.7127  137.1575  153.4906 C   0  0  0  0  0  0  0  0  0  0  0  0
  144.6846  134.3182  150.2439 H   0  0  0  0  0  0  0  0  0  0  0  0
  146.1571  135.2356  149.9524 H   0  0  0  0  0  0  0  0  0  0  0  0
  144.5643  136.0166  149.8018 H   0  0  0  0  0  0  0  0  0  0  0  0
  146.3693  137.5422  150.1519 H   0  0  0  0  0  0  0  0  0  0  0  0
  147.3151  139.6465  150.9679 H   0  0  0  0  0  0  0  0  0  0  0  0
  147.9528  141.0581  152.6975 H   0  0  0  0  0  0  0  0  0  0  0  0
  146.6411  141.2581  153.8532 H   0  0  0  0  0  0  0  0  0  0  0  0
  149.5699  141.8222  153.7657 H   0  0  0  0  0  0  0  0  0  0  0  0
  148.8373  142.2459  155.3105 H   0  0  0  0  0  0  0  0  0  0  0  0
  151.3070  141.6464  155.4508 H   0  0  0  0  0  0  0  0  0  0  0  0
  150.2835  139.3664  154.3162 H   0  0  0  0  0  0  0  0  0  0  0  0
  149.5752  141.2840  157.4021 H   0  0  0  0  0  0  0  0  0  0  0  0
  149.6707  139.5832  157.0077 H   0  0  0  0  0  0  0  0  0  0  0  0
  152.3305  138.6855  156.9432 H   0  0  0  0  0  0  0  0  0  0  0  0
  154.6844  140.9835  160.6417 H   0  0  0  0  0  0  0  0  0  0  0  0
  153.7240  143.0284  161.6738 H   0  0  0  0  0  0  0  0  0  0  0  0
  151.5623  143.9511  160.8632 H   0  0  0  0  0  0  0  0  0  0  0  0
  150.3437  142.8243  159.0025 H   0  0  0  0  0  0  0  0  0  0  0  0
  146.2309  138.5949  155.0100 H   0  0  0  0  0  0  0  0  0  0  0  0
  145.2734  136.4682  154.1968 H   0  0  0  0  0  0  0  0  0  0  0  0
  1  2  1  0  0  0  0
  1 24  1  0  0  0  0
  1 25  1  0  0  0  0
  1 26  1  0  0  0  0
  2  3  1  0  0  0  0
  3 23  1  0  0  0  0
  3  4  2  0  0  0  0
  4  5  1  0  0  0  0
  4 27  1  0  0  0  0
  5  6  2  0  0  0  0
  5 28  1  0  0  0  0
  6  7  1  0  0  0  0
  6 22  1  0  0  0  0
  7  8  1  0  0  0  0
  7 29  1  0  0  0  0
  7 30  1  0  0  0  0
  8  9  1  0  0  0  0
  9 10  1  0  0  0  0
  9 31  1  0  0  0  0
  9 32  1  0  0  0  0
 10 11  1  0  0  0  0
 10 12  1  0  0  0  0
 10 33  1  0  0  0  0
 11 34  1  0  0  0  0
 12 13  1  0  0  0  0
 12 35  1  0  0  0  0
 12 36  1  0  0  0  0
 13 21  1  0  0  0  0
 13 14  1  0  0  0  0
 14 15  2  0  0  0  0
 14 37  1  0  0  0  0
 15 16  1  0  0  0  0
 16 21  2  0  0  0  0
 16 17  1  0  0  0  0
 17 18  2  0  0  0  0
 17 38  1  0  0  0  0
 18 19  1  0  0  0  0
 18 39  1  0  0  0  0
 19 20  2  0  0  0  0
 19 40  1  0  0  0  0
 20 21  1  0  0  0  0
 20 41  1  0  0  0  0
 22 23  2  0  0  0  0
 22 42  1  0  0  0  0
 23 43  1  0  0  0  0
M  END
> <s_m_source_file>
AV-unprocessed.smi

> <i_m_source_file_index>
2160

> <i_lp_mmshare_version>
43012

> <i_f3d_flags>
0

> <s_epik_input>
W0NIM11PYzFbY0hdW2NIXWMoW2NIXVtjSF0xKVtDSDJdT1tDSDJdW0NASF0oW09IXSlbQ0gyXW4oW2NIXW4yKWMoYzIzKVtjSF1bY0hdW2NIXVtjSF0z

> <s_epik_cmdline>
J2VwaWtfcHl0aG9uJywgJy1waCcsICc3LjAnLCAnLXRuJywgJzgnLCAnLW1hJywgJzIwMCcsICctbWV0YWxfYmluZGluZycsICctaW1hZScsICc8aW5maWxlLm1hZT4nLCAnLW9tYWUnLCAnPG91dGZpbGUubWFlPic=

> <r_lp_tautomer_probability>
1

> <r_epik_Ionization_Penalty>
0.0713119

> <r_epik_Ionization_Penalty_Charging>
0

> <r_epik_Ionization_Penalty_Neutral>
0.0713119

> <r_epik_State_Penalty>
0.06259

> <r_epik_Charging_Adjusted_Penalty>
0.06259

> <i_epik_Tot_Q>
0

> <i_epik_Tot_abs_Q>
0

> <r_epik_Metal_State_Penalty>
6.60119e-05

> <b_epik_Metal_Only>
0

> <s_lp_Force_Field>
OPLS_2005

> <r_lp_Energy>
16.653

> <b_lp_Chiralities_Consistent>
1

> <s_lp_Variant>
AV-unprocessed.smi:2160-1

> <Gold.Version>
5.8.1

> <Gold.Id.Protein>
6NUR|6NUR_protein|mol2

> <Gold.PLP.Fitness>
47.6183

> <Gold.PLP.PLP>
-44.8840

> <Gold.PLP.part.hbond>
-2.0000

> <Gold.PLP.part.metal>
0.0000

> <Gold.PLP.part.buried>
1.4541

> <Gold.PLP.part.nonpolar>
-43.8037

> <Gold.PLP.part.repulsive>
0.2512

> <Gold.PLP.ligand.clash>
0.0000

> <Gold.PLP.ligand.torsion>
0.5648

> <Gold.PLP.Chemscore.Hbond>
1.2500

> <Gold.PLP.Chemscore.CHOScore>
0.0000

> <Gold.PLP.Chemscore.Metal>
0.0000

> <Gold.Chemscore.Hbonds>
donor molecule, donor type, donor heavy atom, donor atom, acceptor molecule, acceptor atom, score
      P1  H  7989  7998       L1    11  0.43
      P1  H  7997  8009       L1    15  1.00

> <Gold.PLP.Chemscore.Internal.Correction>
0.1139

> <Gold.Rescore>
     Score         DG    S(hbond)    S(metal)    S(lipo)     H(rot)  DE(clash)    DE(int)     intcor
     12.85     -14.07       0.19        0.00     125.56       2.63       0.70       0.52       ----

> <Gold.Chemscore.Fitness>
12.8477

> <Gold.Chemscore.DG>
-14.0696

> <Gold.Chemscore.ZeroCoef>
-5.4800

> <Gold.Chemscore.Hbond>
0.1896

> <Gold.Chemscore.Metal>
0.0000

> <Gold.Chemscore.Lipo>
125.5640

> <Gold.Chemscore.Internal_Hbond>
0.0000

> <Gold.Chemscore.DEClash>
0.7002

> <Gold.Chemscore.DEInternal>
0.5217

> <Gold.Chemscore.Rot>
2.6308

> <Gold.Chemscore.Internal.Correction>
   9.000000E+99

> <Gold.Chemscore.Hbonds>
donor molecule, donor type, donor heavy atom, donor atom, acceptor molecule, acceptor atom, score
      P1  H  7997  8009       L1    15  0.19

> <Gold.Chemscore.Hbond.Weighted>
-0.6333

> <Gold.Chemscore.Metal.Weighted>
-0.0000

> <Gold.Chemscore.Lipo.Weighted>
-14.6910

> <Gold.Chemscore.Internal_Hbond.Weighted>
0.0000

> <Gold.Chemscore.DEClash.Weighted>
0.7002

> <Gold.Chemscore.DEInternal.Weighted>
0.5217

> <Gold.Chemscore.Rot.Weighted>
6.7347

> <Gold.Chemscore.Internal.Correction.Weighted>
   9.000000E+99

> <Gold.Protein.RotatedTorsions>
[ 6907 6896 6895 6894 ] final   51.09 input  -60.11 | X-H torsion
[ 7974 7965 7964 7962 ] final -165.52 input  175.53 | X-H torsion
[ 8008 7997 7996 7995 ] final  130.79 input   59.86 | X-H torsion
[ 10167 10162 10161 10158 ] final  120.62 input  -65.29 | X-H torsion
[ 10718 10713 10712 10709 ] final  156.38 input   66.30 | X-H torsion
[ 10763 10752 10751 10750 ] final  171.96 input  -60.55 | X-H torsion
[ 11005 11000 10999 10996 ] final   -3.69 input  -57.11 | X-H torsion

> <Gold.Protein.ActiveResidues>
 VAL166  LYS551  ARG553  GLY616  TRP617  ASP618  TYR619  PRO620  LYS621  CYS622 
 ASP623  PHE694  ASN695  SER759  ASP760  ASP761  ALA762  ILE779  LEU786  VAL792 
 PHE793  MET794  SER795  GLU796  ALA797  LYS798  CYS799  TRP800  GLU811  SER814 

> <Gold.Protein.RotatedAtoms>
  152.3089  134.7521  160.0340 H   0  0  0  0  0  0  0  0  0  0  0  0  # atno 6907 bound_to 6896
  151.8008  133.3364  159.3534 H   0  0  0  0  0  0  0  0  0  0  0  0  # atno 6908 bound_to 6896
  150.7310  134.5685  159.5923 H   0  0  0  0  0  0  0  0  0  0  0  0  # atno 6909 bound_to 6896
  144.7268  140.2802  143.6237 H   0  0  0  0  0  0  0  0  0  0  0  0  # atno 7974 bound_to 7965
  156.2960  140.2587  156.2820 H   0  0  0  0  0  0  0  0  0  0  0  0  # atno 8008 bound_to 7997
  154.9592  140.0393  157.2200 H   0  0  0  0  0  0  0  0  0  0  0  0  # atno 8009 bound_to 7997
  154.7962  140.2820  155.5959 H   0  0  0  0  0  0  0  0  0  0  0  0  # atno 8010 bound_to 7997
  139.5970  144.7045  151.3151 H   0  0  0  0  0  0  0  0  0  0  0  0  # atno 10167 bound_to 10162
  157.2057  131.0686  151.1999 H   0  0  0  0  0  0  0  0  0  0  0  0  # atno 10718 bound_to 10713
  154.4193  135.2757  155.1986 H   0  0  0  0  0  0  0  0  0  0  0  0  # atno 10763 bound_to 10752
  154.3939  135.6060  153.5862 H   0  0  0  0  0  0  0  0  0  0  0  0  # atno 10764 bound_to 10752
  152.9832  135.5910  154.4486 H   0  0  0  0  0  0  0  0  0  0  0  0  # atno 10765 bound_to 10752
  140.6721  133.9227  155.8501 H   0  0  0  0  0  0  0  0  0  0  0  0  # atno 11005 bound_to 11000
  145.7956  139.1944  143.2077 LP  0  0  0  0  0  0  0  0  0  0  0  0  # atno 17320 bound_to 7965
  146.0719  140.7859  142.9684 LP  0  0  0  0  0  0  0  0  0  0  0  0  # atno 17321 bound_to 7965
  140.7220  143.7109  150.7770 LP  0  0  0  0  0  0  0  0  0  0  0  0  # atno 17342 bound_to 10162
  140.0677  143.5091  152.2595 LP  0  0  0  0  0  0  0  0  0  0  0  0  # atno 17343 bound_to 10162
  157.3723  130.7187  149.6573 LP  0  0  0  0  0  0  0  0  0  0  0  0  # atno 17370 bound_to 10713
  155.9696  130.4195  150.4380 LP  0  0  0  0  0  0  0  0  0  0  0  0  # atno 17371 bound_to 10713
  141.0384  134.0656  157.3931 LP  0  0  0  0  0  0  0  0  0  0  0  0  # atno 17394 bound_to 11000
  139.8978  135.0152  156.7119 LP  0  0  0  0  0  0  0  0  0  0  0  0  # atno 17395 bound_to 11000

$$$$
