AV-unprocessed.smi:3283|AV-procd|sdf|12571|dock2
  -GOLD-   2272018493D 1   1.00000     0.00000
 Structure written by MMmdl.
 44 45  0  0  0  0  0  0  0  0  2 V2000
  147.1914  142.5938  154.2314 C   0  0  0  0  0  0  0  0  0  0  0  0
  147.6888  141.1753  154.4577 C   0  0  0  0  0  0  0  0  0  0  0  0
  147.0072  140.1201  153.9692 C   0  0  0  0  0  0  0  0  0  0  0  0
  147.4503  138.6724  154.0853 C   0  0  0  0  0  0  0  0  0  0  0  0
  148.6823  138.4881  154.9864 C   0  0  0  0  0  0  0  0  0  0  0  0
  149.6774  139.6509  154.8260 C   0  0  2  0  0  0  0  0  0  0  0  0
  151.0126  139.3712  155.5370 C   0  0  0  0  0  0  0  0  0  0  0  0
  149.0172  141.0060  155.2083 C   0  0  2  0  0  0  0  0  0  0  0  0
  148.8601  141.1890  156.7413 C   0  0  0  0  0  0  0  0  0  0  0  0
  148.5107  142.5706  157.1253 N   0  3  0  0  0  0  0  0  0  0  0  0
  149.1584  143.0367  158.3663 C   0  0  0  0  0  0  0  0  0  0  0  0
  150.6878  143.0081  158.2314 C   0  0  0  0  0  0  0  0  0  0  0  0
  151.4244  143.4346  159.4653 C   0  0  0  0  0  0  0  0  0  0  0  0
  151.4027  144.6152  160.1574 C   0  0  0  0  0  0  0  0  0  0  0  0
  152.3071  144.4066  161.2343 C   0  0  0  0  0  0  0  0  0  0  0  0
  152.8462  143.2010  161.2154 N   0  0  0  0  0  0  0  0  0  0  0  0
  152.3078  142.6019  160.1328 N   0  0  0  0  0  0  0  0  0  0  0  0
  152.7060  141.2397  159.8303 C   0  0  0  0  0  0  0  0  0  0  0  0
  147.9961  143.2269  153.8567 H   0  0  0  0  0  0  0  0  0  0  0  0
  146.7985  143.0325  155.1470 H   0  0  0  0  0  0  0  0  0  0  0  0
  146.3872  142.6130  153.4949 H   0  0  0  0  0  0  0  0  0  0  0  0
  146.0905  140.2840  153.4215 H   0  0  0  0  0  0  0  0  0  0  0  0
  146.6218  138.0656  154.4518 H   0  0  0  0  0  0  0  0  0  0  0  0
  147.6768  138.3196  153.0787 H   0  0  0  0  0  0  0  0  0  0  0  0
  148.3669  138.4130  156.0273 H   0  0  0  0  0  0  0  0  0  0  0  0
  149.1622  137.5376  154.7499 H   0  0  0  0  0  0  0  0  0  0  0  0
  149.9191  139.7123  153.7632 H   0  0  0  0  0  0  0  0  0  0  0  0
  150.8728  139.1412  156.5931 H   0  0  0  0  0  0  0  0  0  0  0  0
  151.6872  140.2242  155.4607 H   0  0  0  0  0  0  0  0  0  0  0  0
  151.5166  138.5152  155.0872 H   0  0  0  0  0  0  0  0  0  0  0  0
  149.6875  141.7883  154.8488 H   0  0  0  0  0  0  0  0  0  0  0  0
  148.0977  140.5122  157.1282 H   0  0  0  0  0  0  0  0  0  0  0  0
  149.7909  140.9459  157.2525 H   0  0  0  0  0  0  0  0  0  0  0  0
  148.7735  143.1906  156.3724 H   0  0  0  0  0  0  0  0  0  0  0  0
  148.8228  144.0511  158.5866 H   0  0  0  0  0  0  0  0  0  0  0  0
  148.8404  142.4006  159.1935 H   0  0  0  0  0  0  0  0  0  0  0  0
  151.0044  141.9996  157.9620 H   0  0  0  0  0  0  0  0  0  0  0  0
  150.9818  143.6529  157.4022 H   0  0  0  0  0  0  0  0  0  0  0  0
  150.8262  145.5004  159.9324 H   0  0  0  0  0  0  0  0  0  0  0  0
  152.5852  145.0897  162.0232 H   0  0  0  0  0  0  0  0  0  0  0  0
  152.2014  140.8737  158.9367 H   0  0  0  0  0  0  0  0  0  0  0  0
  152.4516  140.5883  160.6671 H   0  0  0  0  0  0  0  0  0  0  0  0
  153.7831  141.2005  159.6647 H   0  0  0  0  0  0  0  0  0  0  0  0
  147.5094  142.6195  157.2493 H   0  0  0  0  0  0  0  0  0  0  0  0
  1  2  1  0  0  0  0
  1 19  1  0  0  0  0
  1 20  1  0  0  0  0
  1 21  1  0  0  0  0
  2  8  1  0  0  0  0
  2  3  2  0  0  0  0
  3  4  1  0  0  0  0
  3 22  1  0  0  0  0
  4  5  1  0  0  0  0
  4 23  1  0  0  0  0
  4 24  1  0  0  0  0
  5  6  1  0  0  0  0
  5 25  1  0  0  0  0
  5 26  1  0  0  0  0
  6  7  1  0  0  0  0
  6  8  1  0  0  0  0
  6 27  1  0  0  0  0
  7 28  1  0  0  0  0
  7 29  1  0  0  0  0
  7 30  1  0  0  0  0
  8  9  1  0  0  0  0
  8 31  1  0  0  0  0
  9 10  1  0  0  0  0
  9 32  1  0  0  0  0
  9 33  1  0  0  0  0
 10 11  1  0  0  0  0
 10 34  1  0  0  0  0
 10 44  1  0  0  0  0
 11 12  1  0  0  0  0
 11 35  1  0  0  0  0
 11 36  1  0  0  0  0
 12 13  1  0  0  0  0
 12 37  1  0  0  0  0
 12 38  1  0  0  0  0
 13 17  1  0  0  0  0
 13 14  2  0  0  0  0
 14 15  1  0  0  0  0
 14 39  1  0  0  0  0
 15 16  2  0  0  0  0
 15 40  1  0  0  0  0
 16 17  1  0  0  0  0
 17 18  1  0  0  0  0
 18 41  1  0  0  0  0
 18 42  1  0  0  0  0
 18 43  1  0  0  0  0
M  CHG  1  10   1
M  END
> <s_m_source_file>
AV-unprocessed.smi

> <i_m_source_file_index>
3283

> <i_lp_mmshare_version>
43012

> <i_f3d_flags>
0

> <s_epik_input>
W0NIM11DMT1bQ0hdW0NIMl1bQ0gyXVtDQEBIXShbQ0gzXSlbQ0BIXTFbQ0gyXVtOSF1bQ0gyXVtDSDJdYzJbY0hdW2NIXW5uMltDSDNd

> <s_epik_cmdline>
J2VwaWtfcHl0aG9uJywgJy1waCcsICc3LjAnLCAnLXRuJywgJzgnLCAnLW1hJywgJzIwMCcsICctbWV0YWxfYmluZGluZycsICctaW1hZScsICc8aW5maWxlLm1hZT4nLCAnLW9tYWUnLCAnPG91dGZpbGUubWFlPic=

> <r_lp_tautomer_probability>
1

> <r_epik_Ionization_Penalty>
0.000866911

> <r_epik_Ionization_Penalty_Charging>
0.000836385

> <r_epik_Ionization_Penalty_Neutral>
3.05258e-05

> <r_epik_State_Penalty>
-0

> <r_epik_Charging_Adjusted_Penalty>
0.000836385

> <i_epik_Tot_Q>
1

> <i_epik_Tot_abs_Q>
1

> <r_epik_Metal_State_Penalty>
-0

> <b_epik_Metal_Only>
0

> <s_lp_Force_Field>
OPLS_2005

> <r_lp_Energy>
12.7435

> <b_lp_Chiralities_Consistent>
1

> <s_lp_Variant>
AV-unprocessed.smi:3283-4

> <Gold.Version>
5.8.1

> <Gold.Id.Protein>
6NUR|6NUR_protein|mol2

> <Gold.PLP.Fitness>
44.2867

> <Gold.PLP.PLP>
-38.8761

> <Gold.PLP.part.hbond>
-1.0000

> <Gold.PLP.part.metal>
0.0000

> <Gold.PLP.part.buried>
-0.8352

> <Gold.PLP.part.nonpolar>
-35.9163

> <Gold.PLP.part.repulsive>
0.0815

> <Gold.PLP.ligand.clash>
0.0000

> <Gold.PLP.ligand.torsion>
0.3126

> <Gold.PLP.Chemscore.Hbond>
2.0000

> <Gold.PLP.Chemscore.CHOScore>
0.0000

> <Gold.PLP.Chemscore.Metal>
0.0000

> <Gold.Chemscore.Hbonds>
donor molecule, donor type, donor heavy atom, donor atom, acceptor molecule, acceptor atom, score
      L1  H    10    34       P1  8028  2.00

> <Gold.PLP.Chemscore.Internal.Correction>
0.0358

> <Gold.Rescore>
     Score         DG    S(hbond)    S(metal)    S(lipo)     H(rot)  DE(clash)    DE(int)     intcor
     17.41     -17.92       0.96        0.00     111.33       1.48       0.19       0.32       ----

> <Gold.Chemscore.Fitness>
17.4057

> <Gold.Chemscore.DG>
-17.9181

> <Gold.Chemscore.ZeroCoef>
-5.4800

> <Gold.Chemscore.Hbond>
0.9620

> <Gold.Chemscore.Metal>
0.0000

> <Gold.Chemscore.Lipo>
111.3314

> <Gold.Chemscore.Internal_Hbond>
0.0000

> <Gold.Chemscore.DEClash>
0.1941

> <Gold.Chemscore.DEInternal>
0.3183

> <Gold.Chemscore.Rot>
1.4847

> <Gold.Chemscore.Internal.Correction>
   9.000000E+99

> <Gold.Chemscore.Hbonds>
donor molecule, donor type, donor heavy atom, donor atom, acceptor molecule, acceptor atom, score
      L1  H    10    34       P1  8028  0.92

> <Gold.Chemscore.Hbond.Weighted>
-3.2131

> <Gold.Chemscore.Metal.Weighted>
-0.0000

> <Gold.Chemscore.Lipo.Weighted>
-13.0258

> <Gold.Chemscore.Internal_Hbond.Weighted>
0.0000

> <Gold.Chemscore.DEClash.Weighted>
0.1941

> <Gold.Chemscore.DEInternal.Weighted>
0.3183

> <Gold.Chemscore.Rot.Weighted>
3.8008

> <Gold.Chemscore.Internal.Correction.Weighted>
   9.000000E+99

> <Gold.Protein.RotatedTorsions>
[ 6907 6896 6895 6894 ] final  -92.40 input  -60.11 | X-H torsion
[ 7974 7965 7964 7962 ] final   -4.30 input  175.53 | X-H torsion
[ 8008 7997 7996 7995 ] final  154.36 input   59.86 | X-H torsion
[ 10167 10162 10161 10158 ] final   20.49 input  -65.29 | X-H torsion
[ 10718 10713 10712 10709 ] final  -96.24 input   66.30 | X-H torsion
[ 10763 10752 10751 10750 ] final   -7.02 input  -60.55 | X-H torsion
[ 11005 11000 10999 10996 ] final  121.58 input  -57.11 | X-H torsion

> <Gold.Protein.ActiveResidues>
 VAL166  LYS551  ARG553  GLY616  TRP617  ASP618  TYR619  PRO620  LYS621  CYS622 
 ASP623  PHE694  ASN695  SER759  ASP760  ASP761  ALA762  ILE779  LEU786  VAL792 
 PHE793  MET794  SER795  GLU796  ALA797  LYS798  CYS799  TRP800  GLU811  SER814 

> <Gold.Protein.RotatedAtoms>
  150.6906  134.2128  159.4365 H   0  0  0  0  0  0  0  0  0  0  0  0  # atno 6907 bound_to 6896
  152.0088  134.9885  160.0577 H   0  0  0  0  0  0  0  0  0  0  0  0  # atno 6908 bound_to 6896
  152.1508  133.4486  159.4849 H   0  0  0  0  0  0  0  0  0  0  0  0  # atno 6909 bound_to 6896
  146.2374  140.1851  142.8332 H   0  0  0  0  0  0  0  0  0  0  0  0  # atno 7974 bound_to 7965
  156.2535  140.1968  156.6635 H   0  0  0  0  0  0  0  0  0  0  0  0  # atno 8008 bound_to 7997
  154.6447  140.0579  156.9912 H   0  0  0  0  0  0  0  0  0  0  0  0  # atno 8009 bound_to 7997
  155.1509  140.3251  155.4434 H   0  0  0  0  0  0  0  0  0  0  0  0  # atno 8010 bound_to 7997
  140.5499  143.9528  150.6571 H   0  0  0  0  0  0  0  0  0  0  0  0  # atno 10167 bound_to 10162
  156.0058  130.5143  150.6196 H   0  0  0  0  0  0  0  0  0  0  0  0  # atno 10718 bound_to 10713
  153.4205  135.7010  153.6297 H   0  0  0  0  0  0  0  0  0  0  0  0  # atno 10763 bound_to 10752
  153.4754  135.3705  155.2414 H   0  0  0  0  0  0  0  0  0  0  0  0  # atno 10764 bound_to 10752
  154.8722  135.4053  154.3572 H   0  0  0  0  0  0  0  0  0  0  0  0  # atno 10765 bound_to 10752
  139.9232  134.9639  156.7980 H   0  0  0  0  0  0  0  0  0  0  0  0  # atno 11005 bound_to 11000
  144.9903  140.8540  143.5343 LP  0  0  0  0  0  0  0  0  0  0  0  0  # atno 17320 bound_to 7965
  145.1856  139.2328  143.5269 LP  0  0  0  0  0  0  0  0  0  0  0  0  # atno 17321 bound_to 7965
  140.2951  143.3298  152.1026 LP  0  0  0  0  0  0  0  0  0  0  0  0  # atno 17342 bound_to 10162
  139.5023  144.6732  151.6193 LP  0  0  0  0  0  0  0  0  0  0  0  0  # atno 17343 bound_to 10162
  157.4014  131.0810  151.1305 LP  0  0  0  0  0  0  0  0  0  0  0  0  # atno 17370 bound_to 10713
  157.1965  130.6375  149.5723 LP  0  0  0  0  0  0  0  0  0  0  0  0  # atno 17371 bound_to 10713
  140.6413  133.9816  155.7709 LP  0  0  0  0  0  0  0  0  0  0  0  0  # atno 17394 bound_to 11000
  141.0769  134.0121  157.3444 LP  0  0  0  0  0  0  0  0  0  0  0  0  # atno 17395 bound_to 11000

$$$$
