AV-unprocessed.smi:40|AV-procd|sdf|372|dock6
  -GOLD-   2262016223D 1   1.00000     0.00000
 Structure written by MMmdl.
 47 48  0  0  0  0  0  0  0  0  1 V2000
  144.6722  132.5309  149.5153 C   0  0  0  0  0  0  0  0  0  0  0  0
  145.4399  133.8588  149.4807 C   0  0  0  0  0  0  0  0  0  0  0  0
  145.1378  134.7842  150.6710 C   0  0  0  0  0  0  0  0  0  0  0  0
  145.8357  136.1534  150.5851 C   0  0  0  0  0  0  0  0  0  0  0  0
  145.7141  136.9716  151.8775 C   0  0  0  0  0  0  0  0  0  0  0  0
  146.6781  138.0106  151.8602 O   0  0  0  0  0  0  0  0  0  0  0  0
  147.1660  138.5157  153.0065 C   0  0  0  0  0  0  0  0  0  0  0  0
  146.6448  138.3485  154.1088 O   0  0  0  0  0  0  0  0  0  0  0  0
  148.3615  139.3111  152.7741 N   0  0  0  0  0  0  0  0  0  0  0  0
  149.1360  139.9780  153.6662 C   0  0  0  0  0  0  0  0  0  0  0  0
  150.2995  139.5122  154.0954 N   0  0  0  0  0  0  0  0  0  0  0  0
  151.0978  140.1556  155.0019 C   0  0  0  0  0  0  0  0  0  0  0  0
  152.1675  139.6632  155.3568 O   0  0  0  0  0  0  0  0  0  0  0  0
  150.6313  141.3892  155.5120 N   0  0  0  0  0  0  0  0  0  0  0  0
  151.4737  142.1656  156.4993 C   0  0  1  0  0  0  0  0  0  0  0  0
  150.9244  143.4437  156.6184 O   0  0  0  0  0  0  0  0  0  0  0  0
  150.9929  143.8666  157.9735 C   0  0  2  0  0  0  0  0  0  0  0  0
  152.3401  144.5817  158.1971 C   0  0  0  0  0  0  0  0  0  0  0  0
  150.7975  142.5608  158.7568 C   0  0  2  0  0  0  0  0  0  0  0  0
  151.3291  142.6306  160.0650 O   0  0  0  0  0  0  0  0  0  0  0  0
  151.5203  141.5239  157.9062 C   0  0  1  0  0  0  0  0  0  0  0  0
  150.8858  140.2607  158.0019 O   0  0  0  0  0  0  0  0  0  0  0  0
  149.4065  141.8863  155.0945 C   0  0  0  0  0  0  0  0  0  0  0  0
  148.6404  141.2302  154.1970 C   0  0  0  0  0  0  0  0  0  0  0  0
  147.4550  141.7318  153.8091 F   0  0  0  0  0  0  0  0  0  0  0  0
  152.4681  142.2722  156.0644 H   0  0  0  0  0  0  0  0  0  0  0  0
  150.1815  144.5654  158.1797 H   0  0  0  0  0  0  0  0  0  0  0  0
  149.7310  142.3340  158.8061 H   0  0  0  0  0  0  0  0  0  0  0  0
  152.5680  141.4345  158.1976 H   0  0  0  0  0  0  0  0  0  0  0  0
  144.8722  131.9475  148.6164 H   0  0  0  0  0  0  0  0  0  0  0  0
  143.5963  132.6985  149.5693 H   0  0  0  0  0  0  0  0  0  0  0  0
  144.9626  131.9215  150.3710 H   0  0  0  0  0  0  0  0  0  0  0  0
  146.5115  133.6635  149.4274 H   0  0  0  0  0  0  0  0  0  0  0  0
  145.1832  134.3823  148.5591 H   0  0  0  0  0  0  0  0  0  0  0  0
  144.0587  134.9365  150.7142 H   0  0  0  0  0  0  0  0  0  0  0  0
  145.4099  134.2881  151.6034 H   0  0  0  0  0  0  0  0  0  0  0  0
  146.8935  136.0097  150.3656 H   0  0  0  0  0  0  0  0  0  0  0  0
  145.4236  136.7278  149.7544 H   0  0  0  0  0  0  0  0  0  0  0  0
  144.7122  137.3919  151.9744 H   0  0  0  0  0  0  0  0  0  0  0  0
  145.8857  136.3253  152.7394 H   0  0  0  0  0  0  0  0  0  0  0  0
  148.6653  139.3233  151.8114 H   0  0  0  0  0  0  0  0  0  0  0  0
  152.4258  144.9549  159.2179 H   0  0  0  0  0  0  0  0  0  0  0  0
  152.4364  145.4378  157.5291 H   0  0  0  0  0  0  0  0  0  0  0  0
  153.1880  143.9222  158.0119 H   0  0  0  0  0  0  0  0  0  0  0  0
  152.0863  142.0664  160.1086 H   0  0  0  0  0  0  0  0  0  0  0  0
  149.9587  140.3817  157.8615 H   0  0  0  0  0  0  0  0  0  0  0  0
  149.0445  142.8214  155.4970 H   0  0  0  0  0  0  0  0  0  0  0  0
  1  2  1  0  0  0  0
  1 30  1  0  0  0  0
  1 31  1  0  0  0  0
  1 32  1  0  0  0  0
  2  3  1  0  0  0  0
  2 33  1  0  0  0  0
  2 34  1  0  0  0  0
  3  4  1  0  0  0  0
  3 35  1  0  0  0  0
  3 36  1  0  0  0  0
  4  5  1  0  0  0  0
  4 37  1  0  0  0  0
  4 38  1  0  0  0  0
  5  6  1  0  0  0  0
  5 39  1  0  0  0  0
  5 40  1  0  0  0  0
  6  7  1  0  0  0  0
  7  8  2  0  0  0  0
  7  9  1  0  0  0  0
  9 10  1  0  0  0  0
  9 41  1  0  0  0  0
 10 24  1  0  0  0  0
 10 11  2  0  0  0  0
 11 12  1  0  0  0  0
 12 13  2  0  0  0  0
 12 14  1  0  0  0  0
 14 15  1  0  0  0  0
 14 23  1  0  0  0  0
 15 26  1  0  0  0  0
 15 21  1  0  0  0  0
 15 16  1  0  0  0  0
 16 17  1  0  0  0  0
 17 27  1  0  0  0  0
 17 18  1  0  0  0  0
 17 19  1  0  0  0  0
 18 42  1  0  0  0  0
 18 43  1  0  0  0  0
 18 44  1  0  0  0  0
 19 28  1  0  0  0  0
 19 20  1  0  0  0  0
 19 21  1  0  0  0  0
 20 45  1  0  0  0  0
 21 29  1  0  0  0  0
 21 22  1  0  0  0  0
 22 46  1  0  0  0  0
 23 24  2  0  0  0  0
 23 47  1  0  0  0  0
 24 25  1  0  0  0  0
M  END
> <s_m_source_file>
AV-unprocessed.smi

> <i_m_source_file_index>
40

> <i_lp_mmshare_version>
43012

> <i_f3d_flags>
0

> <s_epik_input>
W0NIM11bQ0gyXVtDSDJdW0NIMl1bQ0gyXU9DKD1PKVtOSF1jMW5jKD1PKW4oW2NIXWMxRilbQ0BASF0yT1tDQEhdKFtDSDNdKVtDQEBIXShbT0hdKVtDQEhdMltPSF0=

> <s_epik_cmdline>
J2VwaWtfcHl0aG9uJywgJy1waCcsICc3LjAnLCAnLXRuJywgJzgnLCAnLW1hJywgJzIwMCcsICctbWV0YWxfYmluZGluZycsICctaW1hZScsICc8aW5maWxlLm1hZT4nLCAnLW9tYWUnLCAnPG91dGZpbGUubWFlPic=

> <r_lp_tautomer_probability>
1

> <r_epik_Ionization_Penalty>
2.29506e-06

> <r_epik_Ionization_Penalty_Charging>
8.26867e-09

> <r_epik_Ionization_Penalty_Neutral>
2.2868e-06

> <r_epik_State_Penalty>
-0

> <r_epik_Charging_Adjusted_Penalty>
8.26867e-09

> <i_epik_Tot_Q>
0

> <i_epik_Tot_abs_Q>
0

> <r_epik_Metal_State_Penalty>
-0

> <b_epik_Metal_Only>
0

> <s_epik_Chemistry_Notes>
This compound has an ester and may undergo hydrolysis at high or low pH. This compound contains an acetal/aminal-like group ( X-CH(R)-Y where X, Y are N, S, or O) that may be acid/base labile, releasing an aldehyde.

> <s_lp_Force_Field>
OPLS_2005

> <r_lp_Energy>
39.9495

> <b_lp_Chiralities_Consistent>
1

> <s_lp_Variant>
AV-unprocessed.smi:40-6

> <Gold.Version>
5.8.1

> <Gold.Id.Protein>
6NUR|6NUR_protein|mol2

> <Gold.PLP.Fitness>
45.9435

> <Gold.PLP.PLP>
-43.8378

> <Gold.PLP.part.hbond>
-2.7101

> <Gold.PLP.part.metal>
0.0000

> <Gold.PLP.part.buried>
-4.0990

> <Gold.PLP.part.nonpolar>
-39.6784

> <Gold.PLP.part.repulsive>
3.4257

> <Gold.PLP.ligand.clash>
0.0000

> <Gold.PLP.ligand.torsion>
1.4160

> <Gold.PLP.Chemscore.Hbond>
0.5760

> <Gold.PLP.Chemscore.CHOScore>
1.0000

> <Gold.PLP.Chemscore.Metal>
0.0000

> <Gold.Chemscore.Hbonds>
donor molecule, donor type, donor heavy atom, donor atom, acceptor molecule, acceptor atom, score
      L1  H     9    41       P1  7957  0.34
      L1  C    23    47       P1  8028  0.69

> <Gold.PLP.Chemscore.Internal.Correction>
0.2096

> <Gold.Rescore>
     Score         DG    S(hbond)    S(metal)    S(lipo)     H(rot)  DE(clash)    DE(int)     intcor
      3.64      -9.47       0.91        0.00      88.88       3.70       3.29       2.53       ----

> <Gold.Chemscore.Fitness>
3.6431

> <Gold.Chemscore.DG>
-9.4695

> <Gold.Chemscore.ZeroCoef>
-5.4800

> <Gold.Chemscore.Hbond>
0.9136

> <Gold.Chemscore.Metal>
0.0000

> <Gold.Chemscore.Lipo>
88.8815

> <Gold.Chemscore.Internal_Hbond>
0.0000

> <Gold.Chemscore.DEClash>
3.2938

> <Gold.Chemscore.DEInternal>
2.5327

> <Gold.Chemscore.Rot>
3.6957

> <Gold.Chemscore.Internal.Correction>
   9.000000E+99

> <Gold.Chemscore.Hbonds>
donor molecule, donor type, donor heavy atom, donor atom, acceptor molecule, acceptor atom, score
      L1  H     9    41       P1  7957  0.35

> <Gold.Chemscore.Hbond.Weighted>
-3.0514

> <Gold.Chemscore.Metal.Weighted>
-0.0000

> <Gold.Chemscore.Lipo.Weighted>
-10.3991

> <Gold.Chemscore.Internal_Hbond.Weighted>
0.0000

> <Gold.Chemscore.DEClash.Weighted>
3.2938

> <Gold.Chemscore.DEInternal.Weighted>
2.5327

> <Gold.Chemscore.Rot.Weighted>
9.4610

> <Gold.Chemscore.Internal.Correction.Weighted>
   9.000000E+99

> <Gold.Protein.RotatedTorsions>
[ 6907 6896 6895 6894 ] final -144.13 input  -60.11 | X-H torsion
[ 7974 7965 7964 7962 ] final  -14.21 input  175.53 | X-H torsion
[ 8008 7997 7996 7995 ] final  139.95 input   59.86 | X-H torsion
[ 10167 10162 10161 10158 ] final   10.48 input  -65.29 | X-H torsion
[ 10718 10713 10712 10709 ] final  168.45 input   66.30 | X-H torsion
[ 10763 10752 10751 10750 ] final  -70.65 input  -60.55 | X-H torsion
[ 11005 11000 10999 10996 ] final   83.52 input  -57.11 | X-H torsion

> <Gold.Protein.ActiveResidues>
 VAL166  LYS551  ARG553  GLY616  TRP617  ASP618  TYR619  PRO620  LYS621  CYS622 
 ASP623  PHE694  ASN695  SER759  ASP760  ASP761  ALA762  ILE779  LEU786  VAL792 
 PHE793  MET794  SER795  GLU796  ALA797  LYS798  CYS799  TRP800  GLU811  SER814 

> <Gold.Protein.RotatedAtoms>
  151.1099  133.5181  159.2605 H   0  0  0  0  0  0  0  0  0  0  0  0  # atno 6907 bound_to 6896
  151.1979  135.0430  159.8870 H   0  0  0  0  0  0  0  0  0  0  0  0  # atno 6908 bound_to 6896
  152.5449  134.0931  159.8339 H   0  0  0  0  0  0  0  0  0  0  0  0  # atno 6909 bound_to 6896
  146.2083  140.3315  142.8399 H   0  0  0  0  0  0  0  0  0  0  0  0  # atno 7974 bound_to 7965
  156.2984  140.2354  156.4321 H   0  0  0  0  0  0  0  0  0  0  0  0  # atno 8008 bound_to 7997
  154.8261  140.0435  157.1465 H   0  0  0  0  0  0  0  0  0  0  0  0  # atno 8009 bound_to 7997
  154.9260  140.3010  155.5195 H   0  0  0  0  0  0  0  0  0  0  0  0  # atno 8010 bound_to 7997
  140.6191  143.8242  150.7154 H   0  0  0  0  0  0  0  0  0  0  0  0  # atno 10167 bound_to 10162
  157.0370  131.0275  151.2726 H   0  0  0  0  0  0  0  0  0  0  0  0  # atno 10718 bound_to 10713
  154.4207  135.5987  153.6008 H   0  0  0  0  0  0  0  0  0  0  0  0  # atno 10763 bound_to 10752
  152.9794  135.5951  154.3958 H   0  0  0  0  0  0  0  0  0  0  0  0  # atno 10764 bound_to 10752
  154.3783  135.2841  155.2204 H   0  0  0  0  0  0  0  0  0  0  0  0  # atno 10765 bound_to 10752
  139.9028  134.8150  156.2320 H   0  0  0  0  0  0  0  0  0  0  0  0  # atno 11005 bound_to 11000
  144.8849  140.7448  143.5963 LP  0  0  0  0  0  0  0  0  0  0  0  0  # atno 17320 bound_to 7965
  145.3236  139.1781  143.4574 LP  0  0  0  0  0  0  0  0  0  0  0  0  # atno 17321 bound_to 7965
  140.1829  143.4100  152.1920 LP  0  0  0  0  0  0  0  0  0  0  0  0  # atno 17342 bound_to 10162
  139.5424  144.7268  151.4692 LP  0  0  0  0  0  0  0  0  0  0  0  0  # atno 17343 bound_to 10162
  157.5134  130.7953  149.7729 LP  0  0  0  0  0  0  0  0  0  0  0  0  # atno 17370 bound_to 10713
  156.0050  130.3860  150.2463 LP  0  0  0  0  0  0  0  0  0  0  0  0  # atno 17371 bound_to 10713
  141.0339  133.6974  156.1478 LP  0  0  0  0  0  0  0  0  0  0  0  0  # atno 17394 bound_to 11000
  140.7055  134.4517  157.5584 LP  0  0  0  0  0  0  0  0  0  0  0  0  # atno 17395 bound_to 11000

$$$$
