AV-unprocessed.smi:3310|AV-procd|sdf|12718|dock3
  -GOLD-   2272019 53D 1   1.00000     0.00000
 Structure written by MMmdl.
 45 46  0  0  0  0  0  0  0  0  2 V2000
  153.7083  136.5253  163.7062 C   0  0  0  0  0  0  0  0  0  0  0  0
  154.9754  136.6772  164.5549 C   0  0  0  0  0  0  0  0  0  0  0  0
  155.4050  138.1044  164.6964 C   0  0  0  0  0  0  0  0  0  0  0  0
  155.7126  138.6660  165.8716 N   0  0  0  0  0  0  0  0  0  0  0  0
  156.0322  139.9780  165.5858 N   0  0  0  0  0  0  0  0  0  0  0  0
  155.8768  140.0810  164.2670 C   0  0  0  0  0  0  0  0  0  0  0  0
  155.4860  138.9547  163.6510 N   0  0  0  0  0  0  0  0  0  0  0  0
  155.2308  138.7470  162.2373 C   0  0  0  0  0  0  0  0  0  0  0  0
  155.7093  139.9397  161.3982 C   0  0  0  0  0  0  0  0  0  0  0  0
  154.8703  141.1293  161.6390 N   0  3  0  0  0  0  0  0  0  0  0  0
  153.6545  141.1847  160.8026 C   0  0  0  0  0  0  0  0  0  0  0  0
  153.3188  142.6266  160.3785 C   0  0  2  0  0  0  0  0  0  0  0  0
  152.2643  143.2421  161.3199 C   0  0  0  0  0  0  0  0  0  0  0  0
  151.8962  144.6791  160.9101 C   0  0  0  0  0  0  0  0  0  0  0  0
  151.4220  144.7721  159.4464 C   0  0  2  0  0  0  0  0  0  0  0  0
  150.0092  144.1967  159.2440 C   0  0  0  0  0  0  0  0  0  0  0  0
  152.4616  144.1344  158.5041 C   0  0  0  0  0  0  0  0  0  0  0  0
  152.8275  142.6978  158.9165 C   0  0  0  0  0  0  0  0  0  0  0  0
  153.4156  135.4782  163.6285 H   0  0  0  0  0  0  0  0  0  0  0  0
  153.8627  136.9047  162.6960 H   0  0  0  0  0  0  0  0  0  0  0  0
  152.8734  137.0724  164.1454 H   0  0  0  0  0  0  0  0  0  0  0  0
  154.7971  136.2692  165.5504 H   0  0  0  0  0  0  0  0  0  0  0  0
  155.7869  136.0881  164.1282 H   0  0  0  0  0  0  0  0  0  0  0  0
  156.0529  141.0051  163.7358 H   0  0  0  0  0  0  0  0  0  0  0  0
  155.7199  137.8261  161.9185 H   0  0  0  0  0  0  0  0  0  0  0  0
  154.1590  138.5952  162.1023 H   0  0  0  0  0  0  0  0  0  0  0  0
  156.7445  140.1781  161.6472 H   0  0  0  0  0  0  0  0  0  0  0  0
  155.6826  139.6896  160.3367 H   0  0  0  0  0  0  0  0  0  0  0  0
  154.5938  141.1417  162.6104 H   0  0  0  0  0  0  0  0  0  0  0  0
  153.7853  140.5548  159.9215 H   0  0  0  0  0  0  0  0  0  0  0  0
  152.8269  140.7631  161.3749 H   0  0  0  0  0  0  0  0  0  0  0  0
  154.2264  143.2263  160.4649 H   0  0  0  0  0  0  0  0  0  0  0  0
  151.3680  142.6208  161.3305 H   0  0  0  0  0  0  0  0  0  0  0  0
  152.6400  143.2477  162.3438 H   0  0  0  0  0  0  0  0  0  0  0  0
  151.1311  145.0736  161.5797 H   0  0  0  0  0  0  0  0  0  0  0  0
  152.7701  145.3185  161.0424 H   0  0  0  0  0  0  0  0  0  0  0  0
  151.3594  145.8311  159.1924 H   0  0  0  0  0  0  0  0  0  0  0  0
  149.9608  143.1328  159.4743 H   0  0  0  0  0  0  0  0  0  0  0  0
  149.6801  144.3251  158.2126 H   0  0  0  0  0  0  0  0  0  0  0  0
  149.2857  144.7043  159.8824 H   0  0  0  0  0  0  0  0  0  0  0  0
  152.0960  144.1465  157.4766 H   0  0  0  0  0  0  0  0  0  0  0  0
  153.3664  144.7437  158.5084 H   0  0  0  0  0  0  0  0  0  0  0  0
  153.5971  142.3225  158.2417 H   0  0  0  0  0  0  0  0  0  0  0  0
  151.9644  142.0452  158.7826 H   0  0  0  0  0  0  0  0  0  0  0  0
  155.4235  141.9529  161.4499 H   0  0  0  0  0  0  0  0  0  0  0  0
  1  2  1  0  0  0  0
  1 19  1  0  0  0  0
  1 20  1  0  0  0  0
  1 21  1  0  0  0  0
  2  3  1  0  0  0  0
  2 22  1  0  0  0  0
  2 23  1  0  0  0  0
  3  7  1  0  0  0  0
  3  4  2  0  0  0  0
  4  5  1  0  0  0  0
  5  6  2  0  0  0  0
  6  7  1  0  0  0  0
  6 24  1  0  0  0  0
  7  8  1  0  0  0  0
  8  9  1  0  0  0  0
  8 25  1  0  0  0  0
  8 26  1  0  0  0  0
  9 10  1  0  0  0  0
  9 27  1  0  0  0  0
  9 28  1  0  0  0  0
 10 11  1  0  0  0  0
 10 29  1  0  0  0  0
 10 45  1  0  0  0  0
 11 12  1  0  0  0  0
 11 30  1  0  0  0  0
 11 31  1  0  0  0  0
 12 18  1  0  0  0  0
 12 13  1  0  0  0  0
 12 32  1  0  0  0  0
 13 14  1  0  0  0  0
 13 33  1  0  0  0  0
 13 34  1  0  0  0  0
 14 15  1  0  0  0  0
 14 35  1  0  0  0  0
 14 36  1  0  0  0  0
 15 16  1  0  0  0  0
 15 17  1  0  0  0  0
 15 37  1  0  0  0  0
 16 38  1  0  0  0  0
 16 39  1  0  0  0  0
 16 40  1  0  0  0  0
 17 18  1  0  0  0  0
 17 41  1  0  0  0  0
 17 42  1  0  0  0  0
 18 43  1  0  0  0  0
 18 44  1  0  0  0  0
M  CHG  1  10   1
M  END
> <s_m_source_file>
AV-unprocessed.smi

> <i_m_source_file_index>
3310

> <i_lp_mmshare_version>
43012

> <i_f3d_flags>
0

> <s_epik_input>
W0NIM11bQ0gyXWMxbm5bY0hdbjFbQ0gyXVtDSDJdW05IXVtDSDJdW0NAQEhdMltDSDJdW0NIMl1bQ0BASF0oW0NIM10pW0NIMl1bQ0gyXTI=

> <s_epik_cmdline>
J2VwaWtfcHl0aG9uJywgJy1waCcsICc3LjAnLCAnLXRuJywgJzgnLCAnLW1hJywgJzIwMCcsICctbWV0YWxfYmluZGluZycsICctaW1hZScsICc8aW5maWxlLm1hZT4nLCAnLW9tYWUnLCAnPG91dGZpbGUubWFlPic=

> <r_lp_tautomer_probability>
1

> <r_epik_Ionization_Penalty>
0.00127868

> <r_epik_Ionization_Penalty_Charging>
0.00126792

> <r_epik_Ionization_Penalty_Neutral>
1.07546e-05

> <r_epik_State_Penalty>
-0

> <r_epik_Charging_Adjusted_Penalty>
0.00126792

> <i_epik_Tot_Q>
1

> <i_epik_Tot_abs_Q>
1

> <r_epik_Metal_State_Penalty>
-0

> <b_epik_Metal_Only>
0

> <s_lp_Force_Field>
OPLS_2005

> <r_lp_Energy>
17.5761

> <b_lp_Chiralities_Consistent>
1

> <s_lp_Variant>
AV-unprocessed.smi:3310-2

> <Gold.Version>
5.8.1

> <Gold.Id.Protein>
6NUR|6NUR_protein|mol2

> <Gold.PLP.Fitness>
43.5153

> <Gold.PLP.PLP>
-45.7721

> <Gold.PLP.part.hbond>
-1.0000

> <Gold.PLP.part.metal>
0.0000

> <Gold.PLP.part.buried>
-5.4892

> <Gold.PLP.part.nonpolar>
-39.8683

> <Gold.PLP.part.repulsive>
0.0839

> <Gold.PLP.ligand.clash>
0.0000

> <Gold.PLP.ligand.torsion>
1.1805

> <Gold.PLP.Chemscore.Hbond>
0.0000

> <Gold.PLP.Chemscore.CHOScore>
0.0000

> <Gold.PLP.Chemscore.Metal>
0.0000

> <Gold.PLP.Chemscore.Internal.Correction>
0.1043

> <Gold.Rescore>
     Score         DG    S(hbond)    S(metal)    S(lipo)     H(rot)  DE(clash)    DE(int)     intcor
     12.58     -14.70       0.00        0.00     123.18       2.03       1.11       1.01       ----

> <Gold.Chemscore.Fitness>
12.5753

> <Gold.Chemscore.DG>
-14.6969

> <Gold.Chemscore.ZeroCoef>
-5.4800

> <Gold.Chemscore.Hbond>
0.0000

> <Gold.Chemscore.Metal>
0.0000

> <Gold.Chemscore.Lipo>
123.1839

> <Gold.Chemscore.Internal_Hbond>
0.0000

> <Gold.Chemscore.DEClash>
1.1148

> <Gold.Chemscore.DEInternal>
1.0068

> <Gold.Chemscore.Rot>
2.0295

> <Gold.Chemscore.Internal.Correction>
   9.000000E+99

> <Gold.Chemscore.Hbond.Weighted>
-0.0000

> <Gold.Chemscore.Metal.Weighted>
-0.0000

> <Gold.Chemscore.Lipo.Weighted>
-14.4125

> <Gold.Chemscore.Internal_Hbond.Weighted>
0.0000

> <Gold.Chemscore.DEClash.Weighted>
1.1148

> <Gold.Chemscore.DEInternal.Weighted>
1.0068

> <Gold.Chemscore.Rot.Weighted>
5.1956

> <Gold.Chemscore.Internal.Correction.Weighted>
   9.000000E+99

> <Gold.Protein.RotatedTorsions>
[ 6907 6896 6895 6894 ] final  -57.16 input  -60.11 | X-H torsion
[ 7974 7965 7964 7962 ] final -118.20 input  175.53 | X-H torsion
[ 8008 7997 7996 7995 ] final   66.36 input   59.86 | X-H torsion
[ 10167 10162 10161 10158 ] final  -32.28 input  -65.29 | X-H torsion
[ 10718 10713 10712 10709 ] final -132.08 input   66.30 | X-H torsion
[ 10763 10752 10751 10750 ] final  -74.82 input  -60.55 | X-H torsion
[ 11005 11000 10999 10996 ] final -113.52 input  -57.11 | X-H torsion

> <Gold.Protein.ActiveResidues>
 VAL166  LYS551  ARG553  GLY616  TRP617  ASP618  TYR619  PRO620  LYS621  CYS622 
 ASP623  PHE694  ASN695  SER759  ASP760  ASP761  ALA762  ILE779  LEU786  VAL792 
 PHE793  MET794  SER795  GLU796  ALA797  LYS798  CYS799  TRP800  GLU811  SER814 

> <Gold.Protein.RotatedAtoms>
  150.8109  134.7262  159.6686 H   0  0  0  0  0  0  0  0  0  0  0  0  # atno 6907 bound_to 6896
  152.4228  134.5919  159.9986 H   0  0  0  0  0  0  0  0  0  0  0  0  # atno 6908 bound_to 6896
  151.6130  133.3308  159.3107 H   0  0  0  0  0  0  0  0  0  0  0  0  # atno 6909 bound_to 6896
  145.0765  140.8396  143.4064 H   0  0  0  0  0  0  0  0  0  0  0  0  # atno 7974 bound_to 7965
  155.6761  140.3497  155.4837 H   0  0  0  0  0  0  0  0  0  0  0  0  # atno 8008 bound_to 7997
  155.9646  140.1144  157.0888 H   0  0  0  0  0  0  0  0  0  0  0  0  # atno 8009 bound_to 7997
  154.4151  140.1169  156.5211 H   0  0  0  0  0  0  0  0  0  0  0  0  # atno 8010 bound_to 7997
  140.7224  143.3707  151.1784 H   0  0  0  0  0  0  0  0  0  0  0  0  # atno 10167 bound_to 10162
  156.2309  130.7037  151.0858 H   0  0  0  0  0  0  0  0  0  0  0  0  # atno 10718 bound_to 10713
  154.4782  135.5852  153.6370 H   0  0  0  0  0  0  0  0  0  0  0  0  # atno 10763 bound_to 10752
  152.9844  135.6083  154.3280 H   0  0  0  0  0  0  0  0  0  0  0  0  # atno 10764 bound_to 10752
  154.3168  135.2844  155.2518 H   0  0  0  0  0  0  0  0  0  0  0  0  # atno 10765 bound_to 10752
  141.0609  133.9537  157.2668 H   0  0  0  0  0  0  0  0  0  0  0  0  # atno 11005 bound_to 11000
  145.1229  139.2681  143.5579 LP  0  0  0  0  0  0  0  0  0  0  0  0  # atno 17320 bound_to 7965
  146.3530  140.0858  142.8615 LP  0  0  0  0  0  0  0  0  0  0  0  0  # atno 17321 bound_to 7965
  139.7277  143.9122  152.3008 LP  0  0  0  0  0  0  0  0  0  0  0  0  # atno 17342 bound_to 10162
  139.8900  144.6970  150.8781 LP  0  0  0  0  0  0  0  0  0  0  0  0  # atno 17343 bound_to 10162
  157.7133  131.0723  150.6422 LP  0  0  0  0  0  0  0  0  0  0  0  0  # atno 17370 bound_to 10713
  156.6490  130.4479  149.5726 LP  0  0  0  0  0  0  0  0  0  0  0  0  # atno 17371 bound_to 10713
  139.9432  135.0188  156.8772 LP  0  0  0  0  0  0  0  0  0  0  0  0  # atno 17394 bound_to 11000
  140.5870  134.0297  155.7485 LP  0  0  0  0  0  0  0  0  0  0  0  0  # atno 17395 bound_to 11000

$$$$
