AV-unprocessed.smi:69|AV-procd|sdf|648|dock8
  -GOLD-   2262016543D 1   1.00000     0.00000
 Structure written by MMmdl.
 32 34  0  0  0  0  0  0  0  0  1 V2000
  150.7616  132.1011  155.7754 N   0  0  0  0  0  0  0  0  0  0  0  0
  149.8239  132.9651  155.3625 C   0  0  0  0  0  0  0  0  0  0  0  0
  149.6134  134.0849  156.0941 N   0  0  0  0  0  0  0  0  0  0  0  0
  148.6809  134.9612  155.7048 C   0  0  0  0  0  0  0  0  0  0  0  0
  147.8711  134.9045  154.6433 N   0  0  0  0  0  0  0  0  0  0  0  0
  148.0891  133.7748  153.9084 C   0  0  0  0  0  0  0  0  0  0  0  0
  149.0412  132.7602  154.1982 C   0  0  0  0  0  0  0  0  0  0  0  0
  148.9771  131.7642  153.2329 N   0  0  0  0  0  0  0  0  0  0  0  0
  148.0363  132.1713  152.4221 C   0  0  0  0  0  0  0  0  0  0  0  0
  147.4430  133.3704  152.7610 N   0  0  0  0  0  0  0  0  0  0  0  0
  146.3445  134.1224  152.0691 C   0  0  1  0  0  0  0  0  0  0  0  0
  146.1368  133.5472  150.8141 O   0  0  0  0  0  0  0  0  0  0  0  0
  144.9808  132.7184  150.8503 C   0  0  2  0  0  0  0  0  0  0  0  0
  144.4413  132.4495  149.4353 C   0  0  0  0  0  0  0  0  0  0  0  0
  143.1283  131.9363  149.5090 O   0  0  0  0  0  0  0  0  0  0  0  0
  144.0452  133.5007  151.7806 C   0  0  2  0  0  0  0  0  0  0  0  0
  143.4051  134.5591  151.0903 O   0  0  0  0  0  0  0  0  0  0  0  0
  144.9993  134.0495  152.8349 C   0  0  1  0  0  0  0  0  0  0  0  0
  145.0172  133.1832  153.9573 O   0  0  0  0  0  0  0  0  0  0  0  0
  146.7322  135.1357  151.9554 H   0  0  0  0  0  0  0  0  0  0  0  0
  145.2318  131.7749  151.3390 H   0  0  0  0  0  0  0  0  0  0  0  0
  143.2703  132.8617  152.2071 H   0  0  0  0  0  0  0  0  0  0  0  0
  144.7140  135.0468  153.1734 H   0  0  0  0  0  0  0  0  0  0  0  0
  150.9347  131.2582  155.2467 H   0  0  0  0  0  0  0  0  0  0  0  0
  151.2905  132.2930  156.6138 H   0  0  0  0  0  0  0  0  0  0  0  0
  148.5667  135.8318  156.3337 H   0  0  0  0  0  0  0  0  0  0  0  0
  147.7519  131.5987  151.5514 H   0  0  0  0  0  0  0  0  0  0  0  0
  144.3963  133.3795  148.8680 H   0  0  0  0  0  0  0  0  0  0  0  0
  145.0851  131.7619  148.8860 H   0  0  0  0  0  0  0  0  0  0  0  0
  142.5195  132.6514  149.4039 H   0  0  0  0  0  0  0  0  0  0  0  0
  142.7394  134.1926  150.5285 H   0  0  0  0  0  0  0  0  0  0  0  0
  144.2607  132.6183  153.9084 H   0  0  0  0  0  0  0  0  0  0  0  0
  1  2  1  0  0  0  0
  1 24  1  0  0  0  0
  1 25  1  0  0  0  0
  2  7  1  0  0  0  0
  2  3  2  0  0  0  0
  3  4  1  0  0  0  0
  4  5  2  0  0  0  0
  4 26  1  0  0  0  0
  5  6  1  0  0  0  0
  6 10  1  0  0  0  0
  6  7  2  0  0  0  0
  7  8  1  0  0  0  0
  8  9  2  0  0  0  0
  9 10  1  0  0  0  0
  9 27  1  0  0  0  0
 10 11  1  0  0  0  0
 11 20  1  0  0  0  0
 11 18  1  0  0  0  0
 11 12  1  0  0  0  0
 12 13  1  0  0  0  0
 13 21  1  0  0  0  0
 13 14  1  0  0  0  0
 13 16  1  0  0  0  0
 14 15  1  0  0  0  0
 14 28  1  0  0  0  0
 14 29  1  0  0  0  0
 15 30  1  0  0  0  0
 16 22  1  0  0  0  0
 16 17  1  0  0  0  0
 16 18  1  0  0  0  0
 17 31  1  0  0  0  0
 18 23  1  0  0  0  0
 18 19  1  0  0  0  0
 19 32  1  0  0  0  0
M  END
> <s_m_source_file>
AV-unprocessed.smi

> <i_m_source_file_index>
69

> <i_lp_mmshare_version>
43012

> <i_f3d_flags>
0

> <s_epik_input>
bjFbY0hdbmMoW05IMl0pYyhjMTIpbltjSF1uMltDQEBIXTNPW0NASF0oW0NIMl1bT0hdKVtDQEBIXShbT0hdKVtDQEhdM1tPSF0=

> <s_epik_cmdline>
J2VwaWtfcHl0aG9uJywgJy1waCcsICc3LjAnLCAnLXRuJywgJzgnLCAnLW1hJywgJzIwMCcsICctbWV0YWxfYmluZGluZycsICctaW1hZScsICc8aW5maWxlLm1hZT4nLCAnLW9tYWUnLCAnPG91dGZpbGUubWFlPic=

> <r_lp_tautomer_probability>
1

> <r_epik_Ionization_Penalty>
0.000428445

> <r_epik_Ionization_Penalty_Charging>
0

> <r_epik_Ionization_Penalty_Neutral>
0.000428445

> <r_epik_State_Penalty>
-0

> <r_epik_Charging_Adjusted_Penalty>
0

> <i_epik_Tot_Q>
0

> <i_epik_Tot_abs_Q>
0

> <r_epik_Metal_State_Penalty>
-0

> <b_epik_Metal_Only>
0

> <s_epik_Chemistry_Notes>
This compound contains an acetal/aminal-like group ( X-CH(R)-Y where X, Y are N, S, or O) that may be acid/base labile, releasing an aldehyde.

> <s_lp_Force_Field>
OPLS_2005

> <r_lp_Energy>
38.9041

> <b_lp_Chiralities_Consistent>
1

> <s_lp_Variant>
AV-unprocessed.smi:69-6

> <Gold.Version>
5.8.1

> <Gold.Id.Protein>
6NUR|6NUR_protein|mol2

> <Gold.PLP.Fitness>
38.2834

> <Gold.PLP.PLP>
-26.2162

> <Gold.PLP.part.hbond>
-4.5540

> <Gold.PLP.part.metal>
0.0000

> <Gold.PLP.part.buried>
-3.1982

> <Gold.PLP.part.nonpolar>
-20.1107

> <Gold.PLP.part.repulsive>
0.4612

> <Gold.PLP.ligand.clash>
0.0000

> <Gold.PLP.ligand.torsion>
0.3627

> <Gold.PLP.Chemscore.Hbond>
3.4213

> <Gold.PLP.Chemscore.CHOScore>
0.8114

> <Gold.PLP.Chemscore.Metal>
0.0000

> <Gold.Chemscore.Hbonds>
donor molecule, donor type, donor heavy atom, donor atom, acceptor molecule, acceptor atom, score
      L1  H    15    30       P1 10186  0.26
      L1  H    17    31       P1 10186  0.96
      L1  H    19    32       P1 10957  1.00
      P1  H 10785 10796       L1    15  1.00
      L1  C     9    27       P1 10747  0.64

> <Gold.PLP.Chemscore.Internal.Correction>
0.0944

> <Gold.Rescore>
     Score         DG    S(hbond)    S(metal)    S(lipo)     H(rot)  DE(clash)    DE(int)     intcor
      6.37      -7.28       2.50        0.00      32.05       4.03       0.27       0.64       ----

> <Gold.Chemscore.Fitness>
6.3738

> <Gold.Chemscore.DG>
-7.2821

> <Gold.Chemscore.ZeroCoef>
-5.4800

> <Gold.Chemscore.Hbond>
2.5041

> <Gold.Chemscore.Metal>
0.0000

> <Gold.Chemscore.Lipo>
32.0476

> <Gold.Chemscore.Internal_Hbond>
0.0000

> <Gold.Chemscore.DEClash>
0.2698

> <Gold.Chemscore.DEInternal>
0.6385

> <Gold.Chemscore.Rot>
4.0277

> <Gold.Chemscore.Internal.Correction>
   9.000000E+99

> <Gold.Chemscore.Hbonds>
donor molecule, donor type, donor heavy atom, donor atom, acceptor molecule, acceptor atom, score
      L1  H    15    30       P1 10186  0.27
      L1  H    17    31       P1 10186  0.66
      L1  H    19    32       P1 10957  0.60
      P1  H 10785 10796       L1    15  0.54

> <Gold.Chemscore.Hbond.Weighted>
-8.3635

> <Gold.Chemscore.Metal.Weighted>
-0.0000

> <Gold.Chemscore.Lipo.Weighted>
-3.7496

> <Gold.Chemscore.Internal_Hbond.Weighted>
0.0000

> <Gold.Chemscore.DEClash.Weighted>
0.2698

> <Gold.Chemscore.DEInternal.Weighted>
0.6385

> <Gold.Chemscore.Rot.Weighted>
10.3110

> <Gold.Chemscore.Internal.Correction.Weighted>
   9.000000E+99

> <Gold.Protein.RotatedTorsions>
[ 6907 6896 6895 6894 ] final   68.65 input  -60.11 | X-H torsion
[ 7974 7965 7964 7962 ] final   99.98 input  175.53 | X-H torsion
[ 8008 7997 7996 7995 ] final -107.79 input   59.86 | X-H torsion
[ 10167 10162 10161 10158 ] final  141.32 input  -65.29 | X-H torsion
[ 10718 10713 10712 10709 ] final  137.16 input   66.30 | X-H torsion
[ 10763 10752 10751 10750 ] final -127.29 input  -60.55 | X-H torsion
[ 11005 11000 10999 10996 ] final    2.23 input  -57.11 | X-H torsion

> <Gold.Protein.ActiveResidues>
 VAL166  LYS551  ARG553  GLY616  TRP617  ASP618  TYR619  PRO620  LYS621  CYS622 
 ASP623  PHE694  ASN695  SER759  ASP760  ASP761  ALA762  ILE779  LEU786  VAL792 
 PHE793  MET794  SER795  GLU796  ALA797  LYS798  CYS799  TRP800  GLU811  SER814 

> <Gold.Protein.RotatedAtoms>
  152.4634  134.5132  159.9759 H   0  0  0  0  0  0  0  0  0  0  0  0  # atno 6907 bound_to 6896
  151.5175  133.3467  159.2903 H   0  0  0  0  0  0  0  0  0  0  0  0  # atno 6908 bound_to 6896
  150.8607  134.7987  159.7143 H   0  0  0  0  0  0  0  0  0  0  0  0  # atno 6909 bound_to 6896
  145.3916  139.2362  143.3349 H   0  0  0  0  0  0  0  0  0  0  0  0  # atno 7974 bound_to 7965
  154.9346  140.0404  157.2065 H   0  0  0  0  0  0  0  0  0  0  0  0  # atno 8008 bound_to 7997
  154.8128  140.2870  155.5819 H   0  0  0  0  0  0  0  0  0  0  0  0  # atno 8009 bound_to 7997
  156.2973  140.2533  156.3020 H   0  0  0  0  0  0  0  0  0  0  0  0  # atno 8010 bound_to 7997
  139.5024  144.6179  151.6121 H   0  0  0  0  0  0  0  0  0  0  0  0  # atno 10167 bound_to 10162
  157.4390  131.1056  151.0164 H   0  0  0  0  0  0  0  0  0  0  0  0  # atno 10718 bound_to 10713
  154.8751  135.3967  154.3569 H   0  0  0  0  0  0  0  0  0  0  0  0  # atno 10763 bound_to 10752
  153.4347  135.7026  153.6213 H   0  0  0  0  0  0  0  0  0  0  0  0  # atno 10764 bound_to 10752
  153.4819  135.3767  155.2416 H   0  0  0  0  0  0  0  0  0  0  0  0  # atno 10765 bound_to 10752
  140.6066  133.9786  155.8157 H   0  0  0  0  0  0  0  0  0  0  0  0  # atno 11005 bound_to 11000
  146.2795  140.4600  142.8782 LP  0  0  0  0  0  0  0  0  0  0  0  0  # atno 17320 bound_to 7965
  144.8436  140.6895  143.6213 LP  0  0  0  0  0  0  0  0  0  0  0  0  # atno 17321 bound_to 7965
  140.5872  143.9843  150.6303 LP  0  0  0  0  0  0  0  0  0  0  0  0  # atno 17342 bound_to 10162
  140.3012  143.3259  152.0970 LP  0  0  0  0  0  0  0  0  0  0  0  0  # atno 17343 bound_to 10162
  157.1034  130.5991  149.5465 LP  0  0  0  0  0  0  0  0  0  0  0  0  # atno 17370 bound_to 10713
  155.9941  130.5005  150.7409 LP  0  0  0  0  0  0  0  0  0  0  0  0  # atno 17371 bound_to 10713
  141.0836  134.0025  157.3348 LP  0  0  0  0  0  0  0  0  0  0  0  0  # atno 17394 bound_to 11000
  139.9209  135.0200  156.8062 LP  0  0  0  0  0  0  0  0  0  0  0  0  # atno 17395 bound_to 11000

$$$$
