AV-unprocessed.smi:2504|AV-procd|sdf|9851|dock5
  -GOLD-   2272013483D 1   1.00000     0.00000
 Structure written by MMmdl.
 45 47  0  0  0  0  0  0  0  0  2 V2000
  153.7609  142.3963  160.0062 O   0  0  0  0  0  0  0  0  0  0  0  0
  152.7612  142.0174  159.3939 C   0  0  0  0  0  0  0  0  0  0  0  0
  152.0445  142.9413  158.3823 C   0  0  0  0  0  0  0  0  0  0  0  0
  152.6685  144.3430  158.2702 C   0  0  0  0  0  0  0  0  0  0  0  0
  152.0244  145.1796  159.3839 C   0  0  0  0  0  0  0  0  0  0  0  0
  150.7067  144.4754  159.7417 C   0  0  0  0  0  0  0  0  0  0  0  0
  150.6041  143.2577  158.8138 C   0  0  0  0  0  0  0  0  0  0  0  0
  152.2794  140.7119  159.5306 N   0  0  0  0  0  0  0  0  0  0  0  0
  151.7759  139.9534  158.3946 C   0  0  0  0  0  0  0  0  0  0  0  0
  152.2339  138.7102  159.1652 C   0  0  0  0  0  0  0  0  0  0  0  0
  153.1279  137.4937  158.0978 S   0  0  0  0  0  0  0  0  0  0  0  0
  152.1421  137.0160  157.1151 O   0  0  0  0  0  0  0  0  0  0  0  0
  154.3079  138.1936  157.5623 O   0  0  0  0  0  0  0  0  0  0  0  0
  153.4948  136.3570  159.1962 N   0  5  0  0  0  0  0  0  0  0  0  0
  154.8691  135.9000  159.3316 C   0  0  0  0  0  0  0  0  0  0  0  0
  154.9895  134.8679  160.4772 C   0  0  0  0  0  0  0  0  0  0  0  0
  154.6954  135.4094  161.8723 C   0  0  0  0  0  0  0  0  0  0  0  0
  154.3870  136.7717  162.0808 C   0  0  0  0  0  0  0  0  0  0  0  0
  154.1140  137.2152  163.3890 C   0  0  0  0  0  0  0  0  0  0  0  0
  154.1654  136.2772  164.4392 C   0  0  0  0  0  0  0  0  0  0  0  0
  154.4713  134.9750  164.2574 N   0  0  0  0  0  0  0  0  0  0  0  0
  154.7288  134.5577  162.9994 C   0  0  0  0  0  0  0  0  0  0  0  0
  153.1420  139.6339  159.9910 C   0  0  0  0  0  0  0  0  0  0  0  0
  152.0591  142.4597  157.4045 H   0  0  0  0  0  0  0  0  0  0  0  0
  153.7581  144.3471  158.3253 H   0  0  0  0  0  0  0  0  0  0  0  0
  152.4052  144.7698  157.3014 H   0  0  0  0  0  0  0  0  0  0  0  0
  152.6764  145.2098  160.2580 H   0  0  0  0  0  0  0  0  0  0  0  0
  151.8628  146.2091  159.0628 H   0  0  0  0  0  0  0  0  0  0  0  0
  150.7352  144.1508  160.7828 H   0  0  0  0  0  0  0  0  0  0  0  0
  149.8461  145.1354  159.6296 H   0  0  0  0  0  0  0  0  0  0  0  0
  150.0166  143.5184  157.9325 H   0  0  0  0  0  0  0  0  0  0  0  0
  150.0961  142.4214  159.2961 H   0  0  0  0  0  0  0  0  0  0  0  0
  150.6977  140.0255  158.2507 H   0  0  0  0  0  0  0  0  0  0  0  0
  152.3374  140.1206  157.4733 H   0  0  0  0  0  0  0  0  0  0  0  0
  151.4321  138.2384  159.7353 H   0  0  0  0  0  0  0  0  0  0  0  0
  155.2117  135.4294  158.4095 H   0  0  0  0  0  0  0  0  0  0  0  0
  155.5652  136.7199  159.5128 H   0  0  0  0  0  0  0  0  0  0  0  0
  154.3281  134.0229  160.2804 H   0  0  0  0  0  0  0  0  0  0  0  0
  155.9997  134.4567  160.4800 H   0  0  0  0  0  0  0  0  0  0  0  0
  154.3511  137.4629  161.2514 H   0  0  0  0  0  0  0  0  0  0  0  0
  153.8665  138.2483  163.5825 H   0  0  0  0  0  0  0  0  0  0  0  0
  153.9598  136.5827  165.4544 H   0  0  0  0  0  0  0  0  0  0  0  0
  154.9595  133.5083  162.8870 H   0  0  0  0  0  0  0  0  0  0  0  0
  154.1663  139.7167  159.6245 H   0  0  0  0  0  0  0  0  0  0  0  0
  153.0996  139.4630  161.0668 H   0  0  0  0  0  0  0  0  0  0  0  0
  1  2  2  0  0  0  0
  2  3  1  0  0  0  0
  2  8  1  0  0  0  0
  3  7  1  0  0  0  0
  3  4  1  0  0  0  0
  3 24  1  0  0  0  0
  4  5  1  0  0  0  0
  4 25  1  0  0  0  0
  4 26  1  0  0  0  0
  5  6  1  0  0  0  0
  5 27  1  0  0  0  0
  5 28  1  0  0  0  0
  6  7  1  0  0  0  0
  6 29  1  0  0  0  0
  6 30  1  0  0  0  0
  7 31  1  0  0  0  0
  7 32  1  0  0  0  0
  8 23  1  0  0  0  0
  8  9  1  0  0  0  0
  9 10  1  0  0  0  0
  9 33  1  0  0  0  0
  9 34  1  0  0  0  0
 10 11  1  0  0  0  0
 10 23  1  0  0  0  0
 10 35  1  0  0  0  0
 11 12  2  0  0  0  0
 11 13  2  0  0  0  0
 11 14  1  0  0  0  0
 14 15  1  0  0  0  0
 15 16  1  0  0  0  0
 15 36  1  0  0  0  0
 15 37  1  0  0  0  0
 16 17  1  0  0  0  0
 16 38  1  0  0  0  0
 16 39  1  0  0  0  0
 17 22  1  0  0  0  0
 17 18  2  0  0  0  0
 18 19  1  0  0  0  0
 18 40  1  0  0  0  0
 19 20  2  0  0  0  0
 19 41  1  0  0  0  0
 20 21  1  0  0  0  0
 20 42  1  0  0  0  0
 21 22  2  0  0  0  0
 22 43  1  0  0  0  0
 23 44  1  0  0  0  0
 23 45  1  0  0  0  0
M  CHG  1  14  -1
M  END
> <s_m_source_file>
AV-unprocessed.smi

> <i_m_source_file_index>
2504

> <i_lp_mmshare_version>
43012

> <i_f3d_flags>
0

> <s_epik_input>
W0NIMl0xW0NIMl1bQ0gyXVtDSDJdW0NIXTFDKD1PKU4yW0NIMl1bQ0hdKFtDSDJdMilTKD1PKSg9TylbTkhdW0NIMl1bQ0gyXWMzW2NIXVtjSF1bY0hdbltjSF0z

> <s_epik_cmdline>
J2VwaWtfcHl0aG9uJywgJy1waCcsICc3LjAnLCAnLXRuJywgJzgnLCAnLW1hJywgJzIwMCcsICctbWV0YWxfYmluZGluZycsICctaW1hZScsICc8aW5maWxlLm1hZT4nLCAnLW9tYWUnLCAnPG91dGZpbGUubWFlPic=

> <r_epik_Ionization_Penalty>
5.82897

> <r_epik_Ionization_Penalty_Charging>
5.8024

> <r_epik_Ionization_Penalty_Neutral>
0.0265674

> <r_epik_State_Penalty>
5.81059

> <r_epik_Charging_Adjusted_Penalty>
11.613

> <i_epik_Tot_Q>
-1

> <i_epik_Tot_abs_Q>
1

> <r_epik_Metal_State_Penalty>
1.79017

> <b_epik_Metal_Only>
1

> <s_lp_Force_Field>
OPLS_2005

> <r_lp_Energy>
30.9789

> <b_lp_Chiralities_Consistent>
1

> <s_lp_Variant>
AV-unprocessed.smi:2504-3

> <Gold.Version>
5.8.1

> <Gold.Id.Protein>
6NUR|6NUR_protein|mol2

> <Gold.PLP.Fitness>
53.2374

> <Gold.PLP.PLP>
-45.2364

> <Gold.PLP.part.hbond>
-2.0000

> <Gold.PLP.part.metal>
0.0000

> <Gold.PLP.part.buried>
-6.9484

> <Gold.PLP.part.nonpolar>
-38.8772

> <Gold.PLP.part.repulsive>
0.0798

> <Gold.PLP.ligand.clash>
0.0000

> <Gold.PLP.ligand.torsion>
1.4098

> <Gold.PLP.Chemscore.Hbond>
2.7505

> <Gold.PLP.Chemscore.CHOScore>
0.0000

> <Gold.PLP.Chemscore.Metal>
0.0000

> <Gold.Chemscore.Hbonds>
donor molecule, donor type, donor heavy atom, donor atom, acceptor molecule, acceptor atom, score
      P1  H  6896  6908       L1    14  1.72
      P1  H  7997  8008       L1    13  0.75

> <Gold.PLP.Chemscore.Internal.Correction>
2.5691

> <Gold.Rescore>
     Score         DG    S(hbond)    S(metal)    S(lipo)     H(rot)  DE(clash)    DE(int)     intcor
     18.72     -20.20       1.60        0.00     115.29       1.61       0.03       1.45       ----

> <Gold.Chemscore.Fitness>
18.7225

> <Gold.Chemscore.DG>
-20.2049

> <Gold.Chemscore.ZeroCoef>
-5.4800

> <Gold.Chemscore.Hbond>
1.6048

> <Gold.Chemscore.Metal>
0.0000

> <Gold.Chemscore.Lipo>
115.2918

> <Gold.Chemscore.Internal_Hbond>
0.0000

> <Gold.Chemscore.DEClash>
0.0323

> <Gold.Chemscore.DEInternal>
1.4501

> <Gold.Chemscore.Rot>
1.6110

> <Gold.Chemscore.Internal.Correction>
   9.000000E+99

> <Gold.Chemscore.Hbonds>
donor molecule, donor type, donor heavy atom, donor atom, acceptor molecule, acceptor atom, score
      P1  H  6896  6908       L1    14  0.53
      P1  H  7997  8008       L1    13  0.74

> <Gold.Chemscore.Hbond.Weighted>
-5.3600

> <Gold.Chemscore.Metal.Weighted>
-0.0000

> <Gold.Chemscore.Lipo.Weighted>
-13.4891

> <Gold.Chemscore.Internal_Hbond.Weighted>
0.0000

> <Gold.Chemscore.DEClash.Weighted>
0.0323

> <Gold.Chemscore.DEInternal.Weighted>
1.4501

> <Gold.Chemscore.Rot.Weighted>
4.1243

> <Gold.Chemscore.Internal.Correction.Weighted>
   9.000000E+99

> <Gold.Protein.RotatedTorsions>
[ 6907 6896 6895 6894 ] final  -76.86 input  -60.11 | X-H torsion
[ 7974 7965 7964 7962 ] final  132.44 input  175.53 | X-H torsion
[ 8008 7997 7996 7995 ] final  -93.76 input   59.86 | X-H torsion
[ 10167 10162 10161 10158 ] final  165.10 input  -65.29 | X-H torsion
[ 10718 10713 10712 10709 ] final -134.45 input   66.30 | X-H torsion
[ 10763 10752 10751 10750 ] final -127.69 input  -60.55 | X-H torsion
[ 11005 11000 10999 10996 ] final  141.70 input  -57.11 | X-H torsion

> <Gold.Protein.ActiveResidues>
 VAL166  LYS551  ARG553  GLY616  TRP617  ASP618  TYR619  PRO620  LYS621  CYS622 
 ASP623  PHE694  ASN695  SER759  ASP760  ASP761  ALA762  ILE779  LEU786  VAL792 
 PHE793  MET794  SER795  GLU796  ALA797  LYS798  CYS799  TRP800  GLU811  SER814 

> <Gold.Protein.RotatedAtoms>
  150.7015  134.4509  159.5335 H   0  0  0  0  0  0  0  0  0  0  0  0  # atno 6907 bound_to 6896
  152.2202  134.8417  160.0496 H   0  0  0  0  0  0  0  0  0  0  0  0  # atno 6908 bound_to 6896
  151.9270  133.3566  159.3954 H   0  0  0  0  0  0  0  0  0  0  0  0  # atno 6909 bound_to 6896
  144.9968  139.4351  143.5312 H   0  0  0  0  0  0  0  0  0  0  0  0  # atno 7974 bound_to 7965
  154.7398  140.0496  157.0800 H   0  0  0  0  0  0  0  0  0  0  0  0  # atno 8008 bound_to 7997
  155.0194  140.3145  155.4780 H   0  0  0  0  0  0  0  0  0  0  0  0  # atno 8009 bound_to 7997
  156.2861  140.2170  156.5311 H   0  0  0  0  0  0  0  0  0  0  0  0  # atno 8010 bound_to 7997
  139.4900  144.4166  151.9236 H   0  0  0  0  0  0  0  0  0  0  0  0  # atno 10167 bound_to 10162
  156.2556  130.7179  151.1095 H   0  0  0  0  0  0  0  0  0  0  0  0  # atno 10718 bound_to 10713
  154.8753  135.3953  154.3635 H   0  0  0  0  0  0  0  0  0  0  0  0  # atno 10763 bound_to 10752
  153.4404  135.7026  153.6178 H   0  0  0  0  0  0  0  0  0  0  0  0  # atno 10764 bound_to 10752
  153.4761  135.3779  155.2386 H   0  0  0  0  0  0  0  0  0  0  0  0  # atno 10765 bound_to 10752
  140.0421  134.9299  157.0862 H   0  0  0  0  0  0  0  0  0  0  0  0  # atno 11005 bound_to 11000
  146.3443  139.9333  142.8750 LP  0  0  0  0  0  0  0  0  0  0  0  0  # atno 17320 bound_to 7965
  145.2208  140.9934  143.4046 LP  0  0  0  0  0  0  0  0  0  0  0  0  # atno 17321 bound_to 7965
  140.3609  144.2974  150.5933 LP  0  0  0  0  0  0  0  0  0  0  0  0  # atno 17342 bound_to 10162
  140.5403  143.2225  151.8095 LP  0  0  0  0  0  0  0  0  0  0  0  0  # atno 17343 bound_to 10162
  157.7231  131.0668  150.6049 LP  0  0  0  0  0  0  0  0  0  0  0  0  # atno 17370 bound_to 10713
  156.6133  130.4386  149.5850 LP  0  0  0  0  0  0  0  0  0  0  0  0  # atno 17371 bound_to 10713
  140.4053  134.2039  155.7163 LP  0  0  0  0  0  0  0  0  0  0  0  0  # atno 17394 bound_to 11000
  141.1888  133.8252  157.0981 LP  0  0  0  0  0  0  0  0  0  0  0  0  # atno 17395 bound_to 11000

$$$$
