AV-unprocessed.smi:438|AV-procd|sdf|2571|dock6
  -GOLD-   2262022553D 1   1.00000     0.00000
 Structure written by MMmdl.
 47 48  0  0  0  0  0  0  0  0  2 V2000
  148.9335  133.2968  153.4767 C   0  0  0  0  0  0  0  0  0  0  0  0
  149.7419  133.4126  154.7566 C   0  0  0  0  0  0  0  0  0  0  0  0
  149.9432  134.7173  155.2381 N   0  0  0  0  0  0  0  0  0  0  0  0
  150.6124  134.8976  156.3111 C   0  0  0  0  0  0  0  0  0  0  0  0
  150.8203  136.5965  156.8776 S   0  0  0  0  0  0  0  0  0  0  0  0
  151.6338  137.4400  155.4873 C   0  0  0  0  0  0  0  0  0  0  0  0
  152.1302  138.8308  155.8709 C   0  0  0  0  0  0  0  0  0  0  0  0
  152.7183  139.5238  155.0411 O   0  0  0  0  0  0  0  0  0  0  0  0
  151.8892  139.2177  157.1358 N   0  0  0  0  0  0  0  0  0  0  0  0
  152.2940  140.4700  157.7801 C   0  0  2  0  0  0  0  0  0  0  0  0
  152.8645  140.2315  159.1956 C   0  0  0  0  0  0  0  0  0  0  0  0
  153.3679  141.5413  159.8196 C   0  0  0  0  0  0  0  0  0  0  0  0
  152.2574  142.6017  159.8410 C   0  0  0  0  0  0  0  0  0  0  0  0
  151.6965  142.8491  158.4314 C   0  0  0  0  0  0  0  0  0  0  0  0
  151.1771  141.5495  157.7826 C   0  0  1  0  0  0  0  0  0  0  0  0
  150.6212  141.8330  156.3755 C   0  0  0  0  0  0  0  0  0  0  0  0
  151.1731  133.8760  157.0456 N   0  5  0  0  0  0  0  0  0  0  0  0
  151.0223  132.5816  156.6448 C   0  0  0  0  0  0  0  0  0  0  0  0
  151.5091  131.6415  157.2720 O   0  0  0  0  0  0  0  0  0  0  0  0
  150.2527  132.3323  155.4134 C   0  0  0  0  0  0  0  0  0  0  0  0
  150.0509  130.8917  154.9493 C   0  0  0  0  0  0  0  0  0  0  0  0
  151.3814  130.1406  154.7983 C   0  0  0  0  0  0  0  0  0  0  0  0
  151.1390  128.8113  154.3908 O   0  0  0  0  0  0  0  0  0  0  0  0
  149.4642  132.6952  152.7387 H   0  0  0  0  0  0  0  0  0  0  0  0
  148.7484  134.2773  153.0365 H   0  0  0  0  0  0  0  0  0  0  0  0
  147.9690  132.8307  153.6786 H   0  0  0  0  0  0  0  0  0  0  0  0
  150.9353  137.5269  154.6542 H   0  0  0  0  0  0  0  0  0  0  0  0
  152.4756  136.8369  155.1442 H   0  0  0  0  0  0  0  0  0  0  0  0
  151.3948  138.5614  157.7228 H   0  0  0  0  0  0  0  0  0  0  0  0
  153.1110  140.8494  157.1648 H   0  0  0  0  0  0  0  0  0  0  0  0
  152.1042  139.8002  159.8473 H   0  0  0  0  0  0  0  0  0  0  0  0
  153.6807  139.5096  159.1534 H   0  0  0  0  0  0  0  0  0  0  0  0
  153.7259  141.3570  160.8329 H   0  0  0  0  0  0  0  0  0  0  0  0
  154.2214  141.9149  159.2525 H   0  0  0  0  0  0  0  0  0  0  0  0
  151.4536  142.2769  160.5029 H   0  0  0  0  0  0  0  0  0  0  0  0
  152.6423  143.5337  160.2560 H   0  0  0  0  0  0  0  0  0  0  0  0
  150.8940  143.5855  158.4858 H   0  0  0  0  0  0  0  0  0  0  0  0
  152.4742  143.2886  157.8053 H   0  0  0  0  0  0  0  0  0  0  0  0
  150.3483  141.1926  158.3949 H   0  0  0  0  0  0  0  0  0  0  0  0
  151.4078  142.1695  155.6996 H   0  0  0  0  0  0  0  0  0  0  0  0
  149.8557  142.6088  156.4067 H   0  0  0  0  0  0  0  0  0  0  0  0
  150.1616  140.9471  155.9371 H   0  0  0  0  0  0  0  0  0  0  0  0
  149.5145  130.8767  154.0009 H   0  0  0  0  0  0  0  0  0  0  0  0
  149.4004  130.3690  155.6520 H   0  0  0  0  0  0  0  0  0  0  0  0
  152.0164  130.6279  154.0585 H   0  0  0  0  0  0  0  0  0  0  0  0
  151.9288  130.1275  155.7412 H   0  0  0  0  0  0  0  0  0  0  0  0
  151.6179  128.6515  153.5923 H   0  0  0  0  0  0  0  0  0  0  0  0
  1 24  1  0  0  0  0
  1 25  1  0  0  0  0
  1 26  1  0  0  0  0
  1  2  1  0  0  0  0
  2 20  2  0  0  0  0
  2  3  1  0  0  0  0
  3  4  2  0  0  0  0
  4  5  1  0  0  0  0
  4 17  1  0  0  0  0
  5  6  1  0  0  0  0
  6  7  1  0  0  0  0
  6 27  1  0  0  0  0
  6 28  1  0  0  0  0
  7  8  2  0  0  0  0
  7  9  1  0  0  0  0
  9 10  1  0  0  0  0
  9 29  1  0  0  0  0
 10 15  1  0  0  0  0
 10 11  1  0  0  0  0
 10 30  1  0  0  0  0
 11 12  1  0  0  0  0
 11 31  1  0  0  0  0
 11 32  1  0  0  0  0
 12 13  1  0  0  0  0
 12 33  1  0  0  0  0
 12 34  1  0  0  0  0
 13 14  1  0  0  0  0
 13 35  1  0  0  0  0
 13 36  1  0  0  0  0
 14 15  1  0  0  0  0
 14 37  1  0  0  0  0
 14 38  1  0  0  0  0
 15 16  1  0  0  0  0
 15 39  1  0  0  0  0
 16 40  1  0  0  0  0
 16 41  1  0  0  0  0
 16 42  1  0  0  0  0
 17 18  1  0  0  0  0
 18 19  2  0  0  0  0
 18 20  1  0  0  0  0
 20 21  1  0  0  0  0
 21 22  1  0  0  0  0
 21 43  1  0  0  0  0
 21 44  1  0  0  0  0
 22 23  1  0  0  0  0
 22 45  1  0  0  0  0
 22 46  1  0  0  0  0
 23 47  1  0  0  0  0
M  CHG  1  17  -1
M  END
> <s_m_source_file>
AV-unprocessed.smi

> <i_m_source_file_index>
438

> <i_lp_mmshare_version>
43012

> <i_f3d_flags>
0

> <s_epik_input>
W09IXVtDSDJdW0NIMl1jMWMoW09IXSluYyhuYzFbQ0gzXSlTW0NIMl1DKD1PKVtOSF1bQ0BASF0yW0NIMl1bQ0gyXVtDSDJdW0NIMl1bQ0BIXTJbQ0gzXQ==

> <s_epik_cmdline>
J2VwaWtfcHl0aG9uJywgJy1waCcsICc3LjAnLCAnLXRuJywgJzgnLCAnLW1hJywgJzIwMCcsICctbWV0YWxfYmluZGluZycsICctaW1hZScsICc8aW5maWxlLm1hZT4nLCAnLW9tYWUnLCAnPG91dGZpbGUubWFlPic=

> <r_lp_tautomer_probability>
1

> <r_epik_Ionization_Penalty>
3.69231

> <r_epik_Ionization_Penalty_Charging>
0.00434774

> <r_epik_Ionization_Penalty_Neutral>
3.68796

> <r_epik_State_Penalty>
2.13826

> <r_epik_Charging_Adjusted_Penalty>
2.14261

> <i_epik_Tot_Q>
-1

> <i_epik_Tot_abs_Q>
1

> <r_epik_Metal_State_Penalty>
0.260979

> <b_epik_Metal_Only>
0

> <s_lp_Force_Field>
OPLS_2005

> <r_lp_Energy>
19.4347

> <b_lp_Chiralities_Consistent>
1

> <s_lp_Variant>
AV-unprocessed.smi:438-9

> <Gold.Version>
5.8.1

> <Gold.Id.Protein>
6NUR|6NUR_protein|mol2

> <Gold.PLP.Fitness>
49.4944

> <Gold.PLP.PLP>
-41.9128

> <Gold.PLP.part.hbond>
-3.9679

> <Gold.PLP.part.metal>
0.0000

> <Gold.PLP.part.buried>
-6.3576

> <Gold.PLP.part.nonpolar>
-32.2504

> <Gold.PLP.part.repulsive>
0.1996

> <Gold.PLP.ligand.clash>
0.0000

> <Gold.PLP.ligand.torsion>
0.3286

> <Gold.PLP.Chemscore.Hbond>
2.7182

> <Gold.PLP.Chemscore.CHOScore>
0.0000

> <Gold.PLP.Chemscore.Metal>
0.0000

> <Gold.Chemscore.Hbonds>
donor molecule, donor type, donor heavy atom, donor atom, acceptor molecule, acceptor atom, score
      L1  H    23    47       P1 10737  0.78
      P1  H  6896  6908       L1    17  0.62
      P1  H  7989  7998       L1     8  0.21
      P1  H  7997  8010       L1     8  0.98

> <Gold.PLP.Chemscore.Internal.Correction>
0.0842

> <Gold.Rescore>
     Score         DG    S(hbond)    S(metal)    S(lipo)     H(rot)  DE(clash)    DE(int)     intcor
     15.62     -17.21       2.50        0.00      90.01       2.79       0.01       1.58       ----

> <Gold.Chemscore.Fitness>
15.6221

> <Gold.Chemscore.DG>
-17.2096

> <Gold.Chemscore.ZeroCoef>
-5.4800

> <Gold.Chemscore.Hbond>
2.4994

> <Gold.Chemscore.Metal>
0.0000

> <Gold.Chemscore.Lipo>
90.0083

> <Gold.Chemscore.Internal_Hbond>
0.0000

> <Gold.Chemscore.DEClash>
0.0073

> <Gold.Chemscore.DEInternal>
1.5801

> <Gold.Chemscore.Rot>
2.7927

> <Gold.Chemscore.Internal.Correction>
   9.000000E+99

> <Gold.Chemscore.Hbonds>
donor molecule, donor type, donor heavy atom, donor atom, acceptor molecule, acceptor atom, score
      L1  H    23    47       P1 10737  0.69
      P1  H  6896  6908       L1    17  0.07
      P1  H  7989  7998       L1     8  0.20
      P1  H  7997  8010       L1     8  0.55

> <Gold.Chemscore.Hbond.Weighted>
-8.3478

> <Gold.Chemscore.Metal.Weighted>
-0.0000

> <Gold.Chemscore.Lipo.Weighted>
-10.5310

> <Gold.Chemscore.Internal_Hbond.Weighted>
0.0000

> <Gold.Chemscore.DEClash.Weighted>
0.0073

> <Gold.Chemscore.DEInternal.Weighted>
1.5801

> <Gold.Chemscore.Rot.Weighted>
7.1492

> <Gold.Chemscore.Internal.Correction.Weighted>
   9.000000E+99

> <Gold.Protein.RotatedTorsions>
[ 6907 6896 6895 6894 ] final  103.19 input  -60.11 | X-H torsion
[ 7974 7965 7964 7962 ] final    6.71 input  175.53 | X-H torsion
[ 8008 7997 7996 7995 ] final  101.79 input   59.86 | X-H torsion
[ 10167 10162 10161 10158 ] final  -50.55 input  -65.29 | X-H torsion
[ 10718 10713 10712 10709 ] final   42.35 input   66.30 | X-H torsion
[ 10763 10752 10751 10750 ] final  155.98 input  -60.55 | X-H torsion
[ 11005 11000 10999 10996 ] final -135.58 input  -57.11 | X-H torsion

> <Gold.Protein.ActiveResidues>
 VAL166  LYS551  ARG553  GLY616  TRP617  ASP618  TYR619  PRO620  LYS621  CYS622 
 ASP623  PHE694  ASN695  SER759  ASP760  ASP761  ALA762  ILE779  LEU786  VAL792 
 PHE793  MET794  SER795  GLU796  ALA797  LYS798  CYS799  TRP800  GLU811  SER814 

> <Gold.Protein.RotatedAtoms>
  152.5302  133.9862  159.7829 H   0  0  0  0  0  0  0  0  0  0  0  0  # atno 6907 bound_to 6896
  151.0107  133.5960  159.2690 H   0  0  0  0  0  0  0  0  0  0  0  0  # atno 6908 bound_to 6896
  151.3036  135.0782  159.9300 H   0  0  0  0  0  0  0  0  0  0  0  0  # atno 6909 bound_to 6896
  146.2433  140.0193  142.8399 H   0  0  0  0  0  0  0  0  0  0  0  0  # atno 7974 bound_to 7965
  156.1332  140.3192  155.8381 H   0  0  0  0  0  0  0  0  0  0  0  0  # atno 8008 bound_to 7997
  155.4293  140.0517  157.3037 H   0  0  0  0  0  0  0  0  0  0  0  0  # atno 8009 bound_to 7997
  154.4916  140.2094  155.9549 H   0  0  0  0  0  0  0  0  0  0  0  0  # atno 8010 bound_to 7997
  140.6632  143.2653  151.4375 H   0  0  0  0  0  0  0  0  0  0  0  0  # atno 10167 bound_to 10162
  157.4038  130.7875  149.7371 H   0  0  0  0  0  0  0  0  0  0  0  0  # atno 10718 bound_to 10713
  154.1770  135.2801  155.3064 H   0  0  0  0  0  0  0  0  0  0  0  0  # atno 10763 bound_to 10752
  154.6032  135.5523  153.7399 H   0  0  0  0  0  0  0  0  0  0  0  0  # atno 10764 bound_to 10752
  153.0149  135.6397  154.1909 H   0  0  0  0  0  0  0  0  0  0  0  0  # atno 10765 bound_to 10752
  140.8885  134.1842  157.4544 H   0  0  0  0  0  0  0  0  0  0  0  0  # atno 11005 bound_to 11000
  145.1256  140.9488  143.4575 LP  0  0  0  0  0  0  0  0  0  0  0  0  # atno 17320 bound_to 7965
  145.0438  139.3238  143.5963 LP  0  0  0  0  0  0  0  0  0  0  0  0  # atno 17321 bound_to 7965
  139.5872  144.1578  152.2044 LP  0  0  0  0  0  0  0  0  0  0  0  0  # atno 17342 bound_to 10162
  140.0921  144.5612  150.7047 LP  0  0  0  0  0  0  0  0  0  0  0  0  # atno 17343 bound_to 10162
  155.9831  130.4004  150.3383 LP  0  0  0  0  0  0  0  0  0  0  0  0  # atno 17370 bound_to 10713
  157.1514  131.0322  151.2883 LP  0  0  0  0  0  0  0  0  0  0  0  0  # atno 17371 bound_to 10713
  139.8727  134.9848  156.5255 LP  0  0  0  0  0  0  0  0  0  0  0  0  # atno 17394 bound_to 11000
  140.8376  133.8230  155.9043 LP  0  0  0  0  0  0  0  0  0  0  0  0  # atno 17395 bound_to 11000

$$$$
