AV-unprocessed.smi:644|AV-procd|sdf|3158|dock8
  -GOLD-   22720 0 83D 1   1.00000     0.00000
 Structure written by MMmdl.
 38 40  0  0  0  0  0  0  0  0  2 V2000
  151.5846  144.5011  160.1657 C   0  0  0  0  0  0  0  0  0  0  0  0
  151.4816  143.3578  159.1705 C   0  0  0  0  0  0  0  0  0  0  0  0
  150.6397  143.5156  158.0462 C   0  0  0  0  0  0  0  0  0  0  0  0
  150.5651  142.4515  157.1551 C   0  0  0  0  0  0  0  0  0  0  0  0
  149.8374  142.2950  155.9731 N   0  3  0  0  0  0  0  0  0  0  0  0
  150.0888  141.0653  155.4440 C   0  0  0  0  0  0  0  0  0  0  0  0
  150.9672  140.4359  156.2709 N   0  0  0  0  0  0  0  0  0  0  0  0
  151.5602  139.0958  156.1763 C   0  0  0  0  0  0  0  0  0  0  0  0
  150.6421  138.0876  155.4589 C   0  0  1  0  0  0  0  0  0  0  0  0
  151.4219  137.0228  154.9489 O   0  0  0  0  0  0  0  0  0  0  0  0
  149.5620  137.5253  156.3962 C   0  0  0  0  0  0  0  0  0  0  0  0
  150.2819  136.5640  157.7631 S   0  0  0  0  0  0  0  0  0  0  0  0
  149.2164  137.0509  159.0825 C   0  0  0  0  0  0  0  0  0  0  0  0
  149.6220  137.5009  160.2788 N   0  0  0  0  0  0  0  0  0  0  0  0
  148.5581  137.8079  161.1165 N   0  0  0  0  0  0  0  0  0  0  0  0
  147.3855  137.5781  160.5209 C   0  0  0  0  0  0  0  0  0  0  0  0
  147.4704  136.9648  158.8801 S   0  0  0  0  0  0  0  0  0  0  0  0
  151.2927  141.2619  157.3511 C   0  0  0  0  0  0  0  0  0  0  0  0
  152.1272  141.0894  158.4524 C   0  0  0  0  0  0  0  0  0  0  0  0
  152.2159  142.1598  159.3709 C   0  0  0  0  0  0  0  0  0  0  0  0
  153.1174  142.0004  160.5834 C   0  0  0  0  0  0  0  0  0  0  0  0
  150.9588  145.3441  159.8714 H   0  0  0  0  0  0  0  0  0  0  0  0
  152.6127  144.8577  160.2344 H   0  0  0  0  0  0  0  0  0  0  0  0
  151.2627  144.1775  161.1558 H   0  0  0  0  0  0  0  0  0  0  0  0
  150.0771  144.4241  157.8878 H   0  0  0  0  0  0  0  0  0  0  0  0
  149.6645  140.6601  154.5367 H   0  0  0  0  0  0  0  0  0  0  0  0
  152.5072  139.1929  155.6432 H   0  0  0  0  0  0  0  0  0  0  0  0
  151.8050  138.7561  157.1834 H   0  0  0  0  0  0  0  0  0  0  0  0
  150.1562  138.5810  154.6164 H   0  0  0  0  0  0  0  0  0  0  0  0
  151.0566  136.7560  154.1187 H   0  0  0  0  0  0  0  0  0  0  0  0
  148.9523  138.3347  156.8003 H   0  0  0  0  0  0  0  0  0  0  0  0
  148.8964  136.8707  155.8323 H   0  0  0  0  0  0  0  0  0  0  0  0
  146.4648  137.7708  161.0511 H   0  0  0  0  0  0  0  0  0  0  0  0
  152.6841  140.1766  158.6041 H   0  0  0  0  0  0  0  0  0  0  0  0
  153.6001  141.0228  160.5963 H   0  0  0  0  0  0  0  0  0  0  0  0
  152.5423  142.0992  161.5044 H   0  0  0  0  0  0  0  0  0  0  0  0
  153.9009  142.7587  160.5806 H   0  0  0  0  0  0  0  0  0  0  0  0
  149.2124  142.9736  155.5573 H   0  0  0  0  0  0  0  0  0  0  0  0
  1  2  1  0  0  0  0
  1 22  1  0  0  0  0
  1 23  1  0  0  0  0
  1 24  1  0  0  0  0
  2 20  1  0  0  0  0
  2  3  2  0  0  0  0
  3  4  1  0  0  0  0
  3 25  1  0  0  0  0
  4 18  2  0  0  0  0
  4  5  1  0  0  0  0
  5  6  2  0  0  0  0
  5 38  1  0  0  0  0
  6  7  1  0  0  0  0
  6 26  1  0  0  0  0
  7  8  1  0  0  0  0
  7 18  1  0  0  0  0
  8  9  1  0  0  0  0
  8 27  1  0  0  0  0
  8 28  1  0  0  0  0
  9 10  1  0  0  0  0
  9 11  1  0  0  0  0
  9 29  1  0  0  0  0
 10 30  1  0  0  0  0
 11 12  1  0  0  0  0
 11 31  1  0  0  0  0
 11 32  1  0  0  0  0
 12 13  1  0  0  0  0
 13 17  1  0  0  0  0
 13 14  2  0  0  0  0
 14 15  1  0  0  0  0
 15 16  2  0  0  0  0
 16 17  1  0  0  0  0
 16 33  1  0  0  0  0
 18 19  1  0  0  0  0
 19 20  2  0  0  0  0
 19 34  1  0  0  0  0
 20 21  1  0  0  0  0
 21 35  1  0  0  0  0
 21 36  1  0  0  0  0
 21 37  1  0  0  0  0
M  CHG  1   5   1
M  END
> <s_m_source_file>
AV-unprocessed.smi

> <i_m_source_file_index>
644

> <i_lp_mmshare_version>
43012

> <i_f3d_flags>
0

> <s_epik_input>
W0NIM11jKFtjSF0xKWMoW0NIM10pW2NIXWMoYzEyKW4oW2NIXW4yKVtDSDJdW0NASF0oW09IXSlbQ0gyXVNjM25uW2NIXXMz

> <s_epik_cmdline>
J2VwaWtfcHl0aG9uJywgJy1waCcsICc3LjAnLCAnLXRuJywgJzgnLCAnLW1hJywgJzIwMCcsICctbWV0YWxfYmluZGluZycsICctaW1hZScsICc8aW5maWxlLm1hZT4nLCAnLW9tYWUnLCAnPG91dGZpbGUubWFlPic=

> <r_lp_tautomer_probability>
1

> <r_epik_Ionization_Penalty>
1.07492

> <r_epik_Ionization_Penalty_Charging>
1.07491

> <r_epik_Ionization_Penalty_Neutral>
3.80549e-06

> <r_epik_State_Penalty>
1.12982

> <r_epik_Charging_Adjusted_Penalty>
2.20473

> <i_epik_Tot_Q>
1

> <i_epik_Tot_abs_Q>
1

> <r_epik_Metal_State_Penalty>
1.2206

> <b_epik_Metal_Only>
0

> <s_lp_Force_Field>
OPLS_2005

> <r_lp_Energy>
12.6095

> <b_lp_Chiralities_Consistent>
1

> <s_lp_Variant>
AV-unprocessed.smi:644-4

> <Gold.Version>
5.8.1

> <Gold.Id.Protein>
6NUR|6NUR_protein|mol2

> <Gold.PLP.Fitness>
55.6328

> <Gold.PLP.PLP>
-40.9026

> <Gold.PLP.part.hbond>
-5.0000

> <Gold.PLP.part.metal>
0.0000

> <Gold.PLP.part.buried>
-5.5707

> <Gold.PLP.part.nonpolar>
-30.7046

> <Gold.PLP.part.repulsive>
0.1179

> <Gold.PLP.ligand.clash>
0.0000

> <Gold.PLP.ligand.torsion>
0.9541

> <Gold.PLP.Chemscore.Hbond>
5.5264

> <Gold.PLP.Chemscore.CHOScore>
0.0000

> <Gold.PLP.Chemscore.Metal>
0.0000

> <Gold.Chemscore.Hbonds>
donor molecule, donor type, donor heavy atom, donor atom, acceptor molecule, acceptor atom, score
      L1  H     5    38       P1  8028  1.57

> <Gold.PLP.Chemscore.Internal.Correction>
0.0594

> <Gold.Rescore>
     Score         DG    S(hbond)    S(metal)    S(lipo)     H(rot)  DE(clash)    DE(int)     intcor
     18.78     -20.08       2.78        0.00     100.69       2.53       0.30       0.99       ----

> <Gold.Chemscore.Fitness>
18.7837

> <Gold.Chemscore.DG>
-20.0785

> <Gold.Chemscore.ZeroCoef>
-5.4800

> <Gold.Chemscore.Hbond>
2.7839

> <Gold.Chemscore.Metal>
0.0000

> <Gold.Chemscore.Lipo>
100.6894

> <Gold.Chemscore.Internal_Hbond>
0.0000

> <Gold.Chemscore.DEClash>
0.3000

> <Gold.Chemscore.DEInternal>
0.9948

> <Gold.Chemscore.Rot>
2.5315

> <Gold.Chemscore.Internal.Correction>
   9.000000E+99

> <Gold.Chemscore.Hbonds>
donor molecule, donor type, donor heavy atom, donor atom, acceptor molecule, acceptor atom, score
      L1  H     5    38       P1  8028  0.78

> <Gold.Chemscore.Hbond.Weighted>
-9.2984

> <Gold.Chemscore.Metal.Weighted>
-0.0000

> <Gold.Chemscore.Lipo.Weighted>
-11.7807

> <Gold.Chemscore.Internal_Hbond.Weighted>
0.0000

> <Gold.Chemscore.DEClash.Weighted>
0.3000

> <Gold.Chemscore.DEInternal.Weighted>
0.9948

> <Gold.Chemscore.Rot.Weighted>
6.4805

> <Gold.Chemscore.Internal.Correction.Weighted>
   9.000000E+99

> <Gold.Protein.RotatedTorsions>
[ 6907 6896 6895 6894 ] final  -29.09 input  -60.11 | X-H torsion
[ 7974 7965 7964 7962 ] final   69.58 input  175.53 | X-H torsion
[ 8008 7997 7996 7995 ] final -156.17 input   59.86 | X-H torsion
[ 10167 10162 10161 10158 ] final   20.16 input  -65.29 | X-H torsion
[ 10718 10713 10712 10709 ] final -104.46 input   66.30 | X-H torsion
[ 10763 10752 10751 10750 ] final  -76.92 input  -60.55 | X-H torsion
[ 11005 11000 10999 10996 ] final   63.21 input  -57.11 | X-H torsion

> <Gold.Protein.ActiveResidues>
 VAL166  LYS551  ARG553  GLY616  TRP617  ASP618  TYR619  PRO620  LYS621  CYS622 
 ASP623  PHE694  ASN695  SER759  ASP760  ASP761  ALA762  ILE779  LEU786  VAL792 
 PHE793  MET794  SER795  GLU796  ALA797  LYS798  CYS799  TRP800  GLU811  SER814 

> <Gold.Protein.RotatedAtoms>
  151.1239  135.0094  159.8551 H   0  0  0  0  0  0  0  0  0  0  0  0  # atno 6907 bound_to 6896
  152.5449  134.1690  159.8599 H   0  0  0  0  0  0  0  0  0  0  0  0  # atno 6908 bound_to 6896
  151.1750  133.4715  159.2627 H   0  0  0  0  0  0  0  0  0  0  0  0  # atno 6909 bound_to 6896
  145.7886  139.2923  143.1223 H   0  0  0  0  0  0  0  0  0  0  0  0  # atno 7974 bound_to 7965
  155.7131  140.0781  157.2363 H   0  0  0  0  0  0  0  0  0  0  0  0  # atno 8008 bound_to 7997
  154.4055  140.1626  156.2372 H   0  0  0  0  0  0  0  0  0  0  0  0  # atno 8009 bound_to 7997
  155.9265  140.3394  155.6217 H   0  0  0  0  0  0  0  0  0  0  0  0  # atno 8010 bound_to 7997
  140.5524  143.9485  150.6587 H   0  0  0  0  0  0  0  0  0  0  0  0  # atno 10167 bound_to 10162
  156.0305  130.5516  150.7400 H   0  0  0  0  0  0  0  0  0  0  0  0  # atno 10718 bound_to 10713
  154.5062  135.5781  153.6569 H   0  0  0  0  0  0  0  0  0  0  0  0  # atno 10763 bound_to 10752
  152.9888  135.6147  154.2939 H   0  0  0  0  0  0  0  0  0  0  0  0  # atno 10764 bound_to 10752
  154.2850  135.2850  155.2660 H   0  0  0  0  0  0  0  0  0  0  0  0  # atno 10765 bound_to 10752
  140.0040  134.6398  155.9885 H   0  0  0  0  0  0  0  0  0  0  0  0  # atno 11005 bound_to 11000
  146.0000  140.8529  143.0023 LP  0  0  0  0  0  0  0  0  0  0  0  0  # atno 17320 bound_to 7965
  144.6785  140.2338  143.7352 LP  0  0  0  0  0  0  0  0  0  0  0  0  # atno 17321 bound_to 7965
  140.2914  143.3321  152.1058 LP  0  0  0  0  0  0  0  0  0  0  0  0  # atno 17342 bound_to 10162
  139.5033  144.6753  151.6144 LP  0  0  0  0  0  0  0  0  0  0  0  0  # atno 17343 bound_to 10162
  157.4971  131.0915  151.0359 LP  0  0  0  0  0  0  0  0  0  0  0  0  # atno 17370 bound_to 10713
  157.0750  130.5879  149.5409 LP  0  0  0  0  0  0  0  0  0  0  0  0  # atno 17371 bound_to 10713
  141.1663  133.6537  156.4491 LP  0  0  0  0  0  0  0  0  0  0  0  0  # atno 17394 bound_to 11000
  140.4676  134.6783  157.5114 LP  0  0  0  0  0  0  0  0  0  0  0  0  # atno 17395 bound_to 11000

$$$$
