AV-unprocessed.smi:1328|AV-procd|sdf|5482|dock10
  -GOLD-   22720 5 53D 1   1.00000     0.00000
 Structure written by MMmdl.
 38 39  0  0  0  0  0  0  0  0  1 V2000
  152.6205  139.1180  155.4672 C   0  0  0  0  0  0  0  0  0  0  0  0
  151.2482  139.3026  154.8852 C   0  0  0  0  0  0  0  0  0  0  0  0
  150.7143  138.3393  154.1529 N   0  0  0  0  0  0  0  0  0  0  0  0
  149.4534  138.8050  153.7675 O   0  0  0  0  0  0  0  0  0  0  0  0
  149.2767  140.0462  154.2878 C   0  0  0  0  0  0  0  0  0  0  0  0
  147.9784  140.7191  153.9948 C   0  0  0  0  0  0  0  0  0  0  0  0
  150.3777  140.4238  155.0059 C   0  0  0  0  0  0  0  0  0  0  0  0
  150.6160  141.7106  155.7521 C   0  0  0  0  0  0  0  0  0  0  0  0
  150.7002  141.4240  157.2512 C   0  0  0  0  0  0  0  0  0  0  0  0
  149.6831  141.1291  157.8785 O   0  0  0  0  0  0  0  0  0  0  0  0
  151.9198  141.5062  157.8060 N   0  0  0  0  0  0  0  0  0  0  0  0
  152.2516  141.2236  159.2009 C   0  0  1  0  0  0  0  0  0  0  0  0
  153.3704  140.1724  159.2326 C   0  0  0  0  0  0  0  0  0  0  0  0
  152.6603  142.5167  159.9365 C   0  0  1  0  0  0  0  0  0  0  0  0
  151.8821  143.7700  159.5316 C   0  0  0  0  0  0  0  0  0  0  0  0
  152.0086  144.6763  160.7455 C   0  0  0  0  0  0  0  0  0  0  0  0
  152.4479  143.7336  161.8694 C   0  0  0  0  0  0  0  0  0  0  0  0
  152.3585  142.4259  161.3200 O   0  0  0  0  0  0  0  0  0  0  0  0
  153.3543  139.7171  154.9282 H   0  0  0  0  0  0  0  0  0  0  0  0
  152.9422  138.0771  155.4208 H   0  0  0  0  0  0  0  0  0  0  0  0
  152.6469  139.4221  156.5134 H   0  0  0  0  0  0  0  0  0  0  0  0
  147.3441  140.7317  154.8813 H   0  0  0  0  0  0  0  0  0  0  0  0
  147.4387  140.2042  153.1996 H   0  0  0  0  0  0  0  0  0  0  0  0
  148.1395  141.7500  153.6794 H   0  0  0  0  0  0  0  0  0  0  0  0
  151.5298  142.2018  155.4145 H   0  0  0  0  0  0  0  0  0  0  0  0
  149.8099  142.4247  155.5810 H   0  0  0  0  0  0  0  0  0  0  0  0
  152.6896  141.7634  157.2055 H   0  0  0  0  0  0  0  0  0  0  0  0
  151.3841  140.7945  159.7057 H   0  0  0  0  0  0  0  0  0  0  0  0
  153.6242  139.8977  160.2567 H   0  0  0  0  0  0  0  0  0  0  0  0
  154.2775  140.5420  158.7533 H   0  0  0  0  0  0  0  0  0  0  0  0
  153.0677  139.2613  158.7156 H   0  0  0  0  0  0  0  0  0  0  0  0
  153.7315  142.6956  159.8224 H   0  0  0  0  0  0  0  0  0  0  0  0
  152.2627  144.2280  158.6183 H   0  0  0  0  0  0  0  0  0  0  0  0
  150.8313  143.5237  159.3720 H   0  0  0  0  0  0  0  0  0  0  0  0
  152.7569  145.4530  160.5847 H   0  0  0  0  0  0  0  0  0  0  0  0
  151.0604  145.1651  160.9708 H   0  0  0  0  0  0  0  0  0  0  0  0
  153.4815  143.9344  162.1550 H   0  0  0  0  0  0  0  0  0  0  0  0
  151.8252  143.8248  162.7595 H   0  0  0  0  0  0  0  0  0  0  0  0
  1  2  1  0  0  0  0
  1 19  1  0  0  0  0
  1 20  1  0  0  0  0
  1 21  1  0  0  0  0
  2  7  1  0  0  0  0
  2  3  2  0  0  0  0
  3  4  1  0  0  0  0
  4  5  1  0  0  0  0
  5  6  1  0  0  0  0
  5  7  2  0  0  0  0
  6 22  1  0  0  0  0
  6 23  1  0  0  0  0
  6 24  1  0  0  0  0
  7  8  1  0  0  0  0
  8  9  1  0  0  0  0
  8 25  1  0  0  0  0
  8 26  1  0  0  0  0
  9 10  2  0  0  0  0
  9 11  1  0  0  0  0
 11 12  1  0  0  0  0
 11 27  1  0  0  0  0
 12 13  1  0  0  0  0
 12 14  1  0  0  0  0
 12 28  1  0  0  0  0
 13 29  1  0  0  0  0
 13 30  1  0  0  0  0
 13 31  1  0  0  0  0
 14 18  1  0  0  0  0
 14 15  1  0  0  0  0
 14 32  1  0  0  0  0
 15 16  1  0  0  0  0
 15 33  1  0  0  0  0
 15 34  1  0  0  0  0
 16 17  1  0  0  0  0
 16 35  1  0  0  0  0
 16 36  1  0  0  0  0
 17 18  1  0  0  0  0
 17 37  1  0  0  0  0
 17 38  1  0  0  0  0
M  END
> <s_m_source_file>
AV-unprocessed.smi

> <i_m_source_file_index>
1328

> <i_lp_mmshare_version>
43012

> <i_f3d_flags>
0

> <s_epik_input>
W0NIM11jMW5vYyhbQ0gzXSljMVtDSDJdQyg9TylbTkhdW0NASF0oW0NIM10pW0NAQEhdMltDSDJdW0NIMl1bQ0gyXU8y

> <s_epik_cmdline>
J2VwaWtfcHl0aG9uJywgJy1waCcsICc3LjAnLCAnLXRuJywgJzgnLCAnLW1hJywgJzIwMCcsICctbWV0YWxfYmluZGluZycsICctaW1hZScsICc8aW5maWxlLm1hZT4nLCAnLW9tYWUnLCAnPG91dGZpbGUubWFlPic=

> <r_lp_tautomer_probability>
1

> <r_epik_Ionization_Penalty>
2.66156e-08

> <r_epik_Ionization_Penalty_Charging>
0

> <r_epik_Ionization_Penalty_Neutral>
2.66156e-08

> <r_epik_State_Penalty>
-0

> <r_epik_Charging_Adjusted_Penalty>
0

> <i_epik_Tot_Q>
0

> <i_epik_Tot_abs_Q>
0

> <r_epik_Metal_State_Penalty>
-0

> <b_epik_Metal_Only>
0

> <s_lp_Force_Field>
OPLS_2005

> <r_lp_Energy>
12.2386

> <b_lp_Chiralities_Consistent>
1

> <s_lp_Variant>
AV-unprocessed.smi:1328-4

> <Gold.Version>
5.8.1

> <Gold.Id.Protein>
6NUR|6NUR_protein|mol2

> <Gold.PLP.Fitness>
37.2268

> <Gold.PLP.PLP>
-38.7655

> <Gold.PLP.part.hbond>
-0.0532

> <Gold.PLP.part.metal>
0.0000

> <Gold.PLP.part.buried>
-4.8693

> <Gold.PLP.part.nonpolar>
-33.4350

> <Gold.PLP.part.repulsive>
1.0581

> <Gold.PLP.ligand.clash>
0.0000

> <Gold.PLP.ligand.torsion>
0.7838

> <Gold.PLP.Chemscore.Hbond>
0.0000

> <Gold.PLP.Chemscore.CHOScore>
0.0000

> <Gold.PLP.Chemscore.Metal>
0.0000

> <Gold.PLP.Chemscore.Internal.Correction>
0.0288

> <Gold.Rescore>
     Score         DG    S(hbond)    S(metal)    S(lipo)     H(rot)  DE(clash)    DE(int)     intcor
     13.47     -14.22       0.00        0.00     107.87       1.52       0.18       0.57       ----

> <Gold.Chemscore.Fitness>
13.4727

> <Gold.Chemscore.DG>
-14.2204

> <Gold.Chemscore.ZeroCoef>
-5.4800

> <Gold.Chemscore.Hbond>
0.0000

> <Gold.Chemscore.Metal>
0.0000

> <Gold.Chemscore.Lipo>
107.8728

> <Gold.Chemscore.Internal_Hbond>
0.0000

> <Gold.Chemscore.DEClash>
0.1824

> <Gold.Chemscore.DEInternal>
0.5652

> <Gold.Chemscore.Rot>
1.5159

> <Gold.Chemscore.Internal.Correction>
   9.000000E+99

> <Gold.Chemscore.Hbond.Weighted>
-0.0000

> <Gold.Chemscore.Metal.Weighted>
-0.0000

> <Gold.Chemscore.Lipo.Weighted>
-12.6211

> <Gold.Chemscore.Internal_Hbond.Weighted>
0.0000

> <Gold.Chemscore.DEClash.Weighted>
0.1824

> <Gold.Chemscore.DEInternal.Weighted>
0.5652

> <Gold.Chemscore.Rot.Weighted>
3.8807

> <Gold.Chemscore.Internal.Correction.Weighted>
   9.000000E+99

> <Gold.Protein.RotatedTorsions>
[ 6907 6896 6895 6894 ] final  -55.43 input  -60.11 | X-H torsion
[ 7974 7965 7964 7962 ] final -171.58 input  175.53 | X-H torsion
[ 8008 7997 7996 7995 ] final   57.52 input   59.86 | X-H torsion
[ 10167 10162 10161 10158 ] final -135.59 input  -65.29 | X-H torsion
[ 10718 10713 10712 10709 ] final  -29.29 input   66.30 | X-H torsion
[ 10763 10752 10751 10750 ] final   46.50 input  -60.55 | X-H torsion
[ 11005 11000 10999 10996 ] final  116.39 input  -57.11 | X-H torsion

> <Gold.Protein.ActiveResidues>
 VAL166  LYS551  ARG553  GLY616  TRP617  ASP618  TYR619  PRO620  LYS621  CYS622 
 ASP623  PHE694  ASN695  SER759  ASP760  ASP761  ALA762  ILE779  LEU786  VAL792 
 PHE793  MET794  SER795  GLU796  ALA797  LYS798  CYS799  TRP800  GLU811  SER814 

> <Gold.Protein.RotatedAtoms>
  150.8252  134.7479  159.6806 H   0  0  0  0  0  0  0  0  0  0  0  0  # atno 6907 bound_to 6896
  152.4364  134.5675  159.9921 H   0  0  0  0  0  0  0  0  0  0  0  0  # atno 6908 bound_to 6896
  151.5850  133.3336  159.3052 H   0  0  0  0  0  0  0  0  0  0  0  0  # atno 6909 bound_to 6896
  144.7155  140.1900  143.6349 H   0  0  0  0  0  0  0  0  0  0  0  0  # atno 7974 bound_to 7965
  155.5352  140.3483  155.4435 H   0  0  0  0  0  0  0  0  0  0  0  0  # atno 8008 bound_to 7997
  156.0690  140.1358  156.9877 H   0  0  0  0  0  0  0  0  0  0  0  0  # atno 8009 bound_to 7997
  154.4518  140.0969  156.6616 H   0  0  0  0  0  0  0  0  0  0  0  0  # atno 8010 bound_to 7997
  139.8763  143.6894  152.2633 H   0  0  0  0  0  0  0  0  0  0  0  0  # atno 10167 bound_to 10162
  156.4144  130.4414  149.7229 H   0  0  0  0  0  0  0  0  0  0  0  0  # atno 10718 bound_to 10713
  152.9810  135.6006  154.3610 H   0  0  0  0  0  0  0  0  0  0  0  0  # atno 10763 bound_to 10752
  154.3291  135.2769  155.2482 H   0  0  0  0  0  0  0  0  0  0  0  0  # atno 10764 bound_to 10752
  154.4614  135.5965  153.6314 H   0  0  0  0  0  0  0  0  0  0  0  0  # atno 10765 bound_to 10752
  139.9040  134.9597  156.7191 H   0  0  0  0  0  0  0  0  0  0  0  0  # atno 11005 bound_to 11000
  145.8777  139.2306  143.1624 LP  0  0  0  0  0  0  0  0  0  0  0  0  # atno 17320 bound_to 7965
  146.0025  140.8508  143.0011 LP  0  0  0  0  0  0  0  0  0  0  0  0  # atno 17321 bound_to 7965
  139.7237  144.7597  151.0913 LP  0  0  0  0  0  0  0  0  0  0  0  0  # atno 17342 bound_to 10162
  140.7752  143.5175  150.9577 LP  0  0  0  0  0  0  0  0  0  0  0  0  # atno 17343 bound_to 10162
  156.4194  130.7761  151.2778 LP  0  0  0  0  0  0  0  0  0  0  0  0  # atno 17370 bound_to 10713
  157.7507  131.0187  150.3638 LP  0  0  0  0  0  0  0  0  0  0  0  0  # atno 17371 bound_to 10713
  140.7015  133.9302  155.8027 LP  0  0  0  0  0  0  0  0  0  0  0  0  # atno 17394 bound_to 11000
  141.0368  134.0678  157.3950 LP  0  0  0  0  0  0  0  0  0  0  0  0  # atno 17395 bound_to 11000

$$$$
