AV-unprocessed.smi:2360|AV-procd|sdf|9409|dock3
  -GOLD-   2272013 43D 1   1.00000     0.00000
 Structure written by MMmdl.
 34 35  0  0  0  0  0  0  0  0  1 V2000
  152.7152  138.6163  159.1106 C   0  0  0  0  0  0  0  0  0  0  0  0
  152.0080  139.4320  158.0427 C   0  0  0  0  0  0  0  0  0  0  0  0
  151.2372  140.5002  158.5107 N   0  0  0  0  0  0  0  0  0  0  0  0
  150.5951  141.2476  157.6736 C   0  0  0  0  0  0  0  0  0  0  0  0
  150.6461  141.0170  156.2893 N   0  0  0  0  0  0  0  0  0  0  0  0
  149.8681  141.9392  155.4447 C   0  0  0  0  0  0  0  0  0  0  0  0
  148.7760  141.2101  154.6307 C   0  0  2  0  0  0  0  0  0  0  0  0
  149.1776  141.1609  153.2756 O   0  0  0  0  0  0  0  0  0  0  0  0
  147.4305  141.9031  154.7841 C   0  0  0  0  0  0  0  0  0  0  0  0
  146.6765  141.7209  155.9633 C   0  0  0  0  0  0  0  0  0  0  0  0
  145.4340  142.3659  156.1187 C   0  0  0  0  0  0  0  0  0  0  0  0
  144.9391  143.1991  155.0971 C   0  0  0  0  0  0  0  0  0  0  0  0
  143.7445  143.8184  155.2484 F   0  0  0  0  0  0  0  0  0  0  0  0
  145.6888  143.3886  153.9197 C   0  0  0  0  0  0  0  0  0  0  0  0
  145.2169  144.1916  152.9367 F   0  0  0  0  0  0  0  0  0  0  0  0
  146.9314  142.7437  153.7643 C   0  0  0  0  0  0  0  0  0  0  0  0
  151.3823  140.0035  155.7478 C   0  0  0  0  0  0  0  0  0  0  0  0
  151.4324  139.8197  154.5299 O   0  0  0  0  0  0  0  0  0  0  0  0
  152.1042  139.1587  156.7129 C   0  0  0  0  0  0  0  0  0  0  0  0
  152.9277  138.0093  156.1452 C   0  0  0  0  0  0  0  0  0  0  0  0
  152.3878  137.5769  159.0758 H   0  0  0  0  0  0  0  0  0  0  0  0
  152.5021  138.9990  160.1096 H   0  0  0  0  0  0  0  0  0  0  0  0
  153.7950  138.6482  158.9635 H   0  0  0  0  0  0  0  0  0  0  0  0
  149.9838  142.0957  157.9868 H   0  0  0  0  0  0  0  0  0  0  0  0
  149.3951  142.6732  156.1003 H   0  0  0  0  0  0  0  0  0  0  0  0
  150.5018  142.5375  154.7865 H   0  0  0  0  0  0  0  0  0  0  0  0
  148.6696  140.1816  154.9780 H   0  0  0  0  0  0  0  0  0  0  0  0
  148.4231  140.9479  152.7477 H   0  0  0  0  0  0  0  0  0  0  0  0
  147.0492  141.0873  156.7550 H   0  0  0  0  0  0  0  0  0  0  0  0
  144.8614  142.2223  157.0231 H   0  0  0  0  0  0  0  0  0  0  0  0
  147.5017  142.8987  152.8601 H   0  0  0  0  0  0  0  0  0  0  0  0
  153.6930  138.3928  155.4698 H   0  0  0  0  0  0  0  0  0  0  0  0
  152.2869  137.3311  155.5809 H   0  0  0  0  0  0  0  0  0  0  0  0
  153.4314  137.4219  156.9111 H   0  0  0  0  0  0  0  0  0  0  0  0
  1  2  1  0  0  0  0
  1 21  1  0  0  0  0
  1 22  1  0  0  0  0
  1 23  1  0  0  0  0
  2 19  2  0  0  0  0
  2  3  1  0  0  0  0
  3  4  2  0  0  0  0
  4  5  1  0  0  0  0
  4 24  1  0  0  0  0
  5  6  1  0  0  0  0
  5 17  1  0  0  0  0
  6  7  1  0  0  0  0
  6 25  1  0  0  0  0
  6 26  1  0  0  0  0
  7  8  1  0  0  0  0
  7  9  1  0  0  0  0
  7 27  1  0  0  0  0
  8 28  1  0  0  0  0
  9 16  1  0  0  0  0
  9 10  2  0  0  0  0
 10 11  1  0  0  0  0
 10 29  1  0  0  0  0
 11 12  2  0  0  0  0
 11 30  1  0  0  0  0
 12 13  1  0  0  0  0
 12 14  1  0  0  0  0
 14 15  1  0  0  0  0
 14 16  2  0  0  0  0
 16 31  1  0  0  0  0
 17 18  2  0  0  0  0
 17 19  1  0  0  0  0
 19 20  1  0  0  0  0
 20 32  1  0  0  0  0
 20 33  1  0  0  0  0
 20 34  1  0  0  0  0
M  END
> <s_m_source_file>
AV-unprocessed.smi

> <i_m_source_file_index>
2360

> <i_lp_mmshare_version>
43012

> <i_f3d_flags>
0

> <s_epik_input>
W0NIM11jMW5bY0hdbihjKD1PKWMxW0NIM10pW0NIMl1bQ0BIXShbT0hdKWMyW2NIXVtjSF1jKEYpYyhGKVtjSF0y

> <s_epik_cmdline>
J2VwaWtfcHl0aG9uJywgJy1waCcsICc3LjAnLCAnLXRuJywgJzgnLCAnLW1hJywgJzIwMCcsICctbWV0YWxfYmluZGluZycsICctaW1hZScsICc8aW5maWxlLm1hZT4nLCAnLW9tYWUnLCAnPG91dGZpbGUubWFlPic=

> <r_lp_tautomer_probability>
1

> <r_epik_Ionization_Penalty>
5.07449e-05

> <r_epik_Ionization_Penalty_Charging>
7.56727e-08

> <r_epik_Ionization_Penalty_Neutral>
5.06692e-05

> <r_epik_State_Penalty>
-0

> <r_epik_Charging_Adjusted_Penalty>
7.56727e-08

> <i_epik_Tot_Q>
0

> <i_epik_Tot_abs_Q>
0

> <r_epik_Metal_State_Penalty>
-0

> <b_epik_Metal_Only>
0

> <s_lp_Force_Field>
OPLS_2005

> <r_lp_Energy>
18.6732

> <b_lp_Chiralities_Consistent>
1

> <s_lp_Variant>
AV-unprocessed.smi:2360-1

> <Gold.Version>
5.8.1

> <Gold.Id.Protein>
6NUR|6NUR_protein|mol2

> <Gold.PLP.Fitness>
42.1877

> <Gold.PLP.PLP>
-38.5434

> <Gold.PLP.part.hbond>
-3.6460

> <Gold.PLP.part.metal>
0.0000

> <Gold.PLP.part.buried>
-3.1661

> <Gold.PLP.part.nonpolar>
-31.6022

> <Gold.PLP.part.repulsive>
0.0893

> <Gold.PLP.ligand.clash>
0.0000

> <Gold.PLP.ligand.torsion>
1.1828

> <Gold.PLP.Chemscore.Hbond>
2.0000

> <Gold.PLP.Chemscore.CHOScore>
0.0000

> <Gold.PLP.Chemscore.Metal>
0.0000

> <Gold.Chemscore.Hbonds>
donor molecule, donor type, donor heavy atom, donor atom, acceptor molecule, acceptor atom, score
      P1  H  7989  7998       L1    18  0.88
      P1  H  8011  8017       L1     8  0.90

> <Gold.PLP.Chemscore.Internal.Correction>
0.0098

> <Gold.Rescore>
     Score         DG    S(hbond)    S(metal)    S(lipo)     H(rot)  DE(clash)    DE(int)     intcor
     12.12     -13.68       1.91        0.00      61.67       2.11       0.22       1.34       ----

> <Gold.Chemscore.Fitness>
12.1238

> <Gold.Chemscore.DG>
-13.6799

> <Gold.Chemscore.ZeroCoef>
-5.4800

> <Gold.Chemscore.Hbond>
1.9117

> <Gold.Chemscore.Metal>
0.0000

> <Gold.Chemscore.Lipo>
61.6741

> <Gold.Chemscore.Internal_Hbond>
0.0000

> <Gold.Chemscore.DEClash>
0.2207

> <Gold.Chemscore.DEInternal>
1.3354

> <Gold.Chemscore.Rot>
2.1097

> <Gold.Chemscore.Internal.Correction>
   9.000000E+99

> <Gold.Chemscore.Hbonds>
donor molecule, donor type, donor heavy atom, donor atom, acceptor molecule, acceptor atom, score
      L1  H     8    28       P1  7957  0.01
      P1  H  7989  7998       L1    18  0.85
      P1  H  8011  8017       L1     8  0.18

> <Gold.Chemscore.Hbond.Weighted>
-6.3849

> <Gold.Chemscore.Metal.Weighted>
-0.0000

> <Gold.Chemscore.Lipo.Weighted>
-7.2159

> <Gold.Chemscore.Internal_Hbond.Weighted>
0.0000

> <Gold.Chemscore.DEClash.Weighted>
0.2207

> <Gold.Chemscore.DEInternal.Weighted>
1.3354

> <Gold.Chemscore.Rot.Weighted>
5.4009

> <Gold.Chemscore.Internal.Correction.Weighted>
   9.000000E+99

> <Gold.Protein.RotatedTorsions>
[ 6907 6896 6895 6894 ] final  -20.46 input  -60.11 | X-H torsion
[ 7974 7965 7964 7962 ] final -111.17 input  175.53 | X-H torsion
[ 8008 7997 7996 7995 ] final   83.50 input   59.86 | X-H torsion
[ 10167 10162 10161 10158 ] final  -25.24 input  -65.29 | X-H torsion
[ 10718 10713 10712 10709 ] final  -40.83 input   66.30 | X-H torsion
[ 10763 10752 10751 10750 ] final  -40.55 input  -60.55 | X-H torsion
[ 11005 11000 10999 10996 ] final   69.12 input  -57.11 | X-H torsion

> <Gold.Protein.ActiveResidues>
 VAL166  LYS551  ARG553  GLY616  TRP617  ASP618  TYR619  PRO620  LYS621  CYS622 
 ASP623  PHE694  ASN695  SER759  ASP760  ASP761  ALA762  ILE779  LEU786  VAL792 
 PHE793  MET794  SER795  GLU796  ALA797  LYS798  CYS799  TRP800  GLU811  SER814 

> <Gold.Protein.RotatedAtoms>
  151.2479  135.0612  159.9050 H   0  0  0  0  0  0  0  0  0  0  0  0  # atno 6907 bound_to 6896
  152.5384  134.0364  159.8058 H   0  0  0  0  0  0  0  0  0  0  0  0  # atno 6908 bound_to 6896
  151.0568  133.5529  159.2669 H   0  0  0  0  0  0  0  0  0  0  0  0  # atno 6909 bound_to 6896
  145.1593  140.8870  143.3600 H   0  0  0  0  0  0  0  0  0  0  0  0  # atno 7974 bound_to 7965
  155.9248  140.3419  155.6201 H   0  0  0  0  0  0  0  0  0  0  0  0  # atno 8008 bound_to 7997
  155.7230  140.0786  157.2341 H   0  0  0  0  0  0  0  0  0  0  0  0  # atno 8009 bound_to 7997
  154.4075  140.1602  156.2411 H   0  0  0  0  0  0  0  0  0  0  0  0  # atno 8010 bound_to 7997
  140.7287  143.4282  151.0843 H   0  0  0  0  0  0  0  0  0  0  0  0  # atno 10167 bound_to 10162
  156.2770  130.4213  149.8377 H   0  0  0  0  0  0  0  0  0  0  0  0  # atno 10718 bound_to 10713
  153.9478  135.6754  153.4744 H   0  0  0  0  0  0  0  0  0  0  0  0  # atno 10763 bound_to 10752
  153.0899  135.4880  154.8667 H   0  0  0  0  0  0  0  0  0  0  0  0  # atno 10764 bound_to 10752
  154.7342  135.3145  154.8799 H   0  0  0  0  0  0  0  0  0  0  0  0  # atno 10765 bound_to 10752
  139.9672  134.6961  156.0521 H   0  0  0  0  0  0  0  0  0  0  0  0  # atno 11005 bound_to 11000
  145.0348  139.3310  143.6006 LP  0  0  0  0  0  0  0  0  0  0  0  0  # atno 17320 bound_to 7965
  146.3484  139.9699  142.8707 LP  0  0  0  0  0  0  0  0  0  0  0  0  # atno 17321 bound_to 7965
  139.7936  143.8183  152.3155 LP  0  0  0  0  0  0  0  0  0  0  0  0  # atno 17342 bound_to 10162
  139.8176  144.7309  150.9615 LP  0  0  0  0  0  0  0  0  0  0  0  0  # atno 17343 bound_to 10162
  156.5838  130.8477  151.3390 LP  0  0  0  0  0  0  0  0  0  0  0  0  # atno 17370 bound_to 10713
  157.7302  130.9682  150.1824 LP  0  0  0  0  0  0  0  0  0  0  0  0  # atno 17371 bound_to 10713
  141.1352  133.6577  156.3573 LP  0  0  0  0  0  0  0  0  0  0  0  0  # atno 17394 bound_to 11000
  140.5371  134.6156  157.5368 LP  0  0  0  0  0  0  0  0  0  0  0  0  # atno 17395 bound_to 11000

$$$$
