AV-unprocessed.smi:2881|AV-procd|sdf|11059|dock9
  -GOLD-   2272015533D 1   1.00000     0.00000
 Structure written by MMmdl.
 40 42  0  0  0  0  0  0  0  0  1 V2000
  147.3962  142.0885  154.1075 C   0  0  0  0  0  0  0  0  0  0  0  0
  148.5992  141.2811  154.4595 C   0  0  0  0  0  0  0  0  0  0  0  0
  149.2612  141.1142  155.6429 C   0  0  0  0  0  0  0  0  0  0  0  0
  150.3333  140.2276  155.3270 C   0  0  0  0  0  0  0  0  0  0  0  0
  151.3984  139.6989  156.2492 C   0  0  0  0  0  0  0  0  0  0  0  0
  151.2521  140.3361  157.6309 C   0  0  0  0  0  0  0  0  0  0  0  0
  150.9580  139.6407  158.6030 O   0  0  0  0  0  0  0  0  0  0  0  0
  151.4585  141.6604  157.7024 N   0  0  0  0  0  0  0  0  0  0  0  0
  151.3040  142.4808  158.9040 C   0  0  2  0  0  0  0  0  0  0  0  0
  151.3043  143.9775  158.5249 C   0  0  1  0  0  0  0  0  0  0  0  0
  150.7550  144.7975  159.7064 C   0  0  0  0  0  0  0  0  0  0  0  0
  151.8999  144.7114  160.7336 C   0  0  0  0  0  0  0  0  0  0  0  0
  152.9537  143.8558  160.0024 C   0  0  2  0  0  0  0  0  0  0  0  0
  152.7860  144.3316  158.5650 C   0  0  0  0  0  0  0  0  0  0  0  0
  152.4684  142.3864  159.9374 C   0  0  2  0  0  0  0  0  0  0  0  0
  153.5981  141.3841  159.6089 C   0  0  0  0  0  0  0  0  0  0  0  0
  154.5810  141.3987  160.6232 O   0  0  0  0  0  0  0  0  0  0  0  0
  150.3306  139.8680  154.0503 N   0  0  0  0  0  0  0  0  0  0  0  0
  149.2714  140.5177  153.5327 N   0  0  0  0  0  0  0  0  0  0  0  0
  149.0223  140.4325  152.5575 H   0  0  0  0  0  0  0  0  0  0  0  0
  146.9547  142.5376  154.9974 H   0  0  0  0  0  0  0  0  0  0  0  0
  146.6366  141.4678  153.6320 H   0  0  0  0  0  0  0  0  0  0  0  0
  147.6578  142.8928  153.4193 H   0  0  0  0  0  0  0  0  0  0  0  0
  149.0209  141.5632  156.5953 H   0  0  0  0  0  0  0  0  0  0  0  0
  151.3149  138.6156  156.3429 H   0  0  0  0  0  0  0  0  0  0  0  0
  152.3957  139.8981  155.8535 H   0  0  0  0  0  0  0  0  0  0  0  0
  151.6974  142.1465  156.8499 H   0  0  0  0  0  0  0  0  0  0  0  0
  150.3543  142.2257  159.3787 H   0  0  0  0  0  0  0  0  0  0  0  0
  150.8031  144.1973  157.5811 H   0  0  0  0  0  0  0  0  0  0  0  0
  150.5822  145.8335  159.4126 H   0  0  0  0  0  0  0  0  0  0  0  0
  149.8163  144.3984  160.0921 H   0  0  0  0  0  0  0  0  0  0  0  0
  152.2916  145.7054  160.9528 H   0  0  0  0  0  0  0  0  0  0  0  0
  151.5820  144.2646  161.6762 H   0  0  0  0  0  0  0  0  0  0  0  0
  153.9579  143.9781  160.4095 H   0  0  0  0  0  0  0  0  0  0  0  0
  153.3869  143.7730  157.8459 H   0  0  0  0  0  0  0  0  0  0  0  0
  152.9797  145.3979  158.4361 H   0  0  0  0  0  0  0  0  0  0  0  0
  152.0535  142.0974  160.9045 H   0  0  0  0  0  0  0  0  0  0  0  0
  153.2042  140.3697  159.5493 H   0  0  0  0  0  0  0  0  0  0  0  0
  154.0688  141.6089  158.6518 H   0  0  0  0  0  0  0  0  0  0  0  0
  154.7143  140.5131  160.9251 H   0  0  0  0  0  0  0  0  0  0  0  0
  1  2  1  0  0  0  0
  1 21  1  0  0  0  0
  1 22  1  0  0  0  0
  1 23  1  0  0  0  0
  2 19  1  0  0  0  0
  2  3  2  0  0  0  0
  3  4  1  0  0  0  0
  3 24  1  0  0  0  0
  4  5  1  0  0  0  0
  4 18  2  0  0  0  0
  5  6  1  0  0  0  0
  5 25  1  0  0  0  0
  5 26  1  0  0  0  0
  6  7  2  0  0  0  0
  6  8  1  0  0  0  0
  8  9  1  0  0  0  0
  8 27  1  0  0  0  0
  9 15  1  0  0  0  0
  9 10  1  0  0  0  0
  9 28  1  0  0  0  0
 10 14  1  0  0  0  0
 10 11  1  0  0  0  0
 10 29  1  0  0  0  0
 11 12  1  0  0  0  0
 11 30  1  0  0  0  0
 11 31  1  0  0  0  0
 12 13  1  0  0  0  0
 12 32  1  0  0  0  0
 12 33  1  0  0  0  0
 13 14  1  0  0  0  0
 13 15  1  0  0  0  0
 13 34  1  0  0  0  0
 14 35  1  0  0  0  0
 14 36  1  0  0  0  0
 15 16  1  0  0  0  0
 15 37  1  0  0  0  0
 16 17  1  0  0  0  0
 16 38  1  0  0  0  0
 16 39  1  0  0  0  0
 17 40  1  0  0  0  0
 18 19  1  0  0  0  0
 19 20  1  0  0  0  0
M  END
> <s_m_source_file>
AV-unprocessed.smi

> <i_m_source_file_index>
2881

> <i_lp_mmshare_version>
43012

> <i_f3d_flags>
0

> <s_epik_input>
W0NIM11jMVtjSF1jKG5bbkhdMSlbQ0gyXUMoPU8pW05IXVtDQEhdKFtDQEBIXTIzKVtDQEhdKFtDSDJdW09IXSlbQ0BASF0oW0NIMl0zKVtDSDJdW0NIMl0y

> <s_epik_cmdline>
J2VwaWtfcHl0aG9uJywgJy1waCcsICc3LjAnLCAnLXRuJywgJzgnLCAnLW1hJywgJzIwMCcsICctbWV0YWxfYmluZGluZycsICctaW1hZScsICc8aW5maWxlLm1hZT4nLCAnLW9tYWUnLCAnPG91dGZpbGUubWFlPic=

> <r_lp_tautomer_probability>
0.5

> <r_epik_Ionization_Penalty>
9.4349e-05

> <r_epik_Ionization_Penalty_Charging>
0

> <r_epik_Ionization_Penalty_Neutral>
9.4349e-05

> <r_epik_State_Penalty>
0.41068

> <r_epik_Charging_Adjusted_Penalty>
0.41068

> <i_epik_Tot_Q>
0

> <i_epik_Tot_abs_Q>
0

> <r_epik_Metal_State_Penalty>
0.4107

> <b_epik_Metal_Only>
0

> <s_lp_Force_Field>
OPLS_2005

> <r_lp_Energy>
48.9716

> <b_lp_Chiralities_Consistent>
1

> <s_lp_Variant>
AV-unprocessed.smi:2881-5

> <Gold.Version>
5.8.1

> <Gold.Id.Protein>
6NUR|6NUR_protein|mol2

> <Gold.PLP.Fitness>
49.4249

> <Gold.PLP.PLP>
-44.2967

> <Gold.PLP.part.hbond>
-2.3509

> <Gold.PLP.part.metal>
0.0000

> <Gold.PLP.part.buried>
-7.5087

> <Gold.PLP.part.nonpolar>
-36.0505

> <Gold.PLP.part.repulsive>
2.1028

> <Gold.PLP.ligand.clash>
0.0000

> <Gold.PLP.ligand.torsion>
0.2386

> <Gold.PLP.Chemscore.Hbond>
1.8640

> <Gold.PLP.Chemscore.CHOScore>
0.0000

> <Gold.PLP.Chemscore.Metal>
0.0000

> <Gold.Chemscore.Hbonds>
donor molecule, donor type, donor heavy atom, donor atom, acceptor molecule, acceptor atom, score
      L1  H    19    20       P1  7957  0.86
      P1  H  7989  7998       L1    18  1.00

> <Gold.PLP.Chemscore.Internal.Correction>
0.0135

> <Gold.Rescore>
     Score         DG    S(hbond)    S(metal)    S(lipo)     H(rot)  DE(clash)    DE(int)     intcor
     16.63     -16.99       1.12        0.00     116.07       2.28       0.06       0.30       ----

> <Gold.Chemscore.Fitness>
16.6256

> <Gold.Chemscore.DG>
-16.9854

> <Gold.Chemscore.ZeroCoef>
-5.4800

> <Gold.Chemscore.Hbond>
1.1229

> <Gold.Chemscore.Metal>
0.0000

> <Gold.Chemscore.Lipo>
116.0688

> <Gold.Chemscore.Internal_Hbond>
0.0000

> <Gold.Chemscore.DEClash>
0.0587

> <Gold.Chemscore.DEInternal>
0.3012

> <Gold.Chemscore.Rot>
2.2755

> <Gold.Chemscore.Internal.Correction>
   9.000000E+99

> <Gold.Chemscore.Hbonds>
donor molecule, donor type, donor heavy atom, donor atom, acceptor molecule, acceptor atom, score
      L1  H    19    20       P1  7957  0.82
      P1  H  7989  7998       L1    18  0.06

> <Gold.Chemscore.Hbond.Weighted>
-3.7506

> <Gold.Chemscore.Metal.Weighted>
-0.0000

> <Gold.Chemscore.Lipo.Weighted>
-13.5800

> <Gold.Chemscore.Internal_Hbond.Weighted>
0.0000

> <Gold.Chemscore.DEClash.Weighted>
0.0587

> <Gold.Chemscore.DEInternal.Weighted>
0.3012

> <Gold.Chemscore.Rot.Weighted>
5.8252

> <Gold.Chemscore.Internal.Correction.Weighted>
   9.000000E+99

> <Gold.Protein.RotatedTorsions>
[ 6907 6896 6895 6894 ] final -167.68 input  -60.11 | X-H torsion
[ 7974 7965 7964 7962 ] final   -8.11 input  175.53 | X-H torsion
[ 8008 7997 7996 7995 ] final  177.54 input   59.86 | X-H torsion
[ 10167 10162 10161 10158 ] final  132.50 input  -65.29 | X-H torsion
[ 10718 10713 10712 10709 ] final  -82.10 input   66.30 | X-H torsion
[ 10763 10752 10751 10750 ] final   63.73 input  -60.55 | X-H torsion
[ 11005 11000 10999 10996 ] final  -76.02 input  -57.11 | X-H torsion

> <Gold.Protein.ActiveResidues>
 VAL166  LYS551  ARG553  GLY616  TRP617  ASP618  TYR619  PRO620  LYS621  CYS622 
 ASP623  PHE694  ASN695  SER759  ASP760  ASP761  ALA762  ILE779  LEU786  VAL792 
 PHE793  MET794  SER795  GLU796  ALA797  LYS798  CYS799  TRP800  GLU811  SER814 

> <Gold.Protein.RotatedAtoms>
  151.4635  133.3587  159.2812 H   0  0  0  0  0  0  0  0  0  0  0  0  # atno 6907 bound_to 6896
  150.9009  134.8423  159.7370 H   0  0  0  0  0  0  0  0  0  0  0  0  # atno 6908 bound_to 6896
  152.4879  134.4555  159.9640 H   0  0  0  0  0  0  0  0  0  0  0  0  # atno 6909 bound_to 6896
  146.2289  140.2419  142.8344 H   0  0  0  0  0  0  0  0  0  0  0  0  # atno 7974 bound_to 7965
  156.0646  140.1356  156.9901 H   0  0  0  0  0  0  0  0  0  0  0  0  # atno 8008 bound_to 7997
  154.4499  140.0984  156.6638 H   0  0  0  0  0  0  0  0  0  0  0  0  # atno 8009 bound_to 7997
  155.5324  140.3459  155.4431 H   0  0  0  0  0  0  0  0  0  0  0  0  # atno 8010 bound_to 7997
  139.5337  144.6659  151.4861 H   0  0  0  0  0  0  0  0  0  0  0  0  # atno 10167 bound_to 10162
  156.0039  130.4624  150.4054 H   0  0  0  0  0  0  0  0  0  0  0  0  # atno 10718 bound_to 10713
  153.0029  135.5418  154.6398 H   0  0  0  0  0  0  0  0  0  0  0  0  # atno 10763 bound_to 10752
  154.5656  135.2837  155.0879 H   0  0  0  0  0  0  0  0  0  0  0  0  # atno 10764 bound_to 10752
  154.2065  135.6475  153.5155 H   0  0  0  0  0  0  0  0  0  0  0  0  # atno 10765 bound_to 10752
  141.1650  133.6968  156.7605 H   0  0  0  0  0  0  0  0  0  0  0  0  # atno 11005 bound_to 11000
  144.9477  140.8146  143.5591 LP  0  0  0  0  0  0  0  0  0  0  0  0  # atno 17320 bound_to 7965
  145.2377  139.2086  143.5009 LP  0  0  0  0  0  0  0  0  0  0  0  0  # atno 17321 bound_to 7965
  140.6530  143.8657  150.6806 LP  0  0  0  0  0  0  0  0  0  0  0  0  # atno 17342 bound_to 10162
  140.2027  143.3946  152.1779 LP  0  0  0  0  0  0  0  0  0  0  0  0  # atno 17343 bound_to 10162
  157.2120  131.0462  151.2594 LP  0  0  0  0  0  0  0  0  0  0  0  0  # atno 17370 bound_to 10713
  157.3880  130.7267  149.6677 LP  0  0  0  0  0  0  0  0  0  0  0  0  # atno 17371 bound_to 10713
  140.2537  134.8520  157.3692 LP  0  0  0  0  0  0  0  0  0  0  0  0  # atno 17394 bound_to 11000
  140.1677  134.4648  155.7852 LP  0  0  0  0  0  0  0  0  0  0  0  0  # atno 17395 bound_to 11000

$$$$
