AV-unprocessed.smi:3091|AV-procd|sdf|11778|dock7
  -GOLD-   2272017163D 1   1.00000     0.00000
 Structure written by MMmdl.
 29 30  0  0  0  0  0  0  0  0  2 V2000
  143.3345  133.6517  147.9094 N   0  3  0  0  0  0  0  0  0  0  0  0
  143.7618  132.5358  148.7683 C   0  0  0  0  0  0  0  0  0  0  0  0
  144.6206  133.0381  149.9105 C   0  0  0  0  0  0  0  0  0  0  0  0
  145.9302  132.5504  150.0931 C   0  0  0  0  0  0  0  0  0  0  0  0
  146.6846  133.0464  151.1742 C   0  0  0  0  0  0  0  0  0  0  0  0
  146.2142  133.9639  152.0452 N   0  0  0  0  0  0  0  0  0  0  0  0
  144.9536  134.4326  151.8703 C   0  0  0  0  0  0  0  0  0  0  0  0
  144.4577  135.3737  152.7510 O   0  0  0  0  0  0  0  0  0  0  0  0
  143.1113  135.8322  152.6095 C   0  0  2  0  0  0  0  0  0  0  0  0
  142.8282  136.9952  153.5519 C   0  0  0  0  0  0  0  0  0  0  0  0
  142.3878  136.2875  154.8248 C   0  0  0  0  0  0  0  0  0  0  0  0
  141.5925  135.2218  154.3346 O   0  0  0  0  0  0  0  0  0  0  0  0
  142.1758  134.7310  153.1315 C   0  0  0  0  0  0  0  0  0  0  0  0
  144.1233  133.9964  150.8173 C   0  0  0  0  0  0  0  0  0  0  0  0
  142.9569  133.2892  147.0457 H   0  0  0  0  0  0  0  0  0  0  0  0
  144.1282  134.2435  147.7096 H   0  0  0  0  0  0  0  0  0  0  0  0
  142.8822  132.0237  149.1598 H   0  0  0  0  0  0  0  0  0  0  0  0
  144.3185  131.8127  148.1715 H   0  0  0  0  0  0  0  0  0  0  0  0
  146.3517  131.8152  149.4231 H   0  0  0  0  0  0  0  0  0  0  0  0
  147.6920  132.6964  151.3442 H   0  0  0  0  0  0  0  0  0  0  0  0
  142.8727  136.0692  151.5714 H   0  0  0  0  0  0  0  0  0  0  0  0
  143.6797  137.6579  153.7079 H   0  0  0  0  0  0  0  0  0  0  0  0
  142.0037  137.5935  153.1623 H   0  0  0  0  0  0  0  0  0  0  0  0
  143.2465  135.8867  155.3656 H   0  0  0  0  0  0  0  0  0  0  0  0
  141.8247  136.9347  155.4975 H   0  0  0  0  0  0  0  0  0  0  0  0
  141.3845  134.5048  152.4163 H   0  0  0  0  0  0  0  0  0  0  0  0
  142.7174  133.8053  153.3306 H   0  0  0  0  0  0  0  0  0  0  0  0
  143.1244  134.3942  150.7114 H   0  0  0  0  0  0  0  0  0  0  0  0
  142.6269  134.1902  148.3883 H   0  0  0  0  0  0  0  0  0  0  0  0
  1  2  1  0  0  0  0
  1 15  1  0  0  0  0
  1 16  1  0  0  0  0
  1 29  1  0  0  0  0
  2  3  1  0  0  0  0
  2 17  1  0  0  0  0
  2 18  1  0  0  0  0
  3 14  1  0  0  0  0
  3  4  2  0  0  0  0
  4  5  1  0  0  0  0
  4 19  1  0  0  0  0
  5  6  2  0  0  0  0
  5 20  1  0  0  0  0
  6  7  1  0  0  0  0
  7  8  1  0  0  0  0
  7 14  2  0  0  0  0
  8  9  1  0  0  0  0
  9 13  1  0  0  0  0
  9 10  1  0  0  0  0
  9 21  1  0  0  0  0
 10 11  1  0  0  0  0
 10 22  1  0  0  0  0
 10 23  1  0  0  0  0
 11 12  1  0  0  0  0
 11 24  1  0  0  0  0
 11 25  1  0  0  0  0
 12 13  1  0  0  0  0
 13 26  1  0  0  0  0
 13 27  1  0  0  0  0
 14 28  1  0  0  0  0
M  CHG  1   1   1
M  END
> <s_m_source_file>
AV-unprocessed.smi

> <i_m_source_file_index>
3091

> <i_lp_mmshare_version>
43012

> <i_f3d_flags>
0

> <s_epik_input>
W05IMl1bQ0gyXWMxW2NIXVtjSF1uYyhbY0hdMSlPW0NAQEhdMltDSDJdW0NIMl1PW0NIMl0y

> <s_epik_cmdline>
J2VwaWtfcHl0aG9uJywgJy1waCcsICc3LjAnLCAnLXRuJywgJzgnLCAnLW1hJywgJzIwMCcsICctbWV0YWxfYmluZGluZycsICctaW1hZScsICc8aW5maWxlLm1hZT4nLCAnLW9tYWUnLCAnPG91dGZpbGUubWFlPic=

> <r_lp_tautomer_probability>
1

> <r_epik_Ionization_Penalty>
0.0773124

> <r_epik_Ionization_Penalty_Charging>
0.0773118

> <r_epik_Ionization_Penalty_Neutral>
5.92883e-07

> <r_epik_State_Penalty>
0.0682686

> <r_epik_Charging_Adjusted_Penalty>
0.14558

> <i_epik_Tot_Q>
1

> <i_epik_Tot_abs_Q>
1

> <r_epik_Metal_State_Penalty>
0.0682821

> <b_epik_Metal_Only>
0

> <s_lp_Force_Field>
OPLS_2005

> <r_lp_Energy>
12.9222

> <b_lp_Chiralities_Consistent>
1

> <s_lp_Variant>
AV-unprocessed.smi:3091-1

> <Gold.Version>
5.8.1

> <Gold.Id.Protein>
6NUR|6NUR_protein|mol2

> <Gold.PLP.Fitness>
45.1109

> <Gold.PLP.PLP>
-28.1190

> <Gold.PLP.part.hbond>
-4.0000

> <Gold.PLP.part.metal>
0.0000

> <Gold.PLP.part.buried>
-6.0645

> <Gold.PLP.part.nonpolar>
-20.3598

> <Gold.PLP.part.repulsive>
0.5312

> <Gold.PLP.ligand.clash>
0.0000

> <Gold.PLP.ligand.torsion>
0.0849

> <Gold.PLP.Chemscore.Hbond>
4.7150

> <Gold.PLP.Chemscore.CHOScore>
1.0000

> <Gold.PLP.Chemscore.Metal>
0.0000

> <Gold.Chemscore.Hbonds>
donor molecule, donor type, donor heavy atom, donor atom, acceptor molecule, acceptor atom, score
      L1  H     1    15       P1 10195  1.00
      L1  H     1    16       P1  7921  0.94
      L1  H     1    29       P1 10186  2.00
      P1  H 11000 11005       L1    12  0.69
      L1  C     5    20       P1 10747  1.00

> <Gold.PLP.Chemscore.Internal.Correction>
0.0168

> <Gold.Rescore>
     Score         DG    S(hbond)    S(metal)    S(lipo)     H(rot)  DE(clash)    DE(int)     intcor
     20.60     -20.71       3.59        0.00      62.56       1.59       0.01       0.10       ----

> <Gold.Chemscore.Fitness>
20.5981

> <Gold.Chemscore.DG>
-20.7139

> <Gold.Chemscore.ZeroCoef>
-5.4800

> <Gold.Chemscore.Hbond>
3.5901

> <Gold.Chemscore.Metal>
0.0000

> <Gold.Chemscore.Lipo>
62.5603

> <Gold.Chemscore.Internal_Hbond>
0.0000

> <Gold.Chemscore.DEClash>
0.0110

> <Gold.Chemscore.DEInternal>
0.1048

> <Gold.Chemscore.Rot>
1.5924

> <Gold.Chemscore.Internal.Correction>
   9.000000E+99

> <Gold.Chemscore.Hbonds>
donor molecule, donor type, donor heavy atom, donor atom, acceptor molecule, acceptor atom, score
      L1  H     1    15       P1 10195  0.99
      L1  H     1    16       P1  7921  0.89
      L1  H     1    29       P1 10186  0.95
      P1  H 11000 11005       L1    12  0.62

> <Gold.Chemscore.Hbond.Weighted>
-11.9909

> <Gold.Chemscore.Metal.Weighted>
-0.0000

> <Gold.Chemscore.Lipo.Weighted>
-7.3196

> <Gold.Chemscore.Internal_Hbond.Weighted>
0.0000

> <Gold.Chemscore.DEClash.Weighted>
0.0110

> <Gold.Chemscore.DEInternal.Weighted>
0.1048

> <Gold.Chemscore.Rot.Weighted>
4.0765

> <Gold.Chemscore.Internal.Correction.Weighted>
   9.000000E+99

> <Gold.Protein.RotatedTorsions>
[ 6907 6896 6895 6894 ] final   67.38 input  -60.11 | X-H torsion
[ 7974 7965 7964 7962 ] final  -37.50 input  175.53 | X-H torsion
[ 8008 7997 7996 7995 ] final -115.88 input   59.86 | X-H torsion
[ 10167 10162 10161 10158 ] final   84.42 input  -65.29 | X-H torsion
[ 10718 10713 10712 10709 ] final    4.18 input   66.30 | X-H torsion
[ 10763 10752 10751 10750 ] final  -82.60 input  -60.55 | X-H torsion
[ 11005 11000 10999 10996 ] final   12.33 input  -57.11 | X-H torsion

> <Gold.Protein.ActiveResidues>
 VAL166  LYS551  ARG553  GLY616  TRP617  ASP618  TYR619  PRO620  LYS621  CYS622 
 ASP623  PHE694  ASN695  SER759  ASP760  ASP761  ALA762  ILE779  LEU786  VAL792 
 PHE793  MET794  SER795  GLU796  ALA797  LYS798  CYS799  TRP800  GLU811  SER814 

> <Gold.Protein.RotatedAtoms>
  152.4548  134.5316  159.9812 H   0  0  0  0  0  0  0  0  0  0  0  0  # atno 6907 bound_to 6896
  151.5379  133.3432  159.2938 H   0  0  0  0  0  0  0  0  0  0  0  0  # atno 6908 bound_to 6896
  150.8488  134.7837  159.7055 H   0  0  0  0  0  0  0  0  0  0  0  0  # atno 6909 bound_to 6896
  146.0569  140.6404  142.9015 H   0  0  0  0  0  0  0  0  0  0  0  0  # atno 7974 bound_to 7965
  155.0590  140.0393  157.2570 H   0  0  0  0  0  0  0  0  0  0  0  0  # atno 8008 bound_to 7997
  154.7075  140.2686  155.6636 H   0  0  0  0  0  0  0  0  0  0  0  0  # atno 8009 bound_to 7997
  156.2779  140.2728  156.1706 H   0  0  0  0  0  0  0  0  0  0  0  0  # atno 8010 bound_to 7997
  139.9082  144.6288  150.8565 H   0  0  0  0  0  0  0  0  0  0  0  0  # atno 10167 bound_to 10162
  156.8888  130.5680  149.5650 H   0  0  0  0  0  0  0  0  0  0  0  0  # atno 10718 bound_to 10713
  154.5777  135.5585  153.7155 H   0  0  0  0  0  0  0  0  0  0  0  0  # atno 10763 bound_to 10752
  153.0070  135.6312  154.2026 H   0  0  0  0  0  0  0  0  0  0  0  0  # atno 10764 bound_to 10752
  154.1967  135.2880  155.2984 H   0  0  0  0  0  0  0  0  0  0  0  0  # atno 10765 bound_to 10752
  140.4932  134.0819  155.7776 H   0  0  0  0  0  0  0  0  0  0  0  0  # atno 11005 bound_to 11000
  144.7153  140.4186  143.7049 LP  0  0  0  0  0  0  0  0  0  0  0  0  # atno 17320 bound_to 7965
  145.6628  139.1584  143.2798 LP  0  0  0  0  0  0  0  0  0  0  0  0  # atno 17321 bound_to 7965
  140.7691  143.3385  151.2258 LP  0  0  0  0  0  0  0  0  0  0  0  0  # atno 17342 bound_to 10162
  139.6965  143.9604  152.2885 LP  0  0  0  0  0  0  0  0  0  0  0  0  # atno 17343 bound_to 10162
  156.0640  130.5687  150.9250 LP  0  0  0  0  0  0  0  0  0  0  0  0  # atno 17370 bound_to 10713
  157.6096  131.0937  150.8818 LP  0  0  0  0  0  0  0  0  0  0  0  0  # atno 17371 bound_to 10713
  141.1473  133.9032  157.2184 LP  0  0  0  0  0  0  0  0  0  0  0  0  # atno 17394 bound_to 11000
  139.9757  135.0114  156.9624 LP  0  0  0  0  0  0  0  0  0  0  0  0  # atno 17395 bound_to 11000

$$$$
