AV-unprocessed.smi:1672|AV-procd|sdf|6703|dock6
  -GOLD-   22720 7443D 1   1.00000     0.00000
 Structure written by MMmdl.
 48 50  0  0  0  0  0  0  0  0  2 V2000
  150.6427  140.0046  155.7153 C   0  0  0  0  0  0  0  0  0  0  0  0
  150.3238  139.3469  154.3612 C   0  0  2  0  0  0  0  0  0  0  0  0
  148.8528  138.9072  154.2448 C   0  0  0  0  0  0  0  0  0  0  0  0
  148.5535  137.6473  155.0768 C   0  0  0  0  0  0  0  0  0  0  0  0
  149.4618  136.5313  154.7083 N   0  3  2  0  0  0  0  0  0  0  0  0
  149.0987  135.2616  155.3893 C   0  0  0  0  0  0  0  0  0  0  0  0
  149.2446  135.3471  156.9211 C   0  0  2  0  0  0  0  0  0  0  0  0
  149.7108  134.1003  157.3987 O   0  0  0  0  0  0  0  0  0  0  0  0
  147.9053  135.6954  157.6018 C   0  0  0  0  0  0  0  0  0  0  0  0
  148.0459  135.9482  159.0309 N   0  0  0  0  0  0  0  0  0  0  0  0
  148.7648  136.9215  159.6479 C   0  0  0  0  0  0  0  0  0  0  0  0
  149.5497  137.9507  158.8910 C   0  0  0  0  0  0  0  0  0  0  0  0
  148.7379  138.9334  158.2848 O   0  0  0  0  0  0  0  0  0  0  0  0
  148.7235  136.9154  160.9805 N   0  0  0  0  0  0  0  0  0  0  0  0
  147.8923  135.8478  161.2561 C   0  0  0  0  0  0  0  0  0  0  0  0
  147.4499  135.3235  162.4917 C   0  0  0  0  0  0  0  0  0  0  0  0
  146.5865  134.2090  162.5260 C   0  0  0  0  0  0  0  0  0  0  0  0
  146.1531  133.6051  161.3279 C   0  0  0  0  0  0  0  0  0  0  0  0
  146.5818  134.1120  160.0862 C   0  0  0  0  0  0  0  0  0  0  0  0
  147.4459  135.2234  160.0573 C   0  0  0  0  0  0  0  0  0  0  0  0
  150.8898  136.9085  154.8837 C   0  0  0  0  0  0  0  0  0  0  0  0
  151.2422  138.1516  154.0472 C   0  0  0  0  0  0  0  0  0  0  0  0
  150.4918  139.3227  156.5514 H   0  0  0  0  0  0  0  0  0  0  0  0
  150.0096  140.8764  155.8832 H   0  0  0  0  0  0  0  0  0  0  0  0
  151.6785  140.3436  155.7493 H   0  0  0  0  0  0  0  0  0  0  0  0
  150.5016  140.1076  153.5999 H   0  0  0  0  0  0  0  0  0  0  0  0
  148.1893  139.7198  154.5434 H   0  0  0  0  0  0  0  0  0  0  0  0
  148.6242  138.7006  153.1982 H   0  0  0  0  0  0  0  0  0  0  0  0
  148.6449  137.8584  156.1430 H   0  0  0  0  0  0  0  0  0  0  0  0
  147.5184  137.3499  154.9037 H   0  0  0  0  0  0  0  0  0  0  0  0
  148.0796  134.9863  155.1142 H   0  0  0  0  0  0  0  0  0  0  0  0
  149.7379  134.4534  155.0294 H   0  0  0  0  0  0  0  0  0  0  0  0
  149.9806  136.1022  157.1894 H   0  0  0  0  0  0  0  0  0  0  0  0
  150.4338  133.8231  156.8555 H   0  0  0  0  0  0  0  0  0  0  0  0
  147.4593  136.5700  157.1289 H   0  0  0  0  0  0  0  0  0  0  0  0
  147.1882  134.8849  157.4633 H   0  0  0  0  0  0  0  0  0  0  0  0
  150.2697  138.4277  159.5557 H   0  0  0  0  0  0  0  0  0  0  0  0
  150.1297  137.4568  158.1104 H   0  0  0  0  0  0  0  0  0  0  0  0
  148.8390  139.7411  158.7653 H   0  0  0  0  0  0  0  0  0  0  0  0
  147.7745  135.7799  163.4150 H   0  0  0  0  0  0  0  0  0  0  0  0
  146.2539  133.8167  163.4758 H   0  0  0  0  0  0  0  0  0  0  0  0
  145.4909  132.7523  161.3632 H   0  0  0  0  0  0  0  0  0  0  0  0
  146.2509  133.6499  159.1680 H   0  0  0  0  0  0  0  0  0  0  0  0
  151.0946  137.0892  155.9396 H   0  0  0  0  0  0  0  0  0  0  0  0
  151.5400  136.0897  154.5788 H   0  0  0  0  0  0  0  0  0  0  0  0
  151.1528  137.9012  152.9892 H   0  0  0  0  0  0  0  0  0  0  0  0
  152.2862  138.4254  154.2045 H   0  0  0  0  0  0  0  0  0  0  0  0
  149.3182  136.3686  153.7214 H   0  0  0  0  0  0  0  0  0  0  0  0
  1  2  1  0  0  0  0
  1 23  1  0  0  0  0
  1 24  1  0  0  0  0
  1 25  1  0  0  0  0
  2 22  1  0  0  0  0
  2  3  1  0  0  0  0
  2 26  1  0  0  0  0
  3  4  1  0  0  0  0
  3 27  1  0  0  0  0
  3 28  1  0  0  0  0
  4  5  1  0  0  0  0
  4 29  1  0  0  0  0
  4 30  1  0  0  0  0
  5  6  1  0  0  0  0
  5 21  1  0  0  0  0
  5 48  1  0  0  0  0
  6  7  1  0  0  0  0
  6 31  1  0  0  0  0
  6 32  1  0  0  0  0
  7  8  1  0  0  0  0
  7  9  1  0  0  0  0
  7 33  1  0  0  0  0
  8 34  1  0  0  0  0
  9 10  1  0  0  0  0
  9 35  1  0  0  0  0
  9 36  1  0  0  0  0
 10 20  1  0  0  0  0
 10 11  1  0  0  0  0
 11 12  1  0  0  0  0
 11 14  2  0  0  0  0
 12 13  1  0  0  0  0
 12 37  1  0  0  0  0
 12 38  1  0  0  0  0
 13 39  1  0  0  0  0
 14 15  1  0  0  0  0
 15 20  2  0  0  0  0
 15 16  1  0  0  0  0
 16 17  2  0  0  0  0
 16 40  1  0  0  0  0
 17 18  1  0  0  0  0
 17 41  1  0  0  0  0
 18 19  2  0  0  0  0
 18 42  1  0  0  0  0
 19 20  1  0  0  0  0
 19 43  1  0  0  0  0
 21 22  1  0  0  0  0
 21 44  1  0  0  0  0
 21 45  1  0  0  0  0
 22 46  1  0  0  0  0
 22 47  1  0  0  0  0
M  CHG  1   5   1
M  END
> <s_m_source_file>
AV-unprocessed.smi

> <i_m_source_file_index>
1672

> <i_lp_mmshare_version>
43012

> <i_f3d_flags>
0

> <s_epik_input>
W0NIM11bQ0hdMVtDSDJdW0NIMl1OKFtDSDJdW0NIMl0xKVtDSDJdW0NASF0oW09IXSlbQ0gyXW4oYyhuMilbQ0gyXVtPSF0pYyhjMjMpW2NIXVtjSF1bY0hdW2NIXTM=

> <s_epik_cmdline>
J2VwaWtfcHl0aG9uJywgJy1waCcsICc3LjAnLCAnLXRuJywgJzgnLCAnLW1hJywgJzIwMCcsICctbWV0YWxfYmluZGluZycsICctaW1hZScsICc8aW5maWxlLm1hZT4nLCAnLW9tYWUnLCAnPG91dGZpbGUubWFlPic=

> <r_epik_Ionization_Penalty>
0.0498263

> <r_epik_Ionization_Penalty_Charging>
0.00181365

> <r_epik_Ionization_Penalty_Neutral>
0.0480127

> <r_epik_State_Penalty>
0.0408546

> <r_epik_Charging_Adjusted_Penalty>
0.0426682

> <i_epik_Tot_Q>
1

> <i_epik_Tot_abs_Q>
1

> <r_epik_Metal_State_Penalty>
4.22946e-05

> <b_epik_Metal_Only>
0

> <s_lp_Force_Field>
OPLS_2005

> <r_lp_Energy>
23.4925

> <b_lp_Chiralities_Consistent>
1

> <s_lp_Variant>
AV-unprocessed.smi:1672-3

> <Gold.Version>
5.8.1

> <Gold.Id.Protein>
6NUR|6NUR_protein|mol2

> <Gold.PLP.Fitness>
47.1931

> <Gold.PLP.PLP>
-36.5745

> <Gold.PLP.part.hbond>
-3.6218

> <Gold.PLP.part.metal>
0.0000

> <Gold.PLP.part.buried>
-4.6189

> <Gold.PLP.part.nonpolar>
-28.8963

> <Gold.PLP.part.repulsive>
0.0294

> <Gold.PLP.ligand.clash>
0.0000

> <Gold.PLP.ligand.torsion>
0.6962

> <Gold.PLP.Chemscore.Hbond>
3.9920

> <Gold.PLP.Chemscore.CHOScore>
0.0000

> <Gold.PLP.Chemscore.Metal>
0.0000

> <Gold.Chemscore.Hbonds>
donor molecule, donor type, donor heavy atom, donor atom, acceptor molecule, acceptor atom, score
      L1  H     5    48       P1  7948  2.00
      P1  H  6896  6907       L1     8  0.63
      P1  H  6931  6943       L1    14  1.00

> <Gold.PLP.Chemscore.Internal.Correction>
0.0351

> <Gold.Rescore>
     Score         DG    S(hbond)    S(metal)    S(lipo)     H(rot)  DE(clash)    DE(int)     intcor
     16.51     -17.20       2.62        0.00      88.40       2.88       0.14       0.55       ----

> <Gold.Chemscore.Fitness>
16.5149

> <Gold.Chemscore.DG>
-17.2005

> <Gold.Chemscore.ZeroCoef>
-5.4800

> <Gold.Chemscore.Hbond>
2.6181

> <Gold.Chemscore.Metal>
0.0000

> <Gold.Chemscore.Lipo>
88.4021

> <Gold.Chemscore.Internal_Hbond>
0.0000

> <Gold.Chemscore.DEClash>
0.1394

> <Gold.Chemscore.DEInternal>
0.5463

> <Gold.Chemscore.Rot>
2.8778

> <Gold.Chemscore.Internal.Correction>
   9.000000E+99

> <Gold.Chemscore.Hbonds>
donor molecule, donor type, donor heavy atom, donor atom, acceptor molecule, acceptor atom, score
      L1  H     5    48       P1  7948  0.88
      P1  H  6896  6907       L1     8  0.12
      P1  H  6931  6943       L1    14  0.94

> <Gold.Chemscore.Hbond.Weighted>
-8.7445

> <Gold.Chemscore.Metal.Weighted>
-0.0000

> <Gold.Chemscore.Lipo.Weighted>
-10.3430

> <Gold.Chemscore.Internal_Hbond.Weighted>
0.0000

> <Gold.Chemscore.DEClash.Weighted>
0.1394

> <Gold.Chemscore.DEInternal.Weighted>
0.5463

> <Gold.Chemscore.Rot.Weighted>
7.3671

> <Gold.Chemscore.Internal.Correction.Weighted>
   9.000000E+99

> <Gold.Protein.RotatedTorsions>
[ 6907 6896 6895 6894 ] final -106.41 input  -60.11 | X-H torsion
[ 7974 7965 7964 7962 ] final  117.47 input  175.53 | X-H torsion
[ 8008 7997 7996 7995 ] final   57.87 input   59.86 | X-H torsion
[ 10167 10162 10161 10158 ] final   57.50 input  -65.29 | X-H torsion
[ 10718 10713 10712 10709 ] final -137.49 input   66.30 | X-H torsion
[ 10763 10752 10751 10750 ] final  118.67 input  -60.55 | X-H torsion
[ 11005 11000 10999 10996 ] final  -65.10 input  -57.11 | X-H torsion

> <Gold.Protein.ActiveResidues>
 VAL166  LYS551  ARG553  GLY616  TRP617  ASP618  TYR619  PRO620  LYS621  CYS622 
 ASP623  PHE694  ASN695  SER759  ASP760  ASP761  ALA762  ILE779  LEU786  VAL792 
 PHE793  MET794  SER795  GLU796  ALA797  LYS798  CYS799  TRP800  GLU811  SER814 

> <Gold.Protein.RotatedAtoms>
  150.7388  133.9980  159.3628 H   0  0  0  0  0  0  0  0  0  0  0  0  # atno 6907 bound_to 6896
  151.7932  135.0728  160.0399 H   0  0  0  0  0  0  0  0  0  0  0  0  # atno 6908 bound_to 6896
  152.3193  133.5800  159.5770 H   0  0  0  0  0  0  0  0  0  0  0  0  # atno 6909 bound_to 6896
  145.1669  139.3123  143.4488 H   0  0  0  0  0  0  0  0  0  0  0  0  # atno 7974 bound_to 7965
  155.5408  140.3484  155.4446 H   0  0  0  0  0  0  0  0  0  0  0  0  # atno 8008 bound_to 7997
  156.0652  140.1350  156.9920 H   0  0  0  0  0  0  0  0  0  0  0  0  # atno 8009 bound_to 7997
  154.4500  140.0977  156.6561 H   0  0  0  0  0  0  0  0  0  0  0  0  # atno 8010 bound_to 7997
  140.1973  144.4024  150.6544 H   0  0  0  0  0  0  0  0  0  0  0  0  # atno 10167 bound_to 10162
  156.2887  130.7362  151.1382 H   0  0  0  0  0  0  0  0  0  0  0  0  # atno 10718 bound_to 10713
  153.5713  135.3502  155.2838 H   0  0  0  0  0  0  0  0  0  0  0  0  # atno 10763 bound_to 10752
  154.8681  135.4160  154.2723 H   0  0  0  0  0  0  0  0  0  0  0  0  # atno 10764 bound_to 10752
  153.3489  135.7054  153.6875 H   0  0  0  0  0  0  0  0  0  0  0  0  # atno 10765 bound_to 10752
  141.1444  133.6676  156.5934 H   0  0  0  0  0  0  0  0  0  0  0  0  # atno 11005 bound_to 11000
  146.3474  140.1800  142.8589 LP  0  0  0  0  0  0  0  0  0  0  0  0  # atno 17320 bound_to 7965
  145.0273  140.8842  143.5131 LP  0  0  0  0  0  0  0  0  0  0  0  0  # atno 17321 bound_to 7965
  140.6414  143.2204  151.6281 LP  0  0  0  0  0  0  0  0  0  0  0  0  # atno 17342 bound_to 10162
  139.5231  144.3143  152.0966 LP  0  0  0  0  0  0  0  0  0  0  0  0  # atno 17343 bound_to 10162
  157.7336  131.0589  150.5568 LP  0  0  0  0  0  0  0  0  0  0  0  0  # atno 17370 bound_to 10713
  156.5682  130.4273  149.6031 LP  0  0  0  0  0  0  0  0  0  0  0  0  # atno 17371 bound_to 10713
  140.3745  134.7577  157.4620 LP  0  0  0  0  0  0  0  0  0  0  0  0  # atno 17394 bound_to 11000
  140.0685  134.5896  155.8668 LP  0  0  0  0  0  0  0  0  0  0  0  0  # atno 17395 bound_to 11000

$$$$
