AV-unprocessed.smi:3198|AV-procd|sdf|12228|dock5
  -GOLD-   2272018 63D 1   1.00000     0.00000
 Structure written by MMmdl.
 38 39  0  0  0  0  0  0  0  0  2 V2000
  153.1165  141.2854  160.0973 C   0  0  0  0  0  0  0  0  0  0  0  0
  152.6082  142.3950  159.2018 C   0  0  0  0  0  0  0  0  0  0  0  0
  153.0704  143.7227  159.3105 C   0  0  0  0  0  0  0  0  0  0  0  0
  152.5493  144.7013  158.4414 C   0  0  0  0  0  0  0  0  0  0  0  0
  151.5832  144.3329  157.4832 C   0  0  0  0  0  0  0  0  0  0  0  0
  151.1595  142.9837  157.4046 C   0  0  0  0  0  0  0  0  0  0  0  0
  150.2252  142.4956  156.4790 N   0  0  0  0  0  0  0  0  0  0  0  0
  149.8549  141.0850  156.4802 C   0  0  0  0  0  0  0  0  0  0  0  0
  149.8622  140.4754  155.0695 C   0  0  0  0  0  0  0  0  0  0  0  0
  151.1250  139.8802  154.8337 O   0  0  0  0  0  0  0  0  0  0  0  0
  151.0543  138.6229  154.1854 C   0  0  0  0  0  0  0  0  0  0  0  0
  150.7339  137.5413  155.2268 C   0  0  1  0  0  0  0  0  0  0  0  0
  149.2490  137.2091  155.4001 C   0  0  0  0  0  0  0  0  0  0  0  0
  149.2485  135.7361  155.7889 C   0  0  0  0  0  0  0  0  0  0  0  0
  150.7153  135.3112  155.6844 C   0  0  0  0  0  0  0  0  0  0  0  0
  151.3177  136.3001  154.8640 O   0  0  0  0  0  0  0  0  0  0  0  0
  151.6828  142.0834  158.2670 N   0  3  0  0  0  0  0  0  0  0  0  0
  153.7366  141.6832  160.9012 H   0  0  0  0  0  0  0  0  0  0  0  0
  153.7146  140.5786  159.5216 H   0  0  0  0  0  0  0  0  0  0  0  0
  152.2827  140.7459  160.5474 H   0  0  0  0  0  0  0  0  0  0  0  0
  153.8132  143.9903  160.0481 H   0  0  0  0  0  0  0  0  0  0  0  0
  152.8892  145.7244  158.5064 H   0  0  0  0  0  0  0  0  0  0  0  0
  151.1909  145.0877  156.8190 H   0  0  0  0  0  0  0  0  0  0  0  0
  149.5346  143.1446  156.1303 H   0  0  0  0  0  0  0  0  0  0  0  0
  150.5955  140.5658  157.0888 H   0  0  0  0  0  0  0  0  0  0  0  0
  148.8977  140.9244  156.9754 H   0  0  0  0  0  0  0  0  0  0  0  0
  149.0577  139.7452  154.9677 H   0  0  0  0  0  0  0  0  0  0  0  0
  149.6928  141.2556  154.3264 H   0  0  0  0  0  0  0  0  0  0  0  0
  150.2774  138.6331  153.4194 H   0  0  0  0  0  0  0  0  0  0  0  0
  152.0022  138.4064  153.6909 H   0  0  0  0  0  0  0  0  0  0  0  0
  151.1507  137.8372  156.1915 H   0  0  0  0  0  0  0  0  0  0  0  0
  148.7750  137.8422  156.1506 H   0  0  0  0  0  0  0  0  0  0  0  0
  148.7011  137.3362  154.4658 H   0  0  0  0  0  0  0  0  0  0  0  0
  148.8604  135.5744  156.7949 H   0  0  0  0  0  0  0  0  0  0  0  0
  148.6293  135.1648  155.0966 H   0  0  0  0  0  0  0  0  0  0  0  0
  151.1891  135.3237  156.6674 H   0  0  0  0  0  0  0  0  0  0  0  0
  150.8353  134.3138  155.2613 H   0  0  0  0  0  0  0  0  0  0  0  0
  151.3702  141.1143  158.2055 H   0  0  0  0  0  0  0  0  0  0  0  0
  1  2  1  0  0  0  0
  1 18  1  0  0  0  0
  1 19  1  0  0  0  0
  1 20  1  0  0  0  0
  2 17  1  0  0  0  0
  2  3  2  0  0  0  0
  3  4  1  0  0  0  0
  3 21  1  0  0  0  0
  4  5  2  0  0  0  0
  4 22  1  0  0  0  0
  5  6  1  0  0  0  0
  5 23  1  0  0  0  0
  6  7  1  0  0  0  0
  6 17  2  0  0  0  0
  7  8  1  0  0  0  0
  7 24  1  0  0  0  0
  8  9  1  0  0  0  0
  8 25  1  0  0  0  0
  8 26  1  0  0  0  0
  9 10  1  0  0  0  0
  9 27  1  0  0  0  0
  9 28  1  0  0  0  0
 10 11  1  0  0  0  0
 11 12  1  0  0  0  0
 11 29  1  0  0  0  0
 11 30  1  0  0  0  0
 12 16  1  0  0  0  0
 12 13  1  0  0  0  0
 12 31  1  0  0  0  0
 13 14  1  0  0  0  0
 13 32  1  0  0  0  0
 13 33  1  0  0  0  0
 14 15  1  0  0  0  0
 14 34  1  0  0  0  0
 14 35  1  0  0  0  0
 15 16  1  0  0  0  0
 15 36  1  0  0  0  0
 15 37  1  0  0  0  0
 17 38  1  0  0  0  0
M  CHG  1  17   1
M  END
> <s_m_source_file>
AV-unprocessed.smi

> <i_m_source_file_index>
3198

> <i_lp_mmshare_version>
43012

> <i_f3d_flags>
0

> <s_epik_input>
W0NIM11jMVtjSF1bY0hdW2NIXWMobjEpW05IXVtDSDJdW0NIMl1PW0NIMl1bQ0BASF0yW0NIMl1bQ0gyXVtDSDJdTzI=

> <s_epik_cmdline>
J2VwaWtfcHl0aG9uJywgJy1waCcsICc3LjAnLCAnLXRuJywgJzgnLCAnLW1hJywgJzIwMCcsICctbWV0YWxfYmluZGluZycsICctaW1hZScsICc8aW5maWxlLm1hZT4nLCAnLW9tYWUnLCAnPG91dGZpbGUubWFlPic=

> <r_lp_tautomer_probability>
0.999994

> <r_epik_Ionization_Penalty>
0.0710016

> <r_epik_Ionization_Penalty_Charging>
0.0710012

> <r_epik_Ionization_Penalty_Neutral>
3.47026e-07

> <r_epik_State_Penalty>
0.0622974

> <r_epik_Charging_Adjusted_Penalty>
0.133299

> <i_epik_Tot_Q>
1

> <i_epik_Tot_abs_Q>
1

> <r_epik_Metal_State_Penalty>
2.79497

> <b_epik_Metal_Only>
0

> <s_lp_Force_Field>
OPLS_2005

> <r_lp_Energy>
24.0011

> <b_lp_Chiralities_Consistent>
1

> <s_lp_Variant>
AV-unprocessed.smi:3198-2

> <Gold.Version>
5.8.1

> <Gold.Id.Protein>
6NUR|6NUR_protein|mol2

> <Gold.PLP.Fitness>
47.9146

> <Gold.PLP.PLP>
-38.3334

> <Gold.PLP.part.hbond>
-3.0000

> <Gold.PLP.part.metal>
0.0000

> <Gold.PLP.part.buried>
-5.3795

> <Gold.PLP.part.nonpolar>
-30.5751

> <Gold.PLP.part.repulsive>
0.3712

> <Gold.PLP.ligand.clash>
0.2098

> <Gold.PLP.ligand.torsion>
1.1194

> <Gold.PLP.Chemscore.Hbond>
4.0000

> <Gold.PLP.Chemscore.CHOScore>
0.0000

> <Gold.PLP.Chemscore.Metal>
0.0000

> <Gold.Chemscore.Hbonds>
donor molecule, donor type, donor heavy atom, donor atom, acceptor molecule, acceptor atom, score
      L1  H     7    24       P1  8028  2.00
      P1  H  7989  7998       L1    10  0.95
      P1  H 10752 10765       L1    16  1.00

> <Gold.PLP.Chemscore.Internal.Correction>
0.0298

> <Gold.Rescore>
     Score         DG    S(hbond)    S(metal)    S(lipo)     H(rot)  DE(clash)    DE(int)     intcor
     19.30     -20.47       2.49        0.00      94.43       1.71       0.07       1.11       ----

> <Gold.Chemscore.Fitness>
19.2962

> <Gold.Chemscore.DG>
-20.4736

> <Gold.Chemscore.ZeroCoef>
-5.4800

> <Gold.Chemscore.Hbond>
2.4891

> <Gold.Chemscore.Metal>
0.0000

> <Gold.Chemscore.Lipo>
94.4272

> <Gold.Chemscore.Internal_Hbond>
0.0000

> <Gold.Chemscore.DEClash>
0.0721

> <Gold.Chemscore.DEInternal>
1.1053

> <Gold.Chemscore.Rot>
1.7063

> <Gold.Chemscore.Internal.Correction>
   9.000000E+99

> <Gold.Chemscore.Hbonds>
donor molecule, donor type, donor heavy atom, donor atom, acceptor molecule, acceptor atom, score
      L1  H     7    24       P1  8028  0.99
      P1  H  7989  7998       L1    10  0.06
      P1  H 10752 10765       L1    16  0.40

> <Gold.Chemscore.Hbond.Weighted>
-8.3137

> <Gold.Chemscore.Metal.Weighted>
-0.0000

> <Gold.Chemscore.Lipo.Weighted>
-11.0480

> <Gold.Chemscore.Internal_Hbond.Weighted>
0.0000

> <Gold.Chemscore.DEClash.Weighted>
0.0721

> <Gold.Chemscore.DEInternal.Weighted>
1.1053

> <Gold.Chemscore.Rot.Weighted>
4.3681

> <Gold.Chemscore.Internal.Correction.Weighted>
   9.000000E+99

> <Gold.Protein.RotatedTorsions>
[ 6907 6896 6895 6894 ] final   43.90 input  -60.11 | X-H torsion
[ 7974 7965 7964 7962 ] final  172.23 input  175.53 | X-H torsion
[ 8008 7997 7996 7995 ] final  -37.40 input   59.86 | X-H torsion
[ 10167 10162 10161 10158 ] final    9.28 input  -65.29 | X-H torsion
[ 10718 10713 10712 10709 ] final   92.69 input   66.30 | X-H torsion
[ 10763 10752 10751 10750 ] final  176.55 input  -60.55 | X-H torsion
[ 11005 11000 10999 10996 ] final  114.46 input  -57.11 | X-H torsion

> <Gold.Protein.ActiveResidues>
 VAL166  LYS551  ARG553  GLY616  TRP617  ASP618  TYR619  PRO620  LYS621  CYS622 
 ASP623  PHE694  ASN695  SER759  ASP760  ASP761  ALA762  ILE779  LEU786  VAL792 
 PHE793  MET794  SER795  GLU796  ALA797  LYS798  CYS799  TRP800  GLU811  SER814 

> <Gold.Protein.RotatedAtoms>
  152.2260  134.8368  160.0479 H   0  0  0  0  0  0  0  0  0  0  0  0  # atno 6907 bound_to 6896
  151.9134  133.3562  159.3879 H   0  0  0  0  0  0  0  0  0  0  0  0  # atno 6908 bound_to 6896
  150.7012  134.4634  159.5435 H   0  0  0  0  0  0  0  0  0  0  0  0  # atno 6909 bound_to 6896
  144.7273  139.9468  143.6430 H   0  0  0  0  0  0  0  0  0  0  0  0  # atno 7974 bound_to 7965
  154.4054  140.1605  156.2530 H   0  0  0  0  0  0  0  0  0  0  0  0  # atno 8008 bound_to 7997
  155.9103  140.3428  155.6071 H   0  0  0  0  0  0  0  0  0  0  0  0  # atno 8009 bound_to 7997
  155.7344  140.0784  157.2265 H   0  0  0  0  0  0  0  0  0  0  0  0  # atno 8010 bound_to 7997
  140.6264  143.8091  150.7239 H   0  0  0  0  0  0  0  0  0  0  0  0  # atno 10167 bound_to 10162
  157.6958  131.0452  150.3920 H   0  0  0  0  0  0  0  0  0  0  0  0  # atno 10718 bound_to 10713
  154.4826  135.2775  155.1558 H   0  0  0  0  0  0  0  0  0  0  0  0  # atno 10763 bound_to 10752
  154.3262  135.6199  153.5534 H   0  0  0  0  0  0  0  0  0  0  0  0  # atno 10764 bound_to 10752
  152.9877  135.5754  154.5231 H   0  0  0  0  0  0  0  0  0  0  0  0  # atno 10765 bound_to 10752
  139.8981  134.9568  156.6895 H   0  0  0  0  0  0  0  0  0  0  0  0  # atno 11005 bound_to 11000
  146.0742  139.3731  143.0504 LP  0  0  0  0  0  0  0  0  0  0  0  0  # atno 17320 bound_to 7965
  145.7927  140.9807  143.1040 LP  0  0  0  0  0  0  0  0  0  0  0  0  # atno 17321 bound_to 7965
  140.1692  143.4209  152.2012 LP  0  0  0  0  0  0  0  0  0  0  0  0  # atno 17342 bound_to 10162
  139.5484  144.7318  151.4511 LP  0  0  0  0  0  0  0  0  0  0  0  0  # atno 17343 bound_to 10162
  156.4323  130.3974  149.6752 LP  0  0  0  0  0  0  0  0  0  0  0  0  # atno 17370 bound_to 10713
  156.3965  130.7653  151.2658 LP  0  0  0  0  0  0  0  0  0  0  0  0  # atno 17371 bound_to 10713
  140.7236  133.9119  155.8163 LP  0  0  0  0  0  0  0  0  0  0  0  0  # atno 17394 bound_to 11000
  141.0208  134.0891  157.4122 LP  0  0  0  0  0  0  0  0  0  0  0  0  # atno 17395 bound_to 11000

$$$$
