AV-unprocessed.smi:1365|AV-procd|sdf|5569|dock4
  -GOLD-   22720 5163D 1   1.00000     0.00000
 Structure written by MMmdl.
 41 42  0  0  0  0  0  0  0  0  3 V2000
  148.8527  141.4607  153.9770 C   0  0  0  0  0  0  0  0  0  0  0  0
  149.6718  140.2298  154.1654 C   0  0  0  0  0  0  0  0  0  0  0  0
  149.3437  138.9164  154.3479 C   0  0  0  0  0  0  0  0  0  0  0  0
  150.6091  138.2794  154.4684 C   0  0  0  0  0  0  0  0  0  0  0  0
  150.8189  136.9666  154.6516 N   0  5  0  0  0  0  0  0  0  0  0  0
  149.9528  136.2349  155.3894 C   0  0  0  0  0  0  0  0  0  0  0  0
  150.0024  136.0482  156.6074 O   0  0  0  0  0  0  0  0  0  0  0  0
  148.9669  135.6826  154.6701 N   0  0  0  0  0  0  0  0  0  0  0  0
  147.9089  134.8367  155.2056 C   0  0  0  0  0  0  0  0  0  0  0  0
  146.7452  134.7386  154.2108 C   0  0  0  0  0  0  0  0  0  0  0  0
  145.7029  133.6919  154.6381 C   0  0  0  0  0  0  0  0  0  0  0  0
  144.9325  133.1563  153.4873 N   0  3  0  0  0  0  0  0  0  0  0  0
  145.6848  132.1095  152.7469 C   0  0  0  0  0  0  0  0  0  0  0  0
  144.8200  131.4739  151.6449 C   0  0  0  0  0  0  0  0  0  0  0  0
  144.2825  132.5404  150.6823 C   0  0  0  0  0  0  0  0  0  0  0  0
  143.5381  133.6265  151.4692 C   0  0  0  0  0  0  0  0  0  0  0  0
  144.4312  134.2181  152.5730 C   0  0  0  0  0  0  0  0  0  0  0  0
  151.6160  139.1287  154.3506 N   0  0  0  0  0  0  0  0  0  0  0  0
  151.0234  140.3831  154.1630 O   0  0  0  0  0  0  0  0  0  0  0  0
  148.1359  141.3265  153.1668 H   0  0  0  0  0  0  0  0  0  0  0  0
  149.4806  142.3181  153.7337 H   0  0  0  0  0  0  0  0  0  0  0  0
  148.2974  141.6957  154.8851 H   0  0  0  0  0  0  0  0  0  0  0  0
  148.3571  138.4805  154.3940 H   0  0  0  0  0  0  0  0  0  0  0  0
  148.9596  135.8608  153.6766 H   0  0  0  0  0  0  0  0  0  0  0  0
  148.3052  133.8410  155.4117 H   0  0  0  0  0  0  0  0  0  0  0  0
  147.5653  135.2520  156.1541 H   0  0  0  0  0  0  0  0  0  0  0  0
  146.2640  135.7134  154.1187 H   0  0  0  0  0  0  0  0  0  0  0  0
  147.1468  134.4975  153.2269 H   0  0  0  0  0  0  0  0  0  0  0  0
  146.1742  132.8732  155.1841 H   0  0  0  0  0  0  0  0  0  0  0  0
  145.0166  134.1725  155.3369 H   0  0  0  0  0  0  0  0  0  0  0  0
  146.5869  132.5456  152.3146 H   0  0  0  0  0  0  0  0  0  0  0  0
  146.0089  131.3295  153.4371 H   0  0  0  0  0  0  0  0  0  0  0  0
  145.4022  130.7348  151.0937 H   0  0  0  0  0  0  0  0  0  0  0  0
  143.9862  130.9355  152.0979 H   0  0  0  0  0  0  0  0  0  0  0  0
  145.1082  132.9872  150.1268 H   0  0  0  0  0  0  0  0  0  0  0  0
  143.6193  132.0855  149.9458 H   0  0  0  0  0  0  0  0  0  0  0  0
  143.2087  134.4157  150.7926 H   0  0  0  0  0  0  0  0  0  0  0  0
  142.6361  133.2047  151.9144 H   0  0  0  0  0  0  0  0  0  0  0  0
  143.8580  134.9601  153.1277 H   0  0  0  0  0  0  0  0  0  0  0  0
  145.2771  134.7438  152.1269 H   0  0  0  0  0  0  0  0  0  0  0  0
  144.1228  132.6951  153.8770 H   0  0  0  0  0  0  0  0  0  0  0  0
  1  2  1  0  0  0  0
  1 20  1  0  0  0  0
  1 21  1  0  0  0  0
  1 22  1  0  0  0  0
  2 19  1  0  0  0  0
  2  3  2  0  0  0  0
  3  4  1  0  0  0  0
  3 23  1  0  0  0  0
  4  5  1  0  0  0  0
  4 18  2  0  0  0  0
  5  6  1  0  0  0  0
  6  7  2  0  0  0  0
  6  8  1  0  0  0  0
  8  9  1  0  0  0  0
  8 24  1  0  0  0  0
  9 10  1  0  0  0  0
  9 25  1  0  0  0  0
  9 26  1  0  0  0  0
 10 11  1  0  0  0  0
 10 27  1  0  0  0  0
 10 28  1  0  0  0  0
 11 12  1  0  0  0  0
 11 29  1  0  0  0  0
 11 30  1  0  0  0  0
 12 17  1  0  0  0  0
 12 13  1  0  0  0  0
 12 41  1  0  0  0  0
 13 14  1  0  0  0  0
 13 31  1  0  0  0  0
 13 32  1  0  0  0  0
 14 15  1  0  0  0  0
 14 33  1  0  0  0  0
 14 34  1  0  0  0  0
 15 16  1  0  0  0  0
 15 35  1  0  0  0  0
 15 36  1  0  0  0  0
 16 17  1  0  0  0  0
 16 37  1  0  0  0  0
 16 38  1  0  0  0  0
 17 39  1  0  0  0  0
 17 40  1  0  0  0  0
 18 19  1  0  0  0  0
M  CHG  1   5  -1
M  CHG  1  12   1
M  END
> <s_m_source_file>
AV-unprocessed.smi

> <i_m_source_file_index>
1365

> <i_lp_mmshare_version>
43012

> <i_f3d_flags>
0

> <s_epik_input>
W0NIM11jMVtjSF1jKG5vMSlbTkhdQyg9TylbTkhdW0NIMl1bQ0gyXVtDSDJdTjJbQ0gyXVtDSDJdW0NIMl1bQ0gyXVtDSDJdMg==

> <s_epik_cmdline>
J2VwaWtfcHl0aG9uJywgJy1waCcsICc3LjAnLCAnLXRuJywgJzgnLCAnLW1hJywgJzIwMCcsICctbWV0YWxfYmluZGluZycsICctaW1hZScsICc8aW5maWxlLm1hZT4nLCAnLW9tYWUnLCAnPG91dGZpbGUubWFlPic=

> <r_epik_Ionization_Penalty>
6.42355

> <r_epik_Ionization_Penalty_Charging>
6.42345

> <r_epik_Ionization_Penalty_Neutral>
0.000108417

> <r_epik_State_Penalty>
6.4233

> <r_epik_Charging_Adjusted_Penalty>
12.8467

> <i_epik_Tot_Q>
0

> <i_epik_Tot_abs_Q>
2

> <r_epik_Metal_State_Penalty>
2.35308

> <b_epik_Metal_Only>
1

> <s_lp_Force_Field>
OPLS_2005

> <r_lp_Energy>
6.88196

> <b_lp_Chiralities_Consistent>
1

> <s_lp_Variant>
AV-unprocessed.smi:1365-2

> <Gold.Version>
5.8.1

> <Gold.Id.Protein>
6NUR|6NUR_protein|mol2

> <Gold.PLP.Fitness>
45.4733

> <Gold.PLP.PLP>
-30.1668

> <Gold.PLP.part.hbond>
-4.0000

> <Gold.PLP.part.metal>
0.0000

> <Gold.PLP.part.buried>
-4.9972

> <Gold.PLP.part.nonpolar>
-22.4800

> <Gold.PLP.part.repulsive>
1.2475

> <Gold.PLP.ligand.clash>
0.0000

> <Gold.PLP.ligand.torsion>
1.3850

> <Gold.PLP.Chemscore.Hbond>
6.0000

> <Gold.PLP.Chemscore.CHOScore>
0.0000

> <Gold.PLP.Chemscore.Metal>
0.0000

> <Gold.Chemscore.Hbonds>
donor molecule, donor type, donor heavy atom, donor atom, acceptor molecule, acceptor atom, score
      L1  H     8    24       P1  7948  1.00
      L1  H    12    41       P1 10957  2.00

> <Gold.PLP.Chemscore.Internal.Correction>
0.0765

> <Gold.Rescore>
     Score         DG    S(hbond)    S(metal)    S(lipo)     H(rot)  DE(clash)    DE(int)     intcor
     17.50     -18.96       3.42        0.00      56.56       1.78       0.09       1.37       ----

> <Gold.Chemscore.Fitness>
17.5009

> <Gold.Chemscore.DG>
-18.9621

> <Gold.Chemscore.ZeroCoef>
-5.4800

> <Gold.Chemscore.Hbond>
3.4177

> <Gold.Chemscore.Metal>
0.0000

> <Gold.Chemscore.Lipo>
56.5623

> <Gold.Chemscore.Internal_Hbond>
0.0000

> <Gold.Chemscore.DEClash>
0.0949

> <Gold.Chemscore.DEInternal>
1.3663

> <Gold.Chemscore.Rot>
1.7776

> <Gold.Chemscore.Internal.Correction>
   9.000000E+99

> <Gold.Chemscore.Hbonds>
donor molecule, donor type, donor heavy atom, donor atom, acceptor molecule, acceptor atom, score
      L1  H     8    24       P1  7948  0.94
      L1  H    12    41       P1 10957  0.74

> <Gold.Chemscore.Hbond.Weighted>
-11.4150

> <Gold.Chemscore.Metal.Weighted>
-0.0000

> <Gold.Chemscore.Lipo.Weighted>
-6.6178

> <Gold.Chemscore.Internal_Hbond.Weighted>
0.0000

> <Gold.Chemscore.DEClash.Weighted>
0.0949

> <Gold.Chemscore.DEInternal.Weighted>
1.3663

> <Gold.Chemscore.Rot.Weighted>
4.5506

> <Gold.Chemscore.Internal.Correction.Weighted>
   9.000000E+99

> <Gold.Protein.RotatedTorsions>
[ 6907 6896 6895 6894 ] final    3.56 input  -60.11 | X-H torsion
[ 7974 7965 7964 7962 ] final   93.39 input  175.53 | X-H torsion
[ 8008 7997 7996 7995 ] final -104.55 input   59.86 | X-H torsion
[ 10167 10162 10161 10158 ] final   44.62 input  -65.29 | X-H torsion
[ 10718 10713 10712 10709 ] final   19.43 input   66.30 | X-H torsion
[ 10763 10752 10751 10750 ] final  -58.60 input  -60.55 | X-H torsion
[ 11005 11000 10999 10996 ] final -178.28 input  -57.11 | X-H torsion

> <Gold.Protein.ActiveResidues>
 VAL166  LYS551  ARG553  GLY616  TRP617  ASP618  TYR619  PRO620  LYS621  CYS622 
 ASP623  PHE694  ASN695  SER759  ASP760  ASP761  ALA762  ILE779  LEU786  VAL792 
 PHE793  MET794  SER795  GLU796  ALA797  LYS798  CYS799  TRP800  GLU811  SER814 

> <Gold.Protein.RotatedAtoms>
  151.6271  135.1026  160.0113 H   0  0  0  0  0  0  0  0  0  0  0  0  # atno 6907 bound_to 6896
  152.4126  133.6984  159.6420 H   0  0  0  0  0  0  0  0  0  0  0  0  # atno 6908 bound_to 6896
  150.8016  133.8513  159.3247 H   0  0  0  0  0  0  0  0  0  0  0  0  # atno 6909 bound_to 6896
  145.4796  139.2279  143.2890 H   0  0  0  0  0  0  0  0  0  0  0  0  # atno 7974 bound_to 7965
  154.8869  140.0417  157.1815 H   0  0  0  0  0  0  0  0  0  0  0  0  # atno 8008 bound_to 7997
  154.8581  140.2939  155.5535 H   0  0  0  0  0  0  0  0  0  0  0  0  # atno 8009 bound_to 7997
  156.2998  140.2452  156.3551 H   0  0  0  0  0  0  0  0  0  0  0  0  # atno 8010 bound_to 7997
  140.3325  144.2571  150.6166 H   0  0  0  0  0  0  0  0  0  0  0  0  # atno 10167 bound_to 10162
  157.1103  130.6506  149.5895 H   0  0  0  0  0  0  0  0  0  0  0  0  # atno 10718 bound_to 10713
  154.2406  135.6344  153.5206 H   0  0  0  0  0  0  0  0  0  0  0  0  # atno 10763 bound_to 10752
  152.9931  135.5541  154.5914 H   0  0  0  0  0  0  0  0  0  0  0  0  # atno 10764 bound_to 10752
  154.5419  135.2895  155.1062 H   0  0  0  0  0  0  0  0  0  0  0  0  # atno 10765 bound_to 10752
  140.4315  134.6514  157.4714 H   0  0  0  0  0  0  0  0  0  0  0  0  # atno 11005 bound_to 11000
  146.2349  140.5581  142.8959 LP  0  0  0  0  0  0  0  0  0  0  0  0  # atno 17320 bound_to 7965
  144.7897  140.6007  143.6550 LP  0  0  0  0  0  0  0  0  0  0  0  0  # atno 17321 bound_to 7965
  140.5384  143.2228  151.8125 LP  0  0  0  0  0  0  0  0  0  0  0  0  # atno 17342 bound_to 10162
  139.4854  144.4632  151.9516 LP  0  0  0  0  0  0  0  0  0  0  0  0  # atno 17343 bound_to 10162
  155.9852  130.4881  150.7020 LP  0  0  0  0  0  0  0  0  0  0  0  0  # atno 17370 bound_to 10713
  157.4565  131.0878  151.0791 LP  0  0  0  0  0  0  0  0  0  0  0  0  # atno 17371 bound_to 10713
  140.0131  134.6661  155.9351 LP  0  0  0  0  0  0  0  0  0  0  0  0  # atno 17394 bound_to 11000
  141.1743  133.6539  156.4770 LP  0  0  0  0  0  0  0  0  0  0  0  0  # atno 17395 bound_to 11000

$$$$
