AV-unprocessed.smi:102|AV-procd|sdf|973|dock3
  -GOLD-   2262017523D 1   1.00000     0.00000
 Structure written by MMmdl.
 43 44  0  0  0  0  0  0  0  0  2 V2000
  144.1825  139.5026  157.1448 C   0  0  0  0  0  0  0  0  0  0  0  0
  145.2532  138.8244  157.9899 C   0  0  0  0  0  0  0  0  0  0  0  0
  145.9085  139.4543  158.8201 O   0  0  0  0  0  0  0  0  0  0  0  0
  145.3769  137.5179  157.7116 O   0  0  0  0  0  0  0  0  0  0  0  0
  146.3249  136.7304  158.4151 C   0  0  0  0  0  0  0  0  0  0  0  0
  147.7486  137.2246  158.1030 C   0  0  2  0  0  0  0  0  0  0  0  0
  147.8311  137.4008  156.6874 O   0  0  0  0  0  0  0  0  0  0  0  0
  148.7429  136.5065  156.1131 C   0  0  1  0  0  0  0  0  0  0  0  0
  150.0063  137.2469  155.7219 N   0  0  0  0  0  0  0  0  0  0  0  0
  150.1427  138.6091  155.9377 C   0  0  0  0  0  0  0  0  0  0  0  0
  151.2759  139.2605  155.6066 C   0  0  0  0  0  0  0  0  0  0  0  0
  151.3784  140.5817  155.8324 F   0  0  0  0  0  0  0  0  0  0  0  0
  152.3858  138.5224  155.0079 C   0  0  0  0  0  0  0  0  0  0  0  0
  153.4171  139.1222  154.7085 O   0  0  0  0  0  0  0  0  0  0  0  0
  152.2257  137.1826  154.8068 N   0  5  0  0  0  0  0  0  0  0  0  0
  151.0820  136.5178  155.1444 C   0  0  0  0  0  0  0  0  0  0  0  0
  150.9342  135.3075  154.9770 O   0  0  0  0  0  0  0  0  0  0  0  0
  149.0717  135.4494  157.1728 C   0  0  2  0  0  0  0  0  0  0  0  0
  148.1414  134.3759  157.0718 O   0  0  0  0  0  0  0  0  0  0  0  0
  148.2918  133.2643  157.8114 C   0  0  0  0  0  0  0  0  0  0  0  0
  147.1399  132.2850  157.6266 C   0  0  0  0  0  0  0  0  0  0  0  0
  149.2263  133.0156  158.5723 O   0  0  0  0  0  0  0  0  0  0  0  0
  148.8789  136.2424  158.4527 C   0  0  2  0  0  0  0  0  0  0  0  0
  148.6389  135.3918  159.5689 O   0  0  0  0  0  0  0  0  0  0  0  0
  148.0989  135.8871  160.6955 C   0  0  0  0  0  0  0  0  0  0  0  0
  147.8093  134.8029  161.7245 C   0  0  0  0  0  0  0  0  0  0  0  0
  147.8332  137.0687  160.9152 O   0  0  0  0  0  0  0  0  0  0  0  0
  143.7256  138.7954  156.4519 H   0  0  0  0  0  0  0  0  0  0  0  0
  144.6194  140.3166  156.5663 H   0  0  0  0  0  0  0  0  0  0  0  0
  143.4013  139.9130  157.7845 H   0  0  0  0  0  0  0  0  0  0  0  0
  146.1400  136.7466  159.4896 H   0  0  0  0  0  0  0  0  0  0  0  0
  146.2115  135.6968  158.0858 H   0  0  0  0  0  0  0  0  0  0  0  0
  147.9128  138.1875  158.5881 H   0  0  0  0  0  0  0  0  0  0  0  0
  148.3367  136.1080  155.1817 H   0  0  0  0  0  0  0  0  0  0  0  0
  149.3394  139.1757  156.3827 H   0  0  0  0  0  0  0  0  0  0  0  0
  150.1009  135.1002  157.0768 H   0  0  0  0  0  0  0  0  0  0  0  0
  146.6426  132.4476  156.6700 H   0  0  0  0  0  0  0  0  0  0  0  0
  146.4075  132.4118  158.4238 H   0  0  0  0  0  0  0  0  0  0  0  0
  147.5067  131.2588  157.6542 H   0  0  0  0  0  0  0  0  0  0  0  0
  149.7945  136.8144  158.6118 H   0  0  0  0  0  0  0  0  0  0  0  0
  148.6104  134.0635  161.7373 H   0  0  0  0  0  0  0  0  0  0  0  0
  146.8742  134.2972  161.4841 H   0  0  0  0  0  0  0  0  0  0  0  0
  147.7230  135.2354  162.7215 H   0  0  0  0  0  0  0  0  0  0  0  0
  1  2  1  0  0  0  0
  1 28  1  0  0  0  0
  1 29  1  0  0  0  0
  1 30  1  0  0  0  0
  2  3  2  0  0  0  0
  2  4  1  0  0  0  0
  4  5  1  0  0  0  0
  5  6  1  0  0  0  0
  5 31  1  0  0  0  0
  5 32  1  0  0  0  0
  6 23  1  0  0  0  0
  6  7  1  0  0  0  0
  6 33  1  0  0  0  0
  7  8  1  0  0  0  0
  8  9  1  0  0  0  0
  8 18  1  0  0  0  0
  8 34  1  0  0  0  0
  9 16  1  0  0  0  0
  9 10  1  0  0  0  0
 10 11  2  0  0  0  0
 10 35  1  0  0  0  0
 11 12  1  0  0  0  0
 11 13  1  0  0  0  0
 13 14  2  0  0  0  0
 13 15  1  0  0  0  0
 15 16  1  0  0  0  0
 16 17  2  0  0  0  0
 18 19  1  0  0  0  0
 18 23  1  0  0  0  0
 18 36  1  0  0  0  0
 19 20  1  0  0  0  0
 20 21  1  0  0  0  0
 20 22  2  0  0  0  0
 21 37  1  0  0  0  0
 21 38  1  0  0  0  0
 21 39  1  0  0  0  0
 23 24  1  0  0  0  0
 23 40  1  0  0  0  0
 24 25  1  0  0  0  0
 25 26  1  0  0  0  0
 25 27  2  0  0  0  0
 26 41  1  0  0  0  0
 26 42  1  0  0  0  0
 26 43  1  0  0  0  0
M  CHG  1  15  -1
M  END
> <s_m_source_file>
AV-unprocessed.smi

> <i_m_source_file_index>
102

> <i_lp_mmshare_version>
43012

> <i_f3d_flags>
0

> <s_epik_input>
W0NIM11DKD1PKU9bQ0gyXVtDQEBIXTFPW0NASF0oW0NAQEhdKE9DKD1PKVtDSDNdKVtDQEhdMU9DKD1PKVtDSDNdKW4yW2NIXWMoRiljKD1PKVtuSF1jMj1P

> <s_epik_cmdline>
J2VwaWtfcHl0aG9uJywgJy1waCcsICc3LjAnLCAnLXRuJywgJzgnLCAnLW1hJywgJzIwMCcsICctbWV0YWxfYmluZGluZycsICctaW1hZScsICc8aW5maWxlLm1hZT4nLCAnLW9tYWUnLCAnPG91dGZpbGUubWFlPic=

> <r_epik_Ionization_Penalty>
1.40304

> <r_epik_Ionization_Penalty_Charging>
1.43915e-08

> <r_epik_Ionization_Penalty_Neutral>
1.40304

> <r_epik_State_Penalty>
1.48536

> <r_epik_Charging_Adjusted_Penalty>
1.48536

> <i_epik_Tot_Q>
-1

> <i_epik_Tot_abs_Q>
1

> <r_epik_Metal_State_Penalty>
0.00663881

> <b_epik_Metal_Only>
0

> <s_epik_Chemistry_Notes>
This compound has an ester and may undergo hydrolysis at high or low pH. This compound contains an acetal/aminal-like group ( X-CH(R)-Y where X, Y are N, S, or O) that may be acid/base labile, releasing an aldehyde.

> <s_lp_Force_Field>
OPLS_2005

> <r_lp_Energy>
27.0853

> <b_lp_Chiralities_Consistent>
1

> <s_lp_Variant>
AV-unprocessed.smi:102-29

> <Gold.Version>
5.8.1

> <Gold.Id.Protein>
6NUR|6NUR_protein|mol2

> <Gold.PLP.Fitness>
42.0836

> <Gold.PLP.PLP>
-27.9104

> <Gold.PLP.part.hbond>
-6.9497

> <Gold.PLP.part.metal>
0.0000

> <Gold.PLP.part.buried>
-4.6991

> <Gold.PLP.part.nonpolar>
-16.2616

> <Gold.PLP.part.repulsive>
0.2507

> <Gold.PLP.ligand.clash>
0.0000

> <Gold.PLP.ligand.torsion>
0.3637

> <Gold.PLP.Chemscore.Hbond>
4.9296

> <Gold.PLP.Chemscore.CHOScore>
0.0000

> <Gold.PLP.Chemscore.Metal>
0.0000

> <Gold.Chemscore.Hbonds>
donor molecule, donor type, donor heavy atom, donor atom, acceptor molecule, acceptor atom, score
      P1  H  6896  6908       L1    22  1.00
      P1  H  6931  6943       L1    27  0.94
      P1  H  6934  6947       L1    27  0.80
      P1  H  7997  8008       L1    14  1.00
      P1  H 10752 10765       L1    15  0.85

> <Gold.PLP.Chemscore.Internal.Correction>
0.1118

> <Gold.Rescore>
     Score         DG    S(hbond)    S(metal)    S(lipo)     H(rot)  DE(clash)    DE(int)     intcor
      8.03     -10.83       3.77        0.00      25.42       4.00       0.04       2.77       ----

> <Gold.Chemscore.Fitness>
8.0281

> <Gold.Chemscore.DG>
-10.8317

> <Gold.Chemscore.ZeroCoef>
-5.4800

> <Gold.Chemscore.Hbond>
3.7739

> <Gold.Chemscore.Metal>
0.0000

> <Gold.Chemscore.Lipo>
25.4221

> <Gold.Chemscore.Internal_Hbond>
0.0000

> <Gold.Chemscore.DEClash>
0.0383

> <Gold.Chemscore.DEInternal>
2.7653

> <Gold.Chemscore.Rot>
3.9951

> <Gold.Chemscore.Internal.Correction>
   9.000000E+99

> <Gold.Chemscore.Hbonds>
donor molecule, donor type, donor heavy atom, donor atom, acceptor molecule, acceptor atom, score
      P1  H  6896  6908       L1    22  1.00
      P1  H  6931  6943       L1    27  0.89
      P1  H  6934  6947       L1    27  0.76
      P1  H  7997  8008       L1    14  1.00
      P1  H 10752 10765       L1    15  0.04

> <Gold.Chemscore.Hbond.Weighted>
-12.6047

> <Gold.Chemscore.Metal.Weighted>
-0.0000

> <Gold.Chemscore.Lipo.Weighted>
-2.9744

> <Gold.Chemscore.Internal_Hbond.Weighted>
0.0000

> <Gold.Chemscore.DEClash.Weighted>
0.0383

> <Gold.Chemscore.DEInternal.Weighted>
2.7653

> <Gold.Chemscore.Rot.Weighted>
10.2274

> <Gold.Chemscore.Internal.Correction.Weighted>
   9.000000E+99

> <Gold.Protein.RotatedTorsions>
[ 6907 6896 6895 6894 ] final  119.89 input  -60.11 | X-H torsion
[ 7974 7965 7964 7962 ] final   36.80 input  175.53 | X-H torsion
[ 8008 7997 7996 7995 ] final   -4.31 input   59.86 | X-H torsion
[ 10167 10162 10161 10158 ] final  144.33 input  -65.29 | X-H torsion
[ 10718 10713 10712 10709 ] final   43.02 input   66.30 | X-H torsion
[ 10763 10752 10751 10750 ] final  151.43 input  -60.55 | X-H torsion
[ 11005 11000 10999 10996 ] final   17.36 input  -57.11 | X-H torsion

> <Gold.Protein.ActiveResidues>
 VAL166  LYS551  ARG553  GLY616  TRP617  ASP618  TYR619  PRO620  LYS621  CYS622 
 ASP623  PHE694  ASN695  SER759  ASP760  ASP761  ALA762  ILE779  LEU786  VAL792 
 PHE793  MET794  SER795  GLU796  ALA797  LYS798  CYS799  TRP800  GLU811  SER814 

> <Gold.Protein.RotatedAtoms>
  152.4439  133.7499  159.6687 H   0  0  0  0  0  0  0  0  0  0  0  0  # atno 6907 bound_to 6896
  150.8335  133.8042  159.3095 H   0  0  0  0  0  0  0  0  0  0  0  0  # atno 6908 bound_to 6896
  151.5689  135.1065  160.0042 H   0  0  0  0  0  0  0  0  0  0  0  0  # atno 6909 bound_to 6896
  146.1185  139.5973  142.9306 H   0  0  0  0  0  0  0  0  0  0  0  0  # atno 7974 bound_to 7965
  154.6156  140.2487  155.7613 H   0  0  0  0  0  0  0  0  0  0  0  0  # atno 8008 bound_to 7997
  156.2397  140.2937  156.0359 H   0  0  0  0  0  0  0  0  0  0  0  0  # atno 8009 bound_to 7997
  155.1980  140.0393  157.2903 H   0  0  0  0  0  0  0  0  0  0  0  0  # atno 8010 bound_to 7997
  139.4949  144.5979  151.6543 H   0  0  0  0  0  0  0  0  0  0  0  0  # atno 10167 bound_to 10162
  157.4113  130.7916  149.7433 H   0  0  0  0  0  0  0  0  0  0  0  0  # atno 10718 bound_to 10713
  154.1036  135.2844  155.3246 H   0  0  0  0  0  0  0  0  0  0  0  0  # atno 10763 bound_to 10752
  154.6538  135.5359  153.7937 H   0  0  0  0  0  0  0  0  0  0  0  0  # atno 10764 bound_to 10752
  153.0370  135.6516  154.1199 H   0  0  0  0  0  0  0  0  0  0  0  0  # atno 10765 bound_to 10752
  140.4368  134.1363  155.7686 H   0  0  0  0  0  0  0  0  0  0  0  0  # atno 11005 bound_to 11000
  145.5517  141.0412  143.2275 LP  0  0  0  0  0  0  0  0  0  0  0  0  # atno 17320 bound_to 7965
  144.7575  139.7039  143.7248 LP  0  0  0  0  0  0  0  0  0  0  0  0  # atno 17321 bound_to 7965
  140.5622  144.0250  150.6175 LP  0  0  0  0  0  0  0  0  0  0  0  0  # atno 17342 bound_to 10162
  140.3339  143.3060  152.0658 LP  0  0  0  0  0  0  0  0  0  0  0  0  # atno 17343 bound_to 10162
  155.9851  130.3985  150.3275 LP  0  0  0  0  0  0  0  0  0  0  0  0  # atno 17370 bound_to 10713
  157.1414  131.0297  151.2926 LP  0  0  0  0  0  0  0  0  0  0  0  0  # atno 17371 bound_to 10713
  141.1722  133.8585  157.1534 LP  0  0  0  0  0  0  0  0  0  0  0  0  # atno 17394 bound_to 11000
  140.0097  134.9993  157.0368 LP  0  0  0  0  0  0  0  0  0  0  0  0  # atno 17395 bound_to 11000

$$$$
