AV-unprocessed.smi:95|AV-procd|sdf|855|dock1
  -GOLD-   2262017303D 1   1.00000     0.00000
 Structure written by MMmdl.
 41 44  0  0  0  0  0  0  0  0  1 V2000
  149.6638  139.4655  156.1386 O   0  0  0  0  0  0  0  0  0  0  0  0
  149.4407  138.6764  157.0587 C   0  0  0  0  0  0  0  0  0  0  0  0
  148.1194  138.1301  157.3469 C   0  0  0  0  0  0  0  0  0  0  0  0
  147.0789  138.4566  156.5617 F   0  0  0  0  0  0  0  0  0  0  0  0
  147.9221  137.2989  158.3927 C   0  0  0  0  0  0  0  0  0  0  0  0
  148.9316  136.9190  159.2584 N   0  0  0  0  0  0  0  0  0  0  0  0
  148.6149  135.9695  160.3905 C   0  0  2  0  0  0  0  0  0  0  0  0
  147.4089  135.0528  160.1076 C   0  0  0  0  0  0  0  0  0  0  0  0
  146.4604  135.3768  161.2503 C   0  0  0  0  0  0  0  0  0  0  0  0
  147.3879  135.9771  162.3010 C   0  0  0  0  0  0  0  0  0  0  0  0
  148.3209  136.7175  161.5296 O   0  0  0  0  0  0  0  0  0  0  0  0
  150.2550  137.3618  159.0285 C   0  0  0  0  0  0  0  0  0  0  0  0
  151.1802  137.0080  159.7616 O   0  0  0  0  0  0  0  0  0  0  0  0
  150.4631  138.2337  157.9323 N   0  0  0  0  0  0  0  0  0  0  0  0
  151.7966  138.7780  157.7223 C   0  0  0  0  0  0  0  0  0  0  0  0
  152.0991  140.0650  158.4814 C   0  0  0  0  0  0  0  0  0  0  0  0
  152.8804  140.0258  159.6533 C   0  0  0  0  0  0  0  0  0  0  0  0
  153.1314  141.2316  160.3329 C   0  0  0  0  0  0  0  0  0  0  0  0
  152.5890  142.4277  159.8201 C   0  0  0  0  0  0  0  0  0  0  0  0
  152.8229  143.6528  160.4779 C   0  0  0  0  0  0  0  0  0  0  0  0
  152.2764  144.8426  159.9629 C   0  0  0  0  0  0  0  0  0  0  0  0
  151.4979  144.8062  158.7918 C   0  0  0  0  0  0  0  0  0  0  0  0
  151.2667  143.5814  158.1361 C   0  0  0  0  0  0  0  0  0  0  0  0
  151.8045  142.3760  158.6352 C   0  0  0  0  0  0  0  0  0  0  0  0
  151.5702  141.2102  157.9921 N   0  0  0  0  0  0  0  0  0  0  0  0
  146.9227  136.9233  158.5578 H   0  0  0  0  0  0  0  0  0  0  0  0
  149.5254  135.3942  160.5650 H   0  0  0  0  0  0  0  0  0  0  0  0
  146.9684  135.2282  159.1255 H   0  0  0  0  0  0  0  0  0  0  0  0
  147.7419  134.0156  160.1560 H   0  0  0  0  0  0  0  0  0  0  0  0
  145.7282  136.1200  160.9335 H   0  0  0  0  0  0  0  0  0  0  0  0
  145.9180  134.5037  161.6135 H   0  0  0  0  0  0  0  0  0  0  0  0
  146.8621  136.6106  163.0154 H   0  0  0  0  0  0  0  0  0  0  0  0
  147.9100  135.1934  162.8520 H   0  0  0  0  0  0  0  0  0  0  0  0
  152.5325  138.0141  157.9742 H   0  0  0  0  0  0  0  0  0  0  0  0
  151.9116  138.9232  156.6464 H   0  0  0  0  0  0  0  0  0  0  0  0
  153.2818  139.0937  160.0235 H   0  0  0  0  0  0  0  0  0  0  0  0
  153.7294  141.2339  161.2325 H   0  0  0  0  0  0  0  0  0  0  0  0
  153.4203  143.6846  161.3774 H   0  0  0  0  0  0  0  0  0  0  0  0
  152.4538  145.7821  160.4657 H   0  0  0  0  0  0  0  0  0  0  0  0
  151.0772  145.7185  158.3951 H   0  0  0  0  0  0  0  0  0  0  0  0
  150.6672  143.5675  157.2376 H   0  0  0  0  0  0  0  0  0  0  0  0
  1  2  2  0  0  0  0
  2 14  1  0  0  0  0
  2  3  1  0  0  0  0
  3  4  1  0  0  0  0
  3  5  2  0  0  0  0
  5  6  1  0  0  0  0
  5 26  1  0  0  0  0
  6  7  1  0  0  0  0
  6 12  1  0  0  0  0
  7 11  1  0  0  0  0
  7  8  1  0  0  0  0
  7 27  1  0  0  0  0
  8  9  1  0  0  0  0
  8 28  1  0  0  0  0
  8 29  1  0  0  0  0
  9 10  1  0  0  0  0
  9 30  1  0  0  0  0
  9 31  1  0  0  0  0
 10 11  1  0  0  0  0
 10 32  1  0  0  0  0
 10 33  1  0  0  0  0
 12 13  2  0  0  0  0
 12 14  1  0  0  0  0
 14 15  1  0  0  0  0
 15 16  1  0  0  0  0
 15 34  1  0  0  0  0
 15 35  1  0  0  0  0
 16 25  1  0  0  0  0
 16 17  2  0  0  0  0
 17 18  1  0  0  0  0
 17 36  1  0  0  0  0
 18 19  2  0  0  0  0
 18 37  1  0  0  0  0
 19 24  1  0  0  0  0
 19 20  1  0  0  0  0
 20 21  2  0  0  0  0
 20 38  1  0  0  0  0
 21 22  1  0  0  0  0
 21 39  1  0  0  0  0
 22 23  2  0  0  0  0
 22 40  1  0  0  0  0
 23 24  1  0  0  0  0
 23 41  1  0  0  0  0
 24 25  2  0  0  0  0
M  END
> <s_m_source_file>
AV-unprocessed.smi

> <i_m_source_file_index>
95

> <i_lp_mmshare_version>
43012

> <i_f3d_flags>
0

> <s_epik_input>
TzFbQ0gyXVtDSDJdW0NIMl1bQ0BIXTFuKFtjSF1jKEYpYzI9TyljKD1PKW4yW0NIMl1jKFtjSF1bY0hdMyluYyhjMzQpW2NIXVtjSF1bY0hdW2NIXTQ=

> <s_epik_cmdline>
J2VwaWtfcHl0aG9uJywgJy1waCcsICc3LjAnLCAnLXRuJywgJzgnLCAnLW1hJywgJzIwMCcsICctbWV0YWxfYmluZGluZycsICctaW1hZScsICc8aW5maWxlLm1hZT4nLCAnLW9tYWUnLCAnPG91dGZpbGUubWFlPic=

> <r_lp_tautomer_probability>
1

> <r_epik_Ionization_Penalty>
0.0274176

> <r_epik_Ionization_Penalty_Charging>
1.11818e-08

> <r_epik_Ionization_Penalty_Neutral>
0.0274176

> <r_epik_State_Penalty>
0.0224396

> <r_epik_Charging_Adjusted_Penalty>
0.0224396

> <i_epik_Tot_Q>
0

> <i_epik_Tot_abs_Q>
0

> <r_epik_Metal_State_Penalty>
2.28695e-05

> <b_epik_Metal_Only>
0

> <s_epik_Chemistry_Notes>
This compound contains an acetal/aminal-like group ( X-CH(R)-Y where X, Y are N, S, or O) that may be acid/base labile, releasing an aldehyde.

> <s_lp_Force_Field>
OPLS_2005

> <r_lp_Energy>
29.0351

> <b_lp_Chiralities_Consistent>
1

> <s_lp_Variant>
AV-unprocessed.smi:95-1

> <Gold.Version>
5.8.1

> <Gold.Id.Protein>
6NUR|6NUR_protein|mol2

> <Gold.PLP.Fitness>
49.8560

> <Gold.PLP.PLP>
-46.0607

> <Gold.PLP.part.hbond>
-2.8034

> <Gold.PLP.part.metal>
0.0000

> <Gold.PLP.part.buried>
-6.7959

> <Gold.PLP.part.nonpolar>
-36.4256

> <Gold.PLP.part.repulsive>
0.0089

> <Gold.PLP.ligand.clash>
0.0000

> <Gold.PLP.ligand.torsion>
1.3391

> <Gold.PLP.Chemscore.Hbond>
2.1493

> <Gold.PLP.Chemscore.CHOScore>
0.0000

> <Gold.PLP.Chemscore.Metal>
0.0000

> <Gold.Chemscore.Hbonds>
donor molecule, donor type, donor heavy atom, donor atom, acceptor molecule, acceptor atom, score
      P1  H  6896  6907       L1    13  1.00
      P1  H  6931  6943       L1    11  1.00

> <Gold.PLP.Chemscore.Internal.Correction>
0.0255

> <Gold.Rescore>
     Score         DG    S(hbond)    S(metal)    S(lipo)     H(rot)  DE(clash)    DE(int)     intcor
     20.68     -21.88       2.12        0.00     112.35       1.50       0.04       1.16       ----

> <Gold.Chemscore.Fitness>
20.6804

> <Gold.Chemscore.DG>
-21.8827

> <Gold.Chemscore.ZeroCoef>
-5.4800

> <Gold.Chemscore.Hbond>
2.1240

> <Gold.Chemscore.Metal>
0.0000

> <Gold.Chemscore.Lipo>
112.3491

> <Gold.Chemscore.Internal_Hbond>
0.0000

> <Gold.Chemscore.DEClash>
0.0402

> <Gold.Chemscore.DEInternal>
1.1621

> <Gold.Chemscore.Rot>
1.4985

> <Gold.Chemscore.Internal.Correction>
   9.000000E+99

> <Gold.Chemscore.Hbonds>
donor molecule, donor type, donor heavy atom, donor atom, acceptor molecule, acceptor atom, score
      P1  H  6896  6907       L1    13  0.85
      P1  H  6931  6943       L1    11  1.00

> <Gold.Chemscore.Hbond.Weighted>
-7.0941

> <Gold.Chemscore.Metal.Weighted>
-0.0000

> <Gold.Chemscore.Lipo.Weighted>
-13.1449

> <Gold.Chemscore.Internal_Hbond.Weighted>
0.0000

> <Gold.Chemscore.DEClash.Weighted>
0.0402

> <Gold.Chemscore.DEInternal.Weighted>
1.1621

> <Gold.Chemscore.Rot.Weighted>
3.8362

> <Gold.Chemscore.Internal.Correction.Weighted>
   9.000000E+99

> <Gold.Protein.RotatedTorsions>
[ 6907 6896 6895 6894 ] final  -14.80 input  -60.11 | X-H torsion
[ 7974 7965 7964 7962 ] final  -60.33 input  175.53 | X-H torsion
[ 8008 7997 7996 7995 ] final   79.36 input   59.86 | X-H torsion
[ 10167 10162 10161 10158 ] final  -33.78 input  -65.29 | X-H torsion
[ 10718 10713 10712 10709 ] final  -70.45 input   66.30 | X-H torsion
[ 10763 10752 10751 10750 ] final   26.85 input  -60.55 | X-H torsion
[ 11005 11000 10999 10996 ] final  -27.54 input  -57.11 | X-H torsion

> <Gold.Protein.ActiveResidues>
 VAL166  LYS551  ARG553  GLY616  TRP617  ASP618  TYR619  PRO620  LYS621  CYS622 
 ASP623  PHE694  ASN695  SER759  ASP760  ASP761  ALA762  ILE779  LEU786  VAL792 
 PHE793  MET794  SER795  GLU796  ALA797  LYS798  CYS799  TRP800  GLU811  SER814 

> <Gold.Protein.RotatedAtoms>
  151.3338  135.0848  159.9347 H   0  0  0  0  0  0  0  0  0  0  0  0  # atno 6907 bound_to 6896
  152.5228  133.9516  159.7685 H   0  0  0  0  0  0  0  0  0  0  0  0  # atno 6908 bound_to 6896
  150.9860  133.6144  159.2745 H   0  0  0  0  0  0  0  0  0  0  0  0  # atno 6909 bound_to 6896
  145.8168  140.8565  143.0153 H   0  0  0  0  0  0  0  0  0  0  0  0  # atno 7974 bound_to 7965
  155.8686  140.3450  155.5806 H   0  0  0  0  0  0  0  0  0  0  0  0  # atno 8008 bound_to 7997
  155.7852  140.0864  157.2057 H   0  0  0  0  0  0  0  0  0  0  0  0  # atno 8009 bound_to 7997
  154.4016  140.1493  156.3086 H   0  0  0  0  0  0  0  0  0  0  0  0  # atno 8010 bound_to 7997
  140.7198  143.3595  151.1991 H   0  0  0  0  0  0  0  0  0  0  0  0  # atno 10167 bound_to 10162
  156.0407  130.4331  150.2297 H   0  0  0  0  0  0  0  0  0  0  0  0  # atno 10718 bound_to 10713
  153.0595  135.6551  154.0497 H   0  0  0  0  0  0  0  0  0  0  0  0  # atno 10763 bound_to 10752
  154.0168  135.2923  155.3387 H   0  0  0  0  0  0  0  0  0  0  0  0  # atno 10764 bound_to 10752
  154.6926  135.5276  153.8481 H   0  0  0  0  0  0  0  0  0  0  0  0  # atno 10765 bound_to 10752
  140.9129  133.7449  156.0695 H   0  0  0  0  0  0  0  0  0  0  0  0  # atno 11005 bound_to 11000
  144.6751  140.0475  143.7479 LP  0  0  0  0  0  0  0  0  0  0  0  0  # atno 17320 bound_to 7965
  145.9718  139.2875  143.1094 LP  0  0  0  0  0  0  0  0  0  0  0  0  # atno 17321 bound_to 7965
  139.7144  143.9324  152.2960 LP  0  0  0  0  0  0  0  0  0  0  0  0  # atno 17342 bound_to 10162
  139.9060  144.6884  150.8613 LP  0  0  0  0  0  0  0  0  0  0  0  0  # atno 17343 bound_to 10162
  157.0392  131.0030  151.3289 LP  0  0  0  0  0  0  0  0  0  0  0  0  # atno 17370 bound_to 10713
  157.5222  130.8005  149.7821 LP  0  0  0  0  0  0  0  0  0  0  0  0  # atno 17371 bound_to 10713
  140.8087  134.3424  157.5418 LP  0  0  0  0  0  0  0  0  0  0  0  0  # atno 17394 bound_to 11000
  139.8760  134.9241  156.3342 LP  0  0  0  0  0  0  0  0  0  0  0  0  # atno 17395 bound_to 11000

$$$$
