AV-unprocessed.smi:547|AV-procd|sdf|2889|dock2
  -GOLD-   2262023383D 1   1.00000     0.00000
 Structure written by MMmdl.
 37 38  0  0  0  0  0  0  0  0  1 V2000
  153.4237  139.1755  155.7279 O   0  0  0  0  0  0  0  0  0  0  0  0
  152.2181  139.1203  155.9717 C   0  0  0  0  0  0  0  0  0  0  0  0
  151.2407  138.5897  154.9112 C   0  0  0  0  0  0  0  0  0  0  0  0
  149.9815  139.3496  154.7333 N   0  0  0  0  0  0  0  0  0  0  0  0
  150.0769  140.7367  154.7022 N   0  0  0  0  0  0  0  0  0  0  0  0
  149.0171  141.4491  154.5358 C   0  0  0  0  0  0  0  0  0  0  0  0
  147.7088  140.8555  154.3830 C   0  0  0  0  0  0  0  0  0  0  0  0
  146.3209  141.8617  154.1618 Cl  0  0  0  0  0  0  0  0  0  0  0  0
  147.6190  139.5028  154.4228 C   0  0  0  0  0  0  0  0  0  0  0  0
  146.0852  138.7199  154.2518 Cl  0  0  0  0  0  0  0  0  0  0  0  0
  148.8072  138.6579  154.6114 C   0  0  0  0  0  0  0  0  0  0  0  0
  148.7590  137.4279  154.6577 O   0  0  0  0  0  0  0  0  0  0  0  0
  151.6805  139.5007  157.1404 N   0  0  0  0  0  0  0  0  0  0  0  0
  152.4364  139.9346  158.3103 C   0  0  0  0  0  0  0  0  0  0  0  0
  151.9832  141.3187  158.8270 C   0  0  0  0  0  0  0  0  0  0  0  0
  151.5422  142.2674  157.6891 C   0  0  0  0  0  0  0  0  0  0  0  0
  151.1003  143.6355  158.2324 C   0  0  0  0  0  0  0  0  0  0  0  0
  152.2078  144.2833  159.0768 C   0  0  0  0  0  0  0  0  0  0  0  0
  152.6506  143.3508  160.2144 C   0  0  0  0  0  0  0  0  0  0  0  0
  153.0899  141.9802  159.6730 C   0  0  0  0  0  0  0  0  0  0  0  0
  151.7739  138.5358  153.9597 H   0  0  0  0  0  0  0  0  0  0  0  0
  150.9881  137.5613  155.1744 H   0  0  0  0  0  0  0  0  0  0  0  0
  149.0509  142.5381  154.5016 H   0  0  0  0  0  0  0  0  0  0  0  0
  150.6784  139.4345  157.2441 H   0  0  0  0  0  0  0  0  0  0  0  0
  152.3479  139.1861  159.0997 H   0  0  0  0  0  0  0  0  0  0  0  0
  153.4908  139.9676  158.0347 H   0  0  0  0  0  0  0  0  0  0  0  0
  151.1232  141.1665  159.4811 H   0  0  0  0  0  0  0  0  0  0  0  0
  152.3628  142.4027  156.9831 H   0  0  0  0  0  0  0  0  0  0  0  0
  150.7181  141.8316  157.1237 H   0  0  0  0  0  0  0  0  0  0  0  0
  150.8287  144.2937  157.4067 H   0  0  0  0  0  0  0  0  0  0  0  0
  150.2015  143.5138  158.8386 H   0  0  0  0  0  0  0  0  0  0  0  0
  153.0627  144.5174  158.4414 H   0  0  0  0  0  0  0  0  0  0  0  0
  151.8578  145.2313  159.4864 H   0  0  0  0  0  0  0  0  0  0  0  0
  153.4673  143.8085  160.7733 H   0  0  0  0  0  0  0  0  0  0  0  0
  151.8294  143.2191  160.9201 H   0  0  0  0  0  0  0  0  0  0  0  0
  153.3605  141.3306  160.5063 H   0  0  0  0  0  0  0  0  0  0  0  0
  153.9918  142.1005  159.0711 H   0  0  0  0  0  0  0  0  0  0  0  0
  1  2  2  0  0  0  0
  2  3  1  0  0  0  0
  2 13  1  0  0  0  0
  3  4  1  0  0  0  0
  3 21  1  0  0  0  0
  3 22  1  0  0  0  0
  4 11  1  0  0  0  0
  4  5  1  0  0  0  0
  5  6  2  0  0  0  0
  6  7  1  0  0  0  0
  6 23  1  0  0  0  0
  7  8  1  0  0  0  0
  7  9  2  0  0  0  0
  9 10  1  0  0  0  0
  9 11  1  0  0  0  0
 11 12  2  0  0  0  0
 13 14  1  0  0  0  0
 13 24  1  0  0  0  0
 14 15  1  0  0  0  0
 14 25  1  0  0  0  0
 14 26  1  0  0  0  0
 15 20  1  0  0  0  0
 15 16  1  0  0  0  0
 15 27  1  0  0  0  0
 16 17  1  0  0  0  0
 16 28  1  0  0  0  0
 16 29  1  0  0  0  0
 17 18  1  0  0  0  0
 17 30  1  0  0  0  0
 17 31  1  0  0  0  0
 18 19  1  0  0  0  0
 18 32  1  0  0  0  0
 18 33  1  0  0  0  0
 19 20  1  0  0  0  0
 19 34  1  0  0  0  0
 19 35  1  0  0  0  0
 20 36  1  0  0  0  0
 20 37  1  0  0  0  0
M  END
> <s_m_source_file>
AV-unprocessed.smi

> <i_m_source_file_index>
547

> <i_lp_mmshare_version>
43012

> <i_f3d_flags>
0

> <s_epik_input>
W0NIMl0xW0NIMl1bQ0gyXVtDSDJdW0NIMl1bQ0hdMVtDSDJdW05IXUMoPU8pW0NIMl1uMm5bY0hdYyhDbCljKENsKWMyPU8=

> <s_epik_cmdline>
J2VwaWtfcHl0aG9uJywgJy1waCcsICc3LjAnLCAnLXRuJywgJzgnLCAnLW1hJywgJzIwMCcsICctbWV0YWxfYmluZGluZycsICctaW1hZScsICc8aW5maWxlLm1hZT4nLCAnLW9tYWUnLCAnPG91dGZpbGUubWFlPic=

> <r_lp_tautomer_probability>
1

> <r_epik_Ionization_Penalty>
1.98263e-08

> <r_epik_Ionization_Penalty_Charging>
2.84997e-11

> <r_epik_Ionization_Penalty_Neutral>
1.97978e-08

> <r_epik_State_Penalty>
-0

> <r_epik_Charging_Adjusted_Penalty>
2.84997e-11

> <i_epik_Tot_Q>
0

> <i_epik_Tot_abs_Q>
0

> <r_epik_Metal_State_Penalty>
-0

> <b_epik_Metal_Only>
0

> <s_lp_Force_Field>
OPLS_2005

> <r_lp_Energy>
30.5704

> <b_lp_Chiralities_Consistent>
1

> <s_lp_Variant>
AV-unprocessed.smi:547-1

> <Gold.Version>
5.8.1

> <Gold.Id.Protein>
6NUR|6NUR_protein|mol2

> <Gold.PLP.Fitness>
48.8116

> <Gold.PLP.PLP>
-41.8199

> <Gold.PLP.part.hbond>
-1.7488

> <Gold.PLP.part.metal>
0.0000

> <Gold.PLP.part.buried>
-4.7055

> <Gold.PLP.part.nonpolar>
-35.6044

> <Gold.PLP.part.repulsive>
0.3839

> <Gold.PLP.ligand.clash>
0.0000

> <Gold.PLP.ligand.torsion>
0.6987

> <Gold.PLP.Chemscore.Hbond>
1.7910

> <Gold.PLP.Chemscore.CHOScore>
1.0000

> <Gold.PLP.Chemscore.Metal>
0.0000

> <Gold.Chemscore.Hbonds>
donor molecule, donor type, donor heavy atom, donor atom, acceptor molecule, acceptor atom, score
      P1  H  7989  7998       L1     5  0.76
      P1  H  7997  8010       L1     1  0.68
      L1  C     6    23       P1  8028  1.00

> <Gold.PLP.Chemscore.Internal.Correction>
0.0161

> <Gold.Rescore>
     Score         DG    S(hbond)    S(metal)    S(lipo)     H(rot)  DE(clash)    DE(int)     intcor
     17.78     -18.47       1.60        0.00     102.79       1.71       0.08       0.61       ----

> <Gold.Chemscore.Fitness>
17.7768

> <Gold.Chemscore.DG>
-18.4682

> <Gold.Chemscore.ZeroCoef>
-5.4800

> <Gold.Chemscore.Hbond>
1.5984

> <Gold.Chemscore.Metal>
0.0000

> <Gold.Chemscore.Lipo>
102.7933

> <Gold.Chemscore.Internal_Hbond>
0.0000

> <Gold.Chemscore.DEClash>
0.0765

> <Gold.Chemscore.DEInternal>
0.6149

> <Gold.Chemscore.Rot>
1.7099

> <Gold.Chemscore.Internal.Correction>
   9.000000E+99

> <Gold.Chemscore.Hbonds>
donor molecule, donor type, donor heavy atom, donor atom, acceptor molecule, acceptor atom, score
      P1  H  7989  7998       L1     5  0.17
      P1  H  7997  8010       L1     1  0.68

> <Gold.Chemscore.Hbond.Weighted>
-5.3388

> <Gold.Chemscore.Metal.Weighted>
-0.0000

> <Gold.Chemscore.Lipo.Weighted>
-12.0268

> <Gold.Chemscore.Internal_Hbond.Weighted>
0.0000

> <Gold.Chemscore.DEClash.Weighted>
0.0765

> <Gold.Chemscore.DEInternal.Weighted>
0.6149

> <Gold.Chemscore.Rot.Weighted>
4.3774

> <Gold.Chemscore.Internal.Correction.Weighted>
   9.000000E+99

> <Gold.Protein.RotatedTorsions>
[ 6907 6896 6895 6894 ] final  -99.71 input  -60.11 | X-H torsion
[ 7974 7965 7964 7962 ] final -105.26 input  175.53 | X-H torsion
[ 8008 7997 7996 7995 ] final   91.59 input   59.86 | X-H torsion
[ 10167 10162 10161 10158 ] final   53.35 input  -65.29 | X-H torsion
[ 10718 10713 10712 10709 ] final   83.40 input   66.30 | X-H torsion
[ 10763 10752 10751 10750 ] final  120.41 input  -60.55 | X-H torsion
[ 11005 11000 10999 10996 ] final   83.84 input  -57.11 | X-H torsion

> <Gold.Protein.ActiveResidues>
 VAL166  LYS551  ARG553  GLY616  TRP617  ASP618  TYR619  PRO620  LYS621  CYS622 
 ASP623  PHE694  ASN695  SER759  ASP760  ASP761  ALA762  ILE779  LEU786  VAL792 
 PHE793  MET794  SER795  GLU796  ALA797  LYS798  CYS799  TRP800  GLU811  SER814 

> <Gold.Protein.RotatedAtoms>
  150.7089  134.0999  159.3961 H   0  0  0  0  0  0  0  0  0  0  0  0  # atno 6907 bound_to 6896
  151.8985  135.0386  160.0513 H   0  0  0  0  0  0  0  0  0  0  0  0  # atno 6908 bound_to 6896
  152.2434  133.5119  159.5320 H   0  0  0  0  0  0  0  0  0  0  0  0  # atno 6909 bound_to 6896
  145.2328  140.9177  143.3195 H   0  0  0  0  0  0  0  0  0  0  0  0  # atno 7974 bound_to 7965
  156.0256  140.3336  155.7085 H   0  0  0  0  0  0  0  0  0  0  0  0  # atno 8008 bound_to 7997
  155.5959  140.0651  157.2764 H   0  0  0  0  0  0  0  0  0  0  0  0  # atno 8009 bound_to 7997
  154.4333  140.1819  156.1111 H   0  0  0  0  0  0  0  0  0  0  0  0  # atno 8010 bound_to 7997
  140.2417  144.3577  150.6378 H   0  0  0  0  0  0  0  0  0  0  0  0  # atno 10167 bound_to 10162
  157.6878  131.0089  150.2518 H   0  0  0  0  0  0  0  0  0  0  0  0  # atno 10718 bound_to 10713
  153.5981  135.3453  155.2935 H   0  0  0  0  0  0  0  0  0  0  0  0  # atno 10763 bound_to 10752
  154.8641  135.4221  154.2443 H   0  0  0  0  0  0  0  0  0  0  0  0  # atno 10764 bound_to 10752
  153.3265  135.7041  153.7056 H   0  0  0  0  0  0  0  0  0  0  0  0  # atno 10765 bound_to 10752
  139.9018  134.8174  156.2364 H   0  0  0  0  0  0  0  0  0  0  0  0  # atno 11005 bound_to 11000
  144.9661  139.3929  143.6332 LP  0  0  0  0  0  0  0  0  0  0  0  0  # atno 17320 bound_to 7965
  146.3349  139.8737  142.8836 LP  0  0  0  0  0  0  0  0  0  0  0  0  # atno 17321 bound_to 7965
  140.6109  143.2169  151.6889 LP  0  0  0  0  0  0  0  0  0  0  0  0  # atno 17342 bound_to 10162
  139.5075  144.3643  152.0532 LP  0  0  0  0  0  0  0  0  0  0  0  0  # atno 17343 bound_to 10162
  156.3113  130.3772  149.7659 LP  0  0  0  0  0  0  0  0  0  0  0  0  # atno 17370 bound_to 10713
  156.5258  130.8235  151.3220 LP  0  0  0  0  0  0  0  0  0  0  0  0  # atno 17371 bound_to 10713
  141.0313  133.6987  156.1435 LP  0  0  0  0  0  0  0  0  0  0  0  0  # atno 17394 bound_to 11000
  140.7092  134.4480  157.5582 LP  0  0  0  0  0  0  0  0  0  0  0  0  # atno 17395 bound_to 11000

$$$$
