AV-unprocessed.smi:115|AV-procd|sdf|1125|dock5
  -GOLD-   2262018253D 1   1.00000     0.00000
 Structure written by MMmdl.
 55 57  0  0  0  0  0  0  0  0  1 V2000
  149.2597  145.0254  161.0694 C   0  0  0  0  0  0  0  0  0  0  0  0
  150.0983  144.1292  160.3553 O   0  0  0  0  0  0  0  0  0  0  0  0
  151.4145  144.0229  160.8828 C   0  0  0  0  0  0  0  0  0  0  0  0
  152.4025  143.4629  159.8325 C   0  0  2  0  0  0  0  0  0  0  0  0
  152.6910  144.4351  158.6758 C   0  0  0  0  0  0  0  0  0  0  0  0
  152.0399  142.1216  159.3445 N   0  0  0  0  0  0  0  0  0  0  0  0
  152.7081  140.9551  159.7124 C   0  0  0  0  0  0  0  0  0  0  0  0
  153.8797  140.9297  160.6430 C   0  0  0  0  0  0  0  0  0  0  0  0
  152.0990  139.9081  159.0903 C   0  0  0  0  0  0  0  0  0  0  0  0
  151.0376  140.4081  158.2885 C   0  0  0  0  0  0  0  0  0  0  0  0
  150.0664  139.6478  157.4541 C   0  0  0  0  0  0  0  0  0  0  0  0
  149.2253  140.1910  156.7387 O   0  0  0  0  0  0  0  0  0  0  0  0
  150.1287  138.1113  157.5079 C   0  0  0  0  0  0  0  0  0  0  0  0
  148.9369  137.5503  158.1301 N   0  0  0  0  0  0  0  0  0  0  0  0
  147.7258  137.6038  157.3944 C   0  0  0  0  0  0  0  0  0  0  0  0
  147.6648  138.1052  156.2704 O   0  0  0  0  0  0  0  0  0  0  0  0
  146.5728  137.0296  158.0794 C   0  0  0  0  0  0  0  0  0  0  0  0
  145.3717  137.0340  157.4769 F   0  0  0  0  0  0  0  0  0  0  0  0
  146.6907  136.4941  159.3134 C   0  0  0  0  0  0  0  0  0  0  0  0
  147.8881  136.4497  160.0066 N   0  0  0  0  0  0  0  0  0  0  0  0
  147.9627  135.8455  161.3898 C   0  0  1  0  0  0  0  0  0  0  0  0
  147.1563  136.6891  162.3846 C   0  0  0  0  0  0  0  0  0  0  0  0
  145.8590  135.9150  162.4805 C   0  0  0  0  0  0  0  0  0  0  0  0
  146.3429  134.4807  162.3062 C   0  0  0  0  0  0  0  0  0  0  0  0
  147.3978  134.5664  161.3543 O   0  0  0  0  0  0  0  0  0  0  0  0
  149.0532  137.0029  159.4315 C   0  0  0  0  0  0  0  0  0  0  0  0
  150.1190  137.0149  160.0515 O   0  0  0  0  0  0  0  0  0  0  0  0
  151.0319  141.7791  158.4298 C   0  0  0  0  0  0  0  0  0  0  0  0
  150.1511  142.8083  157.7756 C   0  0  0  0  0  0  0  0  0  0  0  0
  148.2772  145.0556  160.5984 H   0  0  0  0  0  0  0  0  0  0  0  0
  149.6551  146.0411  161.0781 H   0  0  0  0  0  0  0  0  0  0  0  0
  149.1240  144.6968  162.1006 H   0  0  0  0  0  0  0  0  0  0  0  0
  151.7490  144.9887  161.2664 H   0  0  0  0  0  0  0  0  0  0  0  0
  151.3504  143.3567  161.7406 H   0  0  0  0  0  0  0  0  0  0  0  0
  153.3469  143.3588  160.3594 H   0  0  0  0  0  0  0  0  0  0  0  0
  153.0609  145.3878  159.0552 H   0  0  0  0  0  0  0  0  0  0  0  0
  151.8108  144.6460  158.0719 H   0  0  0  0  0  0  0  0  0  0  0  0
  153.4552  144.0312  158.0112 H   0  0  0  0  0  0  0  0  0  0  0  0
  154.2951  139.9242  160.7157 H   0  0  0  0  0  0  0  0  0  0  0  0
  153.5895  141.2403  161.6471 H   0  0  0  0  0  0  0  0  0  0  0  0
  154.6740  141.5889  160.2922 H   0  0  0  0  0  0  0  0  0  0  0  0
  152.3961  138.8775  159.2130 H   0  0  0  0  0  0  0  0  0  0  0  0
  150.2374  137.6406  156.5317 H   0  0  0  0  0  0  0  0  0  0  0  0
  151.0027  137.7848  158.0726 H   0  0  0  0  0  0  0  0  0  0  0  0
  145.8013  136.0887  159.7726 H   0  0  0  0  0  0  0  0  0  0  0  0
  149.0212  135.7636  161.6410 H   0  0  0  0  0  0  0  0  0  0  0  0
  147.6758  136.6854  163.3437 H   0  0  0  0  0  0  0  0  0  0  0  0
  147.0347  137.7212  162.0526 H   0  0  0  0  0  0  0  0  0  0  0  0
  145.3319  136.0761  163.4212 H   0  0  0  0  0  0  0  0  0  0  0  0
  145.1923  136.1917  161.6631 H   0  0  0  0  0  0  0  0  0  0  0  0
  146.7443  134.0966  163.2450 H   0  0  0  0  0  0  0  0  0  0  0  0
  145.5546  133.8067  161.9706 H   0  0  0  0  0  0  0  0  0  0  0  0
  149.8120  142.4811  156.7942 H   0  0  0  0  0  0  0  0  0  0  0  0
  150.6681  143.7465  157.5981 H   0  0  0  0  0  0  0  0  0  0  0  0
  149.2708  143.0099  158.3857 H   0  0  0  0  0  0  0  0  0  0  0  0
  1  2  1  0  0  0  0
  1 30  1  0  0  0  0
  1 31  1  0  0  0  0
  1 32  1  0  0  0  0
  2  3  1  0  0  0  0
  3  4  1  0  0  0  0
  3 33  1  0  0  0  0
  3 34  1  0  0  0  0
  4  5  1  0  0  0  0
  4  6  1  0  0  0  0
  4 35  1  0  0  0  0
  5 36  1  0  0  0  0
  5 37  1  0  0  0  0
  5 38  1  0  0  0  0
  6 28  1  0  0  0  0
  6  7  1  0  0  0  0
  7  8  1  0  0  0  0
  7  9  2  0  0  0  0
  8 39  1  0  0  0  0
  8 40  1  0  0  0  0
  8 41  1  0  0  0  0
  9 10  1  0  0  0  0
  9 42  1  0  0  0  0
 10 11  1  0  0  0  0
 10 28  2  0  0  0  0
 11 12  2  0  0  0  0
 11 13  1  0  0  0  0
 13 14  1  0  0  0  0
 13 43  1  0  0  0  0
 13 44  1  0  0  0  0
 14 26  1  0  0  0  0
 14 15  1  0  0  0  0
 15 16  2  0  0  0  0
 15 17  1  0  0  0  0
 17 18  1  0  0  0  0
 17 19  2  0  0  0  0
 19 20  1  0  0  0  0
 19 45  1  0  0  0  0
 20 21  1  0  0  0  0
 20 26  1  0  0  0  0
 21 25  1  0  0  0  0
 21 22  1  0  0  0  0
 21 46  1  0  0  0  0
 22 23  1  0  0  0  0
 22 47  1  0  0  0  0
 22 48  1  0  0  0  0
 23 24  1  0  0  0  0
 23 49  1  0  0  0  0
 23 50  1  0  0  0  0
 24 25  1  0  0  0  0
 24 51  1  0  0  0  0
 24 52  1  0  0  0  0
 26 27  2  0  0  0  0
 28 29  1  0  0  0  0
 29 53  1  0  0  0  0
 29 54  1  0  0  0  0
 29 55  1  0  0  0  0
M  END
> <s_m_source_file>
AV-unprocessed.smi

> <i_m_source_file_index>
115

> <i_lp_mmshare_version>
43012

> <i_f3d_flags>
0

> <s_epik_input>
W0NIM11PW0NIMl1bQ0BIXShbQ0gzXSluMWMoW0NIM10pW2NIXWMoYzFbQ0gzXSlDKD1PKVtDSDJdbjJjKD1PKWMoRilbY0hdbihjMj1PKVtDQEBIXTNbQ0gyXVtDSDJdW0NIMl1PMw==

> <s_epik_cmdline>
J2VwaWtfcHl0aG9uJywgJy1waCcsICc3LjAnLCAnLXRuJywgJzgnLCAnLW1hJywgJzIwMCcsICctbWV0YWxfYmluZGluZycsICctaW1hZScsICc8aW5maWxlLm1hZT4nLCAnLW9tYWUnLCAnPG91dGZpbGUubWFlPic=

> <r_lp_tautomer_probability>
1

> <r_epik_Ionization_Penalty>
5.02611e-09

> <r_epik_Ionization_Penalty_Charging>
5.01743e-09

> <r_epik_Ionization_Penalty_Neutral>
8.68114e-12

> <r_epik_State_Penalty>
-0

> <r_epik_Charging_Adjusted_Penalty>
5.01743e-09

> <i_epik_Tot_Q>
0

> <i_epik_Tot_abs_Q>
0

> <r_epik_Metal_State_Penalty>
-0

> <b_epik_Metal_Only>
0

> <s_epik_Chemistry_Notes>
This compound contains an acetal/aminal-like group ( X-CH(R)-Y where X, Y are N, S, or O) that may be acid/base labile, releasing an aldehyde.

> <s_lp_Force_Field>
OPLS_2005

> <r_lp_Energy>
51.0988

> <b_lp_Chiralities_Consistent>
1

> <s_lp_Variant>
AV-unprocessed.smi:115-3

> <Gold.Version>
5.8.1

> <Gold.Id.Protein>
6NUR|6NUR_protein|mol2

> <Gold.PLP.Fitness>
51.9488

> <Gold.PLP.PLP>
-49.8799

> <Gold.PLP.part.hbond>
-2.4913

> <Gold.PLP.part.metal>
0.0000

> <Gold.PLP.part.buried>
-5.7841

> <Gold.PLP.part.nonpolar>
-42.9754

> <Gold.PLP.part.repulsive>
0.1625

> <Gold.PLP.ligand.clash>
0.0000

> <Gold.PLP.ligand.torsion>
0.6412

> <Gold.PLP.Chemscore.Hbond>
0.9913

> <Gold.PLP.Chemscore.CHOScore>
0.0000

> <Gold.PLP.Chemscore.Metal>
0.0000

> <Gold.Chemscore.Hbonds>
donor molecule, donor type, donor heavy atom, donor atom, acceptor molecule, acceptor atom, score
      P1  H  6896  6908       L1    27  0.59

> <Gold.PLP.Chemscore.Internal.Correction>
0.3775

> <Gold.Rescore>
     Score         DG    S(hbond)    S(metal)    S(lipo)     H(rot)  DE(clash)    DE(int)     intcor
     10.79     -14.82       0.44        0.00     115.24       2.19       0.02       4.02       ----

> <Gold.Chemscore.Fitness>
10.7887

> <Gold.Chemscore.DG>
-14.8247

> <Gold.Chemscore.ZeroCoef>
-5.4800

> <Gold.Chemscore.Hbond>
0.4423

> <Gold.Chemscore.Metal>
0.0000

> <Gold.Chemscore.Lipo>
115.2438

> <Gold.Chemscore.Internal_Hbond>
0.0000

> <Gold.Chemscore.DEClash>
0.0174

> <Gold.Chemscore.DEInternal>
4.0186

> <Gold.Chemscore.Rot>
2.1938

> <Gold.Chemscore.Internal.Correction>
   9.000000E+99

> <Gold.Chemscore.Hbonds>
donor molecule, donor type, donor heavy atom, donor atom, acceptor molecule, acceptor atom, score
      P1  H  6896  6908       L1    27  0.51

> <Gold.Chemscore.Hbond.Weighted>
-1.4772

> <Gold.Chemscore.Metal.Weighted>
-0.0000

> <Gold.Chemscore.Lipo.Weighted>
-13.4835

> <Gold.Chemscore.Internal_Hbond.Weighted>
0.0000

> <Gold.Chemscore.DEClash.Weighted>
0.0174

> <Gold.Chemscore.DEInternal.Weighted>
4.0186

> <Gold.Chemscore.Rot.Weighted>
5.6160

> <Gold.Chemscore.Internal.Correction.Weighted>
   9.000000E+99

> <Gold.Protein.RotatedTorsions>
[ 6907 6896 6895 6894 ] final -139.01 input  -60.11 | X-H torsion
[ 7974 7965 7964 7962 ] final   43.18 input  175.53 | X-H torsion
[ 8008 7997 7996 7995 ] final  -44.70 input   59.86 | X-H torsion
[ 10167 10162 10161 10158 ] final   86.34 input  -65.29 | X-H torsion
[ 10718 10713 10712 10709 ] final  -65.16 input   66.30 | X-H torsion
[ 10763 10752 10751 10750 ] final  110.11 input  -60.55 | X-H torsion
[ 11005 11000 10999 10996 ] final  163.98 input  -57.11 | X-H torsion

> <Gold.Protein.ActiveResidues>
 VAL166  LYS551  ARG553  GLY616  TRP617  ASP618  TYR619  PRO620  LYS621  CYS622 
 ASP623  PHE694  ASN695  SER759  ASP760  ASP761  ALA762  ILE779  LEU786  VAL792 
 PHE793  MET794  SER795  GLU796  ALA797  LYS798  CYS799  TRP800  GLU811  SER814 

> <Gold.Protein.RotatedAtoms>
  151.0423  133.5695  159.2649 H   0  0  0  0  0  0  0  0  0  0  0  0  # atno 6907 bound_to 6896
  151.2737  135.0692  159.9153 H   0  0  0  0  0  0  0  0  0  0  0  0  # atno 6908 bound_to 6896
  152.5366  134.0149  159.8009 H   0  0  0  0  0  0  0  0  0  0  0  0  # atno 6909 bound_to 6896
  146.0677  139.5215  142.9618 H   0  0  0  0  0  0  0  0  0  0  0  0  # atno 7974 bound_to 7965
  154.3998  140.1415  156.3726 H   0  0  0  0  0  0  0  0  0  0  0  0  # atno 8008 bound_to 7997
  155.8078  140.3474  155.5419 H   0  0  0  0  0  0  0  0  0  0  0  0  # atno 8009 bound_to 7997
  155.8417  140.0928  157.1720 H   0  0  0  0  0  0  0  0  0  0  0  0  # atno 8010 bound_to 7997
  139.8885  144.6399  150.8765 H   0  0  0  0  0  0  0  0  0  0  0  0  # atno 10167 bound_to 10162
  156.0686  130.4243  150.1524 H   0  0  0  0  0  0  0  0  0  0  0  0  # atno 10718 bound_to 10713
  153.4443  135.3758  155.2246 H   0  0  0  0  0  0  0  0  0  0  0  0  # atno 10763 bound_to 10752
  154.8755  135.3870  154.4115 H   0  0  0  0  0  0  0  0  0  0  0  0  # atno 10764 bound_to 10752
  153.4665  135.7087  153.6082 H   0  0  0  0  0  0  0  0  0  0  0  0  # atno 10765 bound_to 10752
  140.2413  134.8049  157.3413 H   0  0  0  0  0  0  0  0  0  0  0  0  # atno 11005 bound_to 11000
  145.6447  141.0276  143.1792 LP  0  0  0  0  0  0  0  0  0  0  0  0  # atno 17320 bound_to 7965
  144.7212  139.8023  143.7381 LP  0  0  0  0  0  0  0  0  0  0  0  0  # atno 17321 bound_to 7965
  140.7731  143.3529  151.1979 LP  0  0  0  0  0  0  0  0  0  0  0  0  # atno 17342 bound_to 10162
  139.7131  143.9344  152.2956 LP  0  0  0  0  0  0  0  0  0  0  0  0  # atno 17343 bound_to 10162
  156.9579  130.9795  151.3485 LP  0  0  0  0  0  0  0  0  0  0  0  0  # atno 17370 bound_to 10713
  157.5743  130.8332  149.8434 LP  0  0  0  0  0  0  0  0  0  0  0  0  # atno 17371 bound_to 10713
  140.1651  134.4680  155.7868 LP  0  0  0  0  0  0  0  0  0  0  0  0  # atno 17394 bound_to 11000
  141.2210  133.6917  156.7611 LP  0  0  0  0  0  0  0  0  0  0  0  0  # atno 17395 bound_to 11000

$$$$
