AV-unprocessed.smi:2923|AV-procd|sdf|11215|dock10
  -GOLD-   2272016103D 1   1.00000     0.00000
 Structure written by MMmdl.
 46 48  0  0  0  0  0  0  0  0  1 V2000
  151.0210  129.4123  155.3580 C   0  0  0  0  0  0  0  0  0  0  0  0
  150.0575  129.9776  154.4214 N   0  0  0  0  0  0  0  0  0  0  0  0
  149.2388  129.0931  153.5986 C   0  0  0  0  0  0  0  0  0  0  0  0
  149.8590  131.3761  154.3625 C   0  0  0  0  0  0  0  0  0  0  0  0
  149.0137  131.9631  153.3881 C   0  0  0  0  0  0  0  0  0  0  0  0
  148.8501  133.3614  153.3669 C   0  0  0  0  0  0  0  0  0  0  0  0
  149.5289  134.1463  154.3271 C   0  0  0  0  0  0  0  0  0  0  0  0
  149.4662  135.5644  154.3939 N   0  0  0  0  0  0  0  0  0  0  0  0
  149.7996  136.3700  155.4164 C   0  0  0  0  0  0  0  0  0  0  0  0
  150.2975  136.0035  156.4806 O   0  0  0  0  0  0  0  0  0  0  0  0
  149.5341  137.6512  155.1295 N   0  0  0  0  0  0  0  0  0  0  0  0
  149.7836  138.7671  156.0366 C   0  0  1  0  0  0  0  0  0  0  0  0
  151.2181  139.3064  155.9256 C   0  0  2  0  0  0  0  0  0  0  0  0
  152.1585  139.1803  157.0931 C   0  0  0  0  0  0  0  0  0  0  0  0
  152.0171  140.5349  157.7930 C   0  0  0  0  0  0  0  0  0  0  0  0
  150.7516  141.0318  157.3631 O   0  0  0  0  0  0  0  0  0  0  0  0
  150.6070  140.6983  155.9846 C   0  0  2  0  0  0  0  0  0  0  0  0
  149.2385  140.1340  155.5481 C   0  0  0  0  0  0  0  0  0  0  0  0
  148.9455  140.2872  154.0486 C   0  0  0  0  0  0  0  0  0  0  0  0
  148.0194  140.6793  156.2933 C   0  0  0  0  0  0  0  0  0  0  0  0
  150.3551  133.4759  155.2496 C   0  0  0  0  0  0  0  0  0  0  0  0
  150.5146  132.1364  155.2735 N   0  0  0  0  0  0  0  0  0  0  0  0
  150.7609  129.6779  156.3830 H   0  0  0  0  0  0  0  0  0  0  0  0
  152.0243  129.7813  155.1440 H   0  0  0  0  0  0  0  0  0  0  0  0
  151.0469  128.3245  155.2933 H   0  0  0  0  0  0  0  0  0  0  0  0
  148.1826  129.2140  153.8413 H   0  0  0  0  0  0  0  0  0  0  0  0
  149.5003  128.0468  153.7570 H   0  0  0  0  0  0  0  0  0  0  0  0
  149.3792  129.3153  152.5403 H   0  0  0  0  0  0  0  0  0  0  0  0
  148.4915  131.3712  152.6518 H   0  0  0  0  0  0  0  0  0  0  0  0
  148.2219  133.7992  152.6071 H   0  0  0  0  0  0  0  0  0  0  0  0
  149.1570  136.0229  153.5494 H   0  0  0  0  0  0  0  0  0  0  0  0
  149.1301  137.8703  154.2308 H   0  0  0  0  0  0  0  0  0  0  0  0
  149.5098  138.5596  157.0736 H   0  0  0  0  0  0  0  0  0  0  0  0
  151.6699  139.1094  154.9516 H   0  0  0  0  0  0  0  0  0  0  0  0
  151.8527  138.3680  157.7534 H   0  0  0  0  0  0  0  0  0  0  0  0
  153.1876  138.9931  156.7853 H   0  0  0  0  0  0  0  0  0  0  0  0
  152.0711  140.4562  158.8790 H   0  0  0  0  0  0  0  0  0  0  0  0
  152.7978  141.2207  157.4608 H   0  0  0  0  0  0  0  0  0  0  0  0
  151.0708  141.4183  155.3086 H   0  0  0  0  0  0  0  0  0  0  0  0
  148.7896  141.3322  153.7790 H   0  0  0  0  0  0  0  0  0  0  0  0
  148.0506  139.7378  153.7537 H   0  0  0  0  0  0  0  0  0  0  0  0
  149.7686  139.9198  153.4351 H   0  0  0  0  0  0  0  0  0  0  0  0
  147.8630  141.7380  156.0846 H   0  0  0  0  0  0  0  0  0  0  0  0
  148.1287  140.5760  157.3732 H   0  0  0  0  0  0  0  0  0  0  0  0
  147.1093  140.1482  156.0129 H   0  0  0  0  0  0  0  0  0  0  0  0
  150.9063  134.0296  155.9959 H   0  0  0  0  0  0  0  0  0  0  0  0
  1  2  1  0  0  0  0
  1 23  1  0  0  0  0
  1 24  1  0  0  0  0
  1 25  1  0  0  0  0
  2  3  1  0  0  0  0
  2  4  1  0  0  0  0
  3 26  1  0  0  0  0
  3 27  1  0  0  0  0
  3 28  1  0  0  0  0
  4 22  1  0  0  0  0
  4  5  2  0  0  0  0
  5  6  1  0  0  0  0
  5 29  1  0  0  0  0
  6  7  2  0  0  0  0
  6 30  1  0  0  0  0
  7  8  1  0  0  0  0
  7 21  1  0  0  0  0
  8  9  1  0  0  0  0
  8 31  1  0  0  0  0
  9 10  2  0  0  0  0
  9 11  1  0  0  0  0
 11 12  1  0  0  0  0
 11 32  1  0  0  0  0
 12 18  1  0  0  0  0
 12 13  1  0  0  0  0
 12 33  1  0  0  0  0
 13 17  1  0  0  0  0
 13 14  1  0  0  0  0
 13 34  1  0  0  0  0
 14 15  1  0  0  0  0
 14 35  1  0  0  0  0
 14 36  1  0  0  0  0
 15 16  1  0  0  0  0
 15 37  1  0  0  0  0
 15 38  1  0  0  0  0
 16 17  1  0  0  0  0
 17 18  1  0  0  0  0
 17 39  1  0  0  0  0
 18 19  1  0  0  0  0
 18 20  1  0  0  0  0
 19 40  1  0  0  0  0
 19 41  1  0  0  0  0
 19 42  1  0  0  0  0
 20 43  1  0  0  0  0
 20 44  1  0  0  0  0
 20 45  1  0  0  0  0
 21 22  2  0  0  0  0
 21 46  1  0  0  0  0
M  END
> <s_m_source_file>
AV-unprocessed.smi

> <i_m_source_file_index>
2923

> <i_lp_mmshare_version>
43012

> <i_f3d_flags>
0

> <s_epik_input>
W0NIM11OKFtDSDNdKWMxW2NIXVtjSF1jKFtjSF1uMSlbTkhdQyg9TylbTkhdW0NASF0yQyhbQ0gzXSkoW0NIM10pW0NAQEhdKFtDQEhdMjMpT1tDSDJdW0NIMl0z

> <s_epik_cmdline>
J2VwaWtfcHl0aG9uJywgJy1waCcsICc3LjAnLCAnLXRuJywgJzgnLCAnLW1hJywgJzIwMCcsICctbWV0YWxfYmluZGluZycsICctaW1hZScsICc8aW5maWxlLm1hZT4nLCAnLW9tYWUnLCAnPG91dGZpbGUubWFlPic=

> <r_lp_tautomer_probability>
1

> <r_epik_Ionization_Penalty>
0.628785

> <r_epik_Ionization_Penalty_Charging>
0

> <r_epik_Ionization_Penalty_Neutral>
0.628785

> <r_epik_State_Penalty>
0.644286

> <r_epik_Charging_Adjusted_Penalty>
0.644286

> <i_epik_Tot_Q>
0

> <i_epik_Tot_abs_Q>
0

> <r_epik_Metal_State_Penalty>
0.308404

> <b_epik_Metal_Only>
0

> <s_lp_Force_Field>
OPLS_2005

> <r_lp_Energy>
39.1675

> <b_lp_Chiralities_Consistent>
1

> <s_lp_Variant>
AV-unprocessed.smi:2923-14

> <Gold.Version>
5.8.1

> <Gold.Id.Protein>
6NUR|6NUR_protein|mol2

> <Gold.PLP.Fitness>
35.2269

> <Gold.PLP.PLP>
-32.6479

> <Gold.PLP.part.hbond>
-1.0000

> <Gold.PLP.part.metal>
0.0000

> <Gold.PLP.part.buried>
-2.8593

> <Gold.PLP.part.nonpolar>
-28.8661

> <Gold.PLP.part.repulsive>
0.0579

> <Gold.PLP.ligand.clash>
0.0000

> <Gold.PLP.ligand.torsion>
0.3001

> <Gold.PLP.Chemscore.Hbond>
1.0000

> <Gold.PLP.Chemscore.CHOScore>
0.0000

> <Gold.PLP.Chemscore.Metal>
0.0000

> <Gold.Chemscore.Hbonds>
donor molecule, donor type, donor heavy atom, donor atom, acceptor molecule, acceptor atom, score
      L1  H     8    31       P1  7948  1.00

> <Gold.PLP.Chemscore.Internal.Correction>
0.1792

> <Gold.Rescore>
     Score         DG    S(hbond)    S(metal)    S(lipo)     H(rot)  DE(clash)    DE(int)     intcor
     12.75     -14.45       0.88        0.00      73.44       1.00       0.04       1.66       ----

> <Gold.Chemscore.Fitness>
12.7500

> <Gold.Chemscore.DG>
-14.4461

> <Gold.Chemscore.ZeroCoef>
-5.4800

> <Gold.Chemscore.Hbond>
0.8783

> <Gold.Chemscore.Metal>
0.0000

> <Gold.Chemscore.Lipo>
73.4394

> <Gold.Chemscore.Internal_Hbond>
0.0000

> <Gold.Chemscore.DEClash>
0.0402

> <Gold.Chemscore.DEInternal>
1.6559

> <Gold.Chemscore.Rot>
1.0000

> <Gold.Chemscore.Internal.Correction>
   9.000000E+99

> <Gold.Chemscore.Hbonds>
donor molecule, donor type, donor heavy atom, donor atom, acceptor molecule, acceptor atom, score
      L1  H     8    31       P1  7948  0.86

> <Gold.Chemscore.Hbond.Weighted>
-2.9337

> <Gold.Chemscore.Metal.Weighted>
-0.0000

> <Gold.Chemscore.Lipo.Weighted>
-8.5924

> <Gold.Chemscore.Internal_Hbond.Weighted>
0.0000

> <Gold.Chemscore.DEClash.Weighted>
0.0402

> <Gold.Chemscore.DEInternal.Weighted>
1.6559

> <Gold.Chemscore.Rot.Weighted>
2.5600

> <Gold.Chemscore.Internal.Correction.Weighted>
   9.000000E+99

> <Gold.Protein.RotatedTorsions>
[ 6907 6896 6895 6894 ] final  137.40 input  -60.11 | X-H torsion
[ 7974 7965 7964 7962 ] final  161.02 input  175.53 | X-H torsion
[ 8008 7997 7996 7995 ] final   48.15 input   59.86 | X-H torsion
[ 10167 10162 10161 10158 ] final  -39.16 input  -65.29 | X-H torsion
[ 10718 10713 10712 10709 ] final  116.67 input   66.30 | X-H torsion
[ 10763 10752 10751 10750 ] final   92.70 input  -60.55 | X-H torsion
[ 11005 11000 10999 10996 ] final  162.50 input  -57.11 | X-H torsion

> <Gold.Protein.ActiveResidues>
 VAL166  LYS551  ARG553  GLY616  TRP617  ASP618  TYR619  PRO620  LYS621  CYS622 
 ASP623  PHE694  ASN695  SER759  ASP760  ASP761  ALA762  ILE779  LEU786  VAL792 
 PHE793  MET794  SER795  GLU796  ALA797  LYS798  CYS799  TRP800  GLU811  SER814 

> <Gold.Protein.RotatedAtoms>
  152.2785  133.5448  159.5482 H   0  0  0  0  0  0  0  0  0  0  0  0  # atno 6907 bound_to 6896
  150.7186  134.0597  159.3836 H   0  0  0  0  0  0  0  0  0  0  0  0  # atno 6908 bound_to 6896
  151.8509  135.0558  160.0509 H   0  0  0  0  0  0  0  0  0  0  0  0  # atno 6909 bound_to 6896
  144.7707  139.7839  143.6298 H   0  0  0  0  0  0  0  0  0  0  0  0  # atno 7974 bound_to 7965
  155.3808  140.3428  155.4247 H   0  0  0  0  0  0  0  0  0  0  0  0  # atno 8008 bound_to 7997
  156.1611  140.1601  156.8643 H   0  0  0  0  0  0  0  0  0  0  0  0  # atno 8009 bound_to 7997
  154.5141  140.0783  156.8029 H   0  0  0  0  0  0  0  0  0  0  0  0  # atno 8010 bound_to 7997
  140.7072  143.3231  151.2743 H   0  0  0  0  0  0  0  0  0  0  0  0  # atno 10167 bound_to 10162
  157.6145  131.1028  150.7506 H   0  0  0  0  0  0  0  0  0  0  0  0  # atno 10718 bound_to 10713
  153.2221  135.4352  155.0501 H   0  0  0  0  0  0  0  0  0  0  0  0  # atno 10763 bound_to 10752
  154.8255  135.3359  154.6912 H   0  0  0  0  0  0  0  0  0  0  0  0  # atno 10764 bound_to 10752
  153.7343  135.7009  153.5038 H   0  0  0  0  0  0  0  0  0  0  0  0  # atno 10765 bound_to 10752
  140.2264  134.8157  157.3273 H   0  0  0  0  0  0  0  0  0  0  0  0  # atno 11005 bound_to 11000
  146.1851  139.5062  142.9841 LP  0  0  0  0  0  0  0  0  0  0  0  0  # atno 17320 bound_to 7965
  145.6333  141.0299  143.1851 LP  0  0  0  0  0  0  0  0  0  0  0  0  # atno 17321 bound_to 7965
  139.6692  144.0051  152.2742 LP  0  0  0  0  0  0  0  0  0  0  0  0  # atno 17342 bound_to 10162
  139.9644  144.6536  150.8049 LP  0  0  0  0  0  0  0  0  0  0  0  0  # atno 17343 bound_to 10162
  156.7876  130.4879  149.5390 LP  0  0  0  0  0  0  0  0  0  0  0  0  # atno 17370 bound_to 10713
  156.1262  130.6145  151.0266 LP  0  0  0  0  0  0  0  0  0  0  0  0  # atno 17371 bound_to 10713
  140.1796  134.4506  155.7780 LP  0  0  0  0  0  0  0  0  0  0  0  0  # atno 17394 bound_to 11000
  141.2220  133.6978  156.7846 LP  0  0  0  0  0  0  0  0  0  0  0  0  # atno 17395 bound_to 11000

$$$$
