AV-unprocessed.smi:3270|AV-procd|sdf|12514|dock3
  -GOLD-   2272018423D 1   1.00000     0.00000
 Structure written by MMmdl.
 39 40  0  0  0  0  0  0  0  0  2 V2000
  147.1720  133.0111  152.7911 C   0  0  0  0  0  0  0  0  0  0  0  0
  146.5619  133.9669  151.7454 C   0  0  2  0  0  0  0  0  0  0  0  0
  145.8281  135.1639  152.3771 C   0  0  0  0  0  0  0  0  0  0  0  0
  144.7928  135.0015  153.0246 O   0  0  0  0  0  0  0  0  0  0  0  0
  146.3883  136.3710  152.1955 N   0  0  0  0  0  0  0  0  0  0  0  0
  145.8577  137.6262  152.7135 C   0  0  0  0  0  0  0  0  0  0  0  0
  146.8600  138.7805  152.5225 C   0  0  0  0  0  0  0  0  0  0  0  0
  146.4301  140.0295  153.1996 N   0  3  0  0  0  0  0  0  0  0  0  0
  146.2215  139.8343  154.6547 C   0  0  0  0  0  0  0  0  0  0  0  0
  145.7304  141.1354  155.3110 C   0  0  0  0  0  0  0  0  0  0  0  0
  146.6672  142.1758  155.0628 O   0  0  0  0  0  0  0  0  0  0  0  0
  146.8114  142.4392  153.6730 C   0  0  0  0  0  0  0  0  0  0  0  0
  147.3345  141.1817  152.9572 C   0  0  0  0  0  0  0  0  0  0  0  0
  145.6961  133.2587  150.8084 N   0  0  0  0  0  0  0  0  0  0  0  0
  146.0255  132.2082  149.9758 C   0  0  0  0  0  0  0  0  0  0  0  0
  144.9081  131.8843  149.2612 C   0  0  0  0  0  0  0  0  0  0  0  0
  143.9310  132.8080  149.7254 C   0  0  0  0  0  0  0  0  0  0  0  0
  144.4055  133.6318  150.6452 N   0  0  0  0  0  0  0  0  0  0  0  0
  147.8756  133.5336  153.4402 H   0  0  0  0  0  0  0  0  0  0  0  0
  147.7181  132.2018  152.3055 H   0  0  0  0  0  0  0  0  0  0  0  0
  146.4084  132.5593  153.4257 H   0  0  0  0  0  0  0  0  0  0  0  0
  147.3897  134.3800  151.1672 H   0  0  0  0  0  0  0  0  0  0  0  0
  147.2367  136.4224  151.6500 H   0  0  0  0  0  0  0  0  0  0  0  0
  144.9287  137.8254  152.1807 H   0  0  0  0  0  0  0  0  0  0  0  0
  145.5945  137.5156  153.7670 H   0  0  0  0  0  0  0  0  0  0  0  0
  147.8217  138.4740  152.9370 H   0  0  0  0  0  0  0  0  0  0  0  0
  147.0293  138.9741  151.4621 H   0  0  0  0  0  0  0  0  0  0  0  0
  145.4901  139.0426  154.8223 H   0  0  0  0  0  0  0  0  0  0  0  0
  147.1553  139.5118  155.1181 H   0  0  0  0  0  0  0  0  0  0  0  0
  144.7456  141.4161  154.9338 H   0  0  0  0  0  0  0  0  0  0  0  0
  145.6319  140.9989  156.3881 H   0  0  0  0  0  0  0  0  0  0  0  0
  145.8582  142.7607  153.2502 H   0  0  0  0  0  0  0  0  0  0  0  0
  147.5120  143.2642  153.5418 H   0  0  0  0  0  0  0  0  0  0  0  0
  148.3377  140.9419  153.3134 H   0  0  0  0  0  0  0  0  0  0  0  0
  147.4147  141.3880  151.8906 H   0  0  0  0  0  0  0  0  0  0  0  0
  147.0178  131.7820  149.9610 H   0  0  0  0  0  0  0  0  0  0  0  0
  144.8047  131.1071  148.5186 H   0  0  0  0  0  0  0  0  0  0  0  0
  142.8993  132.9060  149.4216 H   0  0  0  0  0  0  0  0  0  0  0  0
  145.5284  140.2726  152.8144 H   0  0  0  0  0  0  0  0  0  0  0  0
  1  2  1  0  0  0  0
  1 19  1  0  0  0  0
  1 20  1  0  0  0  0
  1 21  1  0  0  0  0
  2  3  1  0  0  0  0
  2 14  1  0  0  0  0
  2 22  1  0  0  0  0
  3  4  2  0  0  0  0
  3  5  1  0  0  0  0
  5  6  1  0  0  0  0
  5 23  1  0  0  0  0
  6  7  1  0  0  0  0
  6 24  1  0  0  0  0
  6 25  1  0  0  0  0
  7  8  1  0  0  0  0
  7 26  1  0  0  0  0
  7 27  1  0  0  0  0
  8 13  1  0  0  0  0
  8  9  1  0  0  0  0
  8 39  1  0  0  0  0
  9 10  1  0  0  0  0
  9 28  1  0  0  0  0
  9 29  1  0  0  0  0
 10 11  1  0  0  0  0
 10 30  1  0  0  0  0
 10 31  1  0  0  0  0
 11 12  1  0  0  0  0
 12 13  1  0  0  0  0
 12 32  1  0  0  0  0
 12 33  1  0  0  0  0
 13 34  1  0  0  0  0
 13 35  1  0  0  0  0
 14 18  1  0  0  0  0
 14 15  1  0  0  0  0
 15 16  2  0  0  0  0
 15 36  1  0  0  0  0
 16 17  1  0  0  0  0
 16 37  1  0  0  0  0
 17 18  2  0  0  0  0
 17 38  1  0  0  0  0
M  CHG  1   8   1
M  END
> <s_m_source_file>
AV-unprocessed.smi

> <i_m_source_file_index>
3270

> <i_lp_mmshare_version>
43012

> <i_f3d_flags>
0

> <s_epik_input>
bjFbY0hdW2NIXVtjSF1uMVtDQEhdKFtDSDNdKUMoPU8pW05IXVtDSDJdW0NIMl1OMltDSDJdW0NIMl1PW0NIMl1bQ0gyXTI=

> <s_epik_cmdline>
J2VwaWtfcHl0aG9uJywgJy1waCcsICc3LjAnLCAnLXRuJywgJzgnLCAnLW1hJywgJzIwMCcsICctbWV0YWxfYmluZGluZycsICctaW1hZScsICc8aW5maWxlLm1hZT4nLCAnLW9tYWUnLCAnPG91dGZpbGUubWFlPic=

> <r_lp_tautomer_probability>
1

> <r_epik_Ionization_Penalty>
0.73255

> <r_epik_Ionization_Penalty_Charging>
0.732531

> <r_epik_Ionization_Penalty_Neutral>
1.96965e-05

> <r_epik_State_Penalty>
0.757939

> <r_epik_Charging_Adjusted_Penalty>
1.49047

> <i_epik_Tot_Q>
1

> <i_epik_Tot_abs_Q>
1

> <r_epik_Metal_State_Penalty>
0.757952

> <b_epik_Metal_Only>
0

> <s_lp_Force_Field>
OPLS_2005

> <r_lp_Energy>
19.6504

> <b_lp_Chiralities_Consistent>
1

> <s_lp_Variant>
AV-unprocessed.smi:3270-3

> <Gold.Version>
5.8.1

> <Gold.Id.Protein>
6NUR|6NUR_protein|mol2

> <Gold.PLP.Fitness>
45.6483

> <Gold.PLP.PLP>
-30.7799

> <Gold.PLP.part.hbond>
-2.0000

> <Gold.PLP.part.metal>
0.0000

> <Gold.PLP.part.buried>
-3.6244

> <Gold.PLP.part.nonpolar>
-25.2125

> <Gold.PLP.part.repulsive>
0.3988

> <Gold.PLP.ligand.clash>
0.0000

> <Gold.PLP.ligand.torsion>
0.1484

> <Gold.PLP.Chemscore.Hbond>
3.0000

> <Gold.PLP.Chemscore.CHOScore>
2.0000

> <Gold.PLP.Chemscore.Metal>
0.0000

> <Gold.Chemscore.Hbonds>
donor molecule, donor type, donor heavy atom, donor atom, acceptor molecule, acceptor atom, score
      L1  H     5    23       P1  7948  0.82
      L1  H     8    39       P1 10175  2.00
      L1  C    15    36       P1 10747  1.00
      L1  C    17    38       P1 10186  1.00

> <Gold.PLP.Chemscore.Internal.Correction>
0.1651

> <Gold.Rescore>
     Score         DG    S(hbond)    S(metal)    S(lipo)     H(rot)  DE(clash)    DE(int)     intcor
     14.40     -15.92       1.97        0.00      74.86       1.91       0.08       1.43       ----

> <Gold.Chemscore.Fitness>
14.4050

> <Gold.Chemscore.DG>
-15.9164

> <Gold.Chemscore.ZeroCoef>
-5.4800

> <Gold.Chemscore.Hbond>
1.9670

> <Gold.Chemscore.Metal>
0.0000

> <Gold.Chemscore.Lipo>
74.8602

> <Gold.Chemscore.Internal_Hbond>
0.0000

> <Gold.Chemscore.DEClash>
0.0846

> <Gold.Chemscore.DEInternal>
1.4268

> <Gold.Chemscore.Rot>
1.9109

> <Gold.Chemscore.Internal.Correction>
   9.000000E+99

> <Gold.Chemscore.Hbonds>
donor molecule, donor type, donor heavy atom, donor atom, acceptor molecule, acceptor atom, score
      L1  H     5    23       P1  7948  0.81
      L1  H     8    39       P1 10175  0.93

> <Gold.Chemscore.Hbond.Weighted>
-6.5696

> <Gold.Chemscore.Metal.Weighted>
-0.0000

> <Gold.Chemscore.Lipo.Weighted>
-8.7586

> <Gold.Chemscore.Internal_Hbond.Weighted>
0.0000

> <Gold.Chemscore.DEClash.Weighted>
0.0846

> <Gold.Chemscore.DEInternal.Weighted>
1.4268

> <Gold.Chemscore.Rot.Weighted>
4.8919

> <Gold.Chemscore.Internal.Correction.Weighted>
   9.000000E+99

> <Gold.Protein.RotatedTorsions>
[ 6907 6896 6895 6894 ] final  -58.20 input  -60.11 | X-H torsion
[ 7974 7965 7964 7962 ] final -136.57 input  175.53 | X-H torsion
[ 8008 7997 7996 7995 ] final  -56.53 input   59.86 | X-H torsion
[ 10167 10162 10161 10158 ] final   19.08 input  -65.29 | X-H torsion
[ 10718 10713 10712 10709 ] final   -4.50 input   66.30 | X-H torsion
[ 10763 10752 10751 10750 ] final   85.06 input  -60.55 | X-H torsion
[ 11005 11000 10999 10996 ] final -125.57 input  -57.11 | X-H torsion

> <Gold.Protein.ActiveResidues>
 VAL166  LYS551  ARG553  GLY616  TRP617  ASP618  TYR619  PRO620  LYS621  CYS622 
 ASP623  PHE694  ASN695  SER759  ASP760  ASP761  ALA762  ILE779  LEU786  VAL792 
 PHE793  MET794  SER795  GLU796  ALA797  LYS798  CYS799  TRP800  GLU811  SER814 

> <Gold.Protein.RotatedAtoms>
  150.8025  134.7129  159.6613 H   0  0  0  0  0  0  0  0  0  0  0  0  # atno 6907 bound_to 6896
  152.4143  134.6066  160.0024 H   0  0  0  0  0  0  0  0  0  0  0  0  # atno 6908 bound_to 6896
  151.6300  133.3296  159.3143 H   0  0  0  0  0  0  0  0  0  0  0  0  # atno 6909 bound_to 6896
  144.8916  140.6649  143.5142 H   0  0  0  0  0  0  0  0  0  0  0  0  # atno 7974 bound_to 7965
  154.4233  140.1127  156.5652 H   0  0  0  0  0  0  0  0  0  0  0  0  # atno 8008 bound_to 7997
  155.6269  140.3495  155.4651 H   0  0  0  0  0  0  0  0  0  0  0  0  # atno 8009 bound_to 7997
  155.9979  140.1193  157.0565 H   0  0  0  0  0  0  0  0  0  0  0  0  # atno 8010 bound_to 7997
  140.5606  143.9345  150.6640 H   0  0  0  0  0  0  0  0  0  0  0  0  # atno 10167 bound_to 10162
  156.7604  130.5268  149.5786 H   0  0  0  0  0  0  0  0  0  0  0  0  # atno 10718 bound_to 10713
  153.1440  135.4631  154.9538 H   0  0  0  0  0  0  0  0  0  0  0  0  # atno 10763 bound_to 10752
  154.7771  135.3176  154.8072 H   0  0  0  0  0  0  0  0  0  0  0  0  # atno 10764 bound_to 10752
  153.8589  135.6914  153.4839 H   0  0  0  0  0  0  0  0  0  0  0  0  # atno 10765 bound_to 10752
  140.9751  134.0751  157.3827 H   0  0  0  0  0  0  0  0  0  0  0  0  # atno 11005 bound_to 11000
  145.3773  139.1645  143.4299 LP  0  0  0  0  0  0  0  0  0  0  0  0  # atno 17320 bound_to 7965
  146.3057  140.3851  142.8688 LP  0  0  0  0  0  0  0  0  0  0  0  0  # atno 17321 bound_to 7965
  140.2794  143.3400  152.1165 LP  0  0  0  0  0  0  0  0  0  0  0  0  # atno 17342 bound_to 10162
  139.5068  144.6820  151.5983 LP  0  0  0  0  0  0  0  0  0  0  0  0  # atno 17343 bound_to 10162
  156.1343  130.6200  151.0377 LP  0  0  0  0  0  0  0  0  0  0  0  0  # atno 17370 bound_to 10713
  157.6737  131.0855  150.7548 LP  0  0  0  0  0  0  0  0  0  0  0  0  # atno 17371 bound_to 10713
  139.8927  135.0126  156.6861 LP  0  0  0  0  0  0  0  0  0  0  0  0  # atno 17394 bound_to 11000
  140.7271  133.9091  155.8186 LP  0  0  0  0  0  0  0  0  0  0  0  0  # atno 17395 bound_to 11000

$$$$
