AV-unprocessed.smi:3019|AV-procd|sdf|11493|dock3
  -GOLD-   2272016433D 1   1.00000     0.00000
 Structure written by MMmdl.
 30 31  0  0  0  0  0  0  0  0  3 V2000
  152.1137  143.2529  158.3292 C   0  0  0  0  0  0  0  0  0  0  0  0
  152.2130  141.8811  159.0103 C   0  0  0  0  0  0  0  0  0  0  0  0
  153.5330  141.6790  159.7666 C   0  0  0  0  0  0  0  0  0  0  0  0
  151.9490  140.7517  158.0329 C   0  0  0  0  0  0  0  0  0  0  0  0
  152.8181  139.7810  157.6981 N   0  5  0  0  0  0  0  0  0  0  0  0
  152.2633  138.9643  156.8264 N   0  0  0  0  0  0  0  0  0  0  0  0
  151.0244  139.4398  156.6316 C   0  0  0  0  0  0  0  0  0  0  0  0
  150.0192  138.8429  155.6692 C   0  0  2  0  0  0  0  0  0  0  0  0
  150.3325  139.2542  154.2170 C   0  0  0  0  0  0  0  0  0  0  0  0
  149.3329  138.6808  153.2951 N   0  3  0  0  0  0  0  0  0  0  0  0
  147.9583  139.0403  153.6929 C   0  0  0  0  0  0  0  0  0  0  0  0
  147.7119  138.6384  155.1566 C   0  0  0  0  0  0  0  0  0  0  0  0
  148.6899  139.2492  155.9900 O   0  0  0  0  0  0  0  0  0  0  0  0
  150.8207  140.5470  157.3593 N   0  0  0  0  0  0  0  0  0  0  0  0
  151.1381  143.3871  157.8609 H   0  0  0  0  0  0  0  0  0  0  0  0
  152.8732  143.3651  157.5550 H   0  0  0  0  0  0  0  0  0  0  0  0
  152.2493  144.0597  159.0496 H   0  0  0  0  0  0  0  0  0  0  0  0
  151.4138  141.8371  159.7515 H   0  0  0  0  0  0  0  0  0  0  0  0
  153.5398  140.7248  160.2942 H   0  0  0  0  0  0  0  0  0  0  0  0
  153.6876  142.4668  160.5044 H   0  0  0  0  0  0  0  0  0  0  0  0
  154.3840  141.6890  159.0848 H   0  0  0  0  0  0  0  0  0  0  0  0
  150.0843  137.7574  155.7652 H   0  0  0  0  0  0  0  0  0  0  0  0
  150.3264  140.3410  154.1205 H   0  0  0  0  0  0  0  0  0  0  0  0
  151.3257  138.9116  153.9252 H   0  0  0  0  0  0  0  0  0  0  0  0
  149.5112  139.0142  152.3584 H   0  0  0  0  0  0  0  0  0  0  0  0
  147.8189  140.1151  153.5691 H   0  0  0  0  0  0  0  0  0  0  0  0
  147.2472  138.5441  153.0322 H   0  0  0  0  0  0  0  0  0  0  0  0
  146.7220  138.9657  155.4751 H   0  0  0  0  0  0  0  0  0  0  0  0
  147.7421  137.5542  155.2751 H   0  0  0  0  0  0  0  0  0  0  0  0
  149.4216  137.6748  153.3106 H   0  0  0  0  0  0  0  0  0  0  0  0
  1  2  1  0  0  0  0
  1 15  1  0  0  0  0
  1 16  1  0  0  0  0
  1 17  1  0  0  0  0
  2  3  1  0  0  0  0
  2  4  1  0  0  0  0
  2 18  1  0  0  0  0
  3 19  1  0  0  0  0
  3 20  1  0  0  0  0
  3 21  1  0  0  0  0
  4 14  2  0  0  0  0
  4  5  1  0  0  0  0
  5  6  1  0  0  0  0
  6  7  2  0  0  0  0
  7  8  1  0  0  0  0
  7 14  1  0  0  0  0
  8 13  1  0  0  0  0
  8  9  1  0  0  0  0
  8 22  1  0  0  0  0
  9 10  1  0  0  0  0
  9 23  1  0  0  0  0
  9 24  1  0  0  0  0
 10 11  1  0  0  0  0
 10 25  1  0  0  0  0
 10 30  1  0  0  0  0
 11 12  1  0  0  0  0
 11 26  1  0  0  0  0
 11 27  1  0  0  0  0
 12 13  1  0  0  0  0
 12 28  1  0  0  0  0
 12 29  1  0  0  0  0
M  CHG  1   5  -1
M  CHG  1  10   1
M  END
> <s_m_source_file>
AV-unprocessed.smi

> <i_m_source_file_index>
3019

> <i_lp_mmshare_version>
43012

> <i_f3d_flags>
0

> <s_epik_input>
W0NIM11bQ0hdKFtDSDNdKWMxbltuSF1jKG4xKVtDQEBIXTJbQ0gyXVtOSF1bQ0gyXVtDSDJdTzI=

> <s_epik_cmdline>
J2VwaWtfcHl0aG9uJywgJy1waCcsICc3LjAnLCAnLXRuJywgJzgnLCAnLW1hJywgJzIwMCcsICctbWV0YWxfYmluZGluZycsICctaW1hZScsICc8aW5maWxlLm1hZT4nLCAnLW9tYWUnLCAnPG91dGZpbGUubWFlPic=

> <r_lp_tautomer_probability>
0.948284

> <r_epik_Ionization_Penalty>
5.01189

> <r_epik_Ionization_Penalty_Charging>
5.01189

> <r_epik_Ionization_Penalty_Neutral>
1.51292e-13

> <r_epik_State_Penalty>
2.75157

> <r_epik_Charging_Adjusted_Penalty>
7.76346

> <i_epik_Tot_Q>
0

> <i_epik_Tot_abs_Q>
2

> <r_epik_Metal_State_Penalty>
0.54282

> <b_epik_Metal_Only>
1

> <s_lp_Force_Field>
OPLS_2005

> <r_lp_Energy>
3.44279

> <b_lp_Chiralities_Consistent>
1

> <s_lp_Variant>
AV-unprocessed.smi:3019-9

> <Gold.Version>
5.8.1

> <Gold.Id.Protein>
6NUR|6NUR_protein|mol2

> <Gold.PLP.Fitness>
31.5644

> <Gold.PLP.PLP>
-20.4203

> <Gold.PLP.part.hbond>
-3.0000

> <Gold.PLP.part.metal>
0.0000

> <Gold.PLP.part.buried>
-1.5699

> <Gold.PLP.part.nonpolar>
-15.3502

> <Gold.PLP.part.repulsive>
0.0940

> <Gold.PLP.ligand.clash>
0.0000

> <Gold.PLP.ligand.torsion>
0.6537

> <Gold.PLP.Chemscore.Hbond>
4.1263

> <Gold.PLP.Chemscore.CHOScore>
0.0000

> <Gold.PLP.Chemscore.Metal>
0.0000

> <Gold.Chemscore.Hbonds>
donor molecule, donor type, donor heavy atom, donor atom, acceptor molecule, acceptor atom, score
      L1  H    10    25       P1  7957  1.00
      L1  H    10    30       P1  7948  1.11
      P1  H  7997  8010       L1     5  2.00

> <Gold.PLP.Chemscore.Internal.Correction>
0.0725

> <Gold.Rescore>
     Score         DG    S(hbond)    S(metal)    S(lipo)     H(rot)  DE(clash)    DE(int)     intcor
     16.11     -16.86       2.72        0.00      47.30       1.26       0.02       0.73       ----

> <Gold.Chemscore.Fitness>
16.1071

> <Gold.Chemscore.DG>
-16.8553

> <Gold.Chemscore.ZeroCoef>
-5.4800

> <Gold.Chemscore.Hbond>
2.7167

> <Gold.Chemscore.Metal>
0.0000

> <Gold.Chemscore.Lipo>
47.2957

> <Gold.Chemscore.Internal_Hbond>
0.0000

> <Gold.Chemscore.DEClash>
0.0202

> <Gold.Chemscore.DEInternal>
0.7280

> <Gold.Chemscore.Rot>
1.2625

> <Gold.Chemscore.Internal.Correction>
   9.000000E+99

> <Gold.Chemscore.Hbonds>
donor molecule, donor type, donor heavy atom, donor atom, acceptor molecule, acceptor atom, score
      L1  H    10    25       P1  7957  0.82
      L1  H    10    30       P1  7948  0.51
      P1  H  7997  8010       L1     5  0.43

> <Gold.Chemscore.Hbond.Weighted>
-9.0737

> <Gold.Chemscore.Metal.Weighted>
-0.0000

> <Gold.Chemscore.Lipo.Weighted>
-5.5336

> <Gold.Chemscore.Internal_Hbond.Weighted>
0.0000

> <Gold.Chemscore.DEClash.Weighted>
0.0202

> <Gold.Chemscore.DEInternal.Weighted>
0.7280

> <Gold.Chemscore.Rot.Weighted>
3.2320

> <Gold.Chemscore.Internal.Correction.Weighted>
   9.000000E+99

> <Gold.Protein.RotatedTorsions>
[ 6907 6896 6895 6894 ] final  156.21 input  -60.11 | X-H torsion
[ 7974 7965 7964 7962 ] final   -6.98 input  175.53 | X-H torsion
[ 8008 7997 7996 7995 ] final   33.31 input   59.86 | X-H torsion
[ 10167 10162 10161 10158 ] final   74.37 input  -65.29 | X-H torsion
[ 10718 10713 10712 10709 ] final  -56.71 input   66.30 | X-H torsion
[ 10763 10752 10751 10750 ] final  -67.11 input  -60.55 | X-H torsion
[ 11005 11000 10999 10996 ] final  -80.64 input  -57.11 | X-H torsion

> <Gold.Protein.ActiveResidues>
 VAL166  LYS551  ARG553  GLY616  TRP617  ASP618  TYR619  PRO620  LYS621  CYS622 
 ASP623  PHE694  ASN695  SER759  ASP760  ASP761  ALA762  ILE779  LEU786  VAL792 
 PHE793  MET794  SER795  GLU796  ALA797  LYS798  CYS799  TRP800  GLU811  SER814 

> <Gold.Protein.RotatedAtoms>
  152.0330  133.3945  159.4305 H   0  0  0  0  0  0  0  0  0  0  0  0  # atno 6907 bound_to 6896
  150.6881  134.3499  159.4914 H   0  0  0  0  0  0  0  0  0  0  0  0  # atno 6908 bound_to 6896
  152.1288  134.9150  160.0610 H   0  0  0  0  0  0  0  0  0  0  0  0  # atno 6909 bound_to 6896
  146.2318  140.2251  142.8338 H   0  0  0  0  0  0  0  0  0  0  0  0  # atno 7974 bound_to 7965
  155.1365  140.3262  155.4462 H   0  0  0  0  0  0  0  0  0  0  0  0  # atno 8008 bound_to 7997
  156.2618  140.2001  156.6431 H   0  0  0  0  0  0  0  0  0  0  0  0  # atno 8009 bound_to 7997
  154.6574  140.0551  157.0010 H   0  0  0  0  0  0  0  0  0  0  0  0  # atno 8010 bound_to 7997
  140.0144  144.5589  150.7632 H   0  0  0  0  0  0  0  0  0  0  0  0  # atno 10167 bound_to 10162
  156.1267  130.4162  150.0341 H   0  0  0  0  0  0  0  0  0  0  0  0  # atno 10718 bound_to 10713
  154.3697  135.6098  153.5733 H   0  0  0  0  0  0  0  0  0  0  0  0  # atno 10763 bound_to 10752
  152.9790  135.5835  154.4536 H   0  0  0  0  0  0  0  0  0  0  0  0  # atno 10764 bound_to 10752
  154.4288  135.2847  155.1904 H   0  0  0  0  0  0  0  0  0  0  0  0  # atno 10765 bound_to 10752
  141.1667  133.7160  156.8304 H   0  0  0  0  0  0  0  0  0  0  0  0  # atno 11005 bound_to 11000
  144.9602  140.8267  143.5518 LP  0  0  0  0  0  0  0  0  0  0  0  0  # atno 17320 bound_to 7965
  145.2220  139.2154  143.5088 LP  0  0  0  0  0  0  0  0  0  0  0  0  # atno 17321 bound_to 7965
  140.7368  143.2758  151.3747 LP  0  0  0  0  0  0  0  0  0  0  0  0  # atno 17342 bound_to 10162
  139.6183  144.0959  152.2366 LP  0  0  0  0  0  0  0  0  0  0  0  0  # atno 17343 bound_to 10162
  156.8265  130.9377  151.3639 LP  0  0  0  0  0  0  0  0  0  0  0  0  # atno 17370 bound_to 10713
  157.6448  130.8835  149.9518 LP  0  0  0  0  0  0  0  0  0  0  0  0  # atno 17371 bound_to 10713
  140.2055  134.8865  157.3217 LP  0  0  0  0  0  0  0  0  0  0  0  0  # atno 17394 bound_to 11000
  140.2142  134.4102  155.7598 LP  0  0  0  0  0  0  0  0  0  0  0  0  # atno 17395 bound_to 11000

$$$$
