AV-unprocessed.smi:2160|AV-procd|sdf|8800|dock2
  -GOLD-   2272011583D 1   1.00000     0.00000
 Structure written by MMmdl.
 44 46  0  0  0  0  0  0  0  0  2 V2000
  144.1162  145.2704  154.2615 C   0  0  0  0  0  0  0  0  0  0  0  0
  144.6698  144.4902  155.3111 O   0  0  0  0  0  0  0  0  0  0  0  0
  145.6465  143.5720  154.9903 C   0  0  0  0  0  0  0  0  0  0  0  0
  146.1093  143.3290  153.6728 C   0  0  0  0  0  0  0  0  0  0  0  0
  147.1136  142.3708  153.4349 C   0  0  0  0  0  0  0  0  0  0  0  0
  147.6750  141.6432  154.5031 C   0  0  0  0  0  0  0  0  0  0  0  0
  148.7432  140.6024  154.2181 C   0  0  0  0  0  0  0  0  0  0  0  0
  149.3957  140.1448  155.3925 O   0  0  0  0  0  0  0  0  0  0  0  0
  150.6098  140.8317  155.6477 C   0  0  0  0  0  0  0  0  0  0  0  0
  150.4798  141.6184  156.9616 C   0  0  1  0  0  0  0  0  0  0  0  0
  149.8748  140.7803  157.9272 O   0  0  0  0  0  0  0  0  0  0  0  0
  151.8502  142.0920  157.4862 C   0  0  0  0  0  0  0  0  0  0  0  0
  151.7380  143.1821  158.4667 N   0  0  0  0  0  0  0  0  0  0  0  0
  151.2869  144.4546  158.2972 C   0  0  0  0  0  0  0  0  0  0  0  0
  151.3700  145.0854  159.5010 N   0  3  0  0  0  0  0  0  0  0  0  0
  151.8807  144.2036  160.4555 C   0  0  0  0  0  0  0  0  0  0  0  0
  152.1431  144.3816  161.8103 C   0  0  0  0  0  0  0  0  0  0  0  0
  152.6631  143.2705  162.5057 C   0  0  0  0  0  0  0  0  0  0  0  0
  152.9021  142.0431  161.8543 C   0  0  0  0  0  0  0  0  0  0  0  0
  152.6329  141.8740  160.4803 C   0  0  0  0  0  0  0  0  0  0  0  0
  152.1199  142.9775  159.7985 C   0  0  0  0  0  0  0  0  0  0  0  0
  147.2118  141.8752  155.8152 C   0  0  0  0  0  0  0  0  0  0  0  0
  146.2089  142.8347  156.0524 C   0  0  0  0  0  0  0  0  0  0  0  0
  143.3629  145.9431  154.6712 H   0  0  0  0  0  0  0  0  0  0  0  0
  143.6269  144.6439  153.5145 H   0  0  0  0  0  0  0  0  0  0  0  0
  144.8767  145.8843  153.7770 H   0  0  0  0  0  0  0  0  0  0  0  0
  145.7088  143.8638  152.8251 H   0  0  0  0  0  0  0  0  0  0  0  0
  147.4526  142.1947  152.4246 H   0  0  0  0  0  0  0  0  0  0  0  0
  148.2725  139.7620  153.7059 H   0  0  0  0  0  0  0  0  0  0  0  0
  149.4778  141.0316  153.5347 H   0  0  0  0  0  0  0  0  0  0  0  0
  151.4590  140.1467  155.6833 H   0  0  0  0  0  0  0  0  0  0  0  0
  150.7876  141.5216  154.8213 H   0  0  0  0  0  0  0  0  0  0  0  0
  149.8432  142.4905  156.8054 H   0  0  0  0  0  0  0  0  0  0  0  0
  149.2433  140.2283  157.4928 H   0  0  0  0  0  0  0  0  0  0  0  0
  152.4158  141.2673  157.9201 H   0  0  0  0  0  0  0  0  0  0  0  0
  152.4522  142.4703  156.6592 H   0  0  0  0  0  0  0  0  0  0  0  0
  150.9249  144.8850  157.3746 H   0  0  0  0  0  0  0  0  0  0  0  0
  151.9586  145.3204  162.3118 H   0  0  0  0  0  0  0  0  0  0  0  0
  152.8819  143.3609  163.5598 H   0  0  0  0  0  0  0  0  0  0  0  0
  153.2993  141.2131  162.4205 H   0  0  0  0  0  0  0  0  0  0  0  0
  152.8172  140.9270  159.9958 H   0  0  0  0  0  0  0  0  0  0  0  0
  147.6190  141.3211  156.6482 H   0  0  0  0  0  0  0  0  0  0  0  0
  145.8652  143.0047  157.0623 H   0  0  0  0  0  0  0  0  0  0  0  0
  151.0954  146.0468  159.6572 H   0  0  0  0  0  0  0  0  0  0  0  0
  1  2  1  0  0  0  0
  1 24  1  0  0  0  0
  1 25  1  0  0  0  0
  1 26  1  0  0  0  0
  2  3  1  0  0  0  0
  3 23  1  0  0  0  0
  3  4  2  0  0  0  0
  4  5  1  0  0  0  0
  4 27  1  0  0  0  0
  5  6  2  0  0  0  0
  5 28  1  0  0  0  0
  6  7  1  0  0  0  0
  6 22  1  0  0  0  0
  7  8  1  0  0  0  0
  7 29  1  0  0  0  0
  7 30  1  0  0  0  0
  8  9  1  0  0  0  0
  9 10  1  0  0  0  0
  9 31  1  0  0  0  0
  9 32  1  0  0  0  0
 10 11  1  0  0  0  0
 10 12  1  0  0  0  0
 10 33  1  0  0  0  0
 11 34  1  0  0  0  0
 12 13  1  0  0  0  0
 12 35  1  0  0  0  0
 12 36  1  0  0  0  0
 13 21  1  0  0  0  0
 13 14  1  0  0  0  0
 14 15  2  0  0  0  0
 14 37  1  0  0  0  0
 15 16  1  0  0  0  0
 15 44  1  0  0  0  0
 16 21  2  0  0  0  0
 16 17  1  0  0  0  0
 17 18  2  0  0  0  0
 17 38  1  0  0  0  0
 18 19  1  0  0  0  0
 18 39  1  0  0  0  0
 19 20  2  0  0  0  0
 19 40  1  0  0  0  0
 20 21  1  0  0  0  0
 20 41  1  0  0  0  0
 22 23  2  0  0  0  0
 22 42  1  0  0  0  0
 23 43  1  0  0  0  0
M  CHG  1  15   1
M  END
> <s_m_source_file>
AV-unprocessed.smi

> <i_m_source_file_index>
2160

> <i_lp_mmshare_version>
43012

> <i_f3d_flags>
0

> <s_epik_input>
W0NIM11PYzFbY0hdW2NIXWMoW2NIXVtjSF0xKVtDSDJdT1tDSDJdW0NASF0oW09IXSlbQ0gyXW4oW2NIXW4yKWMoYzIzKVtjSF1bY0hdW2NIXVtjSF0z

> <s_epik_cmdline>
J2VwaWtfcHl0aG9uJywgJy1waCcsICc3LjAnLCAnLXRuJywgJzgnLCAnLW1hJywgJzIwMCcsICctbWV0YWxfYmluZGluZycsICctaW1hZScsICc8aW5maWxlLm1hZT4nLCAnLW9tYWUnLCAnPG91dGZpbGUubWFlPic=

> <r_lp_tautomer_probability>
1

> <r_epik_Ionization_Penalty>
1.28975

> <r_epik_Ionization_Penalty_Charging>
1.28975

> <r_epik_Ionization_Penalty_Neutral>
9.74819e-07

> <r_epik_State_Penalty>
1.36276

> <r_epik_Charging_Adjusted_Penalty>
2.65251

> <i_epik_Tot_Q>
1

> <i_epik_Tot_abs_Q>
1

> <r_epik_Metal_State_Penalty>
5.39298

> <b_epik_Metal_Only>
0

> <s_lp_Force_Field>
OPLS_2005

> <r_lp_Energy>
25.2455

> <b_lp_Chiralities_Consistent>
1

> <s_lp_Variant>
AV-unprocessed.smi:2160-4

> <Gold.Version>
5.8.1

> <Gold.Id.Protein>
6NUR|6NUR_protein|mol2

> <Gold.PLP.Fitness>
52.2137

> <Gold.PLP.PLP>
-51.1461

> <Gold.PLP.part.hbond>
0.0000

> <Gold.PLP.part.metal>
0.0000

> <Gold.PLP.part.buried>
-6.5755

> <Gold.PLP.part.nonpolar>
-44.6458

> <Gold.PLP.part.repulsive>
0.3500

> <Gold.PLP.ligand.clash>
0.0000

> <Gold.PLP.ligand.torsion>
1.0538

> <Gold.PLP.Chemscore.Hbond>
0.0000

> <Gold.PLP.Chemscore.CHOScore>
1.0000

> <Gold.PLP.Chemscore.Metal>
0.0000

> <Gold.Chemscore.Hbonds>
donor molecule, donor type, donor heavy atom, donor atom, acceptor molecule, acceptor atom, score
      L1  C    14    37       P1  8028  0.76

> <Gold.PLP.Chemscore.Internal.Correction>
0.1753

> <Gold.Rescore>
     Score         DG    S(hbond)    S(metal)    S(lipo)     H(rot)  DE(clash)    DE(int)     intcor
     12.21     -13.95       0.00        0.00     132.34       2.74       0.62       1.12       ----

> <Gold.Chemscore.Fitness>
12.2127

> <Gold.Chemscore.DG>
-13.9517

> <Gold.Chemscore.ZeroCoef>
-5.4800

> <Gold.Chemscore.Hbond>
0.0000

> <Gold.Chemscore.Metal>
0.0000

> <Gold.Chemscore.Lipo>
132.3376

> <Gold.Chemscore.Internal_Hbond>
0.0000

> <Gold.Chemscore.DEClash>
0.6190

> <Gold.Chemscore.DEInternal>
1.1200

> <Gold.Chemscore.Rot>
2.7390

> <Gold.Chemscore.Internal.Correction>
   9.000000E+99

> <Gold.Chemscore.Hbond.Weighted>
-0.0000

> <Gold.Chemscore.Metal.Weighted>
-0.0000

> <Gold.Chemscore.Lipo.Weighted>
-15.4835

> <Gold.Chemscore.Internal_Hbond.Weighted>
0.0000

> <Gold.Chemscore.DEClash.Weighted>
0.6190

> <Gold.Chemscore.DEInternal.Weighted>
1.1200

> <Gold.Chemscore.Rot.Weighted>
7.0118

> <Gold.Chemscore.Internal.Correction.Weighted>
   9.000000E+99

> <Gold.Protein.RotatedTorsions>
[ 6907 6896 6895 6894 ] final  126.67 input  -60.11 | X-H torsion
[ 7974 7965 7964 7962 ] final   34.58 input  175.53 | X-H torsion
[ 8008 7997 7996 7995 ] final   60.15 input   59.86 | X-H torsion
[ 10167 10162 10161 10158 ] final  -73.48 input  -65.29 | X-H torsion
[ 10718 10713 10712 10709 ] final  161.27 input   66.30 | X-H torsion
[ 10763 10752 10751 10750 ] final  -43.51 input  -60.55 | X-H torsion
[ 11005 11000 10999 10996 ] final  -74.43 input  -57.11 | X-H torsion

> <Gold.Protein.ActiveResidues>
 VAL166  LYS551  ARG553  GLY616  TRP617  ASP618  TYR619  PRO620  LYS621  CYS622 
 ASP623  PHE694  ASN695  SER759  ASP760  ASP761  ALA762  ILE779  LEU786  VAL792 
 PHE793  MET794  SER795  GLU796  ALA797  LYS798  CYS799  TRP800  GLU811  SER814 

> <Gold.Protein.RotatedAtoms>
  152.3882  133.6641  159.6215 H   0  0  0  0  0  0  0  0  0  0  0  0  # atno 6907 bound_to 6896
  150.7796  133.8999  159.3347 H   0  0  0  0  0  0  0  0  0  0  0  0  # atno 6908 bound_to 6896
  151.6791  135.0966  160.0264 H   0  0  0  0  0  0  0  0  0  0  0  0  # atno 6909 bound_to 6896
  146.1343  139.6251  142.9206 H   0  0  0  0  0  0  0  0  0  0  0  0  # atno 7974 bound_to 7965
  155.5777  140.3491  155.4532 H   0  0  0  0  0  0  0  0  0  0  0  0  # atno 8008 bound_to 7997
  156.0397  140.1293  157.0194 H   0  0  0  0  0  0  0  0  0  0  0  0  # atno 8009 bound_to 7997
  154.4386  140.1026  156.6204 H   0  0  0  0  0  0  0  0  0  0  0  0  # atno 8010 bound_to 7997
  140.5107  143.2345  151.7599 H   0  0  0  0  0  0  0  0  0  0  0  0  # atno 10167 bound_to 10162
  157.1388  131.0535  151.2336 H   0  0  0  0  0  0  0  0  0  0  0  0  # atno 10718 bound_to 10713
  153.9967  135.6698  153.4757 H   0  0  0  0  0  0  0  0  0  0  0  0  # atno 10763 bound_to 10752
  153.0681  135.4990  154.8240 H   0  0  0  0  0  0  0  0  0  0  0  0  # atno 10764 bound_to 10752
  154.7077  135.3091  154.9208 H   0  0  0  0  0  0  0  0  0  0  0  0  # atno 10765 bound_to 10752
  141.1635  133.6911  156.7363 H   0  0  0  0  0  0  0  0  0  0  0  0  # atno 11005 bound_to 11000
  145.5192  141.0432  143.2445 LP  0  0  0  0  0  0  0  0  0  0  0  0  # atno 17320 bound_to 7965
  144.7723  139.6708  143.7189 LP  0  0  0  0  0  0  0  0  0  0  0  0  # atno 17321 bound_to 7965
  139.4895  144.4395  151.9781 LP  0  0  0  0  0  0  0  0  0  0  0  0  # atno 17342 bound_to 10162
  140.3487  144.3115  150.5953 LP  0  0  0  0  0  0  0  0  0  0  0  0  # atno 17343 bound_to 10162
  157.4326  130.7499  149.7002 LP  0  0  0  0  0  0  0  0  0  0  0  0  # atno 17370 bound_to 10713
  155.9793  130.4042  150.3598 LP  0  0  0  0  0  0  0  0  0  0  0  0  # atno 17371 bound_to 10713
  140.2708  134.8394  157.3845 LP  0  0  0  0  0  0  0  0  0  0  0  0  # atno 17394 bound_to 11000
  140.1523  134.4833  155.7952 LP  0  0  0  0  0  0  0  0  0  0  0  0  # atno 17395 bound_to 11000

$$$$
