AV-unprocessed.smi:1139|AV-procd|sdf|4870|dock8
  -GOLD-   22720 3443D 1   1.00000     0.00000
 Structure written by MMmdl.
 43 44  0  0  0  0  0  0  0  0  2 V2000
  148.9593  137.6080  157.3897 C   0  0  0  0  0  0  0  0  0  0  0  0
  150.3474  137.2812  157.8608 C   0  0  0  0  0  0  0  0  0  0  0  0
  150.5325  136.8952  159.1117 N   0  0  0  0  0  0  0  0  0  0  0  0
  151.9071  136.6796  159.2473 O   0  0  0  0  0  0  0  0  0  0  0  0
  152.5033  136.9513  158.0585 C   0  0  0  0  0  0  0  0  0  0  0  0
  153.9842  136.7874  157.9964 C   0  0  0  0  0  0  0  0  0  0  0  0
  151.5722  137.3378  157.1343 C   0  0  0  0  0  0  0  0  0  0  0  0
  151.7899  137.7347  155.6970 C   0  0  0  0  0  0  0  0  0  0  0  0
  151.3212  139.1742  155.4882 C   0  0  0  0  0  0  0  0  0  0  0  0
  150.7547  139.4934  154.4432 O   0  0  0  0  0  0  0  0  0  0  0  0
  151.5746  140.0380  156.4817 N   0  0  0  0  0  0  0  0  0  0  0  0
  151.2515  141.4586  156.4383 C   0  0  0  0  0  0  0  0  0  0  0  0
  150.4254  141.9066  157.6690 C   0  0  1  0  0  0  0  0  0  0  0  0
  150.8733  141.1478  158.9389 C   0  0  0  0  0  0  0  0  0  0  0  0
  150.5172  143.3810  157.8792 N   0  3  0  0  0  0  0  0  0  0  0  0
  149.7676  143.9172  159.0366 C   0  0  0  0  0  0  0  0  0  0  0  0
  150.3954  145.2770  159.3186 C   0  0  0  0  0  0  0  0  0  0  0  0
  151.8737  145.0375  159.0363 C   0  0  0  0  0  0  0  0  0  0  0  0
  151.8970  143.9216  157.9825 C   0  0  0  0  0  0  0  0  0  0  0  0
  148.7307  138.6598  157.5613 H   0  0  0  0  0  0  0  0  0  0  0  0
  148.2089  137.0146  157.9136 H   0  0  0  0  0  0  0  0  0  0  0  0
  148.8465  137.4125  156.3235 H   0  0  0  0  0  0  0  0  0  0  0  0
  154.4524  137.6761  157.5731 H   0  0  0  0  0  0  0  0  0  0  0  0
  154.2512  135.9347  157.3723 H   0  0  0  0  0  0  0  0  0  0  0  0
  154.4050  136.6252  158.9890 H   0  0  0  0  0  0  0  0  0  0  0  0
  152.8435  137.6696  155.4224 H   0  0  0  0  0  0  0  0  0  0  0  0
  151.2605  137.0682  155.0151 H   0  0  0  0  0  0  0  0  0  0  0  0
  152.0420  139.6925  157.3075 H   0  0  0  0  0  0  0  0  0  0  0  0
  152.1773  142.0338  156.3806 H   0  0  0  0  0  0  0  0  0  0  0  0
  150.7023  141.6414  155.5138 H   0  0  0  0  0  0  0  0  0  0  0  0
  149.3781  141.6649  157.4784 H   0  0  0  0  0  0  0  0  0  0  0  0
  150.7586  140.0700  158.8259 H   0  0  0  0  0  0  0  0  0  0  0  0
  150.2869  141.4245  159.8146 H   0  0  0  0  0  0  0  0  0  0  0  0
  151.9213  141.3457  159.1670 H   0  0  0  0  0  0  0  0  0  0  0  0
  148.6997  143.9984  158.8311 H   0  0  0  0  0  0  0  0  0  0  0  0
  149.9028  143.2631  159.8998 H   0  0  0  0  0  0  0  0  0  0  0  0
  150.0000  146.0195  158.6238 H   0  0  0  0  0  0  0  0  0  0  0  0
  150.2075  145.6301  160.3329 H   0  0  0  0  0  0  0  0  0  0  0  0
  152.3847  145.9409  158.7022 H   0  0  0  0  0  0  0  0  0  0  0  0
  152.3696  144.6944  159.9452 H   0  0  0  0  0  0  0  0  0  0  0  0
  152.6110  143.1526  158.2816 H   0  0  0  0  0  0  0  0  0  0  0  0
  152.2069  144.3020  157.0086 H   0  0  0  0  0  0  0  0  0  0  0  0
  150.1086  143.8195  157.0660 H   0  0  0  0  0  0  0  0  0  0  0  0
  1  2  1  0  0  0  0
  1 20  1  0  0  0  0
  1 21  1  0  0  0  0
  1 22  1  0  0  0  0
  2  7  1  0  0  0  0
  2  3  2  0  0  0  0
  3  4  1  0  0  0  0
  4  5  1  0  0  0  0
  5  6  1  0  0  0  0
  5  7  2  0  0  0  0
  6 23  1  0  0  0  0
  6 24  1  0  0  0  0
  6 25  1  0  0  0  0
  7  8  1  0  0  0  0
  8  9  1  0  0  0  0
  8 26  1  0  0  0  0
  8 27  1  0  0  0  0
  9 10  2  0  0  0  0
  9 11  1  0  0  0  0
 11 12  1  0  0  0  0
 11 28  1  0  0  0  0
 12 13  1  0  0  0  0
 12 29  1  0  0  0  0
 12 30  1  0  0  0  0
 13 14  1  0  0  0  0
 13 15  1  0  0  0  0
 13 31  1  0  0  0  0
 14 32  1  0  0  0  0
 14 33  1  0  0  0  0
 14 34  1  0  0  0  0
 15 19  1  0  0  0  0
 15 16  1  0  0  0  0
 15 43  1  0  0  0  0
 16 17  1  0  0  0  0
 16 35  1  0  0  0  0
 16 36  1  0  0  0  0
 17 18  1  0  0  0  0
 17 37  1  0  0  0  0
 17 38  1  0  0  0  0
 18 19  1  0  0  0  0
 18 39  1  0  0  0  0
 18 40  1  0  0  0  0
 19 41  1  0  0  0  0
 19 42  1  0  0  0  0
M  CHG  1  15   1
M  END
> <s_m_source_file>
AV-unprocessed.smi

> <i_m_source_file_index>
1139

> <i_lp_mmshare_version>
43012

> <i_f3d_flags>
0

> <s_epik_input>
W0NIM11jMW5vYyhbQ0gzXSljMVtDSDJdQyg9TylbTkhdW0NIMl1bQ0BIXShbQ0gzXSlOMltDSDJdW0NIMl1bQ0gyXVtDSDJdMg==

> <s_epik_cmdline>
J2VwaWtfcHl0aG9uJywgJy1waCcsICc3LjAnLCAnLXRuJywgJzgnLCAnLW1hJywgJzIwMCcsICctbWV0YWxfYmluZGluZycsICctaW1hZScsICc8aW5maWxlLm1hZT4nLCAnLW9tYWUnLCAnPG91dGZpbGUubWFlPic=

> <r_epik_Ionization_Penalty>
0.0050436

> <r_epik_Ionization_Penalty_Charging>
0.0050435

> <r_epik_Ionization_Penalty_Neutral>
9.69799e-08

> <r_epik_State_Penalty>
0.00366867

> <r_epik_Charging_Adjusted_Penalty>
0.00871217

> <i_epik_Tot_Q>
1

> <i_epik_Tot_abs_Q>
1

> <r_epik_Metal_State_Penalty>
-0

> <b_epik_Metal_Only>
0

> <s_lp_Force_Field>
OPLS_2005

> <r_lp_Energy>
24.7849

> <b_lp_Chiralities_Consistent>
1

> <s_lp_Variant>
AV-unprocessed.smi:1139-2

> <Gold.Version>
5.8.1

> <Gold.Id.Protein>
6NUR|6NUR_protein|mol2

> <Gold.PLP.Fitness>
42.0555

> <Gold.PLP.PLP>
-31.7881

> <Gold.PLP.part.hbond>
-3.1236

> <Gold.PLP.part.metal>
0.0000

> <Gold.PLP.part.buried>
-7.3299

> <Gold.PLP.part.nonpolar>
-22.0077

> <Gold.PLP.part.repulsive>
0.3030

> <Gold.PLP.ligand.clash>
0.0000

> <Gold.PLP.ligand.torsion>
0.5993

> <Gold.PLP.Chemscore.Hbond>
3.8104

> <Gold.PLP.Chemscore.CHOScore>
0.0000

> <Gold.PLP.Chemscore.Metal>
0.0000

> <Gold.Chemscore.Hbonds>
donor molecule, donor type, donor heavy atom, donor atom, acceptor molecule, acceptor atom, score
      L1  H    15    43       P1  8028  1.89
      P1  H  6896  6909       L1     4  0.08
      P1  H  7989  7998       L1    10  1.00

> <Gold.PLP.Chemscore.Internal.Correction>
0.0349

> <Gold.Rescore>
     Score         DG    S(hbond)    S(metal)    S(lipo)     H(rot)  DE(clash)    DE(int)     intcor
     15.91     -17.39       1.80        0.00      88.14       1.72       0.83       0.65       ----

> <Gold.Chemscore.Fitness>
15.9116

> <Gold.Chemscore.DG>
-17.3859

> <Gold.Chemscore.ZeroCoef>
-5.4800

> <Gold.Chemscore.Hbond>
1.7951

> <Gold.Chemscore.Metal>
0.0000

> <Gold.Chemscore.Lipo>
88.1382

> <Gold.Chemscore.Internal_Hbond>
0.0000

> <Gold.Chemscore.DEClash>
0.8261

> <Gold.Chemscore.DEInternal>
0.6482

> <Gold.Chemscore.Rot>
1.7195

> <Gold.Chemscore.Internal.Correction>
   9.000000E+99

> <Gold.Chemscore.Hbonds>
donor molecule, donor type, donor heavy atom, donor atom, acceptor molecule, acceptor atom, score
      L1  H    15    43       P1  8028  0.87
      P1  H  7989  7998       L1    10  0.88

> <Gold.Chemscore.Hbond.Weighted>
-5.9956

> <Gold.Chemscore.Metal.Weighted>
-0.0000

> <Gold.Chemscore.Lipo.Weighted>
-10.3122

> <Gold.Chemscore.Internal_Hbond.Weighted>
0.0000

> <Gold.Chemscore.DEClash.Weighted>
0.8261

> <Gold.Chemscore.DEInternal.Weighted>
0.6482

> <Gold.Chemscore.Rot.Weighted>
4.4018

> <Gold.Chemscore.Internal.Correction.Weighted>
   9.000000E+99

> <Gold.Protein.RotatedTorsions>
[ 6907 6896 6895 6894 ] final  103.91 input  -60.11 | X-H torsion
[ 7974 7965 7964 7962 ] final  -12.81 input  175.53 | X-H torsion
[ 8008 7997 7996 7995 ] final  152.12 input   59.86 | X-H torsion
[ 10167 10162 10161 10158 ] final  116.69 input  -65.29 | X-H torsion
[ 10718 10713 10712 10709 ] final  -67.26 input   66.30 | X-H torsion
[ 10763 10752 10751 10750 ] final -174.85 input  -60.55 | X-H torsion
[ 11005 11000 10999 10996 ] final -137.12 input  -57.11 | X-H torsion

> <Gold.Protein.ActiveResidues>
 VAL166  LYS551  ARG553  GLY616  TRP617  ASP618  TYR619  PRO620  LYS621  CYS622 
 ASP623  PHE694  ASN695  SER759  ASP760  ASP761  ALA762  ILE779  LEU786  VAL792 
 PHE793  MET794  SER795  GLU796  ALA797  LYS798  CYS799  TRP800  GLU811  SER814 

> <Gold.Protein.RotatedAtoms>
  152.5281  133.9755  159.7781 H   0  0  0  0  0  0  0  0  0  0  0  0  # atno 6907 bound_to 6896
  151.0019  133.6040  159.2701 H   0  0  0  0  0  0  0  0  0  0  0  0  # atno 6908 bound_to 6896
  151.3146  135.0809  159.9338 H   0  0  0  0  0  0  0  0  0  0  0  0  # atno 6909 bound_to 6896
  146.2138  140.3112  142.8382 H   0  0  0  0  0  0  0  0  0  0  0  0  # atno 7974 bound_to 7965
  156.2643  140.2029  156.6284 H   0  0  0  0  0  0  0  0  0  0  0  0  # atno 8008 bound_to 7997
  154.6702  140.0551  157.0182 H   0  0  0  0  0  0  0  0  0  0  0  0  # atno 8009 bound_to 7997
  155.1148  140.3219  155.4515 H   0  0  0  0  0  0  0  0  0  0  0  0  # atno 8010 bound_to 7997
  139.6230  144.7104  151.2594 H   0  0  0  0  0  0  0  0  0  0  0  0  # atno 10167 bound_to 10162
  156.0567  130.4275  150.1828 H   0  0  0  0  0  0  0  0  0  0  0  0  # atno 10718 bound_to 10713
  154.5913  135.2845  155.0632 H   0  0  0  0  0  0  0  0  0  0  0  0  # atno 10763 bound_to 10752
  154.1932  135.6437  153.5069 H   0  0  0  0  0  0  0  0  0  0  0  0  # atno 10764 bound_to 10752
  153.0122  135.5451  154.6600 H   0  0  0  0  0  0  0  0  0  0  0  0  # atno 10765 bound_to 10752
  140.8741  134.2014  157.4632 H   0  0  0  0  0  0  0  0  0  0  0  0  # atno 11005 bound_to 11000
  144.8987  140.7615  143.5881 LP  0  0  0  0  0  0  0  0  0  0  0  0  # atno 17320 bound_to 7965
  145.3037  139.1842  143.4676 LP  0  0  0  0  0  0  0  0  0  0  0  0  # atno 17321 bound_to 7965
  140.7394  143.6620  150.8156 LP  0  0  0  0  0  0  0  0  0  0  0  0  # atno 17342 bound_to 10162
  140.0234  143.5519  152.2791 LP  0  0  0  0  0  0  0  0  0  0  0  0  # atno 17343 bound_to 10162
  156.9903  130.9891  151.3416 LP  0  0  0  0  0  0  0  0  0  0  0  0  # atno 17370 bound_to 10713
  157.5543  130.8203  149.8185 LP  0  0  0  0  0  0  0  0  0  0  0  0  # atno 17371 bound_to 10713
  139.8714  134.9788  156.5010 LP  0  0  0  0  0  0  0  0  0  0  0  0  # atno 17394 bound_to 11000
  140.8538  133.8111  155.9196 LP  0  0  0  0  0  0  0  0  0  0  0  0  # atno 17395 bound_to 11000

$$$$
