AV-unprocessed.smi:833|AV-procd|sdf|3882|dock2
  -GOLD-   22720 1333D 1   1.00000     0.00000
 Structure written by MMmdl.
 40 41  0  0  0  0  0  0  0  0  2 V2000
  154.7397  136.3856  162.5184 C   0  0  0  0  0  0  0  0  0  0  0  0
  153.8476  137.1031  161.4965 C   0  0  2  0  0  0  0  0  0  0  0  0
  153.8100  136.2868  160.3441 O   0  0  0  0  0  0  0  0  0  0  0  0
  154.4026  138.4912  161.1164 C   0  0  0  0  0  0  0  0  0  0  0  0
  153.4921  139.2242  160.2428 N   0  0  0  0  0  0  0  0  0  0  0  0
  153.4399  140.5582  160.1290 C   0  0  0  0  0  0  0  0  0  0  0  0
  154.1672  141.3259  160.7586 O   0  0  0  0  0  0  0  0  0  0  0  0
  152.5150  140.9358  159.2308 N   0  0  0  0  0  0  0  0  0  0  0  0
  152.2244  142.2562  158.7858 C   0  0  0  0  0  0  0  0  0  0  0  0
  152.8470  143.3815  159.3847 C   0  0  0  0  0  0  0  0  0  0  0  0
  152.4936  144.6811  158.9762 C   0  0  0  0  0  0  0  0  0  0  0  0
  151.5093  144.8381  157.9858 C   0  0  0  0  0  0  0  0  0  0  0  0
  150.9260  143.7486  157.4446 N   0  3  0  0  0  0  0  0  0  0  0  0
  151.2336  142.4717  157.7839 C   0  0  0  0  0  0  0  0  0  0  0  0
  150.5452  141.4301  157.1199 N   0  0  0  0  0  0  0  0  0  0  0  0
  149.0873  141.4185  157.0755 C   0  0  0  0  0  0  0  0  0  0  0  0
  148.7300  140.3968  155.9994 C   0  0  0  0  0  0  0  0  0  0  0  0
  149.8596  140.5754  154.9896 C   0  0  0  0  0  0  0  0  0  0  0  0
  151.0734  140.9162  155.8600 C   0  0  0  0  0  0  0  0  0  0  0  0
  154.7971  136.9470  163.4511 H   0  0  0  0  0  0  0  0  0  0  0  0
  155.7558  136.2611  162.1422 H   0  0  0  0  0  0  0  0  0  0  0  0
  154.3486  135.3956  162.7563 H   0  0  0  0  0  0  0  0  0  0  0  0
  152.8404  137.1914  161.9064 H   0  0  0  0  0  0  0  0  0  0  0  0
  154.5297  136.5287  159.7807 H   0  0  0  0  0  0  0  0  0  0  0  0
  154.5033  139.0991  162.0162 H   0  0  0  0  0  0  0  0  0  0  0  0
  155.4039  138.4245  160.6863 H   0  0  0  0  0  0  0  0  0  0  0  0
  152.8580  138.6708  159.6853 H   0  0  0  0  0  0  0  0  0  0  0  0
  152.0559  140.1925  158.7249 H   0  0  0  0  0  0  0  0  0  0  0  0
  153.5776  143.2678  160.1713 H   0  0  0  0  0  0  0  0  0  0  0  0
  152.9621  145.5442  159.4262 H   0  0  0  0  0  0  0  0  0  0  0  0
  151.1687  145.7942  157.6152 H   0  0  0  0  0  0  0  0  0  0  0  0
  148.6606  141.1528  158.0430 H   0  0  0  0  0  0  0  0  0  0  0  0
  148.7066  142.3994  156.7879 H   0  0  0  0  0  0  0  0  0  0  0  0
  148.7580  139.3888  156.4155 H   0  0  0  0  0  0  0  0  0  0  0  0
  147.7413  140.5599  155.5695 H   0  0  0  0  0  0  0  0  0  0  0  0
  150.0186  139.6948  154.3665 H   0  0  0  0  0  0  0  0  0  0  0  0
  149.6321  141.4152  154.3315 H   0  0  0  0  0  0  0  0  0  0  0  0
  151.7287  141.6328  155.3630 H   0  0  0  0  0  0  0  0  0  0  0  0
  151.6495  140.0135  156.0650 H   0  0  0  0  0  0  0  0  0  0  0  0
  150.2140  143.8957  156.7292 H   0  0  0  0  0  0  0  0  0  0  0  0
  1  2  1  0  0  0  0
  1 20  1  0  0  0  0
  1 21  1  0  0  0  0
  1 22  1  0  0  0  0
  2  3  1  0  0  0  0
  2  4  1  0  0  0  0
  2 23  1  0  0  0  0
  3 24  1  0  0  0  0
  4  5  1  0  0  0  0
  4 25  1  0  0  0  0
  4 26  1  0  0  0  0
  5  6  1  0  0  0  0
  5 27  1  0  0  0  0
  6  7  2  0  0  0  0
  6  8  1  0  0  0  0
  8  9  1  0  0  0  0
  8 28  1  0  0  0  0
  9 14  1  0  0  0  0
  9 10  2  0  0  0  0
 10 11  1  0  0  0  0
 10 29  1  0  0  0  0
 11 12  2  0  0  0  0
 11 30  1  0  0  0  0
 12 13  1  0  0  0  0
 12 31  1  0  0  0  0
 13 14  2  0  0  0  0
 13 40  1  0  0  0  0
 14 15  1  0  0  0  0
 15 19  1  0  0  0  0
 15 16  1  0  0  0  0
 16 17  1  0  0  0  0
 16 32  1  0  0  0  0
 16 33  1  0  0  0  0
 17 18  1  0  0  0  0
 17 34  1  0  0  0  0
 17 35  1  0  0  0  0
 18 19  1  0  0  0  0
 18 36  1  0  0  0  0
 18 37  1  0  0  0  0
 19 38  1  0  0  0  0
 19 39  1  0  0  0  0
M  CHG  1  13   1
M  END
> <s_m_source_file>
AV-unprocessed.smi

> <i_m_source_file_index>
833

> <i_lp_mmshare_version>
43012

> <i_f3d_flags>
0

> <s_epik_input>
W0NIM11bQ0BIXShbT0hdKVtDSDJdW05IXUMoPU8pW05IXWMxW2NIXVtjSF1bY0hdbmMxTjJbQ0gyXVtDSDJdW0NIMl1bQ0gyXTI=

> <s_epik_cmdline>
J2VwaWtfcHl0aG9uJywgJy1waCcsICc3LjAnLCAnLXRuJywgJzgnLCAnLW1hJywgJzIwMCcsICctbWV0YWxfYmluZGluZycsICctaW1hZScsICc8aW5maWxlLm1hZT4nLCAnLW9tYWUnLCAnPG91dGZpbGUubWFlPic=

> <r_lp_tautomer_probability>
0.999994

> <r_epik_Ionization_Penalty>
1.11387

> <r_epik_Ionization_Penalty_Charging>
1.11385

> <r_epik_Ionization_Penalty_Neutral>
1.95796e-05

> <r_epik_State_Penalty>
1.17209

> <r_epik_Charging_Adjusted_Penalty>
2.28594

> <i_epik_Tot_Q>
1

> <i_epik_Tot_abs_Q>
1

> <r_epik_Metal_State_Penalty>
1.25763

> <b_epik_Metal_Only>
0

> <s_lp_Force_Field>
OPLS_2005

> <r_lp_Energy>
38.091

> <b_lp_Chiralities_Consistent>
1

> <s_lp_Variant>
AV-unprocessed.smi:833-3

> <Gold.Version>
5.8.1

> <Gold.Id.Protein>
6NUR|6NUR_protein|mol2

> <Gold.PLP.Fitness>
45.2728

> <Gold.PLP.PLP>
-37.1025

> <Gold.PLP.part.hbond>
-1.9815

> <Gold.PLP.part.metal>
0.0000

> <Gold.PLP.part.buried>
-5.9539

> <Gold.PLP.part.nonpolar>
-29.4351

> <Gold.PLP.part.repulsive>
0.2478

> <Gold.PLP.ligand.clash>
0.0000

> <Gold.PLP.ligand.torsion>
0.6208

> <Gold.PLP.Chemscore.Hbond>
3.0000

> <Gold.PLP.Chemscore.CHOScore>
0.0000

> <Gold.PLP.Chemscore.Metal>
0.0000

> <Gold.Chemscore.Hbonds>
donor molecule, donor type, donor heavy atom, donor atom, acceptor molecule, acceptor atom, score
      L1  H    13    40       P1  8028  2.00
      P1  H  6896  6909       L1     3  0.83

> <Gold.PLP.Chemscore.Internal.Correction>
0.4118

> <Gold.Rescore>
     Score         DG    S(hbond)    S(metal)    S(lipo)     H(rot)  DE(clash)    DE(int)     intcor
     15.51     -17.73       1.97        0.00      93.48       2.06       0.19       2.03       ----

> <Gold.Chemscore.Fitness>
15.5116

> <Gold.Chemscore.DG>
-17.7290

> <Gold.Chemscore.ZeroCoef>
-5.4800

> <Gold.Chemscore.Hbond>
1.9745

> <Gold.Chemscore.Metal>
0.0000

> <Gold.Chemscore.Lipo>
93.4819

> <Gold.Chemscore.Internal_Hbond>
0.0000

> <Gold.Chemscore.DEClash>
0.1904

> <Gold.Chemscore.DEInternal>
2.0271

> <Gold.Chemscore.Rot>
2.0637

> <Gold.Chemscore.Internal.Correction>
   9.000000E+99

> <Gold.Chemscore.Hbonds>
donor molecule, donor type, donor heavy atom, donor atom, acceptor molecule, acceptor atom, score
      L1  H    13    40       P1  8028  0.99
      P1  H  6896  6909       L1     3  0.81

> <Gold.Chemscore.Hbond.Weighted>
-6.5948

> <Gold.Chemscore.Metal.Weighted>
-0.0000

> <Gold.Chemscore.Lipo.Weighted>
-10.9374

> <Gold.Chemscore.Internal_Hbond.Weighted>
0.0000

> <Gold.Chemscore.DEClash.Weighted>
0.1904

> <Gold.Chemscore.DEInternal.Weighted>
2.0271

> <Gold.Chemscore.Rot.Weighted>
5.2832

> <Gold.Chemscore.Internal.Correction.Weighted>
   9.000000E+99

> <Gold.Protein.RotatedTorsions>
[ 6907 6896 6895 6894 ] final  163.25 input  -60.11 | X-H torsion
[ 7974 7965 7964 7962 ] final -174.43 input  175.53 | X-H torsion
[ 8008 7997 7996 7995 ] final   74.18 input   59.86 | X-H torsion
[ 10167 10162 10161 10158 ] final   43.86 input  -65.29 | X-H torsion
[ 10718 10713 10712 10709 ] final  -39.83 input   66.30 | X-H torsion
[ 10763 10752 10751 10750 ] final   23.85 input  -60.55 | X-H torsion
[ 11005 11000 10999 10996 ] final -103.20 input  -57.11 | X-H torsion

> <Gold.Protein.ActiveResidues>
 VAL166  LYS551  ARG553  GLY616  TRP617  ASP618  TYR619  PRO620  LYS621  CYS622 
 ASP623  PHE694  ASN695  SER759  ASP760  ASP761  ALA762  ILE779  LEU786  VAL792 
 PHE793  MET794  SER795  GLU796  ALA797  LYS798  CYS799  TRP800  GLU811  SER814 

> <Gold.Protein.RotatedAtoms>
  151.9280  133.3603  159.3920 H   0  0  0  0  0  0  0  0  0  0  0  0  # atno 6907 bound_to 6896
  150.7023  134.4566  159.5370 H   0  0  0  0  0  0  0  0  0  0  0  0  # atno 6908 bound_to 6896
  152.2202  134.8420  160.0537 H   0  0  0  0  0  0  0  0  0  0  0  0  # atno 6909 bound_to 6896
  144.7132  140.1473  143.6387 H   0  0  0  0  0  0  0  0  0  0  0  0  # atno 7974 bound_to 7965
  155.7946  140.3478  155.5368 H   0  0  0  0  0  0  0  0  0  0  0  0  # atno 8008 bound_to 7997
  155.8599  140.0969  157.1640 H   0  0  0  0  0  0  0  0  0  0  0  0  # atno 8009 bound_to 7997
  154.4011  140.1360  156.3935 H   0  0  0  0  0  0  0  0  0  0  0  0  # atno 8010 bound_to 7997
  140.3401  144.2481  150.6157 H   0  0  0  0  0  0  0  0  0  0  0  0  # atno 10167 bound_to 10162
  156.2880  130.4225  149.8267 H   0  0  0  0  0  0  0  0  0  0  0  0  # atno 10718 bound_to 10713
  153.0808  135.6618  154.0050 H   0  0  0  0  0  0  0  0  0  0  0  0  # atno 10763 bound_to 10752
  153.9672  135.2968  155.3431 H   0  0  0  0  0  0  0  0  0  0  0  0  # atno 10764 bound_to 10752
  154.7206  135.5166  153.8878 H   0  0  0  0  0  0  0  0  0  0  0  0  # atno 10765 bound_to 10752
  141.1156  133.8620  157.1456 H   0  0  0  0  0  0  0  0  0  0  0  0  # atno 11005 bound_to 11000
  145.9148  139.2509  143.1416 LP  0  0  0  0  0  0  0  0  0  0  0  0  # atno 17320 bound_to 7965
  145.9680  140.8783  143.0177 LP  0  0  0  0  0  0  0  0  0  0  0  0  # atno 17321 bound_to 7965
  140.5317  143.2242  151.8228 LP  0  0  0  0  0  0  0  0  0  0  0  0  # atno 17342 bound_to 10162
  139.4842  144.4712  151.9422 LP  0  0  0  0  0  0  0  0  0  0  0  0  # atno 17343 bound_to 10162
  156.5691  130.8417  151.3351 LP  0  0  0  0  0  0  0  0  0  0  0  0  # atno 17370 bound_to 10713
  157.7334  130.9730  150.1977 LP  0  0  0  0  0  0  0  0  0  0  0  0  # atno 17371 bound_to 10713
  140.0076  135.0002  157.0327 LP  0  0  0  0  0  0  0  0  0  0  0  0  # atno 17394 bound_to 11000
  140.4654  134.1441  155.7196 LP  0  0  0  0  0  0  0  0  0  0  0  0  # atno 17395 bound_to 11000

$$$$
