AV-unprocessed.smi:1842|AV-procd|sdf|7499|dock5
  -GOLD-   22720 9203D 1   1.00000     0.00000
 Structure written by MMmdl.
 38 39  0  0  0  0  0  0  0  0  1 V2000
  150.7091  141.8073  158.9427 O   0  0  0  0  0  0  0  0  0  0  0  0
  150.4093  142.7426  158.2008 C   0  0  0  0  0  0  0  0  0  0  0  0
  150.8726  144.1633  158.5277 C   0  0  0  0  0  0  0  0  0  0  0  0
  152.4074  144.2821  158.5319 C   0  0  0  0  0  0  0  0  0  0  0  0
  153.0522  143.7509  159.8243 C   0  0  0  0  0  0  0  0  0  0  0  0
  153.2889  142.2377  159.8431 C   0  0  0  0  0  0  0  0  0  0  0  0
  153.4482  141.8817  161.3248 C   0  0  0  0  0  0  0  0  0  0  0  0
  152.7231  142.9842  162.1115 C   0  0  0  0  0  0  0  0  0  0  0  0
  152.1935  143.9780  161.0711 C   0  0  0  0  0  0  0  0  0  0  0  0
  149.6848  142.5945  157.0816 N   0  0  0  0  0  0  0  0  0  0  0  0
  149.1956  141.3246  156.5532 C   0  0  0  0  0  0  0  0  0  0  0  0
  149.7470  141.0167  155.1473 C   0  0  0  0  0  0  0  0  0  0  0  0
  150.8892  140.1226  155.1860 N   0  0  0  0  0  0  0  0  0  0  0  0
  151.1438  139.0492  154.3429 C   0  0  0  0  0  0  0  0  0  0  0  0
  152.3395  138.5034  154.7527 C   0  0  0  0  0  0  0  0  0  0  0  0
  152.8348  139.2204  155.8396 N   0  0  0  0  0  0  0  0  0  0  0  0
  151.9216  140.1617  156.0400 C   0  0  0  0  0  0  0  0  0  0  0  0
  150.4440  144.8623  157.8079 H   0  0  0  0  0  0  0  0  0  0  0  0
  150.4747  144.4391  159.5048 H   0  0  0  0  0  0  0  0  0  0  0  0
  152.8141  143.7256  157.6862 H   0  0  0  0  0  0  0  0  0  0  0  0
  152.6976  145.3229  158.3779 H   0  0  0  0  0  0  0  0  0  0  0  0
  154.0089  144.2529  159.9779 H   0  0  0  0  0  0  0  0  0  0  0  0
  152.4185  141.7199  159.4370 H   0  0  0  0  0  0  0  0  0  0  0  0
  154.1555  141.9395  159.2525 H   0  0  0  0  0  0  0  0  0  0  0  0
  153.0483  140.8908  161.5428 H   0  0  0  0  0  0  0  0  0  0  0  0
  154.5050  141.8735  161.5945 H   0  0  0  0  0  0  0  0  0  0  0  0
  151.9137  142.5830  162.7224 H   0  0  0  0  0  0  0  0  0  0  0  0
  153.4241  143.4793  162.7847 H   0  0  0  0  0  0  0  0  0  0  0  0
  152.2334  145.0095  161.4225 H   0  0  0  0  0  0  0  0  0  0  0  0
  151.1503  143.7467  160.8500 H   0  0  0  0  0  0  0  0  0  0  0  0
  149.4829  143.4207  156.5370 H   0  0  0  0  0  0  0  0  0  0  0  0
  149.4534  140.5185  157.2416 H   0  0  0  0  0  0  0  0  0  0  0  0
  148.1065  141.3665  156.5231 H   0  0  0  0  0  0  0  0  0  0  0  0
  148.9754  140.5761  154.5143 H   0  0  0  0  0  0  0  0  0  0  0  0
  150.0548  141.9421  154.6595 H   0  0  0  0  0  0  0  0  0  0  0  0
  150.4734  138.7716  153.5428 H   0  0  0  0  0  0  0  0  0  0  0  0
  152.8779  137.6572  154.3517 H   0  0  0  0  0  0  0  0  0  0  0  0
  152.0080  140.9010  156.8232 H   0  0  0  0  0  0  0  0  0  0  0  0
  1  2  2  0  0  0  0
  2  3  1  0  0  0  0
  2 10  1  0  0  0  0
  3  4  1  0  0  0  0
  3 18  1  0  0  0  0
  3 19  1  0  0  0  0
  4  5  1  0  0  0  0
  4 20  1  0  0  0  0
  4 21  1  0  0  0  0
  5  9  1  0  0  0  0
  5  6  1  0  0  0  0
  5 22  1  0  0  0  0
  6  7  1  0  0  0  0
  6 23  1  0  0  0  0
  6 24  1  0  0  0  0
  7  8  1  0  0  0  0
  7 25  1  0  0  0  0
  7 26  1  0  0  0  0
  8  9  1  0  0  0  0
  8 27  1  0  0  0  0
  8 28  1  0  0  0  0
  9 29  1  0  0  0  0
  9 30  1  0  0  0  0
 10 11  1  0  0  0  0
 10 31  1  0  0  0  0
 11 12  1  0  0  0  0
 11 32  1  0  0  0  0
 11 33  1  0  0  0  0
 12 13  1  0  0  0  0
 12 34  1  0  0  0  0
 12 35  1  0  0  0  0
 13 17  1  0  0  0  0
 13 14  1  0  0  0  0
 14 15  2  0  0  0  0
 14 36  1  0  0  0  0
 15 16  1  0  0  0  0
 15 37  1  0  0  0  0
 16 17  2  0  0  0  0
 17 38  1  0  0  0  0
M  END
> <s_m_source_file>
AV-unprocessed.smi

> <i_m_source_file_index>
1842

> <i_lp_mmshare_version>
43012

> <i_f3d_flags>
0

> <s_epik_input>
W0NIMl0xW0NIMl1bQ0gyXVtDSDJdW0NIXTFbQ0gyXVtDSDJdQyg9TylbTkhdW0NIMl1bQ0gyXW4yW2NIXVtjSF1uW2NIXTI=

> <s_epik_cmdline>
J2VwaWtfcHl0aG9uJywgJy1waCcsICc3LjAnLCAnLXRuJywgJzgnLCAnLW1hJywgJzIwMCcsICctbWV0YWxfYmluZGluZycsICctaW1hZScsICc8aW5maWxlLm1hZT4nLCAnLW9tYWUnLCAnPG91dGZpbGUubWFlPic=

> <r_lp_tautomer_probability>
1

> <r_epik_Ionization_Penalty>
0.595716

> <r_epik_Ionization_Penalty_Charging>
0.595716

> <r_epik_Ionization_Penalty_Neutral>
2.42503e-08

> <r_epik_State_Penalty>
0.60967

> <r_epik_Charging_Adjusted_Penalty>
1.20539

> <i_epik_Tot_Q>
0

> <i_epik_Tot_abs_Q>
0

> <r_epik_Metal_State_Penalty>
0.299956

> <b_epik_Metal_Only>
0

> <s_lp_Force_Field>
OPLS_2005

> <r_lp_Energy>
23.0444

> <b_lp_Chiralities_Consistent>
1

> <s_lp_Variant>
AV-unprocessed.smi:1842-2

> <Gold.Version>
5.8.1

> <Gold.Id.Protein>
6NUR|6NUR_protein|mol2

> <Gold.PLP.Fitness>
52.8415

> <Gold.PLP.PLP>
-46.7804

> <Gold.PLP.part.hbond>
-2.3684

> <Gold.PLP.part.metal>
0.0000

> <Gold.PLP.part.buried>
-3.1705

> <Gold.PLP.part.nonpolar>
-40.7968

> <Gold.PLP.part.repulsive>
0.0190

> <Gold.PLP.ligand.clash>
0.0000

> <Gold.PLP.ligand.torsion>
0.8708

> <Gold.PLP.Chemscore.Hbond>
2.0000

> <Gold.PLP.Chemscore.CHOScore>
0.5858

> <Gold.PLP.Chemscore.Metal>
0.0000

> <Gold.Chemscore.Hbonds>
donor molecule, donor type, donor heavy atom, donor atom, acceptor molecule, acceptor atom, score
      L1  H    10    31       P1  8028  1.00
      P1  H  7997  8010       L1    16  1.00
      L1  C    14    36       P1  7957  0.28

> <Gold.PLP.Chemscore.Internal.Correction>
0.0453

> <Gold.Rescore>
     Score         DG    S(hbond)    S(metal)    S(lipo)     H(rot)  DE(clash)    DE(int)     intcor
     17.44     -19.63       1.96        0.00     112.02       2.15       0.02       2.16       ----

> <Gold.Chemscore.Fitness>
17.4419

> <Gold.Chemscore.DG>
-19.6250

> <Gold.Chemscore.ZeroCoef>
-5.4800

> <Gold.Chemscore.Hbond>
1.9577

> <Gold.Chemscore.Metal>
0.0000

> <Gold.Chemscore.Lipo>
112.0201

> <Gold.Chemscore.Internal_Hbond>
0.0000

> <Gold.Chemscore.DEClash>
0.0184

> <Gold.Chemscore.DEInternal>
2.1647

> <Gold.Chemscore.Rot>
2.1484

> <Gold.Chemscore.Internal.Correction>
   9.000000E+99

> <Gold.Chemscore.Hbonds>
donor molecule, donor type, donor heavy atom, donor atom, acceptor molecule, acceptor atom, score
      L1  H    10    31       P1  8028  1.00
      P1  H  7997  8010       L1    16  0.30

> <Gold.Chemscore.Hbond.Weighted>
-6.5386

> <Gold.Chemscore.Metal.Weighted>
-0.0000

> <Gold.Chemscore.Lipo.Weighted>
-13.1063

> <Gold.Chemscore.Internal_Hbond.Weighted>
0.0000

> <Gold.Chemscore.DEClash.Weighted>
0.0184

> <Gold.Chemscore.DEInternal.Weighted>
2.1647

> <Gold.Chemscore.Rot.Weighted>
5.5000

> <Gold.Chemscore.Internal.Correction.Weighted>
   9.000000E+99

> <Gold.Protein.RotatedTorsions>
[ 6907 6896 6895 6894 ] final  -85.41 input  -60.11 | X-H torsion
[ 7974 7965 7964 7962 ] final   69.76 input  175.53 | X-H torsion
[ 8008 7997 7996 7995 ] final   82.81 input   59.86 | X-H torsion
[ 10167 10162 10161 10158 ] final  -85.05 input  -65.29 | X-H torsion
[ 10718 10713 10712 10709 ] final -114.76 input   66.30 | X-H torsion
[ 10763 10752 10751 10750 ] final  136.89 input  -60.55 | X-H torsion
[ 11005 11000 10999 10996 ] final  -96.03 input  -57.11 | X-H torsion

> <Gold.Protein.ActiveResidues>
 VAL166  LYS551  ARG553  GLY616  TRP617  ASP618  TYR619  PRO620  LYS621  CYS622 
 ASP623  PHE694  ASN695  SER759  ASP760  ASP761  ALA762  ILE779  LEU786  VAL792 
 PHE793  MET794  SER795  GLU796  ALA797  LYS798  CYS799  TRP800  GLU811  SER814 

> <Gold.Protein.RotatedAtoms>
  150.6870  134.3208  159.4785 H   0  0  0  0  0  0  0  0  0  0  0  0  # atno 6907 bound_to 6896
  152.1084  134.9289  160.0576 H   0  0  0  0  0  0  0  0  0  0  0  0  # atno 6908 bound_to 6896
  152.0541  133.3997  159.4427 H   0  0  0  0  0  0  0  0  0  0  0  0  # atno 6909 bound_to 6896
  145.7865  139.2913  143.1235 H   0  0  0  0  0  0  0  0  0  0  0  0  # atno 7974 bound_to 7965
  155.9155  140.3424  155.6132 H   0  0  0  0  0  0  0  0  0  0  0  0  # atno 8008 bound_to 7997
  155.7336  140.0798  157.2296 H   0  0  0  0  0  0  0  0  0  0  0  0  # atno 8009 bound_to 7997
  154.4062  140.1583  156.2524 H   0  0  0  0  0  0  0  0  0  0  0  0  # atno 8010 bound_to 7997
  140.4074  143.2637  151.9062 H   0  0  0  0  0  0  0  0  0  0  0  0  # atno 10167 bound_to 10162
  156.0851  130.6044  150.8817 H   0  0  0  0  0  0  0  0  0  0  0  0  # atno 10718 bound_to 10713
  153.8641  135.3064  155.3439 H   0  0  0  0  0  0  0  0  0  0  0  0  # atno 10763 bound_to 10752
  154.7836  135.4822  153.9899 H   0  0  0  0  0  0  0  0  0  0  0  0  # atno 10764 bound_to 10752
  153.1445  135.6831  153.9071 H   0  0  0  0  0  0  0  0  0  0  0  0  # atno 10765 bound_to 10752
  141.1424  133.8068  157.0516 H   0  0  0  0  0  0  0  0  0  0  0  0  # atno 11005 bound_to 11000
  146.0021  140.8511  143.0013 LP  0  0  0  0  0  0  0  0  0  0  0  0  # atno 17320 bound_to 7965
  144.6788  140.2367  143.7349 LP  0  0  0  0  0  0  0  0  0  0  0  0  # atno 17321 bound_to 7965
  139.4783  144.5572  151.8296 LP  0  0  0  0  0  0  0  0  0  0  0  0  # atno 17342 bound_to 10162
  140.4674  144.1635  150.5913 LP  0  0  0  0  0  0  0  0  0  0  0  0  # atno 17343 bound_to 10162
  157.5982  131.0942  150.9005 LP  0  0  0  0  0  0  0  0  0  0  0  0  # atno 17370 bound_to 10713
  156.9167  130.5300  149.5279 LP  0  0  0  0  0  0  0  0  0  0  0  0  # atno 17371 bound_to 10713
  140.0628  134.9745  157.1335 LP  0  0  0  0  0  0  0  0  0  0  0  0  # atno 17394 bound_to 11000
  140.3823  134.2274  155.7170 LP  0  0  0  0  0  0  0  0  0  0  0  0  # atno 17395 bound_to 11000

$$$$
