AV-unprocessed.smi:40|AV-procd|sdf|378|dock2
  -GOLD-   2262016233D 1   1.00000     0.00000
 Structure written by MMmdl.
 47 48  0  0  0  0  0  0  0  0  1 V2000
  156.2383  139.2500  151.6878 C   0  0  0  0  0  0  0  0  0  0  0  0
  156.8041  137.8870  152.1000 C   0  0  0  0  0  0  0  0  0  0  0  0
  157.0181  137.7722  153.6161 C   0  0  0  0  0  0  0  0  0  0  0  0
  157.3839  136.3474  154.0517 C   0  0  0  0  0  0  0  0  0  0  0  0
  157.5147  136.2195  155.5771 C   0  0  0  0  0  0  0  0  0  0  0  0
  156.2417  136.3274  156.1994 O   0  0  0  0  0  0  0  0  0  0  0  0
  155.7002  137.5383  156.4607 C   0  0  0  0  0  0  0  0  0  0  0  0
  156.2823  138.6102  156.2957 O   0  0  0  0  0  0  0  0  0  0  0  0
  154.3349  137.4063  156.9260 N   0  0  0  0  0  0  0  0  0  0  0  0
  153.4998  138.4083  157.2763 C   0  0  0  0  0  0  0  0  0  0  0  0
  152.7419  138.9263  156.3288 N   0  0  0  0  0  0  0  0  0  0  0  0
  151.8504  139.9435  156.5401 C   0  0  0  0  0  0  0  0  0  0  0  0
  151.1313  140.3414  155.6249 O   0  0  0  0  0  0  0  0  0  0  0  0
  151.7832  140.5022  157.8411 N   0  0  0  0  0  0  0  0  0  0  0  0
  150.7724  141.6078  158.1058 C   0  0  1  0  0  0  0  0  0  0  0  0
  150.8652  142.0206  159.4420 O   0  0  0  0  0  0  0  0  0  0  0  0
  151.5198  143.2818  159.5477 C   0  0  1  0  0  0  0  0  0  0  0  0
  153.0399  143.0971  159.7263 C   0  0  0  0  0  0  0  0  0  0  0  0
  151.0910  143.9900  158.2610 C   0  0  1  0  0  0  0  0  0  0  0  0
  151.9937  145.0066  157.8701 O   0  0  0  0  0  0  0  0  0  0  0  0
  151.0318  142.8638  157.2361 C   0  0  2  0  0  0  0  0  0  0  0  0
  149.9716  143.1075  156.3332 O   0  0  0  0  0  0  0  0  0  0  0  0
  152.5500  139.9420  158.8564 C   0  0  0  0  0  0  0  0  0  0  0  0
  153.4138  138.9297  158.6282 C   0  0  0  0  0  0  0  0  0  0  0  0
  154.1695  138.4440  159.6289 F   0  0  0  0  0  0  0  0  0  0  0  0
  149.8027  141.1370  157.9346 H   0  0  0  0  0  0  0  0  0  0  0  0
  151.1328  143.8107  160.4192 H   0  0  0  0  0  0  0  0  0  0  0  0
  150.1000  144.4213  158.4127 H   0  0  0  0  0  0  0  0  0  0  0  0
  151.9822  142.7702  156.7081 H   0  0  0  0  0  0  0  0  0  0  0  0
  156.0984  139.3016  150.6078 H   0  0  0  0  0  0  0  0  0  0  0  0
  156.9117  140.0585  151.9743 H   0  0  0  0  0  0  0  0  0  0  0  0
  155.2722  139.4346  152.1584 H   0  0  0  0  0  0  0  0  0  0  0  0
  156.1273  137.1001  151.7652 H   0  0  0  0  0  0  0  0  0  0  0  0
  157.7501  137.7213  151.5832 H   0  0  0  0  0  0  0  0  0  0  0  0
  157.8088  138.4578  153.9237 H   0  0  0  0  0  0  0  0  0  0  0  0
  156.1138  138.0906  154.1362 H   0  0  0  0  0  0  0  0  0  0  0  0
  156.6254  135.6491  153.6956 H   0  0  0  0  0  0  0  0  0  0  0  0
  158.3209  136.0547  153.5762 H   0  0  0  0  0  0  0  0  0  0  0  0
  158.0041  135.2831  155.8496 H   0  0  0  0  0  0  0  0  0  0  0  0
  158.1464  137.0225  155.9575 H   0  0  0  0  0  0  0  0  0  0  0  0
  154.0122  136.4558  157.0328 H   0  0  0  0  0  0  0  0  0  0  0  0
  153.5376  144.0566  159.8679 H   0  0  0  0  0  0  0  0  0  0  0  0
  153.4974  142.6141  158.8632 H   0  0  0  0  0  0  0  0  0  0  0  0
  153.2561  142.4901  160.6053 H   0  0  0  0  0  0  0  0  0  0  0  0
  152.8689  144.6501  157.8887 H   0  0  0  0  0  0  0  0  0  0  0  0
  149.5978  143.9521  156.5364 H   0  0  0  0  0  0  0  0  0  0  0  0
  152.4827  140.3067  159.8698 H   0  0  0  0  0  0  0  0  0  0  0  0
  1  2  1  0  0  0  0
  1 30  1  0  0  0  0
  1 31  1  0  0  0  0
  1 32  1  0  0  0  0
  2  3  1  0  0  0  0
  2 33  1  0  0  0  0
  2 34  1  0  0  0  0
  3  4  1  0  0  0  0
  3 35  1  0  0  0  0
  3 36  1  0  0  0  0
  4  5  1  0  0  0  0
  4 37  1  0  0  0  0
  4 38  1  0  0  0  0
  5  6  1  0  0  0  0
  5 39  1  0  0  0  0
  5 40  1  0  0  0  0
  6  7  1  0  0  0  0
  7  8  2  0  0  0  0
  7  9  1  0  0  0  0
  9 10  1  0  0  0  0
  9 41  1  0  0  0  0
 10 24  1  0  0  0  0
 10 11  2  0  0  0  0
 11 12  1  0  0  0  0
 12 13  2  0  0  0  0
 12 14  1  0  0  0  0
 14 15  1  0  0  0  0
 14 23  1  0  0  0  0
 15 26  1  0  0  0  0
 15 21  1  0  0  0  0
 15 16  1  0  0  0  0
 16 17  1  0  0  0  0
 17 27  1  0  0  0  0
 17 18  1  0  0  0  0
 17 19  1  0  0  0  0
 18 42  1  0  0  0  0
 18 43  1  0  0  0  0
 18 44  1  0  0  0  0
 19 28  1  0  0  0  0
 19 20  1  0  0  0  0
 19 21  1  0  0  0  0
 20 45  1  0  0  0  0
 21 29  1  0  0  0  0
 21 22  1  0  0  0  0
 22 46  1  0  0  0  0
 23 24  2  0  0  0  0
 23 47  1  0  0  0  0
 24 25  1  0  0  0  0
M  END
> <s_m_source_file>
AV-unprocessed.smi

> <i_m_source_file_index>
40

> <i_lp_mmshare_version>
43012

> <i_f3d_flags>
0

> <s_epik_input>
W0NIM11bQ0gyXVtDSDJdW0NIMl1bQ0gyXU9DKD1PKVtOSF1jMW5jKD1PKW4oW2NIXWMxRilbQ0BASF0yT1tDQEhdKFtDSDNdKVtDQEBIXShbT0hdKVtDQEhdMltPSF0=

> <s_epik_cmdline>
J2VwaWtfcHl0aG9uJywgJy1waCcsICc3LjAnLCAnLXRuJywgJzgnLCAnLW1hJywgJzIwMCcsICctbWV0YWxfYmluZGluZycsICctaW1hZScsICc8aW5maWxlLm1hZT4nLCAnLW9tYWUnLCAnPG91dGZpbGUubWFlPic=

> <r_lp_tautomer_probability>
1

> <r_epik_Ionization_Penalty>
2.29506e-06

> <r_epik_Ionization_Penalty_Charging>
8.26867e-09

> <r_epik_Ionization_Penalty_Neutral>
2.2868e-06

> <r_epik_State_Penalty>
-0

> <r_epik_Charging_Adjusted_Penalty>
8.26867e-09

> <i_epik_Tot_Q>
0

> <i_epik_Tot_abs_Q>
0

> <r_epik_Metal_State_Penalty>
-0

> <b_epik_Metal_Only>
0

> <s_epik_Chemistry_Notes>
This compound has an ester and may undergo hydrolysis at high or low pH. This compound contains an acetal/aminal-like group ( X-CH(R)-Y where X, Y are N, S, or O) that may be acid/base labile, releasing an aldehyde.

> <s_lp_Force_Field>
OPLS_2005

> <r_lp_Energy>
34.9505

> <b_lp_Chiralities_Consistent>
1

> <s_lp_Variant>
AV-unprocessed.smi:40-12

> <Gold.Version>
5.8.1

> <Gold.Id.Protein>
6NUR|6NUR_protein|mol2

> <Gold.PLP.Fitness>
41.3617

> <Gold.PLP.PLP>
-36.9555

> <Gold.PLP.part.hbond>
-3.6455

> <Gold.PLP.part.metal>
0.0000

> <Gold.PLP.part.buried>
-3.8649

> <Gold.PLP.part.nonpolar>
-28.9536

> <Gold.PLP.part.repulsive>
0.2188

> <Gold.PLP.ligand.clash>
0.0000

> <Gold.PLP.ligand.torsion>
0.9949

> <Gold.PLP.Chemscore.Hbond>
2.0610

> <Gold.PLP.Chemscore.CHOScore>
0.0000

> <Gold.PLP.Chemscore.Metal>
0.0000

> <Gold.Chemscore.Hbonds>
donor molecule, donor type, donor heavy atom, donor atom, acceptor molecule, acceptor atom, score
      L1  H    22    46       P1  8028  0.30
      P1  H  7989  7998       L1    13  0.45

> <Gold.PLP.Chemscore.Internal.Correction>
0.2130

> <Gold.Rescore>
     Score         DG    S(hbond)    S(metal)    S(lipo)     H(rot)  DE(clash)    DE(int)     intcor
     10.43     -11.59       1.47        0.00      91.12       3.70       0.05       1.11       ----

> <Gold.Chemscore.Fitness>
10.4264

> <Gold.Chemscore.DG>
-11.5876

> <Gold.Chemscore.ZeroCoef>
-5.4800

> <Gold.Chemscore.Hbond>
1.4693

> <Gold.Chemscore.Metal>
0.0000

> <Gold.Chemscore.Lipo>
91.1210

> <Gold.Chemscore.Internal_Hbond>
0.0000

> <Gold.Chemscore.DEClash>
0.0543

> <Gold.Chemscore.DEInternal>
1.1068

> <Gold.Chemscore.Rot>
3.6957

> <Gold.Chemscore.Internal.Correction>
   9.000000E+99

> <Gold.Chemscore.Hbonds>
donor molecule, donor type, donor heavy atom, donor atom, acceptor molecule, acceptor atom, score
      L1  H    22    46       P1  8028  0.29
      P1  H  7989  7998       L1    13  0.44
      P1  H  7997  8010       L1     8  0.06

> <Gold.Chemscore.Hbond.Weighted>
-4.9074

> <Gold.Chemscore.Metal.Weighted>
-0.0000

> <Gold.Chemscore.Lipo.Weighted>
-10.6612

> <Gold.Chemscore.Internal_Hbond.Weighted>
0.0000

> <Gold.Chemscore.DEClash.Weighted>
0.0543

> <Gold.Chemscore.DEInternal.Weighted>
1.1068

> <Gold.Chemscore.Rot.Weighted>
9.4610

> <Gold.Chemscore.Internal.Correction.Weighted>
   9.000000E+99

> <Gold.Protein.RotatedTorsions>
[ 6907 6896 6895 6894 ] final  147.74 input  -60.11 | X-H torsion
[ 7974 7965 7964 7962 ] final -162.58 input  175.53 | X-H torsion
[ 8008 7997 7996 7995 ] final  -54.40 input   59.86 | X-H torsion
[ 10167 10162 10161 10158 ] final  -75.08 input  -65.29 | X-H torsion
[ 10718 10713 10712 10709 ] final  -92.28 input   66.30 | X-H torsion
[ 10763 10752 10751 10750 ] final  131.05 input  -60.55 | X-H torsion
[ 11005 11000 10999 10996 ] final  -46.14 input  -57.11 | X-H torsion

> <Gold.Protein.ActiveResidues>
 VAL166  LYS551  ARG553  GLY616  TRP617  ASP618  TYR619  PRO620  LYS621  CYS622 
 ASP623  PHE694  ASN695  SER759  ASP760  ASP761  ALA762  ILE779  LEU786  VAL792 
 PHE793  MET794  SER795  GLU796  ALA797  LYS798  CYS799  TRP800  GLU811  SER814 

> <Gold.Protein.RotatedAtoms>
  152.1507  133.4520  159.4811 H   0  0  0  0  0  0  0  0  0  0  0  0  # atno 6907 bound_to 6896
  150.6895  134.2192  159.4399 H   0  0  0  0  0  0  0  0  0  0  0  0  # atno 6908 bound_to 6896
  152.0089  134.9887  160.0618 H   0  0  0  0  0  0  0  0  0  0  0  0  # atno 6909 bound_to 6896
  144.7353  140.3232  143.6167 H   0  0  0  0  0  0  0  0  0  0  0  0  # atno 7974 bound_to 7965
  154.4162  140.1177  156.5310 H   0  0  0  0  0  0  0  0  0  0  0  0  # atno 8008 bound_to 7997
  155.6606  140.3496  155.4762 H   0  0  0  0  0  0  0  0  0  0  0  0  # atno 8009 bound_to 7997
  155.9716  140.1142  157.0797 H   0  0  0  0  0  0  0  0  0  0  0  0  # atno 8010 bound_to 7997
  140.4973  143.2368  151.7810 H   0  0  0  0  0  0  0  0  0  0  0  0  # atno 10167 bound_to 10162
  156.0001  130.4981  150.5602 H   0  0  0  0  0  0  0  0  0  0  0  0  # atno 10718 bound_to 10713
  153.7679  135.3186  155.3347 H   0  0  0  0  0  0  0  0  0  0  0  0  # atno 10763 bound_to 10752
  154.8207  135.4605  154.0773 H   0  0  0  0  0  0  0  0  0  0  0  0  # atno 10764 bound_to 10752
  153.2024  135.6924  153.8299 H   0  0  0  0  0  0  0  0  0  0  0  0  # atno 10765 bound_to 10752
  141.0560  133.6725  156.3113 H   0  0  0  0  0  0  0  0  0  0  0  0  # atno 11005 bound_to 11000
  145.7548  139.1805  143.2301 LP  0  0  0  0  0  0  0  0  0  0  0  0  # atno 17320 bound_to 7965
  146.1033  140.7518  142.9538 LP  0  0  0  0  0  0  0  0  0  0  0  0  # atno 17321 bound_to 7965
  139.4864  144.4569  151.9587 LP  0  0  0  0  0  0  0  0  0  0  0  0  # atno 17342 bound_to 10162
  140.3657  144.2917  150.5927 LP  0  0  0  0  0  0  0  0  0  0  0  0  # atno 17343 bound_to 10162
  157.3512  131.0734  151.1711 LP  0  0  0  0  0  0  0  0  0  0  0  0  # atno 17370 bound_to 10713
  157.2527  130.6621  149.5938 LP  0  0  0  0  0  0  0  0  0  0  0  0  # atno 17371 bound_to 10713
  140.5962  134.5600  157.5509 LP  0  0  0  0  0  0  0  0  0  0  0  0  # atno 17394 bound_to 11000
  139.9391  134.7821  156.0726 LP  0  0  0  0  0  0  0  0  0  0  0  0  # atno 17395 bound_to 11000

$$$$
