AV-unprocessed.smi:1459|AV-procd|sdf|5927|dock1
  -GOLD-   22720 6 13D 1   1.00000     0.00000
 Structure written by MMmdl.
 34 35  0  0  0  0  0  0  0  0  1 V2000
  148.6008  129.8071  154.1441 C   0  0  0  0  0  0  0  0  0  0  0  0
  149.1257  131.1806  154.3861 C   0  0  0  0  0  0  0  0  0  0  0  0
  148.8655  132.3914  153.8083 C   0  0  0  0  0  0  0  0  0  0  0  0
  149.7142  133.2768  154.5246 C   0  0  0  0  0  0  0  0  0  0  0  0
  149.7432  134.6622  154.2212 N   0  0  0  0  0  0  0  0  0  0  0  0
  150.4224  135.6277  154.8634 C   0  0  0  0  0  0  0  0  0  0  0  0
  151.1442  135.4523  155.8453 O   0  0  0  0  0  0  0  0  0  0  0  0
  150.2100  136.8264  154.2997 N   0  0  0  0  0  0  0  0  0  0  0  0
  150.7874  138.0961  154.7394 C   0  0  1  0  0  0  0  0  0  0  0  0
  152.2860  138.0994  154.4037 C   0  0  0  0  0  0  0  0  0  0  0  0
  150.0493  139.2814  154.0828 C   0  0  1  0  0  0  0  0  0  0  0  0
  148.5388  139.3196  154.3270 C   0  0  0  0  0  0  0  0  0  0  0  0
  148.2326  140.7855  154.1266 C   0  0  0  0  0  0  0  0  0  0  0  0
  149.4526  141.4446  154.7614 C   0  0  0  0  0  0  0  0  0  0  0  0
  150.5268  140.5206  154.6035 O   0  0  0  0  0  0  0  0  0  0  0  0
  150.4280  132.6620  155.4554 N   0  0  0  0  0  0  0  0  0  0  0  0
  150.0548  131.3155  155.3711 O   0  0  0  0  0  0  0  0  0  0  0  0
  147.9227  129.7936  153.2907 H   0  0  0  0  0  0  0  0  0  0  0  0
  148.0560  129.4429  155.0152 H   0  0  0  0  0  0  0  0  0  0  0  0
  149.4153  129.1123  153.9387 H   0  0  0  0  0  0  0  0  0  0  0  0
  148.1781  132.6052  153.0035 H   0  0  0  0  0  0  0  0  0  0  0  0
  149.1858  134.9492  153.4306 H   0  0  0  0  0  0  0  0  0  0  0  0
  149.5969  136.8678  153.4990 H   0  0  0  0  0  0  0  0  0  0  0  0
  150.6943  138.1904  155.8227 H   0  0  0  0  0  0  0  0  0  0  0  0
  152.7660  139.0154  154.7492 H   0  0  0  0  0  0  0  0  0  0  0  0
  152.4538  138.0218  153.3289 H   0  0  0  0  0  0  0  0  0  0  0  0
  152.7970  137.2635  154.8827 H   0  0  0  0  0  0  0  0  0  0  0  0
  150.2310  139.2857  153.0066 H   0  0  0  0  0  0  0  0  0  0  0  0
  147.9800  138.6699  153.6527 H   0  0  0  0  0  0  0  0  0  0  0  0
  148.3068  139.0288  155.3528 H   0  0  0  0  0  0  0  0  0  0  0  0
  148.1891  141.0173  153.0615 H   0  0  0  0  0  0  0  0  0  0  0  0
  147.2930  141.0959  154.5845 H   0  0  0  0  0  0  0  0  0  0  0  0
  149.6862  142.4085  154.3087 H   0  0  0  0  0  0  0  0  0  0  0  0
  149.2882  141.6022  155.8279 H   0  0  0  0  0  0  0  0  0  0  0  0
  1  2  1  0  0  0  0
  1 18  1  0  0  0  0
  1 19  1  0  0  0  0
  1 20  1  0  0  0  0
  2 17  1  0  0  0  0
  2  3  2  0  0  0  0
  3  4  1  0  0  0  0
  3 21  1  0  0  0  0
  4  5  1  0  0  0  0
  4 16  2  0  0  0  0
  5  6  1  0  0  0  0
  5 22  1  0  0  0  0
  6  7  2  0  0  0  0
  6  8  1  0  0  0  0
  8  9  1  0  0  0  0
  8 23  1  0  0  0  0
  9 10  1  0  0  0  0
  9 11  1  0  0  0  0
  9 24  1  0  0  0  0
 10 25  1  0  0  0  0
 10 26  1  0  0  0  0
 10 27  1  0  0  0  0
 11 15  1  0  0  0  0
 11 12  1  0  0  0  0
 11 28  1  0  0  0  0
 12 13  1  0  0  0  0
 12 29  1  0  0  0  0
 12 30  1  0  0  0  0
 13 14  1  0  0  0  0
 13 31  1  0  0  0  0
 13 32  1  0  0  0  0
 14 15  1  0  0  0  0
 14 33  1  0  0  0  0
 14 34  1  0  0  0  0
 16 17  1  0  0  0  0
M  END
> <s_m_source_file>
AV-unprocessed.smi

> <i_m_source_file_index>
1459

> <i_lp_mmshare_version>
43012

> <i_f3d_flags>
0

> <s_epik_input>
W0NIM11jMVtjSF1jKG5vMSlbTkhdQyg9TylbTkhdW0NASF0oW0NIM10pW0NAQEhdMltDSDJdW0NIMl1bQ0gyXU8y

> <s_epik_cmdline>
J2VwaWtfcHl0aG9uJywgJy1waCcsICc3LjAnLCAnLXRuJywgJzgnLCAnLW1hJywgJzIwMCcsICctbWV0YWxfYmluZGluZycsICctaW1hZScsICc8aW5maWxlLm1hZT4nLCAnLW9tYWUnLCAnPG91dGZpbGUubWFlPic=

> <r_lp_tautomer_probability>
1

> <r_epik_Ionization_Penalty>
2.20869e-05

> <r_epik_Ionization_Penalty_Charging>
0

> <r_epik_Ionization_Penalty_Neutral>
2.20869e-05

> <r_epik_State_Penalty>
-0

> <r_epik_Charging_Adjusted_Penalty>
0

> <i_epik_Tot_Q>
0

> <i_epik_Tot_abs_Q>
0

> <r_epik_Metal_State_Penalty>
-0

> <b_epik_Metal_Only>
0

> <s_lp_Force_Field>
OPLS_2005

> <r_lp_Energy>
15.566

> <b_lp_Chiralities_Consistent>
1

> <s_lp_Variant>
AV-unprocessed.smi:1459-4

> <Gold.Version>
5.8.1

> <Gold.Id.Protein>
6NUR|6NUR_protein|mol2

> <Gold.PLP.Fitness>
42.2075

> <Gold.PLP.PLP>
-31.4285

> <Gold.PLP.part.hbond>
-4.9163

> <Gold.PLP.part.metal>
0.0000

> <Gold.PLP.part.buried>
-0.7222

> <Gold.PLP.part.nonpolar>
-25.8162

> <Gold.PLP.part.repulsive>
0.2598

> <Gold.PLP.ligand.clash>
0.0000

> <Gold.PLP.ligand.torsion>
0.1606

> <Gold.PLP.Chemscore.Hbond>
3.6908

> <Gold.PLP.Chemscore.CHOScore>
0.0000

> <Gold.PLP.Chemscore.Metal>
0.0000

> <Gold.Chemscore.Hbonds>
donor molecule, donor type, donor heavy atom, donor atom, acceptor molecule, acceptor atom, score
      L1  H     5    22       P1  7948  0.76
      L1  H     8    23       P1  7948  1.00
      P1  H  7989  7998       L1    15  1.00
      P1  H 10752 10764       L1     7  0.78

> <Gold.PLP.Chemscore.Internal.Correction>
0.0280

> <Gold.Rescore>
     Score         DG    S(hbond)    S(metal)    S(lipo)     H(rot)  DE(clash)    DE(int)     intcor
     15.78     -17.25       2.53        0.00      56.26       1.28       0.11       1.37       ----

> <Gold.Chemscore.Fitness>
15.7813

> <Gold.Chemscore.DG>
-17.2549

> <Gold.Chemscore.ZeroCoef>
-5.4800

> <Gold.Chemscore.Hbond>
2.5341

> <Gold.Chemscore.Metal>
0.0000

> <Gold.Chemscore.Lipo>
56.2551

> <Gold.Chemscore.Internal_Hbond>
0.0000

> <Gold.Chemscore.DEClash>
0.1061

> <Gold.Chemscore.DEInternal>
1.3675

> <Gold.Chemscore.Rot>
1.2776

> <Gold.Chemscore.Internal.Correction>
   9.000000E+99

> <Gold.Chemscore.Hbonds>
donor molecule, donor type, donor heavy atom, donor atom, acceptor molecule, acceptor atom, score
      L1  H     5    22       P1  7948  0.10
      L1  H     8    23       P1  7948  0.72
      P1  H  7989  7998       L1    15  0.22
      P1  H 10752 10764       L1     7  0.27

> <Gold.Chemscore.Hbond.Weighted>
-8.4637

> <Gold.Chemscore.Metal.Weighted>
-0.0000

> <Gold.Chemscore.Lipo.Weighted>
-6.5819

> <Gold.Chemscore.Internal_Hbond.Weighted>
0.0000

> <Gold.Chemscore.DEClash.Weighted>
0.1061

> <Gold.Chemscore.DEInternal.Weighted>
1.3675

> <Gold.Chemscore.Rot.Weighted>
3.2707

> <Gold.Chemscore.Internal.Correction.Weighted>
   9.000000E+99

> <Gold.Protein.RotatedTorsions>
[ 6907 6896 6895 6894 ] final  -33.78 input  -60.11 | X-H torsion
[ 7974 7965 7964 7962 ] final  -29.17 input  175.53 | X-H torsion
[ 8008 7997 7996 7995 ] final   -9.96 input   59.86 | X-H torsion
[ 10167 10162 10161 10158 ] final  155.11 input  -65.29 | X-H torsion
[ 10718 10713 10712 10709 ] final -164.93 input   66.30 | X-H torsion
[ 10763 10752 10751 10750 ] final  -35.64 input  -60.55 | X-H torsion
[ 11005 11000 10999 10996 ] final -159.29 input  -57.11 | X-H torsion

> <Gold.Protein.ActiveResidues>
 VAL166  LYS551  ARG553  GLY616  TRP617  ASP618  TYR619  PRO620  LYS621  CYS622 
 ASP623  PHE694  ASN695  SER759  ASP760  ASP761  ALA762  ILE779  LEU786  VAL792 
 PHE793  MET794  SER795  GLU796  ALA797  LYS798  CYS799  TRP800  GLU811  SER814 

> <Gold.Protein.RotatedAtoms>
  151.0611  134.9737  159.8260 H   0  0  0  0  0  0  0  0  0  0  0  0  # atno 6907 bound_to 6896
  152.5395  134.2416  159.8874 H   0  0  0  0  0  0  0  0  0  0  0  0  # atno 6908 bound_to 6896
  151.2436  133.4343  159.2642 H   0  0  0  0  0  0  0  0  0  0  0  0  # atno 6909 bound_to 6896
  146.1236  140.5378  142.8724 H   0  0  0  0  0  0  0  0  0  0  0  0  # atno 7974 bound_to 7965
  154.5598  140.2341  155.8352 H   0  0  0  0  0  0  0  0  0  0  0  0  # atno 8008 bound_to 7997
  156.2020  140.3050  155.9506 H   0  0  0  0  0  0  0  0  0  0  0  0  # atno 8009 bound_to 7997
  155.2910  140.0426  157.3013 H   0  0  0  0  0  0  0  0  0  0  0  0  # atno 8010 bound_to 7997
  139.4822  144.5128  151.7999 H   0  0  0  0  0  0  0  0  0  0  0  0  # atno 10167 bound_to 10162
  156.6461  130.8988  151.3005 H   0  0  0  0  0  0  0  0  0  0  0  0  # atno 10718 bound_to 10713
  153.8665  135.6835  153.4778 H   0  0  0  0  0  0  0  0  0  0  0  0  # atno 10763 bound_to 10752
  153.1311  135.4697  154.9349 H   0  0  0  0  0  0  0  0  0  0  0  0  # atno 10764 bound_to 10752
  154.7734  135.3245  154.8092 H   0  0  0  0  0  0  0  0  0  0  0  0  # atno 10765 bound_to 10752
  140.6442  134.4519  157.5234 H   0  0  0  0  0  0  0  0  0  0  0  0  # atno 11005 bound_to 11000
  144.7620  140.5444  143.6729 LP  0  0  0  0  0  0  0  0  0  0  0  0  # atno 17320 bound_to 7965
  145.5414  139.1475  143.3445 LP  0  0  0  0  0  0  0  0  0  0  0  0  # atno 17321 bound_to 7965
  140.4632  144.1692  150.5909 LP  0  0  0  0  0  0  0  0  0  0  0  0  # atno 17342 bound_to 10162
  140.4462  143.2506  151.9409 LP  0  0  0  0  0  0  0  0  0  0  0  0  # atno 17343 bound_to 10162
  157.7156  130.9493  150.1242 LP  0  0  0  0  0  0  0  0  0  0  0  0  # atno 17370 bound_to 10713
  156.2121  130.3667  149.8658 LP  0  0  0  0  0  0  0  0  0  0  0  0  # atno 17371 bound_to 10713
  139.9069  134.8429  156.1673 LP  0  0  0  0  0  0  0  0  0  0  0  0  # atno 17394 bound_to 11000
  141.0584  133.6853  156.1905 LP  0  0  0  0  0  0  0  0  0  0  0  0  # atno 17395 bound_to 11000

$$$$
