AV-unprocessed.smi:645|AV-procd|sdf|3159|dock7
  -GOLD-   22720 0 83D 1   1.00000     0.00000
 Structure written by MMmdl.
 23 24  0  0  0  0  0  0  0  0  1 V2000
  152.1966  139.4985  156.1910 C   0  0  0  0  0  0  0  0  0  0  0  0
  151.9606  139.5859  157.7124 C   0  0  1  0  0  0  0  0  0  0  0  0
  151.8278  141.0365  158.2023 C   0  0  0  0  0  0  0  0  0  0  0  0
  150.8491  141.9198  157.6848 C   0  0  0  0  0  0  0  0  0  0  0  0
  150.7915  143.2389  158.1773 C   0  0  0  0  0  0  0  0  0  0  0  0
  151.6258  143.7163  159.1237 N   0  0  0  0  0  0  0  0  0  0  0  0
  152.5598  142.8772  159.6171 C   0  0  0  0  0  0  0  0  0  0  0  0
  152.7022  141.5417  159.1927 C   0  0  0  0  0  0  0  0  0  0  0  0
  150.8373  138.7361  158.0873 N   0  0  0  0  0  0  0  0  0  0  0  0
  151.1755  137.7674  158.9484 C   0  0  0  0  0  0  0  0  0  0  0  0
  150.4136  136.9372  159.4381 O   0  0  0  0  0  0  0  0  0  0  0  0
  152.4891  137.8587  159.1721 N   0  0  0  0  0  0  0  0  0  0  0  0
  153.0519  138.8572  158.4936 C   0  0  0  0  0  0  0  0  0  0  0  0
  154.2469  139.1498  158.4805 O   0  0  0  0  0  0  0  0  0  0  0  0
  153.1041  140.0210  155.8874 H   0  0  0  0  0  0  0  0  0  0  0  0
  151.3642  139.9399  155.6419 H   0  0  0  0  0  0  0  0  0  0  0  0
  152.2946  138.4636  155.8595 H   0  0  0  0  0  0  0  0  0  0  0  0
  150.1462  141.6121  156.9254 H   0  0  0  0  0  0  0  0  0  0  0  0
  150.0534  143.9303  157.7983 H   0  0  0  0  0  0  0  0  0  0  0  0
  153.2150  143.2817  160.3741 H   0  0  0  0  0  0  0  0  0  0  0  0
  153.4687  140.9190  159.6297 H   0  0  0  0  0  0  0  0  0  0  0  0
  149.8992  138.8937  157.7491 H   0  0  0  0  0  0  0  0  0  0  0  0
  153.0008  137.2312  159.7750 H   0  0  0  0  0  0  0  0  0  0  0  0
  1  2  1  0  0  0  0
  1 15  1  0  0  0  0
  1 16  1  0  0  0  0
  1 17  1  0  0  0  0
  2 13  1  0  0  0  0
  2  3  1  0  0  0  0
  2  9  1  0  0  0  0
  3  8  1  0  0  0  0
  3  4  2  0  0  0  0
  4  5  1  0  0  0  0
  4 18  1  0  0  0  0
  5  6  2  0  0  0  0
  5 19  1  0  0  0  0
  6  7  1  0  0  0  0
  7  8  2  0  0  0  0
  7 20  1  0  0  0  0
  8 21  1  0  0  0  0
  9 10  1  0  0  0  0
  9 22  1  0  0  0  0
 10 11  2  0  0  0  0
 10 12  1  0  0  0  0
 12 13  1  0  0  0  0
 12 23  1  0  0  0  0
 13 14  2  0  0  0  0
M  END
> <s_m_source_file>
AV-unprocessed.smi

> <i_m_source_file_index>
645

> <i_lp_mmshare_version>
43012

> <i_f3d_flags>
0

> <s_epik_input>
Tz1DMVtOSF1DKD1PKVtOSF1bQ0BAXTEoW0NIM10pYzJbY0hdW2NIXW5bY0hdW2NIXTI=

> <s_epik_cmdline>
J2VwaWtfcHl0aG9uJywgJy1waCcsICc3LjAnLCAnLXRuJywgJzgnLCAnLW1hJywgJzIwMCcsICctbWV0YWxfYmluZGluZycsICctaW1hZScsICc8aW5maWxlLm1hZT4nLCAnLW9tYWUnLCAnPG91dGZpbGUubWFlPic=

> <r_lp_tautomer_probability>
1

> <r_epik_Ionization_Penalty>
0.0327402

> <r_epik_Ionization_Penalty_Charging>
0

> <r_epik_Ionization_Penalty_Neutral>
0.0327402

> <r_epik_State_Penalty>
0.022996

> <r_epik_Charging_Adjusted_Penalty>
0.022996

> <i_epik_Tot_Q>
0

> <i_epik_Tot_abs_Q>
0

> <r_epik_Metal_State_Penalty>
0.426243

> <b_epik_Metal_Only>
0

> <s_lp_Force_Field>
OPLS_2005

> <r_lp_Energy>
18.0362

> <b_lp_Chiralities_Consistent>
1

> <s_lp_Variant>
AV-unprocessed.smi:645-1

> <Gold.Version>
5.8.1

> <Gold.Id.Protein>
6NUR|6NUR_protein|mol2

> <Gold.PLP.Fitness>
31.6363

> <Gold.PLP.PLP>
-22.6685

> <Gold.PLP.part.hbond>
-2.0000

> <Gold.PLP.part.metal>
0.0000

> <Gold.PLP.part.buried>
-3.7457

> <Gold.PLP.part.nonpolar>
-17.3439

> <Gold.PLP.part.repulsive>
0.2111

> <Gold.PLP.ligand.clash>
0.0000

> <Gold.PLP.ligand.torsion>
0.0754

> <Gold.PLP.Chemscore.Hbond>
2.0000

> <Gold.PLP.Chemscore.CHOScore>
1.0000

> <Gold.PLP.Chemscore.Metal>
0.0000

> <Gold.Chemscore.Hbonds>
donor molecule, donor type, donor heavy atom, donor atom, acceptor molecule, acceptor atom, score
      P1  H  6896  6908       L1    11  0.99
      P1  H  7997  8008       L1    14  1.00
      L1  C     5    19       P1  8028  0.99

> <Gold.PLP.Chemscore.Internal.Correction>
0.1187

> <Gold.Rescore>
     Score         DG    S(hbond)    S(metal)    S(lipo)     H(rot)  DE(clash)    DE(int)     intcor
     14.57     -15.85       1.99        0.00      53.83       1.00       0.00       1.28       ----

> <Gold.Chemscore.Fitness>
14.5727

> <Gold.Chemscore.DG>
-15.8523

> <Gold.Chemscore.ZeroCoef>
-5.4800

> <Gold.Chemscore.Hbond>
1.9861

> <Gold.Chemscore.Metal>
0.0000

> <Gold.Chemscore.Lipo>
53.8345

> <Gold.Chemscore.Internal_Hbond>
0.0000

> <Gold.Chemscore.DEClash>
0.0000

> <Gold.Chemscore.DEInternal>
1.2795

> <Gold.Chemscore.Rot>
1.0000

> <Gold.Chemscore.Internal.Correction>
   9.000000E+99

> <Gold.Chemscore.Hbonds>
donor molecule, donor type, donor heavy atom, donor atom, acceptor molecule, acceptor atom, score
      P1  H  6896  6908       L1    11  0.91
      P1  H  7997  8008       L1    14  0.99

> <Gold.Chemscore.Hbond.Weighted>
-6.6336

> <Gold.Chemscore.Metal.Weighted>
-0.0000

> <Gold.Chemscore.Lipo.Weighted>
-6.2986

> <Gold.Chemscore.Internal_Hbond.Weighted>
0.0000

> <Gold.Chemscore.DEClash.Weighted>
0.0000

> <Gold.Chemscore.DEInternal.Weighted>
1.2795

> <Gold.Chemscore.Rot.Weighted>
2.5600

> <Gold.Chemscore.Internal.Correction.Weighted>
   9.000000E+99

> <Gold.Protein.RotatedTorsions>
[ 6907 6896 6895 6894 ] final -152.84 input  -60.11 | X-H torsion
[ 7974 7965 7964 7962 ] final  -63.01 input  175.53 | X-H torsion
[ 8008 7997 7996 7995 ] final -120.32 input   59.86 | X-H torsion
[ 10167 10162 10161 10158 ] final -179.85 input  -65.29 | X-H torsion
[ 10718 10713 10712 10709 ] final -117.13 input   66.30 | X-H torsion
[ 10763 10752 10751 10750 ] final  166.82 input  -60.55 | X-H torsion
[ 11005 11000 10999 10996 ] final   96.47 input  -57.11 | X-H torsion

> <Gold.Protein.ActiveResidues>
 VAL166  LYS551  ARG553  GLY616  TRP617  ASP618  TYR619  PRO620  LYS621  CYS622 
 ASP623  PHE694  ASN695  SER759  ASP760  ASP761  ALA762  ILE779  LEU786  VAL792 
 PHE793  MET794  SER795  GLU796  ALA797  LYS798  CYS799  TRP800  GLU811  SER814 

> <Gold.Protein.RotatedAtoms>
  151.2338  133.4436  159.2604 H   0  0  0  0  0  0  0  0  0  0  0  0  # atno 6907 bound_to 6896
  151.0770  134.9834  159.8347 H   0  0  0  0  0  0  0  0  0  0  0  0  # atno 6908 bound_to 6896
  152.5419  134.2280  159.8866 H   0  0  0  0  0  0  0  0  0  0  0  0  # atno 6909 bound_to 6896
  145.7843  140.8745  143.0314 H   0  0  0  0  0  0  0  0  0  0  0  0  # atno 7974 bound_to 7965
  155.1300  140.0400  157.2772 H   0  0  0  0  0  0  0  0  0  0  0  0  # atno 8008 bound_to 7997
  154.6550  140.2578  155.7145 H   0  0  0  0  0  0  0  0  0  0  0  0  # atno 8009 bound_to 7997
  156.2594  140.2828  156.0999 H   0  0  0  0  0  0  0  0  0  0  0  0  # atno 8010 bound_to 7997
  139.5367  144.2476  152.0810 H   0  0  0  0  0  0  0  0  0  0  0  0  # atno 10167 bound_to 10162
  156.1012  130.6173  150.9125 H   0  0  0  0  0  0  0  0  0  0  0  0  # atno 10718 bound_to 10713
  154.3447  135.2753  155.2404 H   0  0  0  0  0  0  0  0  0  0  0  0  # atno 10763 bound_to 10752
  154.4659  135.5895  153.6291 H   0  0  0  0  0  0  0  0  0  0  0  0  # atno 10764 bound_to 10752
  152.9854  135.6076  154.3651 H   0  0  0  0  0  0  0  0  0  0  0  0  # atno 10765 bound_to 10752
  139.8781  134.8952  156.4164 H   0  0  0  0  0  0  0  0  0  0  0  0  # atno 11005 bound_to 11000
  144.6791  140.0033  143.7484 LP  0  0  0  0  0  0  0  0  0  0  0  0  # atno 17320 bound_to 7965
  146.0042  139.3116  143.0909 LP  0  0  0  0  0  0  0  0  0  0  0  0  # atno 17321 bound_to 7965
  140.1948  144.4716  150.6461 LP  0  0  0  0  0  0  0  0  0  0  0  0  # atno 17342 bound_to 10162
  140.6578  143.2243  151.5928 LP  0  0  0  0  0  0  0  0  0  0  0  0  # atno 17343 bound_to 10162
  157.6182  131.0931  150.8670 LP  0  0  0  0  0  0  0  0  0  0  0  0  # atno 17370 bound_to 10713
  156.8798  130.5175  149.5291 LP  0  0  0  0  0  0  0  0  0  0  0  0  # atno 17371 bound_to 10713
  140.9164  133.7675  155.9854 LP  0  0  0  0  0  0  0  0  0  0  0  0  # atno 17394 bound_to 11000
  140.8488  134.2978  157.5284 LP  0  0  0  0  0  0  0  0  0  0  0  0  # atno 17395 bound_to 11000

$$$$
