AV-unprocessed.smi:592|AV-procd|sdf|3011|dock1
  -GOLD-   2262023513D 1   1.00000     0.00000
 Structure written by MMmdl.
 28 29  0  0  0  0  0  0  0  0  2 V2000
  151.4028  140.8674  157.4048 O   0  0  0  0  0  0  0  0  0  0  0  0
  150.7001  141.5608  156.6708 C   0  0  0  0  0  0  0  0  0  0  0  0
  150.0905  141.0034  155.3736 C   0  0  0  0  0  0  0  0  0  0  0  0
  150.3674  139.5705  155.1694 N   0  0  0  0  0  0  0  0  0  0  0  0
  149.2615  138.6968  155.1784 C   0  0  0  0  0  0  0  0  0  0  0  0
  149.3997  137.3736  154.9998 C   0  0  0  0  0  0  0  0  0  0  0  0
  150.7284  136.8478  154.7933 C   0  0  0  0  0  0  0  0  0  0  0  0
  151.7938  137.6733  154.7882 C   0  0  0  0  0  0  0  0  0  0  0  0
  151.6476  139.1199  154.9872 C   0  0  0  0  0  0  0  0  0  0  0  0
  152.6156  139.8809  154.9919 O   0  0  0  0  0  0  0  0  0  0  0  0
  150.4705  142.9316  157.0589 N   0  0  0  0  0  0  0  0  0  0  0  0
  150.8890  143.6462  158.1336 C   0  0  0  0  0  0  0  0  0  0  0  0
  150.1848  144.6455  158.6844 N   0  3  0  0  0  0  0  0  0  0  0  0
  150.7461  145.3599  159.8413 C   0  0  0  0  0  0  0  0  0  0  0  0
  152.1106  144.7488  160.1988 C   0  0  0  0  0  0  0  0  0  0  0  0
  152.4353  143.4289  159.0132 S   0  0  0  0  0  0  0  0  0  0  0  0
  149.0122  141.1603  155.3964 H   0  0  0  0  0  0  0  0  0  0  0  0
  150.4740  141.5669  154.5225 H   0  0  0  0  0  0  0  0  0  0  0  0
  148.3030  139.1668  155.3445 H   0  0  0  0  0  0  0  0  0  0  0  0
  148.5405  136.7194  155.0135 H   0  0  0  0  0  0  0  0  0  0  0  0
  150.8688  135.7875  154.6432 H   0  0  0  0  0  0  0  0  0  0  0  0
  152.7803  137.2614  154.6334 H   0  0  0  0  0  0  0  0  0  0  0  0
  149.9176  143.5139  156.4466 H   0  0  0  0  0  0  0  0  0  0  0  0
  150.8505  146.4168  159.5945 H   0  0  0  0  0  0  0  0  0  0  0  0
  150.0564  145.2864  160.6825 H   0  0  0  0  0  0  0  0  0  0  0  0
  152.9031  145.4954  160.1431 H   0  0  0  0  0  0  0  0  0  0  0  0
  152.1057  144.3396  161.2095 H   0  0  0  0  0  0  0  0  0  0  0  0
  149.2838  144.9215  158.3198 H   0  0  0  0  0  0  0  0  0  0  0  0
  1  2  2  0  0  0  0
  2  3  1  0  0  0  0
  2 11  1  0  0  0  0
  3  4  1  0  0  0  0
  3 17  1  0  0  0  0
  3 18  1  0  0  0  0
  4  9  1  0  0  0  0
  4  5  1  0  0  0  0
  5  6  2  0  0  0  0
  5 19  1  0  0  0  0
  6  7  1  0  0  0  0
  6 20  1  0  0  0  0
  7  8  2  0  0  0  0
  7 21  1  0  0  0  0
  8  9  1  0  0  0  0
  8 22  1  0  0  0  0
  9 10  2  0  0  0  0
 11 12  1  0  0  0  0
 11 23  1  0  0  0  0
 12 16  1  0  0  0  0
 12 13  2  0  0  0  0
 13 14  1  0  0  0  0
 13 28  1  0  0  0  0
 14 15  1  0  0  0  0
 14 24  1  0  0  0  0
 14 25  1  0  0  0  0
 15 16  1  0  0  0  0
 15 26  1  0  0  0  0
 15 27  1  0  0  0  0
M  CHG  1  13   1
M  END
> <s_m_source_file>
AV-unprocessed.smi

> <i_m_source_file_index>
592

> <i_lp_mmshare_version>
43012

> <i_f3d_flags>
0

> <s_epik_input>
UzFbQ0gyXVtDSDJdTj1DMVtOSF1DKD1PKVtDSDJdbjJbY0hdW2NIXVtjSF1bY0hdYzI9Tw==

> <s_epik_cmdline>
J2VwaWtfcHl0aG9uJywgJy1waCcsICc3LjAnLCAnLXRuJywgJzgnLCAnLW1hJywgJzIwMCcsICctbWV0YWxfYmluZGluZycsICctaW1hZScsICc8aW5maWxlLm1hZT4nLCAnLW9tYWUnLCAnPG91dGZpbGUubWFlPic=

> <r_lp_tautomer_probability>
1

> <r_epik_Ionization_Penalty>
1.98499

> <r_epik_Ionization_Penalty_Charging>
1.98499

> <r_epik_Ionization_Penalty_Neutral>
2.63117e-16

> <r_epik_State_Penalty>
1.64719

> <r_epik_Charging_Adjusted_Penalty>
3.63218

> <i_epik_Tot_Q>
1

> <i_epik_Tot_abs_Q>
1

> <r_epik_Metal_State_Penalty>
5.35038

> <b_epik_Metal_Only>
0

> <s_epik_Chemistry_Notes>
This compound has an imine and may undergo hydrolysis.

> <s_lp_Force_Field>
OPLS_2005

> <r_lp_Energy>
33.1972

> <b_lp_Chiralities_Consistent>
1

> <s_lp_Variant>
AV-unprocessed.smi:592-2

> <Gold.Version>
5.8.1

> <Gold.Id.Protein>
6NUR|6NUR_protein|mol2

> <Gold.PLP.Fitness>
46.4666

> <Gold.PLP.PLP>
-34.4768

> <Gold.PLP.part.hbond>
-4.2752

> <Gold.PLP.part.metal>
0.0000

> <Gold.PLP.part.buried>
-3.3903

> <Gold.PLP.part.nonpolar>
-28.3578

> <Gold.PLP.part.repulsive>
0.2003

> <Gold.PLP.ligand.clash>
0.0000

> <Gold.PLP.ligand.torsion>
0.2327

> <Gold.PLP.Chemscore.Hbond>
4.1497

> <Gold.PLP.Chemscore.CHOScore>
0.0000

> <Gold.PLP.Chemscore.Metal>
0.0000

> <Gold.Chemscore.Hbonds>
donor molecule, donor type, donor heavy atom, donor atom, acceptor molecule, acceptor atom, score
      L1  H    11    23       P1  8028  1.00
      L1  H    13    28       P1  8029  2.00
      P1  H  7989  7998       L1    10  0.19
      P1  H  7997  8009       L1    10  0.93

> <Gold.PLP.Chemscore.Internal.Correction>
0.0064

> <Gold.Rescore>
     Score         DG    S(hbond)    S(metal)    S(lipo)     H(rot)  DE(clash)    DE(int)     intcor
     17.78     -18.41       2.73        0.00      62.18       1.35       0.22       0.41       ----

> <Gold.Chemscore.Fitness>
17.7758

> <Gold.Chemscore.DG>
-18.4060

> <Gold.Chemscore.ZeroCoef>
-5.4800

> <Gold.Chemscore.Hbond>
2.7265

> <Gold.Chemscore.Metal>
0.0000

> <Gold.Chemscore.Lipo>
62.1759

> <Gold.Chemscore.Internal_Hbond>
0.0000

> <Gold.Chemscore.DEClash>
0.2240

> <Gold.Chemscore.DEInternal>
0.4062

> <Gold.Chemscore.Rot>
1.3497

> <Gold.Chemscore.Internal.Correction>
   9.000000E+99

> <Gold.Chemscore.Hbonds>
donor molecule, donor type, donor heavy atom, donor atom, acceptor molecule, acceptor atom, score
      L1  H    11    23       P1  8028  1.00
      L1  H    13    28       P1  8029  0.52
      P1  H  7997  8009       L1    10  0.89

> <Gold.Chemscore.Hbond.Weighted>
-9.1066

> <Gold.Chemscore.Metal.Weighted>
-0.0000

> <Gold.Chemscore.Lipo.Weighted>
-7.2746

> <Gold.Chemscore.Internal_Hbond.Weighted>
0.0000

> <Gold.Chemscore.DEClash.Weighted>
0.2240

> <Gold.Chemscore.DEInternal.Weighted>
0.4062

> <Gold.Chemscore.Rot.Weighted>
3.4552

> <Gold.Chemscore.Internal.Correction.Weighted>
   9.000000E+99

> <Gold.Protein.RotatedTorsions>
[ 6907 6896 6895 6894 ] final  175.73 input  -60.11 | X-H torsion
[ 7974 7965 7964 7962 ] final -171.76 input  175.53 | X-H torsion
[ 8008 7997 7996 7995 ] final -136.71 input   59.86 | X-H torsion
[ 10167 10162 10161 10158 ] final   42.50 input  -65.29 | X-H torsion
[ 10718 10713 10712 10709 ] final  138.23 input   66.30 | X-H torsion
[ 10763 10752 10751 10750 ] final  155.09 input  -60.55 | X-H torsion
[ 11005 11000 10999 10996 ] final  133.62 input  -57.11 | X-H torsion

> <Gold.Protein.ActiveResidues>
 VAL166  LYS551  ARG553  GLY616  TRP617  ASP618  TYR619  PRO620  LYS621  CYS622 
 ASP623  PHE694  ASN695  SER759  ASP760  ASP761  ALA762  ILE779  LEU786  VAL792 
 PHE793  MET794  SER795  GLU796  ALA797  LYS798  CYS799  TRP800  GLU811  SER814 

> <Gold.Protein.RotatedAtoms>
  151.7315  133.3318  159.3341 H   0  0  0  0  0  0  0  0  0  0  0  0  # atno 6907 bound_to 6896
  150.7611  134.6359  159.6221 H   0  0  0  0  0  0  0  0  0  0  0  0  # atno 6908 bound_to 6896
  152.3589  134.6903  160.0265 H   0  0  0  0  0  0  0  0  0  0  0  0  # atno 6909 bound_to 6896
  144.7153  140.1874  143.6352 H   0  0  0  0  0  0  0  0  0  0  0  0  # atno 7974 bound_to 7965
  155.3998  140.0505  157.3037 H   0  0  0  0  0  0  0  0  0  0  0  0  # atno 8008 bound_to 7997
  154.4996  140.2152  155.9334 H   0  0  0  0  0  0  0  0  0  0  0  0  # atno 8009 bound_to 7997
  156.1450  140.3147  155.8562 H   0  0  0  0  0  0  0  0  0  0  0  0  # atno 8010 bound_to 7997
  140.3538  144.2316  150.6143 H   0  0  0  0  0  0  0  0  0  0  0  0  # atno 10167 bound_to 10162
  157.4276  131.1045  151.0286 H   0  0  0  0  0  0  0  0  0  0  0  0  # atno 10718 bound_to 10713
  154.1627  135.2809  155.3104 H   0  0  0  0  0  0  0  0  0  0  0  0  # atno 10763 bound_to 10752
  154.6134  135.5491  153.7501 H   0  0  0  0  0  0  0  0  0  0  0  0  # atno 10764 bound_to 10752
  153.0187  135.6421  154.1769 H   0  0  0  0  0  0  0  0  0  0  0  0  # atno 10765 bound_to 10752
  139.9863  134.9531  156.9750 H   0  0  0  0  0  0  0  0  0  0  0  0  # atno 11005 bound_to 11000
  145.8800  139.2318  143.1610 LP  0  0  0  0  0  0  0  0  0  0  0  0  # atno 17320 bound_to 7965
  146.0003  140.8526  143.0022 LP  0  0  0  0  0  0  0  0  0  0  0  0  # atno 17321 bound_to 7965
  140.5193  143.2270  151.8413 LP  0  0  0  0  0  0  0  0  0  0  0  0  # atno 17342 bound_to 10162
  139.4823  144.4856  151.9251 LP  0  0  0  0  0  0  0  0  0  0  0  0  # atno 17343 bound_to 10162
  157.1194  130.6055  149.5501 LP  0  0  0  0  0  0  0  0  0  0  0  0  # atno 17370 bound_to 10713
  155.9902  130.4952  150.7246 LP  0  0  0  0  0  0  0  0  0  0  0  0  # atno 17371 bound_to 10713
  140.4996  134.1110  155.7248 LP  0  0  0  0  0  0  0  0  0  0  0  0  # atno 17394 bound_to 11000
  141.1527  133.8939  157.2056 LP  0  0  0  0  0  0  0  0  0  0  0  0  # atno 17395 bound_to 11000

$$$$
