AV-unprocessed.smi:1586|AV-procd|sdf|6382|dock2
  -GOLD-   22720 7 13D 1   1.00000     0.00000
 Structure written by MMmdl.
 46 47  0  0  0  0  0  0  0  0  3 V2000
  143.7253  132.1421  150.2828 C   0  0  0  0  0  0  0  0  0  0  0  0
  143.9533  133.3481  151.2060 C   0  0  0  0  0  0  0  0  0  0  0  0
  145.0373  134.2078  150.7249 N   0  0  0  0  0  0  0  0  0  0  0  0
  145.3546  135.3465  151.5940 C   0  0  0  0  0  0  0  0  0  0  0  0
  146.0308  134.9114  152.9115 C   0  0  0  0  0  0  0  0  0  0  0  0
  147.2656  134.1371  152.6296 N   0  3  0  0  0  0  0  0  0  0  0  0
  148.0834  133.8522  153.8494 C   0  0  1  0  0  0  0  0  0  0  0  0
  149.4031  133.1053  153.5304 C   0  0  0  0  0  0  0  0  0  0  0  0
  148.2709  135.1431  154.6940 C   0  0  0  0  0  0  0  0  0  0  0  0
  148.8833  134.8438  155.9895 N   0  5  0  0  0  0  0  0  0  0  0  0
  148.2399  134.9112  157.1880 C   0  0  0  0  0  0  0  0  0  0  0  0
  147.2778  134.2297  157.5626 O   0  0  0  0  0  0  0  0  0  0  0  0
  148.7731  135.8406  158.0016 N   0  0  0  0  0  0  0  0  0  0  0  0
  148.3776  136.2042  159.3160 C   0  0  0  0  0  0  0  0  0  0  0  0
  148.0166  135.2104  160.2644 C   0  0  0  0  0  0  0  0  0  0  0  0
  147.7097  135.9416  161.3771 C   0  0  0  0  0  0  0  0  0  0  0  0
  147.2587  135.5613  162.7457 C   0  0  0  0  0  0  0  0  0  0  0  0
  147.8675  137.2701  161.1293 O   0  0  0  0  0  0  0  0  0  0  0  0
  148.2947  137.4322  159.8061 N   0  0  0  0  0  0  0  0  0  0  0  0
  146.9474  132.9757  151.7517 C   0  0  0  0  0  0  0  0  0  0  0  0
  146.2678  133.4597  150.4542 C   0  0  0  0  0  0  0  0  0  0  0  0
  143.0085  131.4523  150.7286 H   0  0  0  0  0  0  0  0  0  0  0  0
  144.6512  131.5909  150.1151 H   0  0  0  0  0  0  0  0  0  0  0  0
  143.3257  132.4375  149.3130 H   0  0  0  0  0  0  0  0  0  0  0  0
  143.0255  133.9036  151.3369 H   0  0  0  0  0  0  0  0  0  0  0  0
  144.2270  132.9681  152.1912 H   0  0  0  0  0  0  0  0  0  0  0  0
  146.0249  136.0138  151.0506 H   0  0  0  0  0  0  0  0  0  0  0  0
  144.4595  135.9312  151.8026 H   0  0  0  0  0  0  0  0  0  0  0  0
  146.2833  135.8065  153.4810 H   0  0  0  0  0  0  0  0  0  0  0  0
  145.3513  134.3291  153.5339 H   0  0  0  0  0  0  0  0  0  0  0  0
  147.4864  133.1773  154.4649 H   0  0  0  0  0  0  0  0  0  0  0  0
  149.9053  132.7652  154.4379 H   0  0  0  0  0  0  0  0  0  0  0  0
  150.1151  133.7219  152.9789 H   0  0  0  0  0  0  0  0  0  0  0  0
  149.2110  132.2141  152.9328 H   0  0  0  0  0  0  0  0  0  0  0  0
  148.8732  135.8529  154.1267 H   0  0  0  0  0  0  0  0  0  0  0  0
  147.3013  135.6292  154.8142 H   0  0  0  0  0  0  0  0  0  0  0  0
  149.5546  136.3555  157.6241 H   0  0  0  0  0  0  0  0  0  0  0  0
  147.9888  134.1372  160.1496 H   0  0  0  0  0  0  0  0  0  0  0  0
  146.6215  134.6775  162.7120 H   0  0  0  0  0  0  0  0  0  0  0  0
  146.6910  136.3684  163.2094 H   0  0  0  0  0  0  0  0  0  0  0  0
  148.1134  135.3379  163.3842 H   0  0  0  0  0  0  0  0  0  0  0  0
  147.8599  132.4399  151.4906 H   0  0  0  0  0  0  0  0  0  0  0  0
  146.3067  132.2625  152.2707 H   0  0  0  0  0  0  0  0  0  0  0  0
  146.0487  132.6134  149.8021 H   0  0  0  0  0  0  0  0  0  0  0  0
  146.9538  134.1024  149.9007 H   0  0  0  0  0  0  0  0  0  0  0  0
  147.8419  134.7552  152.0763 H   0  0  0  0  0  0  0  0  0  0  0  0
  1  2  1  0  0  0  0
  1 22  1  0  0  0  0
  1 23  1  0  0  0  0
  1 24  1  0  0  0  0
  2  3  1  0  0  0  0
  2 25  1  0  0  0  0
  2 26  1  0  0  0  0
  3 21  1  0  0  0  0
  3  4  1  0  0  0  0
  4  5  1  0  0  0  0
  4 27  1  0  0  0  0
  4 28  1  0  0  0  0
  5  6  1  0  0  0  0
  5 29  1  0  0  0  0
  5 30  1  0  0  0  0
  6  7  1  0  0  0  0
  6 20  1  0  0  0  0
  6 46  1  0  0  0  0
  7  8  1  0  0  0  0
  7  9  1  0  0  0  0
  7 31  1  0  0  0  0
  8 32  1  0  0  0  0
  8 33  1  0  0  0  0
  8 34  1  0  0  0  0
  9 10  1  0  0  0  0
  9 35  1  0  0  0  0
  9 36  1  0  0  0  0
 10 11  1  0  0  0  0
 11 12  2  0  0  0  0
 11 13  1  0  0  0  0
 13 14  1  0  0  0  0
 13 37  1  0  0  0  0
 14 19  2  0  0  0  0
 14 15  1  0  0  0  0
 15 16  2  0  0  0  0
 15 38  1  0  0  0  0
 16 17  1  0  0  0  0
 16 18  1  0  0  0  0
 17 39  1  0  0  0  0
 17 40  1  0  0  0  0
 17 41  1  0  0  0  0
 18 19  1  0  0  0  0
 20 21  1  0  0  0  0
 20 42  1  0  0  0  0
 20 43  1  0  0  0  0
 21 44  1  0  0  0  0
 21 45  1  0  0  0  0
M  CHG  1   6   1
M  CHG  1  10  -1
M  END
> <s_m_source_file>
AV-unprocessed.smi

> <i_m_source_file_index>
1586

> <i_lp_mmshare_version>
43012

> <i_f3d_flags>
0

> <s_epik_input>
W0NIM11bQ0gyXU4xW0NIMl1bQ0gyXU4oW0NIMl1bQ0gyXTEpW0NASF0oW0NIM10pW0NIMl1bTkhdQyg9TylbTkhdYzJbY0hdYyhbQ0gzXSlvbjI=

> <s_epik_cmdline>
J2VwaWtfcHl0aG9uJywgJy1waCcsICc3LjAnLCAnLXRuJywgJzgnLCAnLW1hJywgJzIwMCcsICctbWV0YWxfYmluZGluZycsICctaW1hZScsICc8aW5maWxlLm1hZT4nLCAnLW9tYWUnLCAnPG91dGZpbGUubWFlPic=

> <r_epik_Ionization_Penalty>
6.72969

> <r_epik_Ionization_Penalty_Charging>
6.72741

> <r_epik_Ionization_Penalty_Neutral>
0.00227419

> <r_epik_State_Penalty>
7.72748

> <r_epik_Charging_Adjusted_Penalty>
14.4549

> <i_epik_Tot_Q>
0

> <i_epik_Tot_abs_Q>
2

> <r_epik_Metal_State_Penalty>
3.65268

> <b_epik_Metal_Only>
1

> <s_lp_Force_Field>
OPLS_2005

> <r_lp_Energy>
18.4071

> <b_lp_Chiralities_Consistent>
1

> <s_lp_Variant>
AV-unprocessed.smi:1586-10

> <Gold.Version>
5.8.1

> <Gold.Id.Protein>
6NUR|6NUR_protein|mol2

> <Gold.PLP.Fitness>
43.3370

> <Gold.PLP.PLP>
-35.2664

> <Gold.PLP.part.hbond>
-4.7743

> <Gold.PLP.part.metal>
0.0000

> <Gold.PLP.part.buried>
-3.0789

> <Gold.PLP.part.nonpolar>
-27.7186

> <Gold.PLP.part.repulsive>
0.2799

> <Gold.PLP.ligand.clash>
0.0000

> <Gold.PLP.ligand.torsion>
1.0741

> <Gold.PLP.Chemscore.Hbond>
3.3024

> <Gold.PLP.Chemscore.CHOScore>
0.0000

> <Gold.PLP.Chemscore.Metal>
0.0000

> <Gold.Chemscore.Hbonds>
donor molecule, donor type, donor heavy atom, donor atom, acceptor molecule, acceptor atom, score
      L1  H     6    46       P1  7948  2.00
      P1  H  6931  6943       L1    18  0.88
      P1  H  6934  6947       L1    18  0.19

> <Gold.PLP.Chemscore.Internal.Correction>
0.3115

> <Gold.Rescore>
     Score         DG    S(hbond)    S(metal)    S(lipo)     H(rot)  DE(clash)    DE(int)     intcor
     12.81     -15.30       1.50        0.00      78.90       1.73       0.56       1.93       ----

> <Gold.Chemscore.Fitness>
12.8118

> <Gold.Chemscore.DG>
-15.2962

> <Gold.Chemscore.ZeroCoef>
-5.4800

> <Gold.Chemscore.Hbond>
1.4973

> <Gold.Chemscore.Metal>
0.0000

> <Gold.Chemscore.Lipo>
78.9014

> <Gold.Chemscore.Internal_Hbond>
0.0000

> <Gold.Chemscore.DEClash>
0.5569

> <Gold.Chemscore.DEInternal>
1.9275

> <Gold.Chemscore.Rot>
1.7250

> <Gold.Chemscore.Internal.Correction>
   9.000000E+99

> <Gold.Chemscore.Hbonds>
donor molecule, donor type, donor heavy atom, donor atom, acceptor molecule, acceptor atom, score
      L1  H     6    46       P1  7948  0.49
      P1  H  6931  6943       L1    18  0.19

> <Gold.Chemscore.Hbond.Weighted>
-5.0008

> <Gold.Chemscore.Metal.Weighted>
-0.0000

> <Gold.Chemscore.Lipo.Weighted>
-9.2315

> <Gold.Chemscore.Internal_Hbond.Weighted>
0.0000

> <Gold.Chemscore.DEClash.Weighted>
0.5569

> <Gold.Chemscore.DEInternal.Weighted>
1.9275

> <Gold.Chemscore.Rot.Weighted>
4.4161

> <Gold.Chemscore.Internal.Correction.Weighted>
   9.000000E+99

> <Gold.Protein.RotatedTorsions>
[ 6907 6896 6895 6894 ] final   97.94 input  -60.11 | X-H torsion
[ 7974 7965 7964 7962 ] final  -77.57 input  175.53 | X-H torsion
[ 8008 7997 7996 7995 ] final   -8.90 input   59.86 | X-H torsion
[ 10167 10162 10161 10158 ] final   -4.54 input  -65.29 | X-H torsion
[ 10718 10713 10712 10709 ] final  -95.68 input   66.30 | X-H torsion
[ 10763 10752 10751 10750 ] final  173.44 input  -60.55 | X-H torsion
[ 11005 11000 10999 10996 ] final -145.16 input  -57.11 | X-H torsion

> <Gold.Protein.ActiveResidues>
 VAL166  LYS551  ARG553  GLY616  TRP617  ASP618  TYR619  PRO620  LYS621  CYS622 
 ASP623  PHE694  ASN695  SER759  ASP760  ASP761  ALA762  ILE779  LEU786  VAL792 
 PHE793  MET794  SER795  GLU796  ALA797  LYS798  CYS799  TRP800  GLU811  SER814 

> <Gold.Protein.RotatedAtoms>
  152.5416  134.0656  159.8171 H   0  0  0  0  0  0  0  0  0  0  0  0  # atno 6907 bound_to 6896
  151.0778  133.5407  159.2630 H   0  0  0  0  0  0  0  0  0  0  0  0  # atno 6908 bound_to 6896
  151.2246  135.0540  159.9017 H   0  0  0  0  0  0  0  0  0  0  0  0  # atno 6909 bound_to 6896
  145.5980  140.9415  143.1256 H   0  0  0  0  0  0  0  0  0  0  0  0  # atno 7974 bound_to 7965
  154.5697  140.2369  155.8210 H   0  0  0  0  0  0  0  0  0  0  0  0  # atno 8008 bound_to 7997
  156.2097  140.3029  155.9663 H   0  0  0  0  0  0  0  0  0  0  0  0  # atno 8009 bound_to 7997
  155.2735  140.0419  157.2999 H   0  0  0  0  0  0  0  0  0  0  0  0  # atno 8010 bound_to 7997
  140.6931  143.6412  150.8434 H   0  0  0  0  0  0  0  0  0  0  0  0  # atno 10167 bound_to 10162
  156.0048  130.5119  150.6112 H   0  0  0  0  0  0  0  0  0  0  0  0  # atno 10718 bound_to 10713
  154.4400  135.2762  155.1854 H   0  0  0  0  0  0  0  0  0  0  0  0  # atno 10763 bound_to 10752
  154.3724  135.6106  153.5750 H   0  0  0  0  0  0  0  0  0  0  0  0  # atno 10764 bound_to 10752
  152.9840  135.5860  154.4726 H   0  0  0  0  0  0  0  0  0  0  0  0  # atno 10765 bound_to 10752
  140.7950  134.2923  157.4999 H   0  0  0  0  0  0  0  0  0  0  0  0  # atno 11005 bound_to 11000
  144.7322  139.7691  143.7343 LP  0  0  0  0  0  0  0  0  0  0  0  0  # atno 17320 bound_to 7965
  146.1598  139.4708  142.9996 LP  0  0  0  0  0  0  0  0  0  0  0  0  # atno 17321 bound_to 7965
  140.0127  143.5625  152.2832 LP  0  0  0  0  0  0  0  0  0  0  0  0  # atno 17342 bound_to 10162
  139.6355  144.7649  151.2447 LP  0  0  0  0  0  0  0  0  0  0  0  0  # atno 17343 bound_to 10162
  157.3944  131.0800  151.1364 LP  0  0  0  0  0  0  0  0  0  0  0  0  # atno 17370 bound_to 10713
  157.2046  130.6410  149.5751 LP  0  0  0  0  0  0  0  0  0  0  0  0  # atno 17371 bound_to 10713
  139.8727  134.9397  156.3748 LP  0  0  0  0  0  0  0  0  0  0  0  0  # atno 17394 bound_to 11000
  140.9351  133.7552  156.0075 LP  0  0  0  0  0  0  0  0  0  0  0  0  # atno 17395 bound_to 11000

$$$$
