AV-unprocessed.smi:618|AV-procd|sdf|3079|dock9
  -GOLD-   22720 0 03D 1   1.00000     0.00000
 Structure written by MMmdl.
 41 43  0  0  0  0  0  0  0  0  2 V2000
  145.9668  139.0265  153.8556 O   0  0  0  0  0  0  0  0  0  0  0  0
  146.8239  138.3129  153.3366 C   0  0  0  0  0  0  0  0  0  0  0  0
  146.5346  137.2622  152.5563 N   0  0  0  0  0  0  0  0  0  0  0  0
  145.1879  136.8041  152.2249 C   0  0  0  0  0  0  0  0  0  0  0  0
  145.1215  135.2993  151.8911 C   0  0  1  0  0  0  0  0  0  0  0  0
  144.4892  134.4405  153.0079 C   0  0  0  0  0  0  0  0  0  0  0  0
  144.3600  133.0204  152.6071 N   0  3  2  0  0  0  0  0  0  0  0  0
  145.5757  132.1863  152.7247 C   0  0  0  0  0  0  0  0  0  0  0  0
  145.4590  131.1016  151.6421 C   0  0  0  0  0  0  0  0  0  0  0  0
  144.1116  131.3500  150.9549 C   0  0  0  0  0  0  0  0  0  0  0  0
  143.7985  132.8165  151.2561 C   0  0  2  0  0  0  0  0  0  0  0  0
  144.4401  133.7743  150.2270 C   0  0  0  0  0  0  0  0  0  0  0  0
  144.3791  135.1151  150.6915 O   0  0  0  0  0  0  0  0  0  0  0  0
  148.1528  138.4739  153.4559 N   0  0  0  0  0  0  0  0  0  0  0  0
  148.8726  139.4484  154.2000 C   0  0  0  0  0  0  0  0  0  0  0  0
  148.2857  140.5681  154.8390 C   0  0  0  0  0  0  0  0  0  0  0  0
  149.1135  141.4509  155.5590 C   0  0  0  0  0  0  0  0  0  0  0  0
  150.4943  141.1809  155.6198 C   0  0  0  0  0  0  0  0  0  0  0  0
  151.0657  140.1125  155.0258 N   0  0  0  0  0  0  0  0  0  0  0  0
  150.2660  139.2705  154.3374 C   0  0  0  0  0  0  0  0  0  0  0  0
  147.3026  136.7397  152.1610 H   0  0  0  0  0  0  0  0  0  0  0  0
  144.4934  137.0441  153.0318 H   0  0  0  0  0  0  0  0  0  0  0  0
  144.8547  137.3779  151.3598 H   0  0  0  0  0  0  0  0  0  0  0  0
  146.1460  134.9671  151.7151 H   0  0  0  0  0  0  0  0  0  0  0  0
  145.0600  134.5174  153.9341 H   0  0  0  0  0  0  0  0  0  0  0  0
  143.4841  134.8010  153.2289 H   0  0  0  0  0  0  0  0  0  0  0  0
  146.4766  132.7791  152.5618 H   0  0  0  0  0  0  0  0  0  0  0  0
  145.6371  131.7587  153.7257 H   0  0  0  0  0  0  0  0  0  0  0  0
  146.2733  131.2069  150.9239 H   0  0  0  0  0  0  0  0  0  0  0  0
  145.5185  130.0957  152.0591 H   0  0  0  0  0  0  0  0  0  0  0  0
  144.1308  131.1241  149.8880 H   0  0  0  0  0  0  0  0  0  0  0  0
  143.3507  130.7155  151.4113 H   0  0  0  0  0  0  0  0  0  0  0  0
  142.7220  132.9904  151.2826 H   0  0  0  0  0  0  0  0  0  0  0  0
  145.4782  133.5061  150.0225 H   0  0  0  0  0  0  0  0  0  0  0  0
  143.9099  133.7082  149.2766 H   0  0  0  0  0  0  0  0  0  0  0  0
  148.7240  137.8439  152.9118 H   0  0  0  0  0  0  0  0  0  0  0  0
  147.2258  140.7635  154.8057 H   0  0  0  0  0  0  0  0  0  0  0  0
  148.6982  142.3145  156.0570 H   0  0  0  0  0  0  0  0  0  0  0  0
  151.1563  141.8375  156.1647 H   0  0  0  0  0  0  0  0  0  0  0  0
  150.7579  138.4253  153.8781 H   0  0  0  0  0  0  0  0  0  0  0  0
  143.6973  132.6006  153.2436 H   0  0  0  0  0  0  0  0  0  0  0  0
  1  2  2  0  0  0  0
  2  3  1  0  0  0  0
  2 14  1  0  0  0  0
  3  4  1  0  0  0  0
  3 21  1  0  0  0  0
  4  5  1  0  0  0  0
  4 22  1  0  0  0  0
  4 23  1  0  0  0  0
  5 13  1  0  0  0  0
  5  6  1  0  0  0  0
  5 24  1  0  0  0  0
  6  7  1  0  0  0  0
  6 25  1  0  0  0  0
  6 26  1  0  0  0  0
  7 11  1  0  0  0  0
  7  8  1  0  0  0  0
  7 41  1  0  0  0  0
  8  9  1  0  0  0  0
  8 27  1  0  0  0  0
  8 28  1  0  0  0  0
  9 10  1  0  0  0  0
  9 29  1  0  0  0  0
  9 30  1  0  0  0  0
 10 11  1  0  0  0  0
 10 31  1  0  0  0  0
 10 32  1  0  0  0  0
 11 12  1  0  0  0  0
 11 33  1  0  0  0  0
 12 13  1  0  0  0  0
 12 34  1  0  0  0  0
 12 35  1  0  0  0  0
 14 15  1  0  0  0  0
 14 36  1  0  0  0  0
 15 20  1  0  0  0  0
 15 16  2  0  0  0  0
 16 17  1  0  0  0  0
 16 37  1  0  0  0  0
 17 18  2  0  0  0  0
 17 38  1  0  0  0  0
 18 19  1  0  0  0  0
 18 39  1  0  0  0  0
 19 20  2  0  0  0  0
 20 40  1  0  0  0  0
M  CHG  1   7   1
M  END
> <s_m_source_file>
AV-unprocessed.smi

> <i_m_source_file_index>
618

> <i_lp_mmshare_version>
43012

> <i_f3d_flags>
0

> <s_epik_input>
W2NIXTFuW2NIXVtjSF1bY0hdYzFbTkhdQyg9TylbTkhdW0NIMl1bQ0BIXShbQ0gyXTIpT1tDSDJdW0NAQEhdKE4yMylbQ0gyXVtDSDJdW0NIMl0z

> <s_epik_cmdline>
J2VwaWtfcHl0aG9uJywgJy1waCcsICc3LjAnLCAnLXRuJywgJzgnLCAnLW1hJywgJzIwMCcsICctbWV0YWxfYmluZGluZycsICctaW1hZScsICc8aW5maWxlLm1hZT4nLCAnLW9tYWUnLCAnPG91dGZpbGUubWFlPic=

> <r_epik_Ionization_Penalty>
0.111044

> <r_epik_Ionization_Penalty_Charging>
0.10673

> <r_epik_Ionization_Penalty_Neutral>
0.00431361

> <r_epik_State_Penalty>
0.0978747

> <r_epik_Charging_Adjusted_Penalty>
0.204605

> <i_epik_Tot_Q>
1

> <i_epik_Tot_abs_Q>
1

> <r_epik_Metal_State_Penalty>
0.0947591

> <b_epik_Metal_Only>
0

> <s_lp_Force_Field>
OPLS_2005

> <r_lp_Energy>
40.8554

> <b_lp_Chiralities_Consistent>
1

> <s_lp_Variant>
AV-unprocessed.smi:618-6

> <Gold.Version>
5.8.1

> <Gold.Id.Protein>
6NUR|6NUR_protein|mol2

> <Gold.PLP.Fitness>
44.4047

> <Gold.PLP.PLP>
-32.3344

> <Gold.PLP.part.hbond>
-4.6616

> <Gold.PLP.part.metal>
0.0000

> <Gold.PLP.part.buried>
-5.3178

> <Gold.PLP.part.nonpolar>
-25.4765

> <Gold.PLP.part.repulsive>
0.7974

> <Gold.PLP.ligand.clash>
0.0000

> <Gold.PLP.ligand.torsion>
0.8656

> <Gold.PLP.Chemscore.Hbond>
4.6000

> <Gold.PLP.Chemscore.CHOScore>
0.0000

> <Gold.PLP.Chemscore.Metal>
0.0000

> <Gold.Chemscore.Hbonds>
donor molecule, donor type, donor heavy atom, donor atom, acceptor molecule, acceptor atom, score
      L1  H     3    21       P1  7948  1.00
      L1  H     7    41       P1 10957  2.00
      L1  H    14    36       P1  7948  1.00
      P1  H  7989  7998       L1    19  0.55

> <Gold.PLP.Chemscore.Internal.Correction>
0.0016

> <Gold.Rescore>
     Score         DG    S(hbond)    S(metal)    S(lipo)     H(rot)  DE(clash)    DE(int)     intcor
     18.93     -20.94       2.76        0.00      81.11       1.27       0.01       2.00       ----

> <Gold.Chemscore.Fitness>
18.9287

> <Gold.Chemscore.DG>
-20.9403

> <Gold.Chemscore.ZeroCoef>
-5.4800

> <Gold.Chemscore.Hbond>
2.7577

> <Gold.Chemscore.Metal>
0.0000

> <Gold.Chemscore.Lipo>
81.1076

> <Gold.Chemscore.Internal_Hbond>
0.0000

> <Gold.Chemscore.DEClash>
0.0077

> <Gold.Chemscore.DEInternal>
2.0039

> <Gold.Chemscore.Rot>
1.2656

> <Gold.Chemscore.Internal.Correction>
   9.000000E+99

> <Gold.Chemscore.Hbonds>
donor molecule, donor type, donor heavy atom, donor atom, acceptor molecule, acceptor atom, score
      L1  H     3    21       P1  7948  1.00
      L1  H     7    41       P1 10957  0.24
      L1  H    14    36       P1  7948  0.97
      P1  H  7989  7998       L1    19  0.01

> <Gold.Chemscore.Hbond.Weighted>
-9.2106

> <Gold.Chemscore.Metal.Weighted>
-0.0000

> <Gold.Chemscore.Lipo.Weighted>
-9.4896

> <Gold.Chemscore.Internal_Hbond.Weighted>
0.0000

> <Gold.Chemscore.DEClash.Weighted>
0.0077

> <Gold.Chemscore.DEInternal.Weighted>
2.0039

> <Gold.Chemscore.Rot.Weighted>
3.2399

> <Gold.Chemscore.Internal.Correction.Weighted>
   9.000000E+99

> <Gold.Protein.RotatedTorsions>
[ 6907 6896 6895 6894 ] final  128.91 input  -60.11 | X-H torsion
[ 7974 7965 7964 7962 ] final -102.18 input  175.53 | X-H torsion
[ 8008 7997 7996 7995 ] final   39.25 input   59.86 | X-H torsion
[ 10167 10162 10161 10158 ] final -155.35 input  -65.29 | X-H torsion
[ 10718 10713 10712 10709 ] final   72.73 input   66.30 | X-H torsion
[ 10763 10752 10751 10750 ] final   63.49 input  -60.55 | X-H torsion
[ 11005 11000 10999 10996 ] final -122.03 input  -57.11 | X-H torsion

> <Gold.Protein.ActiveResidues>
 VAL166  LYS551  ARG553  GLY616  TRP617  ASP618  TYR619  PRO620  LYS621  CYS622 
 ASP623  PHE694  ASN695  SER759  ASP760  ASP761  ALA762  ILE779  LEU786  VAL792 
 PHE793  MET794  SER795  GLU796  ALA797  LYS798  CYS799  TRP800  GLU811  SER814 

> <Gold.Protein.RotatedAtoms>
  152.3674  133.6374  159.6060 H   0  0  0  0  0  0  0  0  0  0  0  0  # atno 6907 bound_to 6896
  150.7644  133.9325  159.3440 H   0  0  0  0  0  0  0  0  0  0  0  0  # atno 6908 bound_to 6896
  151.7154  135.0906  160.0326 H   0  0  0  0  0  0  0  0  0  0  0  0  # atno 6909 bound_to 6896
  145.2720  140.9301  143.2980 H   0  0  0  0  0  0  0  0  0  0  0  0  # atno 7974 bound_to 7965
  155.2335  140.3340  155.4300 H   0  0  0  0  0  0  0  0  0  0  0  0  # atno 8008 bound_to 7997
  156.2285  140.1840  156.7348 H   0  0  0  0  0  0  0  0  0  0  0  0  # atno 8009 bound_to 7997
  154.5938  140.0633  156.9261 H   0  0  0  0  0  0  0  0  0  0  0  0  # atno 8010 bound_to 7997
  139.6938  143.9376  152.2397 H   0  0  0  0  0  0  0  0  0  0  0  0  # atno 10167 bound_to 10162
  157.6514  130.9593  150.0969 H   0  0  0  0  0  0  0  0  0  0  0  0  # atno 10718 bound_to 10713
  153.0020  135.5427  154.6360 H   0  0  0  0  0  0  0  0  0  0  0  0  # atno 10763 bound_to 10752
  154.5626  135.2835  155.0906 H   0  0  0  0  0  0  0  0  0  0  0  0  # atno 10764 bound_to 10752
  154.2103  135.6468  153.5166 H   0  0  0  0  0  0  0  0  0  0  0  0  # atno 10765 bound_to 10752
  141.0026  134.0381  157.3518 H   0  0  0  0  0  0  0  0  0  0  0  0  # atno 11005 bound_to 11000
  144.9326  139.4280  143.6487 LP  0  0  0  0  0  0  0  0  0  0  0  0  # atno 17320 bound_to 7965
  146.3243  139.8245  142.8920 LP  0  0  0  0  0  0  0  0  0  0  0  0  # atno 17321 bound_to 7965
  139.9199  144.6806  150.8472 LP  0  0  0  0  0  0  0  0  0  0  0  0  # atno 17342 bound_to 10162
  140.7690  143.3382  151.2264 LP  0  0  0  0  0  0  0  0  0  0  0  0  # atno 17343 bound_to 10162
  156.1902  130.3654  149.8919 LP  0  0  0  0  0  0  0  0  0  0  0  0  # atno 17370 bound_to 10713
  156.6849  130.8873  151.3581 LP  0  0  0  0  0  0  0  0  0  0  0  0  # atno 17371 bound_to 10713
  139.9046  135.0176  156.7429 LP  0  0  0  0  0  0  0  0  0  0  0  0  # atno 17394 bound_to 11000
  140.6864  133.9428  155.7940 LP  0  0  0  0  0  0  0  0  0  0  0  0  # atno 17395 bound_to 11000

$$$$
