AV-unprocessed.smi:1231|AV-procd|sdf|5165|dock8
  -GOLD-   22720 4233D 1   1.00000     0.00000
 Structure written by MMmdl.
 43 44  0  0  0  0  0  0  0  0  2 V2000
  150.2358  141.9363  156.5919 C   0  0  0  0  0  0  0  0  0  0  0  0
  150.0913  141.0616  155.3418 C   0  0  2  0  0  0  0  0  0  0  0  0
  148.6170  140.8188  154.9685 C   0  0  0  0  0  0  0  0  0  0  0  0
  148.5181  139.9138  153.7990 N   0  3  2  0  0  0  0  0  0  0  0  0
  147.1141  139.7012  153.3678 C   0  0  0  0  0  0  0  0  0  0  0  0
  146.4878  138.4432  154.0009 C   0  0  0  0  0  0  0  0  0  0  0  0
  146.7433  137.2543  153.1964 N   0  0  0  0  0  0  0  0  0  0  0  0
  145.7964  136.4224  152.7386 C   0  0  0  0  0  0  0  0  0  0  0  0
  144.5945  136.5859  152.9516 O   0  0  0  0  0  0  0  0  0  0  0  0
  146.3330  135.4120  152.0322 N   0  0  0  0  0  0  0  0  0  0  0  0
  145.6605  134.3461  151.3771 C   0  0  0  0  0  0  0  0  0  0  0  0
  146.5002  133.4443  150.6851 C   0  0  0  0  0  0  0  0  0  0  0  0
  145.9302  132.3521  150.0028 C   0  0  0  0  0  0  0  0  0  0  0  0
  144.5335  132.1910  150.0284 C   0  0  0  0  0  0  0  0  0  0  0  0
  143.7699  133.1352  150.7391 C   0  0  0  0  0  0  0  0  0  0  0  0
  144.3141  134.1821  151.3946 N   0  0  0  0  0  0  0  0  0  0  0  0
  149.2555  138.6529  154.0605 C   0  0  0  0  0  0  0  0  0  0  0  0
  150.7122  138.9518  154.4637 C   0  0  2  0  0  0  0  0  0  0  0  0
  151.4856  137.6785  154.8233 C   0  0  0  0  0  0  0  0  0  0  0  0
  150.7153  139.8089  155.6001 O   0  0  0  0  0  0  0  0  0  0  0  0
  149.7835  142.9164  156.4393 H   0  0  0  0  0  0  0  0  0  0  0  0
  151.2862  142.0913  156.8395 H   0  0  0  0  0  0  0  0  0  0  0  0
  149.7546  141.4760  157.4554 H   0  0  0  0  0  0  0  0  0  0  0  0
  150.6043  141.5546  154.5140 H   0  0  0  0  0  0  0  0  0  0  0  0
  148.0797  140.3819  155.8124 H   0  0  0  0  0  0  0  0  0  0  0  0
  148.1354  141.7703  154.7391 H   0  0  0  0  0  0  0  0  0  0  0  0
  146.5261  140.5922  153.5932 H   0  0  0  0  0  0  0  0  0  0  0  0
  147.0874  139.5823  152.2835 H   0  0  0  0  0  0  0  0  0  0  0  0
  146.9084  138.2780  154.9931 H   0  0  0  0  0  0  0  0  0  0  0  0
  145.4115  138.5549  154.1342 H   0  0  0  0  0  0  0  0  0  0  0  0
  147.7075  137.0462  152.9801 H   0  0  0  0  0  0  0  0  0  0  0  0
  147.3390  135.4032  151.9522 H   0  0  0  0  0  0  0  0  0  0  0  0
  147.5716  133.5826  150.6754 H   0  0  0  0  0  0  0  0  0  0  0  0
  146.5547  131.6505  149.4696 H   0  0  0  0  0  0  0  0  0  0  0  0
  144.0598  131.3659  149.5173 H   0  0  0  0  0  0  0  0  0  0  0  0
  142.6943  133.0483  150.7830 H   0  0  0  0  0  0  0  0  0  0  0  0
  148.7530  138.0951  154.8526 H   0  0  0  0  0  0  0  0  0  0  0  0
  149.2517  138.0197  153.1742 H   0  0  0  0  0  0  0  0  0  0  0  0
  151.2272  139.4477  153.6389 H   0  0  0  0  0  0  0  0  0  0  0  0
  151.5247  136.9906  153.9784 H   0  0  0  0  0  0  0  0  0  0  0  0
  151.0195  137.1555  155.6589 H   0  0  0  0  0  0  0  0  0  0  0  0
  152.5117  137.9132  155.1081 H   0  0  0  0  0  0  0  0  0  0  0  0
  148.9886  140.3819  153.0376 H   0  0  0  0  0  0  0  0  0  0  0  0
  1  2  1  0  0  0  0
  1 21  1  0  0  0  0
  1 22  1  0  0  0  0
  1 23  1  0  0  0  0
  2 20  1  0  0  0  0
  2  3  1  0  0  0  0
  2 24  1  0  0  0  0
  3  4  1  0  0  0  0
  3 25  1  0  0  0  0
  3 26  1  0  0  0  0
  4  5  1  0  0  0  0
  4 17  1  0  0  0  0
  4 43  1  0  0  0  0
  5  6  1  0  0  0  0
  5 27  1  0  0  0  0
  5 28  1  0  0  0  0
  6  7  1  0  0  0  0
  6 29  1  0  0  0  0
  6 30  1  0  0  0  0
  7  8  1  0  0  0  0
  7 31  1  0  0  0  0
  8  9  2  0  0  0  0
  8 10  1  0  0  0  0
 10 11  1  0  0  0  0
 10 32  1  0  0  0  0
 11 16  1  0  0  0  0
 11 12  2  0  0  0  0
 12 13  1  0  0  0  0
 12 33  1  0  0  0  0
 13 14  2  0  0  0  0
 13 34  1  0  0  0  0
 14 15  1  0  0  0  0
 14 35  1  0  0  0  0
 15 16  2  0  0  0  0
 15 36  1  0  0  0  0
 17 18  1  0  0  0  0
 17 37  1  0  0  0  0
 17 38  1  0  0  0  0
 18 19  1  0  0  0  0
 18 20  1  0  0  0  0
 18 39  1  0  0  0  0
 19 40  1  0  0  0  0
 19 41  1  0  0  0  0
 19 42  1  0  0  0  0
M  CHG  1   4   1
M  END
> <s_m_source_file>
AV-unprocessed.smi

> <i_m_source_file_index>
1231

> <i_lp_mmshare_version>
43012

> <i_f3d_flags>
0

> <s_epik_input>
W0NIM11bQ0BASF0xW0NIMl1OKFtDSDJdW0NASF0oTzEpW0NIM10pW0NIMl1bQ0gyXVtOSF1DKD1PKVtOSF1jMltjSF1bY0hdW2NIXVtjSF1uMg==

> <s_epik_cmdline>
J2VwaWtfcHl0aG9uJywgJy1waCcsICc3LjAnLCAnLXRuJywgJzgnLCAnLW1hJywgJzIwMCcsICctbWV0YWxfYmluZGluZycsICctaW1hZScsICc8aW5maWxlLm1hZT4nLCAnLW9tYWUnLCAnPG91dGZpbGUubWFlPic=

> <r_epik_Ionization_Penalty>
0.602565

> <r_epik_Ionization_Penalty_Charging>
0.602531

> <r_epik_Ionization_Penalty_Neutral>
3.43186e-05

> <r_epik_State_Penalty>
0.617039

> <r_epik_Charging_Adjusted_Penalty>
1.21957

> <i_epik_Tot_Q>
1

> <i_epik_Tot_abs_Q>
1

> <r_epik_Metal_State_Penalty>
0.617041

> <b_epik_Metal_Only>
0

> <s_lp_Force_Field>
OPLS_2005

> <r_lp_Energy>
15.064

> <b_lp_Chiralities_Consistent>
1

> <s_lp_Variant>
AV-unprocessed.smi:1231-6

> <Gold.Version>
5.8.1

> <Gold.Id.Protein>
6NUR|6NUR_protein|mol2

> <Gold.PLP.Fitness>
46.5490

> <Gold.PLP.PLP>
-36.3417

> <Gold.PLP.part.hbond>
-3.0000

> <Gold.PLP.part.metal>
0.0000

> <Gold.PLP.part.buried>
-3.9616

> <Gold.PLP.part.nonpolar>
-29.8325

> <Gold.PLP.part.repulsive>
0.4668

> <Gold.PLP.ligand.clash>
0.0000

> <Gold.PLP.ligand.torsion>
0.5733

> <Gold.PLP.Chemscore.Hbond>
2.7920

> <Gold.PLP.Chemscore.CHOScore>
0.9841

> <Gold.PLP.Chemscore.Metal>
0.0000

> <Gold.Chemscore.Hbonds>
donor molecule, donor type, donor heavy atom, donor atom, acceptor molecule, acceptor atom, score
      L1  H     4    43       P1  7957  0.82
      L1  H     7    31       P1  7948  0.98
      L1  H    10    32       P1  7948  1.00
      L1  C    15    36       P1 10186  0.96

> <Gold.PLP.Chemscore.Internal.Correction>
0.0257

> <Gold.Rescore>
     Score         DG    S(hbond)    S(metal)    S(lipo)     H(rot)  DE(clash)    DE(int)     intcor
     18.64     -21.63       2.82        0.00      91.52       1.55       0.07       2.92       ----

> <Gold.Chemscore.Fitness>
18.6387

> <Gold.Chemscore.DG>
-21.6310

> <Gold.Chemscore.ZeroCoef>
-5.4800

> <Gold.Chemscore.Hbond>
2.8210

> <Gold.Chemscore.Metal>
0.0000

> <Gold.Chemscore.Lipo>
91.5250

> <Gold.Chemscore.Internal_Hbond>
0.0000

> <Gold.Chemscore.DEClash>
0.0707

> <Gold.Chemscore.DEInternal>
2.9216

> <Gold.Chemscore.Rot>
1.5546

> <Gold.Chemscore.Internal.Correction>
   9.000000E+99

> <Gold.Chemscore.Hbonds>
donor molecule, donor type, donor heavy atom, donor atom, acceptor molecule, acceptor atom, score
      L1  H     4    43       P1  7957  0.78
      L1  H     7    31       P1  7948  0.93
      L1  H    10    32       P1  7948  0.97

> <Gold.Chemscore.Hbond.Weighted>
-9.4222

> <Gold.Chemscore.Metal.Weighted>
-0.0000

> <Gold.Chemscore.Lipo.Weighted>
-10.7084

> <Gold.Chemscore.Internal_Hbond.Weighted>
0.0000

> <Gold.Chemscore.DEClash.Weighted>
0.0707

> <Gold.Chemscore.DEInternal.Weighted>
2.9216

> <Gold.Chemscore.Rot.Weighted>
3.9797

> <Gold.Chemscore.Internal.Correction.Weighted>
   9.000000E+99

> <Gold.Protein.RotatedTorsions>
[ 6907 6896 6895 6894 ] final   48.93 input  -60.11 | X-H torsion
[ 7974 7965 7964 7962 ] final  -38.18 input  175.53 | X-H torsion
[ 8008 7997 7996 7995 ] final    9.60 input   59.86 | X-H torsion
[ 10167 10162 10161 10158 ] final   52.22 input  -65.29 | X-H torsion
[ 10718 10713 10712 10709 ] final -137.84 input   66.30 | X-H torsion
[ 10763 10752 10751 10750 ] final  -99.73 input  -60.55 | X-H torsion
[ 11005 11000 10999 10996 ] final  -59.42 input  -57.11 | X-H torsion

> <Gold.Protein.ActiveResidues>
 VAL166  LYS551  ARG553  GLY616  TRP617  ASP618  TYR619  PRO620  LYS621  CYS622 
 ASP623  PHE694  ASN695  SER759  ASP760  ASP761  ALA762  ILE779  LEU786  VAL792 
 PHE793  MET794  SER795  GLU796  ALA797  LYS798  CYS799  TRP800  GLU811  SER814 

> <Gold.Protein.RotatedAtoms>
  152.2851  134.7785  160.0388 H   0  0  0  0  0  0  0  0  0  0  0  0  # atno 6907 bound_to 6896
  151.8350  133.3409  159.3633 H   0  0  0  0  0  0  0  0  0  0  0  0  # atno 6908 bound_to 6896
  150.7206  134.5374  159.5775 H   0  0  0  0  0  0  0  0  0  0  0  0  # atno 6909 bound_to 6896
  146.0510  140.6482  142.9042 H   0  0  0  0  0  0  0  0  0  0  0  0  # atno 7974 bound_to 7965
  154.7821  140.2821  155.6055 H   0  0  0  0  0  0  0  0  0  0  0  0  # atno 8008 bound_to 7997
  156.2951  140.2621  156.2577 H   0  0  0  0  0  0  0  0  0  0  0  0  # atno 8009 bound_to 7997
  154.9771  140.0375  157.2250 H   0  0  0  0  0  0  0  0  0  0  0  0  # atno 8010 bound_to 7997
  140.2536  144.3451  150.6340 H   0  0  0  0  0  0  0  0  0  0  0  0  # atno 10167 bound_to 10162
  156.2927  130.7384  151.1414 H   0  0  0  0  0  0  0  0  0  0  0  0  # atno 10718 bound_to 10713
  154.7522  135.4961  153.9310 H   0  0  0  0  0  0  0  0  0  0  0  0  # atno 10763 bound_to 10752
  153.1156  135.6719  153.9432 H   0  0  0  0  0  0  0  0  0  0  0  0  # atno 10764 bound_to 10752
  153.9179  135.3091  155.3427 H   0  0  0  0  0  0  0  0  0  0  0  0  # atno 10765 bound_to 10752
  141.1247  133.6616  156.5069 H   0  0  0  0  0  0  0  0  0  0  0  0  # atno 11005 bound_to 11000
  144.7122  140.4082  143.7071 LP  0  0  0  0  0  0  0  0  0  0  0  0  # atno 17320 bound_to 7965
  145.6725  139.1602  143.2746 LP  0  0  0  0  0  0  0  0  0  0  0  0  # atno 17321 bound_to 7965
  140.6021  143.2167  151.7052 LP  0  0  0  0  0  0  0  0  0  0  0  0  # atno 17342 bound_to 10162
  139.5038  144.3777  152.0407 LP  0  0  0  0  0  0  0  0  0  0  0  0  # atno 17343 bound_to 10162
  157.7347  131.0579  150.5512 LP  0  0  0  0  0  0  0  0  0  0  0  0  # atno 17370 bound_to 10713
  156.5630  130.4260  149.6054 LP  0  0  0  0  0  0  0  0  0  0  0  0  # atno 17371 bound_to 10713
  140.4400  134.7024  157.4987 LP  0  0  0  0  0  0  0  0  0  0  0  0  # atno 17394 bound_to 11000
  140.0235  134.6511  155.9205 LP  0  0  0  0  0  0  0  0  0  0  0  0  # atno 17395 bound_to 11000

$$$$
