AV-unprocessed.smi:1112|AV-procd|sdf|4796|dock7
  -GOLD-   22720 3343D 1   1.00000     0.00000
 Structure written by MMmdl.
 49 51  0  0  0  0  0  0  0  0  1 V2000
  144.9542  138.0202  153.0228 O   0  0  0  0  0  0  0  0  0  0  0  0
  145.9649  137.4156  152.6657 C   0  0  0  0  0  0  0  0  0  0  0  0
  145.9425  136.2126  152.0739 N   0  0  0  0  0  0  0  0  0  0  0  0
  144.7447  135.4501  151.7237 C   0  0  0  0  0  0  0  0  0  0  0  0
  144.8028  133.9775  152.2122 C   0  0  0  0  0  0  0  0  0  0  0  0
  144.5356  134.0071  153.6018 O   0  0  0  0  0  0  0  0  0  0  0  0
  143.6771  133.1255  151.5771 C   0  0  0  0  0  0  0  0  0  0  0  0
  143.9448  132.7904  150.0971 C   0  0  0  0  0  0  0  0  0  0  0  0
  145.3172  132.1254  149.9079 C   0  0  0  0  0  0  0  0  0  0  0  0
  146.4406  132.9788  150.5155 C   0  0  0  0  0  0  0  0  0  0  0  0
  146.1674  133.2752  151.9998 C   0  0  0  0  0  0  0  0  0  0  0  0
  147.2256  137.8532  152.8220 N   0  0  0  0  0  0  0  0  0  0  0  0
  147.6793  139.0808  153.3861 C   0  0  0  0  0  0  0  0  0  0  0  0
  147.0100  140.3142  153.1913 C   0  0  0  0  0  0  0  0  0  0  0  0
  147.5415  141.4826  153.7675 C   0  0  0  0  0  0  0  0  0  0  0  0
  148.7301  141.3803  154.5115 C   0  0  0  0  0  0  0  0  0  0  0  0
  149.3882  140.2178  154.6942 N   0  0  0  0  0  0  0  0  0  0  0  0
  148.8799  139.0884  154.1424 C   0  0  0  0  0  0  0  0  0  0  0  0
  149.5875  137.8897  154.3448 N   0  0  0  0  0  0  0  0  0  0  0  0
  148.8949  136.8759  155.1225 C   0  0  0  0  0  0  0  0  0  0  0  0
  149.9713  135.8628  155.5194 C   0  0  0  0  0  0  0  0  0  0  0  0
  151.2934  136.6338  155.4208 C   0  0  0  0  0  0  0  0  0  0  0  0
  150.8985  138.0376  154.9543 C   0  0  0  0  0  0  0  0  0  0  0  0
  146.8260  135.7941  151.8225 H   0  0  0  0  0  0  0  0  0  0  0  0
  143.8809  135.9562  152.1566 H   0  0  0  0  0  0  0  0  0  0  0  0
  144.5869  135.4834  150.6460 H   0  0  0  0  0  0  0  0  0  0  0  0
  143.9879  133.2678  153.8176 H   0  0  0  0  0  0  0  0  0  0  0  0
  143.5773  132.1870  152.1250 H   0  0  0  0  0  0  0  0  0  0  0  0
  142.7161  133.6327  151.6727 H   0  0  0  0  0  0  0  0  0  0  0  0
  143.1628  132.1296  149.7228 H   0  0  0  0  0  0  0  0  0  0  0  0
  143.8900  133.6938  149.4902 H   0  0  0  0  0  0  0  0  0  0  0  0
  145.3137  131.1412  150.3779 H   0  0  0  0  0  0  0  0  0  0  0  0
  145.5073  131.9600  148.8471 H   0  0  0  0  0  0  0  0  0  0  0  0
  147.3949  132.4622  150.4113 H   0  0  0  0  0  0  0  0  0  0  0  0
  146.5350  133.9111  149.9589 H   0  0  0  0  0  0  0  0  0  0  0  0
  146.9860  133.8577  152.4228 H   0  0  0  0  0  0  0  0  0  0  0  0
  146.1740  132.3290  152.5435 H   0  0  0  0  0  0  0  0  0  0  0  0
  147.9553  137.2044  152.5649 H   0  0  0  0  0  0  0  0  0  0  0  0
  146.1106  140.3913  152.6005 H   0  0  0  0  0  0  0  0  0  0  0  0
  147.0522  142.4364  153.6368 H   0  0  0  0  0  0  0  0  0  0  0  0
  149.1689  142.2565  154.9658 H   0  0  0  0  0  0  0  0  0  0  0  0
  148.4473  137.3143  156.0155 H   0  0  0  0  0  0  0  0  0  0  0  0
  148.0993  136.4098  154.5405 H   0  0  0  0  0  0  0  0  0  0  0  0
  149.7969  135.4621  156.5184 H   0  0  0  0  0  0  0  0  0  0  0  0
  149.9777  135.0249  154.8213 H   0  0  0  0  0  0  0  0  0  0  0  0
  151.8267  136.6642  156.3713 H   0  0  0  0  0  0  0  0  0  0  0  0
  151.9469  136.1592  154.6880 H   0  0  0  0  0  0  0  0  0  0  0  0
  151.6188  138.4415  154.2422 H   0  0  0  0  0  0  0  0  0  0  0  0
  150.8505  138.7167  155.8069 H   0  0  0  0  0  0  0  0  0  0  0  0
  1  2  2  0  0  0  0
  2  3  1  0  0  0  0
  2 12  1  0  0  0  0
  3  4  1  0  0  0  0
  3 24  1  0  0  0  0
  4  5  1  0  0  0  0
  4 25  1  0  0  0  0
  4 26  1  0  0  0  0
  5 11  1  0  0  0  0
  5  6  1  0  0  0  0
  5  7  1  0  0  0  0
  6 27  1  0  0  0  0
  7  8  1  0  0  0  0
  7 28  1  0  0  0  0
  7 29  1  0  0  0  0
  8  9  1  0  0  0  0
  8 30  1  0  0  0  0
  8 31  1  0  0  0  0
  9 10  1  0  0  0  0
  9 32  1  0  0  0  0
  9 33  1  0  0  0  0
 10 11  1  0  0  0  0
 10 34  1  0  0  0  0
 10 35  1  0  0  0  0
 11 36  1  0  0  0  0
 11 37  1  0  0  0  0
 12 13  1  0  0  0  0
 12 38  1  0  0  0  0
 13 18  1  0  0  0  0
 13 14  2  0  0  0  0
 14 15  1  0  0  0  0
 14 39  1  0  0  0  0
 15 16  2  0  0  0  0
 15 40  1  0  0  0  0
 16 17  1  0  0  0  0
 16 41  1  0  0  0  0
 17 18  2  0  0  0  0
 18 19  1  0  0  0  0
 19 23  1  0  0  0  0
 19 20  1  0  0  0  0
 20 21  1  0  0  0  0
 20 42  1  0  0  0  0
 20 43  1  0  0  0  0
 21 22  1  0  0  0  0
 21 44  1  0  0  0  0
 21 45  1  0  0  0  0
 22 23  1  0  0  0  0
 22 46  1  0  0  0  0
 22 47  1  0  0  0  0
 23 48  1  0  0  0  0
 23 49  1  0  0  0  0
M  END
> <s_m_source_file>
AV-unprocessed.smi

> <i_m_source_file_index>
1112

> <i_lp_mmshare_version>
43012

> <i_f3d_flags>
0

> <s_epik_input>
W0NIMl0xW0NIMl1bQ0gyXVtDSDJdW0NIMl1DMShbT0hdKVtDSDJdW05IXUMoPU8pW05IXWMyW2NIXVtjSF1bY0hdbmMyTjNbQ0gyXVtDSDJdW0NIMl1bQ0gyXTM=

> <s_epik_cmdline>
J2VwaWtfcHl0aG9uJywgJy1waCcsICc3LjAnLCAnLXRuJywgJzgnLCAnLW1hJywgJzIwMCcsICctbWV0YWxfYmluZGluZycsICctaW1hZScsICc8aW5maWxlLm1hZT4nLCAnLW9tYWUnLCAnPG91dGZpbGUubWFlPic=

> <r_lp_tautomer_probability>
1

> <r_epik_Ionization_Penalty>
0.100401

> <r_epik_Ionization_Penalty_Charging>
0

> <r_epik_Ionization_Penalty_Neutral>
0.100401

> <r_epik_State_Penalty>
0.0898606

> <r_epik_Charging_Adjusted_Penalty>
0.0898606

> <i_epik_Tot_Q>
0

> <i_epik_Tot_abs_Q>
0

> <r_epik_Metal_State_Penalty>
0.0767935

> <b_epik_Metal_Only>
0

> <s_lp_Force_Field>
OPLS_2005

> <r_lp_Energy>
45.6108

> <b_lp_Chiralities_Consistent>
1

> <s_lp_Variant>
AV-unprocessed.smi:1112-1

> <Gold.Version>
5.8.1

> <Gold.Id.Protein>
6NUR|6NUR_protein|mol2

> <Gold.PLP.Fitness>
46.3181

> <Gold.PLP.PLP>
-37.8803

> <Gold.PLP.part.hbond>
-2.3693

> <Gold.PLP.part.metal>
0.0000

> <Gold.PLP.part.buried>
-5.1969

> <Gold.PLP.part.nonpolar>
-33.2747

> <Gold.PLP.part.repulsive>
2.6290

> <Gold.PLP.ligand.clash>
0.0000

> <Gold.PLP.ligand.torsion>
0.5940

> <Gold.PLP.Chemscore.Hbond>
2.1981

> <Gold.PLP.Chemscore.CHOScore>
1.0000

> <Gold.PLP.Chemscore.Metal>
0.0000

> <Gold.Chemscore.Hbonds>
donor molecule, donor type, donor heavy atom, donor atom, acceptor molecule, acceptor atom, score
      L1  H     3    24       P1  7948  0.61
      L1  H     6    27       P1 10957  0.52
      L1  H    12    38       P1  7948  1.00
      L1  C    16    41       P1  8028  0.91

> <Gold.PLP.Chemscore.Internal.Correction>
0.0316

> <Gold.Rescore>
     Score         DG    S(hbond)    S(metal)    S(lipo)     H(rot)  DE(clash)    DE(int)     intcor
     18.09     -19.39       2.44        0.00      90.55       1.89       0.10       1.20       ----

> <Gold.Chemscore.Fitness>
18.0893

> <Gold.Chemscore.DG>
-19.3889

> <Gold.Chemscore.ZeroCoef>
-5.4800

> <Gold.Chemscore.Hbond>
2.4385

> <Gold.Chemscore.Metal>
0.0000

> <Gold.Chemscore.Lipo>
90.5471

> <Gold.Chemscore.Internal_Hbond>
0.0000

> <Gold.Chemscore.DEClash>
0.1039

> <Gold.Chemscore.DEInternal>
1.1957

> <Gold.Chemscore.Rot>
1.8866

> <Gold.Chemscore.Internal.Correction>
   9.000000E+99

> <Gold.Chemscore.Hbonds>
donor molecule, donor type, donor heavy atom, donor atom, acceptor molecule, acceptor atom, score
      L1  H     3    24       P1  7948  0.59
      L1  H     6    27       P1 10957  0.51
      L1  H    12    38       P1  7948  0.95

> <Gold.Chemscore.Hbond.Weighted>
-8.1446

> <Gold.Chemscore.Metal.Weighted>
-0.0000

> <Gold.Chemscore.Lipo.Weighted>
-10.5940

> <Gold.Chemscore.Internal_Hbond.Weighted>
0.0000

> <Gold.Chemscore.DEClash.Weighted>
0.1039

> <Gold.Chemscore.DEInternal.Weighted>
1.1957

> <Gold.Chemscore.Rot.Weighted>
4.8297

> <Gold.Chemscore.Internal.Correction.Weighted>
   9.000000E+99

> <Gold.Protein.RotatedTorsions>
[ 6907 6896 6895 6894 ] final  118.50 input  -60.11 | X-H torsion
[ 7974 7965 7964 7962 ] final  -77.62 input  175.53 | X-H torsion
[ 8008 7997 7996 7995 ] final  178.92 input   59.86 | X-H torsion
[ 10167 10162 10161 10158 ] final  100.52 input  -65.29 | X-H torsion
[ 10718 10713 10712 10709 ] final  -93.74 input   66.30 | X-H torsion
[ 10763 10752 10751 10750 ] final  -82.73 input  -60.55 | X-H torsion
[ 11005 11000 10999 10996 ] final -143.21 input  -57.11 | X-H torsion

> <Gold.Protein.ActiveResidues>
 VAL166  LYS551  ARG553  GLY616  TRP617  ASP618  TYR619  PRO620  LYS621  CYS622 
 ASP623  PHE694  ASN695  SER759  ASP760  ASP761  ALA762  ILE779  LEU786  VAL792 
 PHE793  MET794  SER795  GLU796  ALA797  LYS798  CYS799  TRP800  GLU811  SER814 

> <Gold.Protein.RotatedAtoms>
  152.4538  133.7682  159.6784 H   0  0  0  0  0  0  0  0  0  0  0  0  # atno 6907 bound_to 6896
  150.8458  133.7853  159.3050 H   0  0  0  0  0  0  0  0  0  0  0  0  # atno 6908 bound_to 6896
  151.5464  135.1071  159.9991 H   0  0  0  0  0  0  0  0  0  0  0  0  # atno 6909 bound_to 6896
  145.5973  140.9416  143.1260 H   0  0  0  0  0  0  0  0  0  0  0  0  # atno 7974 bound_to 7965
  156.0493  140.1321  157.0069 H   0  0  0  0  0  0  0  0  0  0  0  0  # atno 8008 bound_to 7997
  154.4427  140.1014  156.6422 H   0  0  0  0  0  0  0  0  0  0  0  0  # atno 8009 bound_to 7997
  155.5548  140.3463  155.4479 H   0  0  0  0  0  0  0  0  0  0  0  0  # atno 8010 bound_to 7997
  139.7520  144.6981  151.0418 H   0  0  0  0  0  0  0  0  0  0  0  0  # atno 10167 bound_to 10162
  156.0017  130.5039  150.5822 H   0  0  0  0  0  0  0  0  0  0  0  0  # atno 10718 bound_to 10713
  154.5793  135.5581  153.7170 H   0  0  0  0  0  0  0  0  0  0  0  0  # atno 10763 bound_to 10752
  153.0076  135.6316  154.2005 H   0  0  0  0  0  0  0  0  0  0  0  0  # atno 10764 bound_to 10752
  154.1946  135.2881  155.2991 H   0  0  0  0  0  0  0  0  0  0  0  0  # atno 10765 bound_to 10752
  140.8148  134.2702  157.4926 H   0  0  0  0  0  0  0  0  0  0  0  0  # atno 11005 bound_to 11000
  144.7325  139.7682  143.7342 LP  0  0  0  0  0  0  0  0  0  0  0  0  # atno 17320 bound_to 7965
  146.1603  139.4714  142.9993 LP  0  0  0  0  0  0  0  0  0  0  0  0  # atno 17321 bound_to 7965
  140.7799  143.4798  151.0033 LP  0  0  0  0  0  0  0  0  0  0  0  0  # atno 17342 bound_to 10162
  139.8485  143.7469  152.3178 LP  0  0  0  0  0  0  0  0  0  0  0  0  # atno 17343 bound_to 10162
  157.3701  131.0764  151.1565 LP  0  0  0  0  0  0  0  0  0  0  0  0  # atno 17370 bound_to 10713
  157.2321  130.6530  149.5854 LP  0  0  0  0  0  0  0  0  0  0  0  0  # atno 17371 bound_to 10713
  139.8712  134.9503  156.4051 LP  0  0  0  0  0  0  0  0  0  0  0  0  # atno 17394 bound_to 11000
  140.9161  133.7678  155.9849 LP  0  0  0  0  0  0  0  0  0  0  0  0  # atno 17395 bound_to 11000

$$$$
