AV-unprocessed.smi:178|AV-procd|sdf|1445|dock8
  -GOLD-   2262019233D 1   1.00000     0.00000
 Structure written by MMmdl.
 50 52  0  0  0  0  0  0  0  0  1 V2000
  151.8428  124.8842  155.9376 C   0  0  0  0  0  0  0  0  0  0  0  0
  151.2154  126.0455  156.4593 O   0  0  0  0  0  0  0  0  0  0  0  0
  151.1513  127.1252  155.5391 C   0  0  0  0  0  0  0  0  0  0  0  0
  150.1491  128.2011  156.0026 C   0  0  0  0  0  0  0  0  0  0  0  0
  150.1837  129.4034  155.1646 N   0  0  0  0  0  0  0  0  0  0  0  0
  151.4660  130.0906  155.0121 C   0  0  0  0  0  0  0  0  0  0  0  0
  152.1052  130.4811  156.3551 C   0  0  0  0  0  0  0  0  0  0  0  0
  151.5665  131.7128  156.9536 C   0  0  0  0  0  0  0  0  0  0  0  0
  151.1414  132.6820  157.4213 N   0  0  0  0  0  0  0  0  0  0  0  0
  149.0274  129.8837  154.6123 C   0  0  0  0  0  0  0  0  0  0  0  0
  148.0008  129.0080  154.4335 N   0  0  0  0  0  0  0  0  0  0  0  0
  146.8365  129.4013  153.9143 C   0  0  0  0  0  0  0  0  0  0  0  0
  146.4786  130.6159  153.5035 N   0  0  0  0  0  0  0  0  0  0  0  0
  147.4946  131.5098  153.6654 C   0  0  0  0  0  0  0  0  0  0  0  0
  148.7869  131.2359  154.2062 C   0  0  0  0  0  0  0  0  0  0  0  0
  149.5257  132.4148  154.2215 N   0  0  0  0  0  0  0  0  0  0  0  0
  148.7281  133.3178  153.7251 C   0  0  0  0  0  0  0  0  0  0  0  0
  147.4883  132.8589  153.3482 N   0  0  0  0  0  0  0  0  0  0  0  0
  146.3936  133.6309  152.7714 C   0  0  0  0  0  0  0  0  0  0  0  0
  145.8673  133.0842  151.4164 C   0  0  1  0  0  0  0  0  0  0  0  0
  146.9833  132.7061  150.6273 O   0  0  0  0  0  0  0  0  0  0  0  0
  144.9566  131.8778  151.5678 C   0  0  0  0  0  0  0  0  0  0  0  0
  144.1960  131.8446  150.2437 C   0  0  0  0  0  0  0  0  0  0  0  0
  144.2547  133.1663  149.7110 O   0  0  0  0  0  0  0  0  0  0  0  0
  144.9999  134.0341  150.5641 C   0  0  1  0  0  0  0  0  0  0  0  0
  143.9435  134.8502  151.3328 C   0  0  0  0  0  0  0  0  0  0  0  0
  151.8154  124.0910  156.6844 H   0  0  0  0  0  0  0  0  0  0  0  0
  152.8874  125.0644  155.6850 H   0  0  0  0  0  0  0  0  0  0  0  0
  151.3257  124.5223  155.0482 H   0  0  0  0  0  0  0  0  0  0  0  0
  152.1448  127.5426  155.3701 H   0  0  0  0  0  0  0  0  0  0  0  0
  150.8277  126.7162  154.5825 H   0  0  0  0  0  0  0  0  0  0  0  0
  149.1443  127.7789  155.9731 H   0  0  0  0  0  0  0  0  0  0  0  0
  150.3150  128.4737  157.0444 H   0  0  0  0  0  0  0  0  0  0  0  0
  152.1440  129.4084  154.4985 H   0  0  0  0  0  0  0  0  0  0  0  0
  151.3987  130.9464  154.3458 H   0  0  0  0  0  0  0  0  0  0  0  0
  151.9826  129.6790  157.0825 H   0  0  0  0  0  0  0  0  0  0  0  0
  153.1782  130.6218  156.2251 H   0  0  0  0  0  0  0  0  0  0  0  0
  146.0840  128.6329  153.8156 H   0  0  0  0  0  0  0  0  0  0  0  0
  149.0332  134.3480  153.6352 H   0  0  0  0  0  0  0  0  0  0  0  0
  145.5791  133.6362  153.4972 H   0  0  0  0  0  0  0  0  0  0  0  0
  146.7084  134.6707  152.6816 H   0  0  0  0  0  0  0  0  0  0  0  0
  147.2146  131.8158  150.8443 H   0  0  0  0  0  0  0  0  0  0  0  0
  145.4923  130.9504  151.7744 H   0  0  0  0  0  0  0  0  0  0  0  0
  144.2548  132.0397  152.3869 H   0  0  0  0  0  0  0  0  0  0  0  0
  144.6763  131.1651  149.5390 H   0  0  0  0  0  0  0  0  0  0  0  0
  143.1637  131.5191  150.3751 H   0  0  0  0  0  0  0  0  0  0  0  0
  145.6119  134.7147  149.9703 H   0  0  0  0  0  0  0  0  0  0  0  0
  144.3919  135.5757  152.0059 H   0  0  0  0  0  0  0  0  0  0  0  0
  143.2894  134.2104  151.9248 H   0  0  0  0  0  0  0  0  0  0  0  0
  143.3131  135.4067  150.6392 H   0  0  0  0  0  0  0  0  0  0  0  0
  1  2  1  0  0  0  0
  1 27  1  0  0  0  0
  1 28  1  0  0  0  0
  1 29  1  0  0  0  0
  2  3  1  0  0  0  0
  3  4  1  0  0  0  0
  3 30  1  0  0  0  0
  3 31  1  0  0  0  0
  4  5  1  0  0  0  0
  4 32  1  0  0  0  0
  4 33  1  0  0  0  0
  5  6  1  0  0  0  0
  5 10  1  0  0  0  0
  6  7  1  0  0  0  0
  6 34  1  0  0  0  0
  6 35  1  0  0  0  0
  7  8  1  0  0  0  0
  7 36  1  0  0  0  0
  7 37  1  0  0  0  0
  8  9  3  0  0  0  0
 10 15  1  0  0  0  0
 10 11  2  0  0  0  0
 11 12  1  0  0  0  0
 12 13  2  0  0  0  0
 12 38  1  0  0  0  0
 13 14  1  0  0  0  0
 14 18  1  0  0  0  0
 14 15  2  0  0  0  0
 15 16  1  0  0  0  0
 16 17  2  0  0  0  0
 17 18  1  0  0  0  0
 17 39  1  0  0  0  0
 18 19  1  0  0  0  0
 19 20  1  0  0  0  0
 19 40  1  0  0  0  0
 19 41  1  0  0  0  0
 20 25  1  0  0  0  0
 20 21  1  0  0  0  0
 20 22  1  0  0  0  0
 21 42  1  0  0  0  0
 22 23  1  0  0  0  0
 22 43  1  0  0  0  0
 22 44  1  0  0  0  0
 23 24  1  0  0  0  0
 23 45  1  0  0  0  0
 23 46  1  0  0  0  0
 24 25  1  0  0  0  0
 25 26  1  0  0  0  0
 25 47  1  0  0  0  0
 26 48  1  0  0  0  0
 26 49  1  0  0  0  0
 26 50  1  0  0  0  0
M  END
> <s_m_source_file>
AV-unprocessed.smi

> <i_m_source_file_index>
178

> <i_lp_mmshare_version>
43012

> <i_f3d_flags>
0

> <s_epik_input>
W0NIM11PW0NIMl1bQ0gyXU4oW0NIMl1bQ0gyXUMjTiljKG5bY0hdbjEpYyhjMTIpbltjSF1uMltDSDJdW0NAQF0zKFtPSF0pW0NIMl1bQ0gyXU9bQ0BIXTNbQ0gzXQ==

> <s_epik_cmdline>
J2VwaWtfcHl0aG9uJywgJy1waCcsICc3LjAnLCAnLXRuJywgJzgnLCAnLW1hJywgJzIwMCcsICctbWV0YWxfYmluZGluZycsICctaW1hZScsICc8aW5maWxlLm1hZT4nLCAnLW9tYWUnLCAnPG91dGZpbGUubWFlPic=

> <r_lp_tautomer_probability>
1

> <r_epik_Ionization_Penalty>
0.000885317

> <r_epik_Ionization_Penalty_Charging>
0

> <r_epik_Ionization_Penalty_Neutral>
0.000885317

> <r_epik_State_Penalty>
0.00047273

> <r_epik_Charging_Adjusted_Penalty>
0.00047273

> <i_epik_Tot_Q>
0

> <i_epik_Tot_abs_Q>
0

> <r_epik_Metal_State_Penalty>
-0

> <b_epik_Metal_Only>
0

> <s_lp_Force_Field>
OPLS_2005

> <r_lp_Energy>
33.9655

> <b_lp_Chiralities_Consistent>
1

> <s_lp_Variant>
AV-unprocessed.smi:178-1

> <Gold.Version>
5.8.1

> <Gold.Id.Protein>
6NUR|6NUR_protein|mol2

> <Gold.PLP.Fitness>
43.2406

> <Gold.PLP.PLP>
-35.6705

> <Gold.PLP.part.hbond>
-2.1452

> <Gold.PLP.part.metal>
0.0000

> <Gold.PLP.part.buried>
-4.8640

> <Gold.PLP.part.nonpolar>
-29.2012

> <Gold.PLP.part.repulsive>
0.8412

> <Gold.PLP.ligand.clash>
0.0000

> <Gold.PLP.ligand.torsion>
0.6616

> <Gold.PLP.Chemscore.Hbond>
1.8640

> <Gold.PLP.Chemscore.CHOScore>
0.9868

> <Gold.PLP.Chemscore.Metal>
0.0000

> <Gold.Chemscore.Hbonds>
donor molecule, donor type, donor heavy atom, donor atom, acceptor molecule, acceptor atom, score
      L1  H    21    42       P1 10747  0.43
      P1  H  6896  6908       L1     9  1.00
      L1  C    17    39       P1  7948  0.74

> <Gold.PLP.Chemscore.Internal.Correction>
0.3409

> <Gold.Rescore>
     Score         DG    S(hbond)    S(metal)    S(lipo)     H(rot)  DE(clash)    DE(int)     intcor
      8.03     -11.17       1.99        0.00      65.70       3.37       1.08       2.06       ----

> <Gold.Chemscore.Fitness>
8.0282

> <Gold.Chemscore.DG>
-11.1659

> <Gold.Chemscore.ZeroCoef>
-5.4800

> <Gold.Chemscore.Hbond>
1.9864

> <Gold.Chemscore.Metal>
0.0000

> <Gold.Chemscore.Lipo>
65.6981

> <Gold.Chemscore.Internal_Hbond>
0.0000

> <Gold.Chemscore.DEClash>
1.0803

> <Gold.Chemscore.DEInternal>
2.0574

> <Gold.Chemscore.Rot>
3.3732

> <Gold.Chemscore.Internal.Correction>
   9.000000E+99

> <Gold.Chemscore.Hbonds>
donor molecule, donor type, donor heavy atom, donor atom, acceptor molecule, acceptor atom, score
      L1  H    21    42       P1 10747  0.42
      P1  H  6896  6908       L1     9  0.94

> <Gold.Chemscore.Hbond.Weighted>
-6.6346

> <Gold.Chemscore.Metal.Weighted>
-0.0000

> <Gold.Chemscore.Lipo.Weighted>
-7.6867

> <Gold.Chemscore.Internal_Hbond.Weighted>
0.0000

> <Gold.Chemscore.DEClash.Weighted>
1.0803

> <Gold.Chemscore.DEInternal.Weighted>
2.0574

> <Gold.Chemscore.Rot.Weighted>
8.6354

> <Gold.Chemscore.Internal.Correction.Weighted>
   9.000000E+99

> <Gold.Protein.RotatedTorsions>
[ 6907 6896 6895 6894 ] final   70.21 input  -60.11 | X-H torsion
[ 7974 7965 7964 7962 ] final   23.40 input  175.53 | X-H torsion
[ 8008 7997 7996 7995 ] final   31.49 input   59.86 | X-H torsion
[ 10167 10162 10161 10158 ] final  -99.82 input  -65.29 | X-H torsion
[ 10718 10713 10712 10709 ] final -158.32 input   66.30 | X-H torsion
[ 10763 10752 10751 10750 ] final -173.12 input  -60.55 | X-H torsion
[ 11005 11000 10999 10996 ] final   98.31 input  -57.11 | X-H torsion

> <Gold.Protein.ActiveResidues>
 VAL166  LYS551  ARG553  GLY616  TRP617  ASP618  TYR619  PRO620  LYS621  CYS622 
 ASP623  PHE694  ASN695  SER759  ASP760  ASP761  ALA762  ILE779  LEU786  VAL792 
 PHE793  MET794  SER795  GLU796  ALA797  LYS798  CYS799  TRP800  GLU811  SER814 

> <Gold.Protein.RotatedAtoms>
  152.4735  134.4903  159.9692 H   0  0  0  0  0  0  0  0  0  0  0  0  # atno 6907 bound_to 6896
  151.4924  133.3516  159.2863 H   0  0  0  0  0  0  0  0  0  0  0  0  # atno 6908 bound_to 6896
  150.8759  134.8168  159.7250 H   0  0  0  0  0  0  0  0  0  0  0  0  # atno 6909 bound_to 6896
  146.1986  139.7750  142.8778 H   0  0  0  0  0  0  0  0  0  0  0  0  # atno 7974 bound_to 7965
  155.1073  140.3235  155.4531 H   0  0  0  0  0  0  0  0  0  0  0  0  # atno 8008 bound_to 7997
  156.2700  140.2050  156.6145 H   0  0  0  0  0  0  0  0  0  0  0  0  # atno 8009 bound_to 7997
  154.6783  140.0529  157.0226 H   0  0  0  0  0  0  0  0  0  0  0  0  # atno 8010 bound_to 7997
  140.2585  143.3424  152.0648 H   0  0  0  0  0  0  0  0  0  0  0  0  # atno 10167 bound_to 10162
  156.5524  130.8611  151.2784 H   0  0  0  0  0  0  0  0  0  0  0  0  # atno 10718 bound_to 10713
  154.6116  135.2865  155.0426 H   0  0  0  0  0  0  0  0  0  0  0  0  # atno 10763 bound_to 10752
  154.1654  135.6481  153.5000 H   0  0  0  0  0  0  0  0  0  0  0  0  # atno 10764 bound_to 10752
  153.0197  135.5388  154.6871 H   0  0  0  0  0  0  0  0  0  0  0  0  # atno 10765 bound_to 10752
  139.8773  134.9043  156.4437 H   0  0  0  0  0  0  0  0  0  0  0  0  # atno 11005 bound_to 11000
  145.3561  141.0317  143.3311 LP  0  0  0  0  0  0  0  0  0  0  0  0  # atno 17320 bound_to 7965
  144.8633  139.5144  143.6802 LP  0  0  0  0  0  0  0  0  0  0  0  0  # atno 17321 bound_to 7965
  139.5024  144.6734  151.6187 LP  0  0  0  0  0  0  0  0  0  0  0  0  # atno 17342 bound_to 10162
  140.5985  143.9653  150.6370 LP  0  0  0  0  0  0  0  0  0  0  0  0  # atno 17343 bound_to 10162
  157.7385  130.9814  150.2254 LP  0  0  0  0  0  0  0  0  0  0  0  0  # atno 17370 bound_to 10713
  156.2872  130.3741  149.7877 LP  0  0  0  0  0  0  0  0  0  0  0  0  # atno 17371 bound_to 10713
  140.8981  133.7799  155.9649 LP  0  0  0  0  0  0  0  0  0  0  0  0  # atno 17394 bound_to 11000
  140.8680  134.2760  157.5204 LP  0  0  0  0  0  0  0  0  0  0  0  0  # atno 17395 bound_to 11000

$$$$
