AV-unprocessed.smi:798|AV-procd|sdf|3783|dock1
  -GOLD-   22720 1213D 1   1.00000     0.00000
 Structure written by MMmdl.
 33 35  0  0  0  0  0  0  0  0  2 V2000
  152.8599  137.6011  156.0067 O   0  0  0  0  0  0  0  0  0  0  0  0
  151.7131  137.4931  155.5662 C   0  0  0  0  0  0  0  0  0  0  0  0
  151.1570  136.3765  155.0438 N   0  5  0  0  0  0  0  0  0  0  0  0
  150.4406  135.5539  155.8275 C   0  0  0  0  0  0  0  0  0  0  0  0
  150.3534  135.7237  157.1566 N   0  0  0  0  0  0  0  0  0  0  0  0
  149.5678  134.7633  157.7796 N   0  0  0  0  0  0  0  0  0  0  0  0
  149.0886  133.8832  156.9007 C   0  0  0  0  0  0  0  0  0  0  0  0
  149.5543  134.1468  155.2335 S   0  0  0  0  0  0  0  0  0  0  0  0
  150.8915  138.5526  155.5689 N   0  0  0  0  0  0  0  0  0  0  0  0
  151.2087  139.8930  156.0659 C   0  0  2  0  0  0  0  0  0  0  0  0
  151.0291  139.9481  157.5986 C   0  0  1  0  0  0  0  0  0  0  0  0
  151.7279  141.2074  158.1427 C   0  0  0  0  0  0  0  0  0  0  0  0
  150.8033  142.3388  157.6541 C   0  0  0  0  0  0  0  0  0  0  0  0
  149.6957  141.5765  156.8994 C   0  0  2  0  0  0  0  0  0  0  0  0
  149.5593  140.3205  157.7505 C   0  0  0  0  0  0  0  0  0  0  0  0
  150.2634  141.0286  155.5667 C   0  0  2  0  0  0  0  0  0  0  0  0
  149.1663  140.6108  154.5605 C   0  0  0  0  0  0  0  0  0  0  0  0
  149.5099  141.0208  153.2534 O   0  0  0  0  0  0  0  0  0  0  0  0
  148.4597  133.0725  157.2368 H   0  0  0  0  0  0  0  0  0  0  0  0
  149.9634  138.4156  155.1965 H   0  0  0  0  0  0  0  0  0  0  0  0
  152.2458  140.1244  155.8151 H   0  0  0  0  0  0  0  0  0  0  0  0
  151.3293  139.0347  158.1140 H   0  0  0  0  0  0  0  0  0  0  0  0
  151.7674  141.1889  159.2325 H   0  0  0  0  0  0  0  0  0  0  0  0
  152.7488  141.3115  157.7733 H   0  0  0  0  0  0  0  0  0  0  0  0
  150.3885  142.8850  158.5021 H   0  0  0  0  0  0  0  0  0  0  0  0
  151.3224  143.0567  157.0180 H   0  0  0  0  0  0  0  0  0  0  0  0
  148.7787  142.1561  156.7902 H   0  0  0  0  0  0  0  0  0  0  0  0
  148.8773  139.5791  157.3317 H   0  0  0  0  0  0  0  0  0  0  0  0
  149.2696  140.5261  158.7825 H   0  0  0  0  0  0  0  0  0  0  0  0
  150.8665  141.7992  155.0834 H   0  0  0  0  0  0  0  0  0  0  0  0
  149.0551  139.5267  154.5446 H   0  0  0  0  0  0  0  0  0  0  0  0
  148.1968  141.0335  154.8244 H   0  0  0  0  0  0  0  0  0  0  0  0
  148.9655  140.5496  152.6413 H   0  0  0  0  0  0  0  0  0  0  0  0
  1  2  2  0  0  0  0
  2  3  1  0  0  0  0
  2  9  1  0  0  0  0
  3  4  1  0  0  0  0
  4  8  1  0  0  0  0
  4  5  2  0  0  0  0
  5  6  1  0  0  0  0
  6  7  2  0  0  0  0
  7  8  1  0  0  0  0
  7 19  1  0  0  0  0
  9 10  1  0  0  0  0
  9 20  1  0  0  0  0
 10 16  1  0  0  0  0
 10 11  1  0  0  0  0
 10 21  1  0  0  0  0
 11 15  1  0  0  0  0
 11 12  1  0  0  0  0
 11 22  1  0  0  0  0
 12 13  1  0  0  0  0
 12 23  1  0  0  0  0
 12 24  1  0  0  0  0
 13 14  1  0  0  0  0
 13 25  1  0  0  0  0
 13 26  1  0  0  0  0
 14 15  1  0  0  0  0
 14 16  1  0  0  0  0
 14 27  1  0  0  0  0
 15 28  1  0  0  0  0
 15 29  1  0  0  0  0
 16 17  1  0  0  0  0
 16 30  1  0  0  0  0
 17 18  1  0  0  0  0
 17 31  1  0  0  0  0
 17 32  1  0  0  0  0
 18 33  1  0  0  0  0
M  CHG  1   3  -1
M  END
> <s_m_source_file>
AV-unprocessed.smi

> <i_m_source_file_index>
798

> <i_lp_mmshare_version>
43012

> <i_f3d_flags>
0

> <s_epik_input>
W0NIMl0xW0NIMl1bQ0BASF0oW0NIMl0yKVtDQEBIXShbQ0gyXVtPSF0pW0NAQEhdKFtDQEhdMTIpW05IXUMoPU8pW05IXWMzbm5bY0hdczM=

> <s_epik_cmdline>
J2VwaWtfcHl0aG9uJywgJy1waCcsICc3LjAnLCAnLXRuJywgJzgnLCAnLW1hJywgJzIwMCcsICctbWV0YWxfYmluZGluZycsICctaW1hZScsICc8aW5maWxlLm1hZT4nLCAnLW9tYWUnLCAnPG91dGZpbGUubWFlPic=

> <r_lp_tautomer_probability>
1

> <r_epik_Ionization_Penalty>
4.53732

> <r_epik_Ionization_Penalty_Charging>
4.48632

> <r_epik_Ionization_Penalty_Neutral>
0.0510007

> <r_epik_State_Penalty>
4.48602

> <r_epik_Charging_Adjusted_Penalty>
8.97234

> <i_epik_Tot_Q>
-1

> <i_epik_Tot_abs_Q>
1

> <r_epik_Metal_State_Penalty>
0.812492

> <b_epik_Metal_Only>
1

> <s_lp_Force_Field>
OPLS_2005

> <r_lp_Energy>
47.4456

> <b_lp_Chiralities_Consistent>
1

> <s_lp_Variant>
AV-unprocessed.smi:798-15

> <Gold.Version>
5.8.1

> <Gold.Id.Protein>
6NUR|6NUR_protein|mol2

> <Gold.PLP.Fitness>
38.6400

> <Gold.PLP.PLP>
-28.6873

> <Gold.PLP.part.hbond>
-5.1048

> <Gold.PLP.part.metal>
0.0000

> <Gold.PLP.part.buried>
-4.9987

> <Gold.PLP.part.nonpolar>
-19.7275

> <Gold.PLP.part.repulsive>
0.2111

> <Gold.PLP.ligand.clash>
0.0000

> <Gold.PLP.ligand.torsion>
1.6439

> <Gold.PLP.Chemscore.Hbond>
4.4044

> <Gold.PLP.Chemscore.CHOScore>
0.0000

> <Gold.PLP.Chemscore.Metal>
0.0000

> <Gold.Chemscore.Hbonds>
donor molecule, donor type, donor heavy atom, donor atom, acceptor molecule, acceptor atom, score
      L1  H    18    33       P1  7957  0.40
      P1  H  6896  6908       L1     6  0.89
      P1  H  7989  7998       L1    18  0.12
      P1  H  8011  8017       L1    18  0.95
      P1  H 10752 10763       L1     3  1.40

> <Gold.PLP.Chemscore.Internal.Correction>
0.0273

> <Gold.Rescore>
     Score         DG    S(hbond)    S(metal)    S(lipo)     H(rot)  DE(clash)    DE(int)     intcor
     12.37     -13.97       2.15        0.00      53.20       1.92       0.00       1.60       ----

> <Gold.Chemscore.Fitness>
12.3690

> <Gold.Chemscore.DG>
-13.9735

> <Gold.Chemscore.ZeroCoef>
-5.4800

> <Gold.Chemscore.Hbond>
2.1515

> <Gold.Chemscore.Metal>
0.0000

> <Gold.Chemscore.Lipo>
53.1987

> <Gold.Chemscore.Internal_Hbond>
0.0000

> <Gold.Chemscore.DEClash>
0.0013

> <Gold.Chemscore.DEInternal>
1.6032

> <Gold.Chemscore.Rot>
1.9207

> <Gold.Chemscore.Internal.Correction>
   9.000000E+99

> <Gold.Chemscore.Hbonds>
donor molecule, donor type, donor heavy atom, donor atom, acceptor molecule, acceptor atom, score
      L1  H    18    33       P1  7957  0.40
      P1  H  6896  6908       L1     6  0.42
      P1  H  7989  7998       L1    18  0.02
      P1  H  8011  8017       L1    18  0.21
      P1  H 10752 10763       L1     3  0.06

> <Gold.Chemscore.Hbond.Weighted>
-7.1861

> <Gold.Chemscore.Metal.Weighted>
-0.0000

> <Gold.Chemscore.Lipo.Weighted>
-6.2242

> <Gold.Chemscore.Internal_Hbond.Weighted>
0.0000

> <Gold.Chemscore.DEClash.Weighted>
0.0013

> <Gold.Chemscore.DEInternal.Weighted>
1.6032

> <Gold.Chemscore.Rot.Weighted>
4.9169

> <Gold.Chemscore.Internal.Correction.Weighted>
   9.000000E+99

> <Gold.Protein.RotatedTorsions>
[ 6907 6896 6895 6894 ] final  131.68 input  -60.11 | X-H torsion
[ 7974 7965 7964 7962 ] final   99.15 input  175.53 | X-H torsion
[ 8008 7997 7996 7995 ] final   -8.37 input   59.86 | X-H torsion
[ 10167 10162 10161 10158 ] final -169.66 input  -65.29 | X-H torsion
[ 10718 10713 10712 10709 ] final  -94.18 input   66.30 | X-H torsion
[ 10763 10752 10751 10750 ] final   46.70 input  -60.55 | X-H torsion
[ 11005 11000 10999 10996 ] final   23.66 input  -57.11 | X-H torsion

> <Gold.Protein.ActiveResidues>
 VAL166  LYS551  ARG553  GLY616  TRP617  ASP618  TYR619  PRO620  LYS621  CYS622 
 ASP623  PHE694  ASN695  SER759  ASP760  ASP761  ALA762  ILE779  LEU786  VAL792 
 PHE793  MET794  SER795  GLU796  ALA797  LYS798  CYS799  TRP800  GLU811  SER814 

> <Gold.Protein.RotatedAtoms>
  152.3401  133.6057  159.5870 H   0  0  0  0  0  0  0  0  0  0  0  0  # atno 6907 bound_to 6896
  150.7474  133.9735  159.3562 H   0  0  0  0  0  0  0  0  0  0  0  0  # atno 6908 bound_to 6896
  151.7600  135.0813  160.0395 H   0  0  0  0  0  0  0  0  0  0  0  0  # atno 6909 bound_to 6896
  145.4027  139.2345  143.3291 H   0  0  0  0  0  0  0  0  0  0  0  0  # atno 7974 bound_to 7965
  154.5748  140.2383  155.8139 H   0  0  0  0  0  0  0  0  0  0  0  0  # atno 8008 bound_to 7997
  156.2135  140.3019  155.9742 H   0  0  0  0  0  0  0  0  0  0  0  0  # atno 8009 bound_to 7997
  155.2647  140.0416  157.2991 H   0  0  0  0  0  0  0  0  0  0  0  0  # atno 8010 bound_to 7997
  139.5909  144.1215  152.1633 H   0  0  0  0  0  0  0  0  0  0  0  0  # atno 10167 bound_to 10162
  156.0023  130.5057  150.5887 H   0  0  0  0  0  0  0  0  0  0  0  0  # atno 10718 bound_to 10713
  152.9808  135.5999  154.3643 H   0  0  0  0  0  0  0  0  0  0  0  0  # atno 10763 bound_to 10752
  154.3322  135.2768  155.2468 H   0  0  0  0  0  0  0  0  0  0  0  0  # atno 10764 bound_to 10752
  154.4587  135.5971  153.6296 H   0  0  0  0  0  0  0  0  0  0  0  0  # atno 10765 bound_to 10752
  140.3672  134.2062  155.7668 H   0  0  0  0  0  0  0  0  0  0  0  0  # atno 11005 bound_to 11000
  146.2744  140.4727  142.8801 LP  0  0  0  0  0  0  0  0  0  0  0  0  # atno 17320 bound_to 7965
  144.8363  140.6787  143.6258 LP  0  0  0  0  0  0  0  0  0  0  0  0  # atno 17321 bound_to 7965
  140.0790  144.5717  150.7136 LP  0  0  0  0  0  0  0  0  0  0  0  0  # atno 17342 bound_to 10162
  140.7172  143.2555  151.4396 LP  0  0  0  0  0  0  0  0  0  0  0  0  # atno 17343 bound_to 10162
  157.3756  131.0772  151.1521 LP  0  0  0  0  0  0  0  0  0  0  0  0  # atno 17370 bound_to 10713
  157.2260  130.6503  149.5830 LP  0  0  0  0  0  0  0  0  0  0  0  0  # atno 17371 bound_to 10713
  141.1966  133.8079  157.0665 LP  0  0  0  0  0  0  0  0  0  0  0  0  # atno 17394 bound_to 11000
  140.0580  134.9770  157.1255 LP  0  0  0  0  0  0  0  0  0  0  0  0  # atno 17395 bound_to 11000

$$$$
