AV-unprocessed.smi:3278|AV-procd|sdf|12541|dock2
  -GOLD-   2272018453D 1   1.00000     0.00000
 Structure written by MMmdl.
 39 40  0  0  0  0  0  0  0  0  2 V2000
  145.8099  143.4144  154.1580 C   0  0  0  0  0  0  0  0  0  0  0  0
  146.7477  142.3257  154.3301 N   0  0  0  0  0  0  0  0  0  0  0  0
  147.7035  142.1589  155.3082 C   0  0  0  0  0  0  0  0  0  0  0  0
  148.3517  140.9798  155.0592 C   0  0  0  0  0  0  0  0  0  0  0  0
  149.4758  140.3361  155.8435 C   0  0  2  0  0  0  0  0  0  0  0  0
  149.9719  139.0723  155.1195 C   0  0  0  0  0  0  0  0  0  0  0  0
  149.0476  139.9055  157.1224 O   0  0  0  0  0  0  0  0  0  0  0  0
  150.6396  141.3274  156.0602 C   0  0  0  0  0  0  0  0  0  0  0  0
  150.2554  142.4362  156.9634 N   0  3  0  0  0  0  0  0  0  0  0  0
  151.3561  143.0227  157.7587 C   0  0  2  0  0  0  0  0  0  0  0  0
  151.9531  141.9825  158.7326 C   0  0  0  0  0  0  0  0  0  0  0  0
  153.1340  142.5359  159.5476 C   0  0  0  0  0  0  0  0  0  0  0  0
  152.7360  143.7338  160.4197 C   0  0  0  0  0  0  0  0  0  0  0  0
  152.1586  145.1164  159.4002 S   0  0  0  0  0  0  0  0  0  0  0  0
  150.8304  144.2571  158.5136 C   0  0  0  0  0  0  0  0  0  0  0  0
  147.7041  140.4988  153.8825 C   0  0  0  0  0  0  0  0  0  0  0  0
  146.7448  141.3017  153.4540 N   0  0  0  0  0  0  0  0  0  0  0  0
  145.9305  144.1429  154.9602 H   0  0  0  0  0  0  0  0  0  0  0  0
  144.7895  143.0303  154.1786 H   0  0  0  0  0  0  0  0  0  0  0  0
  145.9882  143.9073  153.2016 H   0  0  0  0  0  0  0  0  0  0  0  0
  147.8432  142.8861  156.0947 H   0  0  0  0  0  0  0  0  0  0  0  0
  150.3584  139.3065  154.1270 H   0  0  0  0  0  0  0  0  0  0  0  0
  149.1679  138.3455  154.9946 H   0  0  0  0  0  0  0  0  0  0  0  0
  150.7745  138.5831  155.6726 H   0  0  0  0  0  0  0  0  0  0  0  0
  148.2096  140.3002  157.3112 H   0  0  0  0  0  0  0  0  0  0  0  0
  151.5073  140.8023  156.4599 H   0  0  0  0  0  0  0  0  0  0  0  0
  150.9435  141.7514  155.1020 H   0  0  0  0  0  0  0  0  0  0  0  0
  149.8721  143.1684  156.3823 H   0  0  0  0  0  0  0  0  0  0  0  0
  152.1315  143.3567  157.0671 H   0  0  0  0  0  0  0  0  0  0  0  0
  151.1785  141.6246  159.4124 H   0  0  0  0  0  0  0  0  0  0  0  0
  152.3020  141.1083  158.1839 H   0  0  0  0  0  0  0  0  0  0  0  0
  153.5317  141.7454  160.1851 H   0  0  0  0  0  0  0  0  0  0  0  0
  153.9450  142.8220  158.8765 H   0  0  0  0  0  0  0  0  0  0  0  0
  151.9474  143.4522  161.1188 H   0  0  0  0  0  0  0  0  0  0  0  0
  153.5865  144.0677  161.0144 H   0  0  0  0  0  0  0  0  0  0  0  0
  150.3767  144.9640  157.8180 H   0  0  0  0  0  0  0  0  0  0  0  0
  150.0566  143.9717  159.2274 H   0  0  0  0  0  0  0  0  0  0  0  0
  147.8986  139.5896  153.3325 H   0  0  0  0  0  0  0  0  0  0  0  0
  149.5290  142.1175  157.5888 H   0  0  0  0  0  0  0  0  0  0  0  0
  1  2  1  0  0  0  0
  1 18  1  0  0  0  0
  1 19  1  0  0  0  0
  1 20  1  0  0  0  0
  2 17  1  0  0  0  0
  2  3  1  0  0  0  0
  3  4  2  0  0  0  0
  3 21  1  0  0  0  0
  4  5  1  0  0  0  0
  4 16  1  0  0  0  0
  5  6  1  0  0  0  0
  5  7  1  0  0  0  0
  5  8  1  0  0  0  0
  6 22  1  0  0  0  0
  6 23  1  0  0  0  0
  6 24  1  0  0  0  0
  7 25  1  0  0  0  0
  8  9  1  0  0  0  0
  8 26  1  0  0  0  0
  8 27  1  0  0  0  0
  9 10  1  0  0  0  0
  9 28  1  0  0  0  0
  9 39  1  0  0  0  0
 10 15  1  0  0  0  0
 10 11  1  0  0  0  0
 10 29  1  0  0  0  0
 11 12  1  0  0  0  0
 11 30  1  0  0  0  0
 11 31  1  0  0  0  0
 12 13  1  0  0  0  0
 12 32  1  0  0  0  0
 12 33  1  0  0  0  0
 13 14  1  0  0  0  0
 13 34  1  0  0  0  0
 13 35  1  0  0  0  0
 14 15  1  0  0  0  0
 15 36  1  0  0  0  0
 15 37  1  0  0  0  0
 16 17  2  0  0  0  0
 16 38  1  0  0  0  0
M  CHG  1   9   1
M  END
> <s_m_source_file>
AV-unprocessed.smi

> <i_m_source_file_index>
3278

> <i_lp_mmshare_version>
43012

> <i_f3d_flags>
0

> <s_epik_input>
W0NIM11uMVtjSF1jKFtjSF1uMSlbQ0BAXShbQ0gzXSkoW09IXSlbQ0gyXVtOSF1bQ0BASF0yW0NIMl1bQ0gyXVtDSDJdU1tDSDJdMg==

> <s_epik_cmdline>
J2VwaWtfcHl0aG9uJywgJy1waCcsICc3LjAnLCAnLXRuJywgJzgnLCAnLW1hJywgJzIwMCcsICctbWV0YWxfYmluZGluZycsICctaW1hZScsICc8aW5maWxlLm1hZT4nLCAnLW9tYWUnLCAnPG91dGZpbGUubWFlPic=

> <r_lp_tautomer_probability>
1

> <r_epik_Ionization_Penalty>
0.0185703

> <r_epik_Ionization_Penalty_Charging>
0.0185619

> <r_epik_Ionization_Penalty_Neutral>
8.47286e-06

> <r_epik_State_Penalty>
0.0147768

> <r_epik_Charging_Adjusted_Penalty>
0.0333386

> <i_epik_Tot_Q>
1

> <i_epik_Tot_abs_Q>
1

> <r_epik_Metal_State_Penalty>
0.0147782

> <b_epik_Metal_Only>
0

> <s_lp_Force_Field>
OPLS_2005

> <r_lp_Energy>
8.69531

> <b_lp_Chiralities_Consistent>
1

> <s_lp_Variant>
AV-unprocessed.smi:3278-2

> <Gold.Version>
5.8.1

> <Gold.Id.Protein>
6NUR|6NUR_protein|mol2

> <Gold.PLP.Fitness>
49.0913

> <Gold.PLP.PLP>
-39.2809

> <Gold.PLP.part.hbond>
-1.0000

> <Gold.PLP.part.metal>
0.0000

> <Gold.PLP.part.buried>
-0.1638

> <Gold.PLP.part.nonpolar>
-37.3283

> <Gold.PLP.part.repulsive>
0.2161

> <Gold.PLP.ligand.clash>
0.0000

> <Gold.PLP.ligand.torsion>
0.3887

> <Gold.PLP.Chemscore.Hbond>
2.0000

> <Gold.PLP.Chemscore.CHOScore>
1.5210

> <Gold.PLP.Chemscore.Metal>
0.0000

> <Gold.Chemscore.Hbonds>
donor molecule, donor type, donor heavy atom, donor atom, acceptor molecule, acceptor atom, score
      L1  H     9    28       P1  8028  2.00
      L1  C     3    21       P1  8028  0.79
      L1  C    16    38       P1  7957  0.22

> <Gold.PLP.Chemscore.Internal.Correction>
0.0248

> <Gold.Rescore>
     Score         DG    S(hbond)    S(metal)    S(lipo)     H(rot)  DE(clash)    DE(int)     intcor
     15.00     -16.33       0.99        0.00     108.16       2.00       0.01       1.31       ----

> <Gold.Chemscore.Fitness>
15.0035

> <Gold.Chemscore.DG>
-16.3273

> <Gold.Chemscore.ZeroCoef>
-5.4800

> <Gold.Chemscore.Hbond>
0.9948

> <Gold.Chemscore.Metal>
0.0000

> <Gold.Chemscore.Lipo>
108.1569

> <Gold.Chemscore.Internal_Hbond>
0.0000

> <Gold.Chemscore.DEClash>
0.0096

> <Gold.Chemscore.DEInternal>
1.3141

> <Gold.Chemscore.Rot>
2.0038

> <Gold.Chemscore.Internal.Correction>
   9.000000E+99

> <Gold.Chemscore.Hbonds>
donor molecule, donor type, donor heavy atom, donor atom, acceptor molecule, acceptor atom, score
      L1  H     9    28       P1  8028  0.98

> <Gold.Chemscore.Hbond.Weighted>
-3.3226

> <Gold.Chemscore.Metal.Weighted>
-0.0000

> <Gold.Chemscore.Lipo.Weighted>
-12.6544

> <Gold.Chemscore.Internal_Hbond.Weighted>
0.0000

> <Gold.Chemscore.DEClash.Weighted>
0.0096

> <Gold.Chemscore.DEInternal.Weighted>
1.3141

> <Gold.Chemscore.Rot.Weighted>
5.1296

> <Gold.Chemscore.Internal.Correction.Weighted>
   9.000000E+99

> <Gold.Protein.RotatedTorsions>
[ 6907 6896 6895 6894 ] final   47.14 input  -60.11 | X-H torsion
[ 7974 7965 7964 7962 ] final  -62.81 input  175.53 | X-H torsion
[ 8008 7997 7996 7995 ] final -148.70 input   59.86 | X-H torsion
[ 10167 10162 10161 10158 ] final   45.30 input  -65.29 | X-H torsion
[ 10718 10713 10712 10709 ] final -136.86 input   66.30 | X-H torsion
[ 10763 10752 10751 10750 ] final   26.43 input  -60.55 | X-H torsion
[ 11005 11000 10999 10996 ] final   10.56 input  -57.11 | X-H torsion

> <Gold.Protein.ActiveResidues>
 VAL166  LYS551  ARG553  GLY616  TRP617  ASP618  TYR619  PRO620  LYS621  CYS622 
 ASP623  PHE694  ASN695  SER759  ASP760  ASP761  ALA762  ILE779  LEU786  VAL792 
 PHE793  MET794  SER795  GLU796  ALA797  LYS798  CYS799  TRP800  GLU811  SER814 

> <Gold.Protein.RotatedAtoms>
  152.2645  134.7998  160.0424 H   0  0  0  0  0  0  0  0  0  0  0  0  # atno 6907 bound_to 6896
  151.8633  133.3456  159.3719 H   0  0  0  0  0  0  0  0  0  0  0  0  # atno 6908 bound_to 6896
  150.7129  134.5112  159.5652 H   0  0  0  0  0  0  0  0  0  0  0  0  # atno 6909 bound_to 6896
  145.7867  140.8732  143.0302 H   0  0  0  0  0  0  0  0  0  0  0  0  # atno 7974 bound_to 7965
  155.5958  140.0657  157.2746 H   0  0  0  0  0  0  0  0  0  0  0  0  # atno 8008 bound_to 7997
  154.4292  140.1827  156.1168 H   0  0  0  0  0  0  0  0  0  0  0  0  # atno 8009 bound_to 7997
  156.0198  140.3318  155.7030 H   0  0  0  0  0  0  0  0  0  0  0  0  # atno 8010 bound_to 7997
  140.3256  144.2652  150.6176 H   0  0  0  0  0  0  0  0  0  0  0  0  # atno 10167 bound_to 10162
  156.2817  130.7324  151.1324 H   0  0  0  0  0  0  0  0  0  0  0  0  # atno 10718 bound_to 10713
  153.0623  135.6560  154.0434 H   0  0  0  0  0  0  0  0  0  0  0  0  # atno 10763 bound_to 10752
  154.0099  135.2929  155.3395 H   0  0  0  0  0  0  0  0  0  0  0  0  # atno 10764 bound_to 10752
  154.6967  135.5261  153.8536 H   0  0  0  0  0  0  0  0  0  0  0  0  # atno 10765 bound_to 10752
  140.5131  134.0632  155.7823 H   0  0  0  0  0  0  0  0  0  0  0  0  # atno 11005 bound_to 11000
  144.6788  140.0065  143.7484 LP  0  0  0  0  0  0  0  0  0  0  0  0  # atno 17320 bound_to 7965
  146.0019  139.3098  143.0922 LP  0  0  0  0  0  0  0  0  0  0  0  0  # atno 17321 bound_to 7965
  140.5444  143.2217  151.8031 LP  0  0  0  0  0  0  0  0  0  0  0  0  # atno 17342 bound_to 10162
  139.4866  144.4558  151.9600 LP  0  0  0  0  0  0  0  0  0  0  0  0  # atno 17343 bound_to 10162
  157.7316  131.0606  150.5668 LP  0  0  0  0  0  0  0  0  0  0  0  0  # atno 17370 bound_to 10713
  156.5774  130.4295  149.5992 LP  0  0  0  0  0  0  0  0  0  0  0  0  # atno 17371 bound_to 10713
  141.1375  133.9197  157.2402 LP  0  0  0  0  0  0  0  0  0  0  0  0  # atno 17394 bound_to 11000
  139.9647  135.0145  156.9356 LP  0  0  0  0  0  0  0  0  0  0  0  0  # atno 17395 bound_to 11000

$$$$
