AV-unprocessed.smi:1802|AV-procd|sdf|7277|dock5
  -GOLD-   22720 8533D 1   1.00000     0.00000
 Structure written by MMmdl.
 40 41  0  0  0  0  0  0  0  0  3 V2000
  152.5376  144.5348  157.6897 C   0  0  0  0  0  0  0  0  0  0  0  0
  151.8333  144.0692  158.9763 C   0  0  2  0  0  0  0  0  0  0  0  0
  152.8198  143.6036  160.0635 C   0  0  0  0  0  0  0  0  0  0  0  0
  153.4155  142.2298  159.7252 C   0  0  0  0  0  0  0  0  0  0  0  0
  152.3089  141.2022  159.4384 C   0  0  0  0  0  0  0  0  0  0  0  0
  151.4064  141.6741  158.3570 N   0  3  1  0  0  0  0  0  0  0  0  0
  150.4206  140.6394  157.9555 C   0  0  0  0  0  0  0  0  0  0  0  0
  151.0879  139.2944  157.6234 C   0  0  0  0  0  0  0  0  0  0  0  0
  150.0783  138.1405  157.5898 C   0  0  0  0  0  0  0  0  0  0  0  0
  149.3337  138.0770  158.8396 N   0  0  0  0  0  0  0  0  0  0  0  0
  149.0203  136.9511  159.4938 C   0  0  0  0  0  0  0  0  0  0  0  0
  149.3634  135.8590  159.0352 O   0  0  0  0  0  0  0  0  0  0  0  0
  148.3298  137.1613  160.6370 N   0  5  0  0  0  0  0  0  0  0  0  0
  147.9198  136.1171  161.3759 C   0  0  0  0  0  0  0  0  0  0  0  0
  147.7059  136.2144  162.6978 N   0  0  0  0  0  0  0  0  0  0  0  0
  147.2823  135.0234  163.2716 N   0  0  0  0  0  0  0  0  0  0  0  0
  147.1788  134.0555  162.3611 C   0  0  0  0  0  0  0  0  0  0  0  0
  147.5853  134.5117  160.7204 S   0  0  0  0  0  0  0  0  0  0  0  0
  150.7775  142.9786  158.7005 C   0  0  0  0  0  0  0  0  0  0  0  0
  153.0799  143.7234  157.2042 H   0  0  0  0  0  0  0  0  0  0  0  0
  153.2512  145.3315  157.9001 H   0  0  0  0  0  0  0  0  0  0  0  0
  151.8170  144.9243  156.9701 H   0  0  0  0  0  0  0  0  0  0  0  0
  151.3072  144.9405  159.3691 H   0  0  0  0  0  0  0  0  0  0  0  0
  153.6139  144.3381  160.2018 H   0  0  0  0  0  0  0  0  0  0  0  0
  152.2961  143.5380  161.0181 H   0  0  0  0  0  0  0  0  0  0  0  0
  154.0755  142.3117  158.8610 H   0  0  0  0  0  0  0  0  0  0  0  0
  154.0370  141.8830  160.5514 H   0  0  0  0  0  0  0  0  0  0  0  0
  152.7700  140.2567  159.1502 H   0  0  0  0  0  0  0  0  0  0  0  0
  151.7272  141.0096  160.3413 H   0  0  0  0  0  0  0  0  0  0  0  0
  149.7220  140.4700  158.7762 H   0  0  0  0  0  0  0  0  0  0  0  0
  149.8251  140.9981  157.1146 H   0  0  0  0  0  0  0  0  0  0  0  0
  151.5924  139.3463  156.6587 H   0  0  0  0  0  0  0  0  0  0  0  0
  151.8590  139.0797  158.3645 H   0  0  0  0  0  0  0  0  0  0  0  0
  149.3784  138.2719  156.7635 H   0  0  0  0  0  0  0  0  0  0  0  0
  150.5993  137.1954  157.4268 H   0  0  0  0  0  0  0  0  0  0  0  0
  149.0341  138.9512  159.2460 H   0  0  0  0  0  0  0  0  0  0  0  0
  146.8576  133.0681  162.6570 H   0  0  0  0  0  0  0  0  0  0  0  0
  150.1466  142.8466  159.5812 H   0  0  0  0  0  0  0  0  0  0  0  0
  150.1186  143.3118  157.8993 H   0  0  0  0  0  0  0  0  0  0  0  0
  151.9947  141.8332  157.5516 H   0  0  0  0  0  0  0  0  0  0  0  0
  1  2  1  0  0  0  0
  1 20  1  0  0  0  0
  1 21  1  0  0  0  0
  1 22  1  0  0  0  0
  2 19  1  0  0  0  0
  2  3  1  0  0  0  0
  2 23  1  0  0  0  0
  3  4  1  0  0  0  0
  3 24  1  0  0  0  0
  3 25  1  0  0  0  0
  4  5  1  0  0  0  0
  4 26  1  0  0  0  0
  4 27  1  0  0  0  0
  5  6  1  0  0  0  0
  5 28  1  0  0  0  0
  5 29  1  0  0  0  0
  6  7  1  0  0  0  0
  6 19  1  0  0  0  0
  6 40  1  0  0  0  0
  7  8  1  0  0  0  0
  7 30  1  0  0  0  0
  7 31  1  0  0  0  0
  8  9  1  0  0  0  0
  8 32  1  0  0  0  0
  8 33  1  0  0  0  0
  9 10  1  0  0  0  0
  9 34  1  0  0  0  0
  9 35  1  0  0  0  0
 10 11  1  0  0  0  0
 10 36  1  0  0  0  0
 11 12  2  0  0  0  0
 11 13  1  0  0  0  0
 13 14  1  0  0  0  0
 14 18  1  0  0  0  0
 14 15  2  0  0  0  0
 15 16  1  0  0  0  0
 16 17  2  0  0  0  0
 17 18  1  0  0  0  0
 17 37  1  0  0  0  0
 19 38  1  0  0  0  0
 19 39  1  0  0  0  0
M  CHG  1   6   1
M  CHG  1  13  -1
M  END
> <s_m_source_file>
AV-unprocessed.smi

> <i_m_source_file_index>
1802

> <i_lp_mmshare_version>
43012

> <i_f3d_flags>
0

> <s_epik_input>
W0NIM11bQ0BASF0xW0NIMl1bQ0gyXVtDSDJdTihbQ0gyXTEpW0NIMl1bQ0gyXVtDSDJdW05IXUMoPU8pW05IXWMybm5bY0hdczI=

> <s_epik_cmdline>
J2VwaWtfcHl0aG9uJywgJy1waCcsICc3LjAnLCAnLXRuJywgJzgnLCAnLW1hJywgJzIwMCcsICctbWV0YWxfYmluZGluZycsICctaW1hZScsICc8aW5maWxlLm1hZT4nLCAnLW9tYWUnLCAnPG91dGZpbGUubWFlPic=

> <r_lp_tautomer_probability>
1

> <r_epik_Ionization_Penalty>
3.29702

> <r_epik_Ionization_Penalty_Charging>
3.26059

> <r_epik_Ionization_Penalty_Neutral>
0.0364294

> <r_epik_State_Penalty>
3.25788

> <r_epik_Charging_Adjusted_Penalty>
6.51847

> <i_epik_Tot_Q>
0

> <i_epik_Tot_abs_Q>
2

> <r_epik_Metal_State_Penalty>
0.477639

> <b_epik_Metal_Only>
1

> <s_lp_Force_Field>
OPLS_2005

> <r_lp_Energy>
14.2366

> <b_lp_Chiralities_Consistent>
1

> <s_lp_Variant>
AV-unprocessed.smi:1802-7

> <Gold.Version>
5.8.1

> <Gold.Id.Protein>
6NUR|6NUR_protein|mol2

> <Gold.PLP.Fitness>
50.4389

> <Gold.PLP.PLP>
-40.5246

> <Gold.PLP.part.hbond>
-3.0560

> <Gold.PLP.part.metal>
0.0000

> <Gold.PLP.part.buried>
-6.5739

> <Gold.PLP.part.nonpolar>
-30.5828

> <Gold.PLP.part.repulsive>
0.3191

> <Gold.PLP.ligand.clash>
0.0000

> <Gold.PLP.ligand.torsion>
0.3643

> <Gold.PLP.Chemscore.Hbond>
3.5248

> <Gold.PLP.Chemscore.CHOScore>
0.0000

> <Gold.PLP.Chemscore.Metal>
0.0000

> <Gold.Chemscore.Hbonds>
donor molecule, donor type, donor heavy atom, donor atom, acceptor molecule, acceptor atom, score
      P1  H  6896  6907       L1    12  1.00
      P1  H  6931  6943       L1    13  1.63
      P1  H  6934  6947       L1    13  0.71

> <Gold.PLP.Chemscore.Internal.Correction>
0.0685

> <Gold.Rescore>
     Score         DG    S(hbond)    S(metal)    S(lipo)     H(rot)  DE(clash)    DE(int)     intcor
     15.78     -17.70       1.86        0.00      93.81       1.94       0.13       1.79       ----

> <Gold.Chemscore.Fitness>
15.7750

> <Gold.Chemscore.DG>
-17.7044

> <Gold.Chemscore.ZeroCoef>
-5.4800

> <Gold.Chemscore.Hbond>
1.8595

> <Gold.Chemscore.Metal>
0.0000

> <Gold.Chemscore.Lipo>
93.8105

> <Gold.Chemscore.Internal_Hbond>
0.0000

> <Gold.Chemscore.DEClash>
0.1349

> <Gold.Chemscore.DEInternal>
1.7945

> <Gold.Chemscore.Rot>
1.9383

> <Gold.Chemscore.Internal.Correction>
   9.000000E+99

> <Gold.Chemscore.Hbonds>
donor molecule, donor type, donor heavy atom, donor atom, acceptor molecule, acceptor atom, score
      P1  H  6896  6907       L1    12  0.99
      P1  H  6931  6943       L1    13  0.27
      P1  H  6934  6947       L1    13  0.33

> <Gold.Chemscore.Hbond.Weighted>
-6.2106

> <Gold.Chemscore.Metal.Weighted>
-0.0000

> <Gold.Chemscore.Lipo.Weighted>
-10.9758

> <Gold.Chemscore.Internal_Hbond.Weighted>
0.0000

> <Gold.Chemscore.DEClash.Weighted>
0.1349

> <Gold.Chemscore.DEInternal.Weighted>
1.7945

> <Gold.Chemscore.Rot.Weighted>
4.9620

> <Gold.Chemscore.Internal.Correction.Weighted>
   9.000000E+99

> <Gold.Protein.RotatedTorsions>
[ 6907 6896 6895 6894 ] final  -50.58 input  -60.11 | X-H torsion
[ 7974 7965 7964 7962 ] final  -75.31 input  175.53 | X-H torsion
[ 8008 7997 7996 7995 ] final   12.23 input   59.86 | X-H torsion
[ 10167 10162 10161 10158 ] final -168.19 input  -65.29 | X-H torsion
[ 10718 10713 10712 10709 ] final  175.13 input   66.30 | X-H torsion
[ 10763 10752 10751 10750 ] final  171.76 input  -60.55 | X-H torsion
[ 11005 11000 10999 10996 ] final   74.94 input  -57.11 | X-H torsion

> <Gold.Protein.ActiveResidues>
 VAL166  LYS551  ARG553  GLY616  TRP617  ASP618  TYR619  PRO620  LYS621  CYS622 
 ASP623  PHE694  ASN695  SER759  ASP760  ASP761  ALA762  ILE779  LEU786  VAL792 
 PHE793  MET794  SER795  GLU796  ALA797  LYS798  CYS799  TRP800  GLU811  SER814 

> <Gold.Protein.RotatedAtoms>
  150.8693  134.8063  159.7142 H   0  0  0  0  0  0  0  0  0  0  0  0  # atno 6907 bound_to 6896
  152.4703  134.4972  159.9723 H   0  0  0  0  0  0  0  0  0  0  0  0  # atno 6908 bound_to 6896
  151.5063  133.3455  159.2913 H   0  0  0  0  0  0  0  0  0  0  0  0  # atno 6909 bound_to 6896
  145.6277  140.9346  143.1104 H   0  0  0  0  0  0  0  0  0  0  0  0  # atno 7974 bound_to 7965
  154.8178  140.2879  155.5808 H   0  0  0  0  0  0  0  0  0  0  0  0  # atno 8008 bound_to 7997
  156.2995  140.2556  156.3009 H   0  0  0  0  0  0  0  0  0  0  0  0  # atno 8009 bound_to 7997
  154.9373  140.0382  157.2068 H   0  0  0  0  0  0  0  0  0  0  0  0  # atno 8010 bound_to 7997
  139.6001  144.1029  152.1733 H   0  0  0  0  0  0  0  0  0  0  0  0  # atno 10167 bound_to 10162
  156.9394  130.9996  151.2971 H   0  0  0  0  0  0  0  0  0  0  0  0  # atno 10718 bound_to 10713
  154.4164  135.2757  155.2003 H   0  0  0  0  0  0  0  0  0  0  0  0  # atno 10763 bound_to 10752
  154.3967  135.6054  153.5877 H   0  0  0  0  0  0  0  0  0  0  0  0  # atno 10764 bound_to 10752
  152.9832  135.5916  154.4454 H   0  0  0  0  0  0  0  0  0  0  0  0  # atno 10765 bound_to 10752
  139.9367  134.7475  156.1210 H   0  0  0  0  0  0  0  0  0  0  0  0  # atno 11005 bound_to 11000
  144.7206  139.8044  143.7383 LP  0  0  0  0  0  0  0  0  0  0  0  0  # atno 17320 bound_to 7965
  146.1381  139.4432  143.0126 LP  0  0  0  0  0  0  0  0  0  0  0  0  # atno 17321 bound_to 7965
  140.0623  144.5846  150.7253 LP  0  0  0  0  0  0  0  0  0  0  0  0  # atno 17342 bound_to 10162
  140.7243  143.2620  151.4174 LP  0  0  0  0  0  0  0  0  0  0  0  0  # atno 17343 bound_to 10162
  157.5795  130.8366  149.8502 LP  0  0  0  0  0  0  0  0  0  0  0  0  # atno 17370 bound_to 10713
  156.0411  130.3739  150.1433 LP  0  0  0  0  0  0  0  0  0  0  0  0  # atno 17371 bound_to 10713
  141.0984  133.6687  156.2697 LP  0  0  0  0  0  0  0  0  0  0  0  0  # atno 17394 bound_to 11000
  140.6057  134.5509  157.5525 LP  0  0  0  0  0  0  0  0  0  0  0  0  # atno 17395 bound_to 11000

$$$$
