AV-unprocessed.smi:527|AV-procd|sdf|2815|dock7
  -GOLD-   2262023293D 1   1.00000     0.00000
 Structure written by MMmdl.
 42 43  0  0  0  0  0  0  0  0  1 V2000
  151.6487  139.0076  154.9482 C   0  0  0  0  0  0  0  0  0  0  0  0
  150.1448  139.0007  154.6206 C   0  0  2  0  0  0  0  0  0  0  0  0
  149.6091  140.4473  154.6037 C   0  0  0  0  0  0  0  0  0  0  0  0
  148.1130  140.5078  154.2687 C   0  0  0  0  0  0  0  0  0  0  0  0
  147.2976  139.6478  155.2444 C   0  0  0  0  0  0  0  0  0  0  0  0
  147.7978  138.1894  155.2778 C   0  0  1  0  0  0  0  0  0  0  0  0
  147.4895  137.5020  154.0226 N   0  0  0  0  0  0  0  0  0  0  0  0
  146.2792  137.0635  153.6473 C   0  0  0  0  0  0  0  0  0  0  0  0
  145.2376  137.3557  154.2387 O   0  0  0  0  0  0  0  0  0  0  0  0
  146.3708  136.2824  152.5547 N   0  0  0  0  0  0  0  0  0  0  0  0
  145.3675  135.6661  151.8956 C   0  0  0  0  0  0  0  0  0  0  0  0
  144.1774  135.7111  152.2119 O   0  0  0  0  0  0  0  0  0  0  0  0
  145.7812  134.8492  150.6684 C   0  0  0  0  0  0  0  0  0  0  0  0
  145.1952  133.5207  150.6867 N   0  0  0  0  0  0  0  0  0  0  0  0
  143.8432  133.2001  150.6925 C   0  0  0  0  0  0  0  0  0  0  0  0
  143.7651  131.8260  150.7183 C   0  0  0  0  0  0  0  0  0  0  0  0
  145.0481  131.2836  150.7275 N   0  0  0  0  0  0  0  0  0  0  0  0
  145.8419  132.3464  150.7059 C   0  0  0  0  0  0  0  0  0  0  0  0
  149.3147  138.1185  155.5952 C   0  0  1  0  0  0  0  0  0  0  0  0
  149.8054  136.6575  155.6536 C   0  0  0  0  0  0  0  0  0  0  0  0
  151.8305  139.3386  155.9711 H   0  0  0  0  0  0  0  0  0  0  0  0
  152.1904  139.6798  154.2821 H   0  0  0  0  0  0  0  0  0  0  0  0
  152.0942  138.0202  154.8297 H   0  0  0  0  0  0  0  0  0  0  0  0
  150.0355  138.5950  153.6139 H   0  0  0  0  0  0  0  0  0  0  0  0
  149.7798  140.9132  155.5752 H   0  0  0  0  0  0  0  0  0  0  0  0
  150.1642  141.0419  153.8773 H   0  0  0  0  0  0  0  0  0  0  0  0
  147.7664  141.5408  154.3081 H   0  0  0  0  0  0  0  0  0  0  0  0
  147.9498  140.1675  153.2454 H   0  0  0  0  0  0  0  0  0  0  0  0
  147.3734  140.0747  156.2452 H   0  0  0  0  0  0  0  0  0  0  0  0
  146.2398  139.6856  154.9810 H   0  0  0  0  0  0  0  0  0  0  0  0
  147.2684  137.6729  156.0807 H   0  0  0  0  0  0  0  0  0  0  0  0
  148.2628  137.3563  153.3904 H   0  0  0  0  0  0  0  0  0  0  0  0
  147.2965  136.1527  152.1745 H   0  0  0  0  0  0  0  0  0  0  0  0
  145.4687  135.3668  149.7605 H   0  0  0  0  0  0  0  0  0  0  0  0
  146.8671  134.7522  150.6279 H   0  0  0  0  0  0  0  0  0  0  0  0
  143.0700  133.9543  150.6801 H   0  0  0  0  0  0  0  0  0  0  0  0
  142.8915  131.1911  150.7309 H   0  0  0  0  0  0  0  0  0  0  0  0
  146.9195  132.2698  150.7089 H   0  0  0  0  0  0  0  0  0  0  0  0
  149.4447  138.5315  156.5969 H   0  0  0  0  0  0  0  0  0  0  0  0
  149.8392  136.2034  154.6629 H   0  0  0  0  0  0  0  0  0  0  0  0
  149.1484  136.0492  156.2756 H   0  0  0  0  0  0  0  0  0  0  0  0
  150.8030  136.5864  156.0857 H   0  0  0  0  0  0  0  0  0  0  0  0
  1  2  1  0  0  0  0
  1 21  1  0  0  0  0
  1 22  1  0  0  0  0
  1 23  1  0  0  0  0
  2 19  1  0  0  0  0
  2  3  1  0  0  0  0
  2 24  1  0  0  0  0
  3  4  1  0  0  0  0
  3 25  1  0  0  0  0
  3 26  1  0  0  0  0
  4  5  1  0  0  0  0
  4 27  1  0  0  0  0
  4 28  1  0  0  0  0
  5  6  1  0  0  0  0
  5 29  1  0  0  0  0
  5 30  1  0  0  0  0
  6  7  1  0  0  0  0
  6 19  1  0  0  0  0
  6 31  1  0  0  0  0
  7  8  1  0  0  0  0
  7 32  1  0  0  0  0
  8  9  2  0  0  0  0
  8 10  1  0  0  0  0
 10 11  1  0  0  0  0
 10 33  1  0  0  0  0
 11 12  2  0  0  0  0
 11 13  1  0  0  0  0
 13 14  1  0  0  0  0
 13 34  1  0  0  0  0
 13 35  1  0  0  0  0
 14 18  1  0  0  0  0
 14 15  1  0  0  0  0
 15 16  2  0  0  0  0
 15 36  1  0  0  0  0
 16 17  1  0  0  0  0
 16 37  1  0  0  0  0
 17 18  2  0  0  0  0
 18 38  1  0  0  0  0
 19 20  1  0  0  0  0
 19 39  1  0  0  0  0
 20 40  1  0  0  0  0
 20 41  1  0  0  0  0
 20 42  1  0  0  0  0
M  END
> <s_m_source_file>
AV-unprocessed.smi

> <i_m_source_file_index>
527

> <i_lp_mmshare_version>
43012

> <i_f3d_flags>
0

> <s_epik_input>
W0NIM11bQ0BASF0xW0NIMl1bQ0gyXVtDSDJdW0NASF0oW0NASF0xW0NIM10pW05IXUMoPU8pW05IXUMoPU8pW0NIMl1uMltjSF1bY0hdbltjSF0y

> <s_epik_cmdline>
J2VwaWtfcHl0aG9uJywgJy1waCcsICc3LjAnLCAnLXRuJywgJzgnLCAnLW1hJywgJzIwMCcsICctbWV0YWxfYmluZGluZycsICctaW1hZScsICc8aW5maWxlLm1hZT4nLCAnLW9tYWUnLCAnPG91dGZpbGUubWFlPic=

> <r_lp_tautomer_probability>
1

> <r_epik_Ionization_Penalty>
0.172132

> <r_epik_Ionization_Penalty_Charging>
0.172105

> <r_epik_Ionization_Penalty_Neutral>
2.71747e-05

> <r_epik_State_Penalty>
0.161503

> <r_epik_Charging_Adjusted_Penalty>
0.333607

> <i_epik_Tot_Q>
0

> <i_epik_Tot_abs_Q>
0

> <r_epik_Metal_State_Penalty>
0.124763

> <b_epik_Metal_Only>
0

> <s_lp_Force_Field>
OPLS_2005

> <r_lp_Energy>
14.2901

> <b_lp_Chiralities_Consistent>
1

> <s_lp_Variant>
AV-unprocessed.smi:527-1

> <Gold.Version>
5.8.1

> <Gold.Id.Protein>
6NUR|6NUR_protein|mol2

> <Gold.PLP.Fitness>
43.6929

> <Gold.PLP.PLP>
-29.6871

> <Gold.PLP.part.hbond>
-2.0000

> <Gold.PLP.part.metal>
0.0000

> <Gold.PLP.part.buried>
-2.5552

> <Gold.PLP.part.nonpolar>
-25.3459

> <Gold.PLP.part.repulsive>
0.3870

> <Gold.PLP.ligand.clash>
0.0000

> <Gold.PLP.ligand.torsion>
0.3680

> <Gold.PLP.Chemscore.Hbond>
1.9120

> <Gold.PLP.Chemscore.CHOScore>
2.9968

> <Gold.PLP.Chemscore.Metal>
0.0000

> <Gold.Chemscore.Hbonds>
donor molecule, donor type, donor heavy atom, donor atom, acceptor molecule, acceptor atom, score
      L1  H     7    32       P1  7948  0.91
      L1  H    10    33       P1  7948  1.00
      L1  C    15    36       P1 10186  1.00
      L1  C    16    37       P1 10952  1.00
      L1  C    18    38       P1 10747  1.00

> <Gold.PLP.Chemscore.Internal.Correction>
0.0154

> <Gold.Rescore>
     Score         DG    S(hbond)    S(metal)    S(lipo)     H(rot)  DE(clash)    DE(int)     intcor
     12.14     -15.13       1.91        0.00      64.32       1.66       0.18       2.81       ----

> <Gold.Chemscore.Fitness>
12.1365

> <Gold.Chemscore.DG>
-15.1282

> <Gold.Chemscore.ZeroCoef>
-5.4800

> <Gold.Chemscore.Hbond>
1.9100

> <Gold.Chemscore.Metal>
0.0000

> <Gold.Chemscore.Lipo>
64.3225

> <Gold.Chemscore.Internal_Hbond>
0.0000

> <Gold.Chemscore.DEClash>
0.1769

> <Gold.Chemscore.DEInternal>
2.8148

> <Gold.Chemscore.Rot>
1.6629

> <Gold.Chemscore.Internal.Correction>
   9.000000E+99

> <Gold.Chemscore.Hbonds>
donor molecule, donor type, donor heavy atom, donor atom, acceptor molecule, acceptor atom, score
      L1  H     7    32       P1  7948  0.85
      L1  H    10    33       P1  7948  1.00

> <Gold.Chemscore.Hbond.Weighted>
-6.3794

> <Gold.Chemscore.Metal.Weighted>
-0.0000

> <Gold.Chemscore.Lipo.Weighted>
-7.5257

> <Gold.Chemscore.Internal_Hbond.Weighted>
0.0000

> <Gold.Chemscore.DEClash.Weighted>
0.1769

> <Gold.Chemscore.DEInternal.Weighted>
2.8148

> <Gold.Chemscore.Rot.Weighted>
4.2569

> <Gold.Chemscore.Internal.Correction.Weighted>
   9.000000E+99

> <Gold.Protein.RotatedTorsions>
[ 6907 6896 6895 6894 ] final -100.91 input  -60.11 | X-H torsion
[ 7974 7965 7964 7962 ] final  125.48 input  175.53 | X-H torsion
[ 8008 7997 7996 7995 ] final  176.95 input   59.86 | X-H torsion
[ 10167 10162 10161 10158 ] final -163.28 input  -65.29 | X-H torsion
[ 10718 10713 10712 10709 ] final   43.79 input   66.30 | X-H torsion
[ 10763 10752 10751 10750 ] final    3.73 input  -60.55 | X-H torsion
[ 11005 11000 10999 10996 ] final  -45.65 input  -57.11 | X-H torsion

> <Gold.Protein.ActiveResidues>
 VAL166  LYS551  ARG553  GLY616  TRP617  ASP618  TYR619  PRO620  LYS621  CYS622 
 ASP623  PHE694  ASN695  SER759  ASP760  ASP761  ALA762  ILE779  LEU786  VAL792 
 PHE793  MET794  SER795  GLU796  ALA797  LYS798  CYS799  TRP800  GLU811  SER814 

> <Gold.Protein.RotatedAtoms>
  150.7134  134.0815  159.3899 H   0  0  0  0  0  0  0  0  0  0  0  0  # atno 6907 bound_to 6896
  151.8799  135.0455  160.0497 H   0  0  0  0  0  0  0  0  0  0  0  0  # atno 6908 bound_to 6896
  152.2576  133.5233  159.5399 H   0  0  0  0  0  0  0  0  0  0  0  0  # atno 6909 bound_to 6896
  145.0725  139.3719  143.4950 H   0  0  0  0  0  0  0  0  0  0  0  0  # atno 7974 bound_to 7965
  156.0709  140.1370  156.9829 H   0  0  0  0  0  0  0  0  0  0  0  0  # atno 8008 bound_to 7997
  154.4531  140.0972  156.6730 H   0  0  0  0  0  0  0  0  0  0  0  0  # atno 8009 bound_to 7997
  155.5229  140.3456  155.4412 H   0  0  0  0  0  0  0  0  0  0  0  0  # atno 8010 bound_to 7997
  139.6332  144.0400  152.2033 H   0  0  0  0  0  0  0  0  0  0  0  0  # atno 10167 bound_to 10162
  157.4198  130.7962  149.7505 H   0  0  0  0  0  0  0  0  0  0  0  0  # atno 10718 bound_to 10713
  153.2797  135.6939  153.7397 H   0  0  0  0  0  0  0  0  0  0  0  0  # atno 10763 bound_to 10752
  153.6389  135.3397  155.3066 H   0  0  0  0  0  0  0  0  0  0  0  0  # atno 10764 bound_to 10752
  154.8491  135.4427  154.1847 H   0  0  0  0  0  0  0  0  0  0  0  0  # atno 10765 bound_to 10752
  141.0529  133.6736  156.3043 H   0  0  0  0  0  0  0  0  0  0  0  0  # atno 11005 bound_to 11000
  146.3529  140.0476  142.8638 LP  0  0  0  0  0  0  0  0  0  0  0  0  # atno 17320 bound_to 7965
  145.1275  140.9499  143.4564 LP  0  0  0  0  0  0  0  0  0  0  0  0  # atno 17321 bound_to 7965
  140.0071  144.6251  150.7679 LP  0  0  0  0  0  0  0  0  0  0  0  0  # atno 17342 bound_to 10162
  140.7451  143.2870  151.3436 LP  0  0  0  0  0  0  0  0  0  0  0  0  # atno 17343 bound_to 10162
  155.9877  130.3965  150.3154 LP  0  0  0  0  0  0  0  0  0  0  0  0  # atno 17370 bound_to 10713
  157.1300  131.0269  151.2973 LP  0  0  0  0  0  0  0  0  0  0  0  0  # atno 17371 bound_to 10713
  140.6020  134.5545  157.5519 LP  0  0  0  0  0  0  0  0  0  0  0  0  # atno 17394 bound_to 11000
  139.9365  134.7865  156.0789 LP  0  0  0  0  0  0  0  0  0  0  0  0  # atno 17395 bound_to 11000

$$$$
