AV-unprocessed.smi:44|AV-procd|sdf|397|dock5
  -GOLD-   2262016253D 1   1.00000     0.00000
 Structure written by MMmdl.
 29 31  0  0  0  0  0  0  0  0  1 V2000
  151.6039  136.1419  154.4758 O   0  0  0  0  0  0  0  0  0  0  0  0
  151.2044  137.2992  154.5853 C   0  0  0  0  0  0  0  0  0  0  0  0
  150.2593  137.8472  153.7833 N   0  0  0  0  0  0  0  0  0  0  0  0
  149.7972  139.1819  153.9016 C   0  0  0  0  0  0  0  0  0  0  0  0
  150.2156  140.0444  154.7913 N   0  0  0  0  0  0  0  0  0  0  0  0
  151.1766  139.5107  155.6267 C   0  0  0  0  0  0  0  0  0  0  0  0
  151.7024  138.2464  155.6103 C   0  0  0  0  0  0  0  0  0  0  0  0
  152.6496  138.0775  156.6121 N   0  0  0  0  0  0  0  0  0  0  0  0
  152.6510  139.2706  157.2030 C   0  0  0  0  0  0  0  0  0  0  0  0
  151.8061  140.1779  156.6760 N   0  0  0  0  0  0  0  0  0  0  0  0
  151.6039  141.5795  157.1533 C   0  0  1  0  0  0  0  0  0  0  0  0
  150.1327  141.8439  157.4880 C   0  0  0  0  0  0  0  0  0  0  0  0
  150.2702  142.8378  158.6195 C   0  0  0  0  0  0  0  0  0  0  0  0
  151.4913  142.2698  159.3465 C   0  0  2  0  0  0  0  0  0  0  0  0
  152.2471  143.2193  160.2917 C   0  0  0  0  0  0  0  0  0  0  0  0
  151.7586  143.1473  161.6150 O   0  0  0  0  0  0  0  0  0  0  0  0
  152.3459  141.7678  158.3227 O   0  0  0  0  0  0  0  0  0  0  0  0
  149.8649  137.2630  153.0606 H   0  0  0  0  0  0  0  0  0  0  0  0
  151.9893  142.2218  156.3599 H   0  0  0  0  0  0  0  0  0  0  0  0
  151.1696  141.4042  159.9275 H   0  0  0  0  0  0  0  0  0  0  0  0
  149.0373  139.4356  153.1612 H   0  0  0  0  0  0  0  0  0  0  0  0
  153.2869  139.4918  158.0475 H   0  0  0  0  0  0  0  0  0  0  0  0
  149.5927  142.2288  156.6227 H   0  0  0  0  0  0  0  0  0  0  0  0
  149.6496  140.9301  157.8371 H   0  0  0  0  0  0  0  0  0  0  0  0
  150.4666  143.8305  158.2134 H   0  0  0  0  0  0  0  0  0  0  0  0
  149.3839  142.8924  159.2519 H   0  0  0  0  0  0  0  0  0  0  0  0
  153.3040  142.9526  160.3118 H   0  0  0  0  0  0  0  0  0  0  0  0
  152.1837  144.2469  159.9330 H   0  0  0  0  0  0  0  0  0  0  0  0
  151.5046  144.0154  161.8883 H   0  0  0  0  0  0  0  0  0  0  0  0
  1  2  2  0  0  0  0
  2  7  1  0  0  0  0
  2  3  1  0  0  0  0
  3 18  1  0  0  0  0
  3  4  1  0  0  0  0
  4  5  2  0  0  0  0
  4 21  1  0  0  0  0
  5  6  1  0  0  0  0
  6 10  1  0  0  0  0
  6  7  2  0  0  0  0
  7  8  1  0  0  0  0
  8  9  2  0  0  0  0
  9 10  1  0  0  0  0
  9 22  1  0  0  0  0
 10 11  1  0  0  0  0
 11 19  1  0  0  0  0
 11 17  1  0  0  0  0
 11 12  1  0  0  0  0
 12 13  1  0  0  0  0
 12 23  1  0  0  0  0
 12 24  1  0  0  0  0
 13 14  1  0  0  0  0
 13 25  1  0  0  0  0
 13 26  1  0  0  0  0
 14 20  1  0  0  0  0
 14 15  1  0  0  0  0
 14 17  1  0  0  0  0
 15 16  1  0  0  0  0
 15 27  1  0  0  0  0
 15 28  1  0  0  0  0
 16 29  1  0  0  0  0
M  END
> <s_m_source_file>
AV-unprocessed.smi

> <i_m_source_file_index>
44

> <i_lp_mmshare_version>
43012

> <i_f3d_flags>
0

> <s_epik_input>
bjFbY0hdW25IXWMoPU8pYyhjMTIpbltjSF1uMltDQEhdM1tDSDJdW0NIMl1bQ0BIXShPMylbQ0gyXVtPSF0=

> <s_epik_cmdline>
J2VwaWtfcHl0aG9uJywgJy1waCcsICc3LjAnLCAnLXRuJywgJzgnLCAnLW1hJywgJzIwMCcsICctbWV0YWxfYmluZGluZycsICctaW1hZScsICc8aW5maWxlLm1hZT4nLCAnLW9tYWUnLCAnPG91dGZpbGUubWFlPic=

> <r_lp_tautomer_probability>
0.85571

> <r_epik_Ionization_Penalty>
0.00801444

> <r_epik_Ionization_Penalty_Charging>
0.00794574

> <r_epik_Ionization_Penalty_Neutral>
6.87072e-05

> <r_epik_State_Penalty>
0.0826172

> <r_epik_Charging_Adjusted_Penalty>
0.090563

> <i_epik_Tot_Q>
0

> <i_epik_Tot_abs_Q>
0

> <r_epik_Metal_State_Penalty>
0.440697

> <b_epik_Metal_Only>
0

> <s_epik_Chemistry_Notes>
This compound contains an acetal/aminal-like group ( X-CH(R)-Y where X, Y are N, S, or O) that may be acid/base labile, releasing an aldehyde.

> <s_lp_Force_Field>
OPLS_2005

> <r_lp_Energy>
42.4933

> <b_lp_Chiralities_Consistent>
1

> <s_lp_Variant>
AV-unprocessed.smi:44-3

> <Gold.Version>
5.8.1

> <Gold.Id.Protein>
6NUR|6NUR_protein|mol2

> <Gold.PLP.Fitness>
36.9233

> <Gold.PLP.PLP>
-26.0864

> <Gold.PLP.part.hbond>
-5.2656

> <Gold.PLP.part.metal>
0.0000

> <Gold.PLP.part.buried>
-3.2928

> <Gold.PLP.part.nonpolar>
-19.0995

> <Gold.PLP.part.repulsive>
0.2990

> <Gold.PLP.ligand.clash>
0.0000

> <Gold.PLP.ligand.torsion>
0.4656

> <Gold.PLP.Chemscore.Hbond>
2.9230

> <Gold.PLP.Chemscore.CHOScore>
0.9984

> <Gold.PLP.Chemscore.Metal>
0.0000

> <Gold.Chemscore.Hbonds>
donor molecule, donor type, donor heavy atom, donor atom, acceptor molecule, acceptor atom, score
      L1  H     3    18       P1  7948  1.00
      P1  H  6933  6945       L1    16  0.23
      P1  H  7989  7998       L1     5  0.39
      P1  H 10752 10763       L1     1  0.89
      L1  C     4    21       P1  7957  0.81

> <Gold.PLP.Chemscore.Internal.Correction>
0.0040

> <Gold.Rescore>
     Score         DG    S(hbond)    S(metal)    S(lipo)     H(rot)  DE(clash)    DE(int)     intcor
      9.76     -10.48       1.90        0.00      38.20       2.27       0.07       0.65       ----

> <Gold.Chemscore.Fitness>
9.7564

> <Gold.Chemscore.DG>
-10.4774

> <Gold.Chemscore.ZeroCoef>
-5.4800

> <Gold.Chemscore.Hbond>
1.8994

> <Gold.Chemscore.Metal>
0.0000

> <Gold.Chemscore.Lipo>
38.2038

> <Gold.Chemscore.Internal_Hbond>
0.0000

> <Gold.Chemscore.DEClash>
0.0741

> <Gold.Chemscore.DEInternal>
0.6469

> <Gold.Chemscore.Rot>
2.2720

> <Gold.Chemscore.Internal.Correction>
   9.000000E+99

> <Gold.Chemscore.Hbonds>
donor molecule, donor type, donor heavy atom, donor atom, acceptor molecule, acceptor atom, score
      L1  H     3    18       P1  7948  0.30
      P1  H  6933  6945       L1    16  0.13
      P1  H 10752 10763       L1     1  0.82

> <Gold.Chemscore.Hbond.Weighted>
-6.3439

> <Gold.Chemscore.Metal.Weighted>
-0.0000

> <Gold.Chemscore.Lipo.Weighted>
-4.4699

> <Gold.Chemscore.Internal_Hbond.Weighted>
0.0000

> <Gold.Chemscore.DEClash.Weighted>
0.0741

> <Gold.Chemscore.DEInternal.Weighted>
0.6469

> <Gold.Chemscore.Rot.Weighted>
5.8164

> <Gold.Chemscore.Internal.Correction.Weighted>
   9.000000E+99

> <Gold.Protein.RotatedTorsions>
[ 6907 6896 6895 6894 ] final   50.81 input  -60.11 | X-H torsion
[ 7974 7965 7964 7962 ] final  -51.50 input  175.53 | X-H torsion
[ 8008 7997 7996 7995 ] final  154.64 input   59.86 | X-H torsion
[ 10167 10162 10161 10158 ] final  -38.88 input  -65.29 | X-H torsion
[ 10718 10713 10712 10709 ] final  -93.60 input   66.30 | X-H torsion
[ 10763 10752 10751 10750 ] final   67.26 input  -60.55 | X-H torsion
[ 11005 11000 10999 10996 ] final  -88.27 input  -57.11 | X-H torsion

> <Gold.Protein.ActiveResidues>
 VAL166  LYS551  ARG553  GLY616  TRP617  ASP618  TYR619  PRO620  LYS621  CYS622 
 ASP623  PHE694  ASN695  SER759  ASP760  ASP761  ALA762  ILE779  LEU786  VAL792 
 PHE793  MET794  SER795  GLU796  ALA797  LYS798  CYS799  TRP800  GLU811  SER814 

> <Gold.Protein.RotatedAtoms>
  152.3059  134.7556  160.0347 H   0  0  0  0  0  0  0  0  0  0  0  0  # atno 6907 bound_to 6896
  151.8053  133.3369  159.3547 H   0  0  0  0  0  0  0  0  0  0  0  0  # atno 6908 bound_to 6896
  150.7296  134.5645  159.5903 H   0  0  0  0  0  0  0  0  0  0  0  0  # atno 6909 bound_to 6896
  145.9183  140.7856  142.9660 H   0  0  0  0  0  0  0  0  0  0  0  0  # atno 7974 bound_to 7965
  156.2520  140.1961  156.6677 H   0  0  0  0  0  0  0  0  0  0  0  0  # atno 8008 bound_to 7997
  154.6416  140.0583  156.9878 H   0  0  0  0  0  0  0  0  0  0  0  0  # atno 8009 bound_to 7997
  155.1554  140.3255  155.4425 H   0  0  0  0  0  0  0  0  0  0  0  0  # atno 8010 bound_to 7997
  140.7080  143.3249  151.2703 H   0  0  0  0  0  0  0  0  0  0  0  0  # atno 10167 bound_to 10162
  156.0015  130.5033  150.5800 H   0  0  0  0  0  0  0  0  0  0  0  0  # atno 10718 bound_to 10713
  153.0178  135.5290  154.6951 H   0  0  0  0  0  0  0  0  0  0  0  0  # atno 10763 bound_to 10752
  154.6075  135.2875  155.0470 H   0  0  0  0  0  0  0  0  0  0  0  0  # atno 10764 bound_to 10752
  154.1504  135.6564  153.5015 H   0  0  0  0  0  0  0  0  0  0  0  0  # atno 10765 bound_to 10752
  141.1604  133.7560  156.9427 H   0  0  0  0  0  0  0  0  0  0  0  0  # atno 11005 bound_to 11000
  144.6750  140.1935  143.7394 LP  0  0  0  0  0  0  0  0  0  0  0  0  # atno 17320 bound_to 7965
  145.8583  139.2210  143.1731 LP  0  0  0  0  0  0  0  0  0  0  0  0  # atno 17321 bound_to 7965
  139.6715  144.0012  152.2755 LP  0  0  0  0  0  0  0  0  0  0  0  0  # atno 17342 bound_to 10162
  139.9612  144.6556  150.8077 LP  0  0  0  0  0  0  0  0  0  0  0  0  # atno 17343 bound_to 10162
  157.3682  131.0761  151.1580 LP  0  0  0  0  0  0  0  0  0  0  0  0  # atno 17370 bound_to 10713
  157.2342  130.6539  149.5862 LP  0  0  0  0  0  0  0  0  0  0  0  0  # atno 17371 bound_to 10713
  140.1310  134.9356  157.2337 LP  0  0  0  0  0  0  0  0  0  0  0  0  # atno 17394 bound_to 11000
  140.2953  134.3194  155.7304 LP  0  0  0  0  0  0  0  0  0  0  0  0  # atno 17395 bound_to 11000

$$$$
