AV-unprocessed.smi:158|AV-procd|sdf|1323|dock1
  -GOLD-   2262019 13D 1   1.00000     0.00000
 Structure written by MMmdl.
 31 33  0  0  0  0  0  0  0  0  1 V2000
  154.3990  140.8645  161.0686 N   0  0  0  0  0  0  0  0  0  0  0  0
  153.2589  141.3306  160.5397 C   0  0  0  0  0  0  0  0  0  0  0  0
  152.7714  142.5085  160.9944 N   0  0  0  0  0  0  0  0  0  0  0  0
  151.6360  143.0084  160.4917 C   0  0  0  0  0  0  0  0  0  0  0  0
  151.1038  144.5144  161.1408 Cl  0  0  0  0  0  0  0  0  0  0  0  0
  150.8652  142.4712  159.5408 N   0  0  0  0  0  0  0  0  0  0  0  0
  151.3519  141.2833  159.0791 C   0  0  0  0  0  0  0  0  0  0  0  0
  152.5411  140.6483  159.5271 C   0  0  0  0  0  0  0  0  0  0  0  0
  152.7311  139.4580  158.8389 N   0  0  0  0  0  0  0  0  0  0  0  0
  151.7078  139.3976  158.0293 C   0  0  0  0  0  0  0  0  0  0  0  0
  150.8258  140.4535  158.1089 N   0  0  0  0  0  0  0  0  0  0  0  0
  149.5719  140.6541  157.3140 C   0  0  2  0  0  0  0  0  0  0  0  0
  149.2315  139.4308  156.7350 O   0  0  0  0  0  0  0  0  0  0  0  0
  148.9459  139.6058  155.3513 C   0  0  2  0  0  0  0  0  0  0  0  0
  149.2455  138.3004  154.5967 C   0  0  0  0  0  0  0  0  0  0  0  0
  149.4071  138.5511  153.2164 O   0  0  0  0  0  0  0  0  0  0  0  0
  149.8101  140.8007  154.9364 C   0  0  1  0  0  0  0  0  0  0  0  0
  149.2590  141.4821  153.8276 O   0  0  0  0  0  0  0  0  0  0  0  0
  149.7646  141.6738  156.1776 C   0  0  2  0  0  0  0  0  0  0  0  0
  150.8768  142.3963  156.3339 F   0  0  0  0  0  0  0  0  0  0  0  0
  148.8260  140.9638  158.0469 H   0  0  0  0  0  0  0  0  0  0  0  0
  147.8866  139.8588  155.2735 H   0  0  0  0  0  0  0  0  0  0  0  0
  150.8322  140.4892  154.7202 H   0  0  0  0  0  0  0  0  0  0  0  0
  148.9084  142.3499  156.1697 H   0  0  0  0  0  0  0  0  0  0  0  0
  154.7808  139.9877  160.7437 H   0  0  0  0  0  0  0  0  0  0  0  0
  154.8734  141.3886  161.7897 H   0  0  0  0  0  0  0  0  0  0  0  0
  151.5650  138.5716  157.3477 H   0  0  0  0  0  0  0  0  0  0  0  0
  150.1392  137.8144  154.9886 H   0  0  0  0  0  0  0  0  0  0  0  0
  148.4186  137.6007  154.7202 H   0  0  0  0  0  0  0  0  0  0  0  0
  149.3086  137.7350  152.7499 H   0  0  0  0  0  0  0  0  0  0  0  0
  149.6326  141.1171  153.0393 H   0  0  0  0  0  0  0  0  0  0  0  0
  1  2  1  0  0  0  0
  1 25  1  0  0  0  0
  1 26  1  0  0  0  0
  2  8  1  0  0  0  0
  2  3  2  0  0  0  0
  3  4  1  0  0  0  0
  4  5  1  0  0  0  0
  4  6  2  0  0  0  0
  6  7  1  0  0  0  0
  7 11  1  0  0  0  0
  7  8  2  0  0  0  0
  8  9  1  0  0  0  0
  9 10  2  0  0  0  0
 10 11  1  0  0  0  0
 10 27  1  0  0  0  0
 11 12  1  0  0  0  0
 12 21  1  0  0  0  0
 12 19  1  0  0  0  0
 12 13  1  0  0  0  0
 13 14  1  0  0  0  0
 14 22  1  0  0  0  0
 14 15  1  0  0  0  0
 14 17  1  0  0  0  0
 15 16  1  0  0  0  0
 15 28  1  0  0  0  0
 15 29  1  0  0  0  0
 16 30  1  0  0  0  0
 17 23  1  0  0  0  0
 17 18  1  0  0  0  0
 17 19  1  0  0  0  0
 18 31  1  0  0  0  0
 19 24  1  0  0  0  0
 19 20  1  0  0  0  0
M  END
> <s_m_source_file>
AV-unprocessed.smi

> <i_m_source_file_index>
158

> <i_lp_mmshare_version>
43012

> <i_f3d_flags>
0

> <s_epik_input>
Q2xjKG4xKW5jKFtOSDJdKWMoYzEyKW5bY0hdbjJbQ0BASF0zT1tDQEhdKFtDSDJdW09IXSlbQ0BASF0oW09IXSlbQ0BASF0zRg==

> <s_epik_cmdline>
J2VwaWtfcHl0aG9uJywgJy1waCcsICc3LjAnLCAnLXRuJywgJzgnLCAnLW1hJywgJzIwMCcsICctbWV0YWxfYmluZGluZycsICctaW1hZScsICc8aW5maWxlLm1hZT4nLCAnLW9tYWUnLCAnPG91dGZpbGUubWFlPic=

> <r_lp_tautomer_probability>
1

> <r_epik_Ionization_Penalty>
6.51543e-05

> <r_epik_Ionization_Penalty_Charging>
0

> <r_epik_Ionization_Penalty_Neutral>
6.51543e-05

> <r_epik_State_Penalty>
-0

> <r_epik_Charging_Adjusted_Penalty>
0

> <i_epik_Tot_Q>
0

> <i_epik_Tot_abs_Q>
0

> <r_epik_Metal_State_Penalty>
-0

> <b_epik_Metal_Only>
0

> <s_epik_Chemistry_Notes>
This compound contains an acetal/aminal-like group ( X-CH(R)-Y where X, Y are N, S, or O) that may be acid/base labile, releasing an aldehyde.

> <s_lp_Force_Field>
OPLS_2005

> <r_lp_Energy>
34.2201

> <b_lp_Chiralities_Consistent>
1

> <s_lp_Variant>
AV-unprocessed.smi:158-1

> <Gold.Version>
5.8.1

> <Gold.Id.Protein>
6NUR|6NUR_protein|mol2

> <Gold.PLP.Fitness>
42.2457

> <Gold.PLP.PLP>
-34.4557

> <Gold.PLP.part.hbond>
-6.7474

> <Gold.PLP.part.metal>
0.0000

> <Gold.PLP.part.buried>
-4.8810

> <Gold.PLP.part.nonpolar>
-23.1763

> <Gold.PLP.part.repulsive>
0.0594

> <Gold.PLP.ligand.clash>
0.0000

> <Gold.PLP.ligand.torsion>
0.6072

> <Gold.PLP.Chemscore.Hbond>
2.9913

> <Gold.PLP.Chemscore.CHOScore>
0.0000

> <Gold.PLP.Chemscore.Metal>
0.0000

> <Gold.Chemscore.Hbonds>
donor molecule, donor type, donor heavy atom, donor atom, acceptor molecule, acceptor atom, score
      L1  H    16    30       P1  7948  1.00
      L1  H    18    31       P1  7957  0.68

> <Gold.PLP.Chemscore.Internal.Correction>
0.0306

> <Gold.Rescore>
     Score         DG    S(hbond)    S(metal)    S(lipo)     H(rot)  DE(clash)    DE(int)     intcor
      9.36     -11.33       2.69        0.00      41.41       3.12       1.11       0.86       ----

> <Gold.Chemscore.Fitness>
9.3580

> <Gold.Chemscore.DG>
-11.3267

> <Gold.Chemscore.ZeroCoef>
-5.4800

> <Gold.Chemscore.Hbond>
2.6936

> <Gold.Chemscore.Metal>
0.0000

> <Gold.Chemscore.Lipo>
41.4097

> <Gold.Chemscore.Internal_Hbond>
0.0000

> <Gold.Chemscore.DEClash>
1.1057

> <Gold.Chemscore.DEInternal>
0.8630

> <Gold.Chemscore.Rot>
3.1230

> <Gold.Chemscore.Internal.Correction>
   9.000000E+99

> <Gold.Chemscore.Hbonds>
donor molecule, donor type, donor heavy atom, donor atom, acceptor molecule, acceptor atom, score
      L1  H    16    30       P1  7948  0.93
      L1  H    18    31       P1  7957  0.68

> <Gold.Chemscore.Hbond.Weighted>
-8.9968

> <Gold.Chemscore.Metal.Weighted>
-0.0000

> <Gold.Chemscore.Lipo.Weighted>
-4.8449

> <Gold.Chemscore.Internal_Hbond.Weighted>
0.0000

> <Gold.Chemscore.DEClash.Weighted>
1.1057

> <Gold.Chemscore.DEInternal.Weighted>
0.8630

> <Gold.Chemscore.Rot.Weighted>
7.9950

> <Gold.Chemscore.Internal.Correction.Weighted>
   9.000000E+99

> <Gold.Protein.RotatedTorsions>
[ 6907 6896 6895 6894 ] final  168.37 input  -60.11 | X-H torsion
[ 7974 7965 7964 7962 ] final  -20.93 input  175.53 | X-H torsion
[ 8008 7997 7996 7995 ] final  -79.32 input   59.86 | X-H torsion
[ 10167 10162 10161 10158 ] final   10.65 input  -65.29 | X-H torsion
[ 10718 10713 10712 10709 ] final   30.46 input   66.30 | X-H torsion
[ 10763 10752 10751 10750 ] final   26.13 input  -60.55 | X-H torsion
[ 11005 11000 10999 10996 ] final   31.87 input  -57.11 | X-H torsion

> <Gold.Protein.ActiveResidues>
 VAL166  LYS551  ARG553  GLY616  TRP617  ASP618  TYR619  PRO620  LYS621  CYS622 
 ASP623  PHE694  ASN695  SER759  ASP760  ASP761  ALA762  ILE779  LEU786  VAL792 
 PHE793  MET794  SER795  GLU796  ALA797  LYS798  CYS799  TRP800  GLU811  SER814 

> <Gold.Protein.RotatedAtoms>
  151.8488  133.3436  159.3666 H   0  0  0  0  0  0  0  0  0  0  0  0  # atno 6907 bound_to 6896
  150.7213  134.5320  159.5714 H   0  0  0  0  0  0  0  0  0  0  0  0  # atno 6908 bound_to 6896
  152.2809  134.7830  160.0448 H   0  0  0  0  0  0  0  0  0  0  0  0  # atno 6909 bound_to 6896
  146.1761  140.4271  142.8513 H   0  0  0  0  0  0  0  0  0  0  0  0  # atno 7974 bound_to 7965
  154.5774  140.0680  156.9054 H   0  0  0  0  0  0  0  0  0  0  0  0  # atno 8008 bound_to 7997
  155.2524  140.3352  155.4262 H   0  0  0  0  0  0  0  0  0  0  0  0  # atno 8009 bound_to 7997
  156.2164  140.1780  156.7564 H   0  0  0  0  0  0  0  0  0  0  0  0  # atno 8010 bound_to 7997
  140.6181  143.8265  150.7142 H   0  0  0  0  0  0  0  0  0  0  0  0  # atno 10167 bound_to 10162
  157.2598  130.7156  149.6448 H   0  0  0  0  0  0  0  0  0  0  0  0  # atno 10718 bound_to 10713
  153.0644  135.6567  154.0389 H   0  0  0  0  0  0  0  0  0  0  0  0  # atno 10763 bound_to 10752
  154.0050  135.2933  155.3400 H   0  0  0  0  0  0  0  0  0  0  0  0  # atno 10764 bound_to 10752
  154.6995  135.5250  153.8575 H   0  0  0  0  0  0  0  0  0  0  0  0  # atno 10765 bound_to 10752
  140.2793  134.2991  155.7805 H   0  0  0  0  0  0  0  0  0  0  0  0  # atno 11005 bound_to 11000
  144.8238  140.6595  143.6335 LP  0  0  0  0  0  0  0  0  0  0  0  0  # atno 17320 bound_to 7965
  145.4208  139.1564  143.4075 LP  0  0  0  0  0  0  0  0  0  0  0  0  # atno 17321 bound_to 7965
  140.1848  143.4084  152.1906 LP  0  0  0  0  0  0  0  0  0  0  0  0  # atno 17342 bound_to 10162
  139.5415  144.7261  151.4718 LP  0  0  0  0  0  0  0  0  0  0  0  0  # atno 17343 bound_to 10162
  155.9664  130.4401  150.5286 LP  0  0  0  0  0  0  0  0  0  0  0  0  # atno 17370 bound_to 10713
  157.3188  131.0678  151.1947 LP  0  0  0  0  0  0  0  0  0  0  0  0  # atno 17371 bound_to 10713
  141.2165  133.7515  156.9456 LP  0  0  0  0  0  0  0  0  0  0  0  0  # atno 17394 bound_to 11000
  140.1298  134.9363  157.2321 LP  0  0  0  0  0  0  0  0  0  0  0  0  # atno 17395 bound_to 11000

$$$$
