AV-unprocessed.smi:1867|AV-procd|sdf|7579|dock9
  -GOLD-   22720 9293D 1   1.00000     0.00000
 Structure written by MMmdl.
 52 55  0  0  0  0  0  0  0  0  4 V2000
  141.8108  135.7860  152.9163 O   0  0  0  0  0  0  0  0  0  0  0  0
  142.3516  136.8880  152.8486 C   0  0  0  0  0  0  0  0  0  0  0  0
  141.5785  138.0019  152.8352 N   0  0  0  0  0  0  0  0  0  0  0  0
  140.1692  138.1181  152.9733 C   0  0  0  0  0  0  0  0  0  0  0  0
  139.6173  139.4147  153.0278 C   0  0  0  0  0  0  0  0  0  0  0  0
  138.2258  139.5774  153.1861 C   0  0  0  0  0  0  0  0  0  0  0  0
  137.3952  138.4375  153.2978 C   0  0  0  0  0  0  0  0  0  0  0  0
  135.9992  138.5232  153.4593 N   0  0  0  0  0  0  0  0  0  0  0  0
  135.1301  137.4053  153.1257 C   0  0  0  0  0  0  0  0  0  0  0  0
  133.7146  137.9687  153.2395 C   0  0  0  0  0  0  0  0  0  0  0  0
  133.8891  139.4284  152.8212 C   0  0  0  0  0  0  0  0  0  0  0  0
  135.2981  139.7904  153.3054 C   0  0  0  0  0  0  0  0  0  0  0  0
  137.9716  137.2124  153.2647 N   0  3  0  0  0  0  0  0  0  0  0  0
  139.2985  137.0116  153.1132 C   0  0  0  0  0  0  0  0  0  0  0  0
  143.7113  137.0036  152.7654 N   0  5  0  0  0  0  0  0  0  0  0  0
  144.7313  135.9480  152.6397 C   0  0  1  0  0  0  0  0  0  0  0  0
  145.0964  135.7423  151.1638 C   0  0  0  0  0  0  0  0  0  0  0  0
  146.1859  136.7869  150.8547 C   0  0  0  0  0  0  0  0  0  0  0  0
  146.7331  137.2526  152.1549 N   0  3  1  0  0  0  0  0  0  0  0  0
  146.6146  138.7292  152.3310 C   0  0  0  0  0  0  0  0  0  0  0  0
  146.9585  139.1767  153.7565 C   0  0  0  0  0  0  0  0  0  0  0  0
  146.0205  138.4966  154.7558 C   0  0  0  0  0  0  0  0  0  0  0  0
  146.1792  136.9736  154.6549 C   0  0  0  0  0  0  0  0  0  0  0  0
  146.0887  136.4160  153.2063 C   0  0  1  0  0  0  0  0  0  0  0  0
  142.0699  138.8663  152.6615 H   0  0  0  0  0  0  0  0  0  0  0  0
  140.2545  140.2831  152.9448 H   0  0  0  0  0  0  0  0  0  0  0  0
  137.8147  140.5751  153.2273 H   0  0  0  0  0  0  0  0  0  0  0  0
  135.3319  137.0769  152.1051 H   0  0  0  0  0  0  0  0  0  0  0  0
  135.2831  136.5609  153.7988 H   0  0  0  0  0  0  0  0  0  0  0  0
  132.9927  137.4304  152.6249 H   0  0  0  0  0  0  0  0  0  0  0  0
  133.3789  137.9205  154.2763 H   0  0  0  0  0  0  0  0  0  0  0  0
  133.8466  139.5015  151.7335 H   0  0  0  0  0  0  0  0  0  0  0  0
  133.1197  140.0838  153.2303 H   0  0  0  0  0  0  0  0  0  0  0  0
  135.2567  140.2893  154.2741 H   0  0  0  0  0  0  0  0  0  0  0  0
  135.7924  140.4565  152.5979 H   0  0  0  0  0  0  0  0  0  0  0  0
  139.6074  135.9770  153.1240 H   0  0  0  0  0  0  0  0  0  0  0  0
  144.4200  135.0107  153.1029 H   0  0  0  0  0  0  0  0  0  0  0  0
  145.5148  134.7427  151.0377 H   0  0  0  0  0  0  0  0  0  0  0  0
  144.2414  135.8153  150.4899 H   0  0  0  0  0  0  0  0  0  0  0  0
  146.9816  136.3530  150.2486 H   0  0  0  0  0  0  0  0  0  0  0  0
  145.7658  137.6149  150.2799 H   0  0  0  0  0  0  0  0  0  0  0  0
  147.2734  139.2227  151.6160 H   0  0  0  0  0  0  0  0  0  0  0  0
  145.6002  139.0545  152.0944 H   0  0  0  0  0  0  0  0  0  0  0  0
  147.9973  138.9366  153.9877 H   0  0  0  0  0  0  0  0  0  0  0  0
  146.8621  140.2597  153.8371 H   0  0  0  0  0  0  0  0  0  0  0  0
  146.2452  138.8287  155.7696 H   0  0  0  0  0  0  0  0  0  0  0  0
  144.9881  138.7861  154.5572 H   0  0  0  0  0  0  0  0  0  0  0  0
  147.1673  136.7262  155.0455 H   0  0  0  0  0  0  0  0  0  0  0  0
  145.4762  136.4741  155.3242 H   0  0  0  0  0  0  0  0  0  0  0  0
  146.6942  135.5077  153.2257 H   0  0  0  0  0  0  0  0  0  0  0  0
  147.7196  137.0404  152.1795 H   0  0  0  0  0  0  0  0  0  0  0  0
  137.3718  136.3931  153.3607 H   0  0  0  0  0  0  0  0  0  0  0  0
  1  2  2  0  0  0  0
  2  3  1  0  0  0  0
  2 15  1  0  0  0  0
  3  4  1  0  0  0  0
  3 25  1  0  0  0  0
  4 14  1  0  0  0  0
  4  5  2  0  0  0  0
  5  6  1  0  0  0  0
  5 26  1  0  0  0  0
  6  7  2  0  0  0  0
  6 27  1  0  0  0  0
  7  8  1  0  0  0  0
  7 13  1  0  0  0  0
  8 12  1  0  0  0  0
  8  9  1  0  0  0  0
  9 10  1  0  0  0  0
  9 28  1  0  0  0  0
  9 29  1  0  0  0  0
 10 11  1  0  0  0  0
 10 30  1  0  0  0  0
 10 31  1  0  0  0  0
 11 12  1  0  0  0  0
 11 32  1  0  0  0  0
 11 33  1  0  0  0  0
 12 34  1  0  0  0  0
 12 35  1  0  0  0  0
 13 14  2  0  0  0  0
 13 52  1  0  0  0  0
 14 36  1  0  0  0  0
 15 16  1  0  0  0  0
 16 24  1  0  0  0  0
 16 17  1  0  0  0  0
 16 37  1  0  0  0  0
 17 18  1  0  0  0  0
 17 38  1  0  0  0  0
 17 39  1  0  0  0  0
 18 19  1  0  0  0  0
 18 40  1  0  0  0  0
 18 41  1  0  0  0  0
 19 24  1  0  0  0  0
 19 20  1  0  0  0  0
 19 51  1  0  0  0  0
 20 21  1  0  0  0  0
 20 42  1  0  0  0  0
 20 43  1  0  0  0  0
 21 22  1  0  0  0  0
 21 44  1  0  0  0  0
 21 45  1  0  0  0  0
 22 23  1  0  0  0  0
 22 46  1  0  0  0  0
 22 47  1  0  0  0  0
 23 24  1  0  0  0  0
 23 48  1  0  0  0  0
 23 49  1  0  0  0  0
 24 50  1  0  0  0  0
M  CHG  1  13   1
M  CHG  1  15  -1
M  CHG  1  19   1
M  END
> <s_m_source_file>
AV-unprocessed.smi

> <i_m_source_file_index>
1867

> <i_lp_mmshare_version>
43012

> <i_f3d_flags>
0

> <s_epik_input>
W0NIMl0xW0NIMl1bQ0gyXVtDSDJdW0NASF0oTjEyKVtDQEBIXShbQ0gyXVtDSDJdMilbTkhdQyg9TylbTkhdYzNbY0hdW2NIXWMobltjSF0zKU40W0NIMl1bQ0gyXVtDSDJdW0NIMl00

> <s_epik_cmdline>
J2VwaWtfcHl0aG9uJywgJy1waCcsICc3LjAnLCAnLXRuJywgJzgnLCAnLW1hJywgJzIwMCcsICctbWV0YWxfYmluZGluZycsICctaW1hZScsICc8aW5maWxlLm1hZT4nLCAnLW9tYWUnLCAnPG91dGZpbGUubWFlPic=

> <r_lp_tautomer_probability>
0.999994

> <r_epik_Ionization_Penalty>
8.56137

> <r_epik_Ionization_Penalty_Charging>
8.56136

> <r_epik_Ionization_Penalty_Neutral>
3.91889e-06

> <r_epik_State_Penalty>
8.16255

> <r_epik_Charging_Adjusted_Penalty>
16.7239

> <i_epik_Tot_Q>
1

> <i_epik_Tot_abs_Q>
3

> <r_epik_Metal_State_Penalty>
4.14279

> <b_epik_Metal_Only>
1

> <s_lp_Force_Field>
OPLS_2005

> <r_lp_Energy>
73.5992

> <b_lp_Chiralities_Consistent>
1

> <s_lp_Variant>
AV-unprocessed.smi:1867-20

> <Gold.Version>
5.8.1

> <Gold.Id.Protein>
6NUR|6NUR_protein|mol2

> <Gold.PLP.Fitness>
43.0082

> <Gold.PLP.PLP>
-35.6069

> <Gold.PLP.part.hbond>
-1.7039

> <Gold.PLP.part.metal>
0.0000

> <Gold.PLP.part.buried>
1.1772

> <Gold.PLP.part.nonpolar>
-36.1935

> <Gold.PLP.part.repulsive>
0.5000

> <Gold.PLP.ligand.clash>
0.0000

> <Gold.PLP.ligand.torsion>
0.4848

> <Gold.PLP.Chemscore.Hbond>
2.6988

> <Gold.PLP.Chemscore.CHOScore>
0.0000

> <Gold.PLP.Chemscore.Metal>
0.0000

> <Gold.Chemscore.Hbonds>
donor molecule, donor type, donor heavy atom, donor atom, acceptor molecule, acceptor atom, score
      L1  H     3    25       P1 10175  0.59
      L1  H    19    51       P1  7948  1.82

> <Gold.PLP.Chemscore.Internal.Correction>
0.2747

> <Gold.Rescore>
     Score         DG    S(hbond)    S(metal)    S(lipo)     H(rot)  DE(clash)    DE(int)     intcor
     14.73     -18.24       1.46        0.00      89.35       1.00       1.82       1.70       ----

> <Gold.Chemscore.Fitness>
14.7309

> <Gold.Chemscore.DG>
-18.2431

> <Gold.Chemscore.ZeroCoef>
-5.4800

> <Gold.Chemscore.Hbond>
1.4580

> <Gold.Chemscore.Metal>
0.0000

> <Gold.Chemscore.Lipo>
89.3452

> <Gold.Chemscore.Internal_Hbond>
0.0000

> <Gold.Chemscore.DEClash>
1.8154

> <Gold.Chemscore.DEInternal>
1.6968

> <Gold.Chemscore.Rot>
1.0000

> <Gold.Chemscore.Internal.Correction>
   9.000000E+99

> <Gold.Chemscore.Hbonds>
donor molecule, donor type, donor heavy atom, donor atom, acceptor molecule, acceptor atom, score
      L1  H     3    25       P1 10175  0.55
      L1  H    19    51       P1  7948  0.85

> <Gold.Chemscore.Hbond.Weighted>
-4.8697

> <Gold.Chemscore.Metal.Weighted>
-0.0000

> <Gold.Chemscore.Lipo.Weighted>
-10.4534

> <Gold.Chemscore.Internal_Hbond.Weighted>
0.0000

> <Gold.Chemscore.DEClash.Weighted>
1.8154

> <Gold.Chemscore.DEInternal.Weighted>
1.6968

> <Gold.Chemscore.Rot.Weighted>
2.5600

> <Gold.Chemscore.Internal.Correction.Weighted>
   9.000000E+99

> <Gold.Protein.RotatedTorsions>
[ 6907 6896 6895 6894 ] final   73.20 input  -60.11 | X-H torsion
[ 7974 7965 7964 7962 ] final  121.35 input  175.53 | X-H torsion
[ 8008 7997 7996 7995 ] final -105.06 input   59.86 | X-H torsion
[ 10167 10162 10161 10158 ] final   45.94 input  -65.29 | X-H torsion
[ 10718 10713 10712 10709 ] final    5.54 input   66.30 | X-H torsion
[ 10763 10752 10751 10750 ] final   72.03 input  -60.55 | X-H torsion
[ 11005 11000 10999 10996 ] final  -54.55 input  -57.11 | X-H torsion

> <Gold.Protein.ActiveResidues>
 VAL166  LYS551  ARG553  GLY616  TRP617  ASP618  TYR619  PRO620  LYS621  CYS622 
 ASP623  PHE694  ASN695  SER759  ASP760  ASP761  ALA762  ILE779  LEU786  VAL792 
 PHE793  MET794  SER795  GLU796  ALA797  LYS798  CYS799  TRP800  GLU811  SER814 

> <Gold.Protein.RotatedAtoms>
  152.4910  134.4457  159.9557 H   0  0  0  0  0  0  0  0  0  0  0  0  # atno 6907 bound_to 6896
  151.4444  133.3628  159.2794 H   0  0  0  0  0  0  0  0  0  0  0  0  # atno 6908 bound_to 6896
  150.9065  134.8504  159.7456 H   0  0  0  0  0  0  0  0  0  0  0  0  # atno 6909 bound_to 6896
  145.1203  139.3393  143.4717 H   0  0  0  0  0  0  0  0  0  0  0  0  # atno 7974 bound_to 7965
  154.8943  140.0415  157.1856 H   0  0  0  0  0  0  0  0  0  0  0  0  # atno 8008 bound_to 7997
  154.8509  140.2929  155.5578 H   0  0  0  0  0  0  0  0  0  0  0  0  # atno 8009 bound_to 7997
  156.2996  140.2465  156.3467 H   0  0  0  0  0  0  0  0  0  0  0  0  # atno 8010 bound_to 7997
  140.3190  144.2728  150.6186 H   0  0  0  0  0  0  0  0  0  0  0  0  # atno 10167 bound_to 10162
  156.9089  130.5749  149.5647 H   0  0  0  0  0  0  0  0  0  0  0  0  # atno 10718 bound_to 10713
  153.0434  135.5115  154.7682 H   0  0  0  0  0  0  0  0  0  0  0  0  # atno 10763 bound_to 10752
  154.6602  135.2937  154.9879 H   0  0  0  0  0  0  0  0  0  0  0  0  # atno 10764 bound_to 10752
  154.0733  135.6674  153.4880 H   0  0  0  0  0  0  0  0  0  0  0  0  # atno 10765 bound_to 10752
  141.1031  133.6616  156.4336 H   0  0  0  0  0  0  0  0  0  0  0  0  # atno 11005 bound_to 11000
  146.3521  140.1160  142.8602 LP  0  0  0  0  0  0  0  0  0  0  0  0  # atno 17320 bound_to 7965
  145.0747  140.9180  143.4861 LP  0  0  0  0  0  0  0  0  0  0  0  0  # atno 17321 bound_to 7965
  140.5500  143.2208  151.7942 LP  0  0  0  0  0  0  0  0  0  0  0  0  # atno 17342 bound_to 10162
  139.4878  144.4489  151.9678 LP  0  0  0  0  0  0  0  0  0  0  0  0  # atno 17343 bound_to 10162
  156.0545  130.5609  150.9062 LP  0  0  0  0  0  0  0  0  0  0  0  0  # atno 17370 bound_to 10713
  157.5979  131.0942  150.9009 LP  0  0  0  0  0  0  0  0  0  0  0  0  # atno 17371 bound_to 10713
  140.4972  134.6520  157.5234 LP  0  0  0  0  0  0  0  0  0  0  0  0  # atno 17394 bound_to 11000
  139.9890  134.7016  155.9723 LP  0  0  0  0  0  0  0  0  0  0  0  0  # atno 17395 bound_to 11000

$$$$
