AV-unprocessed.smi:1738|AV-procd|sdf|7002|dock10
  -GOLD-   22720 8213D 1   1.00000     0.00000
 Structure written by MMmdl.
 46 48  0  0  0  0  0  0  0  0  2 V2000
  146.6961  134.8981  162.3487 C   0  0  0  0  0  0  0  0  0  0  0  0
  147.3507  136.4672  161.6483 S   0  0  0  0  0  0  0  0  0  0  0  0
  146.2184  137.3782  161.4182 O   0  0  0  0  0  0  0  0  0  0  0  0
  148.4743  136.9040  162.4918 O   0  0  0  0  0  0  0  0  0  0  0  0
  148.0004  135.9823  160.0532 C   0  0  0  0  0  0  0  0  0  0  0  0
  149.0943  136.6687  159.4893 C   0  0  0  0  0  0  0  0  0  0  0  0
  149.5895  136.2243  158.2484 C   0  0  0  0  0  0  0  0  0  0  0  0
  148.9832  135.1020  157.6305 C   0  0  0  0  0  0  0  0  0  0  0  0
  149.3720  134.5606  156.3741 N   0  0  0  0  0  0  0  0  0  0  0  0
  148.8527  133.5192  155.7011 C   0  0  0  0  0  0  0  0  0  0  0  0
  147.8912  132.8413  156.0613 O   0  0  0  0  0  0  0  0  0  0  0  0
  149.5163  133.3045  154.5564 N   0  0  0  0  0  0  0  0  0  0  0  0
  149.2127  132.2490  153.5940 C   0  0  1  0  0  0  0  0  0  0  0  0
  149.2729  130.8400  154.2097 C   0  0  0  0  0  0  0  0  0  0  0  0
  148.1279  130.0526  153.5424 C   0  0  0  0  0  0  0  0  0  0  0  0
  147.5450  130.9749  152.5493 N   0  3  1  0  0  0  0  0  0  0  0  0
  146.1384  130.7413  152.1559 C   0  0  0  0  0  0  0  0  0  0  0  0
  145.7450  131.7462  151.0547 C   0  0  0  0  0  0  0  0  0  0  0  0
  146.0342  133.2007  151.4776 C   0  0  0  0  0  0  0  0  0  0  0  0
  147.4870  133.3605  151.9656 C   0  0  0  0  0  0  0  0  0  0  0  0
  147.7763  132.3304  153.0708 C   0  0  2  0  0  0  0  0  0  0  0  0
  147.8969  134.4923  158.2948 C   0  0  0  0  0  0  0  0  0  0  0  0
  147.4144  134.9079  159.4842 N   0  0  0  0  0  0  0  0  0  0  0  0
  146.2745  135.0897  163.3350 H   0  0  0  0  0  0  0  0  0  0  0  0
  147.5046  134.1723  162.4335 H   0  0  0  0  0  0  0  0  0  0  0  0
  145.9205  134.5029  161.6930 H   0  0  0  0  0  0  0  0  0  0  0  0
  149.5420  137.5168  159.9857 H   0  0  0  0  0  0  0  0  0  0  0  0
  150.4116  136.7592  157.8007 H   0  0  0  0  0  0  0  0  0  0  0  0
  150.1251  135.0508  155.9138 H   0  0  0  0  0  0  0  0  0  0  0  0
  150.2904  133.9142  154.3358 H   0  0  0  0  0  0  0  0  0  0  0  0
  149.9091  132.2837  152.7532 H   0  0  0  0  0  0  0  0  0  0  0  0
  150.2429  130.3752  154.0314 H   0  0  0  0  0  0  0  0  0  0  0  0
  149.1178  130.8697  155.2894 H   0  0  0  0  0  0  0  0  0  0  0  0
  148.4773  129.1390  153.0609 H   0  0  0  0  0  0  0  0  0  0  0  0
  147.3789  129.7783  154.2872 H   0  0  0  0  0  0  0  0  0  0  0  0
  146.0244  129.7198  151.7916 H   0  0  0  0  0  0  0  0  0  0  0  0
  145.4862  130.8501  153.0239 H   0  0  0  0  0  0  0  0  0  0  0  0
  146.3030  131.5201  150.1450 H   0  0  0  0  0  0  0  0  0  0  0  0
  144.6900  131.6326  150.8038 H   0  0  0  0  0  0  0  0  0  0  0  0
  145.8403  133.8790  150.6463 H   0  0  0  0  0  0  0  0  0  0  0  0
  145.3497  133.4874  152.2768 H   0  0  0  0  0  0  0  0  0  0  0  0
  148.1778  133.2234  151.1325 H   0  0  0  0  0  0  0  0  0  0  0  0
  147.6418  134.3729  152.3386 H   0  0  0  0  0  0  0  0  0  0  0  0
  147.0985  132.4999  153.9110 H   0  0  0  0  0  0  0  0  0  0  0  0
  147.3989  133.6383  157.8593 H   0  0  0  0  0  0  0  0  0  0  0  0
  148.1084  130.8912  151.7150 H   0  0  0  0  0  0  0  0  0  0  0  0
  1  2  1  0  0  0  0
  1 24  1  0  0  0  0
  1 25  1  0  0  0  0
  1 26  1  0  0  0  0
  2  3  2  0  0  0  0
  2  4  2  0  0  0  0
  2  5  1  0  0  0  0
  5 23  1  0  0  0  0
  5  6  2  0  0  0  0
  6  7  1  0  0  0  0
  6 27  1  0  0  0  0
  7  8  2  0  0  0  0
  7 28  1  0  0  0  0
  8  9  1  0  0  0  0
  8 22  1  0  0  0  0
  9 10  1  0  0  0  0
  9 29  1  0  0  0  0
 10 11  2  0  0  0  0
 10 12  1  0  0  0  0
 12 13  1  0  0  0  0
 12 30  1  0  0  0  0
 13 21  1  0  0  0  0
 13 14  1  0  0  0  0
 13 31  1  0  0  0  0
 14 15  1  0  0  0  0
 14 32  1  0  0  0  0
 14 33  1  0  0  0  0
 15 16  1  0  0  0  0
 15 34  1  0  0  0  0
 15 35  1  0  0  0  0
 16 21  1  0  0  0  0
 16 17  1  0  0  0  0
 16 46  1  0  0  0  0
 17 18  1  0  0  0  0
 17 36  1  0  0  0  0
 17 37  1  0  0  0  0
 18 19  1  0  0  0  0
 18 38  1  0  0  0  0
 18 39  1  0  0  0  0
 19 20  1  0  0  0  0
 19 40  1  0  0  0  0
 19 41  1  0  0  0  0
 20 21  1  0  0  0  0
 20 42  1  0  0  0  0
 20 43  1  0  0  0  0
 21 44  1  0  0  0  0
 22 23  2  0  0  0  0
 22 45  1  0  0  0  0
M  CHG  1  16   1
M  END
> <s_m_source_file>
AV-unprocessed.smi

> <i_m_source_file_index>
1738

> <i_lp_mmshare_version>
43012

> <i_f3d_flags>
0

> <s_epik_input>
W0NIM11TKD1PKSg9TyljMVtjSF1bY0hdYyhbY0hdbjEpW05IXUMoPU8pW05IXVtDQEhdKFtDSDJdW0NIMl0yKVtDQEBIXShOMjMpW0NIMl1bQ0gyXVtDSDJdW0NIMl0z

> <s_epik_cmdline>
J2VwaWtfcHl0aG9uJywgJy1waCcsICc3LjAnLCAnLXRuJywgJzgnLCAnLW1hJywgJzIwMCcsICctbWV0YWxfYmluZGluZycsICctaW1hZScsICc8aW5maWxlLm1hZT4nLCAnLW9tYWUnLCAnPG91dGZpbGUubWFlPic=

> <r_epik_Ionization_Penalty>
0.00100042

> <r_epik_Ionization_Penalty_Charging>
0.000974069

> <r_epik_Ionization_Penalty_Neutral>
2.63543e-05

> <r_epik_State_Penalty>
0.000633842

> <r_epik_Charging_Adjusted_Penalty>
0.00160791

> <i_epik_Tot_Q>
1

> <i_epik_Tot_abs_Q>
1

> <r_epik_Metal_State_Penalty>
-0

> <b_epik_Metal_Only>
0

> <s_lp_Force_Field>
OPLS_2005

> <r_lp_Energy>
37.3337

> <b_lp_Chiralities_Consistent>
1

> <s_lp_Variant>
AV-unprocessed.smi:1738-6

> <Gold.Version>
5.8.1

> <Gold.Id.Protein>
6NUR|6NUR_protein|mol2

> <Gold.PLP.Fitness>
44.4912

> <Gold.PLP.PLP>
-35.8485

> <Gold.PLP.part.hbond>
-2.8593

> <Gold.PLP.part.metal>
0.0000

> <Gold.PLP.part.buried>
-5.2520

> <Gold.PLP.part.nonpolar>
-28.4388

> <Gold.PLP.part.repulsive>
0.0583

> <Gold.PLP.ligand.clash>
0.0000

> <Gold.PLP.ligand.torsion>
1.1933

> <Gold.PLP.Chemscore.Hbond>
3.0000

> <Gold.PLP.Chemscore.CHOScore>
0.0000

> <Gold.PLP.Chemscore.Metal>
0.0000

> <Gold.Chemscore.Hbonds>
donor molecule, donor type, donor heavy atom, donor atom, acceptor molecule, acceptor atom, score
      L1  H    16    46       P1 10747  1.00
      P1  H  6931  6943       L1     4  1.00
      P1  H  6934  6947       L1     3  1.00

> <Gold.PLP.Chemscore.Internal.Correction>
2.0293

> <Gold.Rescore>
     Score         DG    S(hbond)    S(metal)    S(lipo)     H(rot)  DE(clash)    DE(int)     intcor
     16.18     -20.07       2.57        0.00      73.35       1.00       0.11       3.78       ----

> <Gold.Chemscore.Fitness>
16.1769

> <Gold.Chemscore.DG>
-20.0723

> <Gold.Chemscore.ZeroCoef>
-5.4800

> <Gold.Chemscore.Hbond>
2.5659

> <Gold.Chemscore.Metal>
0.0000

> <Gold.Chemscore.Lipo>
73.3509

> <Gold.Chemscore.Internal_Hbond>
0.0000

> <Gold.Chemscore.DEClash>
0.1105

> <Gold.Chemscore.DEInternal>
3.7850

> <Gold.Chemscore.Rot>
1.0000

> <Gold.Chemscore.Internal.Correction>
   9.000000E+99

> <Gold.Chemscore.Hbonds>
donor molecule, donor type, donor heavy atom, donor atom, acceptor molecule, acceptor atom, score
      L1  H    16    46       P1 10747  1.00
      P1  H  6931  6943       L1     4  0.69
      P1  H  6934  6947       L1     3  0.29

> <Gold.Chemscore.Hbond.Weighted>
-8.5703

> <Gold.Chemscore.Metal.Weighted>
-0.0000

> <Gold.Chemscore.Lipo.Weighted>
-8.5821

> <Gold.Chemscore.Internal_Hbond.Weighted>
0.0000

> <Gold.Chemscore.DEClash.Weighted>
0.1105

> <Gold.Chemscore.DEInternal.Weighted>
3.7850

> <Gold.Chemscore.Rot.Weighted>
2.5600

> <Gold.Chemscore.Internal.Correction.Weighted>
   9.000000E+99

> <Gold.Protein.RotatedTorsions>
[ 6907 6896 6895 6894 ] final   14.40 input  -60.11 | X-H torsion
[ 7974 7965 7964 7962 ] final    9.08 input  175.53 | X-H torsion
[ 8008 7997 7996 7995 ] final  137.17 input   59.86 | X-H torsion
[ 10167 10162 10161 10158 ] final -115.64 input  -65.29 | X-H torsion
[ 10718 10713 10712 10709 ] final -122.97 input   66.30 | X-H torsion
[ 10763 10752 10751 10750 ] final -140.85 input  -60.55 | X-H torsion
[ 11005 11000 10999 10996 ] final   16.35 input  -57.11 | X-H torsion

> <Gold.Protein.ActiveResidues>
 VAL166  LYS551  ARG553  GLY616  TRP617  ASP618  TYR619  PRO620  LYS621  CYS622 
 ASP623  PHE694  ASN695  SER759  ASP760  ASP761  ALA762  ILE779  LEU786  VAL792 
 PHE793  MET794  SER795  GLU796  ALA797  LYS798  CYS799  TRP800  GLU811  SER814 

> <Gold.Protein.RotatedAtoms>
  151.8016  135.0707  160.0400 H   0  0  0  0  0  0  0  0  0  0  0  0  # atno 6907 bound_to 6896
  152.3085  133.5723  159.5673 H   0  0  0  0  0  0  0  0  0  0  0  0  # atno 6908 bound_to 6896
  150.7308  134.0104  159.3709 H   0  0  0  0  0  0  0  0  0  0  0  0  # atno 6909 bound_to 6896
  146.2408  139.9837  142.8433 H   0  0  0  0  0  0  0  0  0  0  0  0  # atno 7974 bound_to 7965
  156.3003  140.2426  156.3865 H   0  0  0  0  0  0  0  0  0  0  0  0  # atno 8008 bound_to 7997
  154.8653  140.0418  157.1710 H   0  0  0  0  0  0  0  0  0  0  0  0  # atno 8009 bound_to 7997
  154.8853  140.2955  155.5405 H   0  0  0  0  0  0  0  0  0  0  0  0  # atno 8010 bound_to 7997
  140.0878  143.4727  152.1888 H   0  0  0  0  0  0  0  0  0  0  0  0  # atno 10167 bound_to 10162
  156.1463  130.6502  150.9847 H   0  0  0  0  0  0  0  0  0  0  0  0  # atno 10718 bound_to 10713
  154.8565  135.3541  154.5773 H   0  0  0  0  0  0  0  0  0  0  0  0  # atno 10763 bound_to 10752
  153.6385  135.6999  153.5255 H   0  0  0  0  0  0  0  0  0  0  0  0  # atno 10764 bound_to 10752
  153.2991  135.4212  155.1195 H   0  0  0  0  0  0  0  0  0  0  0  0  # atno 10765 bound_to 10752
  140.4481  134.1252  155.7699 H   0  0  0  0  0  0  0  0  0  0  0  0  # atno 11005 bound_to 11000
  145.1568  140.9652  143.4400 LP  0  0  0  0  0  0  0  0  0  0  0  0  # atno 17320 bound_to 7965
  145.0154  139.3472  143.6099 LP  0  0  0  0  0  0  0  0  0  0  0  0  # atno 17321 bound_to 7965
  139.5742  144.7479  151.3810 LP  0  0  0  0  0  0  0  0  0  0  0  0  # atno 17342 bound_to 10162
  140.7044  143.7551  150.7457 LP  0  0  0  0  0  0  0  0  0  0  0  0  # atno 17343 bound_to 10162
  157.6619  131.0879  150.7818 LP  0  0  0  0  0  0  0  0  0  0  0  0  # atno 17370 bound_to 10713
  156.7889  130.4883  149.5388 LP  0  0  0  0  0  0  0  0  0  0  0  0  # atno 17371 bound_to 10713
  141.1676  133.8672  157.1668 LP  0  0  0  0  0  0  0  0  0  0  0  0  # atno 17394 bound_to 11000
  140.0025  135.0022  157.0221 LP  0  0  0  0  0  0  0  0  0  0  0  0  # atno 17395 bound_to 11000

$$$$
