AV-unprocessed.smi:1795|AV-procd|sdf|7243|dock4
  -GOLD-   22720 8493D 1   1.00000     0.00000
 Structure written by MMmdl.
 48 49  0  0  0  0  0  0  0  0  2 V2000
  145.5332  132.2851  149.8721 C   0  0  0  0  0  0  0  0  0  0  0  0
  146.0334  133.4067  150.7897 C   0  0  2  0  0  0  0  0  0  0  0  0
  147.0298  132.8866  151.8426 C   0  0  0  0  0  0  0  0  0  0  0  0
  147.4268  133.9660  152.7865 N   0  3  2  0  0  0  0  0  0  0  0  0
  148.4580  133.5958  153.8114 C   0  0  2  0  0  0  0  0  0  0  0  0
  148.0465  132.2870  154.5231 C   0  0  0  0  0  0  0  0  0  0  0  0
  148.7390  134.7114  154.8581 C   0  0  0  0  0  0  0  0  0  0  0  0
  149.6193  135.7631  154.3561 N   0  0  0  0  0  0  0  0  0  0  0  0
  150.3866  136.5535  155.1223 C   0  0  0  0  0  0  0  0  0  0  0  0
  150.4027  136.4859  156.3521 O   0  0  0  0  0  0  0  0  0  0  0  0
  151.2468  137.5856  154.3789 C   0  0  0  0  0  0  0  0  0  0  0  0
  150.9115  138.9775  154.7234 N   0  0  0  0  0  0  0  0  0  0  0  0
  149.6758  139.4744  154.2625 C   0  0  0  0  0  0  0  0  0  0  0  0
  149.2735  140.7284  154.5223 C   0  0  0  0  0  0  0  0  0  0  0  0
  150.1456  141.5784  155.2980 C   0  0  0  0  0  0  0  0  0  0  0  0
  151.3280  141.1122  155.7468 C   0  0  0  0  0  0  0  0  0  0  0  0
  151.7711  139.7414  155.4667 C   0  0  0  0  0  0  0  0  0  0  0  0
  152.8479  139.3057  155.8753 O   0  0  0  0  0  0  0  0  0  0  0  0
  146.2065  134.5574  153.3997 C   0  0  0  0  0  0  0  0  0  0  0  0
  145.2069  135.0421  152.3333 C   0  0  1  0  0  0  0  0  0  0  0  0
  145.6533  136.3232  151.6058 C   0  0  0  0  0  0  0  0  0  0  0  0
  144.9011  133.9796  151.4338 O   0  0  0  0  0  0  0  0  0  0  0  0
  146.3600  131.8137  149.3404 H   0  0  0  0  0  0  0  0  0  0  0  0
  144.8376  132.6717  149.1268 H   0  0  0  0  0  0  0  0  0  0  0  0
  145.0160  131.5112  150.4399 H   0  0  0  0  0  0  0  0  0  0  0  0
  146.5197  134.1572  150.1661 H   0  0  0  0  0  0  0  0  0  0  0  0
  146.5982  132.0541  152.4010 H   0  0  0  0  0  0  0  0  0  0  0  0
  147.8964  132.5076  151.3022 H   0  0  0  0  0  0  0  0  0  0  0  0
  149.3926  133.4152  153.2781 H   0  0  0  0  0  0  0  0  0  0  0  0
  148.8008  131.9611  155.2390 H   0  0  0  0  0  0  0  0  0  0  0  0
  147.9126  131.4570  153.8316 H   0  0  0  0  0  0  0  0  0  0  0  0
  147.1106  132.4155  155.0680 H   0  0  0  0  0  0  0  0  0  0  0  0
  147.8167  135.1941  155.1842 H   0  0  0  0  0  0  0  0  0  0  0  0
  149.2024  134.2839  155.7479 H   0  0  0  0  0  0  0  0  0  0  0  0
  149.6611  135.8868  153.3546 H   0  0  0  0  0  0  0  0  0  0  0  0
  152.3022  137.3958  154.5844 H   0  0  0  0  0  0  0  0  0  0  0  0
  151.1300  137.4161  153.3077 H   0  0  0  0  0  0  0  0  0  0  0  0
  149.0795  138.7742  153.6953 H   0  0  0  0  0  0  0  0  0  0  0  0
  148.3214  141.0910  154.1635 H   0  0  0  0  0  0  0  0  0  0  0  0
  149.8478  142.5924  155.5212 H   0  0  0  0  0  0  0  0  0  0  0  0
  151.9666  141.7622  156.3269 H   0  0  0  0  0  0  0  0  0  0  0  0
  145.7260  133.8034  154.0256 H   0  0  0  0  0  0  0  0  0  0  0  0
  146.4527  135.3900  154.0564 H   0  0  0  0  0  0  0  0  0  0  0  0
  144.2720  135.2808  152.8413 H   0  0  0  0  0  0  0  0  0  0  0  0
  145.7521  137.1508  152.3086 H   0  0  0  0  0  0  0  0  0  0  0  0
  144.9214  136.6175  150.8532 H   0  0  0  0  0  0  0  0  0  0  0  0
  146.6158  136.2056  151.1092 H   0  0  0  0  0  0  0  0  0  0  0  0
  147.8469  134.6854  152.2154 H   0  0  0  0  0  0  0  0  0  0  0  0
  1  2  1  0  0  0  0
  1 23  1  0  0  0  0
  1 24  1  0  0  0  0
  1 25  1  0  0  0  0
  2 22  1  0  0  0  0
  2  3  1  0  0  0  0
  2 26  1  0  0  0  0
  3  4  1  0  0  0  0
  3 27  1  0  0  0  0
  3 28  1  0  0  0  0
  4  5  1  0  0  0  0
  4 19  1  0  0  0  0
  4 48  1  0  0  0  0
  5  6  1  0  0  0  0
  5  7  1  0  0  0  0
  5 29  1  0  0  0  0
  6 30  1  0  0  0  0
  6 31  1  0  0  0  0
  6 32  1  0  0  0  0
  7  8  1  0  0  0  0
  7 33  1  0  0  0  0
  7 34  1  0  0  0  0
  8  9  1  0  0  0  0
  8 35  1  0  0  0  0
  9 10  2  0  0  0  0
  9 11  1  0  0  0  0
 11 12  1  0  0  0  0
 11 36  1  0  0  0  0
 11 37  1  0  0  0  0
 12 17  1  0  0  0  0
 12 13  1  0  0  0  0
 13 14  2  0  0  0  0
 13 38  1  0  0  0  0
 14 15  1  0  0  0  0
 14 39  1  0  0  0  0
 15 16  2  0  0  0  0
 15 40  1  0  0  0  0
 16 17  1  0  0  0  0
 16 41  1  0  0  0  0
 17 18  2  0  0  0  0
 19 20  1  0  0  0  0
 19 42  1  0  0  0  0
 19 43  1  0  0  0  0
 20 21  1  0  0  0  0
 20 22  1  0  0  0  0
 20 44  1  0  0  0  0
 21 45  1  0  0  0  0
 21 46  1  0  0  0  0
 21 47  1  0  0  0  0
M  CHG  1   4   1
M  END
> <s_m_source_file>
AV-unprocessed.smi

> <i_m_source_file_index>
1795

> <i_lp_mmshare_version>
43012

> <i_f3d_flags>
0

> <s_epik_input>
W0NIM11bQ0BASF0xW0NIMl1OKFtDSDJdW0NASF0oTzEpW0NIM10pW0NASF0oW0NIM10pW0NIMl1bTkhdQyg9TylbQ0gyXW4yW2NIXVtjSF1bY0hdW2NIXWMyPU8=

> <s_epik_cmdline>
J2VwaWtfcHl0aG9uJywgJy1waCcsICc3LjAnLCAnLXRuJywgJzgnLCAnLW1hJywgJzIwMCcsICctbWV0YWxfYmluZGluZycsICctaW1hZScsICc8aW5maWxlLm1hZT4nLCAnLW9tYWUnLCAnPG91dGZpbGUubWFlPic=

> <r_lp_tautomer_probability>
1

> <r_epik_Ionization_Penalty>
0.656654

> <r_epik_Ionization_Penalty_Charging>
0.656654

> <r_epik_Ionization_Penalty_Neutral>
8.90321e-08

> <r_epik_State_Penalty>
0.675641

> <r_epik_Charging_Adjusted_Penalty>
1.33229

> <i_epik_Tot_Q>
1

> <i_epik_Tot_abs_Q>
1

> <r_epik_Metal_State_Penalty>
0.675691

> <b_epik_Metal_Only>
0

> <s_lp_Force_Field>
OPLS_2005

> <r_lp_Energy>
31.532

> <b_lp_Chiralities_Consistent>
1

> <s_lp_Variant>
AV-unprocessed.smi:1795-7

> <Gold.Version>
5.8.1

> <Gold.Id.Protein>
6NUR|6NUR_protein|mol2

> <Gold.PLP.Fitness>
52.3336

> <Gold.PLP.PLP>
-41.9592

> <Gold.PLP.part.hbond>
-3.2375

> <Gold.PLP.part.metal>
0.0000

> <Gold.PLP.part.buried>
-3.5990

> <Gold.PLP.part.nonpolar>
-36.1979

> <Gold.PLP.part.repulsive>
0.1662

> <Gold.PLP.ligand.clash>
0.0000

> <Gold.PLP.ligand.torsion>
0.6268

> <Gold.PLP.Chemscore.Hbond>
3.8500

> <Gold.PLP.Chemscore.CHOScore>
0.0000

> <Gold.PLP.Chemscore.Metal>
0.0000

> <Gold.Chemscore.Hbonds>
donor molecule, donor type, donor heavy atom, donor atom, acceptor molecule, acceptor atom, score
      L1  H     4    48       P1  7948  2.00
      L1  H     8    35       P1  7948  0.80
      P1  H  7997  8008       L1    18  1.00
      L1  C    13    38       P1  7957  0.04

> <Gold.PLP.Chemscore.Internal.Correction>
0.0780

> <Gold.Rescore>
     Score         DG    S(hbond)    S(metal)    S(lipo)     H(rot)  DE(clash)    DE(int)     intcor
     18.89     -19.50       2.88        0.00      79.07       1.89       0.00       0.61       ----

> <Gold.Chemscore.Fitness>
18.8943

> <Gold.Chemscore.DG>
-19.5042

> <Gold.Chemscore.ZeroCoef>
-5.4800

> <Gold.Chemscore.Hbond>
2.8752

> <Gold.Chemscore.Metal>
0.0000

> <Gold.Chemscore.Lipo>
79.0745

> <Gold.Chemscore.Internal_Hbond>
0.0000

> <Gold.Chemscore.DEClash>
0.0021

> <Gold.Chemscore.DEInternal>
0.6078

> <Gold.Chemscore.Rot>
1.8870

> <Gold.Chemscore.Internal.Correction>
   9.000000E+99

> <Gold.Chemscore.Hbonds>
donor molecule, donor type, donor heavy atom, donor atom, acceptor molecule, acceptor atom, score
      L1  H     4    48       P1  7948  0.55
      L1  H     8    35       P1  7948  0.11
      P1  H  7997  8008       L1    18  0.99

> <Gold.Chemscore.Hbond.Weighted>
-9.6032

> <Gold.Chemscore.Metal.Weighted>
-0.0000

> <Gold.Chemscore.Lipo.Weighted>
-9.2517

> <Gold.Chemscore.Internal_Hbond.Weighted>
0.0000

> <Gold.Chemscore.DEClash.Weighted>
0.0021

> <Gold.Chemscore.DEInternal.Weighted>
0.6078

> <Gold.Chemscore.Rot.Weighted>
4.8308

> <Gold.Chemscore.Internal.Correction.Weighted>
   9.000000E+99

> <Gold.Protein.RotatedTorsions>
[ 6907 6896 6895 6894 ] final   80.59 input  -60.11 | X-H torsion
[ 7974 7965 7964 7962 ] final  157.91 input  175.53 | X-H torsion
[ 8008 7997 7996 7995 ] final  -50.37 input   59.86 | X-H torsion
[ 10167 10162 10161 10158 ] final  125.26 input  -65.29 | X-H torsion
[ 10718 10713 10712 10709 ] final -139.56 input   66.30 | X-H torsion
[ 10763 10752 10751 10750 ] final  -84.56 input  -60.55 | X-H torsion
[ 11005 11000 10999 10996 ] final  -90.78 input  -57.11 | X-H torsion

> <Gold.Protein.ActiveResidues>
 VAL166  LYS551  ARG553  GLY616  TRP617  ASP618  TYR619  PRO620  LYS621  CYS622 
 ASP623  PHE694  ASN695  SER759  ASP760  ASP761  ALA762  ILE779  LEU786  VAL792 
 PHE793  MET794  SER795  GLU796  ALA797  LYS798  CYS799  TRP800  GLU811  SER814 

> <Gold.Protein.RotatedAtoms>
  152.5240  134.3334  159.9190 H   0  0  0  0  0  0  0  0  0  0  0  0  # atno 6907 bound_to 6896
  151.3283  133.4005  159.2668 H   0  0  0  0  0  0  0  0  0  0  0  0  # atno 6908 bound_to 6896
  150.9902  134.9256  159.7952 H   0  0  0  0  0  0  0  0  0  0  0  0  # atno 6909 bound_to 6896
  144.7876  139.7405  143.6234 H   0  0  0  0  0  0  0  0  0  0  0  0  # atno 7974 bound_to 7965
  154.4061  140.1274  156.4654 H   0  0  0  0  0  0  0  0  0  0  0  0  # atno 8008 bound_to 7997
  155.7232  140.3492  155.5005 H   0  0  0  0  0  0  0  0  0  0  0  0  # atno 8009 bound_to 7997
  155.9195  140.1050  157.1207 H   0  0  0  0  0  0  0  0  0  0  0  0  # atno 8010 bound_to 7997
  139.5695  144.6931  151.3817 H   0  0  0  0  0  0  0  0  0  0  0  0  # atno 10167 bound_to 10162
  156.3121  130.7487  151.1566 H   0  0  0  0  0  0  0  0  0  0  0  0  # atno 10718 bound_to 10713
  154.6009  135.5516  153.7373 H   0  0  0  0  0  0  0  0  0  0  0  0  # atno 10763 bound_to 10752
  153.0154  135.6366  154.1716 H   0  0  0  0  0  0  0  0  0  0  0  0  # atno 10764 bound_to 10752
  154.1656  135.2895  155.3076 H   0  0  0  0  0  0  0  0  0  0  0  0  # atno 10765 bound_to 10752
  141.1559  133.7714  156.9786 H   0  0  0  0  0  0  0  0  0  0  0  0  # atno 11005 bound_to 11000
  146.2115  139.5474  142.9678 LP  0  0  0  0  0  0  0  0  0  0  0  0  # atno 17320 bound_to 7965
  145.5880  141.0373  143.2086 LP  0  0  0  0  0  0  0  0  0  0  0  0  # atno 17321 bound_to 7965
  140.6980  143.7702  150.7357 LP  0  0  0  0  0  0  0  0  0  0  0  0  # atno 17342 bound_to 10162
  140.1204  143.4617  152.2316 LP  0  0  0  0  0  0  0  0  0  0  0  0  # atno 17343 bound_to 10162
  157.7393  131.0530  150.5239 LP  0  0  0  0  0  0  0  0  0  0  0  0  # atno 17370 bound_to 10713
  156.5380  130.4201  149.6168 LP  0  0  0  0  0  0  0  0  0  0  0  0  # atno 17371 bound_to 10713
  140.1081  134.9494  157.2024 LP  0  0  0  0  0  0  0  0  0  0  0  0  # atno 17394 bound_to 11000
  140.3230  134.2895  155.7242 LP  0  0  0  0  0  0  0  0  0  0  0  0  # atno 17395 bound_to 11000

$$$$
