AV-unprocessed.smi:21|AV-procd|sdf|157|dock6
  -GOLD-   2262015393D 1   1.00000     0.00000
 Structure written by MMmdl.
 61 64  0  0  0  0  0  0  0  0  1 V2000
  153.4770  143.1986  162.2557 C   0  0  0  0  0  0  0  0  0  0  0  0
  152.6745  143.1383  161.0874 O   0  0  0  0  0  0  0  0  0  0  0  0
  153.2988  142.4597  160.0059 C   0  0  1  0  0  0  0  0  0  0  0  0
  153.8239  141.0748  160.4223 C   0  0  0  0  0  0  0  0  0  0  0  0
  153.2640  140.1270  159.3562 C   0  0  1  0  0  0  0  0  0  0  0  0
  153.1820  138.6605  159.8300 C   0  0  0  0  0  0  0  0  0  0  0  0
  152.9766  137.7159  158.7323 N   0  0  0  0  0  0  0  0  0  0  0  0
  153.5223  138.0673  157.4234 C   0  0  0  0  0  0  0  0  0  0  0  0
  151.7844  137.0658  158.7491 C   0  0  0  0  0  0  0  0  0  0  0  0
  150.9802  137.1584  159.8422 N   0  0  0  0  0  0  0  0  0  0  0  0
  149.8112  136.5127  159.8778 C   0  0  0  0  0  0  0  0  0  0  0  0
  149.2574  135.7383  158.9435 N   0  0  0  0  0  0  0  0  0  0  0  0
  150.0513  135.6491  157.8384 C   0  0  0  0  0  0  0  0  0  0  0  0
  151.3203  136.2707  157.6627 C   0  0  0  0  0  0  0  0  0  0  0  0
  151.8311  135.9507  156.4115 N   0  0  0  0  0  0  0  0  0  0  0  0
  150.9236  135.1777  155.8825 C   0  0  0  0  0  0  0  0  0  0  0  0
  149.8103  134.9572  156.6624 N   0  0  0  0  0  0  0  0  0  0  0  0
  148.6498  134.1459  156.3208 C   0  0  0  0  0  0  0  0  0  0  0  0
  148.7648  133.3968  154.9641 C   0  0  1  0  0  0  0  0  0  0  0  0
  149.6357  132.1231  155.0724 C   0  0  0  0  0  0  0  0  0  0  0  0
  149.0393  131.1789  155.9368 O   0  0  0  0  0  0  0  0  0  0  0  0
  147.3791  133.0838  154.3396 C   0  0  2  0  0  0  0  0  0  0  0  0
  147.4130  132.6539  152.8821 C   0  0  0  0  0  0  0  0  0  0  0  0
  145.9763  132.8960  152.4288 C   0  0  0  0  0  0  0  0  0  0  0  0
  145.4871  133.9632  153.2332 O   0  0  0  0  0  0  0  0  0  0  0  0
  146.4439  134.2932  154.2331 C   0  0  0  0  0  0  0  0  0  0  0  0
  151.9861  140.7190  158.9984 N   0  0  0  0  0  0  0  0  0  0  0  0
  151.4212  140.1999  157.7599 C   0  0  0  0  0  0  0  0  0  0  0  0
  152.2597  142.1434  158.9216 C   0  0  0  0  0  0  0  0  0  0  0  0
  154.0912  143.0737  159.5744 H   0  0  0  0  0  0  0  0  0  0  0  0
  153.9172  140.1848  158.4844 H   0  0  0  0  0  0  0  0  0  0  0  0
  152.9453  143.7449  163.0344 H   0  0  0  0  0  0  0  0  0  0  0  0
  154.4152  143.7203  162.0624 H   0  0  0  0  0  0  0  0  0  0  0  0
  153.7029  142.2041  162.6414 H   0  0  0  0  0  0  0  0  0  0  0  0
  154.9118  141.0379  160.4852 H   0  0  0  0  0  0  0  0  0  0  0  0
  153.4221  140.8085  161.3998 H   0  0  0  0  0  0  0  0  0  0  0  0
  154.0751  138.4150  160.4053 H   0  0  0  0  0  0  0  0  0  0  0  0
  152.3455  138.5411  160.5185 H   0  0  0  0  0  0  0  0  0  0  0  0
  153.4035  137.2455  156.7163 H   0  0  0  0  0  0  0  0  0  0  0  0
  154.5876  138.2847  157.4905 H   0  0  0  0  0  0  0  0  0  0  0  0
  153.0208  138.9473  157.0193 H   0  0  0  0  0  0  0  0  0  0  0  0
  149.2379  136.6326  160.7851 H   0  0  0  0  0  0  0  0  0  0  0  0
  151.0446  134.7514  154.8984 H   0  0  0  0  0  0  0  0  0  0  0  0
  148.4788  133.4398  157.1333 H   0  0  0  0  0  0  0  0  0  0  0  0
  147.7727  134.7939  156.3148 H   0  0  0  0  0  0  0  0  0  0  0  0
  149.2750  134.0727  154.2759 H   0  0  0  0  0  0  0  0  0  0  0  0
  149.8054  131.6712  154.0951 H   0  0  0  0  0  0  0  0  0  0  0  0
  150.6168  132.3521  155.4869 H   0  0  0  0  0  0  0  0  0  0  0  0
  149.7230  130.6641  156.3378 H   0  0  0  0  0  0  0  0  0  0  0  0
  146.8816  132.2990  154.9110 H   0  0  0  0  0  0  0  0  0  0  0  0
  148.0942  133.2890  152.3133 H   0  0  0  0  0  0  0  0  0  0  0  0
  147.7183  131.6166  152.7425 H   0  0  0  0  0  0  0  0  0  0  0  0
  145.9128  133.1365  151.3673 H   0  0  0  0  0  0  0  0  0  0  0  0
  145.3629  132.0136  152.6145 H   0  0  0  0  0  0  0  0  0  0  0  0
  145.9517  134.5391  155.1733 H   0  0  0  0  0  0  0  0  0  0  0  0
  146.9924  135.1764  153.9029 H   0  0  0  0  0  0  0  0  0  0  0  0
  150.4950  140.7201  157.5138 H   0  0  0  0  0  0  0  0  0  0  0  0
  151.1876  139.1394  157.8498 H   0  0  0  0  0  0  0  0  0  0  0  0
  152.1130  140.3265  156.9260 H   0  0  0  0  0  0  0  0  0  0  0  0
  151.3468  142.7298  159.0305 H   0  0  0  0  0  0  0  0  0  0  0  0
  152.6877  142.3869  157.9477 H   0  0  0  0  0  0  0  0  0  0  0  0
  1  2  1  0  0  0  0
  1 32  1  0  0  0  0
  1 33  1  0  0  0  0
  1 34  1  0  0  0  0
  2  3  1  0  0  0  0
  3 30  1  0  0  0  0
  3 29  1  0  0  0  0
  3  4  1  0  0  0  0
  4  5  1  0  0  0  0
  4 35  1  0  0  0  0
  4 36  1  0  0  0  0
  5 31  1  0  0  0  0
  5  6  1  0  0  0  0
  5 27  1  0  0  0  0
  6  7  1  0  0  0  0
  6 37  1  0  0  0  0
  6 38  1  0  0  0  0
  7  8  1  0  0  0  0
  7  9  1  0  0  0  0
  8 39  1  0  0  0  0
  8 40  1  0  0  0  0
  8 41  1  0  0  0  0
  9 14  1  0  0  0  0
  9 10  2  0  0  0  0
 10 11  1  0  0  0  0
 11 12  2  0  0  0  0
 11 42  1  0  0  0  0
 12 13  1  0  0  0  0
 13 17  1  0  0  0  0
 13 14  2  0  0  0  0
 14 15  1  0  0  0  0
 15 16  2  0  0  0  0
 16 17  1  0  0  0  0
 16 43  1  0  0  0  0
 17 18  1  0  0  0  0
 18 19  1  0  0  0  0
 18 44  1  0  0  0  0
 18 45  1  0  0  0  0
 19 20  1  0  0  0  0
 19 22  1  0  0  0  0
 19 46  1  0  0  0  0
 20 21  1  0  0  0  0
 20 47  1  0  0  0  0
 20 48  1  0  0  0  0
 21 49  1  0  0  0  0
 22 26  1  0  0  0  0
 22 23  1  0  0  0  0
 22 50  1  0  0  0  0
 23 24  1  0  0  0  0
 23 51  1  0  0  0  0
 23 52  1  0  0  0  0
 24 25  1  0  0  0  0
 24 53  1  0  0  0  0
 24 54  1  0  0  0  0
 25 26  1  0  0  0  0
 26 55  1  0  0  0  0
 26 56  1  0  0  0  0
 27 28  1  0  0  0  0
 27 29  1  0  0  0  0
 28 57  1  0  0  0  0
 28 58  1  0  0  0  0
 28 59  1  0  0  0  0
 29 60  1  0  0  0  0
 29 61  1  0  0  0  0
M  END
> <s_m_source_file>
AV-unprocessed.smi

> <i_m_source_file_index>
21

> <i_lp_mmshare_version>
43012

> <i_f3d_flags>
0

> <s_epik_input>
W0NIM11PW0NASF0xW0NIMl1bQ0BIXShOKFtDSDNdKVtDSDJdMSlbQ0gyXU4oW0NIM10pYyhuW2NIXW4yKWMoYzIzKW5bY0hdbjNbQ0gyXVtDQEhdKFtDSDJdW09IXSlbQ0BASF00W0NIMl1bQ0gyXU9bQ0gyXTQ=

> <s_epik_cmdline>
J2VwaWtfcHl0aG9uJywgJy1waCcsICc3LjAnLCAnLXRuJywgJzgnLCAnLW1hJywgJzIwMCcsICctbWV0YWxfYmluZGluZycsICctaW1hZScsICc8aW5maWxlLm1hZT4nLCAnLW9tYWUnLCAnPG91dGZpbGUubWFlPic=

> <r_lp_tautomer_probability>
1

> <r_epik_Ionization_Penalty>
2.17574

> <r_epik_Ionization_Penalty_Charging>
0

> <r_epik_Ionization_Penalty_Neutral>
2.17574

> <r_epik_State_Penalty>
2.31336

> <r_epik_Charging_Adjusted_Penalty>
2.31336

> <i_epik_Tot_Q>
0

> <i_epik_Tot_abs_Q>
0

> <r_epik_Metal_State_Penalty>
2.31025

> <b_epik_Metal_Only>
0

> <s_lp_Force_Field>
OPLS_2005

> <r_lp_Energy>
71.0879

> <b_lp_Chiralities_Consistent>
1

> <s_lp_Variant>
AV-unprocessed.smi:21-37

> <Gold.Version>
5.8.1

> <Gold.Id.Protein>
6NUR|6NUR_protein|mol2

> <Gold.PLP.Fitness>
45.1191

> <Gold.PLP.PLP>
-42.1772

> <Gold.PLP.part.hbond>
-1.9365

> <Gold.PLP.part.metal>
0.0000

> <Gold.PLP.part.buried>
-6.3728

> <Gold.PLP.part.nonpolar>
-33.4433

> <Gold.PLP.part.repulsive>
0.2643

> <Gold.PLP.ligand.clash>
0.0000

> <Gold.PLP.ligand.torsion>
1.5088

> <Gold.PLP.Chemscore.Hbond>
1.2249

> <Gold.PLP.Chemscore.CHOScore>
0.3768

> <Gold.PLP.Chemscore.Metal>
0.0000

> <Gold.Chemscore.Hbonds>
donor molecule, donor type, donor heavy atom, donor atom, acceptor molecule, acceptor atom, score
      P1  H 10752 10764       L1    15  0.23

> <Gold.PLP.Chemscore.Internal.Correction>
1.1545

> <Gold.Rescore>
     Score         DG    S(hbond)    S(metal)    S(lipo)     H(rot)  DE(clash)    DE(int)     intcor
      9.01     -12.00       0.98        0.00      98.93       3.26       0.10       2.89       ----

> <Gold.Chemscore.Fitness>
9.0081

> <Gold.Chemscore.DG>
-11.9981

> <Gold.Chemscore.ZeroCoef>
-5.4800

> <Gold.Chemscore.Hbond>
0.9829

> <Gold.Chemscore.Metal>
0.0000

> <Gold.Chemscore.Lipo>
98.9288

> <Gold.Chemscore.Internal_Hbond>
0.0000

> <Gold.Chemscore.DEClash>
0.0962

> <Gold.Chemscore.DEInternal>
2.8938

> <Gold.Chemscore.Rot>
3.2576

> <Gold.Chemscore.Internal.Correction>
   9.000000E+99

> <Gold.Chemscore.Hbond.Weighted>
-3.2829

> <Gold.Chemscore.Metal.Weighted>
-0.0000

> <Gold.Chemscore.Lipo.Weighted>
-11.5747

> <Gold.Chemscore.Internal_Hbond.Weighted>
0.0000

> <Gold.Chemscore.DEClash.Weighted>
0.0962

> <Gold.Chemscore.DEInternal.Weighted>
2.8938

> <Gold.Chemscore.Rot.Weighted>
8.3395

> <Gold.Chemscore.Internal.Correction.Weighted>
   9.000000E+99

> <Gold.Protein.RotatedTorsions>
[ 6907 6896 6895 6894 ] final  -21.46 input  -60.11 | X-H torsion
[ 7974 7965 7964 7962 ] final    5.58 input  175.53 | X-H torsion
[ 8008 7997 7996 7995 ] final  -19.02 input   59.86 | X-H torsion
[ 10167 10162 10161 10158 ] final   46.47 input  -65.29 | X-H torsion
[ 10718 10713 10712 10709 ] final  106.54 input   66.30 | X-H torsion
[ 10763 10752 10751 10750 ] final  -54.44 input  -60.55 | X-H torsion
[ 11005 11000 10999 10996 ] final  -70.09 input  -57.11 | X-H torsion

> <Gold.Protein.ActiveResidues>
 VAL166  LYS551  ARG553  GLY616  TRP617  ASP618  TYR619  PRO620  LYS621  CYS622 
 ASP623  PHE694  ASN695  SER759  ASP760  ASP761  ALA762  ILE779  LEU786  VAL792 
 PHE793  MET794  SER795  GLU796  ALA797  LYS798  CYS799  TRP800  GLU811  SER814 

> <Gold.Protein.RotatedAtoms>
  151.2331  135.0561  159.8995 H   0  0  0  0  0  0  0  0  0  0  0  0  # atno 6907 bound_to 6896
  152.5402  134.0516  159.8122 H   0  0  0  0  0  0  0  0  0  0  0  0  # atno 6908 bound_to 6896
  151.0698  133.5426  159.2659 H   0  0  0  0  0  0  0  0  0  0  0  0  # atno 6909 bound_to 6896
  146.2440  140.0362  142.8385 H   0  0  0  0  0  0  0  0  0  0  0  0  # atno 7974 bound_to 7965
  154.4865  140.2100  155.9643 H   0  0  0  0  0  0  0  0  0  0  0  0  # atno 8008 bound_to 7997
  156.1244  140.3208  155.8224 H   0  0  0  0  0  0  0  0  0  0  0  0  # atno 8009 bound_to 7997
  155.4410  140.0510  157.3001 H   0  0  0  0  0  0  0  0  0  0  0  0  # atno 8010 bound_to 7997
  140.3136  144.2790  150.6195 H   0  0  0  0  0  0  0  0  0  0  0  0  # atno 10167 bound_to 10162
  157.6664  131.0853  150.6022 H   0  0  0  0  0  0  0  0  0  0  0  0  # atno 10718 bound_to 10713
  154.1748  135.6453  153.5019 H   0  0  0  0  0  0  0  0  0  0  0  0  # atno 10763 bound_to 10752
  153.0074  135.5392  154.6575 H   0  0  0  0  0  0  0  0  0  0  0  0  # atno 10764 bound_to 10752
  154.5924  135.2935  155.0594 H   0  0  0  0  0  0  0  0  0  0  0  0  # atno 10765 bound_to 10752
  141.1567  133.6781  156.6699 H   0  0  0  0  0  0  0  0  0  0  0  0  # atno 11005 bound_to 11000
  145.1110  140.9405  143.4656 LP  0  0  0  0  0  0  0  0  0  0  0  0  # atno 17320 bound_to 7965
  145.0576  139.3131  143.5897 LP  0  0  0  0  0  0  0  0  0  0  0  0  # atno 17321 bound_to 7965
  140.5546  143.2201  151.7869 LP  0  0  0  0  0  0  0  0  0  0  0  0  # atno 17342 bound_to 10162
  139.4888  144.4431  151.9742 LP  0  0  0  0  0  0  0  0  0  0  0  0  # atno 17343 bound_to 10162
  156.6323  130.4435  149.5782 LP  0  0  0  0  0  0  0  0  0  0  0  0  # atno 17370 bound_to 10713
  156.2272  130.6773  151.1428 LP  0  0  0  0  0  0  0  0  0  0  0  0  # atno 17371 bound_to 10713
  140.3183  134.8029  157.4232 LP  0  0  0  0  0  0  0  0  0  0  0  0  # atno 17394 bound_to 11000
  140.1119  134.5334  155.8258 LP  0  0  0  0  0  0  0  0  0  0  0  0  # atno 17395 bound_to 11000

$$$$
