AV-unprocessed.smi:3331|AV-procd|sdf|12824|dock5
  -GOLD-   2272019203D 1   1.00000     0.00000
 Structure written by MMmdl.
 46 47  0  0  0  0  0  0  0  0  1 V2000
  153.9527  141.4491  161.5566 C   0  0  0  0  0  0  0  0  0  0  0  0
  152.8717  141.2403  160.4872 C   0  0  1  0  0  0  0  0  0  0  0  0
  152.4283  142.5807  159.8576 C   0  0  0  0  0  0  0  0  0  0  0  0
  151.4354  142.3849  158.6889 C   0  0  1  0  0  0  0  0  0  0  0  0
  151.1073  143.7145  157.9962 C   0  0  0  0  0  0  0  0  0  0  0  0
  151.9835  141.3433  157.6904 C   0  0  0  0  0  0  0  0  0  0  0  0
  152.2486  140.0971  158.4201 N   0  0  0  0  0  0  0  0  0  0  0  0
  151.4584  139.0012  158.2947 C   0  0  0  0  0  0  0  0  0  0  0  0
  150.5624  138.9405  157.4496 O   0  0  0  0  0  0  0  0  0  0  0  0
  151.6542  137.7877  159.2353 C   0  0  2  0  0  0  0  0  0  0  0  0
  153.0911  137.2566  159.1126 C   0  0  0  0  0  0  0  0  0  0  0  0
  150.7041  136.6964  158.9598 N   0  0  0  0  0  0  0  0  0  0  0  0
  149.3068  137.0930  159.1136 C   0  0  0  0  0  0  0  0  0  0  0  0
  148.4441  135.8604  159.4257 C   0  0  0  0  0  0  0  0  0  0  0  0
  147.9650  135.8733  160.7964 N   0  0  0  0  0  0  0  0  0  0  0  0
  147.7276  134.8033  161.6333 C   0  0  0  0  0  0  0  0  0  0  0  0
  147.2632  135.3071  162.8143 C   0  0  0  0  0  0  0  0  0  0  0  0
  147.2509  136.7138  162.5998 C   0  0  0  0  0  0  0  0  0  0  0  0
  147.6733  137.0499  161.3920 N   0  0  0  0  0  0  0  0  0  0  0  0
  153.3434  140.2749  159.3816 C   0  0  0  0  0  0  0  0  0  0  0  0
  154.8552  141.8862  161.1284 H   0  0  0  0  0  0  0  0  0  0  0  0
  154.2293  140.5034  162.0234 H   0  0  0  0  0  0  0  0  0  0  0  0
  153.6009  142.1152  162.3447 H   0  0  0  0  0  0  0  0  0  0  0  0
  152.0052  140.7938  160.9779 H   0  0  0  0  0  0  0  0  0  0  0  0
  151.9834  143.2211  160.6202 H   0  0  0  0  0  0  0  0  0  0  0  0
  153.3089  143.1098  159.4904 H   0  0  0  0  0  0  0  0  0  0  0  0
  150.5046  141.9932  159.1027 H   0  0  0  0  0  0  0  0  0  0  0  0
  151.9970  144.1595  157.5496 H   0  0  0  0  0  0  0  0  0  0  0  0
  150.6930  144.4336  158.7033 H   0  0  0  0  0  0  0  0  0  0  0  0
  150.3728  143.5716  157.2033 H   0  0  0  0  0  0  0  0  0  0  0  0
  151.2811  141.2087  156.8667 H   0  0  0  0  0  0  0  0  0  0  0  0
  152.9061  141.7030  157.2324 H   0  0  0  0  0  0  0  0  0  0  0  0
  151.4854  138.0829  160.2699 H   0  0  0  0  0  0  0  0  0  0  0  0
  153.8258  138.0308  159.3361 H   0  0  0  0  0  0  0  0  0  0  0  0
  153.2953  136.8879  158.1063 H   0  0  0  0  0  0  0  0  0  0  0  0
  153.2647  136.4344  159.8073 H   0  0  0  0  0  0  0  0  0  0  0  0
  150.8892  135.8812  159.5260 H   0  0  0  0  0  0  0  0  0  0  0  0
  149.2377  137.8161  159.9267 H   0  0  0  0  0  0  0  0  0  0  0  0
  148.9185  137.5859  158.2217 H   0  0  0  0  0  0  0  0  0  0  0  0
  147.5898  135.7984  158.7501 H   0  0  0  0  0  0  0  0  0  0  0  0
  149.0274  134.9509  159.2754 H   0  0  0  0  0  0  0  0  0  0  0  0
  147.9007  133.7848  161.3194 H   0  0  0  0  0  0  0  0  0  0  0  0
  146.9726  134.7550  163.6957 H   0  0  0  0  0  0  0  0  0  0  0  0
  146.9495  137.4955  163.2812 H   0  0  0  0  0  0  0  0  0  0  0  0
  154.2059  140.6982  158.8642 H   0  0  0  0  0  0  0  0  0  0  0  0
  153.7096  139.3416  159.8045 H   0  0  0  0  0  0  0  0  0  0  0  0
  1  2  1  0  0  0  0
  1 21  1  0  0  0  0
  1 22  1  0  0  0  0
  1 23  1  0  0  0  0
  2 20  1  0  0  0  0
  2  3  1  0  0  0  0
  2 24  1  0  0  0  0
  3  4  1  0  0  0  0
  3 25  1  0  0  0  0
  3 26  1  0  0  0  0
  4  5  1  0  0  0  0
  4  6  1  0  0  0  0
  4 27  1  0  0  0  0
  5 28  1  0  0  0  0
  5 29  1  0  0  0  0
  5 30  1  0  0  0  0
  6  7  1  0  0  0  0
  6 31  1  0  0  0  0
  6 32  1  0  0  0  0
  7  8  1  0  0  0  0
  7 20  1  0  0  0  0
  8  9  2  0  0  0  0
  8 10  1  0  0  0  0
 10 11  1  0  0  0  0
 10 12  1  0  0  0  0
 10 33  1  0  0  0  0
 11 34  1  0  0  0  0
 11 35  1  0  0  0  0
 11 36  1  0  0  0  0
 12 13  1  0  0  0  0
 12 37  1  0  0  0  0
 13 14  1  0  0  0  0
 13 38  1  0  0  0  0
 13 39  1  0  0  0  0
 14 15  1  0  0  0  0
 14 40  1  0  0  0  0
 14 41  1  0  0  0  0
 15 19  1  0  0  0  0
 15 16  1  0  0  0  0
 16 17  2  0  0  0  0
 16 42  1  0  0  0  0
 17 18  1  0  0  0  0
 17 43  1  0  0  0  0
 18 19  2  0  0  0  0
 18 44  1  0  0  0  0
 20 45  1  0  0  0  0
 20 46  1  0  0  0  0
M  END
> <s_m_source_file>
AV-unprocessed.smi

> <i_m_source_file_index>
3331

> <i_lp_mmshare_version>
43012

> <i_f3d_flags>
0

> <s_epik_input>
W0NIM11bQ0BASF0xW0NIMl1bQ0BASF0oW0NIM10pW0NIMl1OKFtDSDJdMSlDKD1PKVtDQEhdKFtDSDNdKVtOSF1bQ0gyXVtDSDJdbjJbY0hdW2NIXVtjSF1uMg==

> <s_epik_cmdline>
J2VwaWtfcHl0aG9uJywgJy1waCcsICc3LjAnLCAnLXRuJywgJzgnLCAnLW1hJywgJzIwMCcsICctbWV0YWxfYmluZGluZycsICctaW1hZScsICc8aW5maWxlLm1hZT4nLCAnLW9tYWUnLCAnPG91dGZpbGUubWFlPic=

> <r_lp_tautomer_probability>
1

> <r_epik_Ionization_Penalty>
0.767994

> <r_epik_Ionization_Penalty_Charging>
0

> <r_epik_Ionization_Penalty_Neutral>
0.767994

> <r_epik_State_Penalty>
0.795453

> <r_epik_Charging_Adjusted_Penalty>
0.795453

> <i_epik_Tot_Q>
0

> <i_epik_Tot_abs_Q>
0

> <r_epik_Metal_State_Penalty>
0.794784

> <b_epik_Metal_Only>
0

> <s_lp_Force_Field>
OPLS_2005

> <r_lp_Energy>
28.4276

> <b_lp_Chiralities_Consistent>
1

> <s_lp_Variant>
AV-unprocessed.smi:3331-8

> <Gold.Version>
5.8.1

> <Gold.Id.Protein>
6NUR|6NUR_protein|mol2

> <Gold.PLP.Fitness>
48.4936

> <Gold.PLP.PLP>
-44.8527

> <Gold.PLP.part.hbond>
-3.0000

> <Gold.PLP.part.metal>
0.0000

> <Gold.PLP.part.buried>
-4.2926

> <Gold.PLP.part.nonpolar>
-37.1237

> <Gold.PLP.part.repulsive>
0.0000

> <Gold.PLP.ligand.clash>
0.0000

> <Gold.PLP.ligand.torsion>
0.8725

> <Gold.PLP.Chemscore.Hbond>
1.7680

> <Gold.PLP.Chemscore.CHOScore>
0.0000

> <Gold.PLP.Chemscore.Metal>
0.0000

> <Gold.Chemscore.Hbonds>
donor molecule, donor type, donor heavy atom, donor atom, acceptor molecule, acceptor atom, score
      P1  H  6931  6943       L1    19  0.90
      P1  H  6934  6947       L1    19  0.73

> <Gold.PLP.Chemscore.Internal.Correction>
0.0819

> <Gold.Rescore>
     Score         DG    S(hbond)    S(metal)    S(lipo)     H(rot)  DE(clash)    DE(int)     intcor
     16.65     -19.08       1.34        0.00     114.34       1.66       0.23       2.20       ----

> <Gold.Chemscore.Fitness>
16.6530

> <Gold.Chemscore.DG>
-19.0835

> <Gold.Chemscore.ZeroCoef>
-5.4800

> <Gold.Chemscore.Hbond>
1.3437

> <Gold.Chemscore.Metal>
0.0000

> <Gold.Chemscore.Lipo>
114.3395

> <Gold.Chemscore.Internal_Hbond>
0.0000

> <Gold.Chemscore.DEClash>
0.2324

> <Gold.Chemscore.DEInternal>
2.1981

> <Gold.Chemscore.Rot>
1.6649

> <Gold.Chemscore.Internal.Correction>
   9.000000E+99

> <Gold.Chemscore.Hbonds>
donor molecule, donor type, donor heavy atom, donor atom, acceptor molecule, acceptor atom, score
      P1  H  6931  6943       L1    19  0.17
      P1  H  6934  6947       L1    19  0.56

> <Gold.Chemscore.Hbond.Weighted>
-4.4878

> <Gold.Chemscore.Metal.Weighted>
-0.0000

> <Gold.Chemscore.Lipo.Weighted>
-13.3777

> <Gold.Chemscore.Internal_Hbond.Weighted>
0.0000

> <Gold.Chemscore.DEClash.Weighted>
0.2324

> <Gold.Chemscore.DEInternal.Weighted>
2.1981

> <Gold.Chemscore.Rot.Weighted>
4.2621

> <Gold.Chemscore.Internal.Correction.Weighted>
   9.000000E+99

> <Gold.Protein.RotatedTorsions>
[ 6907 6896 6895 6894 ] final  -16.16 input  -60.11 | X-H torsion
[ 7974 7965 7964 7962 ] final -140.63 input  175.53 | X-H torsion
[ 8008 7997 7996 7995 ] final   78.31 input   59.86 | X-H torsion
[ 10167 10162 10161 10158 ] final -119.25 input  -65.29 | X-H torsion
[ 10718 10713 10712 10709 ] final  -89.22 input   66.30 | X-H torsion
[ 10763 10752 10751 10750 ] final  -24.25 input  -60.55 | X-H torsion
[ 11005 11000 10999 10996 ] final -160.03 input  -57.11 | X-H torsion

> <Gold.Protein.ActiveResidues>
 VAL166  LYS551  ARG553  GLY616  TRP617  ASP618  TYR619  PRO620  LYS621  CYS622 
 ASP623  PHE694  ASN695  SER759  ASP760  ASP761  ALA762  ILE779  LEU786  VAL792 
 PHE793  MET794  SER795  GLU796  ALA797  LYS798  CYS799  TRP800  GLU811  SER814 

> <Gold.Protein.RotatedAtoms>
  151.3129  135.0799  159.9278 H   0  0  0  0  0  0  0  0  0  0  0  0  # atno 6907 bound_to 6896
  152.5274  133.9718  159.7776 H   0  0  0  0  0  0  0  0  0  0  0  0  # atno 6908 bound_to 6896
  151.0024  133.5991  159.2723 H   0  0  0  0  0  0  0  0  0  0  0  0  # atno 6909 bound_to 6896
  144.8582  140.6176  143.5346 H   0  0  0  0  0  0  0  0  0  0  0  0  # atno 7974 bound_to 7965
  155.8539  140.3457  155.5711 H   0  0  0  0  0  0  0  0  0  0  0  0  # atno 8008 bound_to 7997
  155.8008  140.0885  157.1978 H   0  0  0  0  0  0  0  0  0  0  0  0  # atno 8009 bound_to 7997
  154.4009  140.1466  156.3259 H   0  0  0  0  0  0  0  0  0  0  0  0  # atno 8010 bound_to 7997
  140.0487  143.5082  152.2093 H   0  0  0  0  0  0  0  0  0  0  0  0  # atno 10167 bound_to 10162
  155.9984  130.4864  150.5138 H   0  0  0  0  0  0  0  0  0  0  0  0  # atno 10718 bound_to 10713
  153.6807  135.6967  153.5119 H   0  0  0  0  0  0  0  0  0  0  0  0  # atno 10763 bound_to 10752
  153.2487  135.4282  155.0774 H   0  0  0  0  0  0  0  0  0  0  0  0  # atno 10764 bound_to 10752
  154.8401  135.3526  154.6350 H   0  0  0  0  0  0  0  0  0  0  0  0  # atno 10765 bound_to 10752
  140.6360  134.4601  157.5231 H   0  0  0  0  0  0  0  0  0  0  0  0  # atno 11005 bound_to 11000
  145.4365  139.1541  143.3994 LP  0  0  0  0  0  0  0  0  0  0  0  0  # atno 17320 bound_to 7965
  146.2839  140.4484  142.8765 LP  0  0  0  0  0  0  0  0  0  0  0  0  # atno 17321 bound_to 7965
  139.5967  144.7569  151.3269 LP  0  0  0  0  0  0  0  0  0  0  0  0  # atno 17342 bound_to 10162
  140.7227  143.7091  150.7784 LP  0  0  0  0  0  0  0  0  0  0  0  0  # atno 17343 bound_to 10162
  157.3107  131.0663  151.2002 LP  0  0  0  0  0  0  0  0  0  0  0  0  # atno 17370 bound_to 10713
  157.2949  130.6814  149.6133 LP  0  0  0  0  0  0  0  0  0  0  0  0  # atno 17371 bound_to 10713
  139.9098  134.8370  156.1571 LP  0  0  0  0  0  0  0  0  0  0  0  0  # atno 17394 bound_to 11000
  141.0641  133.6827  156.2010 LP  0  0  0  0  0  0  0  0  0  0  0  0  # atno 17395 bound_to 11000

$$$$
