AV-unprocessed.smi:2954|AV-procd|sdf|11298|dock8
  -GOLD-   2272016193D 1   1.00000     0.00000
 Structure written by MMmdl.
 42 44  0  0  0  0  0  0  0  0  1 V2000
  152.6925  137.1949  158.2425 C   0  0  0  0  0  0  0  0  0  0  0  0
  152.8324  138.3775  157.2752 C   0  0  1  0  0  0  0  0  0  0  0  0
  151.8669  138.2581  156.1856 N   0  0  0  0  0  0  0  0  0  0  0  0
  151.8892  139.0017  155.0719 C   0  0  0  0  0  0  0  0  0  0  0  0
  152.7371  139.8635  154.8554 O   0  0  0  0  0  0  0  0  0  0  0  0
  152.6280  139.7021  157.9683 C   0  0  0  0  0  0  0  0  0  0  0  0
  151.7079  140.5810  157.5607 N   0  0  0  0  0  0  0  0  0  0  0  0
  151.8722  141.6311  158.4410 C   0  0  0  0  0  0  0  0  0  0  0  0
  151.2009  142.8717  158.5259 C   0  0  0  0  0  0  0  0  0  0  0  0
  151.5507  143.8057  159.5227 C   0  0  0  0  0  0  0  0  0  0  0  0
  152.5739  143.5127  160.4472 C   0  0  0  0  0  0  0  0  0  0  0  0
  153.2528  142.2810  160.3815 C   0  0  0  0  0  0  0  0  0  0  0  0
  152.8994  141.3514  159.3848 C   0  0  0  0  0  0  0  0  0  0  0  0
  153.3598  140.0815  159.0480 N   0  0  0  0  0  0  0  0  0  0  0  0
  154.4238  139.3549  159.7283 C   0  0  0  0  0  0  0  0  0  0  0  0
  153.8837  138.4800  160.8695 C   0  0  0  0  0  0  0  0  0  0  0  0
  154.7019  137.3242  160.9898 O   0  0  0  0  0  0  0  0  0  0  0  0
  154.5539  136.5254  162.1023 C   0  0  0  0  0  0  0  0  0  0  0  0
  154.1004  137.0002  163.3590 C   0  0  0  0  0  0  0  0  0  0  0  0
  153.9743  136.1200  164.4509 C   0  0  0  0  0  0  0  0  0  0  0  0
  154.3005  134.7596  164.3029 C   0  0  0  0  0  0  0  0  0  0  0  0
  154.7550  134.2798  163.0609 C   0  0  0  0  0  0  0  0  0  0  0  0
  154.8818  135.1581  161.9668 C   0  0  0  0  0  0  0  0  0  0  0  0
  155.4340  134.5451  160.4487 Cl  0  0  0  0  0  0  0  0  0  0  0  0
  153.4235  137.2639  159.0485 H   0  0  0  0  0  0  0  0  0  0  0  0
  152.8548  136.2462  157.7300 H   0  0  0  0  0  0  0  0  0  0  0  0
  151.7006  137.1649  158.6947 H   0  0  0  0  0  0  0  0  0  0  0  0
  153.8290  138.3306  156.8385 H   0  0  0  0  0  0  0  0  0  0  0  0
  151.1366  137.5685  156.2876 H   0  0  0  0  0  0  0  0  0  0  0  0
  151.0674  138.7426  154.3868 H   0  0  0  0  0  0  0  0  0  0  0  0
  150.4174  143.1063  157.8207 H   0  0  0  0  0  0  0  0  0  0  0  0
  151.0327  144.7520  159.5772 H   0  0  0  0  0  0  0  0  0  0  0  0
  152.8385  144.2343  161.2061 H   0  0  0  0  0  0  0  0  0  0  0  0
  154.0404  142.0574  161.0852 H   0  0  0  0  0  0  0  0  0  0  0  0
  154.9336  138.7270  158.9972 H   0  0  0  0  0  0  0  0  0  0  0  0
  155.1720  140.0589  160.0928 H   0  0  0  0  0  0  0  0  0  0  0  0
  153.8841  139.0432  161.8037 H   0  0  0  0  0  0  0  0  0  0  0  0
  152.8543  138.1937  160.6531 H   0  0  0  0  0  0  0  0  0  0  0  0
  153.8474  138.0384  163.5112 H   0  0  0  0  0  0  0  0  0  0  0  0
  153.6275  136.4903  165.4044 H   0  0  0  0  0  0  0  0  0  0  0  0
  154.2027  134.0853  165.1409 H   0  0  0  0  0  0  0  0  0  0  0  0
  155.0055  133.2352  162.9476 H   0  0  0  0  0  0  0  0  0  0  0  0
  1  2  1  0  0  0  0
  1 25  1  0  0  0  0
  1 26  1  0  0  0  0
  1 27  1  0  0  0  0
  2  3  1  0  0  0  0
  2  6  1  0  0  0  0
  2 28  1  0  0  0  0
  3  4  1  0  0  0  0
  3 29  1  0  0  0  0
  4  5  2  0  0  0  0
  4 30  1  0  0  0  0
  6 14  1  0  0  0  0
  6  7  2  0  0  0  0
  7  8  1  0  0  0  0
  8 13  2  0  0  0  0
  8  9  1  0  0  0  0
  9 10  2  0  0  0  0
  9 31  1  0  0  0  0
 10 11  1  0  0  0  0
 10 32  1  0  0  0  0
 11 12  2  0  0  0  0
 11 33  1  0  0  0  0
 12 13  1  0  0  0  0
 12 34  1  0  0  0  0
 13 14  1  0  0  0  0
 14 15  1  0  0  0  0
 15 16  1  0  0  0  0
 15 35  1  0  0  0  0
 15 36  1  0  0  0  0
 16 17  1  0  0  0  0
 16 37  1  0  0  0  0
 16 38  1  0  0  0  0
 17 18  1  0  0  0  0
 18 23  1  0  0  0  0
 18 19  2  0  0  0  0
 19 20  1  0  0  0  0
 19 39  1  0  0  0  0
 20 21  2  0  0  0  0
 20 40  1  0  0  0  0
 21 22  1  0  0  0  0
 21 41  1  0  0  0  0
 22 23  2  0  0  0  0
 22 42  1  0  0  0  0
 23 24  1  0  0  0  0
M  END
> <s_m_source_file>
AV-unprocessed.smi

> <i_m_source_file_index>
2954

> <i_lp_mmshare_version>
43012

> <i_f3d_flags>
0

> <s_epik_input>
Tz1bQ0hdW05IXVtDQEBIXShbQ0gzXSljKG4xKW4oYyhjMTIpW2NIXVtjSF1bY0hdW2NIXTIpW0NIMl1bQ0gyXU9jM1tjSF1bY0hdW2NIXVtjSF1jM0Ns

> <s_epik_cmdline>
J2VwaWtfcHl0aG9uJywgJy1waCcsICc3LjAnLCAnLXRuJywgJzgnLCAnLW1hJywgJzIwMCcsICctbWV0YWxfYmluZGluZycsICctaW1hZScsICc8aW5maWxlLm1hZT4nLCAnLW9tYWUnLCAnPG91dGZpbGUubWFlPic=

> <r_lp_tautomer_probability>
1

> <r_epik_Ionization_Penalty>
0.0861383

> <r_epik_Ionization_Penalty_Charging>
0

> <r_epik_Ionization_Penalty_Neutral>
0.0861383

> <r_epik_State_Penalty>
0.0766841

> <r_epik_Charging_Adjusted_Penalty>
0.0766841

> <i_epik_Tot_Q>
0

> <i_epik_Tot_abs_Q>
0

> <r_epik_Metal_State_Penalty>
0.0668745

> <b_epik_Metal_Only>
0

> <s_lp_Force_Field>
OPLS_2005

> <r_lp_Energy>
11.8377

> <b_lp_Chiralities_Consistent>
1

> <s_lp_Variant>
AV-unprocessed.smi:2954-2

> <Gold.Version>
5.8.1

> <Gold.Id.Protein>
6NUR|6NUR_protein|mol2

> <Gold.PLP.Fitness>
48.4507

> <Gold.PLP.PLP>
-46.3989

> <Gold.PLP.part.hbond>
-2.0000

> <Gold.PLP.part.metal>
0.0000

> <Gold.PLP.part.buried>
-3.2554

> <Gold.PLP.part.nonpolar>
-40.5222

> <Gold.PLP.part.repulsive>
0.1419

> <Gold.PLP.ligand.clash>
0.0000

> <Gold.PLP.ligand.torsion>
1.1024

> <Gold.PLP.Chemscore.Hbond>
1.4080

> <Gold.PLP.Chemscore.CHOScore>
0.0000

> <Gold.PLP.Chemscore.Metal>
0.0000

> <Gold.Chemscore.Hbonds>
donor molecule, donor type, donor heavy atom, donor atom, acceptor molecule, acceptor atom, score
      P1  H  7989  7998       L1     5  0.41
      P1  H  7997  8009       L1     5  1.00

> <Gold.PLP.Chemscore.Internal.Correction>
0.0325

> <Gold.Rescore>
     Score         DG    S(hbond)    S(metal)    S(lipo)     H(rot)  DE(clash)    DE(int)     intcor
     17.30     -18.74       0.99        0.00     134.97       2.28       0.19       1.25       ----

> <Gold.Chemscore.Fitness>
17.3010

> <Gold.Chemscore.DG>
-18.7410

> <Gold.Chemscore.ZeroCoef>
-5.4800

> <Gold.Chemscore.Hbond>
0.9937

> <Gold.Chemscore.Metal>
0.0000

> <Gold.Chemscore.Lipo>
134.9692

> <Gold.Chemscore.Internal_Hbond>
0.0000

> <Gold.Chemscore.DEClash>
0.1856

> <Gold.Chemscore.DEInternal>
1.2544

> <Gold.Chemscore.Rot>
2.2849

> <Gold.Chemscore.Internal.Correction>
   9.000000E+99

> <Gold.Chemscore.Hbonds>
donor molecule, donor type, donor heavy atom, donor atom, acceptor molecule, acceptor atom, score
      P1  H  7989  7998       L1     5  0.07
      P1  H  7997  8009       L1     5  0.93

> <Gold.Chemscore.Hbond.Weighted>
-3.3190

> <Gold.Chemscore.Metal.Weighted>
-0.0000

> <Gold.Chemscore.Lipo.Weighted>
-15.7914

> <Gold.Chemscore.Internal_Hbond.Weighted>
0.0000

> <Gold.Chemscore.DEClash.Weighted>
0.1856

> <Gold.Chemscore.DEInternal.Weighted>
1.2544

> <Gold.Chemscore.Rot.Weighted>
5.8495

> <Gold.Chemscore.Internal.Correction.Weighted>
   9.000000E+99

> <Gold.Protein.RotatedTorsions>
[ 6907 6896 6895 6894 ] final  -53.38 input  -60.11 | X-H torsion
[ 7974 7965 7964 7962 ] final  142.67 input  175.53 | X-H torsion
[ 8008 7997 7996 7995 ] final -130.81 input   59.86 | X-H torsion
[ 10167 10162 10161 10158 ] final  -20.77 input  -65.29 | X-H torsion
[ 10718 10713 10712 10709 ] final  106.32 input   66.30 | X-H torsion
[ 10763 10752 10751 10750 ] final -141.80 input  -60.55 | X-H torsion
[ 11005 11000 10999 10996 ] final   93.53 input  -57.11 | X-H torsion

> <Gold.Protein.ActiveResidues>
 VAL166  LYS551  ARG553  GLY616  TRP617  ASP618  TYR619  PRO620  LYS621  CYS622 
 ASP623  PHE694  ASN695  SER759  ASP760  ASP761  ALA762  ILE779  LEU786  VAL792 
 PHE793  MET794  SER795  GLU796  ALA797  LYS798  CYS799  TRP800  GLU811  SER814 

> <Gold.Protein.RotatedAtoms>
  150.8432  134.7731  159.6948 H   0  0  0  0  0  0  0  0  0  0  0  0  # atno 6907 bound_to 6896
  152.4515  134.5381  159.9840 H   0  0  0  0  0  0  0  0  0  0  0  0  # atno 6908 bound_to 6896
  151.5516  133.3378  159.2990 H   0  0  0  0  0  0  0  0  0  0  0  0  # atno 6909 bound_to 6896
  144.8987  139.5453  143.5764 H   0  0  0  0  0  0  0  0  0  0  0  0  # atno 7974 bound_to 7965
  155.3020  140.0453  157.3030 H   0  0  0  0  0  0  0  0  0  0  0  0  # atno 8008 bound_to 7997
  154.5481  140.2309  155.8496 H   0  0  0  0  0  0  0  0  0  0  0  0  # atno 8009 bound_to 7997
  156.1942  140.3042  155.9401 H   0  0  0  0  0  0  0  0  0  0  0  0  # atno 8010 bound_to 7997
  140.7278  143.4691  151.0272 H   0  0  0  0  0  0  0  0  0  0  0  0  # atno 10167 bound_to 10162
  157.6672  131.0848  150.5989 H   0  0  0  0  0  0  0  0  0  0  0  0  # atno 10718 bound_to 10713
  154.8532  135.3514  154.5925 H   0  0  0  0  0  0  0  0  0  0  0  0  # atno 10763 bound_to 10752
  153.6535  135.6993  153.5206 H   0  0  0  0  0  0  0  0  0  0  0  0  # atno 10764 bound_to 10752
  153.2875  135.4245  155.1094 H   0  0  0  0  0  0  0  0  0  0  0  0  # atno 10765 bound_to 10752
  139.8809  134.8795  156.3731 H   0  0  0  0  0  0  0  0  0  0  0  0  # atno 11005 bound_to 11000
  146.3096  139.7700  142.9030 LP  0  0  0  0  0  0  0  0  0  0  0  0  # atno 17320 bound_to 7965
  145.3654  141.0333  143.3261 LP  0  0  0  0  0  0  0  0  0  0  0  0  # atno 17321 bound_to 7965
  139.8382  143.7600  152.3180 LP  0  0  0  0  0  0  0  0  0  0  0  0  # atno 17342 bound_to 10162
  139.7739  144.7467  151.0185 LP  0  0  0  0  0  0  0  0  0  0  0  0  # atno 17343 bound_to 10162
  156.6290  130.4426  149.5794 LP  0  0  0  0  0  0  0  0  0  0  0  0  # atno 17370 bound_to 10713
  156.2296  130.6787  151.1451 LP  0  0  0  0  0  0  0  0  0  0  0  0  # atno 17371 bound_to 10713
  140.9450  133.7489  156.0197 LP  0  0  0  0  0  0  0  0  0  0  0  0  # atno 17394 bound_to 11000
  140.8174  134.3329  157.5393 LP  0  0  0  0  0  0  0  0  0  0  0  0  # atno 17395 bound_to 11000

$$$$
