AV-unprocessed.smi:1261|AV-procd|sdf|5303|dock1
  -GOLD-   22720 4423D 1   1.00000     0.00000
 Structure written by MMmdl.
 49 50  0  0  0  0  0  0  0  0  3 V2000
  145.5877  131.7989  149.6664 C   0  0  0  0  0  0  0  0  0  0  0  0
  145.6286  132.6095  150.9697 C   0  0  2  0  0  0  0  0  0  0  0  0
  144.3485  133.4447  151.1499 C   0  0  0  0  0  0  0  0  0  0  0  0
  144.4167  134.2918  152.4328 C   0  0  2  0  0  0  0  0  0  0  0  0
  143.1548  135.1493  152.6050 C   0  0  0  0  0  0  0  0  0  0  0  0
  145.6916  135.1619  152.4254 C   0  0  0  0  0  0  0  0  0  0  0  0
  146.9248  134.3476  152.2622 N   0  3  1  0  0  0  0  0  0  0  0  0
  147.3155  133.6135  153.4959 C   0  0  0  0  0  0  0  0  0  0  0  0
  148.4480  134.3129  154.2655 C   0  0  0  0  0  0  0  0  0  0  0  0
  148.9956  133.4474  155.4130 C   0  0  0  0  0  0  0  0  0  0  0  0
  147.9974  133.2537  156.4576 N   0  0  0  0  0  0  0  0  0  0  0  0
  148.2729  133.0998  157.7619 C   0  0  0  0  0  0  0  0  0  0  0  0
  149.4217  133.0789  158.2067 O   0  0  0  0  0  0  0  0  0  0  0  0
  147.0616  132.9366  158.6926 C   0  0  0  0  0  0  0  0  0  0  0  0
  147.2807  133.4771  160.0421 N   0  0  0  0  0  0  0  0  0  0  0  0
  147.5229  134.9166  160.0700 N   0  5  0  0  0  0  0  0  0  0  0  0
  147.7128  135.5336  161.2665 C   0  0  0  0  0  0  0  0  0  0  0  0
  147.9028  136.7433  161.3701 O   0  0  0  0  0  0  0  0  0  0  0  0
  147.6922  134.7165  162.4685 C   0  0  0  0  0  0  0  0  0  0  0  0
  147.4910  133.3852  162.4111 C   0  0  0  0  0  0  0  0  0  0  0  0
  147.2758  132.6834  161.1516 C   0  0  0  0  0  0  0  0  0  0  0  0
  147.0971  131.4663  161.0905 O   0  0  0  0  0  0  0  0  0  0  0  0
  146.8750  133.5204  151.0248 C   0  0  0  0  0  0  0  0  0  0  0  0
  145.5269  132.4509  148.7944 H   0  0  0  0  0  0  0  0  0  0  0  0
  144.7243  131.1333  149.6450 H   0  0  0  0  0  0  0  0  0  0  0  0
  146.4804  131.1819  149.5591 H   0  0  0  0  0  0  0  0  0  0  0  0
  145.6834  131.8914  151.7883 H   0  0  0  0  0  0  0  0  0  0  0  0
  144.2098  134.0965  150.2857 H   0  0  0  0  0  0  0  0  0  0  0  0
  143.4788  132.7872  151.1841 H   0  0  0  0  0  0  0  0  0  0  0  0
  144.4642  133.6136  153.2860 H   0  0  0  0  0  0  0  0  0  0  0  0
  143.0402  135.8580  151.7840 H   0  0  0  0  0  0  0  0  0  0  0  0
  143.1906  135.7193  153.5341 H   0  0  0  0  0  0  0  0  0  0  0  0
  142.2594  134.5278  152.6356 H   0  0  0  0  0  0  0  0  0  0  0  0
  145.6429  135.8752  151.6011 H   0  0  0  0  0  0  0  0  0  0  0  0
  145.7563  135.7595  153.3357 H   0  0  0  0  0  0  0  0  0  0  0  0
  146.4503  133.5552  154.1574 H   0  0  0  0  0  0  0  0  0  0  0  0
  147.5901  132.5843  153.2657 H   0  0  0  0  0  0  0  0  0  0  0  0
  149.2643  134.5574  153.5867 H   0  0  0  0  0  0  0  0  0  0  0  0
  148.0863  135.2602  154.6679 H   0  0  0  0  0  0  0  0  0  0  0  0
  149.2869  132.4669  155.0358 H   0  0  0  0  0  0  0  0  0  0  0  0
  149.8946  133.8973  155.8376 H   0  0  0  0  0  0  0  0  0  0  0  0
  147.0281  133.2481  156.1743 H   0  0  0  0  0  0  0  0  0  0  0  0
  146.1911  133.4235  158.2487 H   0  0  0  0  0  0  0  0  0  0  0  0
  146.8129  131.8748  158.7388 H   0  0  0  0  0  0  0  0  0  0  0  0
  147.8446  135.1874  163.4284 H   0  0  0  0  0  0  0  0  0  0  0  0
  147.4860  132.8176  163.3296 H   0  0  0  0  0  0  0  0  0  0  0  0
  147.7838  132.9302  150.9158 H   0  0  0  0  0  0  0  0  0  0  0  0
  146.8616  134.1996  150.1711 H   0  0  0  0  0  0  0  0  0  0  0  0
  147.6677  135.0166  152.1177 H   0  0  0  0  0  0  0  0  0  0  0  0
  1  2  1  0  0  0  0
  1 24  1  0  0  0  0
  1 25  1  0  0  0  0
  1 26  1  0  0  0  0
  2 23  1  0  0  0  0
  2  3  1  0  0  0  0
  2 27  1  0  0  0  0
  3  4  1  0  0  0  0
  3 28  1  0  0  0  0
  3 29  1  0  0  0  0
  4  5  1  0  0  0  0
  4  6  1  0  0  0  0
  4 30  1  0  0  0  0
  5 31  1  0  0  0  0
  5 32  1  0  0  0  0
  5 33  1  0  0  0  0
  6  7  1  0  0  0  0
  6 34  1  0  0  0  0
  6 35  1  0  0  0  0
  7  8  1  0  0  0  0
  7 23  1  0  0  0  0
  7 49  1  0  0  0  0
  8  9  1  0  0  0  0
  8 36  1  0  0  0  0
  8 37  1  0  0  0  0
  9 10  1  0  0  0  0
  9 38  1  0  0  0  0
  9 39  1  0  0  0  0
 10 11  1  0  0  0  0
 10 40  1  0  0  0  0
 10 41  1  0  0  0  0
 11 12  1  0  0  0  0
 11 42  1  0  0  0  0
 12 13  2  0  0  0  0
 12 14  1  0  0  0  0
 14 43  1  0  0  0  0
 14 44  1  0  0  0  0
 14 15  1  0  0  0  0
 15 16  1  0  0  0  0
 15 21  1  0  0  0  0
 16 17  1  0  0  0  0
 17 18  2  0  0  0  0
 17 19  1  0  0  0  0
 19 45  1  0  0  0  0
 19 20  2  0  0  0  0
 20 46  1  0  0  0  0
 20 21  1  0  0  0  0
 21 22  2  0  0  0  0
 23 47  1  0  0  0  0
 23 48  1  0  0  0  0
M  CHG  1   7   1
M  CHG  1  16  -1
M  END
> <s_m_source_file>
AV-unprocessed.smi

> <i_m_source_file_index>
1261

> <i_lp_mmshare_version>
43012

> <i_f3d_flags>
0

> <s_epik_input>
W0NIM11bQ0BASF0xW0NIMl1bQ0BASF0oW0NIM10pW0NIMl1OKFtDSDJdMSlbQ0gyXVtDSDJdW0NIMl1bTkhdQyg9TylbQ0gyXW4yW25IXWMoPU8pW2NIXVtjSF1jMj1P

> <s_epik_cmdline>
J2VwaWtfcHl0aG9uJywgJy1waCcsICc3LjAnLCAnLXRuJywgJzgnLCAnLW1hJywgJzIwMCcsICctbWV0YWxfYmluZGluZycsICctaW1hZScsICc8aW5maWxlLm1hZT4nLCAnLW9tYWUnLCAnPG91dGZpbGUubWFlPic=

> <r_lp_tautomer_probability>
1

> <r_epik_Ionization_Penalty>
0.0955723

> <r_epik_Ionization_Penalty_Charging>
0.0955723

> <r_epik_Ionization_Penalty_Neutral>
2.68632e-08

> <r_epik_State_Penalty>
0.0334406

> <r_epik_Charging_Adjusted_Penalty>
0.129013

> <i_epik_Tot_Q>
0

> <i_epik_Tot_abs_Q>
2

> <r_epik_Metal_State_Penalty>
0.0334406

> <b_epik_Metal_Only>
0

> <s_lp_Force_Field>
OPLS_2005

> <r_lp_Energy>
31.7782

> <b_lp_Chiralities_Consistent>
1

> <s_lp_Variant>
AV-unprocessed.smi:1261-3

> <Gold.Version>
5.8.1

> <Gold.Id.Protein>
6NUR|6NUR_protein|mol2

> <Gold.PLP.Fitness>
50.0677

> <Gold.PLP.PLP>
-37.9586

> <Gold.PLP.part.hbond>
-4.0000

> <Gold.PLP.part.metal>
0.0000

> <Gold.PLP.part.buried>
-4.2328

> <Gold.PLP.part.nonpolar>
-28.8162

> <Gold.PLP.part.repulsive>
0.0164

> <Gold.PLP.ligand.clash>
0.0000

> <Gold.PLP.ligand.torsion>
1.2390

> <Gold.PLP.Chemscore.Hbond>
4.8240

> <Gold.PLP.Chemscore.CHOScore>
0.0000

> <Gold.PLP.Chemscore.Metal>
0.0000

> <Gold.Chemscore.Hbonds>
donor molecule, donor type, donor heavy atom, donor atom, acceptor molecule, acceptor atom, score
      L1  H     7    49       P1  7948  2.00
      P1  H  6896  6909       L1    13  1.00
      P1  H  6931  6943       L1    18  1.00
      P1  H  6934  6947       L1    18  0.01

> <Gold.PLP.Chemscore.Internal.Correction>
0.1150

> <Gold.Rescore>
     Score         DG    S(hbond)    S(metal)    S(lipo)     H(rot)  DE(clash)    DE(int)     intcor
     19.44     -21.02       3.77        0.00      79.88       2.49       0.29       1.29       ----

> <Gold.Chemscore.Fitness>
19.4386

> <Gold.Chemscore.DG>
-21.0240

> <Gold.Chemscore.ZeroCoef>
-5.4800

> <Gold.Chemscore.Hbond>
3.7671

> <Gold.Chemscore.Metal>
0.0000

> <Gold.Chemscore.Lipo>
79.8804

> <Gold.Chemscore.Internal_Hbond>
0.0000

> <Gold.Chemscore.DEClash>
0.2948

> <Gold.Chemscore.DEInternal>
1.2905

> <Gold.Chemscore.Rot>
2.4938

> <Gold.Chemscore.Internal.Correction>
   9.000000E+99

> <Gold.Chemscore.Hbonds>
donor molecule, donor type, donor heavy atom, donor atom, acceptor molecule, acceptor atom, score
      L1  H     7    49       P1  7948  0.88
      P1  H  6896  6909       L1    13  1.00
      P1  H  6931  6943       L1    18  0.98
      P1  H  6934  6947       L1    18  0.06

> <Gold.Chemscore.Hbond.Weighted>
-12.5820

> <Gold.Chemscore.Metal.Weighted>
-0.0000

> <Gold.Chemscore.Lipo.Weighted>
-9.3460

> <Gold.Chemscore.Internal_Hbond.Weighted>
0.0000

> <Gold.Chemscore.DEClash.Weighted>
0.2948

> <Gold.Chemscore.DEInternal.Weighted>
1.2905

> <Gold.Chemscore.Rot.Weighted>
6.3840

> <Gold.Chemscore.Internal.Correction.Weighted>
   9.000000E+99

> <Gold.Protein.RotatedTorsions>
[ 6907 6896 6895 6894 ] final    3.84 input  -60.11 | X-H torsion
[ 7974 7965 7964 7962 ] final -136.22 input  175.53 | X-H torsion
[ 8008 7997 7996 7995 ] final  -22.95 input   59.86 | X-H torsion
[ 10167 10162 10161 10158 ] final   78.05 input  -65.29 | X-H torsion
[ 10718 10713 10712 10709 ] final -151.62 input   66.30 | X-H torsion
[ 10763 10752 10751 10750 ] final -177.40 input  -60.55 | X-H torsion
[ 11005 11000 10999 10996 ] final   59.26 input  -57.11 | X-H torsion

> <Gold.Protein.ActiveResidues>
 VAL166  LYS551  ARG553  GLY616  TRP617  ASP618  TYR619  PRO620  LYS621  CYS622 
 ASP623  PHE694  ASN695  SER759  ASP760  ASP761  ALA762  ILE779  LEU786  VAL792 
 PHE793  MET794  SER795  GLU796  ALA797  LYS798  CYS799  TRP800  GLU811  SER814 

> <Gold.Protein.RotatedAtoms>
  151.6315  135.1022  160.0122 H   0  0  0  0  0  0  0  0  0  0  0  0  # atno 6907 bound_to 6896
  152.4103  133.6949  159.6401 H   0  0  0  0  0  0  0  0  0  0  0  0  # atno 6908 bound_to 6896
  150.7994  133.8552  159.3257 H   0  0  0  0  0  0  0  0  0  0  0  0  # atno 6909 bound_to 6896
  144.8946  140.6689  143.5123 H   0  0  0  0  0  0  0  0  0  0  0  0  # atno 7974 bound_to 7965
  154.4614  140.1994  156.0235 H   0  0  0  0  0  0  0  0  0  0  0  0  # atno 8008 bound_to 7997
  156.0846  140.3266  155.7709 H   0  0  0  0  0  0  0  0  0  0  0  0  # atno 8009 bound_to 7997
  155.5055  140.0557  157.2923 H   0  0  0  0  0  0  0  0  0  0  0  0  # atno 8010 bound_to 7997
  139.9750  144.5867  150.7951 H   0  0  0  0  0  0  0  0  0  0  0  0  # atno 10167 bound_to 10162
  156.4616  130.8216  151.2447 H   0  0  0  0  0  0  0  0  0  0  0  0  # atno 10718 bound_to 10713
  154.5605  135.2820  155.0923 H   0  0  0  0  0  0  0  0  0  0  0  0  # atno 10763 bound_to 10752
  154.2334  135.6370  153.5186 H   0  0  0  0  0  0  0  0  0  0  0  0  # atno 10764 bound_to 10752
  153.0028  135.5542  154.6198 H   0  0  0  0  0  0  0  0  0  0  0  0  # atno 10765 bound_to 10752
  140.0317  134.6002  155.9498 H   0  0  0  0  0  0  0  0  0  0  0  0  # atno 11005 bound_to 11000
  145.3722  139.1656  143.4325 LP  0  0  0  0  0  0  0  0  0  0  0  0  # atno 17320 bound_to 7965
  146.3074  140.3795  142.8682 LP  0  0  0  0  0  0  0  0  0  0  0  0  # atno 17321 bound_to 7965
  140.7509  143.2963  151.3196 LP  0  0  0  0  0  0  0  0  0  0  0  0  # atno 17342 bound_to 10162
  139.6452  144.0464  152.2585 LP  0  0  0  0  0  0  0  0  0  0  0  0  # atno 17343 bound_to 10162
  157.7497  131.0105  150.3309 LP  0  0  0  0  0  0  0  0  0  0  0  0  # atno 17370 bound_to 10713
  156.3710  130.3863  149.7175 LP  0  0  0  0  0  0  0  0  0  0  0  0  # atno 17371 bound_to 10713
  141.1835  133.6551  156.5117 LP  0  0  0  0  0  0  0  0  0  0  0  0  # atno 17394 bound_to 11000
  140.4215  134.7183  157.4892 LP  0  0  0  0  0  0  0  0  0  0  0  0  # atno 17395 bound_to 11000

$$$$
