AV-unprocessed.smi:1016|AV-procd|sdf|4437|dock6
  -GOLD-   22720 2393D 1   1.00000     0.00000
 Structure written by MMmdl.
 39 40  0  0  0  0  0  0  0  0  2 V2000
  151.3340  144.3397  160.3663 C   0  0  0  0  0  0  0  0  0  0  0  0
  151.9497  143.0456  159.9238 C   0  0  0  0  0  0  0  0  0  0  0  0
  153.1536  142.4999  160.5208 C   0  0  0  0  0  0  0  0  0  0  0  0
  153.6437  141.3263  160.0674 C   0  0  0  0  0  0  0  0  0  0  0  0
  152.9958  140.5902  158.9840 C   0  0  0  0  0  0  0  0  0  0  0  0
  153.4207  139.5219  158.5455 O   0  0  0  0  0  0  0  0  0  0  0  0
  151.8770  141.2040  158.4954 N   0  0  0  0  0  0  0  0  0  0  0  0
  151.1250  140.6332  157.3654 C   0  0  0  0  0  0  0  0  0  0  0  0
  149.7316  140.0881  157.7277 C   0  0  0  0  0  0  0  0  0  0  0  0
  148.8327  140.8943  157.9598 O   0  0  0  0  0  0  0  0  0  0  0  0
  149.5873  138.7480  157.7681 N   0  0  0  0  0  0  0  0  0  0  0  0
  148.4454  137.8749  158.0772 C   0  0  0  0  0  0  0  0  0  0  0  0
  148.8840  137.0809  159.3348 C   0  0  0  0  0  0  0  0  0  0  0  0
  149.9270  136.3933  159.2629 O   0  0  0  0  0  0  0  0  0  0  0  0
  148.1441  137.1319  160.3434 O   0  5  0  0  0  0  0  0  0  0  0  0
  147.0948  138.6226  158.3178 C   0  0  0  0  0  0  0  0  0  0  0  0
  145.8911  137.6715  158.4677 C   0  0  0  0  0  0  0  0  0  0  0  0
  145.7577  136.7495  157.2474 C   0  0  0  0  0  0  0  0  0  0  0  0
  147.0586  135.9747  156.9945 C   0  0  0  0  0  0  0  0  0  0  0  0
  148.2592  136.9310  156.8546 C   0  0  0  0  0  0  0  0  0  0  0  0
  151.3660  142.4028  158.9664 N   0  0  0  0  0  0  0  0  0  0  0  0
  151.9108  144.7965  161.1708 H   0  0  0  0  0  0  0  0  0  0  0  0
  150.3187  144.1820  160.7310 H   0  0  0  0  0  0  0  0  0  0  0  0
  151.2913  145.0509  159.5409 H   0  0  0  0  0  0  0  0  0  0  0  0
  153.6472  143.0332  161.3197 H   0  0  0  0  0  0  0  0  0  0  0  0
  154.5409  140.9214  160.5120 H   0  0  0  0  0  0  0  0  0  0  0  0
  151.0155  141.3709  156.5688 H   0  0  0  0  0  0  0  0  0  0  0  0
  151.6967  139.8165  156.9213 H   0  0  0  0  0  0  0  0  0  0  0  0
  150.4327  138.2333  157.5677 H   0  0  0  0  0  0  0  0  0  0  0  0
  147.1523  139.2743  159.1908 H   0  0  0  0  0  0  0  0  0  0  0  0
  146.8856  139.2748  157.4692 H   0  0  0  0  0  0  0  0  0  0  0  0
  145.9921  137.0721  159.3730 H   0  0  0  0  0  0  0  0  0  0  0  0
  144.9770  138.2529  158.5898 H   0  0  0  0  0  0  0  0  0  0  0  0
  144.9311  136.0537  157.3934 H   0  0  0  0  0  0  0  0  0  0  0  0
  145.5109  137.3438  156.3669 H   0  0  0  0  0  0  0  0  0  0  0  0
  147.2314  135.2706  157.8090 H   0  0  0  0  0  0  0  0  0  0  0  0
  146.9590  135.3743  156.0901 H   0  0  0  0  0  0  0  0  0  0  0  0
  148.1145  137.5367  155.9586 H   0  0  0  0  0  0  0  0  0  0  0  0
  149.1641  136.3519  156.6635 H   0  0  0  0  0  0  0  0  0  0  0  0
  1  2  1  0  0  0  0
  1 22  1  0  0  0  0
  1 23  1  0  0  0  0
  1 24  1  0  0  0  0
  2 21  2  0  0  0  0
  2  3  1  0  0  0  0
  3  4  2  0  0  0  0
  3 25  1  0  0  0  0
  4  5  1  0  0  0  0
  4 26  1  0  0  0  0
  5  6  2  0  0  0  0
  5  7  1  0  0  0  0
  7  8  1  0  0  0  0
  7 21  1  0  0  0  0
  8  9  1  0  0  0  0
  8 27  1  0  0  0  0
  8 28  1  0  0  0  0
  9 10  2  0  0  0  0
  9 11  1  0  0  0  0
 11 12  1  0  0  0  0
 11 29  1  0  0  0  0
 12 20  1  0  0  0  0
 12 13  1  0  0  0  0
 12 16  1  0  0  0  0
 13 14  2  0  0  0  0
 13 15  1  0  0  0  0
 16 17  1  0  0  0  0
 16 30  1  0  0  0  0
 16 31  1  0  0  0  0
 17 18  1  0  0  0  0
 17 32  1  0  0  0  0
 17 33  1  0  0  0  0
 18 19  1  0  0  0  0
 18 34  1  0  0  0  0
 18 35  1  0  0  0  0
 19 20  1  0  0  0  0
 19 36  1  0  0  0  0
 19 37  1  0  0  0  0
 20 38  1  0  0  0  0
 20 39  1  0  0  0  0
M  CHG  1  15  -1
M  END
> <s_m_source_file>
AV-unprocessed.smi

> <i_m_source_file_index>
1016

> <i_lp_mmshare_version>
43012

> <i_f3d_flags>
0

> <s_epik_input>
W0NIM11jMVtjSF1bY0hdYyg9TyluKG4xKVtDSDJdQyg9TylbTkhdQzIoQyg9TylbT0hdKVtDSDJdW0NIMl1bQ0gyXVtDSDJdW0NIMl0y

> <s_epik_cmdline>
J2VwaWtfcHl0aG9uJywgJy1waCcsICc3LjAnLCAnLXRuJywgJzgnLCAnLW1hJywgJzIwMCcsICctbWV0YWxfYmluZGluZycsICctaW1hZScsICc8aW5maWxlLm1hZT4nLCAnLW9tYWUnLCAnPG91dGZpbGUubWFlPic=

> <r_lp_tautomer_probability>
1

> <r_epik_Ionization_Penalty>
0.000398047

> <r_epik_Ionization_Penalty_Charging>
0.000398029

> <r_epik_Ionization_Penalty_Neutral>
1.87077e-08

> <r_epik_State_Penalty>
0.000243291

> <r_epik_Charging_Adjusted_Penalty>
0.00064132

> <i_epik_Tot_Q>
-1

> <i_epik_Tot_abs_Q>
1

> <r_epik_Metal_State_Penalty>
-0

> <b_epik_Metal_Only>
0

> <s_lp_Force_Field>
OPLS_2005

> <r_lp_Energy>
18.8649

> <b_lp_Chiralities_Consistent>
1

> <s_lp_Variant>
AV-unprocessed.smi:1016-1

> <Gold.Version>
5.8.1

> <Gold.Id.Protein>
6NUR|6NUR_protein|mol2

> <Gold.PLP.Fitness>
43.7559

> <Gold.PLP.PLP>
-27.3590

> <Gold.PLP.part.hbond>
-4.0000

> <Gold.PLP.part.metal>
0.0000

> <Gold.PLP.part.buried>
-3.7028

> <Gold.PLP.part.nonpolar>
-21.0459

> <Gold.PLP.part.repulsive>
0.1453

> <Gold.PLP.ligand.clash>
0.0000

> <Gold.PLP.ligand.torsion>
0.2938

> <Gold.PLP.Chemscore.Hbond>
5.6442

> <Gold.PLP.Chemscore.CHOScore>
0.0000

> <Gold.PLP.Chemscore.Metal>
0.0000

> <Gold.Chemscore.Hbonds>
donor molecule, donor type, donor heavy atom, donor atom, acceptor molecule, acceptor atom, score
      P1  H  6896  6909       L1    14  2.00
      P1  H  6931  6943       L1    15  1.20
      P1  H  6934  6947       L1    15  0.85
      P1  H  7997  8008       L1     6  1.00

> <Gold.PLP.Chemscore.Internal.Correction>
0.0519

> <Gold.Rescore>
     Score         DG    S(hbond)    S(metal)    S(lipo)     H(rot)  DE(clash)    DE(int)     intcor
     13.82     -16.63       3.14        0.00      51.47       2.09       0.19       2.62       ----

> <Gold.Chemscore.Fitness>
13.8246

> <Gold.Chemscore.DG>
-16.6274

> <Gold.Chemscore.ZeroCoef>
-5.4800

> <Gold.Chemscore.Hbond>
3.1377

> <Gold.Chemscore.Metal>
0.0000

> <Gold.Chemscore.Lipo>
51.4723

> <Gold.Chemscore.Internal_Hbond>
0.0000

> <Gold.Chemscore.DEClash>
0.1865

> <Gold.Chemscore.DEInternal>
2.6162

> <Gold.Chemscore.Rot>
2.0918

> <Gold.Chemscore.Internal.Correction>
   9.000000E+99

> <Gold.Chemscore.Hbonds>
donor molecule, donor type, donor heavy atom, donor atom, acceptor molecule, acceptor atom, score
      P1  H  6896  6909       L1    14  1.00
      P1  H  6931  6943       L1    15  0.44
      P1  H  6934  6947       L1    15  0.41
      P1  H  7997  8008       L1     6  0.49

> <Gold.Chemscore.Hbond.Weighted>
-10.4800

> <Gold.Chemscore.Metal.Weighted>
-0.0000

> <Gold.Chemscore.Lipo.Weighted>
-6.0223

> <Gold.Chemscore.Internal_Hbond.Weighted>
0.0000

> <Gold.Chemscore.DEClash.Weighted>
0.1865

> <Gold.Chemscore.DEInternal.Weighted>
2.6162

> <Gold.Chemscore.Rot.Weighted>
5.3549

> <Gold.Chemscore.Internal.Correction.Weighted>
   9.000000E+99

> <Gold.Protein.RotatedTorsions>
[ 6907 6896 6895 6894 ] final   70.67 input  -60.11 | X-H torsion
[ 7974 7965 7964 7962 ] final -113.55 input  175.53 | X-H torsion
[ 8008 7997 7996 7995 ] final  -91.58 input   59.86 | X-H torsion
[ 10167 10162 10161 10158 ] final -147.49 input  -65.29 | X-H torsion
[ 10718 10713 10712 10709 ] final  102.70 input   66.30 | X-H torsion
[ 10763 10752 10751 10750 ] final -126.46 input  -60.55 | X-H torsion
[ 11005 11000 10999 10996 ] final  -36.65 input  -57.11 | X-H torsion

> <Gold.Protein.ActiveResidues>
 VAL166  LYS551  ARG553  GLY616  TRP617  ASP618  TYR619  PRO620  LYS621  CYS622 
 ASP623  PHE694  ASN695  SER759  ASP760  ASP761  ALA762  ILE779  LEU786  VAL792 
 PHE793  MET794  SER795  GLU796  ALA797  LYS798  CYS799  TRP800  GLU811  SER814 

> <Gold.Protein.RotatedAtoms>
  152.4763  134.4835  159.9672 H   0  0  0  0  0  0  0  0  0  0  0  0  # atno 6907 bound_to 6896
  151.4850  133.3532  159.2852 H   0  0  0  0  0  0  0  0  0  0  0  0  # atno 6908 bound_to 6896
  150.8804  134.8221  159.7282 H   0  0  0  0  0  0  0  0  0  0  0  0  # atno 6909 bound_to 6896
  145.1306  140.8722  143.3760 H   0  0  0  0  0  0  0  0  0  0  0  0  # atno 7974 bound_to 7965
  154.7125  140.0518  157.0563 H   0  0  0  0  0  0  0  0  0  0  0  0  # atno 8008 bound_to 7997
  155.0536  140.3182  155.4665 H   0  0  0  0  0  0  0  0  0  0  0  0  # atno 8009 bound_to 7997
  156.2793  140.2111  156.5662 H   0  0  0  0  0  0  0  0  0  0  0  0  # atno 8010 bound_to 7997
  139.7617  143.8367  152.2608 H   0  0  0  0  0  0  0  0  0  0  0  0  # atno 10167 bound_to 10162
  157.6794  131.0760  150.5444 H   0  0  0  0  0  0  0  0  0  0  0  0  # atno 10718 bound_to 10713
  154.8745  135.3995  154.3435 H   0  0  0  0  0  0  0  0  0  0  0  0  # atno 10763 bound_to 10752
  153.4231  135.7023  153.6286 H   0  0  0  0  0  0  0  0  0  0  0  0  # atno 10764 bound_to 10752
  153.4940  135.3742  155.2476 H   0  0  0  0  0  0  0  0  0  0  0  0  # atno 10765 bound_to 10752
  140.9891  133.7015  156.1818 H   0  0  0  0  0  0  0  0  0  0  0  0  # atno 11005 bound_to 11000
  145.0639  139.3084  143.5866 LP  0  0  0  0  0  0  0  0  0  0  0  0  # atno 17320 bound_to 7965
  146.3514  140.0091  142.8669 LP  0  0  0  0  0  0  0  0  0  0  0  0  # atno 17321 bound_to 7965
  139.8375  144.7225  150.9372 LP  0  0  0  0  0  0  0  0  0  0  0  0  # atno 17342 bound_to 10162
  140.7807  143.4013  151.1144 LP  0  0  0  0  0  0  0  0  0  0  0  0  # atno 17343 bound_to 10162
  156.5750  130.4289  149.6002 LP  0  0  0  0  0  0  0  0  0  0  0  0  # atno 17370 bound_to 10713
  156.2709  130.7016  151.1813 LP  0  0  0  0  0  0  0  0  0  0  0  0  # atno 17371 bound_to 10713
  140.7068  134.4504  157.5583 LP  0  0  0  0  0  0  0  0  0  0  0  0  # atno 17394 bound_to 11000
  139.8984  134.8615  156.2004 LP  0  0  0  0  0  0  0  0  0  0  0  0  # atno 17395 bound_to 11000

$$$$
