AV-unprocessed.smi:1753|AV-procd|sdf|7062|dock5
  -GOLD-   22720 8283D 1   1.00000     0.00000
 Structure written by MMmdl.
 37 38  0  0  0  0  0  0  0  0  1 V2000
  144.2335  132.4168  149.7112 C   0  0  0  0  0  0  0  0  0  0  0  0
  144.1213  133.5815  150.6500 C   0  0  0  0  0  0  0  0  0  0  0  0
  144.9098  134.7686  150.6740 C   0  0  0  0  0  0  0  0  0  0  0  0
  144.3728  135.4653  151.7219 C   0  0  0  0  0  0  0  0  0  0  0  0
  144.7315  136.6806  152.2146 N   0  0  0  0  0  0  0  0  0  0  0  0
  145.7488  137.4738  151.8364 C   0  0  0  0  0  0  0  0  0  0  0  0
  146.5511  137.2279  150.9356 O   0  0  0  0  0  0  0  0  0  0  0  0
  145.7910  138.5912  152.5759 N   0  0  0  0  0  0  0  0  0  0  0  0
  146.7792  139.6554  152.4313 C   0  0  0  0  0  0  0  0  0  0  0  0
  147.5022  139.9736  153.7557 C   0  0  2  0  0  0  0  0  0  0  0  0
  148.1391  141.3790  153.7892 C   0  0  0  0  0  0  0  0  0  0  0  0
  149.0624  141.4672  155.0076 C   0  0  0  0  0  0  0  0  0  0  0  0
  149.7856  139.7963  155.1962 S   0  0  0  0  0  0  0  0  0  0  0  0
  151.1212  139.7692  154.5810 O   0  0  0  0  0  0  0  0  0  0  0  0
  149.5787  139.3365  156.5779 O   0  0  0  0  0  0  0  0  0  0  0  0
  148.6019  138.9496  154.0803 C   0  0  0  0  0  0  0  0  0  0  0  0
  143.3431  134.7294  152.2647 N   0  0  0  0  0  0  0  0  0  0  0  0
  142.4775  135.0437  153.3846 C   0  0  0  0  0  0  0  0  0  0  0  0
  143.1914  133.5645  151.5984 N   0  0  0  0  0  0  0  0  0  0  0  0
  145.0611  132.5508  149.0144 H   0  0  0  0  0  0  0  0  0  0  0  0
  143.3225  132.2967  149.1247 H   0  0  0  0  0  0  0  0  0  0  0  0
  144.4061  131.4881  150.2557 H   0  0  0  0  0  0  0  0  0  0  0  0
  145.7267  135.0409  150.0228 H   0  0  0  0  0  0  0  0  0  0  0  0
  144.1557  137.0243  152.9689 H   0  0  0  0  0  0  0  0  0  0  0  0
  145.0914  138.7152  153.2930 H   0  0  0  0  0  0  0  0  0  0  0  0
  147.5031  139.3823  151.6616 H   0  0  0  0  0  0  0  0  0  0  0  0
  146.2632  140.5433  152.0652 H   0  0  0  0  0  0  0  0  0  0  0  0
  146.7768  139.9300  154.5698 H   0  0  0  0  0  0  0  0  0  0  0  0
  148.7315  141.5261  152.8852 H   0  0  0  0  0  0  0  0  0  0  0  0
  147.3861  142.1675  153.8097 H   0  0  0  0  0  0  0  0  0  0  0  0
  149.8507  142.2120  154.8974 H   0  0  0  0  0  0  0  0  0  0  0  0
  148.4912  141.6911  155.9089 H   0  0  0  0  0  0  0  0  0  0  0  0
  148.2139  138.0500  154.5583 H   0  0  0  0  0  0  0  0  0  0  0  0
  149.1468  138.6562  153.1825 H   0  0  0  0  0  0  0  0  0  0  0  0
  141.9812  135.9983  153.2076 H   0  0  0  0  0  0  0  0  0  0  0  0
  143.0707  135.1131  154.2968 H   0  0  0  0  0  0  0  0  0  0  0  0
  141.7188  134.2700  153.5130 H   0  0  0  0  0  0  0  0  0  0  0  0
  1  2  1  0  0  0  0
  1 20  1  0  0  0  0
  1 21  1  0  0  0  0
  1 22  1  0  0  0  0
  2 19  2  0  0  0  0
  2  3  1  0  0  0  0
  3  4  2  0  0  0  0
  3 23  1  0  0  0  0
  4  5  1  0  0  0  0
  4 17  1  0  0  0  0
  5  6  1  0  0  0  0
  5 24  1  0  0  0  0
  6  7  2  0  0  0  0
  6  8  1  0  0  0  0
  8  9  1  0  0  0  0
  8 25  1  0  0  0  0
  9 10  1  0  0  0  0
  9 26  1  0  0  0  0
  9 27  1  0  0  0  0
 10 16  1  0  0  0  0
 10 11  1  0  0  0  0
 10 28  1  0  0  0  0
 11 12  1  0  0  0  0
 11 29  1  0  0  0  0
 11 30  1  0  0  0  0
 12 13  1  0  0  0  0
 12 31  1  0  0  0  0
 12 32  1  0  0  0  0
 13 14  2  0  0  0  0
 13 15  2  0  0  0  0
 13 16  1  0  0  0  0
 16 33  1  0  0  0  0
 16 34  1  0  0  0  0
 17 18  1  0  0  0  0
 17 19  1  0  0  0  0
 18 35  1  0  0  0  0
 18 36  1  0  0  0  0
 18 37  1  0  0  0  0
M  END
> <s_m_source_file>
AV-unprocessed.smi

> <i_m_source_file_index>
1753

> <i_lp_mmshare_version>
43012

> <i_f3d_flags>
0

> <s_epik_input>
W0NIM11jMVtjSF1jKG4objEpW0NIM10pW05IXUMoPU8pW05IXVtDSDJdW0NAQEhdKFtDSDJdMilbQ0gyXVtDSDJdUzIoPU8pPU8=

> <s_epik_cmdline>
J2VwaWtfcHl0aG9uJywgJy1waCcsICc3LjAnLCAnLXRuJywgJzgnLCAnLW1hJywgJzIwMCcsICctbWV0YWxfYmluZGluZycsICctaW1hZScsICc8aW5maWxlLm1hZT4nLCAnLW9tYWUnLCAnPG91dGZpbGUubWFlPic=

> <r_lp_tautomer_probability>
1

> <r_epik_Ionization_Penalty>
9.06651e-05

> <r_epik_Ionization_Penalty_Charging>
0

> <r_epik_Ionization_Penalty_Neutral>
9.06651e-05

> <r_epik_State_Penalty>
-0

> <r_epik_Charging_Adjusted_Penalty>
0

> <i_epik_Tot_Q>
0

> <i_epik_Tot_abs_Q>
0

> <r_epik_Metal_State_Penalty>
-0

> <b_epik_Metal_Only>
0

> <s_lp_Force_Field>
OPLS_2005

> <r_lp_Energy>
5.34898

> <b_lp_Chiralities_Consistent>
1

> <s_lp_Variant>
AV-unprocessed.smi:1753-1

> <Gold.Version>
5.8.1

> <Gold.Id.Protein>
6NUR|6NUR_protein|mol2

> <Gold.PLP.Fitness>
37.3835

> <Gold.PLP.PLP>
-31.7920

> <Gold.PLP.part.hbond>
-3.3985

> <Gold.PLP.part.metal>
0.0000

> <Gold.PLP.part.buried>
-2.2352

> <Gold.PLP.part.nonpolar>
-30.3307

> <Gold.PLP.part.repulsive>
3.2905

> <Gold.PLP.ligand.clash>
0.0000

> <Gold.PLP.ligand.torsion>
0.2066

> <Gold.PLP.Chemscore.Hbond>
2.0000

> <Gold.PLP.Chemscore.CHOScore>
0.0000

> <Gold.PLP.Chemscore.Metal>
0.0000

> <Gold.Chemscore.Hbonds>
donor molecule, donor type, donor heavy atom, donor atom, acceptor molecule, acceptor atom, score
      L1  H     8    25       P1 10175  0.01
      P1  H  7954  7966       L1     7  1.00
      P1  H  7989  7998       L1    14  1.00

> <Gold.PLP.Chemscore.Internal.Correction>
0.0047

> <Gold.Rescore>
     Score         DG    S(hbond)    S(metal)    S(lipo)     H(rot)  DE(clash)    DE(int)     intcor
     13.21     -16.12       1.99        0.00      62.80       1.31       1.50       1.40       ----

> <Gold.Chemscore.Fitness>
13.2133

> <Gold.Chemscore.DG>
-16.1183

> <Gold.Chemscore.ZeroCoef>
-5.4800

> <Gold.Chemscore.Hbond>
1.9880

> <Gold.Chemscore.Metal>
0.0000

> <Gold.Chemscore.Lipo>
62.7951

> <Gold.Chemscore.Internal_Hbond>
0.0000

> <Gold.Chemscore.DEClash>
1.5034

> <Gold.Chemscore.DEInternal>
1.4017

> <Gold.Chemscore.Rot>
1.3080

> <Gold.Chemscore.Internal.Correction>
   9.000000E+99

> <Gold.Chemscore.Hbonds>
donor molecule, donor type, donor heavy atom, donor atom, acceptor molecule, acceptor atom, score
      L1  H     8    25       P1 10175  0.02
      P1  H  7954  7966       L1     7  0.93
      P1  H  7989  7998       L1    14  0.99

> <Gold.Chemscore.Hbond.Weighted>
-6.6398

> <Gold.Chemscore.Metal.Weighted>
-0.0000

> <Gold.Chemscore.Lipo.Weighted>
-7.3470

> <Gold.Chemscore.Internal_Hbond.Weighted>
0.0000

> <Gold.Chemscore.DEClash.Weighted>
1.5034

> <Gold.Chemscore.DEInternal.Weighted>
1.4017

> <Gold.Chemscore.Rot.Weighted>
3.3485

> <Gold.Chemscore.Internal.Correction.Weighted>
   9.000000E+99

> <Gold.Protein.RotatedTorsions>
[ 6907 6896 6895 6894 ] final  -50.19 input  -60.11 | X-H torsion
[ 7974 7965 7964 7962 ] final  143.66 input  175.53 | X-H torsion
[ 8008 7997 7996 7995 ] final   88.49 input   59.86 | X-H torsion
[ 10167 10162 10161 10158 ] final   38.44 input  -65.29 | X-H torsion
[ 10718 10713 10712 10709 ] final -131.10 input   66.30 | X-H torsion
[ 10763 10752 10751 10750 ] final  172.04 input  -60.55 | X-H torsion
[ 11005 11000 10999 10996 ] final  -44.07 input  -57.11 | X-H torsion

> <Gold.Protein.ActiveResidues>
 VAL166  LYS551  ARG553  GLY616  TRP617  ASP618  TYR619  PRO620  LYS621  CYS622 
 ASP623  PHE694  ASN695  SER759  ASP760  ASP761  ALA762  ILE779  LEU786  VAL792 
 PHE793  MET794  SER795  GLU796  ALA797  LYS798  CYS799  TRP800  GLU811  SER814 

> <Gold.Protein.RotatedAtoms>
  150.8731  134.8108  159.7169 H   0  0  0  0  0  0  0  0  0  0  0  0  # atno 6907 bound_to 6896
  152.4728  134.4915  159.9706 H   0  0  0  0  0  0  0  0  0  0  0  0  # atno 6908 bound_to 6896
  151.5001  133.3468  159.2903 H   0  0  0  0  0  0  0  0  0  0  0  0  # atno 6909 bound_to 6896
  144.8902  139.5570  143.5802 H   0  0  0  0  0  0  0  0  0  0  0  0  # atno 7974 bound_to 7965
  155.9884  140.3371  155.6729 H   0  0  0  0  0  0  0  0  0  0  0  0  # atno 8008 bound_to 7997
  155.6454  140.0700  157.2622 H   0  0  0  0  0  0  0  0  0  0  0  0  # atno 8009 bound_to 7997
  154.4212  140.1735  156.1605 H   0  0  0  0  0  0  0  0  0  0  0  0  # atno 8010 bound_to 7997
  140.3936  144.1819  150.6131 H   0  0  0  0  0  0  0  0  0  0  0  0  # atno 10167 bound_to 10162
  156.2210  130.6978  151.0756 H   0  0  0  0  0  0  0  0  0  0  0  0  # atno 10718 bound_to 10713
  154.4205  135.2758  155.1978 H   0  0  0  0  0  0  0  0  0  0  0  0  # atno 10763 bound_to 10752
  154.3926  135.6062  153.5855 H   0  0  0  0  0  0  0  0  0  0  0  0  # atno 10764 bound_to 10752
  152.9833  135.5907  154.4500 H   0  0  0  0  0  0  0  0  0  0  0  0  # atno 10765 bound_to 10752
  141.0426  133.6774  156.2822 H   0  0  0  0  0  0  0  0  0  0  0  0  # atno 11005 bound_to 11000
  146.3049  139.7546  142.9064 LP  0  0  0  0  0  0  0  0  0  0  0  0  # atno 17320 bound_to 7965
  145.3797  141.0356  143.3184 LP  0  0  0  0  0  0  0  0  0  0  0  0  # atno 17321 bound_to 7965
  140.4814  143.2378  151.8950 LP  0  0  0  0  0  0  0  0  0  0  0  0  # atno 17342 bound_to 10162
  139.4788  144.5265  151.8728 LP  0  0  0  0  0  0  0  0  0  0  0  0  # atno 17343 bound_to 10162
  157.7087  131.0744  150.6576 LP  0  0  0  0  0  0  0  0  0  0  0  0  # atno 17370 bound_to 10713
  156.6639  130.4520  149.5678 LP  0  0  0  0  0  0  0  0  0  0  0  0  # atno 17371 bound_to 10713
  140.6206  134.5366  157.5547 LP  0  0  0  0  0  0  0  0  0  0  0  0  # atno 17394 bound_to 11000
  139.9287  134.8005  156.0992 LP  0  0  0  0  0  0  0  0  0  0  0  0  # atno 17395 bound_to 11000

$$$$
