AV-unprocessed.smi:2439|AV-procd|sdf|9608|dock4
  -GOLD-   2272013243D 1   1.00000     0.00000
 Structure written by MMmdl.
 41 43  0  0  0  0  0  0  0  0  2 V2000
  155.1863  139.5022  159.3221 N   0  0  0  0  0  0  0  0  0  0  0  0
  154.5431  140.3134  159.8385 C   0  0  0  0  0  0  0  0  0  0  0  0
  153.7325  141.3363  160.4882 C   0  0  0  0  0  0  0  0  0  0  0  0
  153.9928  141.6581  161.8369 C   0  0  0  0  0  0  0  0  0  0  0  0
  153.2126  142.6428  162.4698 C   0  0  0  0  0  0  0  0  0  0  0  0
  152.1987  143.2702  161.7239 C   0  0  0  0  0  0  0  0  0  0  0  0
  151.9389  142.9716  160.4339 N   0  0  0  0  0  0  0  0  0  0  0  0
  152.6858  142.0235  159.8161 C   0  0  0  0  0  0  0  0  0  0  0  0
  152.3936  141.7347  158.4697 N   0  0  0  0  0  0  0  0  0  0  0  0
  151.9062  140.4275  158.0451 C   0  0  0  0  0  0  0  0  0  0  0  0
  150.6265  140.5230  157.1964 C   0  0  1  0  0  0  0  0  0  0  0  0
  150.2248  141.9935  156.9470 C   0  0  0  0  0  0  0  0  0  0  0  0
  149.0648  142.0946  156.0284 N   0  3  2  0  0  0  0  0  0  0  0  0
  147.7632  141.7852  156.6811 C   0  0  0  0  0  0  0  0  0  0  0  0
  146.5917  141.9749  155.7066 C   0  0  0  0  0  0  0  0  0  0  0  0
  146.7823  141.1077  154.4574 C   0  0  0  0  0  0  0  0  0  0  0  0
  148.1270  141.4369  153.7946 C   0  0  0  0  0  0  0  0  0  0  0  0
  149.3142  141.3290  154.7755 C   0  0  2  0  0  0  0  0  0  0  0  0
  149.7312  139.8785  155.0969 C   0  0  0  0  0  0  0  0  0  0  0  0
  150.8769  139.8971  155.9410 O   0  0  0  0  0  0  0  0  0  0  0  0
  154.7798  141.1594  162.3842 H   0  0  0  0  0  0  0  0  0  0  0  0
  153.3884  142.9111  163.5011 H   0  0  0  0  0  0  0  0  0  0  0  0
  151.5788  144.0312  162.1744 H   0  0  0  0  0  0  0  0  0  0  0  0
  152.6083  142.4202  157.7593 H   0  0  0  0  0  0  0  0  0  0  0  0
  152.6918  139.9124  157.4911 H   0  0  0  0  0  0  0  0  0  0  0  0
  151.7188  139.8233  158.9331 H   0  0  0  0  0  0  0  0  0  0  0  0
  149.8156  140.0022  157.7065 H   0  0  0  0  0  0  0  0  0  0  0  0
  150.0037  142.4996  157.8876 H   0  0  0  0  0  0  0  0  0  0  0  0
  151.0625  142.5291  156.4982 H   0  0  0  0  0  0  0  0  0  0  0  0
  147.7566  140.7644  157.0628 H   0  0  0  0  0  0  0  0  0  0  0  0
  147.6275  142.4411  157.5417 H   0  0  0  0  0  0  0  0  0  0  0  0
  145.6526  141.7188  156.1982 H   0  0  0  0  0  0  0  0  0  0  0  0
  146.5157  143.0247  155.4204 H   0  0  0  0  0  0  0  0  0  0  0  0
  146.7440  140.0518  154.7271 H   0  0  0  0  0  0  0  0  0  0  0  0
  145.9666  141.2786  153.7542 H   0  0  0  0  0  0  0  0  0  0  0  0
  148.2888  140.7898  152.9319 H   0  0  0  0  0  0  0  0  0  0  0  0
  148.0834  142.4545  153.4035 H   0  0  0  0  0  0  0  0  0  0  0  0
  150.1691  141.7989  154.2865 H   0  0  0  0  0  0  0  0  0  0  0  0
  148.9248  139.3152  155.5682 H   0  0  0  0  0  0  0  0  0  0  0  0
  149.9884  139.3501  154.1786 H   0  0  0  0  0  0  0  0  0  0  0  0
  149.0013  143.0658  155.7578 H   0  0  0  0  0  0  0  0  0  0  0  0
  1  2  3  0  0  0  0
  2  3  1  0  0  0  0
  3  8  1  0  0  0  0
  3  4  2  0  0  0  0
  4  5  1  0  0  0  0
  4 21  1  0  0  0  0
  5  6  2  0  0  0  0
  5 22  1  0  0  0  0
  6  7  1  0  0  0  0
  6 23  1  0  0  0  0
  7  8  2  0  0  0  0
  8  9  1  0  0  0  0
  9 10  1  0  0  0  0
  9 24  1  0  0  0  0
 10 11  1  0  0  0  0
 10 25  1  0  0  0  0
 10 26  1  0  0  0  0
 11 20  1  0  0  0  0
 11 12  1  0  0  0  0
 11 27  1  0  0  0  0
 12 13  1  0  0  0  0
 12 28  1  0  0  0  0
 12 29  1  0  0  0  0
 13 18  1  0  0  0  0
 13 14  1  0  0  0  0
 13 41  1  0  0  0  0
 14 15  1  0  0  0  0
 14 30  1  0  0  0  0
 14 31  1  0  0  0  0
 15 16  1  0  0  0  0
 15 32  1  0  0  0  0
 15 33  1  0  0  0  0
 16 17  1  0  0  0  0
 16 34  1  0  0  0  0
 16 35  1  0  0  0  0
 17 18  1  0  0  0  0
 17 36  1  0  0  0  0
 17 37  1  0  0  0  0
 18 19  1  0  0  0  0
 18 38  1  0  0  0  0
 19 20  1  0  0  0  0
 19 39  1  0  0  0  0
 19 40  1  0  0  0  0
M  CHG  1  13   1
M  END
> <s_m_source_file>
AV-unprocessed.smi

> <i_m_source_file_index>
2439

> <i_lp_mmshare_version>
43012

> <i_f3d_flags>
0

> <s_epik_input>
TiNDYzFbY0hdW2NIXVtjSF1uYzFbTkhdW0NIMl1bQ0BIXShbQ0gyXTIpT1tDSDJdW0NAQEhdKE4yMylbQ0gyXVtDSDJdW0NIMl1bQ0gyXTM=

> <s_epik_cmdline>
J2VwaWtfcHl0aG9uJywgJy1waCcsICc3LjAnLCAnLXRuJywgJzgnLCAnLW1hJywgJzIwMCcsICctbWV0YWxfYmluZGluZycsICctaW1hZScsICc8aW5maWxlLm1hZT4nLCAnLW9tYWUnLCAnPG91dGZpbGUubWFlPic=

> <r_epik_Ionization_Penalty>
0.0803594

> <r_epik_Ionization_Penalty_Charging>
0.0803403

> <r_epik_Ionization_Penalty_Neutral>
1.90988e-05

> <r_epik_State_Penalty>
0.0711481

> <r_epik_Charging_Adjusted_Penalty>
0.151488

> <i_epik_Tot_Q>
1

> <i_epik_Tot_abs_Q>
1

> <r_epik_Metal_State_Penalty>
0.0711482

> <b_epik_Metal_Only>
0

> <s_lp_Force_Field>
OPLS_2005

> <r_lp_Energy>
31.3602

> <b_lp_Chiralities_Consistent>
1

> <s_lp_Variant>
AV-unprocessed.smi:2439-6

> <Gold.Version>
5.8.1

> <Gold.Id.Protein>
6NUR|6NUR_protein|mol2

> <Gold.PLP.Fitness>
45.3658

> <Gold.PLP.PLP>
-42.2661

> <Gold.PLP.part.hbond>
-2.0000

> <Gold.PLP.part.metal>
0.0000

> <Gold.PLP.part.buried>
-4.8538

> <Gold.PLP.part.nonpolar>
-35.8360

> <Gold.PLP.part.repulsive>
0.2128

> <Gold.PLP.ligand.clash>
3.1300

> <Gold.PLP.ligand.torsion>
1.3858

> <Gold.PLP.Chemscore.Hbond>
3.0000

> <Gold.PLP.Chemscore.CHOScore>
0.0000

> <Gold.PLP.Chemscore.Metal>
0.0000

> <Gold.Chemscore.Hbonds>
donor molecule, donor type, donor heavy atom, donor atom, acceptor molecule, acceptor atom, score
      L1  H    13    41       P1  8028  2.00
      P1  H  7997  8010       L1     1  1.00

> <Gold.PLP.Chemscore.Internal.Correction>
0.0012

> <Gold.Rescore>
     Score         DG    S(hbond)    S(metal)    S(lipo)     H(rot)  DE(clash)    DE(int)     intcor
     18.46     -19.93       1.93        0.00      96.04       1.27       0.10       1.38       ----

> <Gold.Chemscore.Fitness>
18.4572

> <Gold.Chemscore.DG>
-19.9335

> <Gold.Chemscore.ZeroCoef>
-5.4800

> <Gold.Chemscore.Hbond>
1.9335

> <Gold.Chemscore.Metal>
0.0000

> <Gold.Chemscore.Lipo>
96.0374

> <Gold.Chemscore.Internal_Hbond>
0.0000

> <Gold.Chemscore.DEClash>
0.1001

> <Gold.Chemscore.DEInternal>
1.3763

> <Gold.Chemscore.Rot>
1.2659

> <Gold.Chemscore.Internal.Correction>
   9.000000E+99

> <Gold.Chemscore.Hbonds>
donor molecule, donor type, donor heavy atom, donor atom, acceptor molecule, acceptor atom, score
      L1  H    13    41       P1  8028  1.00
      P1  H  7997  8010       L1     1  0.52

> <Gold.Chemscore.Hbond.Weighted>
-6.4579

> <Gold.Chemscore.Metal.Weighted>
-0.0000

> <Gold.Chemscore.Lipo.Weighted>
-11.2364

> <Gold.Chemscore.Internal_Hbond.Weighted>
0.0000

> <Gold.Chemscore.DEClash.Weighted>
0.1001

> <Gold.Chemscore.DEInternal.Weighted>
1.3763

> <Gold.Chemscore.Rot.Weighted>
3.2408

> <Gold.Chemscore.Internal.Correction.Weighted>
   9.000000E+99

> <Gold.Protein.RotatedTorsions>
[ 6907 6896 6895 6894 ] final   39.48 input  -60.11 | X-H torsion
[ 7974 7965 7964 7962 ] final -135.96 input  175.53 | X-H torsion
[ 8008 7997 7996 7995 ] final   -9.95 input   59.86 | X-H torsion
[ 10167 10162 10161 10158 ] final  -54.94 input  -65.29 | X-H torsion
[ 10718 10713 10712 10709 ] final  -64.44 input   66.30 | X-H torsion
[ 10763 10752 10751 10750 ] final  163.56 input  -60.55 | X-H torsion
[ 11005 11000 10999 10996 ] final  -81.93 input  -57.11 | X-H torsion

> <Gold.Protein.ActiveResidues>
 VAL166  LYS551  ARG553  GLY616  TRP617  ASP618  TYR619  PRO620  LYS621  CYS622 
 ASP623  PHE694  ASN695  SER759  ASP760  ASP761  ALA762  ILE779  LEU786  VAL792 
 PHE793  MET794  SER795  GLU796  ALA797  LYS798  CYS799  TRP800  GLU811  SER814 

> <Gold.Protein.RotatedAtoms>
  152.1702  134.8841  160.0534 H   0  0  0  0  0  0  0  0  0  0  0  0  # atno 6907 bound_to 6896
  151.9803  133.3750  159.4113 H   0  0  0  0  0  0  0  0  0  0  0  0  # atno 6908 bound_to 6896
  150.6900  134.3968  159.5145 H   0  0  0  0  0  0  0  0  0  0  0  0  # atno 6909 bound_to 6896
  144.8968  140.6717  143.5110 H   0  0  0  0  0  0  0  0  0  0  0  0  # atno 7974 bound_to 7965
  154.5599  140.2341  155.8351 H   0  0  0  0  0  0  0  0  0  0  0  0  # atno 8008 bound_to 7997
  156.2020  140.3050  155.9507 H   0  0  0  0  0  0  0  0  0  0  0  0  # atno 8009 bound_to 7997
  155.2909  140.0426  157.3013 H   0  0  0  0  0  0  0  0  0  0  0  0  # atno 8010 bound_to 7997
  140.6403  143.2504  151.5008 H   0  0  0  0  0  0  0  0  0  0  0  0  # atno 10167 bound_to 10162
  156.0729  130.4233  150.1421 H   0  0  0  0  0  0  0  0  0  0  0  0  # atno 10718 bound_to 10713
  154.2956  135.2760  155.2635 H   0  0  0  0  0  0  0  0  0  0  0  0  # atno 10763 bound_to 10752
  154.5095  135.5786  153.6597 H   0  0  0  0  0  0  0  0  0  0  0  0  # atno 10764 bound_to 10752
  152.9908  135.6177  154.3123 H   0  0  0  0  0  0  0  0  0  0  0  0  # atno 10765 bound_to 10752
  141.1665  133.7220  156.8496 H   0  0  0  0  0  0  0  0  0  0  0  0  # atno 11005 bound_to 11000
  145.3686  139.1664  143.4344 LP  0  0  0  0  0  0  0  0  0  0  0  0  # atno 17320 bound_to 7965
  146.3086  140.3755  142.8678 LP  0  0  0  0  0  0  0  0  0  0  0  0  # atno 17321 bound_to 7965
  139.5612  144.2152  152.1694 LP  0  0  0  0  0  0  0  0  0  0  0  0  # atno 17342 bound_to 10162
  140.1420  144.5193  150.6738 LP  0  0  0  0  0  0  0  0  0  0  0  0  # atno 17343 bound_to 10162
  156.9468  130.9762  151.3506 LP  0  0  0  0  0  0  0  0  0  0  0  0  # atno 17370 bound_to 10713
  157.5809  130.8376  149.8521 LP  0  0  0  0  0  0  0  0  0  0  0  0  # atno 17371 bound_to 10713
  140.1925  134.8955  157.3077 LP  0  0  0  0  0  0  0  0  0  0  0  0  # atno 17394 bound_to 11000
  140.2275  134.3949  155.7537 LP  0  0  0  0  0  0  0  0  0  0  0  0  # atno 17395 bound_to 11000

$$$$
