AV-unprocessed.smi:3285|AV-procd|sdf|12581|dock6
  -GOLD-   2272018503D 1   1.00000     0.00000
 Structure written by MMmdl.
 45 46  0  0  0  0  0  0  0  0  2 V2000
  149.0636  138.4945  154.3351 C   0  0  0  0  0  0  0  0  0  0  0  0
  150.3057  138.0736  155.0672 C   0  0  0  0  0  0  0  0  0  0  0  0
  150.9879  137.0246  154.6407 N   0  0  0  0  0  0  0  0  0  0  0  0
  152.0669  136.8857  155.5188 O   0  0  0  0  0  0  0  0  0  0  0  0
  151.9894  137.8672  156.4527 C   0  0  0  0  0  0  0  0  0  0  0  0
  153.0576  137.8895  157.4935 C   0  0  0  0  0  0  0  0  0  0  0  0
  150.8951  138.6557  156.2264 C   0  0  0  0  0  0  0  0  0  0  0  0
  150.4192  139.8480  157.0115 C   0  0  0  0  0  0  0  0  0  0  0  0
  150.1932  141.0635  156.1033 C   0  0  0  0  0  0  0  0  0  0  0  0
  150.0919  142.3052  156.8978 N   0  3  0  0  0  0  0  0  0  0  0  0
  151.3463  142.7452  157.5479 C   0  0  1  0  0  0  0  0  0  0  0  0
  151.2494  144.2397  157.9033 C   0  0  0  0  0  0  0  0  0  0  0  0
  152.5186  144.7356  158.6167 C   0  0  0  0  0  0  0  0  0  0  0  0
  152.8392  143.9125  159.8810 C   0  0  1  0  0  0  0  0  0  0  0  0
  151.8613  144.2308  161.0304 C   0  0  0  0  0  0  0  0  0  0  0  0
  152.9319  142.4070  159.5236 C   0  0  1  0  0  0  0  0  0  0  0  0
  153.2959  141.5180  160.7243 C   0  0  0  0  0  0  0  0  0  0  0  0
  151.6593  141.9089  158.8075 C   0  0  0  0  0  0  0  0  0  0  0  0
  148.1770  138.0494  154.7868 H   0  0  0  0  0  0  0  0  0  0  0  0
  149.0924  138.1896  153.2884 H   0  0  0  0  0  0  0  0  0  0  0  0
  148.9402  139.5772  154.3571 H   0  0  0  0  0  0  0  0  0  0  0  0
  152.6310  137.7478  158.4863 H   0  0  0  0  0  0  0  0  0  0  0  0
  153.5846  138.8435  157.4845 H   0  0  0  0  0  0  0  0  0  0  0  0
  153.7891  137.0991  157.3245 H   0  0  0  0  0  0  0  0  0  0  0  0
  149.4924  139.6145  157.5371 H   0  0  0  0  0  0  0  0  0  0  0  0
  151.1401  140.1055  157.7882 H   0  0  0  0  0  0  0  0  0  0  0  0
  151.0142  141.1465  155.3913 H   0  0  0  0  0  0  0  0  0  0  0  0
  149.2766  140.9287  155.5271 H   0  0  0  0  0  0  0  0  0  0  0  0
  149.8021  143.0397  156.2680 H   0  0  0  0  0  0  0  0  0  0  0  0
  152.1603  142.6251  156.8311 H   0  0  0  0  0  0  0  0  0  0  0  0
  151.0922  144.8267  156.9975 H   0  0  0  0  0  0  0  0  0  0  0  0
  150.3783  144.4180  158.5349 H   0  0  0  0  0  0  0  0  0  0  0  0
  153.3607  144.6740  157.9261 H   0  0  0  0  0  0  0  0  0  0  0  0
  152.4157  145.7915  158.8695 H   0  0  0  0  0  0  0  0  0  0  0  0
  153.8257  144.2287  160.2232 H   0  0  0  0  0  0  0  0  0  0  0  0
  150.8470  143.8969  160.8144 H   0  0  0  0  0  0  0  0  0  0  0  0
  151.8195  145.3041  161.2179 H   0  0  0  0  0  0  0  0  0  0  0  0
  152.1732  143.7601  161.9626 H   0  0  0  0  0  0  0  0  0  0  0  0
  153.7537  142.3052  158.8128 H   0  0  0  0  0  0  0  0  0  0  0  0
  152.4917  141.4811  161.4596 H   0  0  0  0  0  0  0  0  0  0  0  0
  154.1933  141.8816  161.2255 H   0  0  0  0  0  0  0  0  0  0  0  0
  153.4914  140.4940  160.4052 H   0  0  0  0  0  0  0  0  0  0  0  0
  150.8111  141.9354  159.4926 H   0  0  0  0  0  0  0  0  0  0  0  0
  151.7971  140.8623  158.5365 H   0  0  0  0  0  0  0  0  0  0  0  0
  149.3797  142.1916  157.6048 H   0  0  0  0  0  0  0  0  0  0  0  0
  1  2  1  0  0  0  0
  1 19  1  0  0  0  0
  1 20  1  0  0  0  0
  1 21  1  0  0  0  0
  2  7  1  0  0  0  0
  2  3  2  0  0  0  0
  3  4  1  0  0  0  0
  4  5  1  0  0  0  0
  5  6  1  0  0  0  0
  5  7  2  0  0  0  0
  6 22  1  0  0  0  0
  6 23  1  0  0  0  0
  6 24  1  0  0  0  0
  7  8  1  0  0  0  0
  8  9  1  0  0  0  0
  8 25  1  0  0  0  0
  8 26  1  0  0  0  0
  9 10  1  0  0  0  0
  9 27  1  0  0  0  0
  9 28  1  0  0  0  0
 10 11  1  0  0  0  0
 10 29  1  0  0  0  0
 10 45  1  0  0  0  0
 11 18  1  0  0  0  0
 11 12  1  0  0  0  0
 11 30  1  0  0  0  0
 12 13  1  0  0  0  0
 12 31  1  0  0  0  0
 12 32  1  0  0  0  0
 13 14  1  0  0  0  0
 13 33  1  0  0  0  0
 13 34  1  0  0  0  0
 14 15  1  0  0  0  0
 14 16  1  0  0  0  0
 14 35  1  0  0  0  0
 15 36  1  0  0  0  0
 15 37  1  0  0  0  0
 15 38  1  0  0  0  0
 16 17  1  0  0  0  0
 16 18  1  0  0  0  0
 16 39  1  0  0  0  0
 17 40  1  0  0  0  0
 17 41  1  0  0  0  0
 17 42  1  0  0  0  0
 18 43  1  0  0  0  0
 18 44  1  0  0  0  0
M  CHG  1  10   1
M  END
> <s_m_source_file>
AV-unprocessed.smi

> <i_m_source_file_index>
3285

> <i_lp_mmshare_version>
43012

> <i_f3d_flags>
0

> <s_epik_input>
W0NIM11jMW5vYyhbQ0gzXSljMVtDSDJdW0NIMl1bTkhdW0NAQEhdMltDSDJdW0NIMl1bQ0BASF0oW0NIM10pW0NAQEhdKFtDSDNdKVtDSDJdMg==

> <s_epik_cmdline>
J2VwaWtfcHl0aG9uJywgJy1waCcsICc3LjAnLCAnLXRuJywgJzgnLCAnLW1hJywgJzIwMCcsICctbWV0YWxfYmluZGluZycsICctaW1hZScsICc8aW5maWxlLm1hZT4nLCAnLW9tYWUnLCAnPG91dGZpbGUubWFlPic=

> <r_lp_tautomer_probability>
1

> <r_epik_Ionization_Penalty>
0.000204615

> <r_epik_Ionization_Penalty_Charging>
0.000204615

> <r_epik_Ionization_Penalty_Neutral>
9.28663e-11

> <r_epik_State_Penalty>
-0

> <r_epik_Charging_Adjusted_Penalty>
0.000204615

> <i_epik_Tot_Q>
1

> <i_epik_Tot_abs_Q>
1

> <r_epik_Metal_State_Penalty>
-0

> <b_epik_Metal_Only>
0

> <s_lp_Force_Field>
OPLS_2005

> <r_lp_Energy>
12.3416

> <b_lp_Chiralities_Consistent>
1

> <s_lp_Variant>
AV-unprocessed.smi:3285-2

> <Gold.Version>
5.8.1

> <Gold.Id.Protein>
6NUR|6NUR_protein|mol2

> <Gold.PLP.Fitness>
47.5539

> <Gold.PLP.PLP>
-39.5004

> <Gold.PLP.part.hbond>
-2.0000

> <Gold.PLP.part.metal>
0.0000

> <Gold.PLP.part.buried>
-6.0611

> <Gold.PLP.part.nonpolar>
-33.9837

> <Gold.PLP.part.repulsive>
0.6265

> <Gold.PLP.ligand.clash>
0.0000

> <Gold.PLP.ligand.torsion>
0.2988

> <Gold.PLP.Chemscore.Hbond>
2.8800

> <Gold.PLP.Chemscore.CHOScore>
0.0000

> <Gold.PLP.Chemscore.Metal>
0.0000

> <Gold.Chemscore.Hbonds>
donor molecule, donor type, donor heavy atom, donor atom, acceptor molecule, acceptor atom, score
      L1  H    10    29       P1  8028  2.00
      P1  H 10752 10763       L1     4  0.98

> <Gold.PLP.Chemscore.Internal.Correction>
0.0111

> <Gold.Rescore>
     Score         DG    S(hbond)    S(metal)    S(lipo)     H(rot)  DE(clash)    DE(int)     intcor
     23.00     -23.44       1.94        0.00     127.45       1.35       0.11       0.33       ----

> <Gold.Chemscore.Fitness>
22.9963

> <Gold.Chemscore.DG>
-23.4389

> <Gold.Chemscore.ZeroCoef>
-5.4800

> <Gold.Chemscore.Hbond>
1.9443

> <Gold.Chemscore.Metal>
0.0000

> <Gold.Chemscore.Lipo>
127.4534

> <Gold.Chemscore.Internal_Hbond>
0.0000

> <Gold.Chemscore.DEClash>
0.1097

> <Gold.Chemscore.DEInternal>
0.3329

> <Gold.Chemscore.Rot>
1.3465

> <Gold.Chemscore.Internal.Correction>
   9.000000E+99

> <Gold.Chemscore.Hbonds>
donor molecule, donor type, donor heavy atom, donor atom, acceptor molecule, acceptor atom, score
      L1  H    10    29       P1  8028  0.94
      P1  H 10752 10763       L1     4  0.24

> <Gold.Chemscore.Hbond.Weighted>
-6.4938

> <Gold.Chemscore.Metal.Weighted>
-0.0000

> <Gold.Chemscore.Lipo.Weighted>
-14.9120

> <Gold.Chemscore.Internal_Hbond.Weighted>
0.0000

> <Gold.Chemscore.DEClash.Weighted>
0.1097

> <Gold.Chemscore.DEInternal.Weighted>
0.3329

> <Gold.Chemscore.Rot.Weighted>
3.4470

> <Gold.Chemscore.Internal.Correction.Weighted>
   9.000000E+99

> <Gold.Protein.RotatedTorsions>
[ 6907 6896 6895 6894 ] final   30.15 input  -60.11 | X-H torsion
[ 7974 7965 7964 7962 ] final   12.73 input  175.53 | X-H torsion
[ 8008 7997 7996 7995 ] final  -79.46 input   59.86 | X-H torsion
[ 10167 10162 10161 10158 ] final  -88.72 input  -65.29 | X-H torsion
[ 10718 10713 10712 10709 ] final -108.88 input   66.30 | X-H torsion
[ 10763 10752 10751 10750 ] final   64.34 input  -60.55 | X-H torsion
[ 11005 11000 10999 10996 ] final  145.00 input  -57.11 | X-H torsion

> <Gold.Protein.ActiveResidues>
 VAL166  LYS551  ARG553  GLY616  TRP617  ASP618  TYR619  PRO620  LYS621  CYS622 
 ASP623  PHE694  ASN695  SER759  ASP760  ASP761  ALA762  ILE779  LEU786  VAL792 
 PHE793  MET794  SER795  GLU796  ALA797  LYS798  CYS799  TRP800  GLU811  SER814 

> <Gold.Protein.RotatedAtoms>
  152.0419  134.9706  160.0573 H   0  0  0  0  0  0  0  0  0  0  0  0  # atno 6907 bound_to 6896
  152.1142  133.4312  159.4653 H   0  0  0  0  0  0  0  0  0  0  0  0  # atno 6908 bound_to 6896
  150.6845  134.2531  159.4562 H   0  0  0  0  0  0  0  0  0  0  0  0  # atno 6909 bound_to 6896
  146.2345  139.9293  142.8498 H   0  0  0  0  0  0  0  0  0  0  0  0  # atno 7974 bound_to 7965
  154.5788  140.0678  156.9073 H   0  0  0  0  0  0  0  0  0  0  0  0  # atno 8008 bound_to 7997
  155.2501  140.3351  155.4265 H   0  0  0  0  0  0  0  0  0  0  0  0  # atno 8009 bound_to 7997
  156.2174  140.1784  156.7543 H   0  0  0  0  0  0  0  0  0  0  0  0  # atno 8010 bound_to 7997
  140.3719  143.2790  151.9490 H   0  0  0  0  0  0  0  0  0  0  0  0  # atno 10167 bound_to 10162
  156.0508  130.5735  150.8022 H   0  0  0  0  0  0  0  0  0  0  0  0  # atno 10718 bound_to 10713
  153.0052  135.5396  154.6495 H   0  0  0  0  0  0  0  0  0  0  0  0  # atno 10763 bound_to 10752
  154.5730  135.2843  155.0810 H   0  0  0  0  0  0  0  0  0  0  0  0  # atno 10764 bound_to 10752
  154.1968  135.6490  153.5128 H   0  0  0  0  0  0  0  0  0  0  0  0  # atno 10765 bound_to 10752
  140.0677  134.9169  157.1292 H   0  0  0  0  0  0  0  0  0  0  0  0  # atno 11005 bound_to 11000
  145.2059  140.9875  143.4128 LP  0  0  0  0  0  0  0  0  0  0  0  0  # atno 17320 bound_to 7965
  144.9733  139.3858  143.6298 LP  0  0  0  0  0  0  0  0  0  0  0  0  # atno 17321 bound_to 7965
  139.4803  144.5899  151.7789 LP  0  0  0  0  0  0  0  0  0  0  0  0  # atno 17342 bound_to 10162
  140.5025  144.1148  150.5974 LP  0  0  0  0  0  0  0  0  0  0  0  0  # atno 17343 bound_to 10162
  157.5432  131.0941  150.9799 LP  0  0  0  0  0  0  0  0  0  0  0  0  # atno 17370 bound_to 10713
  157.0076  130.5624  149.5317 LP  0  0  0  0  0  0  0  0  0  0  0  0  # atno 17371 bound_to 10713
  140.3674  134.2428  155.7181 LP  0  0  0  0  0  0  0  0  0  0  0  0  # atno 17394 bound_to 11000
  141.1999  133.7999  157.0513 LP  0  0  0  0  0  0  0  0  0  0  0  0  # atno 17395 bound_to 11000

$$$$
