AV-unprocessed.smi:12|AV-procd|sdf|63|dock10
  -GOLD-   2262015183D 1   1.00000     0.00000
 Structure written by MMmdl.
 41 44  0  0  0  0  0  0  0  0  1 V2000
  144.5520  144.1515  157.0466 C   0  0  0  0  0  0  0  0  0  0  0  0
  145.0211  142.9189  156.2946 C   0  0  0  0  0  0  0  0  0  0  0  0
  146.1879  142.9056  155.6079 C   0  0  0  0  0  0  0  0  0  0  0  0
  146.5661  141.7684  154.9504 N   0  0  0  0  0  0  0  0  0  0  0  0
  145.7311  140.6307  154.9811 C   0  0  0  0  0  0  0  0  0  0  0  0
  144.6017  140.5644  155.6150 N   0  0  0  0  0  0  0  0  0  0  0  0
  144.1698  141.7029  156.3226 C   0  0  0  0  0  0  0  0  0  0  0  0
  143.1091  141.6852  156.9453 O   0  0  0  0  0  0  0  0  0  0  0  0
  146.2987  139.6451  154.2325 O   0  0  0  0  0  0  0  0  0  0  0  0
  147.5310  140.1126  153.6675 C   0  0  2  0  0  0  0  0  0  0  0  0
  148.7228  139.3417  154.2283 C   0  0  1  0  0  0  0  0  0  0  0  0
  149.2780  138.4922  153.2444 O   0  0  0  0  0  0  0  0  0  0  0  0
  149.7064  140.4448  154.6311 C   0  0  2  0  0  0  0  0  0  0  0  0
  150.6448  140.0687  155.7844 C   0  0  0  0  0  0  0  0  0  0  0  0
  150.9576  141.2322  156.5330 O   0  0  0  0  0  0  0  0  0  0  0  0
  151.8902  141.1822  157.5034 C   0  0  0  0  0  0  0  0  0  0  0  0
  152.6061  140.2006  157.7119 O   0  0  0  0  0  0  0  0  0  0  0  0
  151.9629  142.4398  158.3021 C   0  0  0  0  0  0  0  0  0  0  0  0
  152.4294  142.3878  159.6367 C   0  0  0  0  0  0  0  0  0  0  0  0
  152.5047  143.5583  160.4165 C   0  0  0  0  0  0  0  0  0  0  0  0
  152.1154  144.7956  159.8711 C   0  0  0  0  0  0  0  0  0  0  0  0
  151.6523  144.8613  158.5440 C   0  0  0  0  0  0  0  0  0  0  0  0
  151.5756  143.6917  157.7628 C   0  0  0  0  0  0  0  0  0  0  0  0
  148.8635  141.5151  155.0261 O   0  0  0  0  0  0  0  0  0  0  0  0
  147.7762  141.5518  154.1595 C   0  0  2  0  0  0  0  0  0  0  0  0
  145.2664  144.9698  156.9508 H   0  0  0  0  0  0  0  0  0  0  0  0
  144.4342  143.9297  158.1078 H   0  0  0  0  0  0  0  0  0  0  0  0
  143.5927  144.4941  156.6574 H   0  0  0  0  0  0  0  0  0  0  0  0
  146.8255  143.7771  155.5757 H   0  0  0  0  0  0  0  0  0  0  0  0
  147.4924  140.1122  152.5769 H   0  0  0  0  0  0  0  0  0  0  0  0
  148.4218  138.7610  155.1017 H   0  0  0  0  0  0  0  0  0  0  0  0
  149.1741  138.9040  152.4000 H   0  0  0  0  0  0  0  0  0  0  0  0
  150.2816  140.7822  153.7663 H   0  0  0  0  0  0  0  0  0  0  0  0
  150.1556  139.3430  156.4356 H   0  0  0  0  0  0  0  0  0  0  0  0
  151.5556  139.6054  155.4025 H   0  0  0  0  0  0  0  0  0  0  0  0
  152.7330  141.4492  160.0777 H   0  0  0  0  0  0  0  0  0  0  0  0
  152.8612  143.5058  161.4348 H   0  0  0  0  0  0  0  0  0  0  0  0
  152.1721  145.6930  160.4697 H   0  0  0  0  0  0  0  0  0  0  0  0
  151.3544  145.8105  158.1235 H   0  0  0  0  0  0  0  0  0  0  0  0
  151.2153  143.7782  156.7481 H   0  0  0  0  0  0  0  0  0  0  0  0
  147.8030  142.3257  153.3915 H   0  0  0  0  0  0  0  0  0  0  0  0
  1  2  1  0  0  0  0
  1 26  1  0  0  0  0
  1 27  1  0  0  0  0
  1 28  1  0  0  0  0
  2  7  1  0  0  0  0
  2  3  2  0  0  0  0
  3  4  1  0  0  0  0
  3 29  1  0  0  0  0
  4 25  1  0  0  0  0
  4  5  1  0  0  0  0
  5  6  2  0  0  0  0
  5  9  1  0  0  0  0
  6  7  1  0  0  0  0
  7  8  2  0  0  0  0
  9 10  1  0  0  0  0
 10 25  1  0  0  0  0
 10 11  1  0  0  0  0
 10 30  1  0  0  0  0
 11 12  1  0  0  0  0
 11 13  1  0  0  0  0
 11 31  1  0  0  0  0
 12 32  1  0  0  0  0
 13 14  1  0  0  0  0
 13 24  1  0  0  0  0
 13 33  1  0  0  0  0
 14 15  1  0  0  0  0
 14 34  1  0  0  0  0
 14 35  1  0  0  0  0
 15 16  1  0  0  0  0
 16 17  2  0  0  0  0
 16 18  1  0  0  0  0
 18 23  1  0  0  0  0
 18 19  2  0  0  0  0
 19 20  1  0  0  0  0
 19 36  1  0  0  0  0
 20 21  2  0  0  0  0
 20 37  1  0  0  0  0
 21 22  1  0  0  0  0
 21 38  1  0  0  0  0
 22 23  2  0  0  0  0
 22 39  1  0  0  0  0
 23 40  1  0  0  0  0
 24 25  1  0  0  0  0
 25 41  1  0  0  0  0
M  END
> <s_m_source_file>
AV-unprocessed.smi

> <i_m_source_file_index>
12

> <i_lp_mmshare_version>
43012

> <i_f3d_flags>
0

> <s_epik_input>
W0NIM11jKFtjSF0xKWMoPU8pbmMobjEyKU9bQ0BIXTNbQ0BASF0yT1tDQEBIXShbQ0BASF0zW09IXSlbQ0gyXU9DKD1PKWM0W2NIXVtjSF1bY0hdW2NIXVtjSF00

> <s_epik_cmdline>
J2VwaWtfcHl0aG9uJywgJy1waCcsICc3LjAnLCAnLXRuJywgJzgnLCAnLW1hJywgJzIwMCcsICctbWV0YWxfYmluZGluZycsICctaW1hZScsICc8aW5maWxlLm1hZT4nLCAnLW9tYWUnLCAnPG91dGZpbGUubWFlPic=

> <r_lp_tautomer_probability>
0.933681

> <r_epik_Ionization_Penalty>
0.00399549

> <r_epik_Ionization_Penalty_Charging>
3.09373e-09

> <r_epik_Ionization_Penalty_Neutral>
0.00399549

> <r_epik_State_Penalty>
0.00284953

> <r_epik_Charging_Adjusted_Penalty>
0.00284953

> <i_epik_Tot_Q>
0

> <i_epik_Tot_abs_Q>
0

> <r_epik_Metal_State_Penalty>
-0

> <b_epik_Metal_Only>
0

> <s_epik_Chemistry_Notes>
This compound has an ester and may undergo hydrolysis at high or low pH. This compound contains an acetal/aminal-like group ( X-CH(R)-Y where X, Y are N, S, or O) that may be acid/base labile, releasing an aldehyde.

> <s_lp_Force_Field>
OPLS_2005

> <r_lp_Energy>
41.0284

> <b_lp_Chiralities_Consistent>
1

> <s_lp_Variant>
AV-unprocessed.smi:12-3

> <Gold.Version>
5.8.1

> <Gold.Id.Protein>
6NUR|6NUR_protein|mol2

> <Gold.PLP.Fitness>
49.2475

> <Gold.PLP.PLP>
-44.6813

> <Gold.PLP.part.hbond>
-3.0000

> <Gold.PLP.part.metal>
0.0000

> <Gold.PLP.part.buried>
-4.5250

> <Gold.PLP.part.nonpolar>
-37.2189

> <Gold.PLP.part.repulsive>
0.4421

> <Gold.PLP.ligand.clash>
0.0000

> <Gold.PLP.ligand.torsion>
0.7246

> <Gold.PLP.Chemscore.Hbond>
2.0000

> <Gold.PLP.Chemscore.CHOScore>
0.0000

> <Gold.PLP.Chemscore.Metal>
0.0000

> <Gold.Chemscore.Hbonds>
donor molecule, donor type, donor heavy atom, donor atom, acceptor molecule, acceptor atom, score
      L1  H    12    32       P1  7957  1.00
      P1  H  7997  8009       L1    17  0.96

> <Gold.PLP.Chemscore.Internal.Correction>
0.0153

> <Gold.Rescore>
     Score         DG    S(hbond)    S(metal)    S(lipo)     H(rot)  DE(clash)    DE(int)     intcor
     17.69     -18.51       1.87        0.00     105.61       2.18       0.15       0.67       ----

> <Gold.Chemscore.Fitness>
17.6867

> <Gold.Chemscore.DG>
-18.5088

> <Gold.Chemscore.ZeroCoef>
-5.4800

> <Gold.Chemscore.Hbond>
1.8721

> <Gold.Chemscore.Metal>
0.0000

> <Gold.Chemscore.Lipo>
105.6146

> <Gold.Chemscore.Internal_Hbond>
0.0000

> <Gold.Chemscore.DEClash>
0.1507

> <Gold.Chemscore.DEInternal>
0.6714

> <Gold.Chemscore.Rot>
2.1800

> <Gold.Chemscore.Internal.Correction>
   9.000000E+99

> <Gold.Chemscore.Hbonds>
donor molecule, donor type, donor heavy atom, donor atom, acceptor molecule, acceptor atom, score
      L1  H    12    32       P1  7957  0.90
      P1  H  7997  8009       L1    17  0.84

> <Gold.Chemscore.Hbond.Weighted>
-6.2526

> <Gold.Chemscore.Metal.Weighted>
-0.0000

> <Gold.Chemscore.Lipo.Weighted>
-12.3569

> <Gold.Chemscore.Internal_Hbond.Weighted>
0.0000

> <Gold.Chemscore.DEClash.Weighted>
0.1507

> <Gold.Chemscore.DEInternal.Weighted>
0.6714

> <Gold.Chemscore.Rot.Weighted>
5.5807

> <Gold.Chemscore.Internal.Correction.Weighted>
   9.000000E+99

> <Gold.Protein.RotatedTorsions>
[ 6907 6896 6895 6894 ] final  -11.65 input  -60.11 | X-H torsion
[ 7974 7965 7964 7962 ] final    7.51 input  175.53 | X-H torsion
[ 8008 7997 7996 7995 ] final  171.87 input   59.86 | X-H torsion
[ 10167 10162 10161 10158 ] final  142.54 input  -65.29 | X-H torsion
[ 10718 10713 10712 10709 ] final  149.99 input   66.30 | X-H torsion
[ 10763 10752 10751 10750 ] final -176.43 input  -60.55 | X-H torsion
[ 11005 11000 10999 10996 ] final -149.05 input  -57.11 | X-H torsion

> <Gold.Protein.ActiveResidues>
 VAL166  LYS551  ARG553  GLY616  TRP617  ASP618  TYR619  PRO620  LYS621  CYS622 
 ASP623  PHE694  ASN695  SER759  ASP760  ASP761  ALA762  ILE779  LEU786  VAL792 
 PHE793  MET794  SER795  GLU796  ALA797  LYS798  CYS799  TRP800  GLU811  SER814 

> <Gold.Protein.RotatedAtoms>
  151.3829  135.0943  159.9501 H   0  0  0  0  0  0  0  0  0  0  0  0  # atno 6907 bound_to 6896
  152.5103  133.9054  159.7472 H   0  0  0  0  0  0  0  0  0  0  0  0  # atno 6908 bound_to 6896
  150.9492  133.6513  159.2804 H   0  0  0  0  0  0  0  0  0  0  0  0  # atno 6909 bound_to 6896
  146.2426  140.0072  142.8410 H   0  0  0  0  0  0  0  0  0  0  0  0  # atno 7974 bound_to 7965
  156.1230  140.1501  156.9177 H   0  0  0  0  0  0  0  0  0  0  0  0  # atno 8008 bound_to 7997
  154.4850  140.0868  156.7506 H   0  0  0  0  0  0  0  0  0  0  0  0  # atno 8009 bound_to 7997
  155.4394  140.3430  155.4290 H   0  0  0  0  0  0  0  0  0  0  0  0  # atno 8010 bound_to 7997
  139.4992  144.6100  151.6292 H   0  0  0  0  0  0  0  0  0  0  0  0  # atno 10167 bound_to 10162
  157.2892  131.0850  151.1475 H   0  0  0  0  0  0  0  0  0  0  0  0  # atno 10718 bound_to 10713
  154.5724  135.2829  155.0814 H   0  0  0  0  0  0  0  0  0  0  0  0  # atno 10763 bound_to 10752
  154.2181  135.6396  153.5140 H   0  0  0  0  0  0  0  0  0  0  0  0  # atno 10764 bound_to 10752
  153.0062  135.5508  154.6352 H   0  0  0  0  0  0  0  0  0  0  0  0  # atno 10765 bound_to 10752
  140.7548  134.3366  157.5117 H   0  0  0  0  0  0  0  0  0  0  0  0  # atno 11005 bound_to 11000
  145.1361  140.9545  143.4516 LP  0  0  0  0  0  0  0  0  0  0  0  0  # atno 17320 bound_to 7965
  145.0341  139.3316  143.6010 LP  0  0  0  0  0  0  0  0  0  0  0  0  # atno 17321 bound_to 7965
  140.5772  144.0007  150.6248 LP  0  0  0  0  0  0  0  0  0  0  0  0  # atno 17342 bound_to 10162
  140.3145  143.3177  152.0846 LP  0  0  0  0  0  0  0  0  0  0  0  0  # atno 17343 bound_to 10162
  157.2878  130.6781  149.6098 LP  0  0  0  0  0  0  0  0  0  0  0  0  # atno 17370 bound_to 10713
  155.9666  130.4430  150.5404 LP  0  0  0  0  0  0  0  0  0  0  0  0  # atno 17371 bound_to 10713
  139.8781  134.9165  156.3155 LP  0  0  0  0  0  0  0  0  0  0  0  0  # atno 17394 bound_to 11000
  140.9718  133.7323  156.0545 LP  0  0  0  0  0  0  0  0  0  0  0  0  # atno 17395 bound_to 11000

$$$$
