AV-unprocessed.smi:158|AV-procd|sdf|1332|dock8
  -GOLD-   2262019 33D 1   1.00000     0.00000
 Structure written by MMmdl.
 31 33  0  0  0  0  0  0  0  0  1 V2000
  152.1474  137.2019  153.8133 N   0  0  0  0  0  0  0  0  0  0  0  0
  151.4162  138.1200  154.4609 C   0  0  0  0  0  0  0  0  0  0  0  0
  150.2181  138.4730  153.9400 N   0  0  0  0  0  0  0  0  0  0  0  0
  149.4567  139.3869  154.5542 C   0  0  0  0  0  0  0  0  0  0  0  0
  147.9505  139.7607  153.8028 Cl  0  0  0  0  0  0  0  0  0  0  0  0
  149.7329  140.0444  155.6851 N   0  0  0  0  0  0  0  0  0  0  0  0
  150.9408  139.6917  156.2141 C   0  0  0  0  0  0  0  0  0  0  0  0
  151.8385  138.7383  155.6633 C   0  0  0  0  0  0  0  0  0  0  0  0
  152.9668  138.6311  156.4651 N   0  0  0  0  0  0  0  0  0  0  0  0
  152.7433  139.4768  157.4357 C   0  0  0  0  0  0  0  0  0  0  0  0
  151.5485  140.1585  157.3630 N   0  0  0  0  0  0  0  0  0  0  0  0
  151.0232  141.1828  158.3184 C   0  0  1  0  0  0  0  0  0  0  0  0
  152.0572  141.6092  159.1567 O   0  0  0  0  0  0  0  0  0  0  0  0
  152.1012  143.0367  159.1998 C   0  0  2  0  0  0  0  0  0  0  0  0
  152.4163  143.4912  160.6331 C   0  0  0  0  0  0  0  0  0  0  0  0
  151.3752  143.1211  161.5121 O   0  0  0  0  0  0  0  0  0  0  0  0
  150.7276  143.4692  158.6724 C   0  0  1  0  0  0  0  0  0  0  0  0
  150.7032  144.7785  158.1394 O   0  0  0  0  0  0  0  0  0  0  0  0
  150.4701  142.4219  157.6071 C   0  0  1  0  0  0  0  0  0  0  0  0
  151.1809  142.6715  156.5029 F   0  0  0  0  0  0  0  0  0  0  0  0
  150.2705  140.6612  158.9110 H   0  0  0  0  0  0  0  0  0  0  0  0
  152.8882  143.3589  158.5153 H   0  0  0  0  0  0  0  0  0  0  0  0
  149.9769  143.3854  159.4595 H   0  0  0  0  0  0  0  0  0  0  0  0
  149.4223  142.2989  157.3320 H   0  0  0  0  0  0  0  0  0  0  0  0
  153.0451  136.9225  154.1820 H   0  0  0  0  0  0  0  0  0  0  0  0
  151.8004  136.7924  152.9581 H   0  0  0  0  0  0  0  0  0  0  0  0
  153.4505  139.6277  158.2383 H   0  0  0  0  0  0  0  0  0  0  0  0
  153.3588  143.0671  160.9812 H   0  0  0  0  0  0  0  0  0  0  0  0
  152.5200  144.5760  160.6648 H   0  0  0  0  0  0  0  0  0  0  0  0
  151.1633  143.8643  162.0563 H   0  0  0  0  0  0  0  0  0  0  0  0
  150.0840  144.7984  157.4252 H   0  0  0  0  0  0  0  0  0  0  0  0
  1  2  1  0  0  0  0
  1 25  1  0  0  0  0
  1 26  1  0  0  0  0
  2  8  1  0  0  0  0
  2  3  2  0  0  0  0
  3  4  1  0  0  0  0
  4  5  1  0  0  0  0
  4  6  2  0  0  0  0
  6  7  1  0  0  0  0
  7 11  1  0  0  0  0
  7  8  2  0  0  0  0
  8  9  1  0  0  0  0
  9 10  2  0  0  0  0
 10 11  1  0  0  0  0
 10 27  1  0  0  0  0
 11 12  1  0  0  0  0
 12 21  1  0  0  0  0
 12 19  1  0  0  0  0
 12 13  1  0  0  0  0
 13 14  1  0  0  0  0
 14 22  1  0  0  0  0
 14 15  1  0  0  0  0
 14 17  1  0  0  0  0
 15 16  1  0  0  0  0
 15 28  1  0  0  0  0
 15 29  1  0  0  0  0
 16 30  1  0  0  0  0
 17 23  1  0  0  0  0
 17 18  1  0  0  0  0
 17 19  1  0  0  0  0
 18 31  1  0  0  0  0
 19 24  1  0  0  0  0
 19 20  1  0  0  0  0
M  END
> <s_m_source_file>
AV-unprocessed.smi

> <i_m_source_file_index>
158

> <i_lp_mmshare_version>
43012

> <i_f3d_flags>
0

> <s_epik_input>
Q2xjKG4xKW5jKFtOSDJdKWMoYzEyKW5bY0hdbjJbQ0BASF0zT1tDQEhdKFtDSDJdW09IXSlbQ0BASF0oW09IXSlbQ0BASF0zRg==

> <s_epik_cmdline>
J2VwaWtfcHl0aG9uJywgJy1waCcsICc3LjAnLCAnLXRuJywgJzgnLCAnLW1hJywgJzIwMCcsICctbWV0YWxfYmluZGluZycsICctaW1hZScsICc8aW5maWxlLm1hZT4nLCAnLW9tYWUnLCAnPG91dGZpbGUubWFlPic=

> <r_lp_tautomer_probability>
1

> <r_epik_Ionization_Penalty>
6.51543e-05

> <r_epik_Ionization_Penalty_Charging>
0

> <r_epik_Ionization_Penalty_Neutral>
6.51543e-05

> <r_epik_State_Penalty>
-0

> <r_epik_Charging_Adjusted_Penalty>
0

> <i_epik_Tot_Q>
0

> <i_epik_Tot_abs_Q>
0

> <r_epik_Metal_State_Penalty>
-0

> <b_epik_Metal_Only>
0

> <s_epik_Chemistry_Notes>
This compound contains an acetal/aminal-like group ( X-CH(R)-Y where X, Y are N, S, or O) that may be acid/base labile, releasing an aldehyde.

> <s_lp_Force_Field>
OPLS_2005

> <r_lp_Energy>
35.9633

> <b_lp_Chiralities_Consistent>
1

> <s_lp_Variant>
AV-unprocessed.smi:158-10

> <Gold.Version>
5.8.1

> <Gold.Id.Protein>
6NUR|6NUR_protein|mol2

> <Gold.PLP.Fitness>
35.9443

> <Gold.PLP.PLP>
-30.2914

> <Gold.PLP.part.hbond>
-5.1704

> <Gold.PLP.part.metal>
0.0000

> <Gold.PLP.part.buried>
-3.1861

> <Gold.PLP.part.nonpolar>
-25.0899

> <Gold.PLP.part.repulsive>
3.0204

> <Gold.PLP.ligand.clash>
0.0000

> <Gold.PLP.ligand.torsion>
0.3539

> <Gold.PLP.Chemscore.Hbond>
2.1190

> <Gold.PLP.Chemscore.CHOScore>
0.0000

> <Gold.PLP.Chemscore.Metal>
0.0000

> <Gold.Chemscore.Hbonds>
donor molecule, donor type, donor heavy atom, donor atom, acceptor molecule, acceptor atom, score
      L1  H     1    26       P1  7949  1.00
      L1  H    18    31       P1  8028  0.68
      P1  H  6933  6945       L1    16  0.46

> <Gold.PLP.Chemscore.Internal.Correction>
0.0037

> <Gold.Rescore>
     Score         DG    S(hbond)    S(metal)    S(lipo)     H(rot)  DE(clash)    DE(int)     intcor
      5.17      -8.79       1.57        0.00      51.83       3.12       2.44       1.17       ----

> <Gold.Chemscore.Fitness>
5.1744

> <Gold.Chemscore.DG>
-8.7862

> <Gold.Chemscore.ZeroCoef>
-5.4800

> <Gold.Chemscore.Hbond>
1.5680

> <Gold.Chemscore.Metal>
0.0000

> <Gold.Chemscore.Lipo>
51.8292

> <Gold.Chemscore.Internal_Hbond>
0.0000

> <Gold.Chemscore.DEClash>
2.4420

> <Gold.Chemscore.DEInternal>
1.1698

> <Gold.Chemscore.Rot>
3.1230

> <Gold.Chemscore.Internal.Correction>
   9.000000E+99

> <Gold.Chemscore.Hbonds>
donor molecule, donor type, donor heavy atom, donor atom, acceptor molecule, acceptor atom, score
      L1  H     1    26       P1  7949  1.00
      L1  H    18    31       P1  8028  0.10
      P1  H  6933  6945       L1    16  0.11

> <Gold.Chemscore.Hbond.Weighted>
-5.2371

> <Gold.Chemscore.Metal.Weighted>
-0.0000

> <Gold.Chemscore.Lipo.Weighted>
-6.0640

> <Gold.Chemscore.Internal_Hbond.Weighted>
0.0000

> <Gold.Chemscore.DEClash.Weighted>
2.4420

> <Gold.Chemscore.DEInternal.Weighted>
1.1698

> <Gold.Chemscore.Rot.Weighted>
7.9950

> <Gold.Chemscore.Internal.Correction.Weighted>
   9.000000E+99

> <Gold.Protein.RotatedTorsions>
[ 6907 6896 6895 6894 ] final   35.35 input  -60.11 | X-H torsion
[ 7974 7965 7964 7962 ] final  -34.10 input  175.53 | X-H torsion
[ 8008 7997 7996 7995 ] final -177.18 input   59.86 | X-H torsion
[ 10167 10162 10161 10158 ] final -103.66 input  -65.29 | X-H torsion
[ 10718 10713 10712 10709 ] final   56.36 input   66.30 | X-H torsion
[ 10763 10752 10751 10750 ] final -168.48 input  -60.55 | X-H torsion
[ 11005 11000 10999 10996 ] final   98.14 input  -57.11 | X-H torsion

> <Gold.Protein.ActiveResidues>
 VAL166  LYS551  ARG553  GLY616  TRP617  ASP618  TYR619  PRO620  LYS621  CYS622 
 ASP623  PHE694  ASN695  SER759  ASP760  ASP761  ALA762  ILE779  LEU786  VAL792 
 PHE793  MET794  SER795  GLU796  ALA797  LYS798  CYS799  TRP800  GLU811  SER814 

> <Gold.Protein.RotatedAtoms>
  152.1149  134.9248  160.0565 H   0  0  0  0  0  0  0  0  0  0  0  0  # atno 6907 bound_to 6896
  152.0411  133.3973  159.4345 H   0  0  0  0  0  0  0  0  0  0  0  0  # atno 6908 bound_to 6896
  150.6845  134.3334  159.4880 H   0  0  0  0  0  0  0  0  0  0  0  0  # atno 6909 bound_to 6896
  146.0857  140.5997  142.8887 H   0  0  0  0  0  0  0  0  0  0  0  0  # atno 7974 bound_to 7965
  156.0039  140.1226  157.0521 H   0  0  0  0  0  0  0  0  0  0  0  0  # atno 8008 bound_to 7997
  154.4252  140.1101  156.5803 H   0  0  0  0  0  0  0  0  0  0  0  0  # atno 8009 bound_to 7997
  155.6175  140.3472  155.4643 H   0  0  0  0  0  0  0  0  0  0  0  0  # atno 8010 bound_to 7997
  140.2176  143.3700  152.0997 H   0  0  0  0  0  0  0  0  0  0  0  0  # atno 10167 bound_to 10162
  157.5424  130.8707  149.8842 H   0  0  0  0  0  0  0  0  0  0  0  0  # atno 10718 bound_to 10713
  154.6624  135.2927  154.9849 H   0  0  0  0  0  0  0  0  0  0  0  0  # atno 10763 bound_to 10752
  154.0905  135.6591  153.4855 H   0  0  0  0  0  0  0  0  0  0  0  0  # atno 10764 bound_to 10752
  153.0437  135.5219  154.7581 H   0  0  0  0  0  0  0  0  0  0  0  0  # atno 10765 bound_to 10752
  139.8773  134.9035  156.4412 H   0  0  0  0  0  0  0  0  0  0  0  0  # atno 11005 bound_to 11000
  144.7324  140.4710  143.6928 LP  0  0  0  0  0  0  0  0  0  0  0  0  # atno 17320 bound_to 7965
  145.6134  139.1516  143.3063 LP  0  0  0  0  0  0  0  0  0  0  0  0  # atno 17321 bound_to 7965
  139.5156  144.6965  151.5615 LP  0  0  0  0  0  0  0  0  0  0  0  0  # atno 17342 bound_to 10162
  140.6278  143.9134  150.6579 LP  0  0  0  0  0  0  0  0  0  0  0  0  # atno 17343 bound_to 10162
  156.0508  130.3718  150.1206 LP  0  0  0  0  0  0  0  0  0  0  0  0  # atno 17370 bound_to 10713
  156.9385  130.9737  151.3520 LP  0  0  0  0  0  0  0  0  0  0  0  0  # atno 17371 bound_to 10713
  140.8998  133.7787  155.9667 LP  0  0  0  0  0  0  0  0  0  0  0  0  # atno 17394 bound_to 11000
  140.8663  134.2780  157.5211 LP  0  0  0  0  0  0  0  0  0  0  0  0  # atno 17395 bound_to 11000

$$$$
