AV-unprocessed.smi:2482|AV-procd|sdf|9780|dock6
  -GOLD-   2272013423D 1   1.00000     0.00000
 Structure written by MMmdl.
 34 35  0  0  0  0  0  0  0  0  1 V2000
  153.7360  142.2043  162.4600 C   0  0  0  0  0  0  0  0  0  0  0  0
  152.9005  142.8860  161.3925 C   0  0  0  0  0  0  0  0  0  0  0  0
  152.4100  144.1010  161.7212 N   0  0  0  0  0  0  0  0  0  0  0  0
  151.6538  144.7477  160.8109 C   0  0  0  0  0  0  0  0  0  0  0  0
  151.3566  144.2244  159.5382 C   0  0  0  0  0  0  0  0  0  0  0  0
  151.8826  142.9589  159.1841 C   0  0  0  0  0  0  0  0  0  0  0  0
  151.6275  142.3275  157.9355 N   0  0  0  0  0  0  0  0  0  0  0  0
  150.4831  142.2783  157.2285 C   0  0  0  0  0  0  0  0  0  0  0  0
  149.4238  142.7954  157.5837 O   0  0  0  0  0  0  0  0  0  0  0  0
  150.5579  141.5130  155.8992 C   0  0  1  0  0  0  0  0  0  0  0  0
  151.6611  140.4298  155.8887 C   0  0  0  0  0  0  0  0  0  0  0  0
  151.6667  139.6735  154.6427 N   0  0  0  0  0  0  0  0  0  0  0  0
  152.7043  138.6537  154.6392 C   0  0  0  0  0  0  0  0  0  0  0  0
  150.3483  139.0996  154.4113 C   0  0  0  0  0  0  0  0  0  0  0  0
  149.2523  140.1781  154.4195 C   0  0  0  0  0  0  0  0  0  0  0  0
  149.2956  140.8911  155.6514 O   0  0  0  0  0  0  0  0  0  0  0  0
  152.6623  142.2689  160.1419 C   0  0  0  0  0  0  0  0  0  0  0  0
  153.3177  140.7045  159.7898 Cl  0  0  0  0  0  0  0  0  0  0  0  0
  154.7436  142.0151  162.0893 H   0  0  0  0  0  0  0  0  0  0  0  0
  153.2871  141.2520  162.7429 H   0  0  0  0  0  0  0  0  0  0  0  0
  153.8179  142.8180  163.3581 H   0  0  0  0  0  0  0  0  0  0  0  0
  151.2665  145.7107  161.1087 H   0  0  0  0  0  0  0  0  0  0  0  0
  150.7265  144.7931  158.8724 H   0  0  0  0  0  0  0  0  0  0  0  0
  152.4375  141.9316  157.4797 H   0  0  0  0  0  0  0  0  0  0  0  0
  150.7534  142.2420  155.1107 H   0  0  0  0  0  0  0  0  0  0  0  0
  152.6362  140.8976  156.0316 H   0  0  0  0  0  0  0  0  0  0  0  0
  151.5150  139.7505  156.7306 H   0  0  0  0  0  0  0  0  0  0  0  0
  152.7194  138.1213  153.6878 H   0  0  0  0  0  0  0  0  0  0  0  0
  152.5433  137.9245  155.4344 H   0  0  0  0  0  0  0  0  0  0  0  0
  153.6875  139.1025  154.7841 H   0  0  0  0  0  0  0  0  0  0  0  0
  150.3351  138.5748  153.4554 H   0  0  0  0  0  0  0  0  0  0  0  0
  150.1282  138.3565  155.1793 H   0  0  0  0  0  0  0  0  0  0  0  0
  149.3833  140.8698  153.5860 H   0  0  0  0  0  0  0  0  0  0  0  0
  148.2691  139.7212  154.3061 H   0  0  0  0  0  0  0  0  0  0  0  0
  1  2  1  0  0  0  0
  1 19  1  0  0  0  0
  1 20  1  0  0  0  0
  1 21  1  0  0  0  0
  2 17  1  0  0  0  0
  2  3  2  0  0  0  0
  3  4  1  0  0  0  0
  4  5  2  0  0  0  0
  4 22  1  0  0  0  0
  5  6  1  0  0  0  0
  5 23  1  0  0  0  0
  6  7  1  0  0  0  0
  6 17  2  0  0  0  0
  7  8  1  0  0  0  0
  7 24  1  0  0  0  0
  8  9  2  0  0  0  0
  8 10  1  0  0  0  0
 10 16  1  0  0  0  0
 10 11  1  0  0  0  0
 10 25  1  0  0  0  0
 11 12  1  0  0  0  0
 11 26  1  0  0  0  0
 11 27  1  0  0  0  0
 12 13  1  0  0  0  0
 12 14  1  0  0  0  0
 13 28  1  0  0  0  0
 13 29  1  0  0  0  0
 13 30  1  0  0  0  0
 14 15  1  0  0  0  0
 14 31  1  0  0  0  0
 14 32  1  0  0  0  0
 15 16  1  0  0  0  0
 15 33  1  0  0  0  0
 15 34  1  0  0  0  0
 17 18  1  0  0  0  0
M  END
> <s_m_source_file>
AV-unprocessed.smi

> <i_m_source_file_index>
2482

> <i_lp_mmshare_version>
43012

> <i_f3d_flags>
0

> <s_epik_input>
W0NIM11jMW5bY0hdW2NIXWMoYzFDbClbTkhdQyg9TylbQ0BASF0yW0NIMl1OKFtDSDNdKVtDSDJdW0NIMl1PMg==

> <s_epik_cmdline>
J2VwaWtfcHl0aG9uJywgJy1waCcsICc3LjAnLCAnLXRuJywgJzgnLCAnLW1hJywgJzIwMCcsICctbWV0YWxfYmluZGluZycsICctaW1hZScsICc8aW5maWxlLm1hZT4nLCAnLW9tYWUnLCAnPG91dGZpbGUubWFlPic=

> <r_epik_Ionization_Penalty>
0.52656

> <r_epik_Ionization_Penalty_Charging>
0

> <r_epik_Ionization_Penalty_Neutral>
0.52656

> <r_epik_State_Penalty>
0.534659

> <r_epik_Charging_Adjusted_Penalty>
0.534659

> <i_epik_Tot_Q>
0

> <i_epik_Tot_abs_Q>
0

> <r_epik_Metal_State_Penalty>
0.54077

> <b_epik_Metal_Only>
0

> <s_lp_Force_Field>
OPLS_2005

> <r_lp_Energy>
25.124

> <b_lp_Chiralities_Consistent>
1

> <s_lp_Variant>
AV-unprocessed.smi:2482-6

> <Gold.Version>
5.8.1

> <Gold.Id.Protein>
6NUR|6NUR_protein|mol2

> <Gold.PLP.Fitness>
42.9266

> <Gold.PLP.PLP>
-42.0237

> <Gold.PLP.part.hbond>
-1.0000

> <Gold.PLP.part.metal>
0.0000

> <Gold.PLP.part.buried>
-4.8479

> <Gold.PLP.part.nonpolar>
-38.2283

> <Gold.PLP.part.repulsive>
2.7518

> <Gold.PLP.ligand.clash>
0.0000

> <Gold.PLP.ligand.torsion>
1.0496

> <Gold.PLP.Chemscore.Hbond>
1.0000

> <Gold.PLP.Chemscore.CHOScore>
0.0000

> <Gold.PLP.Chemscore.Metal>
0.0000

> <Gold.Chemscore.Hbonds>
donor molecule, donor type, donor heavy atom, donor atom, acceptor molecule, acceptor atom, score
      P1  H  7989  7998       L1    12  1.00

> <Gold.PLP.Chemscore.Internal.Correction>
0.0020

> <Gold.Rescore>
     Score         DG    S(hbond)    S(metal)    S(lipo)     H(rot)  DE(clash)    DE(int)     intcor
     13.28     -16.53       0.13        0.00     112.52       1.00       1.59       1.65       ----

> <Gold.Chemscore.Fitness>
13.2828

> <Gold.Chemscore.DG>
-16.5288

> <Gold.Chemscore.ZeroCoef>
-5.4800

> <Gold.Chemscore.Hbond>
0.1331

> <Gold.Chemscore.Metal>
0.0000

> <Gold.Chemscore.Lipo>
112.5153

> <Gold.Chemscore.Internal_Hbond>
0.0000

> <Gold.Chemscore.DEClash>
1.5950

> <Gold.Chemscore.DEInternal>
1.6510

> <Gold.Chemscore.Rot>
1.0000

> <Gold.Chemscore.Internal.Correction>
   9.000000E+99

> <Gold.Chemscore.Hbonds>
donor molecule, donor type, donor heavy atom, donor atom, acceptor molecule, acceptor atom, score
      P1  H  7989  7998       L1    12  0.10

> <Gold.Chemscore.Hbond.Weighted>
-0.4446

> <Gold.Chemscore.Metal.Weighted>
-0.0000

> <Gold.Chemscore.Lipo.Weighted>
-13.1643

> <Gold.Chemscore.Internal_Hbond.Weighted>
0.0000

> <Gold.Chemscore.DEClash.Weighted>
1.5950

> <Gold.Chemscore.DEInternal.Weighted>
1.6510

> <Gold.Chemscore.Rot.Weighted>
2.5600

> <Gold.Chemscore.Internal.Correction.Weighted>
   9.000000E+99

> <Gold.Protein.RotatedTorsions>
[ 6907 6896 6895 6894 ] final  -99.48 input  -60.11 | X-H torsion
[ 7974 7965 7964 7962 ] final  169.55 input  175.53 | X-H torsion
[ 8008 7997 7996 7995 ] final  120.76 input   59.86 | X-H torsion
[ 10167 10162 10161 10158 ] final   15.47 input  -65.29 | X-H torsion
[ 10718 10713 10712 10709 ] final  167.49 input   66.30 | X-H torsion
[ 10763 10752 10751 10750 ] final  -18.15 input  -60.55 | X-H torsion
[ 11005 11000 10999 10996 ] final  152.75 input  -57.11 | X-H torsion

> <Gold.Protein.ActiveResidues>
 VAL166  LYS551  ARG553  GLY616  TRP617  ASP618  TYR619  PRO620  LYS621  CYS622 
 ASP623  PHE694  ASN695  SER759  ASP760  ASP761  ALA762  ILE779  LEU786  VAL792 
 PHE793  MET794  SER795  GLU796  ALA797  LYS798  CYS799  TRP800  GLU811  SER814 

> <Gold.Protein.RotatedAtoms>
  150.7081  134.1034  159.3973 H   0  0  0  0  0  0  0  0  0  0  0  0  # atno 6907 bound_to 6896
  151.9021  135.0372  160.0516 H   0  0  0  0  0  0  0  0  0  0  0  0  # atno 6908 bound_to 6896
  152.2406  133.5096  159.5304 H   0  0  0  0  0  0  0  0  0  0  0  0  # atno 6909 bound_to 6896
  144.7351  139.9070  143.6413 H   0  0  0  0  0  0  0  0  0  0  0  0  # atno 7974 bound_to 7965
  156.2657  140.2823  156.1201 H   0  0  0  0  0  0  0  0  0  0  0  0  # atno 8008 bound_to 7997
  155.1165  140.0391  157.2756 H   0  0  0  0  0  0  0  0  0  0  0  0  # atno 8009 bound_to 7997
  154.6703  140.2586  155.7020 H   0  0  0  0  0  0  0  0  0  0  0  0  # atno 8010 bound_to 7997
  140.5865  143.8879  150.6835 H   0  0  0  0  0  0  0  0  0  0  0  0  # atno 10167 bound_to 10162
  157.0508  131.0313  151.2681 H   0  0  0  0  0  0  0  0  0  0  0  0  # atno 10718 bound_to 10713
  153.5848  135.7004  153.5448 H   0  0  0  0  0  0  0  0  0  0  0  0  # atno 10763 bound_to 10752
  153.3229  135.4069  155.1431 H   0  0  0  0  0  0  0  0  0  0  0  0  # atno 10764 bound_to 10752
  154.8611  135.3700  154.5377 H   0  0  0  0  0  0  0  0  0  0  0  0  # atno 10765 bound_to 10752
  140.1336  134.8786  157.2237 H   0  0  0  0  0  0  0  0  0  0  0  0  # atno 11005 bound_to 11000
  146.1029  139.4026  143.0335 LP  0  0  0  0  0  0  0  0  0  0  0  0  # atno 17320 bound_to 7965
  145.7553  140.9956  143.1229 LP  0  0  0  0  0  0  0  0  0  0  0  0  # atno 17321 bound_to 7965
  140.2391  143.3677  152.1501 LP  0  0  0  0  0  0  0  0  0  0  0  0  # atno 17342 bound_to 10162
  139.5201  144.7028  151.5443 LP  0  0  0  0  0  0  0  0  0  0  0  0  # atno 17343 bound_to 10162
  157.5032  130.7892  149.7626 LP  0  0  0  0  0  0  0  0  0  0  0  0  # atno 17370 bound_to 10713
  156.0008  130.3881  150.2612 LP  0  0  0  0  0  0  0  0  0  0  0  0  # atno 17371 bound_to 10713
  140.2811  134.3349  155.7343 LP  0  0  0  0  0  0  0  0  0  0  0  0  # atno 17394 bound_to 11000
  141.2174  133.7479  156.9365 LP  0  0  0  0  0  0  0  0  0  0  0  0  # atno 17395 bound_to 11000

$$$$
