AV-unprocessed.smi:1295|AV-procd|sdf|5404|dock4
  -GOLD-   22720 4563D 1   1.00000     0.00000
 Structure written by MMmdl.
 43 44  0  0  0  0  0  0  0  0  1 V2000
  146.2976  138.0818  152.4400 C   0  0  0  0  0  0  0  0  0  0  0  0
  147.0864  139.1785  153.1238 C   0  0  0  0  0  0  0  0  0  0  0  0
  146.5833  140.3154  153.4766 N   0  0  0  0  0  0  0  0  0  0  0  0
  147.4154  141.2558  154.1000 C   0  0  0  0  0  0  0  0  0  0  0  0
  146.7529  142.5700  154.4770 C   0  0  0  0  0  0  0  0  0  0  0  0
  148.7334  140.9955  154.3440 C   0  0  0  0  0  0  0  0  0  0  0  0
  149.6645  142.0026  155.0168 C   0  0  0  0  0  0  0  0  0  0  0  0
  149.9630  141.7408  156.4949 C   0  0  0  0  0  0  0  0  0  0  0  0
  149.5250  140.7305  157.0451 O   0  0  0  0  0  0  0  0  0  0  0  0
  150.7163  142.6596  157.1191 N   0  0  0  0  0  0  0  0  0  0  0  0
  151.1645  142.6030  158.5097 C   0  0  1  0  0  0  0  0  0  0  0  0
  152.0727  141.3695  158.6828 C   0  0  0  0  0  0  0  0  0  0  0  0
  152.6387  141.2752  160.1067 C   0  0  0  0  0  0  0  0  0  0  0  0
  153.3884  142.5598  160.4838 C   0  0  0  0  0  0  0  0  0  0  0  0
  152.4818  143.7905  160.3326 C   0  0  0  0  0  0  0  0  0  0  0  0
  151.9004  143.9081  158.9087 C   0  0  2  0  0  0  0  0  0  0  0  0
  151.0033  145.1539  158.7967 C   0  0  0  0  0  0  0  0  0  0  0  0
  149.2966  139.6927  153.9394 C   0  0  0  0  0  0  0  0  0  0  0  0
  150.4675  139.3554  154.1077 O   0  0  0  0  0  0  0  0  0  0  0  0
  148.4233  138.8505  153.3430 N   0  0  0  0  0  0  0  0  0  0  0  0
  148.7611  137.9472  153.0445 H   0  0  0  0  0  0  0  0  0  0  0  0
  145.8929  138.4454  151.4952 H   0  0  0  0  0  0  0  0  0  0  0  0
  145.4661  137.7678  153.0716 H   0  0  0  0  0  0  0  0  0  0  0  0
  146.9175  137.2084  152.2322 H   0  0  0  0  0  0  0  0  0  0  0  0
  146.7778  142.7155  155.5570 H   0  0  0  0  0  0  0  0  0  0  0  0
  145.7092  142.5922  154.1616 H   0  0  0  0  0  0  0  0  0  0  0  0
  147.2614  143.4085  154.0012 H   0  0  0  0  0  0  0  0  0  0  0  0
  150.6039  142.0233  154.4630 H   0  0  0  0  0  0  0  0  0  0  0  0
  149.2683  143.0145  154.9259 H   0  0  0  0  0  0  0  0  0  0  0  0
  151.0226  143.4568  156.5804 H   0  0  0  0  0  0  0  0  0  0  0  0
  150.3084  142.4771  159.1754 H   0  0  0  0  0  0  0  0  0  0  0  0
  151.5154  140.4610  158.4503 H   0  0  0  0  0  0  0  0  0  0  0  0
  152.8980  141.4148  157.9704 H   0  0  0  0  0  0  0  0  0  0  0  0
  151.8269  141.1014  160.8141 H   0  0  0  0  0  0  0  0  0  0  0  0
  153.3069  140.4173  160.1853 H   0  0  0  0  0  0  0  0  0  0  0  0
  153.7534  142.4906  161.5090 H   0  0  0  0  0  0  0  0  0  0  0  0
  154.2678  142.6720  159.8484 H   0  0  0  0  0  0  0  0  0  0  0  0
  151.6689  143.7316  161.0578 H   0  0  0  0  0  0  0  0  0  0  0  0
  153.0484  144.6891  160.5792 H   0  0  0  0  0  0  0  0  0  0  0  0
  152.7384  144.0469  158.2237 H   0  0  0  0  0  0  0  0  0  0  0  0
  150.1188  145.0612  159.4280 H   0  0  0  0  0  0  0  0  0  0  0  0
  150.6652  145.3176  157.7735 H   0  0  0  0  0  0  0  0  0  0  0  0
  151.5390  146.0519  159.1053 H   0  0  0  0  0  0  0  0  0  0  0  0
  1  2  1  0  0  0  0
  1 22  1  0  0  0  0
  1 23  1  0  0  0  0
  1 24  1  0  0  0  0
  2 20  1  0  0  0  0
  2  3  2  0  0  0  0
  3  4  1  0  0  0  0
  4  5  1  0  0  0  0
  4  6  2  0  0  0  0
  5 25  1  0  0  0  0
  5 26  1  0  0  0  0
  5 27  1  0  0  0  0
  6  7  1  0  0  0  0
  6 18  1  0  0  0  0
  7  8  1  0  0  0  0
  7 28  1  0  0  0  0
  7 29  1  0  0  0  0
  8  9  2  0  0  0  0
  8 10  1  0  0  0  0
 10 11  1  0  0  0  0
 10 30  1  0  0  0  0
 11 16  1  0  0  0  0
 11 12  1  0  0  0  0
 11 31  1  0  0  0  0
 12 13  1  0  0  0  0
 12 32  1  0  0  0  0
 12 33  1  0  0  0  0
 13 14  1  0  0  0  0
 13 34  1  0  0  0  0
 13 35  1  0  0  0  0
 14 15  1  0  0  0  0
 14 36  1  0  0  0  0
 14 37  1  0  0  0  0
 15 16  1  0  0  0  0
 15 38  1  0  0  0  0
 15 39  1  0  0  0  0
 16 17  1  0  0  0  0
 16 40  1  0  0  0  0
 17 41  1  0  0  0  0
 17 42  1  0  0  0  0
 17 43  1  0  0  0  0
 18 19  2  0  0  0  0
 18 20  1  0  0  0  0
 20 21  1  0  0  0  0
M  END
> <s_m_source_file>
AV-unprocessed.smi

> <i_m_source_file_index>
1295

> <i_lp_mmshare_version>
43012

> <i_f3d_flags>
0

> <s_epik_input>
W0NIM11jMW5jKFtDSDNdKWMoYyg9TylbbkhdMSlbQ0gyXUMoPU8pW05IXVtDQEBIXTJbQ0gyXVtDSDJdW0NIMl1bQ0gyXVtDQEhdMltDSDNd

> <s_epik_cmdline>
J2VwaWtfcHl0aG9uJywgJy1waCcsICc3LjAnLCAnLXRuJywgJzgnLCAnLW1hJywgJzIwMCcsICctbWV0YWxfYmluZGluZycsICctaW1hZScsICc8aW5maWxlLm1hZT4nLCAnLW9tYWUnLCAnPG91dGZpbGUubWFlPic=

> <r_lp_tautomer_probability>
0.839158

> <r_epik_Ionization_Penalty>
0.00037085

> <r_epik_Ionization_Penalty_Charging>
0.000336002

> <r_epik_Ionization_Penalty_Neutral>
3.48485e-05

> <r_epik_State_Penalty>
0.09125

> <r_epik_Charging_Adjusted_Penalty>
0.091586

> <i_epik_Tot_Q>
0

> <i_epik_Tot_abs_Q>
0

> <r_epik_Metal_State_Penalty>
0.251445

> <b_epik_Metal_Only>
0

> <s_lp_Force_Field>
OPLS_2005

> <r_lp_Energy>
11.9106

> <b_lp_Chiralities_Consistent>
1

> <s_lp_Variant>
AV-unprocessed.smi:1295-4

> <Gold.Version>
5.8.1

> <Gold.Id.Protein>
6NUR|6NUR_protein|mol2

> <Gold.PLP.Fitness>
47.4790

> <Gold.PLP.PLP>
-42.0321

> <Gold.PLP.part.hbond>
-3.5262

> <Gold.PLP.part.metal>
0.0000

> <Gold.PLP.part.buried>
1.5002

> <Gold.PLP.part.nonpolar>
-39.5195

> <Gold.PLP.part.repulsive>
0.4854

> <Gold.PLP.ligand.clash>
0.0000

> <Gold.PLP.ligand.torsion>
0.2787

> <Gold.PLP.Chemscore.Hbond>
2.0000

> <Gold.PLP.Chemscore.CHOScore>
0.0000

> <Gold.PLP.Chemscore.Metal>
0.0000

> <Gold.Chemscore.Hbonds>
donor molecule, donor type, donor heavy atom, donor atom, acceptor molecule, acceptor atom, score
      L1  H    20    21       P1  7948  0.89
      P1  H  7989  7998       L1    19  1.00

> <Gold.PLP.Chemscore.Internal.Correction>
0.0042

> <Gold.Rescore>
     Score         DG    S(hbond)    S(metal)    S(lipo)     H(rot)  DE(clash)    DE(int)     intcor
     18.11     -20.24       1.80        0.00     107.16       1.48       1.76       0.38       ----

> <Gold.Chemscore.Fitness>
18.1057

> <Gold.Chemscore.DG>
-20.2382

> <Gold.Chemscore.ZeroCoef>
-5.4800

> <Gold.Chemscore.Hbond>
1.7991

> <Gold.Chemscore.Metal>
0.0000

> <Gold.Chemscore.Lipo>
107.1642

> <Gold.Chemscore.Internal_Hbond>
0.0000

> <Gold.Chemscore.DEClash>
1.7566

> <Gold.Chemscore.DEInternal>
0.3759

> <Gold.Chemscore.Rot>
1.4801

> <Gold.Chemscore.Internal.Correction>
   9.000000E+99

> <Gold.Chemscore.Hbonds>
donor molecule, donor type, donor heavy atom, donor atom, acceptor molecule, acceptor atom, score
      L1  H    20    21       P1  7948  0.87
      P1  H  7989  7998       L1    19  0.63

> <Gold.Chemscore.Hbond.Weighted>
-6.0091

> <Gold.Chemscore.Metal.Weighted>
-0.0000

> <Gold.Chemscore.Lipo.Weighted>
-12.5382

> <Gold.Chemscore.Internal_Hbond.Weighted>
0.0000

> <Gold.Chemscore.DEClash.Weighted>
1.7566

> <Gold.Chemscore.DEInternal.Weighted>
0.3759

> <Gold.Chemscore.Rot.Weighted>
3.7891

> <Gold.Chemscore.Internal.Correction.Weighted>
   9.000000E+99

> <Gold.Protein.RotatedTorsions>
[ 6907 6896 6895 6894 ] final -158.29 input  -60.11 | X-H torsion
[ 7974 7965 7964 7962 ] final  150.14 input  175.53 | X-H torsion
[ 8008 7997 7996 7995 ] final -120.33 input   59.86 | X-H torsion
[ 10167 10162 10161 10158 ] final   97.17 input  -65.29 | X-H torsion
[ 10718 10713 10712 10709 ] final  153.42 input   66.30 | X-H torsion
[ 10763 10752 10751 10750 ] final  115.34 input  -60.55 | X-H torsion
[ 11005 11000 10999 10996 ] final  160.83 input  -57.11 | X-H torsion

> <Gold.Protein.ActiveResidues>
 VAL166  LYS551  ARG553  GLY616  TRP617  ASP618  TYR619  PRO620  LYS621  CYS622 
 ASP623  PHE694  ASN695  SER759  ASP760  ASP761  ALA762  ILE779  LEU786  VAL792 
 PHE793  MET794  SER795  GLU796  ALA797  LYS798  CYS799  TRP800  GLU811  SER814 

> <Gold.Protein.RotatedAtoms>
  151.3159  133.4060  159.2650 H   0  0  0  0  0  0  0  0  0  0  0  0  # atno 6907 bound_to 6896
  151.0075  134.9371  159.7999 H   0  0  0  0  0  0  0  0  0  0  0  0  # atno 6908 bound_to 6896
  152.5292  134.3124  159.9171 H   0  0  0  0  0  0  0  0  0  0  0  0  # atno 6909 bound_to 6896
  144.8386  139.6370  143.6027 H   0  0  0  0  0  0  0  0  0  0  0  0  # atno 7974 bound_to 7965
  155.1300  140.0400  157.2772 H   0  0  0  0  0  0  0  0  0  0  0  0  # atno 8008 bound_to 7997
  154.6549  140.2578  155.7146 H   0  0  0  0  0  0  0  0  0  0  0  0  # atno 8009 bound_to 7997
  156.2594  140.2828  156.0998 H   0  0  0  0  0  0  0  0  0  0  0  0  # atno 8010 bound_to 7997
  139.7825  144.6883  151.0002 H   0  0  0  0  0  0  0  0  0  0  0  0  # atno 10167 bound_to 10162
  157.2450  131.0767  151.1767 H   0  0  0  0  0  0  0  0  0  0  0  0  # atno 10718 bound_to 10713
  153.5208  135.3598  155.2631 H   0  0  0  0  0  0  0  0  0  0  0  0  # atno 10763 bound_to 10752
  154.8735  135.4045  154.3262 H   0  0  0  0  0  0  0  0  0  0  0  0  # atno 10764 bound_to 10752
  153.3932  135.7072  153.6546 H   0  0  0  0  0  0  0  0  0  0  0  0  # atno 10765 bound_to 10752
  140.2098  134.8276  157.3108 H   0  0  0  0  0  0  0  0  0  0  0  0  # atno 11005 bound_to 11000
  146.2682  139.6570  142.9315 LP  0  0  0  0  0  0  0  0  0  0  0  0  # atno 17320 bound_to 7965
  145.4742  141.0437  143.2682 LP  0  0  0  0  0  0  0  0  0  0  0  0  # atno 17321 bound_to 7965
  140.7819  143.4467  151.0472 LP  0  0  0  0  0  0  0  0  0  0  0  0  # atno 17342 bound_to 10162
  139.8147  143.7902  152.3173 LP  0  0  0  0  0  0  0  0  0  0  0  0  # atno 17343 bound_to 10162
  157.3338  130.6998  149.6340 LP  0  0  0  0  0  0  0  0  0  0  0  0  # atno 17370 bound_to 10713
  155.9668  130.4299  150.4855 LP  0  0  0  0  0  0  0  0  0  0  0  0  # atno 17371 bound_to 10713
  140.1964  134.4309  155.7687 LP  0  0  0  0  0  0  0  0  0  0  0  0  # atno 17394 bound_to 11000
  141.2226  133.7051  156.8111 LP  0  0  0  0  0  0  0  0  0  0  0  0  # atno 17395 bound_to 11000

$$$$
