AV-unprocessed.smi:703|AV-procd|sdf|3428|dock8
  -GOLD-   22720 0413D 1   1.00000     0.00000
 Structure written by MMmdl.
 38 39  0  0  0  0  0  0  0  0  2 V2000
  143.5794  137.1567  153.5527 C   0  0  0  0  0  0  0  0  0  0  0  0
  144.9656  137.2772  152.9054 C   0  0  0  0  0  0  0  0  0  0  0  0
  145.5250  138.6441  153.0273 N   0  3  1  0  0  0  0  0  0  0  0  0
  146.1015  138.9697  154.3487 C   0  0  0  0  0  0  0  0  0  0  0  0
  147.1195  140.0855  154.0980 C   0  0  2  0  0  0  0  0  0  0  0  0
  146.4655  141.4766  154.1401 C   0  0  0  0  0  0  0  0  0  0  0  0
  147.6718  139.7446  152.7074 C   0  0  1  0  0  0  0  0  0  0  0  0
  148.8651  138.9018  152.8383 N   0  0  0  0  0  0  0  0  0  0  0  0
  149.7086  138.9108  154.3436 S   0  0  0  0  0  0  0  0  0  0  0  0
  150.1957  140.2793  154.5767 O   0  0  0  0  0  0  0  0  0  0  0  0
  148.8394  138.2626  155.3369 O   0  0  0  0  0  0  0  0  0  0  0  0
  151.1552  137.8227  154.0021 C   0  0  0  0  0  0  0  0  0  0  0  0
  151.9729  137.6720  155.2523 C   0  0  0  0  0  0  0  0  0  0  0  0
  152.5494  138.6913  156.0592 C   0  0  0  0  0  0  0  0  0  0  0  0
  153.1713  137.9952  157.0552 C   0  0  0  0  0  0  0  0  0  0  0  0
  153.0004  136.6606  156.8803 O   0  0  0  0  0  0  0  0  0  0  0  0
  152.2353  136.4642  155.7251 N   0  0  0  0  0  0  0  0  0  0  0  0
  146.5372  138.9804  151.9997 C   0  0  0  0  0  0  0  0  0  0  0  0
  143.1685  136.1589  153.3976 H   0  0  0  0  0  0  0  0  0  0  0  0
  142.8793  137.8731  153.1219 H   0  0  0  0  0  0  0  0  0  0  0  0
  143.6200  137.3294  154.6284 H   0  0  0  0  0  0  0  0  0  0  0  0
  145.6541  136.5519  153.3417 H   0  0  0  0  0  0  0  0  0  0  0  0
  144.8783  137.0298  151.8466 H   0  0  0  0  0  0  0  0  0  0  0  0
  145.3316  139.2506  155.0683 H   0  0  0  0  0  0  0  0  0  0  0  0
  146.6195  138.0943  154.7438 H   0  0  0  0  0  0  0  0  0  0  0  0
  147.9030  140.0629  154.8572 H   0  0  0  0  0  0  0  0  0  0  0  0
  145.6658  141.5683  153.4044 H   0  0  0  0  0  0  0  0  0  0  0  0
  147.1974  142.2580  153.9328 H   0  0  0  0  0  0  0  0  0  0  0  0
  146.0390  141.6801  155.1228 H   0  0  0  0  0  0  0  0  0  0  0  0
  147.9467  140.6478  152.1603 H   0  0  0  0  0  0  0  0  0  0  0  0
  148.6697  137.9458  152.5410 H   0  0  0  0  0  0  0  0  0  0  0  0
  150.7887  136.8599  153.6451 H   0  0  0  0  0  0  0  0  0  0  0  0
  151.7446  138.2728  153.2037 H   0  0  0  0  0  0  0  0  0  0  0  0
  152.5089  139.7627  155.9308 H   0  0  0  0  0  0  0  0  0  0  0  0
  153.7486  138.2907  157.9187 H   0  0  0  0  0  0  0  0  0  0  0  0
  146.9064  138.0860  151.4949 H   0  0  0  0  0  0  0  0  0  0  0  0
  146.0648  139.6046  151.2407 H   0  0  0  0  0  0  0  0  0  0  0  0
  144.7644  139.2929  152.8822 H   0  0  0  0  0  0  0  0  0  0  0  0
  1  2  1  0  0  0  0
  1 19  1  0  0  0  0
  1 20  1  0  0  0  0
  1 21  1  0  0  0  0
  2  3  1  0  0  0  0
  2 22  1  0  0  0  0
  2 23  1  0  0  0  0
  3 18  1  0  0  0  0
  3  4  1  0  0  0  0
  3 38  1  0  0  0  0
  4  5  1  0  0  0  0
  4 24  1  0  0  0  0
  4 25  1  0  0  0  0
  5  6  1  0  0  0  0
  5  7  1  0  0  0  0
  5 26  1  0  0  0  0
  6 27  1  0  0  0  0
  6 28  1  0  0  0  0
  6 29  1  0  0  0  0
  7  8  1  0  0  0  0
  7 18  1  0  0  0  0
  7 30  1  0  0  0  0
  8  9  1  0  0  0  0
  8 31  1  0  0  0  0
  9 10  2  0  0  0  0
  9 11  2  0  0  0  0
  9 12  1  0  0  0  0
 12 13  1  0  0  0  0
 12 32  1  0  0  0  0
 12 33  1  0  0  0  0
 13 17  2  0  0  0  0
 13 14  1  0  0  0  0
 14 15  2  0  0  0  0
 14 34  1  0  0  0  0
 15 16  1  0  0  0  0
 15 35  1  0  0  0  0
 16 17  1  0  0  0  0
 18 36  1  0  0  0  0
 18 37  1  0  0  0  0
M  CHG  1   3   1
M  END
> <s_m_source_file>
AV-unprocessed.smi

> <i_m_source_file_index>
703

> <i_lp_mmshare_version>
43012

> <i_f3d_flags>
0

> <s_epik_input>
W0NIM11bQ0gyXU4xW0NIMl1bQ0BASF0oW0NIM10pW0NASF0oW0NIMl0xKVtOSF1TKD1PKSg9TylbQ0gyXWMyW2NIXVtjSF1vbjI=

> <s_epik_cmdline>
J2VwaWtfcHl0aG9uJywgJy1waCcsICc3LjAnLCAnLXRuJywgJzgnLCAnLW1hJywgJzIwMCcsICctbWV0YWxfYmluZGluZycsICctaW1hZScsICc8aW5maWxlLm1hZT4nLCAnLW9tYWUnLCAnPG91dGZpbGUubWFlPic=

> <r_epik_Ionization_Penalty>
0.00324529

> <r_epik_Ionization_Penalty_Charging>
0.0019384

> <r_epik_Ionization_Penalty_Neutral>
0.00130689

> <r_epik_State_Penalty>
0.00218682

> <r_epik_Charging_Adjusted_Penalty>
0.00412522

> <i_epik_Tot_Q>
1

> <i_epik_Tot_abs_Q>
1

> <r_epik_Metal_State_Penalty>
0.310831

> <b_epik_Metal_Only>
0

> <s_lp_Force_Field>
OPLS_2005

> <r_lp_Energy>
19.6453

> <b_lp_Chiralities_Consistent>
1

> <s_lp_Variant>
AV-unprocessed.smi:703-3

> <Gold.Version>
5.8.1

> <Gold.Id.Protein>
6NUR|6NUR_protein|mol2

> <Gold.PLP.Fitness>
38.3630

> <Gold.PLP.PLP>
-25.0037

> <Gold.PLP.part.hbond>
-4.4911

> <Gold.PLP.part.metal>
0.0000

> <Gold.PLP.part.buried>
1.9976

> <Gold.PLP.part.nonpolar>
-23.0530

> <Gold.PLP.part.repulsive>
0.1746

> <Gold.PLP.ligand.clash>
0.0000

> <Gold.PLP.ligand.torsion>
0.9045

> <Gold.PLP.Chemscore.Hbond>
5.0000

> <Gold.PLP.Chemscore.CHOScore>
0.0000

> <Gold.PLP.Chemscore.Metal>
0.0000

> <Gold.Chemscore.Hbonds>
donor molecule, donor type, donor heavy atom, donor atom, acceptor molecule, acceptor atom, score
      L1  H     3    38       P1 10175  2.00
      L1  H     8    31       P1  7948  1.00
      P1  H  7989  7998       L1    10  1.00
      P1  H 10752 10763       L1    17  0.89

> <Gold.PLP.Chemscore.Internal.Correction>
0.1684

> <Gold.Rescore>
     Score         DG    S(hbond)    S(metal)    S(lipo)     H(rot)  DE(clash)    DE(int)     intcor
     14.26     -20.87       3.62        0.00      70.60       1.94       3.05       3.56       ----

> <Gold.Chemscore.Fitness>
14.2625

> <Gold.Chemscore.DG>
-20.8720

> <Gold.Chemscore.ZeroCoef>
-5.4800

> <Gold.Chemscore.Hbond>
3.6222

> <Gold.Chemscore.Metal>
0.0000

> <Gold.Chemscore.Lipo>
70.6009

> <Gold.Chemscore.Internal_Hbond>
0.0000

> <Gold.Chemscore.DEClash>
3.0490

> <Gold.Chemscore.DEInternal>
3.5604

> <Gold.Chemscore.Rot>
1.9400

> <Gold.Chemscore.Internal.Correction>
   9.000000E+99

> <Gold.Chemscore.Hbonds>
donor molecule, donor type, donor heavy atom, donor atom, acceptor molecule, acceptor atom, score
      L1  H     3    38       P1 10175  1.00
      L1  H     8    31       P1  7948  0.99
      P1  H  7989  7998       L1    10  0.91
      P1  H 10752 10763       L1    17  0.29

> <Gold.Chemscore.Hbond.Weighted>
-12.0981

> <Gold.Chemscore.Metal.Weighted>
-0.0000

> <Gold.Chemscore.Lipo.Weighted>
-8.2603

> <Gold.Chemscore.Internal_Hbond.Weighted>
0.0000

> <Gold.Chemscore.DEClash.Weighted>
3.0490

> <Gold.Chemscore.DEInternal.Weighted>
3.5604

> <Gold.Chemscore.Rot.Weighted>
4.9665

> <Gold.Chemscore.Internal.Correction.Weighted>
   9.000000E+99

> <Gold.Protein.RotatedTorsions>
[ 6907 6896 6895 6894 ] final -150.85 input  -60.11 | X-H torsion
[ 7974 7965 7964 7962 ] final   68.23 input  175.53 | X-H torsion
[ 8008 7997 7996 7995 ] final -137.89 input   59.86 | X-H torsion
[ 10167 10162 10161 10158 ] final    7.12 input  -65.29 | X-H torsion
[ 10718 10713 10712 10709 ] final -164.86 input   66.30 | X-H torsion
[ 10763 10752 10751 10750 ] final   82.37 input  -60.55 | X-H torsion
[ 11005 11000 10999 10996 ] final  -70.03 input  -57.11 | X-H torsion

> <Gold.Protein.ActiveResidues>
 VAL166  LYS551  ARG553  GLY616  TRP617  ASP618  TYR619  PRO620  LYS621  CYS622 
 ASP623  PHE694  ASN695  SER759  ASP760  ASP761  ALA762  ILE779  LEU786  VAL792 
 PHE793  MET794  SER795  GLU796  ALA797  LYS798  CYS799  TRP800  GLU811  SER814 

> <Gold.Protein.RotatedAtoms>
  151.2045  133.4591  159.2596 H   0  0  0  0  0  0  0  0  0  0  0  0  # atno 6907 bound_to 6896
  151.1036  134.9986  159.8471 H   0  0  0  0  0  0  0  0  0  0  0  0  # atno 6908 bound_to 6896
  152.5445  134.1970  159.8750 H   0  0  0  0  0  0  0  0  0  0  0  0  # atno 6909 bound_to 6896
  145.8051  139.3003  143.1132 H   0  0  0  0  0  0  0  0  0  0  0  0  # atno 7974 bound_to 7965
  155.4193  140.0517  157.3026 H   0  0  0  0  0  0  0  0  0  0  0  0  # atno 8008 bound_to 7997
  154.4910  140.2120  155.9508 H   0  0  0  0  0  0  0  0  0  0  0  0  # atno 8009 bound_to 7997
  156.1342  140.3166  155.8400 H   0  0  0  0  0  0  0  0  0  0  0  0  # atno 8010 bound_to 7997
  140.6390  143.7819  150.7400 H   0  0  0  0  0  0  0  0  0  0  0  0  # atno 10167 bound_to 10162
  156.6451  130.8984  151.3003 H   0  0  0  0  0  0  0  0  0  0  0  0  # atno 10718 bound_to 10713
  153.1197  135.4731  154.9174 H   0  0  0  0  0  0  0  0  0  0  0  0  # atno 10763 bound_to 10752
  154.7563  135.3119  154.8466 H   0  0  0  0  0  0  0  0  0  0  0  0  # atno 10764 bound_to 10752
  153.9034  135.6872  153.4808 H   0  0  0  0  0  0  0  0  0  0  0  0  # atno 10765 bound_to 10752
  141.1566  133.6779  156.6690 H   0  0  0  0  0  0  0  0  0  0  0  0  # atno 11005 bound_to 11000
  145.9836  140.8662  143.0102 LP  0  0  0  0  0  0  0  0  0  0  0  0  # atno 17320 bound_to 7965
  144.6764  140.2116  143.7376 LP  0  0  0  0  0  0  0  0  0  0  0  0  # atno 17321 bound_to 7965
  140.1446  143.4410  152.2171 LP  0  0  0  0  0  0  0  0  0  0  0  0  # atno 17342 bound_to 10162
  139.5599  144.7399  151.4185 LP  0  0  0  0  0  0  0  0  0  0  0  0  # atno 17343 bound_to 10162
  157.7159  130.9496  150.1253 LP  0  0  0  0  0  0  0  0  0  0  0  0  # atno 17370 bound_to 10713
  156.2128  130.3668  149.8649 LP  0  0  0  0  0  0  0  0  0  0  0  0  # atno 17371 bound_to 10713
  140.3189  134.8024  157.4236 LP  0  0  0  0  0  0  0  0  0  0  0  0  # atno 17394 bound_to 11000
  140.1114  134.5341  155.8263 LP  0  0  0  0  0  0  0  0  0  0  0  0  # atno 17395 bound_to 11000

$$$$
