AV-unprocessed.smi:3011|AV-procd|sdf|11457|dock6
  -GOLD-   2272016393D 1   1.00000     0.00000
 Structure written by MMmdl.
 46 48  0  0  0  0  0  0  0  0  1 V2000
  154.0287  140.0657  161.4571 C   0  0  0  0  0  0  0  0  0  0  0  0
  153.2328  140.3598  160.3193 O   0  0  0  0  0  0  0  0  0  0  0  0
  152.5818  141.5756  160.2708 C   0  0  0  0  0  0  0  0  0  0  0  0
  152.6217  142.5335  161.3155 C   0  0  0  0  0  0  0  0  0  0  0  0
  151.9256  143.7500  161.1947 C   0  0  0  0  0  0  0  0  0  0  0  0
  151.1843  144.0239  160.0324 C   0  0  0  0  0  0  0  0  0  0  0  0
  151.1385  143.0811  158.9895 C   0  0  0  0  0  0  0  0  0  0  0  0
  151.8355  141.8525  159.1028 C   0  0  0  0  0  0  0  0  0  0  0  0
  151.8400  140.8837  158.1240 O   0  0  0  0  0  0  0  0  0  0  0  0
  151.3096  141.1975  156.8439 C   0  0  0  0  0  0  0  0  0  0  0  0
  151.7310  140.0905  155.8677 C   0  0  0  0  0  0  0  0  0  0  0  0
  150.5850  139.5242  155.1681 N   0  0  0  0  0  0  0  0  0  0  0  0
  150.4024  138.2538  154.7212 C   0  0  0  0  0  0  0  0  0  0  0  0
  151.4378  137.1700  154.8927 C   0  0  2  0  0  0  0  0  0  0  0  0
  150.9623  135.8234  154.3301 C   0  0  0  0  0  0  0  0  0  0  0  0
  151.7498  137.0465  156.3130 N   0  0  0  0  0  0  0  0  0  0  0  0
  152.7850  136.3486  156.7966 C   0  0  0  0  0  0  0  0  0  0  0  0
  153.5794  135.7416  156.0829 O   0  0  0  0  0  0  0  0  0  0  0  0
  149.2386  138.0231  154.1073 N   0  0  0  0  0  0  0  0  0  0  0  0
  148.6229  139.2578  154.1367 C   0  0  0  0  0  0  0  0  0  0  0  0
  147.3699  139.6712  153.6303 C   0  0  0  0  0  0  0  0  0  0  0  0
  146.9505  141.0104  153.7695 C   0  0  0  0  0  0  0  0  0  0  0  0
  147.7760  141.9526  154.4163 C   0  0  0  0  0  0  0  0  0  0  0  0
  149.0262  141.5598  154.9316 C   0  0  0  0  0  0  0  0  0  0  0  0
  149.4401  140.2213  154.7907 C   0  0  0  0  0  0  0  0  0  0  0  0
  154.4535  139.0679  161.3483 H   0  0  0  0  0  0  0  0  0  0  0  0
  153.4358  140.0728  162.3727 H   0  0  0  0  0  0  0  0  0  0  0  0
  154.8571  140.7684  161.5555 H   0  0  0  0  0  0  0  0  0  0  0  0
  153.1802  142.3580  162.2222 H   0  0  0  0  0  0  0  0  0  0  0  0
  151.9612  144.4739  161.9955 H   0  0  0  0  0  0  0  0  0  0  0  0
  150.6507  144.9583  159.9396 H   0  0  0  0  0  0  0  0  0  0  0  0
  150.5646  143.3247  158.1085 H   0  0  0  0  0  0  0  0  0  0  0  0
  150.2211  141.2561  156.8862 H   0  0  0  0  0  0  0  0  0  0  0  0
  151.6883  142.1608  156.5004 H   0  0  0  0  0  0  0  0  0  0  0  0
  152.4641  140.4529  155.1476 H   0  0  0  0  0  0  0  0  0  0  0  0
  152.2294  139.2915  156.4170 H   0  0  0  0  0  0  0  0  0  0  0  0
  152.3536  137.4303  154.3642 H   0  0  0  0  0  0  0  0  0  0  0  0
  150.7329  135.9042  153.2673 H   0  0  0  0  0  0  0  0  0  0  0  0
  150.0629  135.4731  154.8379 H   0  0  0  0  0  0  0  0  0  0  0  0
  151.7294  135.0570  154.4451 H   0  0  0  0  0  0  0  0  0  0  0  0
  151.1570  137.5425  156.9629 H   0  0  0  0  0  0  0  0  0  0  0  0
  152.8313  136.3908  157.8965 H   0  0  0  0  0  0  0  0  0  0  0  0
  146.7323  138.9574  153.1301 H   0  0  0  0  0  0  0  0  0  0  0  0
  145.9923  141.3167  153.3762 H   0  0  0  0  0  0  0  0  0  0  0  0
  147.4498  142.9774  154.5162 H   0  0  0  0  0  0  0  0  0  0  0  0
  149.6617  142.2814  155.4227 H   0  0  0  0  0  0  0  0  0  0  0  0
  1  2  1  0  0  0  0
  1 26  1  0  0  0  0
  1 27  1  0  0  0  0
  1 28  1  0  0  0  0
  2  3  1  0  0  0  0
  3  8  1  0  0  0  0
  3  4  2  0  0  0  0
  4  5  1  0  0  0  0
  4 29  1  0  0  0  0
  5  6  2  0  0  0  0
  5 30  1  0  0  0  0
  6  7  1  0  0  0  0
  6 31  1  0  0  0  0
  7  8  2  0  0  0  0
  7 32  1  0  0  0  0
  8  9  1  0  0  0  0
  9 10  1  0  0  0  0
 10 11  1  0  0  0  0
 10 33  1  0  0  0  0
 10 34  1  0  0  0  0
 11 12  1  0  0  0  0
 11 35  1  0  0  0  0
 11 36  1  0  0  0  0
 12 25  1  0  0  0  0
 12 13  1  0  0  0  0
 13 14  1  0  0  0  0
 13 19  2  0  0  0  0
 14 15  1  0  0  0  0
 14 16  1  0  0  0  0
 14 37  1  0  0  0  0
 15 38  1  0  0  0  0
 15 39  1  0  0  0  0
 15 40  1  0  0  0  0
 16 17  1  0  0  0  0
 16 41  1  0  0  0  0
 17 18  2  0  0  0  0
 17 42  1  0  0  0  0
 19 20  1  0  0  0  0
 20 25  2  0  0  0  0
 20 21  1  0  0  0  0
 21 22  2  0  0  0  0
 21 43  1  0  0  0  0
 22 23  1  0  0  0  0
 22 44  1  0  0  0  0
 23 24  2  0  0  0  0
 23 45  1  0  0  0  0
 24 25  1  0  0  0  0
 24 46  1  0  0  0  0
M  END
> <s_m_source_file>
AV-unprocessed.smi

> <i_m_source_file_index>
3011

> <i_lp_mmshare_version>
43012

> <i_f3d_flags>
0

> <s_epik_input>
W0NIM11PYzFbY0hdW2NIXVtjSF1bY0hdYzFPW0NIMl1bQ0gyXW4oYyhuMilbQ0BIXShbQ0gzXSlbTkhdW0NIXT1PKWMoYzIzKVtjSF1bY0hdW2NIXVtjSF0z

> <s_epik_cmdline>
J2VwaWtfcHl0aG9uJywgJy1waCcsICc3LjAnLCAnLXRuJywgJzgnLCAnLW1hJywgJzIwMCcsICctbWV0YWxfYmluZGluZycsICctaW1hZScsICc8aW5maWxlLm1hZT4nLCAnLW9tYWUnLCAnPG91dGZpbGUubWFlPic=

> <r_lp_tautomer_probability>
1

> <r_epik_Ionization_Penalty>
0.0924205

> <r_epik_Ionization_Penalty_Charging>
0

> <r_epik_Ionization_Penalty_Neutral>
0.0924205

> <r_epik_State_Penalty>
0.0827154

> <r_epik_Charging_Adjusted_Penalty>
0.0827154

> <i_epik_Tot_Q>
0

> <i_epik_Tot_abs_Q>
0

> <r_epik_Metal_State_Penalty>
0.071464

> <b_epik_Metal_Only>
0

> <s_lp_Force_Field>
OPLS_2005

> <r_lp_Energy>
15.3464

> <b_lp_Chiralities_Consistent>
1

> <s_lp_Variant>
AV-unprocessed.smi:3011-1

> <Gold.Version>
5.8.1

> <Gold.Id.Protein>
6NUR|6NUR_protein|mol2

> <Gold.PLP.Fitness>
53.2904

> <Gold.PLP.PLP>
-52.1354

> <Gold.PLP.part.hbond>
-1.0000

> <Gold.PLP.part.metal>
0.0000

> <Gold.PLP.part.buried>
-5.7288

> <Gold.PLP.part.nonpolar>
-46.0786

> <Gold.PLP.part.repulsive>
0.5500

> <Gold.PLP.ligand.clash>
0.0000

> <Gold.PLP.ligand.torsion>
1.0064

> <Gold.PLP.Chemscore.Hbond>
1.0000

> <Gold.PLP.Chemscore.CHOScore>
0.0000

> <Gold.PLP.Chemscore.Metal>
0.0000

> <Gold.PLP.Chemscore.Internal.Correction>
0.1679

> <Gold.Rescore>
     Score         DG    S(hbond)    S(metal)    S(lipo)     H(rot)  DE(clash)    DE(int)     intcor
     17.74     -18.65       0.99        0.00     141.03       2.59       0.11       0.80       ----

> <Gold.Chemscore.Fitness>
17.7381

> <Gold.Chemscore.DG>
-18.6483

> <Gold.Chemscore.ZeroCoef>
-5.4800

> <Gold.Chemscore.Hbond>
0.9886

> <Gold.Chemscore.Metal>
0.0000

> <Gold.Chemscore.Lipo>
141.0292

> <Gold.Chemscore.Internal_Hbond>
0.0000

> <Gold.Chemscore.DEClash>
0.1080

> <Gold.Chemscore.DEInternal>
0.8022

> <Gold.Chemscore.Rot>
2.5914

> <Gold.Chemscore.Internal.Correction>
   9.000000E+99

> <Gold.Chemscore.Hbond.Weighted>
-3.3019

> <Gold.Chemscore.Metal.Weighted>
-0.0000

> <Gold.Chemscore.Lipo.Weighted>
-16.5004

> <Gold.Chemscore.Internal_Hbond.Weighted>
0.0000

> <Gold.Chemscore.DEClash.Weighted>
0.1080

> <Gold.Chemscore.DEInternal.Weighted>
0.8022

> <Gold.Chemscore.Rot.Weighted>
6.6340

> <Gold.Chemscore.Internal.Correction.Weighted>
   9.000000E+99

> <Gold.Protein.RotatedTorsions>
[ 6907 6896 6895 6894 ] final  103.80 input  -60.11 | X-H torsion
[ 7974 7965 7964 7962 ] final -138.87 input  175.53 | X-H torsion
[ 8008 7997 7996 7995 ] final -106.32 input   59.86 | X-H torsion
[ 10167 10162 10161 10158 ] final  120.37 input  -65.29 | X-H torsion
[ 10718 10713 10712 10709 ] final  172.86 input   66.30 | X-H torsion
[ 10763 10752 10751 10750 ] final    8.16 input  -60.55 | X-H torsion
[ 11005 11000 10999 10996 ] final -137.36 input  -57.11 | X-H torsion

> <Gold.Protein.ActiveResidues>
 VAL166  LYS551  ARG553  GLY616  TRP617  ASP618  TYR619  PRO620  LYS621  CYS622 
 ASP623  PHE694  ASN695  SER759  ASP760  ASP761  ALA762  ILE779  LEU786  VAL792 
 PHE793  MET794  SER795  GLU796  ALA797  LYS798  CYS799  TRP800  GLU811  SER814 

> <Gold.Protein.RotatedAtoms>
  152.5284  133.9771  159.7788 H   0  0  0  0  0  0  0  0  0  0  0  0  # atno 6907 bound_to 6896
  151.0032  133.6028  159.2699 H   0  0  0  0  0  0  0  0  0  0  0  0  # atno 6908 bound_to 6896
  151.3130  135.0805  159.9332 H   0  0  0  0  0  0  0  0  0  0  0  0  # atno 6909 bound_to 6896
  144.8723  140.6384  143.5259 H   0  0  0  0  0  0  0  0  0  0  0  0  # atno 7974 bound_to 7965
  154.9128  140.0409  157.1956 H   0  0  0  0  0  0  0  0  0  0  0  0  # atno 8008 bound_to 7997
  154.8331  140.2902  155.5688 H   0  0  0  0  0  0  0  0  0  0  0  0  # atno 8009 bound_to 7997
  156.2988  140.2497  156.3259 H   0  0  0  0  0  0  0  0  0  0  0  0  # atno 8010 bound_to 7997
  139.5986  144.7050  151.3116 H   0  0  0  0  0  0  0  0  0  0  0  0  # atno 10167 bound_to 10162
  156.9727  131.0095  151.2901 H   0  0  0  0  0  0  0  0  0  0  0  0  # atno 10718 bound_to 10713
  153.2281  135.6889  153.7921 H   0  0  0  0  0  0  0  0  0  0  0  0  # atno 10763 bound_to 10752
  153.7096  135.3284  155.3244 H   0  0  0  0  0  0  0  0  0  0  0  0  # atno 10764 bound_to 10752
  154.8301  135.4587  154.1156 H   0  0  0  0  0  0  0  0  0  0  0  0  # atno 10765 bound_to 10752
  140.8718  134.2041  157.4646 H   0  0  0  0  0  0  0  0  0  0  0  0  # atno 11005 bound_to 11000
  145.4108  139.1580  143.4127 LP  0  0  0  0  0  0  0  0  0  0  0  0  # atno 17320 bound_to 7965
  146.2938  140.4212  142.8729 LP  0  0  0  0  0  0  0  0  0  0  0  0  # atno 17321 bound_to 7965
  140.7232  143.7078  150.7793 LP  0  0  0  0  0  0  0  0  0  0  0  0  # atno 17342 bound_to 10162
  140.0650  143.5118  152.2609 LP  0  0  0  0  0  0  0  0  0  0  0  0  # atno 17343 bound_to 10162
  157.5581  130.8227  149.8230 LP  0  0  0  0  0  0  0  0  0  0  0  0  # atno 17370 bound_to 10713
  156.0276  130.3774  150.1779 LP  0  0  0  0  0  0  0  0  0  0  0  0  # atno 17371 bound_to 10713
  139.8712  134.9777  156.4971 LP  0  0  0  0  0  0  0  0  0  0  0  0  # atno 17394 bound_to 11000
  140.8564  133.8092  155.9221 LP  0  0  0  0  0  0  0  0  0  0  0  0  # atno 17395 bound_to 11000

$$$$
