AV-unprocessed.smi:1803|AV-procd|sdf|7292|dock3
  -GOLD-   22720 8543D 1   1.00000     0.00000
 Structure written by MMmdl.
 35 37  0  0  0  0  0  0  0  0  3 V2000
  149.1621  135.0295  158.1502 O   0  0  0  0  0  0  0  0  0  0  0  0
  148.9185  136.2352  158.1730 C   0  0  0  0  0  0  0  0  0  0  0  0
  148.6549  136.9240  159.3138 N   0  5  0  0  0  0  0  0  0  0  0  0
  148.1058  136.3469  160.3991 C   0  0  0  0  0  0  0  0  0  0  0  0
  147.8172  137.0365  161.5147 N   0  0  0  0  0  0  0  0  0  0  0  0
  147.2654  136.2484  162.5156 N   0  0  0  0  0  0  0  0  0  0  0  0
  147.1410  134.9808  162.1234 C   0  0  0  0  0  0  0  0  0  0  0  0
  147.6935  134.6332  160.4986 S   0  0  0  0  0  0  0  0  0  0  0  0
  148.9083  136.9176  157.0128 N   0  0  0  0  0  0  0  0  0  0  0  0
  149.1704  136.3608  155.6916 C   0  0  1  0  0  0  0  0  0  0  0  0
  150.3774  135.4043  155.6407 C   0  0  0  0  0  0  0  0  0  0  0  0
  149.9600  134.2727  154.6808 C   0  0  0  0  0  0  0  0  0  0  0  0
  148.6344  134.6671  154.1662 N   0  3  1  0  0  0  0  0  0  0  0  0
  147.7484  133.5870  153.6798 C   0  0  0  0  0  0  0  0  0  0  0  0
  146.4520  134.2059  153.1182 C   0  0  0  0  0  0  0  0  0  0  0  0
  145.7760  135.1459  154.1381 C   0  0  0  0  0  0  0  0  0  0  0  0
  146.7725  136.1910  154.6763 C   0  0  0  0  0  0  0  0  0  0  0  0
  148.0167  135.4759  155.2268 C   0  0  2  0  0  0  0  0  0  0  0  0
  146.7217  134.2462  162.7945 H   0  0  0  0  0  0  0  0  0  0  0  0
  148.6992  137.9042  157.0593 H   0  0  0  0  0  0  0  0  0  0  0  0
  149.3157  137.1677  154.9703 H   0  0  0  0  0  0  0  0  0  0  0  0
  151.2728  135.9221  155.2955 H   0  0  0  0  0  0  0  0  0  0  0  0
  150.5983  134.9903  156.6258 H   0  0  0  0  0  0  0  0  0  0  0  0
  150.6681  134.1381  153.8629 H   0  0  0  0  0  0  0  0  0  0  0  0
  149.8871  133.3298  155.2251 H   0  0  0  0  0  0  0  0  0  0  0  0
  148.2597  133.0148  152.9051 H   0  0  0  0  0  0  0  0  0  0  0  0
  147.5209  132.8979  154.4946 H   0  0  0  0  0  0  0  0  0  0  0  0
  146.6843  134.7684  152.2128 H   0  0  0  0  0  0  0  0  0  0  0  0
  145.7598  133.4177  152.8209 H   0  0  0  0  0  0  0  0  0  0  0  0
  144.9199  135.6435  153.6816 H   0  0  0  0  0  0  0  0  0  0  0  0
  145.3846  134.5573  154.9689 H   0  0  0  0  0  0  0  0  0  0  0  0
  147.0553  136.8792  153.8788 H   0  0  0  0  0  0  0  0  0  0  0  0
  146.3039  136.7906  155.4574 H   0  0  0  0  0  0  0  0  0  0  0  0
  147.7227  134.8117  156.0433 H   0  0  0  0  0  0  0  0  0  0  0  0
  148.8020  135.2939  153.3922 H   0  0  0  0  0  0  0  0  0  0  0  0
  1  2  2  0  0  0  0
  2  3  1  0  0  0  0
  2  9  1  0  0  0  0
  3  4  1  0  0  0  0
  4  8  1  0  0  0  0
  4  5  2  0  0  0  0
  5  6  1  0  0  0  0
  6  7  2  0  0  0  0
  7  8  1  0  0  0  0
  7 19  1  0  0  0  0
  9 10  1  0  0  0  0
  9 20  1  0  0  0  0
 10 18  1  0  0  0  0
 10 11  1  0  0  0  0
 10 21  1  0  0  0  0
 11 12  1  0  0  0  0
 11 22  1  0  0  0  0
 11 23  1  0  0  0  0
 12 13  1  0  0  0  0
 12 24  1  0  0  0  0
 12 25  1  0  0  0  0
 13 18  1  0  0  0  0
 13 14  1  0  0  0  0
 13 35  1  0  0  0  0
 14 15  1  0  0  0  0
 14 26  1  0  0  0  0
 14 27  1  0  0  0  0
 15 16  1  0  0  0  0
 15 28  1  0  0  0  0
 15 29  1  0  0  0  0
 16 17  1  0  0  0  0
 16 30  1  0  0  0  0
 16 31  1  0  0  0  0
 17 18  1  0  0  0  0
 17 32  1  0  0  0  0
 17 33  1  0  0  0  0
 18 34  1  0  0  0  0
M  CHG  1   3  -1
M  CHG  1  13   1
M  END
> <s_m_source_file>
AV-unprocessed.smi

> <i_m_source_file_index>
1803

> <i_lp_mmshare_version>
43012

> <i_f3d_flags>
0

> <s_epik_input>
czFbY0hdbm5jMVtOSF1DKD1PKVtOSF1bQ0BIXShbQ0gyXVtDSDJdMilbQ0BASF0oTjIzKVtDSDJdW0NIMl1bQ0gyXVtDSDJdMw==

> <s_epik_cmdline>
J2VwaWtfcHl0aG9uJywgJy1waCcsICc3LjAnLCAnLXRuJywgJzgnLCAnLW1hJywgJzIwMCcsICctbWV0YWxfYmluZGluZycsICctaW1hZScsICc8aW5maWxlLm1hZT4nLCAnLW9tYWUnLCAnPG91dGZpbGUubWFlPic=

> <r_lp_tautomer_probability>
1

> <r_epik_Ionization_Penalty>
3.78828

> <r_epik_Ionization_Penalty_Charging>
3.7591

> <r_epik_Ionization_Penalty_Neutral>
0.0291838

> <r_epik_State_Penalty>
3.757

> <r_epik_Charging_Adjusted_Penalty>
7.51609

> <i_epik_Tot_Q>
0

> <i_epik_Tot_abs_Q>
2

> <r_epik_Metal_State_Penalty>
0.558016

> <b_epik_Metal_Only>
1

> <s_lp_Force_Field>
OPLS_2005

> <r_lp_Energy>
28.5802

> <b_lp_Chiralities_Consistent>
1

> <s_lp_Variant>
AV-unprocessed.smi:1803-14

> <Gold.Version>
5.8.1

> <Gold.Id.Protein>
6NUR|6NUR_protein|mol2

> <Gold.PLP.Fitness>
37.3296

> <Gold.PLP.PLP>
-23.4514

> <Gold.PLP.part.hbond>
-4.0000

> <Gold.PLP.part.metal>
0.0000

> <Gold.PLP.part.buried>
-4.9032

> <Gold.PLP.part.nonpolar>
-14.3419

> <Gold.PLP.part.repulsive>
0.0069

> <Gold.PLP.ligand.clash>
0.0000

> <Gold.PLP.ligand.torsion>
0.3314

> <Gold.PLP.Chemscore.Hbond>
4.8400

> <Gold.PLP.Chemscore.CHOScore>
0.0000

> <Gold.PLP.Chemscore.Metal>
0.0000

> <Gold.Chemscore.Hbonds>
donor molecule, donor type, donor heavy atom, donor atom, acceptor molecule, acceptor atom, score
      L1  H    13    35       P1  7948  2.00
      P1  H  6896  6907       L1     1  0.84
      P1  H  6931  6943       L1     5  1.00
      P1  H  6934  6947       L1     5  0.51

> <Gold.PLP.Chemscore.Internal.Correction>
0.0210

> <Gold.Rescore>
     Score         DG    S(hbond)    S(metal)    S(lipo)     H(rot)  DE(clash)    DE(int)     intcor
     14.25     -17.45       2.91        0.00      40.98       1.00       0.10       3.10       ----

> <Gold.Chemscore.Fitness>
14.2485

> <Gold.Chemscore.DG>
-17.4470

> <Gold.Chemscore.ZeroCoef>
-5.4800

> <Gold.Chemscore.Hbond>
2.9140

> <Gold.Chemscore.Metal>
0.0000

> <Gold.Chemscore.Lipo>
40.9781

> <Gold.Chemscore.Internal_Hbond>
0.0000

> <Gold.Chemscore.DEClash>
0.0982

> <Gold.Chemscore.DEInternal>
3.1003

> <Gold.Chemscore.Rot>
1.0000

> <Gold.Chemscore.Internal.Correction>
   9.000000E+99

> <Gold.Chemscore.Hbonds>
donor molecule, donor type, donor heavy atom, donor atom, acceptor molecule, acceptor atom, score
      L1  H    13    35       P1  7948  0.74
      P1  H  6896  6907       L1     1  0.69
      P1  H  6931  6943       L1     5  0.82
      P1  H  6934  6947       L1     5  0.36

> <Gold.Chemscore.Hbond.Weighted>
-9.7326

> <Gold.Chemscore.Metal.Weighted>
-0.0000

> <Gold.Chemscore.Lipo.Weighted>
-4.7944

> <Gold.Chemscore.Internal_Hbond.Weighted>
0.0000

> <Gold.Chemscore.DEClash.Weighted>
0.0982

> <Gold.Chemscore.DEInternal.Weighted>
3.1003

> <Gold.Chemscore.Rot.Weighted>
2.5600

> <Gold.Chemscore.Internal.Correction.Weighted>
   9.000000E+99

> <Gold.Protein.RotatedTorsions>
[ 6907 6896 6895 6894 ] final  -73.39 input  -60.11 | X-H torsion
[ 7974 7965 7964 7962 ] final  171.34 input  175.53 | X-H torsion
[ 8008 7997 7996 7995 ] final  136.78 input   59.86 | X-H torsion
[ 10167 10162 10161 10158 ] final -148.65 input  -65.29 | X-H torsion
[ 10718 10713 10712 10709 ] final   -1.86 input   66.30 | X-H torsion
[ 10763 10752 10751 10750 ] final   88.88 input  -60.55 | X-H torsion
[ 11005 11000 10999 10996 ] final  -94.78 input  -57.11 | X-H torsion

> <Gold.Protein.ActiveResidues>
 VAL166  LYS551  ARG553  GLY616  TRP617  ASP618  TYR619  PRO620  LYS621  CYS622 
 ASP623  PHE694  ASN695  SER759  ASP760  ASP761  ALA762  ILE779  LEU786  VAL792 
 PHE793  MET794  SER795  GLU796  ALA797  LYS798  CYS799  TRP800  GLU811  SER814 

> <Gold.Protein.RotatedAtoms>
  150.7132  134.5023  159.5567 H   0  0  0  0  0  0  0  0  0  0  0  0  # atno 6907 bound_to 6896
  152.2618  134.8023  160.0438 H   0  0  0  0  0  0  0  0  0  0  0  0  # atno 6908 bound_to 6896
  151.8734  133.3445  159.3779 H   0  0  0  0  0  0  0  0  0  0  0  0  # atno 6909 bound_to 6896
  144.7297  139.9336  143.6425 H   0  0  0  0  0  0  0  0  0  0  0  0  # atno 7974 bound_to 7965
  156.3003  140.2436  156.3801 H   0  0  0  0  0  0  0  0  0  0  0  0  # atno 8008 bound_to 7997
  154.8709  140.0416  157.1743 H   0  0  0  0  0  0  0  0  0  0  0  0  # atno 8009 bound_to 7997
  154.8797  140.2947  155.5436 H   0  0  0  0  0  0  0  0  0  0  0  0  # atno 8010 bound_to 7997
  139.7513  143.8514  152.2587 H   0  0  0  0  0  0  0  0  0  0  0  0  # atno 10167 bound_to 10162
  156.7993  130.5387  149.5724 H   0  0  0  0  0  0  0  0  0  0  0  0  # atno 10718 bound_to 10713
  153.1813  135.4491  155.0032 H   0  0  0  0  0  0  0  0  0  0  0  0  # atno 10763 bound_to 10752
  154.8032  135.3264  154.7501 H   0  0  0  0  0  0  0  0  0  0  0  0  # atno 10764 bound_to 10752
  153.7965  135.6966  153.4918 H   0  0  0  0  0  0  0  0  0  0  0  0  # atno 10765 bound_to 10752
  141.1461  133.7980  157.0345 H   0  0  0  0  0  0  0  0  0  0  0  0  # atno 11005 bound_to 11000
  146.0838  139.3827  143.0448 LP  0  0  0  0  0  0  0  0  0  0  0  0  # atno 17320 bound_to 7965
  145.7804  140.9859  143.1102 LP  0  0  0  0  0  0  0  0  0  0  0  0  # atno 17321 bound_to 7965
  139.8493  144.7172  150.9234 LP  0  0  0  0  0  0  0  0  0  0  0  0  # atno 17342 bound_to 10162
  140.7798  143.3913  151.1305 LP  0  0  0  0  0  0  0  0  0  0  0  0  # atno 17343 bound_to 10162
  156.1111  130.6041  151.0048 LP  0  0  0  0  0  0  0  0  0  0  0  0  # atno 17370 bound_to 10713
  157.6562  131.0889  150.7942 LP  0  0  0  0  0  0  0  0  0  0  0  0  # atno 17371 bound_to 10713
  140.0733  134.9690  157.1503 LP  0  0  0  0  0  0  0  0  0  0  0  0  # atno 17394 bound_to 11000
  140.3680  134.2421  155.7180 LP  0  0  0  0  0  0  0  0  0  0  0  0  # atno 17395 bound_to 11000

$$$$
