AV-unprocessed.smi:514|AV-procd|sdf|2779|dock8
  -GOLD-   2262023253D 1   1.00000     0.00000
 Structure written by MMmdl.
 44 46  0  0  0  0  0  0  0  0  2 V2000
  150.8702  134.3700  156.2370 C   0  0  0  0  0  0  0  0  0  0  0  0
  150.4263  134.9589  154.8906 C   0  0  0  0  0  0  0  0  0  0  0  0
  150.9976  136.2396  154.6628 O   0  0  0  0  0  0  0  0  0  0  0  0
  150.3057  137.3058  155.2951 C   0  0  0  0  0  0  0  0  0  0  0  0
  150.5590  138.5953  154.4976 C   0  0  0  0  0  0  0  0  0  0  0  0
  150.6253  139.7730  155.3585 N   0  0  0  0  0  0  0  0  0  0  0  0
  149.8551  140.8994  155.3326 C   0  0  0  0  0  0  0  0  0  0  0  0
  148.8301  141.1179  154.4023 N   0  0  0  0  0  0  0  0  0  0  0  0
  147.9924  142.3164  154.3816 C   0  0  0  0  0  0  0  0  0  0  0  0
  146.4972  141.9479  154.3089 C   0  0  0  0  0  0  0  0  0  0  0  0
  146.2313  141.2057  153.0820 N   0  0  0  0  0  0  0  0  0  0  0  0
  147.0466  139.9967  153.0896 C   0  0  0  0  0  0  0  0  0  0  0  0
  148.5368  140.3823  153.1713 C   0  0  0  0  0  0  0  0  0  0  0  0
  150.1344  141.7745  156.3020 N   0  0  0  0  0  0  0  0  0  0  0  0
  151.1762  141.1727  156.9875 C   0  0  0  0  0  0  0  0  0  0  0  0
  151.4830  139.9635  156.4486 C   0  0  0  0  0  0  0  0  0  0  0  0
  152.5308  139.0672  156.9888 C   0  0  0  0  0  0  0  0  0  0  0  0
  152.7597  137.9740  156.4755 O   0  0  0  0  0  0  0  0  0  0  0  0
  153.1608  139.6057  158.0806 N   0  5  0  0  0  0  0  0  0  0  0  0
  152.8842  140.8278  158.6546 C   0  0  0  0  0  0  0  0  0  0  0  0
  153.4951  141.2346  159.6438 O   0  0  0  0  0  0  0  0  0  0  0  0
  151.9036  141.6229  158.1226 N   0  0  0  0  0  0  0  0  0  0  0  0
  151.5877  142.9284  158.7096 C   0  0  0  0  0  0  0  0  0  0  0  0
  150.5003  133.3510  156.3511 H   0  0  0  0  0  0  0  0  0  0  0  0
  150.4931  134.9488  157.0794 H   0  0  0  0  0  0  0  0  0  0  0  0
  151.9575  134.3392  156.3098 H   0  0  0  0  0  0  0  0  0  0  0  0
  150.7683  134.3019  154.0910 H   0  0  0  0  0  0  0  0  0  0  0  0
  149.3386  134.9958  154.8161 H   0  0  0  0  0  0  0  0  0  0  0  0
  149.2395  137.0834  155.3359 H   0  0  0  0  0  0  0  0  0  0  0  0
  150.6400  137.4236  156.3246 H   0  0  0  0  0  0  0  0  0  0  0  0
  151.4760  138.5162  153.9182 H   0  0  0  0  0  0  0  0  0  0  0  0
  149.7757  138.7418  153.7546 H   0  0  0  0  0  0  0  0  0  0  0  0
  148.1681  142.9044  155.2828 H   0  0  0  0  0  0  0  0  0  0  0  0
  148.2755  142.9490  153.5391 H   0  0  0  0  0  0  0  0  0  0  0  0
  146.2025  141.3549  155.1759 H   0  0  0  0  0  0  0  0  0  0  0  0
  145.8871  142.8511  154.3141 H   0  0  0  0  0  0  0  0  0  0  0  0
  145.2535  140.9563  153.0411 H   0  0  0  0  0  0  0  0  0  0  0  0
  146.7596  139.3572  153.9253 H   0  0  0  0  0  0  0  0  0  0  0  0
  146.8537  139.4360  152.1750 H   0  0  0  0  0  0  0  0  0  0  0  0
  148.8076  141.0022  152.3153 H   0  0  0  0  0  0  0  0  0  0  0  0
  149.1550  139.4941  153.0900 H   0  0  0  0  0  0  0  0  0  0  0  0
  151.1730  142.8032  159.7105 H   0  0  0  0  0  0  0  0  0  0  0  0
  150.8629  143.4891  158.1202 H   0  0  0  0  0  0  0  0  0  0  0  0
  152.4844  143.5451  158.7857 H   0  0  0  0  0  0  0  0  0  0  0  0
  1  2  1  0  0  0  0
  1 24  1  0  0  0  0
  1 25  1  0  0  0  0
  1 26  1  0  0  0  0
  2  3  1  0  0  0  0
  2 27  1  0  0  0  0
  2 28  1  0  0  0  0
  3  4  1  0  0  0  0
  4  5  1  0  0  0  0
  4 29  1  0  0  0  0
  4 30  1  0  0  0  0
  5  6  1  0  0  0  0
  5 31  1  0  0  0  0
  5 32  1  0  0  0  0
  6 16  1  0  0  0  0
  6  7  1  0  0  0  0
  7  8  1  0  0  0  0
  7 14  2  0  0  0  0
  8 13  1  0  0  0  0
  8  9  1  0  0  0  0
  9 10  1  0  0  0  0
  9 33  1  0  0  0  0
  9 34  1  0  0  0  0
 10 11  1  0  0  0  0
 10 35  1  0  0  0  0
 10 36  1  0  0  0  0
 11 12  1  0  0  0  0
 11 37  1  0  0  0  0
 12 13  1  0  0  0  0
 12 38  1  0  0  0  0
 12 39  1  0  0  0  0
 13 40  1  0  0  0  0
 13 41  1  0  0  0  0
 14 15  1  0  0  0  0
 15 22  1  0  0  0  0
 15 16  2  0  0  0  0
 16 17  1  0  0  0  0
 17 18  2  0  0  0  0
 17 19  1  0  0  0  0
 19 20  1  0  0  0  0
 20 21  2  0  0  0  0
 20 22  1  0  0  0  0
 22 23  1  0  0  0  0
 23 42  1  0  0  0  0
 23 43  1  0  0  0  0
 23 44  1  0  0  0  0
M  CHG  1  19  -1
M  END
> <s_m_source_file>
AV-unprocessed.smi

> <i_m_source_file_index>
514

> <i_lp_mmshare_version>
43012

> <i_f3d_flags>
0

> <s_epik_input>
W0NIM11uMWMoPU8pW25IXWMoPU8pYyhjMTIpbihbQ0gyXVtDSDJdT1tDSDJdW0NIM10pYyhuMilOM1tDSDJdW0NIMl1bTkhdW0NIMl1bQ0gyXTM=

> <s_epik_cmdline>
J2VwaWtfcHl0aG9uJywgJy1waCcsICc3LjAnLCAnLXRuJywgJzgnLCAnLW1hJywgJzIwMCcsICctbWV0YWxfYmluZGluZycsICctaW1hZScsICc8aW5maWxlLm1hZT4nLCAnLW9tYWUnLCAnPG91dGZpbGUubWFlPic=

> <r_epik_Ionization_Penalty>
8.82895

> <r_epik_Ionization_Penalty_Charging>
0.0771612

> <r_epik_Ionization_Penalty_Neutral>
8.75178

> <r_epik_State_Penalty>
8.91747

> <r_epik_Charging_Adjusted_Penalty>
8.99464

> <i_epik_Tot_Q>
-1

> <i_epik_Tot_abs_Q>
1

> <r_epik_Metal_State_Penalty>
4.86816

> <b_epik_Metal_Only>
1

> <s_lp_Force_Field>
OPLS_2005

> <r_lp_Energy>
52.9187

> <b_lp_Chiralities_Consistent>
1

> <s_lp_Variant>
AV-unprocessed.smi:514-4

> <Gold.Version>
5.8.1

> <Gold.Id.Protein>
6NUR|6NUR_protein|mol2

> <Gold.PLP.Fitness>
43.7528

> <Gold.PLP.PLP>
-34.3018

> <Gold.PLP.part.hbond>
-2.9769

> <Gold.PLP.part.metal>
0.0000

> <Gold.PLP.part.buried>
4.8054

> <Gold.PLP.part.nonpolar>
-36.0392

> <Gold.PLP.part.repulsive>
0.2811

> <Gold.PLP.ligand.clash>
0.0000

> <Gold.PLP.ligand.torsion>
0.5344

> <Gold.PLP.Chemscore.Hbond>
3.4811

> <Gold.PLP.Chemscore.CHOScore>
0.0000

> <Gold.PLP.Chemscore.Metal>
0.0000

> <Gold.Chemscore.Hbonds>
donor molecule, donor type, donor heavy atom, donor atom, acceptor molecule, acceptor atom, score
      L1  H    11    37       P1 10175  1.00
      P1  H  7997  8009       L1    19  1.63
      P1  H 10752 10765       L1     3  0.85

> <Gold.PLP.Chemscore.Internal.Correction>
0.0767

> <Gold.Rescore>
     Score         DG    S(hbond)    S(metal)    S(lipo)     H(rot)  DE(clash)    DE(int)     intcor
      9.95     -14.68       1.71        0.00      66.88       1.70       2.04       2.69       ----

> <Gold.Chemscore.Fitness>
9.9509

> <Gold.Chemscore.DG>
-14.6834

> <Gold.Chemscore.ZeroCoef>
-5.4800

> <Gold.Chemscore.Hbond>
1.7120

> <Gold.Chemscore.Metal>
0.0000

> <Gold.Chemscore.Lipo>
66.8816

> <Gold.Chemscore.Internal_Hbond>
0.0000

> <Gold.Chemscore.DEClash>
2.0439

> <Gold.Chemscore.DEInternal>
2.6886

> <Gold.Chemscore.Rot>
1.6953

> <Gold.Chemscore.Internal.Correction>
   9.000000E+99

> <Gold.Chemscore.Hbonds>
donor molecule, donor type, donor heavy atom, donor atom, acceptor molecule, acceptor atom, score
      L1  H    11    37       P1 10175  0.35
      P1  H  7997  8009       L1    19  0.03
      P1  H 10752 10765       L1     3  0.19

> <Gold.Chemscore.Hbond.Weighted>
-5.7182

> <Gold.Chemscore.Metal.Weighted>
-0.0000

> <Gold.Chemscore.Lipo.Weighted>
-7.8251

> <Gold.Chemscore.Internal_Hbond.Weighted>
0.0000

> <Gold.Chemscore.DEClash.Weighted>
2.0439

> <Gold.Chemscore.DEInternal.Weighted>
2.6886

> <Gold.Chemscore.Rot.Weighted>
4.3399

> <Gold.Chemscore.Internal.Correction.Weighted>
   9.000000E+99

> <Gold.Protein.RotatedTorsions>
[ 6907 6896 6895 6894 ] final  137.94 input  -60.11 | X-H torsion
[ 7974 7965 7964 7962 ] final   53.45 input  175.53 | X-H torsion
[ 8008 7997 7996 7995 ] final  137.27 input   59.86 | X-H torsion
[ 10167 10162 10161 10158 ] final -102.27 input  -65.29 | X-H torsion
[ 10718 10713 10712 10709 ] final  -48.66 input   66.30 | X-H torsion
[ 10763 10752 10751 10750 ] final  158.60 input  -60.55 | X-H torsion
[ 11005 11000 10999 10996 ] final  139.94 input  -57.11 | X-H torsion

> <Gold.Protein.ActiveResidues>
 VAL166  LYS551  ARG553  GLY616  TRP617  ASP618  TYR619  PRO620  LYS621  CYS622 
 ASP623  PHE694  ASN695  SER759  ASP760  ASP761  ALA762  ILE779  LEU786  VAL792 
 PHE793  MET794  SER795  GLU796  ALA797  LYS798  CYS799  TRP800  GLU811  SER814 

> <Gold.Protein.RotatedAtoms>
  152.2724  133.5394  159.5446 H   0  0  0  0  0  0  0  0  0  0  0  0  # atno 6907 bound_to 6896
  150.7164  134.0680  159.3863 H   0  0  0  0  0  0  0  0  0  0  0  0  # atno 6908 bound_to 6896
  151.8594  135.0530  160.0518 H   0  0  0  0  0  0  0  0  0  0  0  0  # atno 6909 bound_to 6896
  145.9710  139.4149  143.0190 H   0  0  0  0  0  0  0  0  0  0  0  0  # atno 7974 bound_to 7965
  156.3002  140.2424  156.3882 H   0  0  0  0  0  0  0  0  0  0  0  0  # atno 8008 bound_to 7997
  154.8638  140.0419  157.1702 H   0  0  0  0  0  0  0  0  0  0  0  0  # atno 8009 bound_to 7997
  154.8868  140.2957  155.5397 H   0  0  0  0  0  0  0  0  0  0  0  0  # atno 8010 bound_to 7997
  140.2324  143.3597  152.0875 H   0  0  0  0  0  0  0  0  0  0  0  0  # atno 10167 bound_to 10162
  156.1967  130.4154  149.9297 H   0  0  0  0  0  0  0  0  0  0  0  0  # atno 10718 bound_to 10713
  154.2187  135.2783  155.2932 H   0  0  0  0  0  0  0  0  0  0  0  0  # atno 10763 bound_to 10752
  154.5720  135.5615  153.7107 H   0  0  0  0  0  0  0  0  0  0  0  0  # atno 10764 bound_to 10752
  153.0047  135.6323  154.2326 H   0  0  0  0  0  0  0  0  0  0  0  0  # atno 10765 bound_to 10752
  140.0291  134.9360  157.0627 H   0  0  0  0  0  0  0  0  0  0  0  0  # atno 11005 bound_to 11000
  145.7906  140.9816  143.1051 LP  0  0  0  0  0  0  0  0  0  0  0  0  # atno 17320 bound_to 7965
  144.6837  139.9678  143.7481 LP  0  0  0  0  0  0  0  0  0  0  0  0  # atno 17321 bound_to 7965
  139.5105  144.6886  151.5822 LP  0  0  0  0  0  0  0  0  0  0  0  0  # atno 17342 bound_to 10162
  140.6175  143.9321  150.6500 LP  0  0  0  0  0  0  0  0  0  0  0  0  # atno 17343 bound_to 10162
  156.7019  130.8936  151.3600 LP  0  0  0  0  0  0  0  0  0  0  0  0  # atno 17370 bound_to 10713
  157.6962  130.9284  150.0650 LP  0  0  0  0  0  0  0  0  0  0  0  0  # atno 17371 bound_to 10713
  140.4256  134.1835  155.7166 LP  0  0  0  0  0  0  0  0  0  0  0  0  # atno 17394 bound_to 11000
  141.1820  133.8393  157.1222 LP  0  0  0  0  0  0  0  0  0  0  0  0  # atno 17395 bound_to 11000

$$$$
