AV-unprocessed.smi:1892|AV-procd|sdf|7669|dock2
  -GOLD-   22720 9403D 1   1.00000     0.00000
 Structure written by MMmdl.
 42 43  0  0  0  0  0  0  0  0  1 V2000
  151.5359  141.4535  157.9082 C   0  0  0  0  0  0  0  0  0  0  0  0
  151.6270  140.3560  156.8460 C   0  0  0  0  0  0  0  0  0  0  0  0
  152.3104  139.3632  157.0965 O   0  0  0  0  0  0  0  0  0  0  0  0
  150.9598  140.5087  155.6777 N   0  0  0  0  0  0  0  0  0  0  0  0
  150.0748  141.6246  155.3306 C   0  0  0  0  0  0  0  0  0  0  0  0
  148.6371  141.0895  155.1864 C   0  0  0  0  0  0  0  0  0  0  0  0
  148.5794  140.0525  154.1515 N   0  0  0  0  0  0  0  0  0  0  0  0
  147.2006  139.5772  154.0290 C   0  0  0  0  0  0  0  0  0  0  0  0
  146.8011  139.2572  152.5729 C   0  0  0  0  0  0  0  0  0  0  0  0
  146.9392  137.8376  152.2609 N   0  0  0  0  0  0  0  0  0  0  0  0
  145.9244  136.9651  152.1804 C   0  0  0  0  0  0  0  0  0  0  0  0
  144.7491  137.2718  152.3824 O   0  0  0  0  0  0  0  0  0  0  0  0
  146.3632  135.7366  151.8541 N   0  0  0  0  0  0  0  0  0  0  0  0
  145.5992  134.5552  151.6572 C   0  0  0  0  0  0  0  0  0  0  0  0
  146.3492  133.3582  151.6090 C   0  0  0  0  0  0  0  0  0  0  0  0
  145.6852  132.1315  151.4146 C   0  0  0  0  0  0  0  0  0  0  0  0
  144.2862  132.1330  151.2719 C   0  0  0  0  0  0  0  0  0  0  0  0
  143.6152  133.3685  151.3321 C   0  0  0  0  0  0  0  0  0  0  0  0
  144.2496  134.5450  151.5191 N   0  0  0  0  0  0  0  0  0  0  0  0
  149.4958  138.9553  154.4860 C   0  0  0  0  0  0  0  0  0  0  0  0
  150.9346  139.4885  154.6267 C   0  0  0  0  0  0  0  0  0  0  0  0
  150.5037  141.5969  158.2285 H   0  0  0  0  0  0  0  0  0  0  0  0
  151.9240  142.3973  157.5242 H   0  0  0  0  0  0  0  0  0  0  0  0
  152.1226  141.1859  158.7877 H   0  0  0  0  0  0  0  0  0  0  0  0
  150.0882  142.4340  156.0587 H   0  0  0  0  0  0  0  0  0  0  0  0
  150.4074  142.0689  154.3912 H   0  0  0  0  0  0  0  0  0  0  0  0
  148.2855  140.6902  156.1394 H   0  0  0  0  0  0  0  0  0  0  0  0
  147.9718  141.9107  154.9165 H   0  0  0  0  0  0  0  0  0  0  0  0
  147.0497  138.7031  154.6640 H   0  0  0  0  0  0  0  0  0  0  0  0
  146.5246  140.3469  154.4045 H   0  0  0  0  0  0  0  0  0  0  0  0
  145.7745  139.5595  152.3701 H   0  0  0  0  0  0  0  0  0  0  0  0
  147.4197  139.8403  151.8891 H   0  0  0  0  0  0  0  0  0  0  0  0
  147.8731  137.5030  152.0746 H   0  0  0  0  0  0  0  0  0  0  0  0
  147.3593  135.6351  151.7276 H   0  0  0  0  0  0  0  0  0  0  0  0
  147.4237  133.3750  151.7200 H   0  0  0  0  0  0  0  0  0  0  0  0
  146.2406  131.2059  151.3756 H   0  0  0  0  0  0  0  0  0  0  0  0
  143.7419  131.2127  151.1204 H   0  0  0  0  0  0  0  0  0  0  0  0
  142.5413  133.4144  151.2270 H   0  0  0  0  0  0  0  0  0  0  0  0
  149.1817  138.4727  155.4133 H   0  0  0  0  0  0  0  0  0  0  0  0
  149.4774  138.1954  153.7059 H   0  0  0  0  0  0  0  0  0  0  0  0
  151.2709  139.9273  153.6861 H   0  0  0  0  0  0  0  0  0  0  0  0
  151.6128  138.6585  154.8292 H   0  0  0  0  0  0  0  0  0  0  0  0
  1  2  1  0  0  0  0
  1 22  1  0  0  0  0
  1 23  1  0  0  0  0
  1 24  1  0  0  0  0
  2  3  2  0  0  0  0
  2  4  1  0  0  0  0
  4 21  1  0  0  0  0
  4  5  1  0  0  0  0
  5  6  1  0  0  0  0
  5 25  1  0  0  0  0
  5 26  1  0  0  0  0
  6  7  1  0  0  0  0
  6 27  1  0  0  0  0
  6 28  1  0  0  0  0
  7  8  1  0  0  0  0
  7 20  1  0  0  0  0
  8  9  1  0  0  0  0
  8 29  1  0  0  0  0
  8 30  1  0  0  0  0
  9 10  1  0  0  0  0
  9 31  1  0  0  0  0
  9 32  1  0  0  0  0
 10 11  1  0  0  0  0
 10 33  1  0  0  0  0
 11 12  2  0  0  0  0
 11 13  1  0  0  0  0
 13 14  1  0  0  0  0
 13 34  1  0  0  0  0
 14 19  1  0  0  0  0
 14 15  2  0  0  0  0
 15 16  1  0  0  0  0
 15 35  1  0  0  0  0
 16 17  2  0  0  0  0
 16 36  1  0  0  0  0
 17 18  1  0  0  0  0
 17 37  1  0  0  0  0
 18 19  2  0  0  0  0
 18 38  1  0  0  0  0
 20 21  1  0  0  0  0
 20 39  1  0  0  0  0
 20 40  1  0  0  0  0
 21 41  1  0  0  0  0
 21 42  1  0  0  0  0
M  END
> <s_m_source_file>
AV-unprocessed.smi

> <i_m_source_file_index>
1892

> <i_lp_mmshare_version>
43012

> <i_f3d_flags>
0

> <s_epik_input>
W0NIM11DKD1PKU4xW0NIMl1bQ0gyXU4oW0NIMl1bQ0gyXTEpW0NIMl1bQ0gyXVtOSF1DKD1PKVtOSF1jMltjSF1bY0hdW2NIXVtjSF1uMg==

> <s_epik_cmdline>
J2VwaWtfcHl0aG9uJywgJy1waCcsICc3LjAnLCAnLXRuJywgJzgnLCAnLW1hJywgJzIwMCcsICctbWV0YWxfYmluZGluZycsICctaW1hZScsICc8aW5maWxlLm1hZT4nLCAnLW9tYWUnLCAnPG91dGZpbGUubWFlPic=

> <r_epik_Ionization_Penalty>
0.251009

> <r_epik_Ionization_Penalty_Charging>
0

> <r_epik_Ionization_Penalty_Neutral>
0.251009

> <r_epik_State_Penalty>
0.242297

> <r_epik_Charging_Adjusted_Penalty>
0.242297

> <i_epik_Tot_Q>
0

> <i_epik_Tot_abs_Q>
0

> <r_epik_Metal_State_Penalty>
0.242295

> <b_epik_Metal_Only>
0

> <s_lp_Force_Field>
OPLS_2005

> <r_lp_Energy>
38.7367

> <b_lp_Chiralities_Consistent>
1

> <s_lp_Variant>
AV-unprocessed.smi:1892-1

> <Gold.Version>
5.8.1

> <Gold.Id.Protein>
6NUR|6NUR_protein|mol2

> <Gold.PLP.Fitness>
45.3927

> <Gold.PLP.PLP>
-35.6060

> <Gold.PLP.part.hbond>
-2.7824

> <Gold.PLP.part.metal>
0.0000

> <Gold.PLP.part.buried>
-1.7338

> <Gold.PLP.part.nonpolar>
-30.6125

> <Gold.PLP.part.repulsive>
0.8523

> <Gold.PLP.ligand.clash>
0.0000

> <Gold.PLP.ligand.torsion>
0.8987

> <Gold.PLP.Chemscore.Hbond>
2.8533

> <Gold.PLP.Chemscore.CHOScore>
1.0000

> <Gold.PLP.Chemscore.Metal>
0.0000

> <Gold.Chemscore.Hbonds>
donor molecule, donor type, donor heavy atom, donor atom, acceptor molecule, acceptor atom, score
      L1  H    10    33       P1  7948  1.00
      L1  H    13    34       P1  7948  1.00
      P1  H  7997  8008       L1     3  0.47
      L1  C    18    38       P1 10186  1.00

> <Gold.PLP.Chemscore.Internal.Correction>
0.0243

> <Gold.Rescore>
     Score         DG    S(hbond)    S(metal)    S(lipo)     H(rot)  DE(clash)    DE(int)     intcor
     14.86     -17.22       2.14        0.00      74.41       1.60       0.08       2.28       ----

> <Gold.Chemscore.Fitness>
14.8560

> <Gold.Chemscore.DG>
-17.2169

> <Gold.Chemscore.ZeroCoef>
-5.4800

> <Gold.Chemscore.Hbond>
2.1368

> <Gold.Chemscore.Metal>
0.0000

> <Gold.Chemscore.Lipo>
74.4139

> <Gold.Chemscore.Internal_Hbond>
0.0000

> <Gold.Chemscore.DEClash>
0.0807

> <Gold.Chemscore.DEInternal>
2.2801

> <Gold.Chemscore.Rot>
1.6041

> <Gold.Chemscore.Internal.Correction>
   9.000000E+99

> <Gold.Chemscore.Hbonds>
donor molecule, donor type, donor heavy atom, donor atom, acceptor molecule, acceptor atom, score
      L1  H    10    33       P1  7948  0.95
      L1  H    13    34       P1  7948  0.97
      P1  H  7997  8008       L1     3  0.14

> <Gold.Chemscore.Hbond.Weighted>
-7.1371

> <Gold.Chemscore.Metal.Weighted>
-0.0000

> <Gold.Chemscore.Lipo.Weighted>
-8.7064

> <Gold.Chemscore.Internal_Hbond.Weighted>
0.0000

> <Gold.Chemscore.DEClash.Weighted>
0.0807

> <Gold.Chemscore.DEInternal.Weighted>
2.2801

> <Gold.Chemscore.Rot.Weighted>
4.1066

> <Gold.Chemscore.Internal.Correction.Weighted>
   9.000000E+99

> <Gold.Protein.RotatedTorsions>
[ 6907 6896 6895 6894 ] final  -65.74 input  -60.11 | X-H torsion
[ 7974 7965 7964 7962 ] final -173.24 input  175.53 | X-H torsion
[ 8008 7997 7996 7995 ] final  -53.21 input   59.86 | X-H torsion
[ 10167 10162 10161 10158 ] final -168.28 input  -65.29 | X-H torsion
[ 10718 10713 10712 10709 ] final   -9.50 input   66.30 | X-H torsion
[ 10763 10752 10751 10750 ] final  116.52 input  -60.55 | X-H torsion
[ 11005 11000 10999 10996 ] final  164.79 input  -57.11 | X-H torsion

> <Gold.Protein.ActiveResidues>
 VAL166  LYS551  ARG553  GLY616  TRP617  ASP618  TYR619  PRO620  LYS621  CYS622 
 ASP623  PHE694  ASN695  SER759  ASP760  ASP761  ALA762  ILE779  LEU786  VAL792 
 PHE793  MET794  SER795  GLU796  ALA797  LYS798  CYS799  TRP800  GLU811  SER814 

> <Gold.Protein.RotatedAtoms>
  150.7506  134.6118  159.6089 H   0  0  0  0  0  0  0  0  0  0  0  0  # atno 6907 bound_to 6896
  152.3450  134.7080  160.0262 H   0  0  0  0  0  0  0  0  0  0  0  0  # atno 6908 bound_to 6896
  151.7520  133.3292  159.3430 H   0  0  0  0  0  0  0  0  0  0  0  0  # atno 6909 bound_to 6896
  144.7139  140.1651  143.6372 H   0  0  0  0  0  0  0  0  0  0  0  0  # atno 7974 bound_to 7965
  154.4127  140.1205  156.5117 H   0  0  0  0  0  0  0  0  0  0  0  0  # atno 8008 bound_to 7997
  155.6792  140.3496  155.4829 H   0  0  0  0  0  0  0  0  0  0  0  0  # atno 8009 bound_to 7997
  155.9566  140.1115  157.0921 H   0  0  0  0  0  0  0  0  0  0  0  0  # atno 8010 bound_to 7997
  139.5995  144.1040  152.1727 H   0  0  0  0  0  0  0  0  0  0  0  0  # atno 10167 bound_to 10162
  156.6871  130.5054  149.5954 H   0  0  0  0  0  0  0  0  0  0  0  0  # atno 10718 bound_to 10713
  153.5385  135.3563  155.2708 H   0  0  0  0  0  0  0  0  0  0  0  0  # atno 10763 bound_to 10752
  154.8720  135.4085  154.3070 H   0  0  0  0  0  0  0  0  0  0  0  0  # atno 10764 bound_to 10752
  153.3773  135.7067  153.6660 H   0  0  0  0  0  0  0  0  0  0  0  0  # atno 10765 bound_to 10752
  140.2496  134.7988  157.3489 H   0  0  0  0  0  0  0  0  0  0  0  0  # atno 11005 bound_to 11000
  145.8995  139.2422  143.1502 LP  0  0  0  0  0  0  0  0  0  0  0  0  # atno 17320 bound_to 7965
  145.9825  140.8671  143.0107 LP  0  0  0  0  0  0  0  0  0  0  0  0  # atno 17321 bound_to 7965
  140.0633  144.5839  150.7246 LP  0  0  0  0  0  0  0  0  0  0  0  0  # atno 17342 bound_to 10162
  140.7239  143.2616  151.4187 LP  0  0  0  0  0  0  0  0  0  0  0  0  # atno 17343 bound_to 10162
  156.1825  130.6508  151.0968 LP  0  0  0  0  0  0  0  0  0  0  0  0  # atno 17370 bound_to 10713
  157.7022  131.0771  150.6782 LP  0  0  0  0  0  0  0  0  0  0  0  0  # atno 17371 bound_to 10713
  140.1572  134.4775  155.7920 LP  0  0  0  0  0  0  0  0  0  0  0  0  # atno 17394 bound_to 11000
  141.2203  133.6886  156.7481 LP  0  0  0  0  0  0  0  0  0  0  0  0  # atno 17395 bound_to 11000

$$$$
