AV-unprocessed.smi:132|AV-procd|sdf|1164|dock5
  -GOLD-   2262018303D 1   1.00000     0.00000
 Structure written by MMmdl.
 41 44  0  0  0  0  0  0  0  0  1 V2000
  150.5983  139.3348  154.2487 O   0  0  0  0  0  0  0  0  0  0  0  0
  150.8554  140.0422  155.2244 C   0  0  0  0  0  0  0  0  0  0  0  0
  150.1245  141.2629  155.5468 C   0  0  0  0  0  0  0  0  0  0  0  0
  149.1333  141.6771  154.7397 F   0  0  0  0  0  0  0  0  0  0  0  0
  150.4290  141.9879  156.6448 C   0  0  0  0  0  0  0  0  0  0  0  0
  151.4318  141.6336  157.5304 N   0  0  0  0  0  0  0  0  0  0  0  0
  151.7247  142.4824  158.7454 C   0  0  1  0  0  0  0  0  0  0  0  0
  152.2722  143.8533  158.3316 C   0  0  0  0  0  0  0  0  0  0  0  0
  151.5637  144.7728  159.3027 C   0  0  0  0  0  0  0  0  0  0  0  0
  150.2168  144.0779  159.4572 C   0  0  0  0  0  0  0  0  0  0  0  0
  150.5381  142.6904  159.4573 O   0  0  0  0  0  0  0  0  0  0  0  0
  152.2054  140.4771  157.2887 C   0  0  0  0  0  0  0  0  0  0  0  0
  153.1098  140.1465  158.0587 O   0  0  0  0  0  0  0  0  0  0  0  0
  151.8932  139.7203  156.1333 N   0  0  0  0  0  0  0  0  0  0  0  0
  152.6515  138.5047  155.8802 C   0  0  0  0  0  0  0  0  0  0  0  0
  151.9127  137.2908  156.3576 C   0  0  0  0  0  0  0  0  0  0  0  0
  151.5147  137.0342  157.6043 N   0  0  0  0  0  0  0  0  0  0  0  0
  150.8805  135.8140  157.5513 N   0  0  0  0  0  0  0  0  0  0  0  0
  150.9401  135.4167  156.2757 C   0  0  0  0  0  0  0  0  0  0  0  0
  150.4220  134.1853  155.6826 C   0  0  0  0  0  0  0  0  0  0  0  0
  150.4896  132.9589  156.3828 C   0  0  0  0  0  0  0  0  0  0  0  0
  149.9867  131.7786  155.8012 C   0  0  0  0  0  0  0  0  0  0  0  0
  149.4160  131.8130  154.5145 C   0  0  0  0  0  0  0  0  0  0  0  0
  148.8000  130.3668  153.8026 Cl  0  0  0  0  0  0  0  0  0  0  0  0
  149.3490  133.0295  153.8093 C   0  0  0  0  0  0  0  0  0  0  0  0
  149.8498  134.2104  154.3909 C   0  0  0  0  0  0  0  0  0  0  0  0
  151.5753  136.3139  155.4747 O   0  0  0  0  0  0  0  0  0  0  0  0
  149.8574  142.8839  156.8303 H   0  0  0  0  0  0  0  0  0  0  0  0
  152.4009  141.9201  159.3902 H   0  0  0  0  0  0  0  0  0  0  0  0
  153.3596  143.8840  158.4057 H   0  0  0  0  0  0  0  0  0  0  0  0
  151.9762  144.0836  157.3069 H   0  0  0  0  0  0  0  0  0  0  0  0
  152.0901  144.7896  160.2577 H   0  0  0  0  0  0  0  0  0  0  0  0
  151.4773  145.7968  158.9385 H   0  0  0  0  0  0  0  0  0  0  0  0
  149.6975  144.3667  160.3711 H   0  0  0  0  0  0  0  0  0  0  0  0
  149.5684  144.3064  158.6108 H   0  0  0  0  0  0  0  0  0  0  0  0
  152.8465  138.4480  154.8078 H   0  0  0  0  0  0  0  0  0  0  0  0
  153.6270  138.5769  156.3619 H   0  0  0  0  0  0  0  0  0  0  0  0
  150.9219  132.9111  157.3716 H   0  0  0  0  0  0  0  0  0  0  0  0
  150.0393  130.8465  156.3446 H   0  0  0  0  0  0  0  0  0  0  0  0
  148.9135  133.0593  152.8212 H   0  0  0  0  0  0  0  0  0  0  0  0
  149.7915  135.1354  153.8362 H   0  0  0  0  0  0  0  0  0  0  0  0
  1  2  2  0  0  0  0
  2 14  1  0  0  0  0
  2  3  1  0  0  0  0
  3  4  1  0  0  0  0
  3  5  2  0  0  0  0
  5  6  1  0  0  0  0
  5 28  1  0  0  0  0
  6  7  1  0  0  0  0
  6 12  1  0  0  0  0
  7 11  1  0  0  0  0
  7  8  1  0  0  0  0
  7 29  1  0  0  0  0
  8  9  1  0  0  0  0
  8 30  1  0  0  0  0
  8 31  1  0  0  0  0
  9 10  1  0  0  0  0
  9 32  1  0  0  0  0
  9 33  1  0  0  0  0
 10 11  1  0  0  0  0
 10 34  1  0  0  0  0
 10 35  1  0  0  0  0
 12 13  2  0  0  0  0
 12 14  1  0  0  0  0
 14 15  1  0  0  0  0
 15 16  1  0  0  0  0
 15 36  1  0  0  0  0
 15 37  1  0  0  0  0
 16 27  1  0  0  0  0
 16 17  2  0  0  0  0
 17 18  1  0  0  0  0
 18 19  2  0  0  0  0
 19 20  1  0  0  0  0
 19 27  1  0  0  0  0
 20 26  1  0  0  0  0
 20 21  2  0  0  0  0
 21 22  1  0  0  0  0
 21 38  1  0  0  0  0
 22 23  2  0  0  0  0
 22 39  1  0  0  0  0
 23 24  1  0  0  0  0
 23 25  1  0  0  0  0
 25 26  2  0  0  0  0
 25 40  1  0  0  0  0
 26 41  1  0  0  0  0
M  END
> <s_m_source_file>
AV-unprocessed.smi

> <i_m_source_file_index>
132

> <i_lp_mmshare_version>
43012

> <i_f3d_flags>
0

> <s_epik_input>
TzFbQ0gyXVtDSDJdW0NIMl1bQ0BIXTFuKFtjSF1jKEYpYzI9TyljKD1PKW4yW0NIMl1jM25uYyhvMyktYzRbY0hdW2NIXWMoQ2wpW2NIXVtjSF00

> <s_epik_cmdline>
J2VwaWtfcHl0aG9uJywgJy1waCcsICc3LjAnLCAnLXRuJywgJzgnLCAnLW1hJywgJzIwMCcsICctbWV0YWxfYmluZGluZycsICctaW1hZScsICc8aW5maWxlLm1hZT4nLCAnLW9tYWUnLCAnPG91dGZpbGUubWFlPic=

> <r_lp_tautomer_probability>
1

> <r_epik_Ionization_Penalty>
2.5553e-09

> <r_epik_Ionization_Penalty_Charging>
2.54231e-09

> <r_epik_Ionization_Penalty_Neutral>
1.29923e-11

> <r_epik_State_Penalty>
-0

> <r_epik_Charging_Adjusted_Penalty>
2.54231e-09

> <i_epik_Tot_Q>
0

> <i_epik_Tot_abs_Q>
0

> <r_epik_Metal_State_Penalty>
-0

> <b_epik_Metal_Only>
0

> <s_epik_Chemistry_Notes>
This compound contains an acetal/aminal-like group ( X-CH(R)-Y where X, Y are N, S, or O) that may be acid/base labile, releasing an aldehyde.

> <s_lp_Force_Field>
OPLS_2005

> <r_lp_Energy>
32.8563

> <b_lp_Chiralities_Consistent>
1

> <s_lp_Variant>
AV-unprocessed.smi:132-2

> <Gold.Version>
5.8.1

> <Gold.Id.Protein>
6NUR|6NUR_protein|mol2

> <Gold.PLP.Fitness>
59.8592

> <Gold.PLP.PLP>
-52.5837

> <Gold.PLP.part.hbond>
-5.0000

> <Gold.PLP.part.metal>
0.0000

> <Gold.PLP.part.buried>
-1.8161

> <Gold.PLP.part.nonpolar>
-44.6391

> <Gold.PLP.part.repulsive>
0.2780

> <Gold.PLP.ligand.clash>
0.0000

> <Gold.PLP.ligand.torsion>
0.9735

> <Gold.PLP.Chemscore.Hbond>
2.0658

> <Gold.PLP.Chemscore.CHOScore>
1.0000

> <Gold.PLP.Chemscore.Metal>
0.0000

> <Gold.Chemscore.Hbonds>
donor molecule, donor type, donor heavy atom, donor atom, acceptor molecule, acceptor atom, score
      P1  H  6896  6909       L1    18  0.05
      P1  H  7997  8008       L1    13  1.00
      P1  H 10752 10764       L1    27  1.00
      L1  C     5    28       P1  8028  1.00

> <Gold.PLP.Chemscore.Internal.Correction>
0.0253

> <Gold.Rescore>
     Score         DG    S(hbond)    S(metal)    S(lipo)     H(rot)  DE(clash)    DE(int)     intcor
     16.04     -16.85       1.67        0.00      86.72       1.70       0.07       0.75       ----

> <Gold.Chemscore.Fitness>
16.0365

> <Gold.Chemscore.DG>
-16.8536

> <Gold.Chemscore.ZeroCoef>
-5.4800

> <Gold.Chemscore.Hbond>
1.6689

> <Gold.Chemscore.Metal>
0.0000

> <Gold.Chemscore.Lipo>
86.7223

> <Gold.Chemscore.Internal_Hbond>
0.0000

> <Gold.Chemscore.DEClash>
0.0673

> <Gold.Chemscore.DEInternal>
0.7499

> <Gold.Chemscore.Rot>
1.6980

> <Gold.Chemscore.Internal.Correction>
   9.000000E+99

> <Gold.Chemscore.Hbonds>
donor molecule, donor type, donor heavy atom, donor atom, acceptor molecule, acceptor atom, score
      P1  H  6896  6909       L1    18  0.06
      P1  H  7997  8008       L1    13  0.37
      P1  H 10752 10764       L1    27  0.64

> <Gold.Chemscore.Hbond.Weighted>
-5.5740

> <Gold.Chemscore.Metal.Weighted>
-0.0000

> <Gold.Chemscore.Lipo.Weighted>
-10.1465

> <Gold.Chemscore.Internal_Hbond.Weighted>
0.0000

> <Gold.Chemscore.DEClash.Weighted>
0.0673

> <Gold.Chemscore.DEInternal.Weighted>
0.7499

> <Gold.Chemscore.Rot.Weighted>
4.3469

> <Gold.Chemscore.Internal.Correction.Weighted>
   9.000000E+99

> <Gold.Protein.RotatedTorsions>
[ 6907 6896 6895 6894 ] final   36.59 input  -60.11 | X-H torsion
[ 7974 7965 7964 7962 ] final -162.41 input  175.53 | X-H torsion
[ 8008 7997 7996 7995 ] final  -81.23 input   59.86 | X-H torsion
[ 10167 10162 10161 10158 ] final  -15.36 input  -65.29 | X-H torsion
[ 10718 10713 10712 10709 ] final   55.63 input   66.30 | X-H torsion
[ 10763 10752 10751 10750 ] final  -52.87 input  -60.55 | X-H torsion
[ 11005 11000 10999 10996 ] final -120.78 input  -57.11 | X-H torsion

> <Gold.Protein.ActiveResidues>
 VAL166  LYS551  ARG553  GLY616  TRP617  ASP618  TYR619  PRO620  LYS621  CYS622 
 ASP623  PHE694  ASN695  SER759  ASP760  ASP761  ALA762  ILE779  LEU786  VAL792 
 PHE793  MET794  SER795  GLU796  ALA797  LYS798  CYS799  TRP800  GLU811  SER814 

> <Gold.Protein.RotatedAtoms>
  152.1318  134.9129  160.0558 H   0  0  0  0  0  0  0  0  0  0  0  0  # atno 6907 bound_to 6896
  152.0230  133.3901  159.4274 H   0  0  0  0  0  0  0  0  0  0  0  0  # atno 6908 bound_to 6896
  150.6857  134.3526  159.4959 H   0  0  0  0  0  0  0  0  0  0  0  0  # atno 6909 bound_to 6896
  144.7358  140.3257  143.6162 H   0  0  0  0  0  0  0  0  0  0  0  0  # atno 7974 bound_to 7965
  154.5962  140.0651  156.9307 H   0  0  0  0  0  0  0  0  0  0  0  0  # atno 8008 bound_to 7997
  155.2210  140.3330  155.4297 H   0  0  0  0  0  0  0  0  0  0  0  0  # atno 8009 bound_to 7997
  156.2289  140.1831  156.7278 H   0  0  0  0  0  0  0  0  0  0  0  0  # atno 8010 bound_to 7997
  140.7217  143.5226  150.9615 H   0  0  0  0  0  0  0  0  0  0  0  0  # atno 10167 bound_to 10162
  157.5361  130.8664  149.8756 H   0  0  0  0  0  0  0  0  0  0  0  0  # atno 10718 bound_to 10713
  154.1496  135.6492  153.4960 H   0  0  0  0  0  0  0  0  0  0  0  0  # atno 10763 bound_to 10752
  153.0141  135.5335  154.6821 H   0  0  0  0  0  0  0  0  0  0  0  0  # atno 10764 bound_to 10752
  154.6105  135.2953  155.0408 H   0  0  0  0  0  0  0  0  0  0  0  0  # atno 10765 bound_to 10752
  141.0118  134.0253  157.3403 H   0  0  0  0  0  0  0  0  0  0  0  0  # atno 11005 bound_to 11000
  145.7523  139.1798  143.2314 LP  0  0  0  0  0  0  0  0  0  0  0  0  # atno 17320 bound_to 7965
  146.1051  140.7497  142.9530 LP  0  0  0  0  0  0  0  0  0  0  0  0  # atno 17321 bound_to 7965
  139.8944  143.6913  152.3141 LP  0  0  0  0  0  0  0  0  0  0  0  0  # atno 17342 bound_to 10162
  139.7240  144.7596  151.0908 LP  0  0  0  0  0  0  0  0  0  0  0  0  # atno 17343 bound_to 10162
  156.0460  130.3728  150.1316 LP  0  0  0  0  0  0  0  0  0  0  0  0  # atno 17370 bound_to 10713
  156.9499  130.9771  151.3500 LP  0  0  0  0  0  0  0  0  0  0  0  0  # atno 17371 bound_to 10713
  139.9094  135.0187  156.7627 LP  0  0  0  0  0  0  0  0  0  0  0  0  # atno 17394 bound_to 11000
  140.6721  133.9550  155.7862 LP  0  0  0  0  0  0  0  0  0  0  0  0  # atno 17395 bound_to 11000

$$$$
