AV-unprocessed.smi:648|AV-procd|sdf|3174|dock5
  -GOLD-   22720 0 93D 1   1.00000     0.00000
 Structure written by MMmdl.
 45 46  0  0  0  0  0  0  0  0  1 V2000
  144.4893  134.3011  150.2459 C   0  0  0  0  0  0  0  0  0  0  0  0
  144.8318  134.9647  151.5878 C   0  0  2  0  0  0  0  0  0  0  0  0
  143.5690  135.1728  152.4423 C   0  0  0  0  0  0  0  0  0  0  0  0
  143.8546  135.8288  153.8125 C   0  0  0  0  0  0  0  0  0  0  0  0
  142.5089  136.2168  154.4588 C   0  0  0  0  0  0  0  0  0  0  0  0
  144.5417  134.8264  154.7681 C   0  0  0  0  0  0  0  0  0  0  0  0
  144.6977  137.1224  153.6229 C   0  0  0  0  0  0  0  0  0  0  0  0
  145.9464  137.0181  152.6986 C   0  0  1  0  0  0  0  0  0  0  0  0
  146.4289  138.4502  152.3371 C   0  0  0  0  0  0  0  0  0  0  0  0
  147.3340  138.4504  151.2495 O   0  0  0  0  0  0  0  0  0  0  0  0
  147.0270  136.3016  153.4080 N   0  0  0  0  0  0  0  0  0  0  0  0
  147.4796  136.8142  154.7039 C   0  0  0  0  0  0  0  0  0  0  0  0
  148.9832  136.5686  154.8800 C   0  0  0  0  0  0  0  0  0  0  0  0
  149.7329  137.8077  154.8389 N   0  0  0  0  0  0  0  0  0  0  0  0
  149.9803  138.6398  153.8261 C   0  0  0  0  0  0  0  0  0  0  0  0
  150.7094  139.6940  154.1659 N   0  0  0  0  0  0  0  0  0  0  0  0
  150.8888  139.4283  155.4946 C   0  0  0  0  0  0  0  0  0  0  0  0
  150.3228  138.3100  155.9486 N   0  0  0  0  0  0  0  0  0  0  0  0
  145.5522  136.3075  151.3761 C   0  0  0  0  0  0  0  0  0  0  0  0
  143.8135  134.9214  149.6566 H   0  0  0  0  0  0  0  0  0  0  0  0
  144.0073  133.3350  150.3978 H   0  0  0  0  0  0  0  0  0  0  0  0
  145.3875  134.1303  149.6518 H   0  0  0  0  0  0  0  0  0  0  0  0
  145.5078  134.2887  152.1107 H   0  0  0  0  0  0  0  0  0  0  0  0
  142.8724  135.7981  151.8816 H   0  0  0  0  0  0  0  0  0  0  0  0
  143.0605  134.2188  152.5888 H   0  0  0  0  0  0  0  0  0  0  0  0
  142.6562  136.6861  155.4321 H   0  0  0  0  0  0  0  0  0  0  0  0
  141.8725  135.3438  154.6085 H   0  0  0  0  0  0  0  0  0  0  0  0
  141.9520  136.9207  153.8391 H   0  0  0  0  0  0  0  0  0  0  0  0
  144.7647  135.2879  155.7307 H   0  0  0  0  0  0  0  0  0  0  0  0
  145.4764  134.4332  154.3739 H   0  0  0  0  0  0  0  0  0  0  0  0
  143.9000  133.9664  154.9618 H   0  0  0  0  0  0  0  0  0  0  0  0
  144.0394  137.8797  153.1939 H   0  0  0  0  0  0  0  0  0  0  0  0
  144.9830  137.5168  154.5995 H   0  0  0  0  0  0  0  0  0  0  0  0
  145.5967  139.1160  152.1103 H   0  0  0  0  0  0  0  0  0  0  0  0
  146.9428  138.9000  153.1876 H   0  0  0  0  0  0  0  0  0  0  0  0
  147.9967  139.1045  151.4106 H   0  0  0  0  0  0  0  0  0  0  0  0
  146.7616  135.3269  153.5105 H   0  0  0  0  0  0  0  0  0  0  0  0
  147.2879  137.8834  154.7851 H   0  0  0  0  0  0  0  0  0  0  0  0
  146.9471  136.3275  155.5201 H   0  0  0  0  0  0  0  0  0  0  0  0
  149.1832  136.0712  155.8303 H   0  0  0  0  0  0  0  0  0  0  0  0
  149.3559  135.9124  154.0920 H   0  0  0  0  0  0  0  0  0  0  0  0
  149.6184  138.4726  152.8222 H   0  0  0  0  0  0  0  0  0  0  0  0
  151.4531  140.0786  156.1465 H   0  0  0  0  0  0  0  0  0  0  0  0
  146.4151  136.1758  150.7241 H   0  0  0  0  0  0  0  0  0  0  0  0
  144.8797  136.9595  150.8165 H   0  0  0  0  0  0  0  0  0  0  0  0
  1  2  1  0  0  0  0
  1 20  1  0  0  0  0
  1 21  1  0  0  0  0
  1 22  1  0  0  0  0
  2 19  1  0  0  0  0
  2  3  1  0  0  0  0
  2 23  1  0  0  0  0
  3  4  1  0  0  0  0
  3 24  1  0  0  0  0
  3 25  1  0  0  0  0
  4  5  1  0  0  0  0
  4  6  1  0  0  0  0
  4  7  1  0  0  0  0
  5 26  1  0  0  0  0
  5 27  1  0  0  0  0
  5 28  1  0  0  0  0
  6 29  1  0  0  0  0
  6 30  1  0  0  0  0
  6 31  1  0  0  0  0
  7  8  1  0  0  0  0
  7 32  1  0  0  0  0
  7 33  1  0  0  0  0
  8  9  1  0  0  0  0
  8 11  1  0  0  0  0
  8 19  1  0  0  0  0
  9 10  1  0  0  0  0
  9 34  1  0  0  0  0
  9 35  1  0  0  0  0
 10 36  1  0  0  0  0
 11 12  1  0  0  0  0
 11 37  1  0  0  0  0
 12 13  1  0  0  0  0
 12 38  1  0  0  0  0
 12 39  1  0  0  0  0
 13 14  1  0  0  0  0
 13 40  1  0  0  0  0
 13 41  1  0  0  0  0
 14 18  1  0  0  0  0
 14 15  1  0  0  0  0
 15 16  2  0  0  0  0
 15 42  1  0  0  0  0
 16 17  1  0  0  0  0
 17 18  2  0  0  0  0
 17 43  1  0  0  0  0
 19 44  1  0  0  0  0
 19 45  1  0  0  0  0
M  END
> <s_m_source_file>
AV-unprocessed.smi

> <i_m_source_file_index>
648

> <i_lp_mmshare_version>
43012

> <i_f3d_flags>
0

> <s_epik_input>
W0NIM11DMShbQ0gzXSlbQ0gyXVtDQEBIXShbQ0gzXSlbQ0gyXVtDQF0oW0NIMl0xKShbQ0gyXVtPSF0pW05IXVtDSDJdW0NIMl1uMltjSF1uW2NIXW4y

> <s_epik_cmdline>
J2VwaWtfcHl0aG9uJywgJy1waCcsICc3LjAnLCAnLXRuJywgJzgnLCAnLW1hJywgJzIwMCcsICctbWV0YWxfYmluZGluZycsICctaW1hZScsICc8aW5maWxlLm1hZT4nLCAnLW9tYWUnLCAnPG91dGZpbGUubWFlPic=

> <r_lp_tautomer_probability>
1

> <r_epik_Ionization_Penalty>
2.45849

> <r_epik_Ionization_Penalty_Charging>
0

> <r_epik_Ionization_Penalty_Neutral>
2.45849

> <r_epik_State_Penalty>
2.62037

> <r_epik_Charging_Adjusted_Penalty>
2.62037

> <i_epik_Tot_Q>
0

> <i_epik_Tot_abs_Q>
0

> <r_epik_Metal_State_Penalty>
2.62024

> <b_epik_Metal_Only>
0

> <s_lp_Force_Field>
OPLS_2005

> <r_lp_Energy>
32.3104

> <b_lp_Chiralities_Consistent>
1

> <s_lp_Variant>
AV-unprocessed.smi:648-5

> <Gold.Version>
5.8.1

> <Gold.Id.Protein>
6NUR|6NUR_protein|mol2

> <Gold.PLP.Fitness>
40.3603

> <Gold.PLP.PLP>
-28.2135

> <Gold.PLP.part.hbond>
-5.0000

> <Gold.PLP.part.metal>
0.0000

> <Gold.PLP.part.buried>
-2.5208

> <Gold.PLP.part.nonpolar>
-20.4356

> <Gold.PLP.part.repulsive>
0.1196

> <Gold.PLP.ligand.clash>
0.0000

> <Gold.PLP.ligand.torsion>
0.8315

> <Gold.PLP.Chemscore.Hbond>
2.7000

> <Gold.PLP.Chemscore.CHOScore>
1.9023

> <Gold.PLP.Chemscore.Metal>
0.0000

> <Gold.Chemscore.Hbonds>
donor molecule, donor type, donor heavy atom, donor atom, acceptor molecule, acceptor atom, score
      L1  H    10    36       P1  7957  1.00
      P1  H  7954  7966       L1    10  0.55
      P1  H  7989  7998       L1    16  1.00
      L1  C    15    42       P1  7948  0.92
      L1  C    15    42       P1  7957  0.91

> <Gold.PLP.Chemscore.Internal.Correction>
0.0029

> <Gold.Rescore>
     Score         DG    S(hbond)    S(metal)    S(lipo)     H(rot)  DE(clash)    DE(int)     intcor
      9.32     -10.30       2.11        0.00      49.19       3.12       0.24       0.74       ----

> <Gold.Chemscore.Fitness>
9.3183

> <Gold.Chemscore.DG>
-10.3027

> <Gold.Chemscore.ZeroCoef>
-5.4800

> <Gold.Chemscore.Hbond>
2.1108

> <Gold.Chemscore.Metal>
0.0000

> <Gold.Chemscore.Lipo>
49.1929

> <Gold.Chemscore.Internal_Hbond>
0.0000

> <Gold.Chemscore.DEClash>
0.2436

> <Gold.Chemscore.DEInternal>
0.7409

> <Gold.Chemscore.Rot>
3.1183

> <Gold.Chemscore.Internal.Correction>
   9.000000E+99

> <Gold.Chemscore.Hbonds>
donor molecule, donor type, donor heavy atom, donor atom, acceptor molecule, acceptor atom, score
      L1  H    10    36       P1  7957  0.77
      P1  H  7954  7966       L1    10  0.03
      P1  H  7989  7998       L1    16  0.95

> <Gold.Chemscore.Hbond.Weighted>
-7.0501

> <Gold.Chemscore.Metal.Weighted>
-0.0000

> <Gold.Chemscore.Lipo.Weighted>
-5.7556

> <Gold.Chemscore.Internal_Hbond.Weighted>
0.0000

> <Gold.Chemscore.DEClash.Weighted>
0.2436

> <Gold.Chemscore.DEInternal.Weighted>
0.7409

> <Gold.Chemscore.Rot.Weighted>
7.9829

> <Gold.Chemscore.Internal.Correction.Weighted>
   9.000000E+99

> <Gold.Protein.RotatedTorsions>
[ 6907 6896 6895 6894 ] final -163.00 input  -60.11 | X-H torsion
[ 7974 7965 7964 7962 ] final -167.78 input  175.53 | X-H torsion
[ 8008 7997 7996 7995 ] final   -8.66 input   59.86 | X-H torsion
[ 10167 10162 10161 10158 ] final  105.67 input  -65.29 | X-H torsion
[ 10718 10713 10712 10709 ] final   37.36 input   66.30 | X-H torsion
[ 10763 10752 10751 10750 ] final   30.78 input  -60.55 | X-H torsion
[ 11005 11000 10999 10996 ] final  170.96 input  -57.11 | X-H torsion

> <Gold.Protein.ActiveResidues>
 VAL166  LYS551  ARG553  GLY616  TRP617  ASP618  TYR619  PRO620  LYS621  CYS622 
 ASP623  PHE694  ASN695  SER759  ASP760  ASP761  ALA762  ILE779  LEU786  VAL792 
 PHE793  MET794  SER795  GLU796  ALA797  LYS798  CYS799  TRP800  GLU811  SER814 

> <Gold.Protein.RotatedAtoms>
  151.3892  133.3794  159.2718 H   0  0  0  0  0  0  0  0  0  0  0  0  # atno 6907 bound_to 6896
  150.9518  134.8918  159.7687 H   0  0  0  0  0  0  0  0  0  0  0  0  # atno 6908 bound_to 6896
  152.5115  134.3848  159.9416 H   0  0  0  0  0  0  0  0  0  0  0  0  # atno 6909 bound_to 6896
  144.7216  140.2468  143.6284 H   0  0  0  0  0  0  0  0  0  0  0  0  # atno 7974 bound_to 7965
  154.5720  140.2375  155.8177 H   0  0  0  0  0  0  0  0  0  0  0  0  # atno 8008 bound_to 7997
  156.2114  140.3025  155.9699 H   0  0  0  0  0  0  0  0  0  0  0  0  # atno 8009 bound_to 7997
  155.2695  140.0418  157.2996 H   0  0  0  0  0  0  0  0  0  0  0  0  # atno 8010 bound_to 7997
  139.7073  144.7084  151.1085 H   0  0  0  0  0  0  0  0  0  0  0  0  # atno 10167 bound_to 10162
  157.3460  130.7573  149.6945 H   0  0  0  0  0  0  0  0  0  0  0  0  # atno 10718 bound_to 10713
  153.0352  135.6455  154.1097 H   0  0  0  0  0  0  0  0  0  0  0  0  # atno 10763 bound_to 10752
  154.0813  135.2873  155.3291 H   0  0  0  0  0  0  0  0  0  0  0  0  # atno 10764 bound_to 10752
  154.6528  135.5420  153.7986 H   0  0  0  0  0  0  0  0  0  0  0  0  # atno 10765 bound_to 10752
  140.3140  134.7493  157.4013 H   0  0  0  0  0  0  0  0  0  0  0  0  # atno 11005 bound_to 11000
  145.8266  139.2067  143.1907 LP  0  0  0  0  0  0  0  0  0  0  0  0  # atno 17320 bound_to 7965
  146.0467  140.8110  142.9802 LP  0  0  0  0  0  0  0  0  0  0  0  0  # atno 17321 bound_to 7965
  140.7725  143.5341  150.9389 LP  0  0  0  0  0  0  0  0  0  0  0  0  # atno 17342 bound_to 10162
  139.9025  143.6819  152.3129 LP  0  0  0  0  0  0  0  0  0  0  0  0  # atno 17343 bound_to 10162
  155.9714  130.4154  150.4180 LP  0  0  0  0  0  0  0  0  0  0  0  0  # atno 17370 bound_to 10713
  157.2235  131.0488  151.2533 LP  0  0  0  0  0  0  0  0  0  0  0  0  # atno 17371 bound_to 10713
  140.1000  134.5485  155.8362 LP  0  0  0  0  0  0  0  0  0  0  0  0  # atno 17394 bound_to 11000
  141.2102  133.6692  156.6491 LP  0  0  0  0  0  0  0  0  0  0  0  0  # atno 17395 bound_to 11000

$$$$
