AV-unprocessed.smi:1509|AV-procd|sdf|6091|dock1
  -GOLD-   22720 6213D 1   1.00000     0.00000
 Structure written by MMmdl.
 42 43  0  0  0  0  0  0  0  0  2 V2000
  145.7399  136.0769  151.0863 C   0  0  0  0  0  0  0  0  0  0  0  0
  145.1831  134.9662  151.9940 C   0  0  1  0  0  0  0  0  0  0  0  0
  145.2161  133.5785  151.3277 C   0  0  0  0  0  0  0  0  0  0  0  0
  146.6452  133.0208  151.2752 C   0  0  0  0  0  0  0  0  0  0  0  0
  147.2925  133.0309  152.6689 C   0  0  0  0  0  0  0  0  0  0  0  0
  147.2746  134.3932  153.2617 N   0  3  2  0  0  0  0  0  0  0  0  0
  148.0228  134.4553  154.5429 C   0  0  0  0  0  0  0  0  0  0  0  0
  147.5938  133.3578  155.5319 C   0  0  0  0  0  0  0  0  0  0  0  0
  148.3241  133.4763  156.8802 C   0  0  0  0  0  0  0  0  0  0  0  0
  147.8250  134.5951  157.6711 N   0  0  0  0  0  0  0  0  0  0  0  0
  148.5682  135.3383  158.5066 C   0  0  0  0  0  0  0  0  0  0  0  0
  149.7625  135.1284  158.7176 O   0  0  0  0  0  0  0  0  0  0  0  0
  147.8586  136.4939  159.2133 C   0  0  0  0  0  0  0  0  0  0  0  0
  147.6818  136.2133  160.6258 N   0  0  0  0  0  0  0  0  0  0  0  0
  147.2749  135.1100  161.2571 C   0  0  0  0  0  0  0  0  0  0  0  0
  147.2441  135.2805  162.5698 N   0  0  0  0  0  0  0  0  0  0  0  0
  147.6669  136.5899  162.7267 N   0  0  0  0  0  0  0  0  0  0  0  0
  147.9281  137.1484  161.5768 N   0  0  0  0  0  0  0  0  0  0  0  0
  145.8880  134.9254  153.3661 C   0  0  0  0  0  0  0  0  0  0  0  0
  146.7980  135.9340  150.8678 H   0  0  0  0  0  0  0  0  0  0  0  0
  145.6309  137.0552  151.5552 H   0  0  0  0  0  0  0  0  0  0  0  0
  145.2066  136.1095  150.1357 H   0  0  0  0  0  0  0  0  0  0  0  0
  144.1361  135.2140  152.1726 H   0  0  0  0  0  0  0  0  0  0  0  0
  144.5877  132.8923  151.8972 H   0  0  0  0  0  0  0  0  0  0  0  0
  144.7882  133.6228  150.3257 H   0  0  0  0  0  0  0  0  0  0  0  0
  146.6302  132.0043  150.8812 H   0  0  0  0  0  0  0  0  0  0  0  0
  147.2503  133.6067  150.5827 H   0  0  0  0  0  0  0  0  0  0  0  0
  146.7719  132.3378  153.3319 H   0  0  0  0  0  0  0  0  0  0  0  0
  148.3209  132.6773  152.5843 H   0  0  0  0  0  0  0  0  0  0  0  0
  149.0956  134.4062  154.3493 H   0  0  0  0  0  0  0  0  0  0  0  0
  147.8405  135.4206  155.0176 H   0  0  0  0  0  0  0  0  0  0  0  0
  146.5171  133.4174  155.6964 H   0  0  0  0  0  0  0  0  0  0  0  0
  147.7873  132.3730  155.1078 H   0  0  0  0  0  0  0  0  0  0  0  0
  148.2308  132.5491  157.4483 H   0  0  0  0  0  0  0  0  0  0  0  0
  149.3906  133.6309  156.7140 H   0  0  0  0  0  0  0  0  0  0  0  0
  146.8502  134.8345  157.5598 H   0  0  0  0  0  0  0  0  0  0  0  0
  148.4357  137.4130  159.1036 H   0  0  0  0  0  0  0  0  0  0  0  0
  146.8826  136.6698  158.7585 H   0  0  0  0  0  0  0  0  0  0  0  0
  147.0005  134.1914  160.7596 H   0  0  0  0  0  0  0  0  0  0  0  0
  145.8901  135.9261  153.7966 H   0  0  0  0  0  0  0  0  0  0  0  0
  145.3186  134.2969  154.0531 H   0  0  0  0  0  0  0  0  0  0  0  0
  147.7697  134.9872  152.6118 H   0  0  0  0  0  0  0  0  0  0  0  0
  1  2  1  0  0  0  0
  1 20  1  0  0  0  0
  1 21  1  0  0  0  0
  1 22  1  0  0  0  0
  2 19  1  0  0  0  0
  2  3  1  0  0  0  0
  2 23  1  0  0  0  0
  3  4  1  0  0  0  0
  3 24  1  0  0  0  0
  3 25  1  0  0  0  0
  4  5  1  0  0  0  0
  4 26  1  0  0  0  0
  4 27  1  0  0  0  0
  5  6  1  0  0  0  0
  5 28  1  0  0  0  0
  5 29  1  0  0  0  0
  6  7  1  0  0  0  0
  6 19  1  0  0  0  0
  6 42  1  0  0  0  0
  7  8  1  0  0  0  0
  7 30  1  0  0  0  0
  7 31  1  0  0  0  0
  8  9  1  0  0  0  0
  8 32  1  0  0  0  0
  8 33  1  0  0  0  0
  9 10  1  0  0  0  0
  9 34  1  0  0  0  0
  9 35  1  0  0  0  0
 10 11  1  0  0  0  0
 10 36  1  0  0  0  0
 11 12  2  0  0  0  0
 11 13  1  0  0  0  0
 13 14  1  0  0  0  0
 13 37  1  0  0  0  0
 13 38  1  0  0  0  0
 14 18  1  0  0  0  0
 14 15  1  0  0  0  0
 15 16  2  0  0  0  0
 15 39  1  0  0  0  0
 16 17  1  0  0  0  0
 17 18  2  0  0  0  0
 19 40  1  0  0  0  0
 19 41  1  0  0  0  0
M  CHG  1   6   1
M  END
> <s_m_source_file>
AV-unprocessed.smi

> <i_m_source_file_index>
1509

> <i_lp_mmshare_version>
43012

> <i_f3d_flags>
0

> <s_epik_input>
W0NIM11bQ0BASF0xW0NIMl1bQ0gyXVtDSDJdTihbQ0gyXTEpW0NIMl1bQ0gyXVtDSDJdW05IXUMoPU8pW0NIMl1uMltjSF1ubm4y

> <s_epik_cmdline>
J2VwaWtfcHl0aG9uJywgJy1waCcsICc3LjAnLCAnLXRuJywgJzgnLCAnLW1hJywgJzIwMCcsICctbWV0YWxfYmluZGluZycsICctaW1hZScsICc8aW5maWxlLm1hZT4nLCAnLW9tYWUnLCAnPG91dGZpbGUubWFlPic=

> <r_lp_tautomer_probability>
1

> <r_epik_Ionization_Penalty>
0.00044216

> <r_epik_Ionization_Penalty_Charging>
0.000440775

> <r_epik_Ionization_Penalty_Neutral>
1.38512e-06

> <r_epik_State_Penalty>
0.000271914

> <r_epik_Charging_Adjusted_Penalty>
0.000712689

> <i_epik_Tot_Q>
1

> <i_epik_Tot_abs_Q>
1

> <r_epik_Metal_State_Penalty>
-0

> <b_epik_Metal_Only>
0

> <s_lp_Force_Field>
OPLS_2005

> <r_lp_Energy>
22.736

> <b_lp_Chiralities_Consistent>
1

> <s_lp_Variant>
AV-unprocessed.smi:1509-2

> <Gold.Version>
5.8.1

> <Gold.Id.Protein>
6NUR|6NUR_protein|mol2

> <Gold.PLP.Fitness>
38.7410

> <Gold.PLP.PLP>
-25.5550

> <Gold.PLP.part.hbond>
-4.1440

> <Gold.PLP.part.metal>
0.0000

> <Gold.PLP.part.buried>
-3.8783

> <Gold.PLP.part.nonpolar>
-17.1345

> <Gold.PLP.part.repulsive>
0.0372

> <Gold.PLP.ligand.clash>
0.0000

> <Gold.PLP.ligand.torsion>
0.6325

> <Gold.PLP.Chemscore.Hbond>
4.7360

> <Gold.PLP.Chemscore.CHOScore>
0.0000

> <Gold.PLP.Chemscore.Metal>
0.0000

> <Gold.Chemscore.Hbonds>
donor molecule, donor type, donor heavy atom, donor atom, acceptor molecule, acceptor atom, score
      L1  H     6    42       P1  7948  2.00
      P1  H  6896  6907       L1    12  0.55
      P1  H  6931  6943       L1    18  1.00
      P1  H  6934  6947       L1    18  0.54

> <Gold.PLP.Chemscore.Internal.Correction>
0.2430

> <Gold.Rescore>
     Score         DG    S(hbond)    S(metal)    S(lipo)     H(rot)  DE(clash)    DE(int)     intcor
     12.91     -13.56       3.19        0.00      42.93       2.97       0.01       0.65       ----

> <Gold.Chemscore.Fitness>
12.9075

> <Gold.Chemscore.DG>
-13.5647

> <Gold.Chemscore.ZeroCoef>
-5.4800

> <Gold.Chemscore.Hbond>
3.1916

> <Gold.Chemscore.Metal>
0.0000

> <Gold.Chemscore.Lipo>
42.9283

> <Gold.Chemscore.Internal_Hbond>
0.0000

> <Gold.Chemscore.DEClash>
0.0099

> <Gold.Chemscore.DEInternal>
0.6473

> <Gold.Chemscore.Rot>
2.9680

> <Gold.Chemscore.Internal.Correction>
   9.000000E+99

> <Gold.Chemscore.Hbonds>
donor molecule, donor type, donor heavy atom, donor atom, acceptor molecule, acceptor atom, score
      L1  H     6    42       P1  7948  0.97
      P1  H  6896  6907       L1    12  0.56
      P1  H  6931  6943       L1    18  0.44
      P1  H  6934  6947       L1    18  0.38

> <Gold.Chemscore.Hbond.Weighted>
-10.6600

> <Gold.Chemscore.Metal.Weighted>
-0.0000

> <Gold.Chemscore.Lipo.Weighted>
-5.0226

> <Gold.Chemscore.Internal_Hbond.Weighted>
0.0000

> <Gold.Chemscore.DEClash.Weighted>
0.0099

> <Gold.Chemscore.DEInternal.Weighted>
0.6473

> <Gold.Chemscore.Rot.Weighted>
7.5980

> <Gold.Chemscore.Internal.Correction.Weighted>
   9.000000E+99

> <Gold.Protein.RotatedTorsions>
[ 6907 6896 6895 6894 ] final  -79.58 input  -60.11 | X-H torsion
[ 7974 7965 7964 7962 ] final  -17.29 input  175.53 | X-H torsion
[ 8008 7997 7996 7995 ] final   50.76 input   59.86 | X-H torsion
[ 10167 10162 10161 10158 ] final -109.13 input  -65.29 | X-H torsion
[ 10718 10713 10712 10709 ] final  105.19 input   66.30 | X-H torsion
[ 10763 10752 10751 10750 ] final   93.20 input  -60.55 | X-H torsion
[ 11005 11000 10999 10996 ] final -115.02 input  -57.11 | X-H torsion

> <Gold.Protein.ActiveResidues>
 VAL166  LYS551  ARG553  GLY616  TRP617  ASP618  TYR619  PRO620  LYS621  CYS622 
 ASP623  PHE694  ASN695  SER759  ASP760  ASP761  ALA762  ILE779  LEU786  VAL792 
 PHE793  MET794  SER795  GLU796  ALA797  LYS798  CYS799  TRP800  GLU811  SER814 

> <Gold.Protein.RotatedAtoms>
  150.6947  134.4100  159.5157 H   0  0  0  0  0  0  0  0  0  0  0  0  # atno 6907 bound_to 6896
  152.1860  134.8710  160.0531 H   0  0  0  0  0  0  0  0  0  0  0  0  # atno 6908 bound_to 6896
  151.9683  133.3683  159.4098 H   0  0  0  0  0  0  0  0  0  0  0  0  # atno 6909 bound_to 6896
  146.1948  140.3758  142.8445 H   0  0  0  0  0  0  0  0  0  0  0  0  # atno 7974 bound_to 7965
  155.4241  140.3448  155.4274 H   0  0  0  0  0  0  0  0  0  0  0  0  # atno 8008 bound_to 7997
  156.1375  140.1532  156.9002 H   0  0  0  0  0  0  0  0  0  0  0  0  # atno 8009 bound_to 7997
  154.4944  140.0832  156.7645 H   0  0  0  0  0  0  0  0  0  0  0  0  # atno 8010 bound_to 7997
  140.1587  143.4139  152.1442 H   0  0  0  0  0  0  0  0  0  0  0  0  # atno 10167 bound_to 10162
  157.6714  131.0822  150.5820 H   0  0  0  0  0  0  0  0  0  0  0  0  # atno 10718 bound_to 10713
  153.2277  135.4334  155.0560 H   0  0  0  0  0  0  0  0  0  0  0  0  # atno 10763 bound_to 10752
  154.8281  135.3371  154.6834 H   0  0  0  0  0  0  0  0  0  0  0  0  # atno 10764 bound_to 10752
  153.7263  135.7014  153.5056 H   0  0  0  0  0  0  0  0  0  0  0  0  # atno 10765 bound_to 10752
  141.0515  133.9680  157.2829 H   0  0  0  0  0  0  0  0  0  0  0  0  # atno 11005 bound_to 11000
  144.8558  140.7068  143.6139 LP  0  0  0  0  0  0  0  0  0  0  0  0  # atno 17320 bound_to 7965
  145.3679  139.1666  143.4348 LP  0  0  0  0  0  0  0  0  0  0  0  0  # atno 17321 bound_to 7965
  139.5391  144.7239  151.4792 LP  0  0  0  0  0  0  0  0  0  0  0  0  # atno 17342 bound_to 10162
  140.6657  143.8403  150.6939 LP  0  0  0  0  0  0  0  0  0  0  0  0  # atno 17343 bound_to 10162
  156.6120  130.4382  149.5855 LP  0  0  0  0  0  0  0  0  0  0  0  0  # atno 17370 bound_to 10713
  156.2423  130.6858  151.1567 LP  0  0  0  0  0  0  0  0  0  0  0  0  # atno 17371 bound_to 10713
  139.9354  135.0197  156.8538 LP  0  0  0  0  0  0  0  0  0  0  0  0  # atno 17394 bound_to 11000
  140.6047  134.0139  155.7551 LP  0  0  0  0  0  0  0  0  0  0  0  0  # atno 17395 bound_to 11000

$$$$
