AV-unprocessed.smi:1381|AV-procd|sdf|5605|dock7
  -GOLD-   22720 5213D 1   1.00000     0.00000
 Structure written by MMmdl.
 43 44  0  0  0  0  0  0  0  0  2 V2000
  153.4383  137.4788  156.8881 C   0  0  0  0  0  0  0  0  0  0  0  0
  152.4651  138.1704  155.9962 C   0  0  0  0  0  0  0  0  0  0  0  0
  151.4291  137.7235  155.2251 C   0  0  0  0  0  0  0  0  0  0  0  0
  150.9299  138.9164  154.6381 C   0  0  0  0  0  0  0  0  0  0  0  0
  149.8257  138.8833  153.7486 N   0  0  0  0  0  0  0  0  0  0  0  0
  148.5431  138.6150  154.0471 C   0  0  0  0  0  0  0  0  0  0  0  0
  148.1149  138.3524  155.1715 O   0  0  0  0  0  0  0  0  0  0  0  0
  147.7647  138.6651  152.9564 N   0  0  0  0  0  0  0  0  0  0  0  0
  146.3253  138.4311  152.9523 C   0  0  0  0  0  0  0  0  0  0  0  0
  145.9067  137.4990  151.7990 C   0  0  0  0  0  0  0  0  0  0  0  0
  146.3770  136.1055  151.9980 N   0  3  1  0  0  0  0  0  0  0  0  0
  146.0714  135.5954  153.3557 C   0  0  0  0  0  0  0  0  0  0  0  0
  146.6283  134.1709  153.5374 C   0  0  1  0  0  0  0  0  0  0  0  0
  146.2674  133.5789  154.9044 C   0  0  0  0  0  0  0  0  0  0  0  0
  146.0826  133.3274  152.5292 O   0  0  0  0  0  0  0  0  0  0  0  0
  146.4353  133.7463  151.2153 C   0  0  1  0  0  0  0  0  0  0  0  0
  145.8750  132.7231  150.2213 C   0  0  0  0  0  0  0  0  0  0  0  0
  145.8765  135.1606  150.9691 C   0  0  0  0  0  0  0  0  0  0  0  0
  151.5990  139.9942  155.0177 N   0  0  0  0  0  0  0  0  0  0  0  0
  152.5871  139.5214  155.8894 O   0  0  0  0  0  0  0  0  0  0  0  0
  153.1694  136.4306  157.0191 H   0  0  0  0  0  0  0  0  0  0  0  0
  153.4618  137.9473  157.8721 H   0  0  0  0  0  0  0  0  0  0  0  0
  154.4434  137.5202  156.4684 H   0  0  0  0  0  0  0  0  0  0  0  0
  151.0874  136.7066  155.1025 H   0  0  0  0  0  0  0  0  0  0  0  0
  150.0361  139.0874  152.7829 H   0  0  0  0  0  0  0  0  0  0  0  0
  148.1952  138.8896  152.0710 H   0  0  0  0  0  0  0  0  0  0  0  0
  146.0287  138.0285  153.9212 H   0  0  0  0  0  0  0  0  0  0  0  0
  145.8255  139.3947  152.8507 H   0  0  0  0  0  0  0  0  0  0  0  0
  144.8172  137.5044  151.7400 H   0  0  0  0  0  0  0  0  0  0  0  0
  146.2677  137.8709  150.8389 H   0  0  0  0  0  0  0  0  0  0  0  0
  146.5084  136.2573  154.1045 H   0  0  0  0  0  0  0  0  0  0  0  0
  144.9912  135.6025  153.5122 H   0  0  0  0  0  0  0  0  0  0  0  0
  147.7156  134.1859  153.4428 H   0  0  0  0  0  0  0  0  0  0  0  0
  146.6716  134.1861  155.7148 H   0  0  0  0  0  0  0  0  0  0  0  0
  146.6709  132.5718  155.0118 H   0  0  0  0  0  0  0  0  0  0  0  0
  145.1866  133.5199  155.0373 H   0  0  0  0  0  0  0  0  0  0  0  0
  147.5228  133.7595  151.1226 H   0  0  0  0  0  0  0  0  0  0  0  0
  146.1295  132.9920  149.1958 H   0  0  0  0  0  0  0  0  0  0  0  0
  144.7886  132.6585  150.2906 H   0  0  0  0  0  0  0  0  0  0  0  0
  146.2804  131.7296  150.4145 H   0  0  0  0  0  0  0  0  0  0  0  0
  144.7855  135.1425  150.9919 H   0  0  0  0  0  0  0  0  0  0  0  0
  146.1681  135.4934  149.9739 H   0  0  0  0  0  0  0  0  0  0  0  0
  147.3840  136.1241  151.9215 H   0  0  0  0  0  0  0  0  0  0  0  0
  1  2  1  0  0  0  0
  1 21  1  0  0  0  0
  1 22  1  0  0  0  0
  1 23  1  0  0  0  0
  2 20  1  0  0  0  0
  2  3  2  0  0  0  0
  3  4  1  0  0  0  0
  3 24  1  0  0  0  0
  4  5  1  0  0  0  0
  4 19  2  0  0  0  0
  5  6  1  0  0  0  0
  5 25  1  0  0  0  0
  6  7  2  0  0  0  0
  6  8  1  0  0  0  0
  8  9  1  0  0  0  0
  8 26  1  0  0  0  0
  9 10  1  0  0  0  0
  9 27  1  0  0  0  0
  9 28  1  0  0  0  0
 10 11  1  0  0  0  0
 10 29  1  0  0  0  0
 10 30  1  0  0  0  0
 11 18  1  0  0  0  0
 11 12  1  0  0  0  0
 11 43  1  0  0  0  0
 12 13  1  0  0  0  0
 12 31  1  0  0  0  0
 12 32  1  0  0  0  0
 13 14  1  0  0  0  0
 13 15  1  0  0  0  0
 13 33  1  0  0  0  0
 14 34  1  0  0  0  0
 14 35  1  0  0  0  0
 14 36  1  0  0  0  0
 15 16  1  0  0  0  0
 16 17  1  0  0  0  0
 16 18  1  0  0  0  0
 16 37  1  0  0  0  0
 17 38  1  0  0  0  0
 17 39  1  0  0  0  0
 17 40  1  0  0  0  0
 18 41  1  0  0  0  0
 18 42  1  0  0  0  0
 19 20  1  0  0  0  0
M  CHG  1  11   1
M  END
> <s_m_source_file>
AV-unprocessed.smi

> <i_m_source_file_index>
1381

> <i_lp_mmshare_version>
43012

> <i_f3d_flags>
0

> <s_epik_input>
W0NIM11jMVtjSF1jKG5vMSlbTkhdQyg9TylbTkhdW0NIMl1bQ0gyXU4yW0NIMl1bQ0BASF0oW0NIM10pT1tDQEBIXShbQ0gzXSlbQ0gyXTI=

> <s_epik_cmdline>
J2VwaWtfcHl0aG9uJywgJy1waCcsICc3LjAnLCAnLXRuJywgJzgnLCAnLW1hJywgJzIwMCcsICctbWV0YWxfYmluZGluZycsICctaW1hZScsICc8aW5maWxlLm1hZT4nLCAnLW9tYWUnLCAnPG91dGZpbGUubWFlPic=

> <r_epik_Ionization_Penalty>
0.707076

> <r_epik_Ionization_Penalty_Charging>
0.707039

> <r_epik_Ionization_Penalty_Neutral>
3.6548e-05

> <r_epik_State_Penalty>
0.730276

> <r_epik_Charging_Adjusted_Penalty>
1.43732

> <i_epik_Tot_Q>
1

> <i_epik_Tot_abs_Q>
1

> <r_epik_Metal_State_Penalty>
0.743132

> <b_epik_Metal_Only>
0

> <s_lp_Force_Field>
OPLS_2005

> <r_lp_Energy>
11.2606

> <b_lp_Chiralities_Consistent>
1

> <s_lp_Variant>
AV-unprocessed.smi:1381-4

> <Gold.Version>
5.8.1

> <Gold.Id.Protein>
6NUR|6NUR_protein|mol2

> <Gold.PLP.Fitness>
46.9379

> <Gold.PLP.PLP>
-30.8087

> <Gold.PLP.part.hbond>
-6.0000

> <Gold.PLP.part.metal>
0.0000

> <Gold.PLP.part.buried>
-4.0757

> <Gold.PLP.part.nonpolar>
-21.9813

> <Gold.PLP.part.repulsive>
0.4322

> <Gold.PLP.ligand.clash>
0.0000

> <Gold.PLP.ligand.torsion>
0.8112

> <Gold.PLP.Chemscore.Hbond>
5.9120

> <Gold.PLP.Chemscore.CHOScore>
0.0000

> <Gold.PLP.Chemscore.Metal>
0.0000

> <Gold.Chemscore.Hbonds>
donor molecule, donor type, donor heavy atom, donor atom, acceptor molecule, acceptor atom, score
      L1  H     5    25       P1  7957  1.00
      L1  H     8    26       P1  7957  0.91
      L1  H    11    43       P1  7948  2.00
      P1  H  7989  7998       L1    19  1.00
      P1  H  7997  8009       L1    20  1.00

> <Gold.PLP.Chemscore.Internal.Correction>
0.0158

> <Gold.Rescore>
     Score         DG    S(hbond)    S(metal)    S(lipo)     H(rot)  DE(clash)    DE(int)     intcor
     20.97     -21.76       4.06        0.00      58.37       1.61       0.10       0.69       ----

> <Gold.Chemscore.Fitness>
20.9691

> <Gold.Chemscore.DG>
-21.7575

> <Gold.Chemscore.ZeroCoef>
-5.4800

> <Gold.Chemscore.Hbond>
4.0613

> <Gold.Chemscore.Metal>
0.0000

> <Gold.Chemscore.Lipo>
58.3711

> <Gold.Chemscore.Internal_Hbond>
0.0000

> <Gold.Chemscore.DEClash>
0.1029

> <Gold.Chemscore.DEInternal>
0.6855

> <Gold.Chemscore.Rot>
1.6081

> <Gold.Chemscore.Internal.Correction>
   9.000000E+99

> <Gold.Chemscore.Hbonds>
donor molecule, donor type, donor heavy atom, donor atom, acceptor molecule, acceptor atom, score
      L1  H     5    25       P1  7957  0.77
      L1  H     8    26       P1  7957  0.83
      L1  H    11    43       P1  7948  0.95
      P1  H  7989  7998       L1    19  0.25
      P1  H  7997  8009       L1    20  0.88

> <Gold.Chemscore.Hbond.Weighted>
-13.5648

> <Gold.Chemscore.Metal.Weighted>
-0.0000

> <Gold.Chemscore.Lipo.Weighted>
-6.8294

> <Gold.Chemscore.Internal_Hbond.Weighted>
0.0000

> <Gold.Chemscore.DEClash.Weighted>
0.1029

> <Gold.Chemscore.DEInternal.Weighted>
0.6855

> <Gold.Chemscore.Rot.Weighted>
4.1167

> <Gold.Chemscore.Internal.Correction.Weighted>
   9.000000E+99

> <Gold.Protein.RotatedTorsions>
[ 6907 6896 6895 6894 ] final -167.94 input  -60.11 | X-H torsion
[ 7974 7965 7964 7962 ] final   -9.91 input  175.53 | X-H torsion
[ 8008 7997 7996 7995 ] final -153.17 input   59.86 | X-H torsion
[ 10167 10162 10161 10158 ] final  108.78 input  -65.29 | X-H torsion
[ 10718 10713 10712 10709 ] final   69.29 input   66.30 | X-H torsion
[ 10763 10752 10751 10750 ] final   16.45 input  -60.55 | X-H torsion
[ 11005 11000 10999 10996 ] final  114.69 input  -57.11 | X-H torsion

> <Gold.Protein.ActiveResidues>
 VAL166  LYS551  ARG553  GLY616  TRP617  ASP618  TYR619  PRO620  LYS621  CYS622 
 ASP623  PHE694  ASN695  SER759  ASP760  ASP761  ALA762  ILE779  LEU786  VAL792 
 PHE793  MET794  SER795  GLU796  ALA797  LYS798  CYS799  TRP800  GLU811  SER814 

> <Gold.Protein.RotatedAtoms>
  151.4676  133.3577  159.2818 H   0  0  0  0  0  0  0  0  0  0  0  0  # atno 6907 bound_to 6896
  150.8983  134.8395  159.7353 H   0  0  0  0  0  0  0  0  0  0  0  0  # atno 6908 bound_to 6896
  152.4864  134.4593  159.9652 H   0  0  0  0  0  0  0  0  0  0  0  0  # atno 6909 bound_to 6896
  146.2237  140.2687  142.8355 H   0  0  0  0  0  0  0  0  0  0  0  0  # atno 7974 bound_to 7965
  155.6667  140.0728  157.2535 H   0  0  0  0  0  0  0  0  0  0  0  0  # atno 8008 bound_to 7997
  154.4131  140.1706  156.1886 H   0  0  0  0  0  0  0  0  0  0  0  0  # atno 8009 bound_to 7997
  155.9651  140.3366  155.6528 H   0  0  0  0  0  0  0  0  0  0  0  0  # atno 8010 bound_to 7997
  139.6819  144.7117  151.1501 H   0  0  0  0  0  0  0  0  0  0  0  0  # atno 10167 bound_to 10162
  157.6337  130.9418  150.0493 H   0  0  0  0  0  0  0  0  0  0  0  0  # atno 10718 bound_to 10713
  153.1429  135.6763  153.8999 H   0  0  0  0  0  0  0  0  0  0  0  0  # atno 10763 bound_to 10752
  153.8449  135.3100  155.3430 H   0  0  0  0  0  0  0  0  0  0  0  0  # atno 10764 bound_to 10752
  154.7802  135.4892  153.9913 H   0  0  0  0  0  0  0  0  0  0  0  0  # atno 10765 bound_to 10752
  139.8988  134.9572  156.6931 H   0  0  0  0  0  0  0  0  0  0  0  0  # atno 11005 bound_to 11000
  144.9285  140.7948  143.5704 LP  0  0  0  0  0  0  0  0  0  0  0  0  # atno 17320 bound_to 7965
  145.2628  139.1985  143.4883 LP  0  0  0  0  0  0  0  0  0  0  0  0  # atno 17321 bound_to 7965
  140.7655  143.5687  150.9020 LP  0  0  0  0  0  0  0  0  0  0  0  0  # atno 17342 bound_to 10162
  139.9359  143.6438  152.3065 LP  0  0  0  0  0  0  0  0  0  0  0  0  # atno 17343 bound_to 10162
  156.1560  130.3643  149.9368 LP  0  0  0  0  0  0  0  0  0  0  0  0  # atno 17370 bound_to 10713
  156.7377  130.9067  151.3630 LP  0  0  0  0  0  0  0  0  0  0  0  0  # atno 17371 bound_to 10713
  140.7209  133.9141  155.8146 LP  0  0  0  0  0  0  0  0  0  0  0  0  # atno 17394 bound_to 11000
  141.0228  134.0865  157.4102 LP  0  0  0  0  0  0  0  0  0  0  0  0  # atno 17395 bound_to 11000

$$$$
