AV-unprocessed.smi:2510|AV-procd|sdf|9871|dock4
  -GOLD-   2272013503D 1   1.00000     0.00000
 Structure written by MMmdl.
 48 49  0  0  0  0  0  0  0  0  1 V2000
  149.7548  138.7094  154.0270 C   0  0  0  0  0  0  0  0  0  0  0  0
  148.3129  138.6625  154.5521 C   0  0  0  0  0  0  0  0  0  0  0  0
  147.3927  139.8124  154.0857 C   0  0  0  0  0  0  0  0  0  0  0  0
  147.1636  139.6535  152.5505 C   0  0  0  0  0  0  0  0  0  0  0  0
  146.4979  138.3440  152.0920 C   0  0  0  0  0  0  0  0  0  0  0  0
  146.1177  139.9850  154.9617 C   0  0  2  0  0  0  0  0  0  0  0  0
  144.8956  139.4179  154.4022 N   0  0  0  0  0  0  0  0  0  0  0  0
  144.3663  138.2435  154.7751 C   0  0  0  0  0  0  0  0  0  0  0  0
  144.8241  137.5518  155.6846 O   0  0  0  0  0  0  0  0  0  0  0  0
  143.1477  137.7644  153.9865 C   0  0  0  0  0  0  0  0  0  0  0  0
  143.3612  136.3436  153.5364 C   0  0  0  0  0  0  0  0  0  0  0  0
  143.6591  135.8724  152.2227 C   0  0  0  0  0  0  0  0  0  0  0  0
  143.7700  134.5181  152.3653 C   0  0  0  0  0  0  0  0  0  0  0  0
  144.0783  133.4440  151.3785 C   0  0  0  0  0  0  0  0  0  0  0  0
  143.5304  134.2511  153.6933 N   0  0  0  0  0  0  0  0  0  0  0  0
  143.2778  135.3566  154.4179 N   0  0  0  0  0  0  0  0  0  0  0  0
  146.2283  141.5003  154.7633 C   0  0  1  0  0  0  0  0  0  0  0  0
  145.7039  142.4433  155.8388 C   0  0  0  0  0  0  0  0  0  0  0  0
  147.7396  141.2429  154.5981 C   0  0  1  0  0  0  0  0  0  0  0  0
  148.4296  141.2065  155.8443 O   0  0  0  0  0  0  0  0  0  0  0  0
  149.8402  141.1961  155.7038 C   0  0  0  0  0  0  0  0  0  0  0  0
  143.5367  133.3324  154.1136 H   0  0  0  0  0  0  0  0  0  0  0  0
  150.3715  137.9734  154.5427 H   0  0  0  0  0  0  0  0  0  0  0  0
  150.2088  139.6878  154.1850 H   0  0  0  0  0  0  0  0  0  0  0  0
  149.8030  138.4727  152.9651 H   0  0  0  0  0  0  0  0  0  0  0  0
  147.8734  137.6975  154.2974 H   0  0  0  0  0  0  0  0  0  0  0  0
  148.3642  138.6574  155.6414 H   0  0  0  0  0  0  0  0  0  0  0  0
  146.5801  140.4909  152.1659 H   0  0  0  0  0  0  0  0  0  0  0  0
  148.1047  139.7101  152.0055 H   0  0  0  0  0  0  0  0  0  0  0  0
  146.2352  138.4034  151.0357 H   0  0  0  0  0  0  0  0  0  0  0  0
  145.5879  138.1162  152.6427 H   0  0  0  0  0  0  0  0  0  0  0  0
  147.1736  137.4960  152.2012 H   0  0  0  0  0  0  0  0  0  0  0  0
  146.2806  139.7108  156.0074 H   0  0  0  0  0  0  0  0  0  0  0  0
  144.4545  139.9256  153.6492 H   0  0  0  0  0  0  0  0  0  0  0  0
  142.2589  137.8490  154.6136 H   0  0  0  0  0  0  0  0  0  0  0  0
  142.9833  138.4150  153.1266 H   0  0  0  0  0  0  0  0  0  0  0  0
  143.7824  136.4455  151.3159 H   0  0  0  0  0  0  0  0  0  0  0  0
  144.4880  133.8652  150.4602 H   0  0  0  0  0  0  0  0  0  0  0  0
  143.1782  132.8851  151.1218 H   0  0  0  0  0  0  0  0  0  0  0  0
  144.8096  132.7429  151.7817 H   0  0  0  0  0  0  0  0  0  0  0  0
  145.8148  141.7809  153.7922 H   0  0  0  0  0  0  0  0  0  0  0  0
  146.0851  142.1791  156.8254 H   0  0  0  0  0  0  0  0  0  0  0  0
  144.6157  142.4107  155.8904 H   0  0  0  0  0  0  0  0  0  0  0  0
  145.9926  143.4743  155.6354 H   0  0  0  0  0  0  0  0  0  0  0  0
  148.2288  141.8840  153.8653 H   0  0  0  0  0  0  0  0  0  0  0  0
  150.3057  141.2102  156.6891 H   0  0  0  0  0  0  0  0  0  0  0  0
  150.1969  142.0649  155.1508 H   0  0  0  0  0  0  0  0  0  0  0  0
  150.1733  140.2945  155.1884 H   0  0  0  0  0  0  0  0  0  0  0  0
  1  2  1  0  0  0  0
  1 23  1  0  0  0  0
  1 24  1  0  0  0  0
  1 25  1  0  0  0  0
  2  3  1  0  0  0  0
  2 26  1  0  0  0  0
  2 27  1  0  0  0  0
  3 19  1  0  0  0  0
  3  4  1  0  0  0  0
  3  6  1  0  0  0  0
  4  5  1  0  0  0  0
  4 28  1  0  0  0  0
  4 29  1  0  0  0  0
  5 30  1  0  0  0  0
  5 31  1  0  0  0  0
  5 32  1  0  0  0  0
  6  7  1  0  0  0  0
  6 17  1  0  0  0  0
  6 33  1  0  0  0  0
  7  8  1  0  0  0  0
  7 34  1  0  0  0  0
  8  9  2  0  0  0  0
  8 10  1  0  0  0  0
 10 11  1  0  0  0  0
 10 35  1  0  0  0  0
 10 36  1  0  0  0  0
 11 16  2  0  0  0  0
 11 12  1  0  0  0  0
 12 13  2  0  0  0  0
 12 37  1  0  0  0  0
 13 14  1  0  0  0  0
 13 15  1  0  0  0  0
 14 38  1  0  0  0  0
 14 39  1  0  0  0  0
 14 40  1  0  0  0  0
 15 22  1  0  0  0  0
 15 16  1  0  0  0  0
 17 18  1  0  0  0  0
 17 19  1  0  0  0  0
 17 41  1  0  0  0  0
 18 42  1  0  0  0  0
 18 43  1  0  0  0  0
 18 44  1  0  0  0  0
 19 20  1  0  0  0  0
 19 45  1  0  0  0  0
 20 21  1  0  0  0  0
 21 46  1  0  0  0  0
 21 47  1  0  0  0  0
 21 48  1  0  0  0  0
M  END
> <s_m_source_file>
AV-unprocessed.smi

> <i_m_source_file_index>
2510

> <i_lp_mmshare_version>
43012

> <i_f3d_flags>
0

> <s_epik_input>
W0NIM11PW0NAQEhdMVtDQEhdKFtDSDNdKVtDQEBIXShDMShbQ0gyXVtDSDNdKVtDSDJdW0NIM10pW05IXUMoPU8pW0NIMl1jMltjSF1jKFtDSDNdKVtuSF1uMg==

> <s_epik_cmdline>
J2VwaWtfcHl0aG9uJywgJy1waCcsICc3LjAnLCAnLXRuJywgJzgnLCAnLW1hJywgJzIwMCcsICctbWV0YWxfYmluZGluZycsICctaW1hZScsICc8aW5maWxlLm1hZT4nLCAnLW9tYWUnLCAnPG91dGZpbGUubWFlPic=

> <r_lp_tautomer_probability>
0.5

> <r_epik_Ionization_Penalty>
9.73156e-05

> <r_epik_Ionization_Penalty_Charging>
0

> <r_epik_Ionization_Penalty_Neutral>
9.73156e-05

> <r_epik_State_Penalty>
0.41068

> <r_epik_Charging_Adjusted_Penalty>
0.41068

> <i_epik_Tot_Q>
0

> <i_epik_Tot_abs_Q>
0

> <r_epik_Metal_State_Penalty>
0.410699

> <b_epik_Metal_Only>
0

> <s_lp_Force_Field>
OPLS_2005

> <r_lp_Energy>
28.8176

> <b_lp_Chiralities_Consistent>
1

> <s_lp_Variant>
AV-unprocessed.smi:2510-2

> <Gold.Version>
5.8.1

> <Gold.Id.Protein>
6NUR|6NUR_protein|mol2

> <Gold.PLP.Fitness>
32.4693

> <Gold.PLP.PLP>
-27.7471

> <Gold.PLP.part.hbond>
-1.9805

> <Gold.PLP.part.metal>
0.0000

> <Gold.PLP.part.buried>
0.0652

> <Gold.PLP.part.nonpolar>
-26.6449

> <Gold.PLP.part.repulsive>
0.1723

> <Gold.PLP.ligand.clash>
0.0000

> <Gold.PLP.ligand.torsion>
0.9516

> <Gold.PLP.Chemscore.Hbond>
1.9833

> <Gold.PLP.Chemscore.CHOScore>
0.0000

> <Gold.PLP.Chemscore.Metal>
0.0000

> <Gold.Chemscore.Hbonds>
donor molecule, donor type, donor heavy atom, donor atom, acceptor molecule, acceptor atom, score
      L1  H     7    34       P1 10175  0.93
      L1  H    15    22       P1 10957  1.00

> <Gold.PLP.Chemscore.Internal.Correction>
0.6757

> <Gold.Rescore>
     Score         DG    S(hbond)    S(metal)    S(lipo)     H(rot)  DE(clash)    DE(int)     intcor
     13.69     -16.14       1.99        0.00      73.84       1.81       1.30       1.15       ----

> <Gold.Chemscore.Fitness>
13.6866

> <Gold.Chemscore.DG>
-16.1361

> <Gold.Chemscore.ZeroCoef>
-5.4800

> <Gold.Chemscore.Hbond>
1.9914

> <Gold.Chemscore.Metal>
0.0000

> <Gold.Chemscore.Lipo>
73.8375

> <Gold.Chemscore.Internal_Hbond>
0.0000

> <Gold.Chemscore.DEClash>
1.3013

> <Gold.Chemscore.DEInternal>
1.1483

> <Gold.Chemscore.Rot>
1.8102

> <Gold.Chemscore.Internal.Correction>
   9.000000E+99

> <Gold.Chemscore.Hbonds>
donor molecule, donor type, donor heavy atom, donor atom, acceptor molecule, acceptor atom, score
      L1  H     7    34       P1 10175  0.89
      L1  H    15    22       P1 10957  0.97

> <Gold.Chemscore.Hbond.Weighted>
-6.6512

> <Gold.Chemscore.Metal.Weighted>
-0.0000

> <Gold.Chemscore.Lipo.Weighted>
-8.6390

> <Gold.Chemscore.Internal_Hbond.Weighted>
0.0000

> <Gold.Chemscore.DEClash.Weighted>
1.3013

> <Gold.Chemscore.DEInternal.Weighted>
1.1483

> <Gold.Chemscore.Rot.Weighted>
4.6341

> <Gold.Chemscore.Internal.Correction.Weighted>
   9.000000E+99

> <Gold.Protein.RotatedTorsions>
[ 6907 6896 6895 6894 ] final  127.17 input  -60.11 | X-H torsion
[ 7974 7965 7964 7962 ] final   70.91 input  175.53 | X-H torsion
[ 8008 7997 7996 7995 ] final  -16.92 input   59.86 | X-H torsion
[ 10167 10162 10161 10158 ] final  131.86 input  -65.29 | X-H torsion
[ 10718 10713 10712 10709 ] final  156.41 input   66.30 | X-H torsion
[ 10763 10752 10751 10750 ] final  104.24 input  -60.55 | X-H torsion
[ 11005 11000 10999 10996 ] final -177.20 input  -57.11 | X-H torsion

> <Gold.Protein.ActiveResidues>
 VAL166  LYS551  ARG553  GLY616  TRP617  ASP618  TYR619  PRO620  LYS621  CYS622 
 ASP623  PHE694  ASN695  SER759  ASP760  ASP761  ALA762  ILE779  LEU786  VAL792 
 PHE793  MET794  SER795  GLU796  ALA797  LYS798  CYS799  TRP800  GLU811  SER814 

> <Gold.Protein.RotatedAtoms>
  152.3837  133.6581  159.6181 H   0  0  0  0  0  0  0  0  0  0  0  0  # atno 6907 bound_to 6896
  150.7761  133.9071  159.3367 H   0  0  0  0  0  0  0  0  0  0  0  0  # atno 6908 bound_to 6896
  151.6871  135.0954  160.0278 H   0  0  0  0  0  0  0  0  0  0  0  0  # atno 6909 bound_to 6896
  145.7723  139.2849  143.1314 H   0  0  0  0  0  0  0  0  0  0  0  0  # atno 7974 bound_to 7965
  154.5017  140.2156  155.9333 H   0  0  0  0  0  0  0  0  0  0  0  0  # atno 8008 bound_to 7997
  156.1442  140.3174  155.8511 H   0  0  0  0  0  0  0  0  0  0  0  0  # atno 8009 bound_to 7997
  155.4063  140.0487  157.3025 H   0  0  0  0  0  0  0  0  0  0  0  0  # atno 8010 bound_to 7997
  139.5365  144.6687  151.4769 H   0  0  0  0  0  0  0  0  0  0  0  0  # atno 10167 bound_to 10162
  157.2054  131.0685  151.2001 H   0  0  0  0  0  0  0  0  0  0  0  0  # atno 10718 bound_to 10713
  153.3633  135.3950  155.1734 H   0  0  0  0  0  0  0  0  0  0  0  0  # atno 10763 bound_to 10752
  154.8683  135.3685  154.5071 H   0  0  0  0  0  0  0  0  0  0  0  0  # atno 10764 bound_to 10752
  153.5533  135.7082  153.5642 H   0  0  0  0  0  0  0  0  0  0  0  0  # atno 10765 bound_to 10752
  140.4435  134.6409  157.4769 H   0  0  0  0  0  0  0  0  0  0  0  0  # atno 11005 bound_to 11000
  146.0157  140.8394  142.9948 LP  0  0  0  0  0  0  0  0  0  0  0  0  # atno 17320 bound_to 7965
  144.6810  140.2555  143.7326 LP  0  0  0  0  0  0  0  0  0  0  0  0  # atno 17321 bound_to 7965
  140.6574  143.8571  150.6850 LP  0  0  0  0  0  0  0  0  0  0  0  0  # atno 17342 bound_to 10162
  140.1955  143.4002  152.1831 LP  0  0  0  0  0  0  0  0  0  0  0  0  # atno 17343 bound_to 10162
  157.3726  130.7189  149.6575 LP  0  0  0  0  0  0  0  0  0  0  0  0  # atno 17370 bound_to 10713
  155.9696  130.4194  150.4376 LP  0  0  0  0  0  0  0  0  0  0  0  0  # atno 17371 bound_to 10713
  140.0054  134.6772  155.9464 LP  0  0  0  0  0  0  0  0  0  0  0  0  # atno 17394 bound_to 11000
  141.1695  133.6537  156.4600 LP  0  0  0  0  0  0  0  0  0  0  0  0  # atno 17395 bound_to 11000

$$$$
