AV-unprocessed.smi:605|AV-procd|sdf|3040|dock10
  -GOLD-   2262023563D 1   1.00000     0.00000
 Structure written by MMmdl.
 34 35  0  0  0  0  0  0  0  0  2 V2000
  152.5096  143.7867  159.0148 C   0  0  0  0  0  0  0  0  0  0  0  0
  152.2026  142.3006  159.2498 C   0  0  0  0  0  0  0  0  0  0  0  0
  153.2920  141.5800  160.0574 C   0  0  0  0  0  0  0  0  0  0  0  0
  151.8791  141.5831  157.9767 C   0  0  0  0  0  0  0  0  0  0  0  0
  152.5461  140.5036  157.5567 N   0  0  0  0  0  0  0  0  0  0  0  0
  152.0554  140.0187  156.3537 N   0  0  0  0  0  0  0  0  0  0  0  0
  151.0192  140.7277  155.8847 C   0  0  0  0  0  0  0  0  0  0  0  0
  150.3904  140.4167  154.7360 N   0  5  0  0  0  0  0  0  0  0  0  0
  149.0511  140.1922  154.6729 C   0  0  0  0  0  0  0  0  0  0  0  0
  148.3370  140.0885  155.6694 O   0  0  0  0  0  0  0  0  0  0  0  0
  148.4886  140.0811  153.4537 N   0  0  0  0  0  0  0  0  0  0  0  0
  147.0765  139.8352  153.1720 C   0  0  0  0  0  0  0  0  0  0  0  0
  146.6646  138.4300  153.6523 C   0  0  0  0  0  0  0  0  0  0  0  0
  145.9314  137.7767  152.4793 C   0  0  0  0  0  0  0  0  0  0  0  0
  146.5475  138.4209  151.2418 C   0  0  0  0  0  0  0  0  0  0  0  0
  146.7892  139.8718  151.6579 C   0  0  0  0  0  0  0  0  0  0  0  0
  150.5822  142.0946  156.9083 S   0  0  0  0  0  0  0  0  0  0  0  0
  151.6790  144.2840  158.5126 H   0  0  0  0  0  0  0  0  0  0  0  0
  153.3978  143.9145  158.3955 H   0  0  0  0  0  0  0  0  0  0  0  0
  152.6843  144.3064  159.9572 H   0  0  0  0  0  0  0  0  0  0  0  0
  151.2983  142.2676  159.8587 H   0  0  0  0  0  0  0  0  0  0  0  0
  153.0018  140.5519  160.2764 H   0  0  0  0  0  0  0  0  0  0  0  0
  153.4734  142.0820  161.0080 H   0  0  0  0  0  0  0  0  0  0  0  0
  154.2357  141.5508  159.5120 H   0  0  0  0  0  0  0  0  0  0  0  0
  149.0968  140.1802  152.6542 H   0  0  0  0  0  0  0  0  0  0  0  0
  146.4661  140.5850  153.6784 H   0  0  0  0  0  0  0  0  0  0  0  0
  147.5450  137.8331  153.8967 H   0  0  0  0  0  0  0  0  0  0  0  0
  146.0449  138.4673  154.5487 H   0  0  0  0  0  0  0  0  0  0  0  0
  146.0246  136.6904  152.4785 H   0  0  0  0  0  0  0  0  0  0  0  0
  144.8694  138.0205  152.5282 H   0  0  0  0  0  0  0  0  0  0  0  0
  147.5005  137.9415  151.0132 H   0  0  0  0  0  0  0  0  0  0  0  0
  145.9104  138.3370  150.3609 H   0  0  0  0  0  0  0  0  0  0  0  0
  145.8831  140.4527  151.4803 H   0  0  0  0  0  0  0  0  0  0  0  0
  147.5851  140.3368  151.0746 H   0  0  0  0  0  0  0  0  0  0  0  0
  1  2  1  0  0  0  0
  1 18  1  0  0  0  0
  1 19  1  0  0  0  0
  1 20  1  0  0  0  0
  2  3  1  0  0  0  0
  2  4  1  0  0  0  0
  2 21  1  0  0  0  0
  3 22  1  0  0  0  0
  3 23  1  0  0  0  0
  3 24  1  0  0  0  0
  4 17  1  0  0  0  0
  4  5  2  0  0  0  0
  5  6  1  0  0  0  0
  6  7  2  0  0  0  0
  7  8  1  0  0  0  0
  7 17  1  0  0  0  0
  8  9  1  0  0  0  0
  9 10  2  0  0  0  0
  9 11  1  0  0  0  0
 11 12  1  0  0  0  0
 11 25  1  0  0  0  0
 12 16  1  0  0  0  0
 12 13  1  0  0  0  0
 12 26  1  0  0  0  0
 13 14  1  0  0  0  0
 13 27  1  0  0  0  0
 13 28  1  0  0  0  0
 14 15  1  0  0  0  0
 14 29  1  0  0  0  0
 14 30  1  0  0  0  0
 15 16  1  0  0  0  0
 15 31  1  0  0  0  0
 15 32  1  0  0  0  0
 16 33  1  0  0  0  0
 16 34  1  0  0  0  0
M  CHG  1   8  -1
M  END
> <s_m_source_file>
AV-unprocessed.smi

> <i_m_source_file_index>
605

> <i_lp_mmshare_version>
43012

> <i_f3d_flags>
0

> <s_epik_input>
W0NIM11bQ0hdKFtDSDNdKWMxbm5jKHMxKVtOSF1DKD1PKVtOSF1bQ0hdMltDSDJdW0NIMl1bQ0gyXVtDSDJdMg==

> <s_epik_cmdline>
J2VwaWtfcHl0aG9uJywgJy1waCcsICc3LjAnLCAnLXRuJywgJzgnLCAnLW1hJywgJzIwMCcsICctbWV0YWxfYmluZGluZycsICctaW1hZScsICc8aW5maWxlLm1hZT4nLCAnLW9tYWUnLCAnPG91dGZpbGUubWFlPic=

> <r_lp_tautomer_probability>
1

> <r_epik_Ionization_Penalty>
4.57432

> <r_epik_Ionization_Penalty_Charging>
4.40687

> <r_epik_Ionization_Penalty_Neutral>
0.167446

> <r_epik_State_Penalty>
4.40652

> <r_epik_Charging_Adjusted_Penalty>
8.8134

> <i_epik_Tot_Q>
-1

> <i_epik_Tot_abs_Q>
1

> <r_epik_Metal_State_Penalty>
0.774635

> <b_epik_Metal_Only>
1

> <s_lp_Force_Field>
OPLS_2005

> <r_lp_Energy>
11.4858

> <b_lp_Chiralities_Consistent>
1

> <s_lp_Variant>
AV-unprocessed.smi:605-2

> <Gold.Version>
5.8.1

> <Gold.Id.Protein>
6NUR|6NUR_protein|mol2

> <Gold.PLP.Fitness>
39.2719

> <Gold.PLP.PLP>
-34.3899

> <Gold.PLP.part.hbond>
-2.9923

> <Gold.PLP.part.metal>
0.0000

> <Gold.PLP.part.buried>
0.9490

> <Gold.PLP.part.nonpolar>
-33.4848

> <Gold.PLP.part.repulsive>
0.2315

> <Gold.PLP.ligand.clash>
0.0000

> <Gold.PLP.ligand.torsion>
0.5987

> <Gold.PLP.Chemscore.Hbond>
2.0000

> <Gold.PLP.Chemscore.CHOScore>
0.0000

> <Gold.PLP.Chemscore.Metal>
0.0000

> <Gold.Chemscore.Hbonds>
donor molecule, donor type, donor heavy atom, donor atom, acceptor molecule, acceptor atom, score
      L1  H    11    25       P1  7957  1.00
      P1  H  7989  7998       L1     8  1.00

> <Gold.PLP.Chemscore.Internal.Correction>
0.0795

> <Gold.Rescore>
     Score         DG    S(hbond)    S(metal)    S(lipo)     H(rot)  DE(clash)    DE(int)     intcor
     16.70     -18.74       1.64        0.00      92.48       1.18       1.24       0.80       ----

> <Gold.Chemscore.Fitness>
16.7037

> <Gold.Chemscore.DG>
-18.7415

> <Gold.Chemscore.ZeroCoef>
-5.4800

> <Gold.Chemscore.Hbond>
1.6378

> <Gold.Chemscore.Metal>
0.0000

> <Gold.Chemscore.Lipo>
92.4844

> <Gold.Chemscore.Internal_Hbond>
0.0000

> <Gold.Chemscore.DEClash>
1.2426

> <Gold.Chemscore.DEInternal>
0.7953

> <Gold.Chemscore.Rot>
1.1833

> <Gold.Chemscore.Internal.Correction>
   9.000000E+99

> <Gold.Chemscore.Hbonds>
donor molecule, donor type, donor heavy atom, donor atom, acceptor molecule, acceptor atom, score
      L1  H    11    25       P1  7957  0.97
      P1  H  7989  7998       L1     8  0.33

> <Gold.Chemscore.Hbond.Weighted>
-5.4702

> <Gold.Chemscore.Metal.Weighted>
-0.0000

> <Gold.Chemscore.Lipo.Weighted>
-10.8207

> <Gold.Chemscore.Internal_Hbond.Weighted>
0.0000

> <Gold.Chemscore.DEClash.Weighted>
1.2426

> <Gold.Chemscore.DEInternal.Weighted>
0.7953

> <Gold.Chemscore.Rot.Weighted>
3.0293

> <Gold.Chemscore.Internal.Correction.Weighted>
   9.000000E+99

> <Gold.Protein.RotatedTorsions>
[ 6907 6896 6895 6894 ] final -150.48 input  -60.11 | X-H torsion
[ 7974 7965 7964 7962 ] final  172.17 input  175.53 | X-H torsion
[ 8008 7997 7996 7995 ] final -167.36 input   59.86 | X-H torsion
[ 10167 10162 10161 10158 ] final -134.84 input  -65.29 | X-H torsion
[ 10718 10713 10712 10709 ] final   17.59 input   66.30 | X-H torsion
[ 10763 10752 10751 10750 ] final  -59.84 input  -60.55 | X-H torsion
[ 11005 11000 10999 10996 ] final  154.76 input  -57.11 | X-H torsion

> <Gold.Protein.ActiveResidues>
 VAL166  LYS551  ARG553  GLY616  TRP617  ASP618  TYR619  PRO620  LYS621  CYS622 
 ASP623  PHE694  ASN695  SER759  ASP760  ASP761  ALA762  ILE779  LEU786  VAL792 
 PHE793  MET794  SER795  GLU796  ALA797  LYS798  CYS799  TRP800  GLU811  SER814 

> <Gold.Protein.RotatedAtoms>
  151.1992  133.4621  159.2595 H   0  0  0  0  0  0  0  0  0  0  0  0  # atno 6907 bound_to 6896
  151.1086  135.0014  159.8493 H   0  0  0  0  0  0  0  0  0  0  0  0  # atno 6908 bound_to 6896
  152.5449  134.1913  159.8728 H   0  0  0  0  0  0  0  0  0  0  0  0  # atno 6909 bound_to 6896
  144.7275  139.9459  143.6430 H   0  0  0  0  0  0  0  0  0  0  0  0  # atno 7974 bound_to 7965
  155.8766  140.1002  157.1514 H   0  0  0  0  0  0  0  0  0  0  0  0  # atno 8008 bound_to 7997
  154.4001  140.1337  156.4207 H   0  0  0  0  0  0  0  0  0  0  0  0  # atno 8009 bound_to 7997
  155.7691  140.3461  155.5240 H   0  0  0  0  0  0  0  0  0  0  0  0  # atno 8010 bound_to 7997
  139.8839  143.6805  152.2623 H   0  0  0  0  0  0  0  0  0  0  0  0  # atno 10167 bound_to 10162
  157.0842  130.6401  149.5833 H   0  0  0  0  0  0  0  0  0  0  0  0  # atno 10718 bound_to 10713
  154.2599  135.6310  153.5271 H   0  0  0  0  0  0  0  0  0  0  0  0  # atno 10763 bound_to 10752
  152.9897  135.5585  154.5715 H   0  0  0  0  0  0  0  0  0  0  0  0  # atno 10764 bound_to 10752
  154.5262  135.2885  155.1195 H   0  0  0  0  0  0  0  0  0  0  0  0  # atno 10765 bound_to 10752
  140.1519  134.8669  157.2465 H   0  0  0  0  0  0  0  0  0  0  0  0  # atno 11005 bound_to 11000
  146.0748  139.3737  143.0500 LP  0  0  0  0  0  0  0  0  0  0  0  0  # atno 17320 bound_to 7965
  145.7919  140.9810  143.1044 LP  0  0  0  0  0  0  0  0  0  0  0  0  # atno 17321 bound_to 7965
  139.7170  144.7610  151.1017 LP  0  0  0  0  0  0  0  0  0  0  0  0  # atno 17342 bound_to 10162
  140.7739  143.5256  150.9484 LP  0  0  0  0  0  0  0  0  0  0  0  0  # atno 17343 bound_to 10162
  155.9915  130.4970  150.7302 LP  0  0  0  0  0  0  0  0  0  0  0  0  # atno 17370 bound_to 10713
  157.4774  131.0899  151.0574 LP  0  0  0  0  0  0  0  0  0  0  0  0  # atno 17371 bound_to 10713
  140.2594  134.3588  155.7412 LP  0  0  0  0  0  0  0  0  0  0  0  0  # atno 17394 bound_to 11000
  141.2200  133.7361  156.9057 LP  0  0  0  0  0  0  0  0  0  0  0  0  # atno 17395 bound_to 11000

$$$$
