AV-unprocessed.smi:1362|AV-procd|sdf|5558|dock1
  -GOLD-   22720 5153D 1   1.00000     0.00000
 Structure written by MMmdl.
 39 39  0  0  0  0  0  0  0  0  1 V2000
  147.0240  138.9318  152.9193 C   0  0  0  0  0  0  0  0  0  0  0  0
  148.2101  139.3567  153.7588 C   0  0  0  0  0  0  0  0  0  0  0  0
  148.2182  140.4030  154.5176 N   0  0  0  0  0  0  0  0  0  0  0  0
  149.3784  140.6964  155.2477 C   0  0  0  0  0  0  0  0  0  0  0  0
  149.3117  141.9435  156.1129 C   0  0  0  0  0  0  0  0  0  0  0  0
  150.4889  139.9052  155.1757 C   0  0  0  0  0  0  0  0  0  0  0  0
  151.7683  140.2023  155.9566 C   0  0  0  0  0  0  0  0  0  0  0  0
  151.5868  140.5024  157.4465 C   0  0  0  0  0  0  0  0  0  0  0  0
  151.2107  139.6209  158.2195 O   0  0  0  0  0  0  0  0  0  0  0  0
  151.8709  141.7549  157.8346 N   0  0  0  0  0  0  0  0  0  0  0  0
  151.8326  142.2517  159.2093 C   0  0  2  0  0  0  0  0  0  0  0  0
  151.5652  143.7686  159.1841 C   0  0  0  0  0  0  0  0  0  0  0  0
  153.1421  141.8694  159.9487 C   0  0  0  0  0  0  0  0  0  0  0  0
  153.4113  140.3517  159.9114 C   0  0  0  0  0  0  0  0  0  0  0  0
  153.1569  142.3564  161.4091 C   0  0  0  0  0  0  0  0  0  0  0  0
  150.4681  138.7126  154.3067 C   0  0  0  0  0  0  0  0  0  0  0  0
  151.4109  137.9354  154.1643 O   0  0  0  0  0  0  0  0  0  0  0  0
  149.3094  138.5078  153.6412 N   0  0  0  0  0  0  0  0  0  0  0  0
  149.2457  137.7049  153.0323 H   0  0  0  0  0  0  0  0  0  0  0  0
  146.7773  139.7115  152.1981 H   0  0  0  0  0  0  0  0  0  0  0  0
  146.1545  138.7647  153.5554 H   0  0  0  0  0  0  0  0  0  0  0  0
  147.2279  138.0113  152.3703 H   0  0  0  0  0  0  0  0  0  0  0  0
  149.4146  141.6836  157.1663 H   0  0  0  0  0  0  0  0  0  0  0  0
  148.3603  142.4619  155.9882 H   0  0  0  0  0  0  0  0  0  0  0  0
  150.1059  142.6414  155.8471 H   0  0  0  0  0  0  0  0  0  0  0  0
  152.4375  139.3474  155.8525 H   0  0  0  0  0  0  0  0  0  0  0  0
  152.3106  141.0344  155.5066 H   0  0  0  0  0  0  0  0  0  0  0  0
  152.1670  142.4104  157.1260 H   0  0  0  0  0  0  0  0  0  0  0  0
  151.0038  141.7698  159.7317 H   0  0  0  0  0  0  0  0  0  0  0  0
  151.4012  144.1665  160.1851 H   0  0  0  0  0  0  0  0  0  0  0  0
  150.6713  144.0016  158.6049 H   0  0  0  0  0  0  0  0  0  0  0  0
  152.3991  144.3118  158.7384 H   0  0  0  0  0  0  0  0  0  0  0  0
  153.9736  142.3560  159.4365 H   0  0  0  0  0  0  0  0  0  0  0  0
  152.5937  139.7942  160.3694 H   0  0  0  0  0  0  0  0  0  0  0  0
  154.3253  140.1023  160.4514 H   0  0  0  0  0  0  0  0  0  0  0  0
  153.5357  139.9830  158.8931 H   0  0  0  0  0  0  0  0  0  0  0  0
  152.3089  141.9600  161.9682 H   0  0  0  0  0  0  0  0  0  0  0  0
  153.1249  143.4435  161.4750 H   0  0  0  0  0  0  0  0  0  0  0  0
  154.0666  142.0383  161.9191 H   0  0  0  0  0  0  0  0  0  0  0  0
  1  2  1  0  0  0  0
  1 20  1  0  0  0  0
  1 21  1  0  0  0  0
  1 22  1  0  0  0  0
  2 18  1  0  0  0  0
  2  3  2  0  0  0  0
  3  4  1  0  0  0  0
  4  5  1  0  0  0  0
  4  6  2  0  0  0  0
  5 23  1  0  0  0  0
  5 24  1  0  0  0  0
  5 25  1  0  0  0  0
  6  7  1  0  0  0  0
  6 16  1  0  0  0  0
  7  8  1  0  0  0  0
  7 26  1  0  0  0  0
  7 27  1  0  0  0  0
  8  9  2  0  0  0  0
  8 10  1  0  0  0  0
 10 11  1  0  0  0  0
 10 28  1  0  0  0  0
 11 12  1  0  0  0  0
 11 13  1  0  0  0  0
 11 29  1  0  0  0  0
 12 30  1  0  0  0  0
 12 31  1  0  0  0  0
 12 32  1  0  0  0  0
 13 14  1  0  0  0  0
 13 15  1  0  0  0  0
 13 33  1  0  0  0  0
 14 34  1  0  0  0  0
 14 35  1  0  0  0  0
 14 36  1  0  0  0  0
 15 37  1  0  0  0  0
 15 38  1  0  0  0  0
 15 39  1  0  0  0  0
 16 17  2  0  0  0  0
 16 18  1  0  0  0  0
 18 19  1  0  0  0  0
M  END
> <s_m_source_file>
AV-unprocessed.smi

> <i_m_source_file_index>
1362

> <i_lp_mmshare_version>
43012

> <i_f3d_flags>
0

> <s_epik_input>
W0NIM11jMW5jKFtDSDNdKWMoYyg9TylbbkhdMSlbQ0gyXUMoPU8pW05IXVtDQEhdKFtDSDNdKVtDSF0oW0NIM10pW0NIM10=

> <s_epik_cmdline>
J2VwaWtfcHl0aG9uJywgJy1waCcsICc3LjAnLCAnLXRuJywgJzgnLCAnLW1hJywgJzIwMCcsICctbWV0YWxfYmluZGluZycsICctaW1hZScsICc8aW5maWxlLm1hZT4nLCAnLW9tYWUnLCAnPG91dGZpbGUubWFlPic=

> <r_lp_tautomer_probability>
0.839158

> <r_epik_Ionization_Penalty>
0.000388977

> <r_epik_Ionization_Penalty_Charging>
0.000356458

> <r_epik_Ionization_Penalty_Neutral>
3.25191e-05

> <r_epik_State_Penalty>
0.0469868

> <r_epik_Charging_Adjusted_Penalty>
0.0473433

> <i_epik_Tot_Q>
0

> <i_epik_Tot_abs_Q>
0

> <r_epik_Metal_State_Penalty>
0.223288

> <b_epik_Metal_Only>
0

> <s_lp_Force_Field>
OPLS_2005

> <r_lp_Energy>
7.29912

> <b_lp_Chiralities_Consistent>
1

> <s_lp_Variant>
AV-unprocessed.smi:1362-1

> <Gold.Version>
5.8.1

> <Gold.Id.Protein>
6NUR|6NUR_protein|mol2

> <Gold.PLP.Fitness>
35.7894

> <Gold.PLP.PLP>
-33.7068

> <Gold.PLP.part.hbond>
-2.0000

> <Gold.PLP.part.metal>
0.0000

> <Gold.PLP.part.buried>
0.5895

> <Gold.PLP.part.nonpolar>
-32.5081

> <Gold.PLP.part.repulsive>
0.4370

> <Gold.PLP.ligand.clash>
0.0000

> <Gold.PLP.ligand.torsion>
0.5056

> <Gold.PLP.Chemscore.Hbond>
1.0000

> <Gold.PLP.Chemscore.CHOScore>
0.0000

> <Gold.PLP.Chemscore.Metal>
0.0000

> <Gold.Chemscore.Hbonds>
donor molecule, donor type, donor heavy atom, donor atom, acceptor molecule, acceptor atom, score
      L1  H    18    19       P1  7948  1.00

> <Gold.PLP.Chemscore.Internal.Correction>
0.0937

> <Gold.Rescore>
     Score         DG    S(hbond)    S(metal)    S(lipo)     H(rot)  DE(clash)    DE(int)     intcor
     12.27     -14.20       0.98        0.00      83.62       1.69       0.81       1.12       ----

> <Gold.Chemscore.Fitness>
12.2670

> <Gold.Chemscore.DG>
-14.1956

> <Gold.Chemscore.ZeroCoef>
-5.4800

> <Gold.Chemscore.Hbond>
0.9767

> <Gold.Chemscore.Metal>
0.0000

> <Gold.Chemscore.Lipo>
83.6249

> <Gold.Chemscore.Internal_Hbond>
0.0000

> <Gold.Chemscore.DEClash>
0.8137

> <Gold.Chemscore.DEInternal>
1.1150

> <Gold.Chemscore.Rot>
1.6916

> <Gold.Chemscore.Internal.Correction>
   9.000000E+99

> <Gold.Chemscore.Hbonds>
donor molecule, donor type, donor heavy atom, donor atom, acceptor molecule, acceptor atom, score
      L1  H    18    19       P1  7948  0.98

> <Gold.Chemscore.Hbond.Weighted>
-3.2621

> <Gold.Chemscore.Metal.Weighted>
-0.0000

> <Gold.Chemscore.Lipo.Weighted>
-9.7841

> <Gold.Chemscore.Internal_Hbond.Weighted>
0.0000

> <Gold.Chemscore.DEClash.Weighted>
0.8137

> <Gold.Chemscore.DEInternal.Weighted>
1.1150

> <Gold.Chemscore.Rot.Weighted>
4.3305

> <Gold.Chemscore.Internal.Correction.Weighted>
   9.000000E+99

> <Gold.Protein.RotatedTorsions>
[ 6907 6896 6895 6894 ] final   -1.00 input  -60.11 | X-H torsion
[ 7974 7965 7964 7962 ] final   25.43 input  175.53 | X-H torsion
[ 8008 7997 7996 7995 ] final -135.63 input   59.86 | X-H torsion
[ 10167 10162 10161 10158 ] final  -32.21 input  -65.29 | X-H torsion
[ 10718 10713 10712 10709 ] final  129.41 input   66.30 | X-H torsion
[ 10763 10752 10751 10750 ] final  -66.99 input  -60.55 | X-H torsion
[ 11005 11000 10999 10996 ] final  169.23 input  -57.11 | X-H torsion

> <Gold.Protein.ActiveResidues>
 VAL166  LYS551  ARG553  GLY616  TRP617  ASP618  TYR619  PRO620  LYS621  CYS622 
 ASP623  PHE694  ASN695  SER759  ASP760  ASP761  ALA762  ILE779  LEU786  VAL792 
 PHE793  MET794  SER795  GLU796  ALA797  LYS798  CYS799  TRP800  GLU811  SER814 

> <Gold.Protein.RotatedAtoms>
  151.5532  135.1067  159.9954 H   0  0  0  0  0  0  0  0  0  0  0  0  # atno 6907 bound_to 6896
  152.4481  133.7572  159.6737 H   0  0  0  0  0  0  0  0  0  0  0  0  # atno 6908 bound_to 6896
  150.8402  133.7880  159.3088 H   0  0  0  0  0  0  0  0  0  0  0  0  # atno 6909 bound_to 6896
  146.1889  139.7466  142.8846 H   0  0  0  0  0  0  0  0  0  0  0  0  # atno 7974 bound_to 7965
  155.3819  140.0494  157.3043 H   0  0  0  0  0  0  0  0  0  0  0  0  # atno 8008 bound_to 7997
  154.5078  140.2181  155.9177 H   0  0  0  0  0  0  0  0  0  0  0  0  # atno 8009 bound_to 7997
  156.1547  140.3129  155.8711 H   0  0  0  0  0  0  0  0  0  0  0  0  # atno 8010 bound_to 7997
  140.7225  143.3712  151.1775 H   0  0  0  0  0  0  0  0  0  0  0  0  # atno 10167 bound_to 10162
  157.5157  131.1097  150.9228 H   0  0  0  0  0  0  0  0  0  0  0  0  # atno 10718 bound_to 10713
  154.3680  135.6101  153.5725 H   0  0  0  0  0  0  0  0  0  0  0  0  # atno 10763 bound_to 10752
  152.9791  135.5831  154.4555 H   0  0  0  0  0  0  0  0  0  0  0  0  # atno 10764 bound_to 10752
  154.4304  135.2847  155.1893 H   0  0  0  0  0  0  0  0  0  0  0  0  # atno 10765 bound_to 10752
  140.2956  134.7637  157.3874 H   0  0  0  0  0  0  0  0  0  0  0  0  # atno 11005 bound_to 11000
  145.3855  141.0365  143.3153 LP  0  0  0  0  0  0  0  0  0  0  0  0  # atno 17320 bound_to 7965
  144.8448  139.5414  143.6883 LP  0  0  0  0  0  0  0  0  0  0  0  0  # atno 17321 bound_to 7965
  139.7284  143.9112  152.3011 LP  0  0  0  0  0  0  0  0  0  0  0  0  # atno 17342 bound_to 10162
  139.8893  144.6974  150.8789 LP  0  0  0  0  0  0  0  0  0  0  0  0  # atno 17343 bound_to 10162
  156.9855  130.5543  149.5299 LP  0  0  0  0  0  0  0  0  0  0  0  0  # atno 17370 bound_to 10713
  156.0318  130.5409  150.8555 LP  0  0  0  0  0  0  0  0  0  0  0  0  # atno 17371 bound_to 10713
  140.1155  134.5288  155.8228 LP  0  0  0  0  0  0  0  0  0  0  0  0  # atno 17394 bound_to 11000
  141.2138  133.6739  156.6769 LP  0  0  0  0  0  0  0  0  0  0  0  0  # atno 17395 bound_to 11000

$$$$
