AV-unprocessed.smi:1424|AV-procd|sdf|5801|dock8
  -GOLD-   22720 5453D 1   1.00000     0.00000
 Structure written by MMmdl.
 46 48  0  0  0  0  0  0  0  0  2 V2000
  153.7223  139.3115  158.0659 O   0  0  0  0  0  0  0  0  0  0  0  0
  153.4128  140.2468  158.8035 C   0  0  0  0  0  0  0  0  0  0  0  0
  153.9734  140.4628  160.0016 N   0  0  0  0  0  0  0  0  0  0  0  0
  155.0205  139.6393  160.5980 C   0  0  0  0  0  0  0  0  0  0  0  0
  154.8509  138.1351  160.2811 C   0  0  2  0  0  0  0  0  0  0  0  0
  153.6591  137.4969  161.0309 C   0  0  0  0  0  0  0  0  0  0  0  0
  154.0659  137.2161  162.4837 C   0  0  0  0  0  0  0  0  0  0  0  0
  155.8663  136.8741  162.4421 S   0  0  0  0  0  0  0  0  0  0  0  0
  156.5549  137.8504  163.3000 O   0  0  0  0  0  0  0  0  0  0  0  0
  156.1013  135.4306  162.5968 O   0  0  0  0  0  0  0  0  0  0  0  0
  156.1006  137.3357  160.6833 C   0  0  0  0  0  0  0  0  0  0  0  0
  152.4676  141.1634  158.5353 N   0  0  0  0  0  0  0  0  0  0  0  0
  151.6347  141.2586  157.3837 C   0  0  0  0  0  0  0  0  0  0  0  0
  151.4838  140.1663  156.4905 C   0  0  0  0  0  0  0  0  0  0  0  0
  150.6370  140.2831  155.3723 C   0  0  0  0  0  0  0  0  0  0  0  0
  149.9550  141.4930  155.1596 C   0  0  0  0  0  0  0  0  0  0  0  0
  150.1346  142.5203  156.0149 N   0  3  0  0  0  0  0  0  0  0  0  0
  150.9476  142.4753  157.1000 C   0  0  0  0  0  0  0  0  0  0  0  0
  151.0461  143.6384  157.8978 N   0  0  0  0  0  0  0  0  0  0  0  0
  152.2970  144.3855  157.9638 C   0  0  0  0  0  0  0  0  0  0  0  0
  152.1369  145.3211  159.1589 C   0  0  0  0  0  0  0  0  0  0  0  0
  151.3104  144.4790  160.1259 C   0  0  0  0  0  0  0  0  0  0  0  0
  150.3999  143.6585  159.2063 C   0  0  0  0  0  0  0  0  0  0  0  0
  153.6573  141.2545  160.5423 H   0  0  0  0  0  0  0  0  0  0  0  0
  155.9951  139.9892  160.2534 H   0  0  0  0  0  0  0  0  0  0  0  0
  155.0040  139.8058  161.6753 H   0  0  0  0  0  0  0  0  0  0  0  0
  154.6993  138.0309  159.2060 H   0  0  0  0  0  0  0  0  0  0  0  0
  152.7516  138.0982  160.9767 H   0  0  0  0  0  0  0  0  0  0  0  0
  153.4236  136.5462  160.5512 H   0  0  0  0  0  0  0  0  0  0  0  0
  153.9025  138.0918  163.1119 H   0  0  0  0  0  0  0  0  0  0  0  0
  153.5319  136.3709  162.9182 H   0  0  0  0  0  0  0  0  0  0  0  0
  156.1650  136.4136  160.1052 H   0  0  0  0  0  0  0  0  0  0  0  0
  157.0343  137.8840  160.5561 H   0  0  0  0  0  0  0  0  0  0  0  0
  152.2543  141.8096  159.2807 H   0  0  0  0  0  0  0  0  0  0  0  0
  152.0111  139.2366  156.6418 H   0  0  0  0  0  0  0  0  0  0  0  0
  150.5120  139.4550  154.6899 H   0  0  0  0  0  0  0  0  0  0  0  0
  149.2827  141.6728  154.3332 H   0  0  0  0  0  0  0  0  0  0  0  0
  153.1366  143.7113  158.1379 H   0  0  0  0  0  0  0  0  0  0  0  0
  152.4823  144.9357  157.0408 H   0  0  0  0  0  0  0  0  0  0  0  0
  153.0905  145.6431  159.5783 H   0  0  0  0  0  0  0  0  0  0  0  0
  151.5764  146.2103  158.8663 H   0  0  0  0  0  0  0  0  0  0  0  0
  151.9689  143.8108  160.6824 H   0  0  0  0  0  0  0  0  0  0  0  0
  150.7547  145.0793  160.8468 H   0  0  0  0  0  0  0  0  0  0  0  0
  149.4306  144.1481  159.1107 H   0  0  0  0  0  0  0  0  0  0  0  0
  150.2389  142.6545  159.6013 H   0  0  0  0  0  0  0  0  0  0  0  0
  149.6335  143.3889  155.8276 H   0  0  0  0  0  0  0  0  0  0  0  0
  1  2  2  0  0  0  0
  2  3  1  0  0  0  0
  2 12  1  0  0  0  0
  3  4  1  0  0  0  0
  3 24  1  0  0  0  0
  4  5  1  0  0  0  0
  4 25  1  0  0  0  0
  4 26  1  0  0  0  0
  5 11  1  0  0  0  0
  5  6  1  0  0  0  0
  5 27  1  0  0  0  0
  6  7  1  0  0  0  0
  6 28  1  0  0  0  0
  6 29  1  0  0  0  0
  7  8  1  0  0  0  0
  7 30  1  0  0  0  0
  7 31  1  0  0  0  0
  8  9  2  0  0  0  0
  8 10  2  0  0  0  0
  8 11  1  0  0  0  0
 11 32  1  0  0  0  0
 11 33  1  0  0  0  0
 12 13  1  0  0  0  0
 12 34  1  0  0  0  0
 13 18  1  0  0  0  0
 13 14  2  0  0  0  0
 14 15  1  0  0  0  0
 14 35  1  0  0  0  0
 15 16  2  0  0  0  0
 15 36  1  0  0  0  0
 16 17  1  0  0  0  0
 16 37  1  0  0  0  0
 17 18  2  0  0  0  0
 17 46  1  0  0  0  0
 18 19  1  0  0  0  0
 19 23  1  0  0  0  0
 19 20  1  0  0  0  0
 20 21  1  0  0  0  0
 20 38  1  0  0  0  0
 20 39  1  0  0  0  0
 21 22  1  0  0  0  0
 21 40  1  0  0  0  0
 21 41  1  0  0  0  0
 22 23  1  0  0  0  0
 22 42  1  0  0  0  0
 22 43  1  0  0  0  0
 23 44  1  0  0  0  0
 23 45  1  0  0  0  0
M  CHG  1  17   1
M  END
> <s_m_source_file>
AV-unprocessed.smi

> <i_m_source_file_index>
1424

> <i_lp_mmshare_version>
43012

> <i_f3d_flags>
0

> <s_epik_input>
Tz1TMSg9TylbQ0gyXVtDSDJdW0NASF0oW0NIMl0xKVtDSDJdW05IXUMoPU8pW05IXWMyW2NIXVtjSF1bY0hdbmMyTjNbQ0gyXVtDSDJdW0NIMl1bQ0gyXTM=

> <s_epik_cmdline>
J2VwaWtfcHl0aG9uJywgJy1waCcsICc3LjAnLCAnLXRuJywgJzgnLCAnLW1hJywgJzIwMCcsICctbWV0YWxfYmluZGluZycsICctaW1hZScsICc8aW5maWxlLm1hZT4nLCAnLW9tYWUnLCAnPG91dGZpbGUubWFlPic=

> <r_lp_tautomer_probability>
0.999994

> <r_epik_Ionization_Penalty>
1.12573

> <r_epik_Ionization_Penalty_Charging>
1.12571

> <r_epik_Ionization_Penalty_Neutral>
1.92863e-05

> <r_epik_State_Penalty>
1.18495

> <r_epik_Charging_Adjusted_Penalty>
2.31065

> <i_epik_Tot_Q>
1

> <i_epik_Tot_abs_Q>
1

> <r_epik_Metal_State_Penalty>
1.26881

> <b_epik_Metal_Only>
0

> <s_lp_Force_Field>
OPLS_2005

> <r_lp_Energy>
41.4787

> <b_lp_Chiralities_Consistent>
1

> <s_lp_Variant>
AV-unprocessed.smi:1424-3

> <Gold.Version>
5.8.1

> <Gold.Id.Protein>
6NUR|6NUR_protein|mol2

> <Gold.PLP.Fitness>
48.4344

> <Gold.PLP.PLP>
-40.0231

> <Gold.PLP.part.hbond>
-2.0000

> <Gold.PLP.part.metal>
0.0000

> <Gold.PLP.part.buried>
-5.5283

> <Gold.PLP.part.nonpolar>
-32.7465

> <Gold.PLP.part.repulsive>
0.4356

> <Gold.PLP.ligand.clash>
0.0000

> <Gold.PLP.ligand.torsion>
0.4873

> <Gold.PLP.Chemscore.Hbond>
3.0000

> <Gold.PLP.Chemscore.CHOScore>
0.0000

> <Gold.PLP.Chemscore.Metal>
0.0000

> <Gold.Chemscore.Hbonds>
donor molecule, donor type, donor heavy atom, donor atom, acceptor molecule, acceptor atom, score
      L1  H    17    46       P1  8028  2.00
      P1  H  7997  8009       L1     1  1.00

> <Gold.PLP.Chemscore.Internal.Correction>
0.3860

> <Gold.Rescore>
     Score         DG    S(hbond)    S(metal)    S(lipo)     H(rot)  DE(clash)    DE(int)     intcor
     16.44     -19.69       1.75        0.00     104.16       1.50       0.04       3.21       ----

> <Gold.Chemscore.Fitness>
16.4429

> <Gold.Chemscore.DG>
-19.6886

> <Gold.Chemscore.ZeroCoef>
-5.4800

> <Gold.Chemscore.Hbond>
1.7523

> <Gold.Chemscore.Metal>
0.0000

> <Gold.Chemscore.Lipo>
104.1553

> <Gold.Chemscore.Internal_Hbond>
0.0000

> <Gold.Chemscore.DEClash>
0.0373

> <Gold.Chemscore.DEInternal>
3.2085

> <Gold.Chemscore.Rot>
1.4962

> <Gold.Chemscore.Internal.Correction>
   9.000000E+99

> <Gold.Chemscore.Hbonds>
donor molecule, donor type, donor heavy atom, donor atom, acceptor molecule, acceptor atom, score
      L1  H    17    46       P1  8028  0.93
      P1  H  7997  8009       L1     1  0.33

> <Gold.Chemscore.Hbond.Weighted>
-5.8528

> <Gold.Chemscore.Metal.Weighted>
-0.0000

> <Gold.Chemscore.Lipo.Weighted>
-12.1862

> <Gold.Chemscore.Internal_Hbond.Weighted>
0.0000

> <Gold.Chemscore.DEClash.Weighted>
0.0373

> <Gold.Chemscore.DEInternal.Weighted>
3.2085

> <Gold.Chemscore.Rot.Weighted>
3.8303

> <Gold.Chemscore.Internal.Correction.Weighted>
   9.000000E+99

> <Gold.Protein.RotatedTorsions>
[ 6907 6896 6895 6894 ] final -142.56 input  -60.11 | X-H torsion
[ 7974 7965 7964 7962 ] final  109.32 input  175.53 | X-H torsion
[ 8008 7997 7996 7995 ] final  164.22 input   59.86 | X-H torsion
[ 10167 10162 10161 10158 ] final   57.57 input  -65.29 | X-H torsion
[ 10718 10713 10712 10709 ] final -162.41 input   66.30 | X-H torsion
[ 10763 10752 10751 10750 ] final  -20.41 input  -60.55 | X-H torsion
[ 11005 11000 10999 10996 ] final   67.82 input  -57.11 | X-H torsion

> <Gold.Protein.ActiveResidues>
 VAL166  LYS551  ARG553  GLY616  TRP617  ASP618  TYR619  PRO620  LYS621  CYS622 
 ASP623  PHE694  ASN695  SER759  ASP760  ASP761  ALA762  ILE779  LEU786  VAL792 
 PHE793  MET794  SER795  GLU796  ALA797  LYS798  CYS799  TRP800  GLU811  SER814 

> <Gold.Protein.RotatedAtoms>
  151.0887  133.5332  159.2615 H   0  0  0  0  0  0  0  0  0  0  0  0  # atno 6907 bound_to 6896
  151.2208  135.0517  159.8959 H   0  0  0  0  0  0  0  0  0  0  0  0  # atno 6908 bound_to 6896
  152.5432  134.0690  159.8239 H   0  0  0  0  0  0  0  0  0  0  0  0  # atno 6909 bound_to 6896
  145.2693  139.2672  143.3975 H   0  0  0  0  0  0  0  0  0  0  0  0  # atno 7974 bound_to 7965
  156.1897  140.1702  156.8116 H   0  0  0  0  0  0  0  0  0  0  0  0  # atno 8008 bound_to 7997
  154.5456  140.0728  156.8615 H   0  0  0  0  0  0  0  0  0  0  0  0  # atno 8009 bound_to 7997
  155.3128  140.3368  155.4246 H   0  0  0  0  0  0  0  0  0  0  0  0  # atno 8010 bound_to 7997
  140.1966  144.4031  150.6547 H   0  0  0  0  0  0  0  0  0  0  0  0  # atno 10167 bound_to 10162
  156.6100  130.8846  151.2934 H   0  0  0  0  0  0  0  0  0  0  0  0  # atno 10718 bound_to 10713
  153.6200  135.6993  153.5314 H   0  0  0  0  0  0  0  0  0  0  0  0  # atno 10763 bound_to 10752
  153.2945  135.4147  155.1197 H   0  0  0  0  0  0  0  0  0  0  0  0  # atno 10764 bound_to 10752
  154.8545  135.3633  154.5741 H   0  0  0  0  0  0  0  0  0  0  0  0  # atno 10765 bound_to 10752
  139.9748  134.6840  156.0375 H   0  0  0  0  0  0  0  0  0  0  0  0  # atno 11005 bound_to 11000
  146.3251  140.3132  142.8628 LP  0  0  0  0  0  0  0  0  0  0  0  0  # atno 17320 bound_to 7965
  144.9349  140.8015  143.5666 LP  0  0  0  0  0  0  0  0  0  0  0  0  # atno 17321 bound_to 7965
  140.6419  143.2205  151.6271 LP  0  0  0  0  0  0  0  0  0  0  0  0  # atno 17342 bound_to 10162
  139.5234  144.3134  152.0973 LP  0  0  0  0  0  0  0  0  0  0  0  0  # atno 17343 bound_to 10162
  157.7257  130.9619  150.1624 LP  0  0  0  0  0  0  0  0  0  0  0  0  # atno 17370 bound_to 10713
  156.2398  130.3690  149.8350 LP  0  0  0  0  0  0  0  0  0  0  0  0  # atno 17371 bound_to 10713
  141.1426  133.6562  156.3773 LP  0  0  0  0  0  0  0  0  0  0  0  0  # atno 17394 bound_to 11000
  140.5218  134.6297  157.5320 LP  0  0  0  0  0  0  0  0  0  0  0  0  # atno 17395 bound_to 11000

$$$$
