AV-unprocessed.smi:245|AV-procd|sdf|1876|dock3
  -GOLD-   2262020513D 1   1.00000     0.00000
 Structure written by MMmdl.
 54 58  0  0  0  0  0  0  0  0  1 V2000
  150.2812  136.6600  159.1442 O   0  0  0  0  0  0  0  0  0  0  0  0
  149.0920  136.4744  159.3918 C   0  0  0  0  0  0  0  0  0  0  0  0
  148.1369  136.0596  158.2586 C   0  0  0  0  0  0  0  0  0  0  0  0
  146.7601  135.7142  158.6622 N   0  0  0  0  0  0  0  0  0  0  0  0
  145.8882  135.2693  157.7000 C   0  0  0  0  0  0  0  0  0  0  0  0
  144.5914  135.0490  158.0520 N   0  0  0  0  0  0  0  0  0  0  0  0
  143.6919  134.6154  157.1679 C   0  0  0  0  0  0  0  0  0  0  0  0
  143.8636  134.3381  155.8779 N   0  0  0  0  0  0  0  0  0  0  0  0
  145.1534  134.5546  155.4947 C   0  0  0  0  0  0  0  0  0  0  0  0
  146.2190  135.0145  156.3277 C   0  0  0  0  0  0  0  0  0  0  0  0
  147.3782  135.1092  155.5620 N   0  0  0  0  0  0  0  0  0  0  0  0
  147.0240  134.7313  154.3662 C   0  0  0  0  0  0  0  0  0  0  0  0
  145.7023  134.3791  154.2335 N   0  0  0  0  0  0  0  0  0  0  0  0
  145.0572  133.9316  153.0302 C   0  0  0  0  0  0  0  0  0  0  0  0
  145.3744  132.5640  152.4212 C   0  0  0  0  0  0  0  0  0  0  0  0
  145.2676  133.1581  150.9986 C   0  0  0  0  0  0  0  0  0  0  0  0
  146.4286  132.8035  150.0569 C   0  0  0  0  0  0  0  0  0  0  0  0
  146.4396  131.4255  149.7423 O   0  0  0  0  0  0  0  0  0  0  0  0
  143.9555  132.8957  150.2278 C   0  0  0  0  0  0  0  0  0  0  0  0
  143.8402  133.6687  149.0497 O   0  0  0  0  0  0  0  0  0  0  0  0
  145.3978  134.5449  151.6694 C   0  0  0  0  0  0  0  0  0  0  0  0
  146.5115  135.3947  160.0788 C   0  0  1  0  0  0  0  0  0  0  0  0
  146.9699  133.9561  160.4251 C   0  0  0  0  0  0  0  0  0  0  0  0
  146.7816  133.6428  161.9170 C   0  0  0  0  0  0  0  0  0  0  0  0
  147.5099  134.6705  162.7951 C   0  0  0  0  0  0  0  0  0  0  0  0
  147.0380  136.0984  162.4758 C   0  0  0  0  0  0  0  0  0  0  0  0
  147.1974  136.4456  160.9823 C   0  0  1  0  0  0  0  0  0  0  0  0
  148.6036  136.6101  160.6331 N   0  0  0  0  0  0  0  0  0  0  0  0
  148.1029  136.9092  157.5770 H   0  0  0  0  0  0  0  0  0  0  0  0
  148.5846  135.2181  157.7280 H   0  0  0  0  0  0  0  0  0  0  0  0
  142.6921  134.4707  157.5496 H   0  0  0  0  0  0  0  0  0  0  0  0
  147.7246  134.7006  153.5442 H   0  0  0  0  0  0  0  0  0  0  0  0
  143.9843  134.0126  153.2103 H   0  0  0  0  0  0  0  0  0  0  0  0
  146.3802  132.2155  152.6593 H   0  0  0  0  0  0  0  0  0  0  0  0
  144.6373  131.7930  152.6483 H   0  0  0  0  0  0  0  0  0  0  0  0
  146.3760  133.3778  149.1312 H   0  0  0  0  0  0  0  0  0  0  0  0
  147.3879  133.0460  150.5155 H   0  0  0  0  0  0  0  0  0  0  0  0
  147.3374  131.1314  149.7124 H   0  0  0  0  0  0  0  0  0  0  0  0
  143.8775  131.8456  149.9442 H   0  0  0  0  0  0  0  0  0  0  0  0
  143.0864  133.1173  150.8481 H   0  0  0  0  0  0  0  0  0  0  0  0
  144.6926  134.0151  148.8340 H   0  0  0  0  0  0  0  0  0  0  0  0
  144.6792  135.2888  151.3243 H   0  0  0  0  0  0  0  0  0  0  0  0
  146.4112  134.9454  151.6270 H   0  0  0  0  0  0  0  0  0  0  0  0
  145.4480  135.4791  160.3068 H   0  0  0  0  0  0  0  0  0  0  0  0
  146.4125  133.2308  159.8321 H   0  0  0  0  0  0  0  0  0  0  0  0
  148.0190  133.8183  160.1616 H   0  0  0  0  0  0  0  0  0  0  0  0
  145.7180  133.6406  162.1592 H   0  0  0  0  0  0  0  0  0  0  0  0
  147.1510  132.6401  162.1342 H   0  0  0  0  0  0  0  0  0  0  0  0
  147.3341  134.4490  163.8482 H   0  0  0  0  0  0  0  0  0  0  0  0
  148.5863  134.5907  162.6389 H   0  0  0  0  0  0  0  0  0  0  0  0
  145.9881  136.1962  162.7547 H   0  0  0  0  0  0  0  0  0  0  0  0
  147.5819  136.8168  163.0903 H   0  0  0  0  0  0  0  0  0  0  0  0
  146.7252  137.4139  160.8081 H   0  0  0  0  0  0  0  0  0  0  0  0
  149.2394  136.8685  161.3736 H   0  0  0  0  0  0  0  0  0  0  0  0
  1  2  2  0  0  0  0
  2 28  1  0  0  0  0
  2  3  1  0  0  0  0
  3  4  1  0  0  0  0
  3 29  1  0  0  0  0
  3 30  1  0  0  0  0
  4  5  1  0  0  0  0
  4 22  1  0  0  0  0
  5 10  1  0  0  0  0
  5  6  2  0  0  0  0
  6  7  1  0  0  0  0
  7  8  2  0  0  0  0
  7 31  1  0  0  0  0
  8  9  1  0  0  0  0
  9 13  1  0  0  0  0
  9 10  2  0  0  0  0
 10 11  1  0  0  0  0
 11 12  2  0  0  0  0
 12 13  1  0  0  0  0
 12 32  1  0  0  0  0
 13 14  1  0  0  0  0
 14 21  1  0  0  0  0
 14 15  1  0  0  0  0
 14 33  1  0  0  0  0
 15 16  1  0  0  0  0
 15 34  1  0  0  0  0
 15 35  1  0  0  0  0
 16 17  1  0  0  0  0
 16 19  1  0  0  0  0
 16 21  1  0  0  0  0
 17 18  1  0  0  0  0
 17 36  1  0  0  0  0
 17 37  1  0  0  0  0
 18 38  1  0  0  0  0
 19 20  1  0  0  0  0
 19 39  1  0  0  0  0
 19 40  1  0  0  0  0
 20 41  1  0  0  0  0
 21 42  1  0  0  0  0
 21 43  1  0  0  0  0
 22 27  1  0  0  0  0
 22 23  1  0  0  0  0
 22 44  1  0  0  0  0
 23 24  1  0  0  0  0
 23 45  1  0  0  0  0
 23 46  1  0  0  0  0
 24 25  1  0  0  0  0
 24 47  1  0  0  0  0
 24 48  1  0  0  0  0
 25 26  1  0  0  0  0
 25 49  1  0  0  0  0
 25 50  1  0  0  0  0
 26 27  1  0  0  0  0
 26 51  1  0  0  0  0
 26 52  1  0  0  0  0
 27 28  1  0  0  0  0
 27 53  1  0  0  0  0
 28 54  1  0  0  0  0
M  END
> <s_m_source_file>
AV-unprocessed.smi

> <i_m_source_file_index>
245

> <i_lp_mmshare_version>
43012

> <i_f3d_flags>
0

> <s_epik_input>
W0NIMl0xW0NIMl1bQ0gyXVtDSDJdW0NASF0oW0NASF0xMilbTkhdQyg9TylbQ0gyXU4yYyhuW2NIXW4zKWMoYzM0KW5bY0hdbjRbQ0hdKFtDSDJdNSlbQ0gyXUM1KFtDSDJdW09IXSlbQ0gyXVtPSF0=

> <s_epik_cmdline>
J2VwaWtfcHl0aG9uJywgJy1waCcsICc3LjAnLCAnLXRuJywgJzgnLCAnLW1hJywgJzIwMCcsICctbWV0YWxfYmluZGluZycsICctaW1hZScsICc8aW5maWxlLm1hZT4nLCAnLW9tYWUnLCAnPG91dGZpbGUubWFlPic=

> <r_lp_tautomer_probability>
1

> <r_epik_Ionization_Penalty>
0.000702616

> <r_epik_Ionization_Penalty_Charging>
0

> <r_epik_Ionization_Penalty_Neutral>
0.000702616

> <r_epik_State_Penalty>
0.000343985

> <r_epik_Charging_Adjusted_Penalty>
0.000343985

> <i_epik_Tot_Q>
0

> <i_epik_Tot_abs_Q>
0

> <r_epik_Metal_State_Penalty>
-0

> <b_epik_Metal_Only>
0

> <s_lp_Force_Field>
OPLS_2005

> <r_lp_Energy>
53.0031

> <b_lp_Chiralities_Consistent>
1

> <s_lp_Variant>
AV-unprocessed.smi:245-1

> <Gold.Version>
5.8.1

> <Gold.Id.Protein>
6NUR|6NUR_protein|mol2

> <Gold.PLP.Fitness>
49.0212

> <Gold.PLP.PLP>
-34.8880

> <Gold.PLP.part.hbond>
-3.8972

> <Gold.PLP.part.metal>
0.0000

> <Gold.PLP.part.buried>
-6.0157

> <Gold.PLP.part.nonpolar>
-26.0785

> <Gold.PLP.part.repulsive>
1.6654

> <Gold.PLP.ligand.clash>
0.0000

> <Gold.PLP.ligand.torsion>
0.6727

> <Gold.PLP.Chemscore.Hbond>
3.0000

> <Gold.PLP.Chemscore.CHOScore>
2.0000

> <Gold.PLP.Chemscore.Metal>
0.0000

> <Gold.Chemscore.Hbonds>
donor molecule, donor type, donor heavy atom, donor atom, acceptor molecule, acceptor atom, score
      L1  H    18    38       P1 10747  1.00
      L1  H    20    41       P1  7921  0.99
      P1  H  6896  6908       L1     1  1.00
      L1  C     7    31       P1 11000  1.00
      L1  C    12    32       P1  7948  0.92

> <Gold.PLP.Chemscore.Internal.Correction>
0.4784

> <Gold.Rescore>
     Score         DG    S(hbond)    S(metal)    S(lipo)     H(rot)  DE(clash)    DE(int)     intcor
     15.17     -17.01       2.88        0.00      80.17       2.91       0.01       1.83       ----

> <Gold.Chemscore.Fitness>
15.1692

> <Gold.Chemscore.DG>
-17.0056

> <Gold.Chemscore.ZeroCoef>
-5.4800

> <Gold.Chemscore.Hbond>
2.8763

> <Gold.Chemscore.Metal>
0.0000

> <Gold.Chemscore.Lipo>
80.1746

> <Gold.Chemscore.Internal_Hbond>
0.0000

> <Gold.Chemscore.DEClash>
0.0103

> <Gold.Chemscore.DEInternal>
1.8260

> <Gold.Chemscore.Rot>
2.9147

> <Gold.Chemscore.Internal.Correction>
   9.000000E+99

> <Gold.Chemscore.Hbonds>
donor molecule, donor type, donor heavy atom, donor atom, acceptor molecule, acceptor atom, score
      L1  H    18    38       P1 10747  1.00
      L1  H    20    41       P1  7921  0.91
      P1  H  6896  6908       L1     1  0.54

> <Gold.Chemscore.Hbond.Weighted>
-9.6068

> <Gold.Chemscore.Metal.Weighted>
-0.0000

> <Gold.Chemscore.Lipo.Weighted>
-9.3804

> <Gold.Chemscore.Internal_Hbond.Weighted>
0.0000

> <Gold.Chemscore.DEClash.Weighted>
0.0103

> <Gold.Chemscore.DEInternal.Weighted>
1.8260

> <Gold.Chemscore.Rot.Weighted>
7.4617

> <Gold.Chemscore.Internal.Correction.Weighted>
   9.000000E+99

> <Gold.Protein.RotatedTorsions>
[ 6907 6896 6895 6894 ] final -140.83 input  -60.11 | X-H torsion
[ 7974 7965 7964 7962 ] final  -54.38 input  175.53 | X-H torsion
[ 8008 7997 7996 7995 ] final -176.01 input   59.86 | X-H torsion
[ 10167 10162 10161 10158 ] final -126.51 input  -65.29 | X-H torsion
[ 10718 10713 10712 10709 ] final   70.73 input   66.30 | X-H torsion
[ 10763 10752 10751 10750 ] final   38.06 input  -60.55 | X-H torsion
[ 11005 11000 10999 10996 ] final   75.14 input  -57.11 | X-H torsion

> <Gold.Protein.ActiveResidues>
 VAL166  LYS551  ARG553  GLY616  TRP617  ASP618  TYR619  PRO620  LYS621  CYS622 
 ASP623  PHE694  ASN695  SER759  ASP760  ASP761  ALA762  ILE779  LEU786  VAL792 
 PHE793  MET794  SER795  GLU796  ALA797  LYS798  CYS799  TRP800  GLU811  SER814 

> <Gold.Protein.RotatedAtoms>
  151.0659  133.5506  159.2630 H   0  0  0  0  0  0  0  0  0  0  0  0  # atno 6907 bound_to 6896
  151.2463  135.0606  159.9054 H   0  0  0  0  0  0  0  0  0  0  0  0  # atno 6908 bound_to 6896
  152.5404  134.0426  159.8128 H   0  0  0  0  0  0  0  0  0  0  0  0  # atno 6909 bound_to 6896
  145.8862  140.8106  142.9814 H   0  0  0  0  0  0  0  0  0  0  0  0  # atno 7974 bound_to 7965
  155.9897  140.1198  157.0650 H   0  0  0  0  0  0  0  0  0  0  0  0  # atno 8008 bound_to 7997
  154.4207  140.1128  156.5616 H   0  0  0  0  0  0  0  0  0  0  0  0  # atno 8009 bound_to 7997
  155.6360  140.3473  155.4701 H   0  0  0  0  0  0  0  0  0  0  0  0  # atno 8010 bound_to 7997
  139.9707  143.5848  152.2413 H   0  0  0  0  0  0  0  0  0  0  0  0  # atno 10167 bound_to 10162
  157.6415  130.9492  150.0692 H   0  0  0  0  0  0  0  0  0  0  0  0  # atno 10718 bound_to 10713
  153.0014  135.6260  154.2244 H   0  0  0  0  0  0  0  0  0  0  0  0  # atno 10763 bound_to 10752
  154.1987  135.2805  155.3000 H   0  0  0  0  0  0  0  0  0  0  0  0  # atno 10764 bound_to 10752
  154.5701  135.5679  153.7146 H   0  0  0  0  0  0  0  0  0  0  0  0  # atno 10765 bound_to 10752
  139.9357  134.7493  156.1235 H   0  0  0  0  0  0  0  0  0  0  0  0  # atno 11005 bound_to 11000
  144.6728  140.1460  143.7433 LP  0  0  0  0  0  0  0  0  0  0  0  0  # atno 17320 bound_to 7965
  145.8964  139.2405  143.1519 LP  0  0  0  0  0  0  0  0  0  0  0  0  # atno 17321 bound_to 7965
  139.6483  144.7659  151.2199 LP  0  0  0  0  0  0  0  0  0  0  0  0  # atno 17342 bound_to 10162
  140.7523  143.6203  150.8520 LP  0  0  0  0  0  0  0  0  0  0  0  0  # atno 17343 bound_to 10162
  156.1701  130.3646  149.9177 LP  0  0  0  0  0  0  0  0  0  0  0  0  # atno 17370 bound_to 10713
  156.7155  130.8986  151.3613 LP  0  0  0  0  0  0  0  0  0  0  0  0  # atno 17371 bound_to 10713
  141.0970  133.6692  156.2667 LP  0  0  0  0  0  0  0  0  0  0  0  0  # atno 17394 bound_to 11000
  140.6081  134.5486  157.5529 LP  0  0  0  0  0  0  0  0  0  0  0  0  # atno 17395 bound_to 11000

$$$$
