AV-unprocessed.smi:3115|AV-procd|sdf|11859|dock1
  -GOLD-   2272017243D 1   1.00000     0.00000
 Structure written by MMmdl.
 33 34  0  0  0  0  0  0  0  0  2 V2000
  151.6745  145.0282  159.9334 C   0  0  0  0  0  0  0  0  0  0  0  0
  151.8827  143.5103  159.9369 C   0  0  1  0  0  0  0  0  0  0  0  0
  151.6462  142.8895  158.5463 C   0  0  0  0  0  0  0  0  0  0  0  0
  151.9423  141.4623  158.5766 N   0  0  0  0  0  0  0  0  0  0  0  0
  151.6385  140.8029  157.3772 C   0  0  0  0  0  0  0  0  0  0  0  0
  150.4414  141.1259  156.7035 C   0  0  0  0  0  0  0  0  0  0  0  0
  150.1441  140.4650  155.4940 C   0  0  0  0  0  0  0  0  0  0  0  0
  148.8698  140.7738  154.7364 C   0  0  0  0  0  0  0  0  0  0  0  0
  148.0074  141.6753  155.5168 N   0  3  0  0  0  0  0  0  0  0  0  0
  151.0528  139.5037  155.0074 C   0  0  0  0  0  0  0  0  0  0  0  0
  152.2202  139.2479  155.7527 C   0  0  0  0  0  0  0  0  0  0  0  0
  152.5114  139.8781  156.9103 N   0  0  0  0  0  0  0  0  0  0  0  0
  153.2865  141.1851  159.0672 C   0  0  0  0  0  0  0  0  0  0  0  0
  153.4912  141.8460  160.4409 C   0  0  0  0  0  0  0  0  0  0  0  0
  153.2227  143.2420  160.3439 O   0  0  0  0  0  0  0  0  0  0  0  0
  150.6570  145.2841  159.6373 H   0  0  0  0  0  0  0  0  0  0  0  0
  152.3585  145.5184  159.2403 H   0  0  0  0  0  0  0  0  0  0  0  0
  151.8473  145.4475  160.9248 H   0  0  0  0  0  0  0  0  0  0  0  0
  151.1948  143.0669  160.6592 H   0  0  0  0  0  0  0  0  0  0  0  0
  150.6113  143.0425  158.2374 H   0  0  0  0  0  0  0  0  0  0  0  0
  152.2802  143.3819  157.8071 H   0  0  0  0  0  0  0  0  0  0  0  0
  149.7686  141.8686  157.1075 H   0  0  0  0  0  0  0  0  0  0  0  0
  149.1058  141.2382  153.7784 H   0  0  0  0  0  0  0  0  0  0  0  0
  148.3299  139.8502  154.5241 H   0  0  0  0  0  0  0  0  0  0  0  0
  148.3776  142.6142  155.4807 H   0  0  0  0  0  0  0  0  0  0  0  0
  147.9751  141.3608  156.4761 H   0  0  0  0  0  0  0  0  0  0  0  0
  150.8642  138.9725  154.0859 H   0  0  0  0  0  0  0  0  0  0  0  0
  152.9384  138.5174  155.4105 H   0  0  0  0  0  0  0  0  0  0  0  0
  153.4378  140.1077  159.1432 H   0  0  0  0  0  0  0  0  0  0  0  0
  154.0243  141.5670  158.3601 H   0  0  0  0  0  0  0  0  0  0  0  0
  152.8438  141.3921  161.1929 H   0  0  0  0  0  0  0  0  0  0  0  0
  154.5184  141.7041  160.7767 H   0  0  0  0  0  0  0  0  0  0  0  0
  147.0749  141.6645  155.1290 H   0  0  0  0  0  0  0  0  0  0  0  0
  1  2  1  0  0  0  0
  1 16  1  0  0  0  0
  1 17  1  0  0  0  0
  1 18  1  0  0  0  0
  2 15  1  0  0  0  0
  2  3  1  0  0  0  0
  2 19  1  0  0  0  0
  3  4  1  0  0  0  0
  3 20  1  0  0  0  0
  3 21  1  0  0  0  0
  4  5  1  0  0  0  0
  4 13  1  0  0  0  0
  5 12  1  0  0  0  0
  5  6  2  0  0  0  0
  6  7  1  0  0  0  0
  6 22  1  0  0  0  0
  7  8  1  0  0  0  0
  7 10  2  0  0  0  0
  8  9  1  0  0  0  0
  8 23  1  0  0  0  0
  8 24  1  0  0  0  0
  9 25  1  0  0  0  0
  9 26  1  0  0  0  0
  9 33  1  0  0  0  0
 10 11  1  0  0  0  0
 10 27  1  0  0  0  0
 11 12  2  0  0  0  0
 11 28  1  0  0  0  0
 13 14  1  0  0  0  0
 13 29  1  0  0  0  0
 13 30  1  0  0  0  0
 14 15  1  0  0  0  0
 14 31  1  0  0  0  0
 14 32  1  0  0  0  0
M  CHG  1   9   1
M  END
> <s_m_source_file>
AV-unprocessed.smi

> <i_m_source_file_index>
3115

> <i_lp_mmshare_version>
43012

> <i_f3d_flags>
0

> <s_epik_input>
W0NIM11bQ0BASF0xW0NIMl1OKFtDSDJdW0NIMl1PMSljMltjSF1jKFtDSDJdW05IMl0pW2NIXVtjSF1uMg==

> <s_epik_cmdline>
J2VwaWtfcHl0aG9uJywgJy1waCcsICc3LjAnLCAnLXRuJywgJzgnLCAnLW1hJywgJzIwMCcsICctbWV0YWxfYmluZGluZycsICctaW1hZScsICc8aW5maWxlLm1hZT4nLCAnLW9tYWUnLCAnPG91dGZpbGUubWFlPic=

> <r_lp_tautomer_probability>
1

> <r_epik_Ionization_Penalty>
0.0768907

> <r_epik_Ionization_Penalty_Charging>
0.0768864

> <r_epik_Ionization_Penalty_Neutral>
4.339e-06

> <r_epik_State_Penalty>
0.0093217

> <r_epik_Charging_Adjusted_Penalty>
0.0862081

> <i_epik_Tot_Q>
1

> <i_epik_Tot_abs_Q>
1

> <r_epik_Metal_State_Penalty>
0.0096683

> <b_epik_Metal_Only>
0

> <s_lp_Force_Field>
OPLS_2005

> <r_lp_Energy>
14.3897

> <b_lp_Chiralities_Consistent>
1

> <s_lp_Variant>
AV-unprocessed.smi:3115-2

> <Gold.Version>
5.8.1

> <Gold.Id.Protein>
6NUR|6NUR_protein|mol2

> <Gold.PLP.Fitness>
43.2707

> <Gold.PLP.PLP>
-34.9078

> <Gold.PLP.part.hbond>
-2.0000

> <Gold.PLP.part.metal>
0.0000

> <Gold.PLP.part.buried>
-2.4013

> <Gold.PLP.part.nonpolar>
-30.8180

> <Gold.PLP.part.repulsive>
0.1409

> <Gold.PLP.ligand.clash>
0.0000

> <Gold.PLP.ligand.torsion>
0.3677

> <Gold.PLP.Chemscore.Hbond>
3.0000

> <Gold.PLP.Chemscore.CHOScore>
0.0000

> <Gold.PLP.Chemscore.Metal>
0.0000

> <Gold.Chemscore.Hbonds>
donor molecule, donor type, donor heavy atom, donor atom, acceptor molecule, acceptor atom, score
      L1  H     9    25       P1  8028  1.37
      P1  H  7997  8010       L1    12  1.00

> <Gold.PLP.Chemscore.Internal.Correction>
0.0983

> <Gold.Rescore>
     Score         DG    S(hbond)    S(metal)    S(lipo)     H(rot)  DE(clash)    DE(int)     intcor
     17.18     -17.93       1.66        0.00      87.53       1.30       0.66       0.09       ----

> <Gold.Chemscore.Fitness>
17.1795

> <Gold.Chemscore.DG>
-17.9260

> <Gold.Chemscore.ZeroCoef>
-5.4800

> <Gold.Chemscore.Hbond>
1.6602

> <Gold.Chemscore.Metal>
0.0000

> <Gold.Chemscore.Lipo>
87.5257

> <Gold.Chemscore.Internal_Hbond>
0.0000

> <Gold.Chemscore.DEClash>
0.6550

> <Gold.Chemscore.DEInternal>
0.0914

> <Gold.Chemscore.Rot>
1.3045

> <Gold.Chemscore.Internal.Correction>
   9.000000E+99

> <Gold.Chemscore.Hbonds>
donor molecule, donor type, donor heavy atom, donor atom, acceptor molecule, acceptor atom, score
      L1  H     9    25       P1  8028  0.66
      P1  H  7997  8010       L1    12  0.32

> <Gold.Chemscore.Hbond.Weighted>
-5.5449

> <Gold.Chemscore.Metal.Weighted>
-0.0000

> <Gold.Chemscore.Lipo.Weighted>
-10.2405

> <Gold.Chemscore.Internal_Hbond.Weighted>
0.0000

> <Gold.Chemscore.DEClash.Weighted>
0.6550

> <Gold.Chemscore.DEInternal.Weighted>
0.0914

> <Gold.Chemscore.Rot.Weighted>
3.3395

> <Gold.Chemscore.Internal.Correction.Weighted>
   9.000000E+99

> <Gold.Protein.RotatedTorsions>
[ 6907 6896 6895 6894 ] final  163.27 input  -60.11 | X-H torsion
[ 7974 7965 7964 7962 ] final  172.09 input  175.53 | X-H torsion
[ 8008 7997 7996 7995 ] final   48.00 input   59.86 | X-H torsion
[ 10167 10162 10161 10158 ] final   44.91 input  -65.29 | X-H torsion
[ 10718 10713 10712 10709 ] final -157.17 input   66.30 | X-H torsion
[ 10763 10752 10751 10750 ] final -132.26 input  -60.55 | X-H torsion
[ 11005 11000 10999 10996 ] final    7.95 input  -57.11 | X-H torsion

> <Gold.Protein.ActiveResidues>
 VAL166  LYS551  ARG553  GLY616  TRP617  ASP618  TYR619  PRO620  LYS621  CYS622 
 ASP623  PHE694  ASN695  SER759  ASP760  ASP761  ALA762  ILE779  LEU786  VAL792 
 PHE793  MET794  SER795  GLU796  ALA797  LYS798  CYS799  TRP800  GLU811  SER814 

> <Gold.Protein.RotatedAtoms>
  151.9278  133.3603  159.3919 H   0  0  0  0  0  0  0  0  0  0  0  0  # atno 6907 bound_to 6896
  150.7023  134.4569  159.5371 H   0  0  0  0  0  0  0  0  0  0  0  0  # atno 6908 bound_to 6896
  152.2204  134.8418  160.0537 H   0  0  0  0  0  0  0  0  0  0  0  0  # atno 6909 bound_to 6896
  144.7277  139.9447  143.6430 H   0  0  0  0  0  0  0  0  0  0  0  0  # atno 7974 bound_to 7965
  155.3785  140.3427  155.4246 H   0  0  0  0  0  0  0  0  0  0  0  0  # atno 8008 bound_to 7997
  156.1624  140.1605  156.8624 H   0  0  0  0  0  0  0  0  0  0  0  0  # atno 8009 bound_to 7997
  154.5152  140.0780  156.8049 H   0  0  0  0  0  0  0  0  0  0  0  0  # atno 8010 bound_to 7997
  140.3295  144.2606  150.6170 H   0  0  0  0  0  0  0  0  0  0  0  0  # atno 10167 bound_to 10162
  156.5366  130.8544  151.2734 H   0  0  0  0  0  0  0  0  0  0  0  0  # atno 10718 bound_to 10713
  154.8744  135.3803  154.4381 H   0  0  0  0  0  0  0  0  0  0  0  0  # atno 10763 bound_to 10752
  153.5069  135.7030  153.5807 H   0  0  0  0  0  0  0  0  0  0  0  0  # atno 10764 bound_to 10752
  153.4114  135.3924  155.2019 H   0  0  0  0  0  0  0  0  0  0  0  0  # atno 10765 bound_to 10752
  140.5425  134.0361  155.7909 H   0  0  0  0  0  0  0  0  0  0  0  0  # atno 11005 bound_to 11000
  146.0757  139.3745  143.0495 LP  0  0  0  0  0  0  0  0  0  0  0  0  # atno 17320 bound_to 7965
  145.7908  140.9815  143.1050 LP  0  0  0  0  0  0  0  0  0  0  0  0  # atno 17321 bound_to 7965
  140.5410  143.2223  151.8084 LP  0  0  0  0  0  0  0  0  0  0  0  0  # atno 17342 bound_to 10162
  139.4859  144.4600  151.9552 LP  0  0  0  0  0  0  0  0  0  0  0  0  # atno 17343 bound_to 10162
  157.7412  130.9866  150.2433 LP  0  0  0  0  0  0  0  0  0  0  0  0  # atno 17370 bound_to 10713
  156.3010  130.3758  149.7750 LP  0  0  0  0  0  0  0  0  0  0  0  0  # atno 17371 bound_to 10713
  141.1219  133.9447  157.2713 LP  0  0  0  0  0  0  0  0  0  0  0  0  # atno 17394 bound_to 11000
  139.9497  135.0178  156.8956 LP  0  0  0  0  0  0  0  0  0  0  0  0  # atno 17395 bound_to 11000

$$$$
