AV-unprocessed.smi:455|AV-procd|sdf|2614|dock7
  -GOLD-   2262023 13D 1   1.00000     0.00000
 Structure written by MMmdl.
 46 47  0  0  0  0  0  0  0  0  1 V2000
  143.0651  143.4960  156.3003 C   0  0  0  0  0  0  0  0  0  0  0  0
  142.0391  142.3602  156.0998 C   0  0  0  0  0  0  0  0  0  0  0  0
  141.2829  142.1576  157.4275 C   0  0  0  0  0  0  0  0  0  0  0  0
  141.0203  142.7786  155.0190 C   0  0  0  0  0  0  0  0  0  0  0  0
  142.7265  141.0136  155.7312 C   0  0  0  0  0  0  0  0  0  0  0  0
  141.7946  139.8435  155.3797 C   0  0  0  0  0  0  0  0  0  0  0  0
  140.9775  139.4278  156.2005 O   0  0  0  0  0  0  0  0  0  0  0  0
  141.9093  139.3441  154.1386 N   0  0  0  0  0  0  0  0  0  0  0  0
  141.0909  138.2772  153.5686 C   0  0  0  0  0  0  0  0  0  0  0  0
  141.8864  137.0675  153.1023 C   0  0  0  0  0  0  0  0  0  0  0  0
  141.3864  135.7671  153.3102 C   0  0  0  0  0  0  0  0  0  0  0  0
  142.1453  134.6630  152.8786 C   0  0  0  0  0  0  0  0  0  0  0  0
  143.3950  134.8860  152.2534 C   0  0  0  0  0  0  0  0  0  0  0  0
  144.1732  133.7931  151.8136 N   0  0  0  0  0  0  0  0  0  0  0  0
  145.5236  134.1183  151.3612 C   0  0  0  0  0  0  0  0  0  0  0  0
  146.3617  132.8371  151.2116 C   0  0  0  0  0  0  0  0  0  0  0  0
  145.6951  131.9235  150.3471 O   0  0  0  0  0  0  0  0  0  0  0  0
  144.4272  131.5341  150.8647 C   0  0  0  0  0  0  0  0  0  0  0  0
  143.5204  132.7691  151.0000 C   0  0  0  0  0  0  0  0  0  0  0  0
  143.8749  136.1391  152.0569 N   0  0  0  0  0  0  0  0  0  0  0  0
  143.1439  137.1941  152.4749 C   0  0  0  0  0  0  0  0  0  0  0  0
  142.5854  144.3971  156.6839 H   0  0  0  0  0  0  0  0  0  0  0  0
  143.5571  143.7750  155.3688 H   0  0  0  0  0  0  0  0  0  0  0  0
  143.8399  143.2102  157.0126 H   0  0  0  0  0  0  0  0  0  0  0  0
  141.9609  141.8659  158.2305 H   0  0  0  0  0  0  0  0  0  0  0  0
  140.5244  141.3791  157.3395 H   0  0  0  0  0  0  0  0  0  0  0  0
  140.7766  143.0706  157.7434 H   0  0  0  0  0  0  0  0  0  0  0  0
  140.4697  143.6709  155.3193 H   0  0  0  0  0  0  0  0  0  0  0  0
  140.2909  141.9895  154.8337 H   0  0  0  0  0  0  0  0  0  0  0  0
  141.5055  143.0082  154.0708 H   0  0  0  0  0  0  0  0  0  0  0  0
  143.3909  141.1659  154.8797 H   0  0  0  0  0  0  0  0  0  0  0  0
  143.3754  140.7046  156.5528 H   0  0  0  0  0  0  0  0  0  0  0  0
  142.6058  139.7513  153.5314 H   0  0  0  0  0  0  0  0  0  0  0  0
  140.3287  137.9428  154.2742 H   0  0  0  0  0  0  0  0  0  0  0  0
  140.5519  138.6993  152.7199 H   0  0  0  0  0  0  0  0  0  0  0  0
  140.4309  135.6128  153.7895 H   0  0  0  0  0  0  0  0  0  0  0  0
  141.7557  133.6658  153.0188 H   0  0  0  0  0  0  0  0  0  0  0  0
  145.4576  134.6339  150.4024 H   0  0  0  0  0  0  0  0  0  0  0  0
  146.0301  134.7938  152.0491 H   0  0  0  0  0  0  0  0  0  0  0  0
  147.3385  133.0755  150.7908 H   0  0  0  0  0  0  0  0  0  0  0  0
  146.5387  132.3726  152.1832 H   0  0  0  0  0  0  0  0  0  0  0  0
  143.9748  130.8085  150.1888 H   0  0  0  0  0  0  0  0  0  0  0  0
  144.5528  131.0368  151.8278 H   0  0  0  0  0  0  0  0  0  0  0  0
  142.5733  132.4740  151.4531 H   0  0  0  0  0  0  0  0  0  0  0  0
  143.2983  133.1786  150.0136 H   0  0  0  0  0  0  0  0  0  0  0  0
  143.5853  138.1644  152.3073 H   0  0  0  0  0  0  0  0  0  0  0  0
  1  2  1  0  0  0  0
  1 22  1  0  0  0  0
  1 23  1  0  0  0  0
  1 24  1  0  0  0  0
  2  3  1  0  0  0  0
  2  4  1  0  0  0  0
  2  5  1  0  0  0  0
  3 25  1  0  0  0  0
  3 26  1  0  0  0  0
  3 27  1  0  0  0  0
  4 28  1  0  0  0  0
  4 29  1  0  0  0  0
  4 30  1  0  0  0  0
  5  6  1  0  0  0  0
  5 31  1  0  0  0  0
  5 32  1  0  0  0  0
  6  7  2  0  0  0  0
  6  8  1  0  0  0  0
  8  9  1  0  0  0  0
  8 33  1  0  0  0  0
  9 10  1  0  0  0  0
  9 34  1  0  0  0  0
  9 35  1  0  0  0  0
 10 21  1  0  0  0  0
 10 11  2  0  0  0  0
 11 12  1  0  0  0  0
 11 36  1  0  0  0  0
 12 13  2  0  0  0  0
 12 37  1  0  0  0  0
 13 14  1  0  0  0  0
 13 20  1  0  0  0  0
 14 19  1  0  0  0  0
 14 15  1  0  0  0  0
 15 16  1  0  0  0  0
 15 38  1  0  0  0  0
 15 39  1  0  0  0  0
 16 17  1  0  0  0  0
 16 40  1  0  0  0  0
 16 41  1  0  0  0  0
 17 18  1  0  0  0  0
 18 19  1  0  0  0  0
 18 42  1  0  0  0  0
 18 43  1  0  0  0  0
 19 44  1  0  0  0  0
 19 45  1  0  0  0  0
 20 21  2  0  0  0  0
 21 46  1  0  0  0  0
M  END
> <s_m_source_file>
AV-unprocessed.smi

> <i_m_source_file_index>
455

> <i_lp_mmshare_version>
43012

> <i_f3d_flags>
0

> <s_epik_input>
W0NIM11DKFtDSDNdKShbQ0gzXSlbQ0gyXUMoPU8pW05IXVtDSDJdYzFbY0hdW2NIXWMobltjSF0xKU4yW0NIMl1bQ0gyXU9bQ0gyXVtDSDJdMg==

> <s_epik_cmdline>
J2VwaWtfcHl0aG9uJywgJy1waCcsICc3LjAnLCAnLXRuJywgJzgnLCAnLW1hJywgJzIwMCcsICctbWV0YWxfYmluZGluZycsICctaW1hZScsICc8aW5maWxlLm1hZT4nLCAnLW9tYWUnLCAnPG91dGZpbGUubWFlPic=

> <r_lp_tautomer_probability>
1

> <r_epik_Ionization_Penalty>
0.00557649

> <r_epik_Ionization_Penalty_Charging>
0

> <r_epik_Ionization_Penalty_Neutral>
0.00557649

> <r_epik_State_Penalty>
0.00408419

> <r_epik_Charging_Adjusted_Penalty>
0.00408419

> <i_epik_Tot_Q>
0

> <i_epik_Tot_abs_Q>
0

> <r_epik_Metal_State_Penalty>
-0

> <b_epik_Metal_Only>
0

> <s_lp_Force_Field>
OPLS_2005

> <r_lp_Energy>
18.1118

> <b_lp_Chiralities_Consistent>
1

> <s_lp_Variant>
AV-unprocessed.smi:455-1

> <Gold.Version>
5.8.1

> <Gold.Id.Protein>
6NUR|6NUR_protein|mol2

> <Gold.PLP.Fitness>
36.7254

> <Gold.PLP.PLP>
-29.4032

> <Gold.PLP.part.hbond>
-1.0000

> <Gold.PLP.part.metal>
0.0000

> <Gold.PLP.part.buried>
-6.1836

> <Gold.PLP.part.nonpolar>
-22.7459

> <Gold.PLP.part.repulsive>
0.4406

> <Gold.PLP.ligand.clash>
0.0000

> <Gold.PLP.ligand.torsion>
0.5116

> <Gold.PLP.Chemscore.Hbond>
1.0000

> <Gold.PLP.Chemscore.CHOScore>
1.6662

> <Gold.PLP.Chemscore.Metal>
0.0000

> <Gold.Chemscore.Hbonds>
donor molecule, donor type, donor heavy atom, donor atom, acceptor molecule, acceptor atom, score
      L1  H     8    33       P1 10175  1.00
      L1  C    21    46       P1 10171  0.61
      L1  C    21    46       P1 10175  1.00

> <Gold.PLP.Chemscore.Internal.Correction>
0.3468

> <Gold.Rescore>
     Score         DG    S(hbond)    S(metal)    S(lipo)     H(rot)  DE(clash)    DE(int)     intcor
     11.29     -11.89       0.99        0.00      61.81       1.62       0.02       0.58       ----

> <Gold.Chemscore.Fitness>
11.2887

> <Gold.Chemscore.DG>
-11.8928

> <Gold.Chemscore.ZeroCoef>
-5.4800

> <Gold.Chemscore.Hbond>
0.9937

> <Gold.Chemscore.Metal>
0.0000

> <Gold.Chemscore.Lipo>
61.8104

> <Gold.Chemscore.Internal_Hbond>
0.0000

> <Gold.Chemscore.DEClash>
0.0202

> <Gold.Chemscore.DEInternal>
0.5839

> <Gold.Chemscore.Rot>
1.6164

> <Gold.Chemscore.Internal.Correction>
   9.000000E+99

> <Gold.Chemscore.Hbonds>
donor molecule, donor type, donor heavy atom, donor atom, acceptor molecule, acceptor atom, score
      L1  H     8    33       P1 10175  0.98

> <Gold.Chemscore.Hbond.Weighted>
-3.3191

> <Gold.Chemscore.Metal.Weighted>
-0.0000

> <Gold.Chemscore.Lipo.Weighted>
-7.2318

> <Gold.Chemscore.Internal_Hbond.Weighted>
0.0000

> <Gold.Chemscore.DEClash.Weighted>
0.0202

> <Gold.Chemscore.DEInternal.Weighted>
0.5839

> <Gold.Chemscore.Rot.Weighted>
4.1381

> <Gold.Chemscore.Internal.Correction.Weighted>
   9.000000E+99

> <Gold.Protein.RotatedTorsions>
[ 6907 6896 6895 6894 ] final -174.83 input  -60.11 | X-H torsion
[ 7974 7965 7964 7962 ] final  -84.16 input  175.53 | X-H torsion
[ 8008 7997 7996 7995 ] final  134.88 input   59.86 | X-H torsion
[ 10167 10162 10161 10158 ] final  -85.19 input  -65.29 | X-H torsion
[ 10718 10713 10712 10709 ] final -103.74 input   66.30 | X-H torsion
[ 10763 10752 10751 10750 ] final  -75.06 input  -60.55 | X-H torsion
[ 11005 11000 10999 10996 ] final -157.55 input  -57.11 | X-H torsion

> <Gold.Protein.ActiveResidues>
 VAL166  LYS551  ARG553  GLY616  TRP617  ASP618  TYR619  PRO620  LYS621  CYS622 
 ASP623  PHE694  ASN695  SER759  ASP760  ASP761  ALA762  ILE779  LEU786  VAL792 
 PHE793  MET794  SER795  GLU796  ALA797  LYS798  CYS799  TRP800  GLU811  SER814 

> <Gold.Protein.RotatedAtoms>
  151.5787  133.3380  159.3003 H   0  0  0  0  0  0  0  0  0  0  0  0  # atno 6907 bound_to 6896
  150.8325  134.7588  159.6877 H   0  0  0  0  0  0  0  0  0  0  0  0  # atno 6908 bound_to 6896
  152.4407  134.5603  159.9944 H   0  0  0  0  0  0  0  0  0  0  0  0  # atno 6909 bound_to 6896
  145.5103  140.9540  143.1711 H   0  0  0  0  0  0  0  0  0  0  0  0  # atno 7974 bound_to 7965
  156.3001  140.2485  156.3490 H   0  0  0  0  0  0  0  0  0  0  0  0  # atno 8008 bound_to 7997
  154.8983  140.0407  157.1898 H   0  0  0  0  0  0  0  0  0  0  0  0  # atno 8009 bound_to 7997
  154.8526  140.2908  155.5593 H   0  0  0  0  0  0  0  0  0  0  0  0  # atno 8010 bound_to 7997
  140.4061  143.2642  151.9079 H   0  0  0  0  0  0  0  0  0  0  0  0  # atno 10167 bound_to 10162
  156.0277  130.5482  150.7296 H   0  0  0  0  0  0  0  0  0  0  0  0  # atno 10718 bound_to 10713
  154.4814  135.5844  153.6392 H   0  0  0  0  0  0  0  0  0  0  0  0  # atno 10763 bound_to 10752
  152.9848  135.6091  154.3241 H   0  0  0  0  0  0  0  0  0  0  0  0  # atno 10764 bound_to 10752
  154.3132  135.2844  155.2535 H   0  0  0  0  0  0  0  0  0  0  0  0  # atno 10765 bound_to 10752
  140.6634  134.4325  157.5234 H   0  0  0  0  0  0  0  0  0  0  0  0  # atno 11005 bound_to 11000
  144.7731  139.6691  143.7186 LP  0  0  0  0  0  0  0  0  0  0  0  0  # atno 17320 bound_to 7965
  146.2170  139.5568  142.9643 LP  0  0  0  0  0  0  0  0  0  0  0  0  # atno 17321 bound_to 7965
  139.4783  144.5585  151.8277 LP  0  0  0  0  0  0  0  0  0  0  0  0  # atno 17342 bound_to 10162
  140.4688  144.1616  150.5915 LP  0  0  0  0  0  0  0  0  0  0  0  0  # atno 17343 bound_to 10162
  157.4892  131.0909  151.0447 LP  0  0  0  0  0  0  0  0  0  0  0  0  # atno 17370 bound_to 10713
  157.0858  130.5922  149.5429 LP  0  0  0  0  0  0  0  0  0  0  0  0  # atno 17371 bound_to 10713
  139.9005  134.8567  156.1916 LP  0  0  0  0  0  0  0  0  0  0  0  0  # atno 17394 bound_to 11000
  141.0448  133.6919  156.1663 LP  0  0  0  0  0  0  0  0  0  0  0  0  # atno 17395 bound_to 11000

$$$$
