AV-unprocessed.smi:334|AV-procd|sdf|2368|dock2
  -GOLD-   2262022283D 1   1.00000     0.00000
 Structure written by MMmdl.
 44 46  0  0  0  0  0  0  0  0  3 V2000
  144.1308  136.2856  153.7493 C   0  0  0  0  0  0  0  0  0  0  0  0
  145.4482  135.7701  153.1406 C   0  0  2  0  0  0  0  0  0  0  0  0
  146.2718  136.9152  152.7556 N   0  0  0  0  0  0  0  0  0  0  0  0
  146.5483  137.9746  153.5314 C   0  0  0  0  0  0  0  0  0  0  0  0
  146.1306  138.0958  154.6838 O   0  0  0  0  0  0  0  0  0  0  0  0
  147.4498  139.0473  152.9038 C   0  0  0  0  0  0  0  0  0  0  0  0
  148.4536  139.5834  153.8385 N   0  0  0  0  0  0  0  0  0  0  0  0
  149.6366  138.8365  154.0058 C   0  0  0  0  0  0  0  0  0  0  0  0
  150.6188  139.2288  154.8408 C   0  0  0  0  0  0  0  0  0  0  0  0
  151.8247  138.4468  155.0037 N   0  3  0  0  0  0  0  0  0  0  0  0
  152.7949  138.9672  155.5452 O   0  0  0  0  0  0  0  0  0  0  0  0
  151.8435  137.2890  154.5964 O   0  5  0  0  0  0  0  0  0  0  0  0
  150.4252  140.4633  155.5768 C   0  0  0  0  0  0  0  0  0  0  0  0
  149.2948  141.1804  155.4234 C   0  0  0  0  0  0  0  0  0  0  0  0
  148.2257  140.7498  154.5165 C   0  0  0  0  0  0  0  0  0  0  0  0
  147.1889  141.3984  154.3749 O   0  0  0  0  0  0  0  0  0  0  0  0
  145.2239  134.8577  151.9090 C   0  0  1  0  0  0  0  0  0  0  0  0
  146.5161  134.1693  151.3999 C   0  0  0  0  0  0  0  0  0  0  0  0
  146.1346  132.6794  151.3594 C   0  0  2  0  0  0  0  0  0  0  0  0
  145.1108  132.4381  150.2354 C   0  0  0  0  0  0  0  0  0  0  0  0
  143.8305  133.0787  150.8025 C   0  0  0  0  0  0  0  0  0  0  0  0
  144.3012  133.6374  152.1595 C   0  0  1  0  0  0  0  0  0  0  0  0
  145.2749  132.5526  152.6092 C   0  0  0  0  0  0  0  0  0  0  0  0
  143.5138  135.4733  154.1304 H   0  0  0  0  0  0  0  0  0  0  0  0
  143.5422  136.8344  153.0135 H   0  0  0  0  0  0  0  0  0  0  0  0
  144.3210  136.9574  154.5871 H   0  0  0  0  0  0  0  0  0  0  0  0
  145.9771  135.1953  153.9026 H   0  0  0  0  0  0  0  0  0  0  0  0
  146.6619  136.8983  151.8243 H   0  0  0  0  0  0  0  0  0  0  0  0
  147.9343  138.6132  152.0281 H   0  0  0  0  0  0  0  0  0  0  0  0
  146.8306  139.8571  152.5130 H   0  0  0  0  0  0  0  0  0  0  0  0
  149.6807  137.9301  153.4194 H   0  0  0  0  0  0  0  0  0  0  0  0
  151.1844  140.8208  156.2569 H   0  0  0  0  0  0  0  0  0  0  0  0
  149.1713  142.0961  155.9830 H   0  0  0  0  0  0  0  0  0  0  0  0
  144.8037  135.4722  151.1110 H   0  0  0  0  0  0  0  0  0  0  0  0
  146.8303  134.5445  150.4251 H   0  0  0  0  0  0  0  0  0  0  0  0
  147.3475  134.3145  152.0914 H   0  0  0  0  0  0  0  0  0  0  0  0
  146.9939  132.0094  151.3207 H   0  0  0  0  0  0  0  0  0  0  0  0
  145.4204  132.8892  149.2920 H   0  0  0  0  0  0  0  0  0  0  0  0
  144.9625  131.3709  150.0649 H   0  0  0  0  0  0  0  0  0  0  0  0
  143.4244  133.8513  150.1486 H   0  0  0  0  0  0  0  0  0  0  0  0
  143.0563  132.3232  150.9437 H   0  0  0  0  0  0  0  0  0  0  0  0
  143.4761  133.8193  152.8467 H   0  0  0  0  0  0  0  0  0  0  0  0
  144.8102  131.5708  152.7164 H   0  0  0  0  0  0  0  0  0  0  0  0
  145.8081  132.7965  153.5293 H   0  0  0  0  0  0  0  0  0  0  0  0
  1  2  1  0  0  0  0
  1 24  1  0  0  0  0
  1 25  1  0  0  0  0
  1 26  1  0  0  0  0
  2  3  1  0  0  0  0
  2 17  1  0  0  0  0
  2 27  1  0  0  0  0
  3  4  1  0  0  0  0
  3 28  1  0  0  0  0
  4  5  2  0  0  0  0
  4  6  1  0  0  0  0
  6  7  1  0  0  0  0
  6 29  1  0  0  0  0
  6 30  1  0  0  0  0
  7 15  1  0  0  0  0
  7  8  1  0  0  0  0
  8  9  2  0  0  0  0
  8 31  1  0  0  0  0
  9 10  1  0  0  0  0
  9 13  1  0  0  0  0
 10 11  2  0  0  0  0
 10 12  1  0  0  0  0
 13 14  2  0  0  0  0
 13 32  1  0  0  0  0
 14 15  1  0  0  0  0
 14 33  1  0  0  0  0
 15 16  2  0  0  0  0
 17 22  1  0  0  0  0
 17 18  1  0  0  0  0
 17 34  1  0  0  0  0
 18 19  1  0  0  0  0
 18 35  1  0  0  0  0
 18 36  1  0  0  0  0
 19 23  1  0  0  0  0
 19 20  1  0  0  0  0
 19 37  1  0  0  0  0
 20 21  1  0  0  0  0
 20 38  1  0  0  0  0
 20 39  1  0  0  0  0
 21 22  1  0  0  0  0
 21 40  1  0  0  0  0
 21 41  1  0  0  0  0
 22 23  1  0  0  0  0
 22 42  1  0  0  0  0
 23 43  1  0  0  0  0
 23 44  1  0  0  0  0
M  CHG  1  10   1
M  CHG  1  12  -1
M  END
> <s_m_source_file>
AV-unprocessed.smi

> <i_m_source_file_index>
334

> <i_lp_mmshare_version>
43012

> <i_f3d_flags>
0

> <s_epik_input>
W0NIMl0xW0NIMl1bQ0BIXShbQ0gyXTIpW0NAQEhdKFtDSDJdW0NAQEhdMTIpW0NASF0oW0NIM10pW05IXUMoPU8pW0NIMl1uM1tjSF1jKFtOK10oPU8pW08tXSlbY0hdW2NIXWMzPU8=

> <s_epik_cmdline>
J2VwaWtfcHl0aG9uJywgJy1waCcsICc3LjAnLCAnLXRuJywgJzgnLCAnLW1hJywgJzIwMCcsICctbWV0YWxfYmluZGluZycsICctaW1hZScsICc8aW5maWxlLm1hZT4nLCAnLW9tYWUnLCAnPG91dGZpbGUubWFlPic=

> <r_lp_tautomer_probability>
1

> <r_epik_Ionization_Penalty>
2.17081e-08

> <r_epik_Ionization_Penalty_Charging>
8.1195e-11

> <r_epik_Ionization_Penalty_Neutral>
2.16269e-08

> <r_epik_State_Penalty>
-0

> <r_epik_Charging_Adjusted_Penalty>
8.1195e-11

> <i_epik_Tot_Q>
0

> <i_epik_Tot_abs_Q>
2

> <r_epik_Metal_State_Penalty>
-0

> <b_epik_Metal_Only>
0

> <s_lp_Force_Field>
OPLS_2005

> <r_lp_Energy>
62.5387

> <b_lp_Chiralities_Consistent>
1

> <s_lp_Variant>
AV-unprocessed.smi:334-7

> <Gold.Version>
5.8.1

> <Gold.Id.Protein>
6NUR|6NUR_protein|mol2

> <Gold.PLP.Fitness>
44.4636

> <Gold.PLP.PLP>
-37.1249

> <Gold.PLP.part.hbond>
-3.0000

> <Gold.PLP.part.metal>
0.0000

> <Gold.PLP.part.buried>
-0.6395

> <Gold.PLP.part.nonpolar>
-33.8304

> <Gold.PLP.part.repulsive>
0.3930

> <Gold.PLP.ligand.clash>
0.0000

> <Gold.PLP.ligand.torsion>
0.8129

> <Gold.PLP.Chemscore.Hbond>
1.9662

> <Gold.PLP.Chemscore.CHOScore>
1.0000

> <Gold.PLP.Chemscore.Metal>
0.0000

> <Gold.Chemscore.Hbonds>
donor molecule, donor type, donor heavy atom, donor atom, acceptor molecule, acceptor atom, score
      L1  H     3    28       P1  7948  0.04
      P1  H  7997  8008       L1    11  0.91
      P1  H 10752 10763       L1    12  0.96
      L1  C     8    31       P1  7948  1.00

> <Gold.PLP.Chemscore.Internal.Correction>
0.0657

> <Gold.Rescore>
     Score         DG    S(hbond)    S(metal)    S(lipo)     H(rot)  DE(clash)    DE(int)     intcor
     15.02     -17.59       2.01        0.00      84.21       1.75       0.16       2.40       ----

> <Gold.Chemscore.Fitness>
15.0242

> <Gold.Chemscore.DG>
-17.5862

> <Gold.Chemscore.ZeroCoef>
-5.4800

> <Gold.Chemscore.Hbond>
2.0141

> <Gold.Chemscore.Metal>
0.0000

> <Gold.Chemscore.Lipo>
84.2075

> <Gold.Chemscore.Internal_Hbond>
0.0000

> <Gold.Chemscore.DEClash>
0.1640

> <Gold.Chemscore.DEInternal>
2.3980

> <Gold.Chemscore.Rot>
1.7474

> <Gold.Chemscore.Internal.Correction>
   9.000000E+99

> <Gold.Chemscore.Hbonds>
donor molecule, donor type, donor heavy atom, donor atom, acceptor molecule, acceptor atom, score
      L1  H     3    28       P1  7948  0.05
      P1  H  7997  8008       L1    11  0.87
      P1  H 10752 10763       L1    12  0.89

> <Gold.Chemscore.Hbond.Weighted>
-6.7272

> <Gold.Chemscore.Metal.Weighted>
-0.0000

> <Gold.Chemscore.Lipo.Weighted>
-9.8523

> <Gold.Chemscore.Internal_Hbond.Weighted>
0.0000

> <Gold.Chemscore.DEClash.Weighted>
0.1640

> <Gold.Chemscore.DEInternal.Weighted>
2.3980

> <Gold.Chemscore.Rot.Weighted>
4.4733

> <Gold.Chemscore.Internal.Correction.Weighted>
   9.000000E+99

> <Gold.Protein.RotatedTorsions>
[ 6907 6896 6895 6894 ] final  -90.57 input  -60.11 | X-H torsion
[ 7974 7965 7964 7962 ] final -109.60 input  175.53 | X-H torsion
[ 8008 7997 7996 7995 ] final  -19.94 input   59.86 | X-H torsion
[ 10167 10162 10161 10158 ] final  -93.85 input  -65.29 | X-H torsion
[ 10718 10713 10712 10709 ] final  -75.21 input   66.30 | X-H torsion
[ 10763 10752 10751 10750 ] final   38.69 input  -60.55 | X-H torsion
[ 11005 11000 10999 10996 ] final -142.56 input  -57.11 | X-H torsion

> <Gold.Protein.ActiveResidues>
 VAL166  LYS551  ARG553  GLY616  TRP617  ASP618  TYR619  PRO620  LYS621  CYS622 
 ASP623  PHE694  ASN695  SER759  ASP760  ASP761  ALA762  ILE779  LEU786  VAL792 
 PHE793  MET794  SER795  GLU796  ALA797  LYS798  CYS799  TRP800  GLU811  SER814 

> <Gold.Protein.RotatedAtoms>
  150.6883  134.2411  159.4472 H   0  0  0  0  0  0  0  0  0  0  0  0  # atno 6907 bound_to 6896
  152.0355  134.9740  160.0582 H   0  0  0  0  0  0  0  0  0  0  0  0  # atno 6908 bound_to 6896
  152.1262  133.4347  159.4736 H   0  0  0  0  0  0  0  0  0  0  0  0  # atno 6909 bound_to 6896
  145.1785  140.8960  143.3494 H   0  0  0  0  0  0  0  0  0  0  0  0  # atno 7974 bound_to 7965
  154.4803  140.2075  155.9780 H   0  0  0  0  0  0  0  0  0  0  0  0  # atno 8008 bound_to 7997
  156.1154  140.3222  155.8101 H   0  0  0  0  0  0  0  0  0  0  0  0  # atno 8009 bound_to 7997
  155.4561  140.0520  157.2986 H   0  0  0  0  0  0  0  0  0  0  0  0  # atno 8010 bound_to 7997
  140.3204  143.3052  152.0052 H   0  0  0  0  0  0  0  0  0  0  0  0  # atno 10167 bound_to 10162
  156.0215  130.4435  150.3009 H   0  0  0  0  0  0  0  0  0  0  0  0  # atno 10718 bound_to 10713
  152.9992  135.6242  154.2346 H   0  0  0  0  0  0  0  0  0  0  0  0  # atno 10763 bound_to 10752
  154.2087  135.2801  155.2967 H   0  0  0  0  0  0  0  0  0  0  0  0  # atno 10764 bound_to 10752
  154.5624  135.5701  153.7078 H   0  0  0  0  0  0  0  0  0  0  0  0  # atno 10765 bound_to 10752
  140.8213  134.2628  157.4899 H   0  0  0  0  0  0  0  0  0  0  0  0  # atno 11005 bound_to 11000
  145.0160  139.3467  143.6096 LP  0  0  0  0  0  0  0  0  0  0  0  0  # atno 17320 bound_to 7965
  146.3457  139.9442  142.8737 LP  0  0  0  0  0  0  0  0  0  0  0  0  # atno 17321 bound_to 7965
  139.4875  144.6315  151.7060 LP  0  0  0  0  0  0  0  0  0  0  0  0  # atno 17342 bound_to 10162
  140.5489  144.0458  150.6118 LP  0  0  0  0  0  0  0  0  0  0  0  0  # atno 17343 bound_to 10162
  157.1111  131.0221  151.3047 LP  0  0  0  0  0  0  0  0  0  0  0  0  # atno 17370 bound_to 10713
  157.4703  130.7705  149.7317 LP  0  0  0  0  0  0  0  0  0  0  0  0  # atno 17371 bound_to 10713
  139.8708  134.9537  156.4152 LP  0  0  0  0  0  0  0  0  0  0  0  0  # atno 17394 bound_to 11000
  140.9096  133.7721  155.9776 LP  0  0  0  0  0  0  0  0  0  0  0  0  # atno 17395 bound_to 11000

$$$$
