AV-unprocessed.smi:155|AV-procd|sdf|1281|dock2
  -GOLD-   2262018553D 1   1.00000     0.00000
 Structure written by MMmdl.
 64 67  0  0  0  0  0  0  0  0  3 V2000
  144.4015  135.6541  150.0853 C   0  0  0  0  0  0  0  0  0  0  0  0
  145.0685  134.3368  149.9610 N   0  3  0  0  0  0  0  0  0  0  0  0
  144.0781  133.2394  149.8818 C   0  0  0  0  0  0  0  0  0  0  0  0
  146.0923  134.0932  151.0102 C   0  0  0  0  0  0  0  0  0  0  0  0
  145.7877  134.8425  152.3262 C   0  0  0  0  0  0  0  0  0  0  0  0
  146.7356  134.5026  153.4224 N   0  3  2  0  0  0  0  0  0  0  0  0
  147.3050  133.1338  153.2886 C   0  0  0  0  0  0  0  0  0  0  0  0
  148.8133  133.1389  153.5945 C   0  0  0  0  0  0  0  0  0  0  0  0
  149.1463  133.3046  155.0869 C   0  0  0  0  0  0  0  0  0  0  0  0
  148.5381  134.4980  155.6708 N   0  0  0  0  0  0  0  0  0  0  0  0
  149.1095  135.7354  155.5483 C   0  0  0  0  0  0  0  0  0  0  0  0
  150.1814  135.8571  154.7184 N   0  0  0  0  0  0  0  0  0  0  0  0
  150.7979  137.0290  154.5497 C   0  0  0  0  0  0  0  0  0  0  0  0
  150.5174  138.2032  155.1110 N   0  0  0  0  0  0  0  0  0  0  0  0
  149.4443  138.1046  155.9441 C   0  0  0  0  0  0  0  0  0  0  0  0
  148.6872  136.9267  156.2215 C   0  0  0  0  0  0  0  0  0  0  0  0
  147.6798  137.2419  157.1294 N   0  0  0  0  0  0  0  0  0  0  0  0
  147.8269  138.5159  157.3655 C   0  0  0  0  0  0  0  0  0  0  0  0
  148.8643  139.1130  156.6916 N   0  0  0  0  0  0  0  0  0  0  0  0
  149.2577  140.5093  156.7606 C   0  0  0  0  0  0  0  0  0  0  0  0
  150.5139  140.7210  157.6318 C   0  0  1  0  0  0  0  0  0  0  0  0
  151.6653  140.2332  156.9712 O   0  0  0  0  0  0  0  0  0  0  0  0
  150.7607  142.1856  158.0485 C   0  0  2  0  0  0  0  0  0  0  0  0
  151.0815  143.1238  156.8847 C   0  0  0  0  0  0  0  0  0  0  0  0
  151.7724  144.2632  157.5984 C   0  0  0  0  0  0  0  0  0  0  0  0
  152.5784  143.5270  158.6654 C   0  0  0  0  0  0  0  0  0  0  0  0
  151.8829  142.3086  158.9198 O   0  0  0  0  0  0  0  0  0  0  0  0
  147.1047  134.3909  155.9591 C   0  0  0  0  0  0  0  0  0  0  0  0
  146.1899  134.7947  154.7797 C   0  0  0  0  0  0  0  0  0  0  0  0
  143.8675  135.7341  151.0331 H   0  0  0  0  0  0  0  0  0  0  0  0
  143.6801  135.7950  149.2798 H   0  0  0  0  0  0  0  0  0  0  0  0
  145.1138  136.4759  150.0252 H   0  0  0  0  0  0  0  0  0  0  0  0
  143.5115  133.1561  150.8104 H   0  0  0  0  0  0  0  0  0  0  0  0
  144.5688  132.2839  149.6926 H   0  0  0  0  0  0  0  0  0  0  0  0
  143.3741  133.4119  149.0667 H   0  0  0  0  0  0  0  0  0  0  0  0
  146.1862  133.0201  151.1866 H   0  0  0  0  0  0  0  0  0  0  0  0
  147.0576  134.4298  150.6315 H   0  0  0  0  0  0  0  0  0  0  0  0
  145.7802  135.9212  152.1626 H   0  0  0  0  0  0  0  0  0  0  0  0
  144.7841  134.5719  152.6521 H   0  0  0  0  0  0  0  0  0  0  0  0
  146.7687  132.4200  153.9160 H   0  0  0  0  0  0  0  0  0  0  0  0
  147.1863  132.7710  152.2672 H   0  0  0  0  0  0  0  0  0  0  0  0
  149.2449  132.1970  153.2541 H   0  0  0  0  0  0  0  0  0  0  0  0
  149.3012  133.9177  153.0078 H   0  0  0  0  0  0  0  0  0  0  0  0
  148.7731  132.4334  155.6261 H   0  0  0  0  0  0  0  0  0  0  0  0
  150.2205  133.2848  155.2598 H   0  0  0  0  0  0  0  0  0  0  0  0
  151.6366  137.0244  153.8689 H   0  0  0  0  0  0  0  0  0  0  0  0
  147.1780  139.0580  158.0384 H   0  0  0  0  0  0  0  0  0  0  0  0
  149.4296  140.8685  155.7452 H   0  0  0  0  0  0  0  0  0  0  0  0
  148.4157  141.0791  157.1539 H   0  0  0  0  0  0  0  0  0  0  0  0
  150.4185  140.1245  158.5400 H   0  0  0  0  0  0  0  0  0  0  0  0
  152.2344  139.8382  157.6139 H   0  0  0  0  0  0  0  0  0  0  0  0
  149.8850  142.5829  158.5653 H   0  0  0  0  0  0  0  0  0  0  0  0
  151.7690  142.6569  156.1788 H   0  0  0  0  0  0  0  0  0  0  0  0
  150.1929  143.4397  156.3374 H   0  0  0  0  0  0  0  0  0  0  0  0
  152.3914  144.8730  156.9397 H   0  0  0  0  0  0  0  0  0  0  0  0
  151.0318  144.9116  158.0686 H   0  0  0  0  0  0  0  0  0  0  0  0
  153.5747  143.2841  158.2947 H   0  0  0  0  0  0  0  0  0  0  0  0
  152.6904  144.1164  159.5755 H   0  0  0  0  0  0  0  0  0  0  0  0
  146.8903  133.3539  156.2200 H   0  0  0  0  0  0  0  0  0  0  0  0
  146.8463  134.9573  156.8545 H   0  0  0  0  0  0  0  0  0  0  0  0
  146.0204  135.8678  154.8553 H   0  0  0  0  0  0  0  0  0  0  0  0
  145.2149  134.3207  154.9014 H   0  0  0  0  0  0  0  0  0  0  0  0
  145.5530  134.3343  149.0745 H   0  0  0  0  0  0  0  0  0  0  0  0
  147.5244  135.1212  153.2978 H   0  0  0  0  0  0  0  0  0  0  0  0
  1  2  1  0  0  0  0
  1 30  1  0  0  0  0
  1 31  1  0  0  0  0
  1 32  1  0  0  0  0
  2  3  1  0  0  0  0
  2  4  1  0  0  0  0
  2 63  1  0  0  0  0
  3 33  1  0  0  0  0
  3 34  1  0  0  0  0
  3 35  1  0  0  0  0
  4  5  1  0  0  0  0
  4 36  1  0  0  0  0
  4 37  1  0  0  0  0
  5  6  1  0  0  0  0
  5 38  1  0  0  0  0
  5 39  1  0  0  0  0
  6 29  1  0  0  0  0
  6  7  1  0  0  0  0
  6 64  1  0  0  0  0
  7  8  1  0  0  0  0
  7 40  1  0  0  0  0
  7 41  1  0  0  0  0
  8  9  1  0  0  0  0
  8 42  1  0  0  0  0
  8 43  1  0  0  0  0
  9 10  1  0  0  0  0
  9 44  1  0  0  0  0
  9 45  1  0  0  0  0
 10 11  1  0  0  0  0
 10 28  1  0  0  0  0
 11 16  1  0  0  0  0
 11 12  2  0  0  0  0
 12 13  1  0  0  0  0
 13 14  2  0  0  0  0
 13 46  1  0  0  0  0
 14 15  1  0  0  0  0
 15 19  1  0  0  0  0
 15 16  2  0  0  0  0
 16 17  1  0  0  0  0
 17 18  2  0  0  0  0
 18 19  1  0  0  0  0
 18 47  1  0  0  0  0
 19 20  1  0  0  0  0
 20 21  1  0  0  0  0
 20 48  1  0  0  0  0
 20 49  1  0  0  0  0
 21 22  1  0  0  0  0
 21 23  1  0  0  0  0
 21 50  1  0  0  0  0
 22 51  1  0  0  0  0
 23 27  1  0  0  0  0
 23 24  1  0  0  0  0
 23 52  1  0  0  0  0
 24 25  1  0  0  0  0
 24 53  1  0  0  0  0
 24 54  1  0  0  0  0
 25 26  1  0  0  0  0
 25 55  1  0  0  0  0
 25 56  1  0  0  0  0
 26 27  1  0  0  0  0
 26 57  1  0  0  0  0
 26 58  1  0  0  0  0
 28 29  1  0  0  0  0
 28 59  1  0  0  0  0
 28 60  1  0  0  0  0
 29 61  1  0  0  0  0
 29 62  1  0  0  0  0
M  CHG  1   2   1
M  CHG  1   6   1
M  END
> <s_m_source_file>
AV-unprocessed.smi

> <i_m_source_file_index>
155

> <i_lp_mmshare_version>
43012

> <i_f3d_flags>
0

> <s_epik_input>
W0NIM11OKFtDSDNdKVtDSDJdW0NIMl1OMVtDSDJdW0NIMl1bQ0gyXU4oW0NIMl1bQ0gyXTEpYyhuW2NIXW4yKWMoYzIzKW5bY0hdbjNbQ0gyXVtDQEhdKFtPSF0pW0NAQEhdNFtDSDJdW0NIMl1bQ0gyXU80

> <s_epik_cmdline>
J2VwaWtfcHl0aG9uJywgJy1waCcsICc3LjAnLCAnLXRuJywgJzgnLCAnLW1hJywgJzIwMCcsICctbWV0YWxfYmluZGluZycsICctaW1hZScsICc8aW5maWxlLm1hZT4nLCAnLW9tYWUnLCAnPG91dGZpbGUubWFlPic=

> <r_lp_tautomer_probability>
1

> <r_epik_Ionization_Penalty>
3.0333

> <r_epik_Ionization_Penalty_Charging>
3.03317

> <r_epik_Ionization_Penalty_Neutral>
0.000131872

> <r_epik_State_Penalty>
1.99939

> <r_epik_Charging_Adjusted_Penalty>
5.03256

> <i_epik_Tot_Q>
2

> <i_epik_Tot_abs_Q>
2

> <r_epik_Metal_State_Penalty>
2.00021

> <b_epik_Metal_Only>
0

> <s_lp_Force_Field>
OPLS_2005

> <r_lp_Energy>
62.4537

> <b_lp_Chiralities_Consistent>
1

> <s_lp_Variant>
AV-unprocessed.smi:155-15

> <Gold.Version>
5.8.1

> <Gold.Id.Protein>
6NUR|6NUR_protein|mol2

> <Gold.PLP.Fitness>
48.3953

> <Gold.PLP.PLP>
-41.4802

> <Gold.PLP.part.hbond>
-2.8911

> <Gold.PLP.part.metal>
0.0000

> <Gold.PLP.part.buried>
-3.2269

> <Gold.PLP.part.nonpolar>
-32.7520

> <Gold.PLP.part.repulsive>
0.6867

> <Gold.PLP.ligand.clash>
0.0000

> <Gold.PLP.ligand.torsion>
1.3247

> <Gold.PLP.Chemscore.Hbond>
2.7144

> <Gold.PLP.Chemscore.CHOScore>
0.3015

> <Gold.PLP.Chemscore.Metal>
0.0000

> <Gold.Chemscore.Hbonds>
donor molecule, donor type, donor heavy atom, donor atom, acceptor molecule, acceptor atom, score
      L1  H     2    63       P1  7921  1.00
      L1  H     6    64       P1  7948  0.66
      L1  C    13    46       P1  7949  0.53

> <Gold.PLP.Chemscore.Internal.Correction>
0.5170

> <Gold.Rescore>
     Score         DG    S(hbond)    S(metal)    S(lipo)     H(rot)  DE(clash)    DE(int)     intcor
     13.67     -15.32       1.61        0.00      98.30       2.75       0.25       1.40       ----

> <Gold.Chemscore.Fitness>
13.6669

> <Gold.Chemscore.DG>
-15.3163

> <Gold.Chemscore.ZeroCoef>
-5.4800

> <Gold.Chemscore.Hbond>
1.6090

> <Gold.Chemscore.Metal>
0.0000

> <Gold.Chemscore.Lipo>
98.2956

> <Gold.Chemscore.Internal_Hbond>
0.0000

> <Gold.Chemscore.DEClash>
0.2474

> <Gold.Chemscore.DEInternal>
1.4021

> <Gold.Chemscore.Rot>
2.7493

> <Gold.Chemscore.Internal.Correction>
   9.000000E+99

> <Gold.Chemscore.Hbonds>
donor molecule, donor type, donor heavy atom, donor atom, acceptor molecule, acceptor atom, score
      L1  H     2    63       P1  7921  0.90
      L1  H     6    64       P1  7948  0.32

> <Gold.Chemscore.Hbond.Weighted>
-5.3740

> <Gold.Chemscore.Metal.Weighted>
-0.0000

> <Gold.Chemscore.Lipo.Weighted>
-11.5006

> <Gold.Chemscore.Internal_Hbond.Weighted>
0.0000

> <Gold.Chemscore.DEClash.Weighted>
0.2474

> <Gold.Chemscore.DEInternal.Weighted>
1.4021

> <Gold.Chemscore.Rot.Weighted>
7.0383

> <Gold.Chemscore.Internal.Correction.Weighted>
   9.000000E+99

> <Gold.Protein.RotatedTorsions>
[ 6907 6896 6895 6894 ] final  -97.68 input  -60.11 | X-H torsion
[ 7974 7965 7964 7962 ] final -148.85 input  175.53 | X-H torsion
[ 8008 7997 7996 7995 ] final   37.92 input   59.86 | X-H torsion
[ 10167 10162 10161 10158 ] final  -26.80 input  -65.29 | X-H torsion
[ 10718 10713 10712 10709 ] final -120.65 input   66.30 | X-H torsion
[ 10763 10752 10751 10750 ] final   61.50 input  -60.55 | X-H torsion
[ 11005 11000 10999 10996 ] final   58.35 input  -57.11 | X-H torsion

> <Gold.Protein.ActiveResidues>
 VAL166  LYS551  ARG553  GLY616  TRP617  ASP618  TYR619  PRO620  LYS621  CYS622 
 ASP623  PHE694  ASN695  SER759  ASP760  ASP761  ALA762  ILE779  LEU786  VAL792 
 PHE793  MET794  SER795  GLU796  ALA797  LYS798  CYS799  TRP800  GLU811  SER814 

> <Gold.Protein.RotatedAtoms>
  150.7023  134.1311  159.4069 H   0  0  0  0  0  0  0  0  0  0  0  0  # atno 6907 bound_to 6896
  151.9297  135.0260  160.0537 H   0  0  0  0  0  0  0  0  0  0  0  0  # atno 6908 bound_to 6896
  152.2186  133.4931  159.5186 H   0  0  0  0  0  0  0  0  0  0  0  0  # atno 6909 bound_to 6896
  144.8004  140.5142  143.5711 H   0  0  0  0  0  0  0  0  0  0  0  0  # atno 7974 bound_to 7965
  155.2117  140.3324  155.4328 H   0  0  0  0  0  0  0  0  0  0  0  0  # atno 8008 bound_to 7997
  156.2368  140.1876  156.7147 H   0  0  0  0  0  0  0  0  0  0  0  0  # atno 8009 bound_to 7997
  154.6073  140.0614  156.9434 H   0  0  0  0  0  0  0  0  0  0  0  0  # atno 8010 bound_to 7997
  140.7281  143.4147  151.1048 H   0  0  0  0  0  0  0  0  0  0  0  0  # atno 10167 bound_to 10162
  156.1275  130.6370  150.9566 H   0  0  0  0  0  0  0  0  0  0  0  0  # atno 10718 bound_to 10713
  152.9953  135.5498  154.6044 H   0  0  0  0  0  0  0  0  0  0  0  0  # atno 10763 bound_to 10752
  154.5379  135.2818  155.1124 H   0  0  0  0  0  0  0  0  0  0  0  0  # atno 10764 bound_to 10752
  154.2414  135.6416  153.5261 H   0  0  0  0  0  0  0  0  0  0  0  0  # atno 10765 bound_to 10752
  140.0384  134.5909  155.9414 H   0  0  0  0  0  0  0  0  0  0  0  0  # atno 11005 bound_to 11000
  145.5568  139.1478  143.3363 LP  0  0  0  0  0  0  0  0  0  0  0  0  # atno 17320 bound_to 7965
  146.2283  140.5705  142.8986 LP  0  0  0  0  0  0  0  0  0  0  0  0  # atno 17321 bound_to 7965
  139.7785  143.8390  152.3133 LP  0  0  0  0  0  0  0  0  0  0  0  0  # atno 17342 bound_to 10162
  139.8333  144.7244  150.9423 LP  0  0  0  0  0  0  0  0  0  0  0  0  # atno 17343 bound_to 10162
  157.6455  131.0904  150.8162 LP  0  0  0  0  0  0  0  0  0  0  0  0  # atno 17370 bound_to 10713
  156.8250  130.4997  149.5338 LP  0  0  0  0  0  0  0  0  0  0  0  0  # atno 17371 bound_to 10713
  141.1870  133.6558  156.5262 LP  0  0  0  0  0  0  0  0  0  0  0  0  # atno 17394 bound_to 11000
  140.4110  134.7272  157.4835 LP  0  0  0  0  0  0  0  0  0  0  0  0  # atno 17395 bound_to 11000

$$$$
