AV-unprocessed.smi:3211|AV-procd|sdf|12277|dock7
  -GOLD-   2272018113D 1   1.00000     0.00000
 Structure written by MMmdl.
 34 35  0  0  0  0  0  0  0  0  1 V2000
  153.4345  142.5842  162.5977 C   0  0  0  0  0  0  0  0  0  0  0  0
  153.4217  142.0724  161.1535 C   0  0  0  0  0  0  0  0  0  0  0  0
  152.6998  142.9922  160.2266 C   0  0  0  0  0  0  0  0  0  0  0  0
  152.3842  142.6726  158.9686 N   0  0  0  0  0  0  0  0  0  0  0  0
  151.6790  143.6885  158.3156 C   0  0  0  0  0  0  0  0  0  0  0  0
  151.2457  143.5053  156.8929 C   0  0  0  0  0  0  0  0  0  0  0  0
  150.7856  142.0662  156.6061 C   0  0  0  0  0  0  0  0  0  0  0  0
  149.6062  142.0394  155.7485 N   0  0  0  0  0  0  0  0  0  0  0  0
  149.4136  141.1867  154.7304 C   0  0  0  0  0  0  0  0  0  0  0  0
  150.2355  140.3256  154.4124 O   0  0  0  0  0  0  0  0  0  0  0  0
  148.1124  141.3725  154.0204 C   0  0  1  0  0  0  0  0  0  0  0  0
  146.8819  140.7363  154.6349 C   0  0  0  0  0  0  0  0  0  0  0  0
  147.0591  142.2343  154.6915 C   0  0  2  0  0  0  0  0  0  0  0  0
  146.1828  143.1524  153.8669 C   0  0  0  0  0  0  0  0  0  0  0  0
  151.4534  144.7863  159.1081 C   0  0  0  0  0  0  0  0  0  0  0  0
  152.1173  144.5823  160.7056 S   0  0  0  0  0  0  0  0  0  0  0  0
  153.9691  141.8939  163.2499 H   0  0  0  0  0  0  0  0  0  0  0  0
  152.4211  142.6923  162.9854 H   0  0  0  0  0  0  0  0  0  0  0  0
  153.9251  143.5558  162.6658 H   0  0  0  0  0  0  0  0  0  0  0  0
  154.4437  141.9475  160.7947 H   0  0  0  0  0  0  0  0  0  0  0  0
  152.9532  141.0884  161.1110 H   0  0  0  0  0  0  0  0  0  0  0  0
  150.4378  144.2015  156.6641 H   0  0  0  0  0  0  0  0  0  0  0  0
  152.0629  143.7668  156.2195 H   0  0  0  0  0  0  0  0  0  0  0  0
  151.5810  141.5141  156.1045 H   0  0  0  0  0  0  0  0  0  0  0  0
  150.5818  141.5369  157.5387 H   0  0  0  0  0  0  0  0  0  0  0  0
  148.8832  142.7167  155.9445 H   0  0  0  0  0  0  0  0  0  0  0  0
  148.1534  141.4020  152.9321 H   0  0  0  0  0  0  0  0  0  0  0  0
  146.1433  140.3296  153.9470 H   0  0  0  0  0  0  0  0  0  0  0  0
  146.9910  140.1848  155.5672 H   0  0  0  0  0  0  0  0  0  0  0  0
  147.3048  142.6443  155.6702 H   0  0  0  0  0  0  0  0  0  0  0  0
  145.9439  142.6991  152.9044 H   0  0  0  0  0  0  0  0  0  0  0  0
  146.6953  144.0979  153.6889 H   0  0  0  0  0  0  0  0  0  0  0  0
  145.2520  143.3556  154.3964 H   0  0  0  0  0  0  0  0  0  0  0  0
  150.9345  145.6980  158.8507 H   0  0  0  0  0  0  0  0  0  0  0  0
  1  2  1  0  0  0  0
  1 17  1  0  0  0  0
  1 18  1  0  0  0  0
  1 19  1  0  0  0  0
  2  3  1  0  0  0  0
  2 20  1  0  0  0  0
  2 21  1  0  0  0  0
  3 16  1  0  0  0  0
  3  4  2  0  0  0  0
  4  5  1  0  0  0  0
  5  6  1  0  0  0  0
  5 15  2  0  0  0  0
  6  7  1  0  0  0  0
  6 22  1  0  0  0  0
  6 23  1  0  0  0  0
  7  8  1  0  0  0  0
  7 24  1  0  0  0  0
  7 25  1  0  0  0  0
  8  9  1  0  0  0  0
  8 26  1  0  0  0  0
  9 10  2  0  0  0  0
  9 11  1  0  0  0  0
 11 13  1  0  0  0  0
 11 12  1  0  0  0  0
 11 27  1  0  0  0  0
 12 13  1  0  0  0  0
 12 28  1  0  0  0  0
 12 29  1  0  0  0  0
 13 14  1  0  0  0  0
 13 30  1  0  0  0  0
 14 31  1  0  0  0  0
 14 32  1  0  0  0  0
 14 33  1  0  0  0  0
 15 16  1  0  0  0  0
 15 34  1  0  0  0  0
M  END
> <s_m_source_file>
AV-unprocessed.smi

> <i_m_source_file_index>
3211

> <i_lp_mmshare_version>
43012

> <i_f3d_flags>
0

> <s_epik_input>
W0NIM11bQ0gyXWMxbmMoW2NIXXMxKVtDSDJdW0NIMl1bTkhdQyg9TylbQ0BASF0yW0NIMl1bQ0BIXTJbQ0gzXQ==

> <s_epik_cmdline>
J2VwaWtfcHl0aG9uJywgJy1waCcsICc3LjAnLCAnLXRuJywgJzgnLCAnLW1hJywgJzIwMCcsICctbWV0YWxfYmluZGluZycsICctaW1hZScsICc8aW5maWxlLm1hZT4nLCAnLW9tYWUnLCAnPG91dGZpbGUubWFlPic=

> <r_epik_Ionization_Penalty>
0.00109667

> <r_epik_Ionization_Penalty_Charging>
0

> <r_epik_Ionization_Penalty_Neutral>
0.00109667

> <r_epik_State_Penalty>
0.000719322

> <r_epik_Charging_Adjusted_Penalty>
0.000719322

> <i_epik_Tot_Q>
0

> <i_epik_Tot_abs_Q>
0

> <r_epik_Metal_State_Penalty>
-0

> <b_epik_Metal_Only>
0

> <s_lp_Force_Field>
OPLS_2005

> <r_lp_Energy>
-0.564993

> <b_lp_Chiralities_Consistent>
1

> <s_lp_Variant>
AV-unprocessed.smi:3211-4

> <Gold.Version>
5.8.1

> <Gold.Id.Protein>
6NUR|6NUR_protein|mol2

> <Gold.PLP.Fitness>
47.6534

> <Gold.PLP.PLP>
-45.2931

> <Gold.PLP.part.hbond>
-2.0000

> <Gold.PLP.part.metal>
0.0000

> <Gold.PLP.part.buried>
-4.0238

> <Gold.PLP.part.nonpolar>
-39.6433

> <Gold.PLP.part.repulsive>
0.2515

> <Gold.PLP.ligand.clash>
0.0000

> <Gold.PLP.ligand.torsion>
1.2737

> <Gold.PLP.Chemscore.Hbond>
1.6080

> <Gold.PLP.Chemscore.CHOScore>
0.0000

> <Gold.PLP.Chemscore.Metal>
0.0000

> <Gold.Chemscore.Hbonds>
donor molecule, donor type, donor heavy atom, donor atom, acceptor molecule, acceptor atom, score
      L1  H     8    26       P1  8028  0.59
      P1  H  7989  7998       L1    10  0.99

> <Gold.PLP.Chemscore.Internal.Correction>
0.0835

> <Gold.Rescore>
     Score         DG    S(hbond)    S(metal)    S(lipo)     H(rot)  DE(clash)    DE(int)     intcor
     17.84     -19.80       1.46        0.00     113.69       1.51       0.97       0.99       ----

> <Gold.Chemscore.Fitness>
17.8404

> <Gold.Chemscore.DG>
-19.7993

> <Gold.Chemscore.ZeroCoef>
-5.4800

> <Gold.Chemscore.Hbond>
1.4617

> <Gold.Chemscore.Metal>
0.0000

> <Gold.Chemscore.Lipo>
113.6908

> <Gold.Chemscore.Internal_Hbond>
0.0000

> <Gold.Chemscore.DEClash>
0.9661

> <Gold.Chemscore.DEInternal>
0.9927

> <Gold.Chemscore.Rot>
1.5096

> <Gold.Chemscore.Internal.Correction>
   9.000000E+99

> <Gold.Chemscore.Hbonds>
donor molecule, donor type, donor heavy atom, donor atom, acceptor molecule, acceptor atom, score
      L1  H     8    26       P1  8028  0.57
      P1  H  7989  7998       L1    10  0.88

> <Gold.Chemscore.Hbond.Weighted>
-4.8820

> <Gold.Chemscore.Metal.Weighted>
-0.0000

> <Gold.Chemscore.Lipo.Weighted>
-13.3018

> <Gold.Chemscore.Internal_Hbond.Weighted>
0.0000

> <Gold.Chemscore.DEClash.Weighted>
0.9661

> <Gold.Chemscore.DEInternal.Weighted>
0.9927

> <Gold.Chemscore.Rot.Weighted>
3.8646

> <Gold.Chemscore.Internal.Correction.Weighted>
   9.000000E+99

> <Gold.Protein.RotatedTorsions>
[ 6907 6896 6895 6894 ] final    2.12 input  -60.11 | X-H torsion
[ 7974 7965 7964 7962 ] final  -67.98 input  175.53 | X-H torsion
[ 8008 7997 7996 7995 ] final  140.41 input   59.86 | X-H torsion
[ 10167 10162 10161 10158 ] final  -39.21 input  -65.29 | X-H torsion
[ 10718 10713 10712 10709 ] final  -10.01 input   66.30 | X-H torsion
[ 10763 10752 10751 10750 ] final  129.67 input  -60.55 | X-H torsion
[ 11005 11000 10999 10996 ] final   75.51 input  -57.11 | X-H torsion

> <Gold.Protein.ActiveResidues>
 VAL166  LYS551  ARG553  GLY616  TRP617  ASP618  TYR619  PRO620  LYS621  CYS622 
 ASP623  PHE694  ASN695  SER759  ASP760  ASP761  ALA762  ILE779  LEU786  VAL792 
 PHE793  MET794  SER795  GLU796  ALA797  LYS798  CYS799  TRP800  GLU811  SER814 

> <Gold.Protein.RotatedAtoms>
  151.6037  135.1045  160.0065 H   0  0  0  0  0  0  0  0  0  0  0  0  # atno 6907 bound_to 6896
  152.4244  133.7166  159.6520 H   0  0  0  0  0  0  0  0  0  0  0  0  # atno 6908 bound_to 6896
  150.8133  133.8310  159.3194 H   0  0  0  0  0  0  0  0  0  0  0  0  # atno 6909 bound_to 6896
  145.7223  140.9033  143.0624 H   0  0  0  0  0  0  0  0  0  0  0  0  # atno 7974 bound_to 7965
  156.2979  140.2342  156.4396 H   0  0  0  0  0  0  0  0  0  0  0  0  # atno 8008 bound_to 7997
  154.8197  140.0438  157.1422 H   0  0  0  0  0  0  0  0  0  0  0  0  # atno 8009 bound_to 7997
  154.9329  140.3019  155.5162 H   0  0  0  0  0  0  0  0  0  0  0  0  # atno 8010 bound_to 7997
  140.7071  143.3229  151.2750 H   0  0  0  0  0  0  0  0  0  0  0  0  # atno 10167 bound_to 10162
  156.6798  130.5033  149.5975 H   0  0  0  0  0  0  0  0  0  0  0  0  # atno 10718 bound_to 10713
  153.7455  135.3218  155.3312 H   0  0  0  0  0  0  0  0  0  0  0  0  # atno 10763 bound_to 10752
  154.8281  135.4555  154.0984 H   0  0  0  0  0  0  0  0  0  0  0  0  # atno 10764 bound_to 10752
  153.2171  135.6943  153.8126 H   0  0  0  0  0  0  0  0  0  0  0  0  # atno 10765 bound_to 10752
  139.9340  134.7523  156.1279 H   0  0  0  0  0  0  0  0  0  0  0  0  # atno 11005 bound_to 11000
  144.6913  139.9219  143.7468 LP  0  0  0  0  0  0  0  0  0  0  0  0  # atno 17320 bound_to 7965
  146.0614  139.3608  143.0579 LP  0  0  0  0  0  0  0  0  0  0  0  0  # atno 17321 bound_to 7965
  139.6688  144.0057  152.2740 LP  0  0  0  0  0  0  0  0  0  0  0  0  # atno 17342 bound_to 10162
  139.9649  144.6533  150.8044 LP  0  0  0  0  0  0  0  0  0  0  0  0  # atno 17343 bound_to 10162
  156.1876  130.6539  151.1024 LP  0  0  0  0  0  0  0  0  0  0  0  0  # atno 17370 bound_to 10713
  157.7048  131.0761  150.6704 LP  0  0  0  0  0  0  0  0  0  0  0  0  # atno 17371 bound_to 10713
  141.0945  133.6701  156.2614 LP  0  0  0  0  0  0  0  0  0  0  0  0  # atno 17394 bound_to 11000
  140.6124  134.5445  157.5535 LP  0  0  0  0  0  0  0  0  0  0  0  0  # atno 17395 bound_to 11000

$$$$
