AV-unprocessed.smi:2471|AV-procd|sdf|9737|dock8
  -GOLD-   2272013373D 1   1.00000     0.00000
 Structure written by MMmdl.
 40 41  0  0  0  0  0  0  0  0  1 V2000
  145.3665  132.2601  149.5270 C   0  0  0  0  0  0  0  0  0  0  0  0
  144.9414  133.3019  150.5402 C   0  0  0  0  0  0  0  0  0  0  0  0
  143.6747  133.2419  151.1540 C   0  0  0  0  0  0  0  0  0  0  0  0
  143.3444  134.2373  152.0908 C   0  0  0  0  0  0  0  0  0  0  0  0
  144.2869  135.2452  152.3723 C   0  0  0  0  0  0  0  0  0  0  0  0
  145.5349  135.2350  151.7096 C   0  0  0  0  0  0  0  0  0  0  0  0
  146.4114  136.2955  152.0616 N   0  0  0  0  0  0  0  0  0  0  0  0
  146.1026  137.4817  152.6148 C   0  0  0  0  0  0  0  0  0  0  0  0
  144.9696  137.8513  152.9247 O   0  0  0  0  0  0  0  0  0  0  0  0
  147.1994  138.2317  152.7948 N   0  0  0  0  0  0  0  0  0  0  0  0
  147.2147  139.5699  153.3784 C   0  0  0  0  0  0  0  0  0  0  0  0
  148.6316  140.0268  153.8036 C   0  0  2  0  0  0  0  0  0  0  0  0
  149.4795  138.8408  154.3207 C   0  0  0  0  0  0  0  0  0  0  0  0
  150.8791  139.2839  154.7733 C   0  0  0  0  0  0  0  0  0  0  0  0
  150.7931  140.3801  155.8435 C   0  0  0  0  0  0  0  0  0  0  0  0
  149.9785  141.5764  155.3326 C   0  0  0  0  0  0  0  0  0  0  0  0
  148.5730  141.1448  154.8739 C   0  0  1  0  0  0  0  0  0  0  0  0
  147.9158  142.2859  154.3594 O   0  0  0  0  0  0  0  0  0  0  0  0
  145.8449  134.2687  150.8095 N   0  0  0  0  0  0  0  0  0  0  0  0
  144.5411  131.5937  149.2747 H   0  0  0  0  0  0  0  0  0  0  0  0
  146.1829  131.6576  149.9258 H   0  0  0  0  0  0  0  0  0  0  0  0
  145.7088  132.7388  148.6092 H   0  0  0  0  0  0  0  0  0  0  0  0
  142.9740  132.4548  150.9166 H   0  0  0  0  0  0  0  0  0  0  0  0
  142.3848  134.2288  152.5860 H   0  0  0  0  0  0  0  0  0  0  0  0
  144.0486  136.0173  153.0895 H   0  0  0  0  0  0  0  0  0  0  0  0
  147.3887  136.1301  151.8726 H   0  0  0  0  0  0  0  0  0  0  0  0
  148.0897  137.8504  152.5099 H   0  0  0  0  0  0  0  0  0  0  0  0
  146.7788  140.2703  152.6642 H   0  0  0  0  0  0  0  0  0  0  0  0
  146.5511  139.5674  154.2435 H   0  0  0  0  0  0  0  0  0  0  0  0
  149.1362  140.4341  152.9259 H   0  0  0  0  0  0  0  0  0  0  0  0
  148.9664  138.3593  155.1542 H   0  0  0  0  0  0  0  0  0  0  0  0
  149.5864  138.0815  153.5456 H   0  0  0  0  0  0  0  0  0  0  0  0
  151.4320  138.4281  155.1615 H   0  0  0  0  0  0  0  0  0  0  0  0
  151.4417  139.6522  153.9144 H   0  0  0  0  0  0  0  0  0  0  0  0
  150.3300  139.9788  156.7458 H   0  0  0  0  0  0  0  0  0  0  0  0
  151.7950  140.7044  156.1264 H   0  0  0  0  0  0  0  0  0  0  0  0
  149.9012  142.3293  156.1178 H   0  0  0  0  0  0  0  0  0  0  0  0
  150.5113  142.0466  154.5045 H   0  0  0  0  0  0  0  0  0  0  0  0
  148.0080  140.7923  155.7379 H   0  0  0  0  0  0  0  0  0  0  0  0
  148.0039  142.9902  154.9834 H   0  0  0  0  0  0  0  0  0  0  0  0
  1  2  1  0  0  0  0
  1 20  1  0  0  0  0
  1 21  1  0  0  0  0
  1 22  1  0  0  0  0
  2 19  1  0  0  0  0
  2  3  2  0  0  0  0
  3  4  1  0  0  0  0
  3 23  1  0  0  0  0
  4  5  2  0  0  0  0
  4 24  1  0  0  0  0
  5  6  1  0  0  0  0
  5 25  1  0  0  0  0
  6  7  1  0  0  0  0
  6 19  2  0  0  0  0
  7  8  1  0  0  0  0
  7 26  1  0  0  0  0
  8  9  2  0  0  0  0
  8 10  1  0  0  0  0
 10 11  1  0  0  0  0
 10 27  1  0  0  0  0
 11 12  1  0  0  0  0
 11 28  1  0  0  0  0
 11 29  1  0  0  0  0
 12 17  1  0  0  0  0
 12 13  1  0  0  0  0
 12 30  1  0  0  0  0
 13 14  1  0  0  0  0
 13 31  1  0  0  0  0
 13 32  1  0  0  0  0
 14 15  1  0  0  0  0
 14 33  1  0  0  0  0
 14 34  1  0  0  0  0
 15 16  1  0  0  0  0
 15 35  1  0  0  0  0
 15 36  1  0  0  0  0
 16 17  1  0  0  0  0
 16 37  1  0  0  0  0
 16 38  1  0  0  0  0
 17 18  1  0  0  0  0
 17 39  1  0  0  0  0
 18 40  1  0  0  0  0
M  END
> <s_m_source_file>
AV-unprocessed.smi

> <i_m_source_file_index>
2471

> <i_lp_mmshare_version>
43012

> <i_f3d_flags>
0

> <s_epik_input>
W0NIM11jMVtjSF1bY0hdW2NIXWMobjEpW05IXUMoPU8pW05IXVtDSDJdW0NAQEhdMltDSDJdW0NIMl1bQ0gyXVtDSDJdW0NASF0yW09IXQ==

> <s_epik_cmdline>
J2VwaWtfcHl0aG9uJywgJy1waCcsICc3LjAnLCAnLXRuJywgJzgnLCAnLW1hJywgJzIwMCcsICctbWV0YWxfYmluZGluZycsICctaW1hZScsICc8aW5maWxlLm1hZT4nLCAnLW9tYWUnLCAnPG91dGZpbGUubWFlPic=

> <r_lp_tautomer_probability>
1

> <r_epik_Ionization_Penalty>
8.52237e-05

> <r_epik_Ionization_Penalty_Charging>
0

> <r_epik_Ionization_Penalty_Neutral>
8.52237e-05

> <r_epik_State_Penalty>
-0

> <r_epik_Charging_Adjusted_Penalty>
0

> <i_epik_Tot_Q>
0

> <i_epik_Tot_abs_Q>
0

> <r_epik_Metal_State_Penalty>
-0

> <b_epik_Metal_Only>
0

> <s_lp_Force_Field>
OPLS_2005

> <r_lp_Energy>
13.6744

> <b_lp_Chiralities_Consistent>
1

> <s_lp_Variant>
AV-unprocessed.smi:2471-1

> <Gold.Version>
5.8.1

> <Gold.Id.Protein>
6NUR|6NUR_protein|mol2

> <Gold.PLP.Fitness>
42.8261

> <Gold.PLP.PLP>
-35.0746

> <Gold.PLP.part.hbond>
-3.1658

> <Gold.PLP.part.metal>
0.0000

> <Gold.PLP.part.buried>
-2.4825

> <Gold.PLP.part.nonpolar>
-30.7666

> <Gold.PLP.part.repulsive>
1.3841

> <Gold.PLP.ligand.clash>
0.0000

> <Gold.PLP.ligand.torsion>
0.4469

> <Gold.PLP.Chemscore.Hbond>
2.8800

> <Gold.PLP.Chemscore.CHOScore>
0.0000

> <Gold.PLP.Chemscore.Metal>
0.0000

> <Gold.Chemscore.Hbonds>
donor molecule, donor type, donor heavy atom, donor atom, acceptor molecule, acceptor atom, score
      L1  H     7    26       P1  7948  1.00
      L1  H    10    27       P1  7948  0.88
      L1  H    18    40       P1  8028  1.00

> <Gold.PLP.Chemscore.Internal.Correction>
0.0053

> <Gold.Rescore>
     Score         DG    S(hbond)    S(metal)    S(lipo)     H(rot)  DE(clash)    DE(int)     intcor
     17.41     -19.49       2.82        0.00      77.05       1.73       0.14       1.93       ----

> <Gold.Chemscore.Fitness>
17.4077

> <Gold.Chemscore.DG>
-19.4855

> <Gold.Chemscore.ZeroCoef>
-5.4800

> <Gold.Chemscore.Hbond>
2.8230

> <Gold.Chemscore.Metal>
0.0000

> <Gold.Chemscore.Lipo>
77.0537

> <Gold.Chemscore.Internal_Hbond>
0.0000

> <Gold.Chemscore.DEClash>
0.1444

> <Gold.Chemscore.DEInternal>
1.9335

> <Gold.Chemscore.Rot>
1.7339

> <Gold.Chemscore.Internal.Correction>
   9.000000E+99

> <Gold.Chemscore.Hbonds>
donor molecule, donor type, donor heavy atom, donor atom, acceptor molecule, acceptor atom, score
      L1  H     7    26       P1  7948  0.94
      L1  H    10    27       P1  7948  0.86
      L1  H    18    40       P1  8028  0.83

> <Gold.Chemscore.Hbond.Weighted>
-9.4289

> <Gold.Chemscore.Metal.Weighted>
-0.0000

> <Gold.Chemscore.Lipo.Weighted>
-9.0153

> <Gold.Chemscore.Internal_Hbond.Weighted>
0.0000

> <Gold.Chemscore.DEClash.Weighted>
0.1444

> <Gold.Chemscore.DEInternal.Weighted>
1.9335

> <Gold.Chemscore.Rot.Weighted>
4.4387

> <Gold.Chemscore.Internal.Correction.Weighted>
   9.000000E+99

> <Gold.Protein.RotatedTorsions>
[ 6907 6896 6895 6894 ] final  -30.64 input  -60.11 | X-H torsion
[ 7974 7965 7964 7962 ] final    0.39 input  175.53 | X-H torsion
[ 8008 7997 7996 7995 ] final -136.65 input   59.86 | X-H torsion
[ 10167 10162 10161 10158 ] final -173.97 input  -65.29 | X-H torsion
[ 10718 10713 10712 10709 ] final -113.82 input   66.30 | X-H torsion
[ 10763 10752 10751 10750 ] final   37.65 input  -60.55 | X-H torsion
[ 11005 11000 10999 10996 ] final    2.55 input  -57.11 | X-H torsion

> <Gold.Protein.ActiveResidues>
 VAL166  LYS551  ARG553  GLY616  TRP617  ASP618  TYR619  PRO620  LYS621  CYS622 
 ASP623  PHE694  ASN695  SER759  ASP760  ASP761  ALA762  ILE779  LEU786  VAL792 
 PHE793  MET794  SER795  GLU796  ALA797  LYS798  CYS799  TRP800  GLU811  SER814 

> <Gold.Protein.RotatedAtoms>
  151.1028  134.9982  159.8456 H   0  0  0  0  0  0  0  0  0  0  0  0  # atno 6907 bound_to 6896
  152.5438  134.1930  159.8691 H   0  0  0  0  0  0  0  0  0  0  0  0  # atno 6908 bound_to 6896
  151.1974  133.4587  159.2629 H   0  0  0  0  0  0  0  0  0  0  0  0  # atno 6909 bound_to 6896
  146.2434  140.1145  142.8342 H   0  0  0  0  0  0  0  0  0  0  0  0  # atno 7974 bound_to 7965
  155.3987  140.0504  157.3037 H   0  0  0  0  0  0  0  0  0  0  0  0  # atno 8008 bound_to 7997
  154.5001  140.2153  155.9325 H   0  0  0  0  0  0  0  0  0  0  0  0  # atno 8009 bound_to 7997
  156.1456  140.3146  155.8570 H   0  0  0  0  0  0  0  0  0  0  0  0  # atno 8010 bound_to 7997
  139.5659  144.1757  152.1311 H   0  0  0  0  0  0  0  0  0  0  0  0  # atno 10167 bound_to 10162
  156.0790  130.5993  150.8693 H   0  0  0  0  0  0  0  0  0  0  0  0  # atno 10718 bound_to 10713
  153.0030  135.6272  154.2178 H   0  0  0  0  0  0  0  0  0  0  0  0  # atno 10763 bound_to 10752
  154.1921  135.2808  155.3020 H   0  0  0  0  0  0  0  0  0  0  0  0  # atno 10764 bound_to 10752
  154.5751  135.5664  153.7191 H   0  0  0  0  0  0  0  0  0  0  0  0  # atno 10765 bound_to 10752
  140.6030  133.9818  155.8141 H   0  0  0  0  0  0  0  0  0  0  0  0  # atno 11005 bound_to 11000
  145.0458  140.8980  143.5025 LP  0  0  0  0  0  0  0  0  0  0  0  0  # atno 17320 bound_to 7965
  145.1234  139.2678  143.5576 LP  0  0  0  0  0  0  0  0  0  0  0  0  # atno 17321 bound_to 7965
  140.1280  144.5314  150.6820 LP  0  0  0  0  0  0  0  0  0  0  0  0  # atno 17342 bound_to 10162
  140.6942  143.2394  151.5046 LP  0  0  0  0  0  0  0  0  0  0  0  0  # atno 17343 bound_to 10162
  157.5899  131.0944  150.9135 LP  0  0  0  0  0  0  0  0  0  0  0  0  # atno 17370 bound_to 10713
  156.9314  130.5351  149.5279 LP  0  0  0  0  0  0  0  0  0  0  0  0  # atno 17371 bound_to 10713
  141.0859  133.9991  157.3313 LP  0  0  0  0  0  0  0  0  0  0  0  0  # atno 17394 bound_to 11000
  139.9224  135.0201  156.8113 LP  0  0  0  0  0  0  0  0  0  0  0  0  # atno 17395 bound_to 11000

$$$$
