AV-unprocessed.smi:1098|AV-procd|sdf|4753|dock1
  -GOLD-   22720 3293D 1   1.00000     0.00000
 Structure written by MMmdl.
 43 44  0  0  0  0  0  0  0  0  2 V2000
  152.5951  142.7183  159.2567 C   0  0  0  0  0  0  0  0  0  0  0  0
  151.5759  141.7076  158.7238 C   0  0  0  0  0  0  0  0  0  0  0  0
  151.3482  141.8760  156.9314 S   0  0  0  0  0  0  0  0  0  0  0  0
  150.7360  140.3372  156.3113 C   0  0  0  0  0  0  0  0  0  0  0  0
  150.2984  139.2971  157.1579 C   0  0  0  0  0  0  0  0  0  0  0  0
  149.8328  138.1077  156.5650 C   0  0  0  0  0  0  0  0  0  0  0  0
  149.8146  138.0057  155.1522 C   0  0  0  0  0  0  0  0  0  0  0  0
  149.3892  136.8554  154.4330 N   0  0  0  0  0  0  0  0  0  0  0  0
  148.9293  135.6855  154.9093 C   0  0  0  0  0  0  0  0  0  0  0  0
  148.7502  135.4179  156.0971 O   0  0  0  0  0  0  0  0  0  0  0  0
  148.6628  134.8282  153.9132 N   0  0  0  0  0  0  0  0  0  0  0  0
  148.1571  133.4695  154.0882 C   0  0  2  0  0  0  0  0  0  0  0  0
  149.2612  132.4524  153.7564 C   0  0  0  0  0  0  0  0  0  0  0  0
  148.7356  131.0103  153.8571 C   0  0  0  0  0  0  0  0  0  0  0  0
  147.5554  130.8094  152.9797 N   0  3  1  0  0  0  0  0  0  0  0  0
  147.0982  129.4032  152.9653 C   0  0  0  0  0  0  0  0  0  0  0  0
  146.4579  131.7566  153.2978 C   0  0  0  0  0  0  0  0  0  0  0  0
  146.9342  133.2148  153.1867 C   0  0  0  0  0  0  0  0  0  0  0  0
  150.2867  139.1079  154.4080 C   0  0  0  0  0  0  0  0  0  0  0  0
  150.7355  140.2523  154.9652 N   0  0  0  0  0  0  0  0  0  0  0  0
  152.7146  142.6173  160.3354 H   0  0  0  0  0  0  0  0  0  0  0  0
  152.2792  143.7411  159.0508 H   0  0  0  0  0  0  0  0  0  0  0  0
  153.5728  142.5695  158.7980 H   0  0  0  0  0  0  0  0  0  0  0  0
  151.9091  140.6941  158.9478 H   0  0  0  0  0  0  0  0  0  0  0  0
  150.6153  141.8536  159.2185 H   0  0  0  0  0  0  0  0  0  0  0  0
  150.3182  139.3877  158.2327 H   0  0  0  0  0  0  0  0  0  0  0  0
  149.5161  137.3001  157.2058 H   0  0  0  0  0  0  0  0  0  0  0  0
  149.4058  136.9484  153.4279 H   0  0  0  0  0  0  0  0  0  0  0  0
  148.8329  135.1340  152.9662 H   0  0  0  0  0  0  0  0  0  0  0  0
  147.8666  133.3295  155.1315 H   0  0  0  0  0  0  0  0  0  0  0  0
  149.6402  132.6301  152.7487 H   0  0  0  0  0  0  0  0  0  0  0  0
  150.1066  132.5834  154.4328 H   0  0  0  0  0  0  0  0  0  0  0  0
  149.5257  130.3148  153.5718 H   0  0  0  0  0  0  0  0  0  0  0  0
  148.4672  130.7799  154.8895 H   0  0  0  0  0  0  0  0  0  0  0  0
  146.7512  129.0941  153.9523 H   0  0  0  0  0  0  0  0  0  0  0  0
  147.9076  128.7378  152.6629 H   0  0  0  0  0  0  0  0  0  0  0  0
  146.2788  129.2720  152.2578 H   0  0  0  0  0  0  0  0  0  0  0  0
  145.6244  131.5935  152.6133 H   0  0  0  0  0  0  0  0  0  0  0  0
  146.0852  131.5596  154.3046 H   0  0  0  0  0  0  0  0  0  0  0  0
  146.1181  133.8864  153.4565 H   0  0  0  0  0  0  0  0  0  0  0  0
  147.1853  133.4361  152.1482 H   0  0  0  0  0  0  0  0  0  0  0  0
  150.3035  139.0728  153.3283 H   0  0  0  0  0  0  0  0  0  0  0  0
  147.8559  131.0214  152.0390 H   0  0  0  0  0  0  0  0  0  0  0  0
  1  2  1  0  0  0  0
  1 21  1  0  0  0  0
  1 22  1  0  0  0  0
  1 23  1  0  0  0  0
  2  3  1  0  0  0  0
  2 24  1  0  0  0  0
  2 25  1  0  0  0  0
  3  4  1  0  0  0  0
  4 20  1  0  0  0  0
  4  5  2  0  0  0  0
  5  6  1  0  0  0  0
  5 26  1  0  0  0  0
  6  7  2  0  0  0  0
  6 27  1  0  0  0  0
  7  8  1  0  0  0  0
  7 19  1  0  0  0  0
  8  9  1  0  0  0  0
  8 28  1  0  0  0  0
  9 10  2  0  0  0  0
  9 11  1  0  0  0  0
 11 12  1  0  0  0  0
 11 29  1  0  0  0  0
 12 18  1  0  0  0  0
 12 13  1  0  0  0  0
 12 30  1  0  0  0  0
 13 14  1  0  0  0  0
 13 31  1  0  0  0  0
 13 32  1  0  0  0  0
 14 15  1  0  0  0  0
 14 33  1  0  0  0  0
 14 34  1  0  0  0  0
 15 16  1  0  0  0  0
 15 17  1  0  0  0  0
 15 43  1  0  0  0  0
 16 35  1  0  0  0  0
 16 36  1  0  0  0  0
 16 37  1  0  0  0  0
 17 18  1  0  0  0  0
 17 38  1  0  0  0  0
 17 39  1  0  0  0  0
 18 40  1  0  0  0  0
 18 41  1  0  0  0  0
 19 20  2  0  0  0  0
 19 42  1  0  0  0  0
M  CHG  1  15   1
M  END
> <s_m_source_file>
AV-unprocessed.smi

> <i_m_source_file_index>
1098

> <i_lp_mmshare_version>
43012

> <i_f3d_flags>
0

> <s_epik_input>
W0NIM11bQ0gyXVNjMVtjSF1bY0hdYyhbY0hdbjEpW05IXUMoPU8pW05IXVtDSF0yW0NIMl1bQ0gyXU4oW0NIM10pW0NIMl1bQ0gyXTI=

> <s_epik_cmdline>
J2VwaWtfcHl0aG9uJywgJy1waCcsICc3LjAnLCAnLXRuJywgJzgnLCAnLW1hJywgJzIwMCcsICctbWV0YWxfYmluZGluZycsICctaW1hZScsICc8aW5maWxlLm1hZT4nLCAnLW9tYWUnLCAnPG91dGZpbGUubWFlPic=

> <r_lp_tautomer_probability>
1

> <r_epik_Ionization_Penalty>
0.00403107

> <r_epik_Ionization_Penalty_Charging>
0.00366825

> <r_epik_Ionization_Penalty_Neutral>
0.000362818

> <r_epik_State_Penalty>
-0

> <r_epik_Charging_Adjusted_Penalty>
0.00366825

> <i_epik_Tot_Q>
1

> <i_epik_Tot_abs_Q>
1

> <r_epik_Metal_State_Penalty>
-0

> <b_epik_Metal_Only>
0

> <s_lp_Force_Field>
OPLS_2005

> <r_lp_Energy>
18.4607

> <b_lp_Chiralities_Consistent>
1

> <s_lp_Variant>
AV-unprocessed.smi:1098-1

> <Gold.Version>
5.8.1

> <Gold.Id.Protein>
6NUR|6NUR_protein|mol2

> <Gold.PLP.Fitness>
43.7323

> <Gold.PLP.PLP>
-29.9320

> <Gold.PLP.part.hbond>
-3.8991

> <Gold.PLP.part.metal>
0.0000

> <Gold.PLP.part.buried>
-3.3577

> <Gold.PLP.part.nonpolar>
-22.2217

> <Gold.PLP.part.repulsive>
0.1035

> <Gold.PLP.ligand.clash>
0.0000

> <Gold.PLP.ligand.torsion>
0.3276

> <Gold.PLP.Chemscore.Hbond>
3.8100

> <Gold.PLP.Chemscore.CHOScore>
1.0000

> <Gold.PLP.Chemscore.Metal>
0.0000

> <Gold.Chemscore.Hbonds>
donor molecule, donor type, donor heavy atom, donor atom, acceptor molecule, acceptor atom, score
      L1  H     8    28       P1  7948  0.94
      L1  H    11    29       P1  7948  0.98
      L1  H    15    43       P1 10747  0.86
      P1  H  7989  7998       L1    20  0.85
      L1  C    19    42       P1  7957  1.00

> <Gold.PLP.Chemscore.Internal.Correction>
0.0256

> <Gold.Rescore>
     Score         DG    S(hbond)    S(metal)    S(lipo)     H(rot)  DE(clash)    DE(int)     intcor
     19.57     -21.19       2.86        0.00      81.08       1.30       0.02       1.61       ----

> <Gold.Chemscore.Fitness>
19.5712

> <Gold.Chemscore.DG>
-21.1927

> <Gold.Chemscore.ZeroCoef>
-5.4800

> <Gold.Chemscore.Hbond>
2.8635

> <Gold.Chemscore.Metal>
0.0000

> <Gold.Chemscore.Lipo>
81.0793

> <Gold.Chemscore.Internal_Hbond>
0.0000

> <Gold.Chemscore.DEClash>
0.0158

> <Gold.Chemscore.DEInternal>
1.6058

> <Gold.Chemscore.Rot>
1.3038

> <Gold.Chemscore.Internal.Correction>
   9.000000E+99

> <Gold.Chemscore.Hbonds>
donor molecule, donor type, donor heavy atom, donor atom, acceptor molecule, acceptor atom, score
      L1  H     8    28       P1  7948  0.84
      L1  H    11    29       P1  7948  0.31
      L1  H    15    43       P1 10747  0.83
      P1  H  7989  7998       L1    20  0.15

> <Gold.Chemscore.Hbond.Weighted>
-9.5642

> <Gold.Chemscore.Metal.Weighted>
-0.0000

> <Gold.Chemscore.Lipo.Weighted>
-9.4863

> <Gold.Chemscore.Internal_Hbond.Weighted>
0.0000

> <Gold.Chemscore.DEClash.Weighted>
0.0158

> <Gold.Chemscore.DEInternal.Weighted>
1.6058

> <Gold.Chemscore.Rot.Weighted>
3.3378

> <Gold.Chemscore.Internal.Correction.Weighted>
   9.000000E+99

> <Gold.Protein.RotatedTorsions>
[ 6907 6896 6895 6894 ] final   -2.01 input  -60.11 | X-H torsion
[ 7974 7965 7964 7962 ] final  -41.79 input  175.53 | X-H torsion
[ 8008 7997 7996 7995 ] final  -94.81 input   59.86 | X-H torsion
[ 10167 10162 10161 10158 ] final  110.22 input  -65.29 | X-H torsion
[ 10718 10713 10712 10709 ] final  -61.62 input   66.30 | X-H torsion
[ 10763 10752 10751 10750 ] final  -63.71 input  -60.55 | X-H torsion
[ 11005 11000 10999 10996 ] final   -0.19 input  -57.11 | X-H torsion

> <Gold.Protein.ActiveResidues>
 VAL166  LYS551  ARG553  GLY616  TRP617  ASP618  TYR619  PRO620  LYS621  CYS622 
 ASP623  PHE694  ASN695  SER759  ASP760  ASP761  ALA762  ILE779  LEU786  VAL792 
 PHE793  MET794  SER795  GLU796  ALA797  LYS798  CYS799  TRP800  GLU811  SER814 

> <Gold.Protein.RotatedAtoms>
  151.5368  135.1068  159.9916 H   0  0  0  0  0  0  0  0  0  0  0  0  # atno 6907 bound_to 6896
  152.4553  133.7707  159.6808 H   0  0  0  0  0  0  0  0  0  0  0  0  # atno 6908 bound_to 6896
  150.8495  133.7743  159.3055 H   0  0  0  0  0  0  0  0  0  0  0  0  # atno 6909 bound_to 6896
  146.0177  140.6887  142.9193 H   0  0  0  0  0  0  0  0  0  0  0  0  # atno 7974 bound_to 7965
  154.7532  140.0486  157.0911 H   0  0  0  0  0  0  0  0  0  0  0  0  # atno 8008 bound_to 7997
  155.0031  140.3127  155.4840 H   0  0  0  0  0  0  0  0  0  0  0  0  # atno 8009 bound_to 7997
  156.2889  140.2198  156.5141 H   0  0  0  0  0  0  0  0  0  0  0  0  # atno 8010 bound_to 7997
  139.6705  144.7125  151.1697 H   0  0  0  0  0  0  0  0  0  0  0  0  # atno 10167 bound_to 10162
  156.0909  130.4200  150.1020 H   0  0  0  0  0  0  0  0  0  0  0  0  # atno 10718 bound_to 10713
  154.3192  135.6200  153.5500 H   0  0  0  0  0  0  0  0  0  0  0  0  # atno 10763 bound_to 10752
  152.9821  135.5720  154.5089 H   0  0  0  0  0  0  0  0  0  0  0  0  # atno 10764 bound_to 10752
  154.4754  135.2861  155.1587 H   0  0  0  0  0  0  0  0  0  0  0  0  # atno 10765 bound_to 10752
  140.6336  133.9553  155.8287 H   0  0  0  0  0  0  0  0  0  0  0  0  # atno 11005 bound_to 11000
  144.6977  140.3511  143.7181 LP  0  0  0  0  0  0  0  0  0  0  0  0  # atno 17320 bound_to 7965
  145.7242  139.1718  143.2467 LP  0  0  0  0  0  0  0  0  0  0  0  0  # atno 17321 bound_to 7965
  140.7616  143.5852  150.8854 LP  0  0  0  0  0  0  0  0  0  0  0  0  # atno 17342 bound_to 10162
  139.9517  143.6265  152.3027 LP  0  0  0  0  0  0  0  0  0  0  0  0  # atno 17343 bound_to 10162
  156.9030  130.9626  151.3573 LP  0  0  0  0  0  0  0  0  0  0  0  0  # atno 17370 bound_to 10713
  157.6058  130.8546  149.8873 LP  0  0  0  0  0  0  0  0  0  0  0  0  # atno 17371 bound_to 10713
  141.0658  134.0279  157.3596 LP  0  0  0  0  0  0  0  0  0  0  0  0  # atno 17394 bound_to 11000
  139.9107  135.0189  156.7678 LP  0  0  0  0  0  0  0  0  0  0  0  0  # atno 17395 bound_to 11000

$$$$
