AV-unprocessed.smi:1537|AV-procd|sdf|6191|dock1
  -GOLD-   22720 6353D 1   1.00000     0.00000
 Structure written by MMmdl.
 43 43  0  0  0  0  0  0  0  0  1 V2000
  153.4772  141.9574  161.4994 C   0  0  0  0  0  0  0  0  0  0  0  0
  152.4832  141.8375  160.3396 C   0  0  0  0  0  0  0  0  0  0  0  0
  151.8175  143.1342  160.0217 C   0  0  0  0  0  0  0  0  0  0  0  0
  150.6262  143.4889  160.5099 N   0  0  0  0  0  0  0  0  0  0  0  0
  150.1944  144.7308  160.0311 C   0  0  0  0  0  0  0  0  0  0  0  0
  148.8743  145.2897  160.4759 C   0  0  0  0  0  0  0  0  0  0  0  0
  147.7533  144.2893  160.1907 C   0  0  0  0  0  0  0  0  0  0  0  0
  147.2364  143.6618  161.1152 O   0  0  0  0  0  0  0  0  0  0  0  0
  147.3903  144.1470  158.9054 N   0  0  0  0  0  0  0  0  0  0  0  0
  146.3552  143.2402  158.4134 C   0  0  1  0  0  0  0  0  0  0  0  0
  145.3173  144.0768  157.6470 C   0  0  0  0  0  0  0  0  0  0  0  0
  146.9515  142.2106  157.4397 C   0  0  0  0  0  0  0  0  0  0  0  0
  146.2325  141.3575  156.9172 O   0  0  0  0  0  0  0  0  0  0  0  0
  148.2758  142.3062  157.2266 N   0  0  0  0  0  0  0  0  0  0  0  0
  149.1235  141.4796  156.3592 C   0  0  0  0  0  0  0  0  0  0  0  0
  148.9723  140.0261  156.8405 C   0  0  0  0  0  0  0  0  0  0  0  0
  150.6033  141.8986  156.4868 C   0  0  0  0  0  0  0  0  0  0  0  0
  148.6563  141.5709  154.8913 C   0  0  0  0  0  0  0  0  0  0  0  0
  151.0855  145.3142  159.1644 C   0  0  0  0  0  0  0  0  0  0  0  0
  152.4911  144.3179  158.9075 S   0  0  0  0  0  0  0  0  0  0  0  0
  153.9452  140.9960  161.7115 H   0  0  0  0  0  0  0  0  0  0  0  0
  152.9800  142.2944  162.4094 H   0  0  0  0  0  0  0  0  0  0  0  0
  154.2692  142.6700  161.2663 H   0  0  0  0  0  0  0  0  0  0  0  0
  152.9939  141.4745  159.4469 H   0  0  0  0  0  0  0  0  0  0  0  0
  151.7161  141.1015  160.5819 H   0  0  0  0  0  0  0  0  0  0  0  0
  148.8872  145.5233  161.5414 H   0  0  0  0  0  0  0  0  0  0  0  0
  148.6611  146.2263  159.9589 H   0  0  0  0  0  0  0  0  0  0  0  0
  147.8738  144.7020  158.2141 H   0  0  0  0  0  0  0  0  0  0  0  0
  145.8722  142.7349  159.2523 H   0  0  0  0  0  0  0  0  0  0  0  0
  144.5128  143.4514  157.2578 H   0  0  0  0  0  0  0  0  0  0  0  0
  145.7638  144.6075  156.8045 H   0  0  0  0  0  0  0  0  0  0  0  0
  144.8609  144.8218  158.2998 H   0  0  0  0  0  0  0  0  0  0  0  0
  148.7546  143.0467  157.7183 H   0  0  0  0  0  0  0  0  0  0  0  0
  149.5782  139.3447  156.2421 H   0  0  0  0  0  0  0  0  0  0  0  0
  147.9369  139.6897  156.7716 H   0  0  0  0  0  0  0  0  0  0  0  0
  149.2853  139.9153  157.8794 H   0  0  0  0  0  0  0  0  0  0  0  0
  150.9355  141.8708  157.5254 H   0  0  0  0  0  0  0  0  0  0  0  0
  150.7789  142.9068  156.1118 H   0  0  0  0  0  0  0  0  0  0  0  0
  151.2505  141.2301  155.9182 H   0  0  0  0  0  0  0  0  0  0  0  0
  149.2199  140.8855  154.2576 H   0  0  0  0  0  0  0  0  0  0  0  0
  148.7917  142.5701  154.4778 H   0  0  0  0  0  0  0  0  0  0  0  0
  147.6009  141.3141  154.7940 H   0  0  0  0  0  0  0  0  0  0  0  0
  150.9955  146.2632  158.6566 H   0  0  0  0  0  0  0  0  0  0  0  0
  1  2  1  0  0  0  0
  1 21  1  0  0  0  0
  1 22  1  0  0  0  0
  1 23  1  0  0  0  0
  2  3  1  0  0  0  0
  2 24  1  0  0  0  0
  2 25  1  0  0  0  0
  3 20  1  0  0  0  0
  3  4  2  0  0  0  0
  4  5  1  0  0  0  0
  5  6  1  0  0  0  0
  5 19  2  0  0  0  0
  6  7  1  0  0  0  0
  6 26  1  0  0  0  0
  6 27  1  0  0  0  0
  7  8  2  0  0  0  0
  7  9  1  0  0  0  0
  9 10  1  0  0  0  0
  9 28  1  0  0  0  0
 10 11  1  0  0  0  0
 10 12  1  0  0  0  0
 10 29  1  0  0  0  0
 11 30  1  0  0  0  0
 11 31  1  0  0  0  0
 11 32  1  0  0  0  0
 12 13  2  0  0  0  0
 12 14  1  0  0  0  0
 14 15  1  0  0  0  0
 14 33  1  0  0  0  0
 15 16  1  0  0  0  0
 15 17  1  0  0  0  0
 15 18  1  0  0  0  0
 16 34  1  0  0  0  0
 16 35  1  0  0  0  0
 16 36  1  0  0  0  0
 17 37  1  0  0  0  0
 17 38  1  0  0  0  0
 17 39  1  0  0  0  0
 18 40  1  0  0  0  0
 18 41  1  0  0  0  0
 18 42  1  0  0  0  0
 19 20  1  0  0  0  0
 19 43  1  0  0  0  0
M  END
> <s_m_source_file>
AV-unprocessed.smi

> <i_m_source_file_index>
1537

> <i_lp_mmshare_version>
43012

> <i_f3d_flags>
0

> <s_epik_input>
W0NIM11bQ0gyXWMxbmMoW2NIXXMxKVtDSDJdQyg9TylbTkhdW0NASF0oW0NIM10pQyg9TylbTkhdQyhbQ0gzXSkoW0NIM10pW0NIM10=

> <s_epik_cmdline>
J2VwaWtfcHl0aG9uJywgJy1waCcsICc3LjAnLCAnLXRuJywgJzgnLCAnLW1hJywgJzIwMCcsICctbWV0YWxfYmluZGluZycsICctaW1hZScsICc8aW5maWxlLm1hZT4nLCAnLW9tYWUnLCAnPG91dGZpbGUubWFlPic=

> <r_lp_tautomer_probability>
1

> <r_epik_Ionization_Penalty>
4.05444e-05

> <r_epik_Ionization_Penalty_Charging>
0

> <r_epik_Ionization_Penalty_Neutral>
4.05444e-05

> <r_epik_State_Penalty>
-0

> <r_epik_Charging_Adjusted_Penalty>
0

> <i_epik_Tot_Q>
0

> <i_epik_Tot_abs_Q>
0

> <r_epik_Metal_State_Penalty>
-0

> <b_epik_Metal_Only>
0

> <s_lp_Force_Field>
OPLS_2005

> <r_lp_Energy>
-2.34744

> <b_lp_Chiralities_Consistent>
1

> <s_lp_Variant>
AV-unprocessed.smi:1537-2

> <Gold.Version>
5.8.1

> <Gold.Id.Protein>
6NUR|6NUR_protein|mol2

> <Gold.PLP.Fitness>
45.0880

> <Gold.PLP.PLP>
-40.1466

> <Gold.PLP.part.hbond>
-3.9820

> <Gold.PLP.part.metal>
0.0000

> <Gold.PLP.part.buried>
-5.1167

> <Gold.PLP.part.nonpolar>
-31.8833

> <Gold.PLP.part.repulsive>
0.2985

> <Gold.PLP.ligand.clash>
0.0000

> <Gold.PLP.ligand.torsion>
0.5563

> <Gold.PLP.Chemscore.Hbond>
1.9920

> <Gold.PLP.Chemscore.CHOScore>
0.0000

> <Gold.PLP.Chemscore.Metal>
0.0000

> <Gold.Chemscore.Hbonds>
donor molecule, donor type, donor heavy atom, donor atom, acceptor molecule, acceptor atom, score
      L1  H     9    28       P1  8029  0.98
      P1  H  6933  6944       L1     8  1.00

> <Gold.PLP.Chemscore.Internal.Correction>
0.0779

> <Gold.Rescore>
     Score         DG    S(hbond)    S(metal)    S(lipo)     H(rot)  DE(clash)    DE(int)     intcor
     15.17     -17.24       1.63        0.00      95.08       1.88       0.17       1.90       ----

> <Gold.Chemscore.Fitness>
15.1738

> <Gold.Chemscore.DG>
-17.2375

> <Gold.Chemscore.ZeroCoef>
-5.4800

> <Gold.Chemscore.Hbond>
1.6281

> <Gold.Chemscore.Metal>
0.0000

> <Gold.Chemscore.Lipo>
95.0756

> <Gold.Chemscore.Internal_Hbond>
0.0000

> <Gold.Chemscore.DEClash>
0.1667

> <Gold.Chemscore.DEInternal>
1.8969

> <Gold.Chemscore.Rot>
1.8766

> <Gold.Chemscore.Internal.Correction>
   9.000000E+99

> <Gold.Chemscore.Hbonds>
donor molecule, donor type, donor heavy atom, donor atom, acceptor molecule, acceptor atom, score
      L1  H     9    28       P1  8029  0.73
      P1  H  6933  6944       L1     8  0.35

> <Gold.Chemscore.Hbond.Weighted>
-5.4378

> <Gold.Chemscore.Metal.Weighted>
-0.0000

> <Gold.Chemscore.Lipo.Weighted>
-11.1238

> <Gold.Chemscore.Internal_Hbond.Weighted>
0.0000

> <Gold.Chemscore.DEClash.Weighted>
0.1667

> <Gold.Chemscore.DEInternal.Weighted>
1.8969

> <Gold.Chemscore.Rot.Weighted>
4.8042

> <Gold.Chemscore.Internal.Correction.Weighted>
   9.000000E+99

> <Gold.Protein.RotatedTorsions>
[ 6907 6896 6895 6894 ] final -132.85 input  -60.11 | X-H torsion
[ 7974 7965 7964 7962 ] final   81.73 input  175.53 | X-H torsion
[ 8008 7997 7996 7995 ] final  -47.21 input   59.86 | X-H torsion
[ 10167 10162 10161 10158 ] final  145.07 input  -65.29 | X-H torsion
[ 10718 10713 10712 10709 ] final  -11.65 input   66.30 | X-H torsion
[ 10763 10752 10751 10750 ] final -145.56 input  -60.55 | X-H torsion
[ 11005 11000 10999 10996 ] final  171.01 input  -57.11 | X-H torsion

> <Gold.Protein.ActiveResidues>
 VAL166  LYS551  ARG553  GLY616  TRP617  ASP618  TYR619  PRO620  LYS621  CYS622 
 ASP623  PHE694  ASN695  SER759  ASP760  ASP761  ALA762  ILE779  LEU786  VAL792 
 PHE793  MET794  SER795  GLU796  ALA797  LYS798  CYS799  TRP800  GLU811  SER814 

> <Gold.Protein.RotatedAtoms>
  150.9672  133.6382  159.2743 H   0  0  0  0  0  0  0  0  0  0  0  0  # atno 6907 bound_to 6896
  151.3684  135.0916  159.9467 H   0  0  0  0  0  0  0  0  0  0  0  0  # atno 6908 bound_to 6896
  152.5169  133.9231  159.7599 H   0  0  0  0  0  0  0  0  0  0  0  0  # atno 6909 bound_to 6896
  145.6343  139.2411  143.2067 H   0  0  0  0  0  0  0  0  0  0  0  0  # atno 7974 bound_to 7965
  154.4014  140.1352  156.4138 H   0  0  0  0  0  0  0  0  0  0  0  0  # atno 8008 bound_to 7997
  155.7708  140.3484  155.5225 H   0  0  0  0  0  0  0  0  0  0  0  0  # atno 8009 bound_to 7997
  155.8769  140.0981  157.1502 H   0  0  0  0  0  0  0  0  0  0  0  0  # atno 8010 bound_to 7997
  139.4933  144.5928  151.6646 H   0  0  0  0  0  0  0  0  0  0  0  0  # atno 10167 bound_to 10162
  156.6560  130.4968  149.6046 H   0  0  0  0  0  0  0  0  0  0  0  0  # atno 10718 bound_to 10713
  154.8377  135.3410  154.6524 H   0  0  0  0  0  0  0  0  0  0  0  0  # atno 10763 bound_to 10752
  153.7137  135.6962  153.5035 H   0  0  0  0  0  0  0  0  0  0  0  0  # atno 10764 bound_to 10752
  153.2432  135.4377  155.0674 H   0  0  0  0  0  0  0  0  0  0  0  0  # atno 10765 bound_to 10752
  140.3144  134.7490  157.4016 H   0  0  0  0  0  0  0  0  0  0  0  0  # atno 11005 bound_to 11000
  146.1331  140.7158  142.9402 LP  0  0  0  0  0  0  0  0  0  0  0  0  # atno 17320 bound_to 7965
  144.7181  140.4281  143.7029 LP  0  0  0  0  0  0  0  0  0  0  0  0  # atno 17321 bound_to 7965
  140.5558  144.0350  150.6147 LP  0  0  0  0  0  0  0  0  0  0  0  0  # atno 17342 bound_to 10162
  140.3419  143.3014  152.0579 LP  0  0  0  0  0  0  0  0  0  0  0  0  # atno 17343 bound_to 10162
  156.2047  130.6642  151.1206 LP  0  0  0  0  0  0  0  0  0  0  0  0  # atno 17370 bound_to 10713
  157.7125  131.0727  150.6448 LP  0  0  0  0  0  0  0  0  0  0  0  0  # atno 17371 bound_to 10713
  140.0996  134.5490  155.8365 LP  0  0  0  0  0  0  0  0  0  0  0  0  # atno 17394 bound_to 11000
  141.2101  133.6691  156.6485 LP  0  0  0  0  0  0  0  0  0  0  0  0  # atno 17395 bound_to 11000

$$$$
