AV-unprocessed.smi:3095|AV-procd|sdf|11792|dock1
  -GOLD-   2272017173D 1   1.00000     0.00000
 Structure written by MMmdl.
 25 26  0  0  0  0  0  0  0  0  2 V2000
  155.1280  139.6536  160.3856 C   0  0  0  0  0  0  0  0  0  0  0  0
  154.0733  140.5586  159.8306 C   0  0  0  0  0  0  0  0  0  0  0  0
  153.6576  141.7577  160.3527 C   0  0  0  0  0  0  0  0  0  0  0  0
  152.4019  142.4850  159.3890 S   0  0  0  0  0  0  0  0  0  0  0  0
  152.4999  141.1198  158.2825 C   0  0  0  0  0  0  0  0  0  0  0  0
  151.6152  140.9835  157.0843 C   0  0  2  0  0  0  0  0  0  0  0  0
  150.9060  142.3020  156.7218 C   0  0  0  0  0  0  0  0  0  0  0  0
  149.9897  142.0836  155.5855 N   0  3  0  0  0  0  0  0  0  0  0  0
  149.0361  140.9904  155.8604 C   0  0  0  0  0  0  0  0  0  0  0  0
  149.7941  139.7134  156.2653 C   0  0  0  0  0  0  0  0  0  0  0  0
  150.6394  139.9862  157.3783 O   0  0  0  0  0  0  0  0  0  0  0  0
  153.3980  140.2035  158.6593 N   0  0  0  0  0  0  0  0  0  0  0  0
  155.5400  140.0449  161.3162 H   0  0  0  0  0  0  0  0  0  0  0  0
  155.9544  139.5356  159.6846 H   0  0  0  0  0  0  0  0  0  0  0  0
  154.7269  138.6618  160.5952 H   0  0  0  0  0  0  0  0  0  0  0  0
  154.0113  142.2543  161.2444 H   0  0  0  0  0  0  0  0  0  0  0  0
  152.2310  140.6475  156.2481 H   0  0  0  0  0  0  0  0  0  0  0  0
  150.3358  142.6764  157.5735 H   0  0  0  0  0  0  0  0  0  0  0  0
  151.6320  143.0709  156.4563 H   0  0  0  0  0  0  0  0  0  0  0  0
  149.4803  142.9349  155.3949 H   0  0  0  0  0  0  0  0  0  0  0  0
  148.3605  141.2967  156.6603 H   0  0  0  0  0  0  0  0  0  0  0  0
  148.4264  140.8108  154.9746 H   0  0  0  0  0  0  0  0  0  0  0  0
  149.0887  138.9293  156.5409 H   0  0  0  0  0  0  0  0  0  0  0  0
  150.3858  139.3311  155.4319 H   0  0  0  0  0  0  0  0  0  0  0  0
  150.5365  141.8382  154.7724 H   0  0  0  0  0  0  0  0  0  0  0  0
  1  2  1  0  0  0  0
  1 13  1  0  0  0  0
  1 14  1  0  0  0  0
  1 15  1  0  0  0  0
  2 12  1  0  0  0  0
  2  3  2  0  0  0  0
  3  4  1  0  0  0  0
  3 16  1  0  0  0  0
  4  5  1  0  0  0  0
  5  6  1  0  0  0  0
  5 12  2  0  0  0  0
  6 11  1  0  0  0  0
  6  7  1  0  0  0  0
  6 17  1  0  0  0  0
  7  8  1  0  0  0  0
  7 18  1  0  0  0  0
  7 19  1  0  0  0  0
  8  9  1  0  0  0  0
  8 20  1  0  0  0  0
  8 25  1  0  0  0  0
  9 10  1  0  0  0  0
  9 21  1  0  0  0  0
  9 22  1  0  0  0  0
 10 11  1  0  0  0  0
 10 23  1  0  0  0  0
 10 24  1  0  0  0  0
M  CHG  1   8   1
M  END
> <s_m_source_file>
AV-unprocessed.smi

> <i_m_source_file_index>
3095

> <i_lp_mmshare_version>
43012

> <i_f3d_flags>
0

> <s_epik_input>
W0NIM11jMVtjSF1zYyhuMSlbQ0BASF0yW0NIMl1bTkhdW0NIMl1bQ0gyXU8y

> <s_epik_cmdline>
J2VwaWtfcHl0aG9uJywgJy1waCcsICc3LjAnLCAnLXRuJywgJzgnLCAnLW1hJywgJzIwMCcsICctbWV0YWxfYmluZGluZycsICctaW1hZScsICc8aW5maWxlLm1hZT4nLCAnLW9tYWUnLCAnPG91dGZpbGUubWFlPic=

> <r_epik_Ionization_Penalty>
0.125709

> <r_epik_Ionization_Penalty_Charging>
0.125708

> <r_epik_Ionization_Penalty_Neutral>
7.00244e-07

> <r_epik_State_Penalty>
0.0155371

> <r_epik_Charging_Adjusted_Penalty>
0.141245

> <i_epik_Tot_Q>
1

> <i_epik_Tot_abs_Q>
1

> <r_epik_Metal_State_Penalty>
0.0155948

> <b_epik_Metal_Only>
0

> <s_lp_Force_Field>
OPLS_2005

> <r_lp_Energy>
6.74862

> <b_lp_Chiralities_Consistent>
1

> <s_lp_Variant>
AV-unprocessed.smi:3095-1

> <Gold.Version>
5.8.1

> <Gold.Id.Protein>
6NUR|6NUR_protein|mol2

> <Gold.PLP.Fitness>
29.6583

> <Gold.PLP.PLP>
-21.4063

> <Gold.PLP.part.hbond>
-2.0000

> <Gold.PLP.part.metal>
0.0000

> <Gold.PLP.part.buried>
-2.0694

> <Gold.PLP.part.nonpolar>
-15.8443

> <Gold.PLP.part.repulsive>
0.1667

> <Gold.PLP.ligand.clash>
0.0000

> <Gold.PLP.ligand.torsion>
0.3191

> <Gold.PLP.Chemscore.Hbond>
2.9600

> <Gold.PLP.Chemscore.CHOScore>
0.0000

> <Gold.PLP.Chemscore.Metal>
0.0000

> <Gold.Chemscore.Hbonds>
donor molecule, donor type, donor heavy atom, donor atom, acceptor molecule, acceptor atom, score
      L1  H     8    20       P1  8028  2.00
      P1  H  7997  8008       L1    12  0.94

> <Gold.PLP.Chemscore.Internal.Correction>
0.0100

> <Gold.Rescore>
     Score         DG    S(hbond)    S(metal)    S(lipo)     H(rot)  DE(clash)    DE(int)     intcor
     15.94     -16.39       1.69        0.00      66.88       1.00       0.04       0.42       ----

> <Gold.Chemscore.Fitness>
15.9398

> <Gold.Chemscore.DG>
-16.3923

> <Gold.Chemscore.ZeroCoef>
-5.4800

> <Gold.Chemscore.Hbond>
1.6907

> <Gold.Chemscore.Metal>
0.0000

> <Gold.Chemscore.Lipo>
66.8834

> <Gold.Chemscore.Internal_Hbond>
0.0000

> <Gold.Chemscore.DEClash>
0.0369

> <Gold.Chemscore.DEInternal>
0.4156

> <Gold.Chemscore.Rot>
1.0000

> <Gold.Chemscore.Internal.Correction>
   9.000000E+99

> <Gold.Chemscore.Hbonds>
donor molecule, donor type, donor heavy atom, donor atom, acceptor molecule, acceptor atom, score
      L1  H     8    20       P1  8028  0.99
      P1  H  7997  8008       L1    12  0.33

> <Gold.Chemscore.Hbond.Weighted>
-5.6469

> <Gold.Chemscore.Metal.Weighted>
-0.0000

> <Gold.Chemscore.Lipo.Weighted>
-7.8254

> <Gold.Chemscore.Internal_Hbond.Weighted>
0.0000

> <Gold.Chemscore.DEClash.Weighted>
0.0369

> <Gold.Chemscore.DEInternal.Weighted>
0.4156

> <Gold.Chemscore.Rot.Weighted>
2.5600

> <Gold.Chemscore.Internal.Correction.Weighted>
   9.000000E+99

> <Gold.Protein.RotatedTorsions>
[ 6907 6896 6895 6894 ] final   98.41 input  -60.11 | X-H torsion
[ 7974 7965 7964 7962 ] final -167.56 input  175.53 | X-H torsion
[ 8008 7997 7996 7995 ] final  -95.91 input   59.86 | X-H torsion
[ 10167 10162 10161 10158 ] final   78.88 input  -65.29 | X-H torsion
[ 10718 10713 10712 10709 ] final   16.54 input   66.30 | X-H torsion
[ 10763 10752 10751 10750 ] final   76.38 input  -60.55 | X-H torsion
[ 11005 11000 10999 10996 ] final   94.41 input  -57.11 | X-H torsion

> <Gold.Protein.ActiveResidues>
 VAL166  LYS551  ARG553  GLY616  TRP617  ASP618  TYR619  PRO620  LYS621  CYS622 
 ASP623  PHE694  ASN695  SER759  ASP760  ASP761  ALA762  ILE779  LEU786  VAL792 
 PHE793  MET794  SER795  GLU796  ALA797  LYS798  CYS799  TRP800  GLU811  SER814 

> <Gold.Protein.RotatedAtoms>
  152.5409  134.0585  159.8141 H   0  0  0  0  0  0  0  0  0  0  0  0  # atno 6907 bound_to 6896
  151.0716  133.5454  159.2634 H   0  0  0  0  0  0  0  0  0  0  0  0  # atno 6908 bound_to 6896
  151.2315  135.0564  159.9043 H   0  0  0  0  0  0  0  0  0  0  0  0  # atno 6909 bound_to 6896
  144.7220  140.2500  143.6280 H   0  0  0  0  0  0  0  0  0  0  0  0  # atno 7974 bound_to 7965
  154.7675  140.0476  157.1024 H   0  0  0  0  0  0  0  0  0  0  0  0  # atno 8008 bound_to 7997
  154.9862  140.3107  155.4906 H   0  0  0  0  0  0  0  0  0  0  0  0  # atno 8009 bound_to 7997
  156.2915  140.2227  156.4964 H   0  0  0  0  0  0  0  0  0  0  0  0  # atno 8010 bound_to 7997
  139.9662  144.5926  150.8027 H   0  0  0  0  0  0  0  0  0  0  0  0  # atno 10167 bound_to 10162
  157.0692  130.6341  149.5802 H   0  0  0  0  0  0  0  0  0  0  0  0  # atno 10718 bound_to 10713
  153.0721  135.4953  154.8328 H   0  0  0  0  0  0  0  0  0  0  0  0  # atno 10763 bound_to 10752
  154.7037  135.3006  154.9304 H   0  0  0  0  0  0  0  0  0  0  0  0  # atno 10764 bound_to 10752
  154.0020  135.6765  153.4812 H   0  0  0  0  0  0  0  0  0  0  0  0  # atno 10765 bound_to 10752
  139.8799  134.8844  156.3860 H   0  0  0  0  0  0  0  0  0  0  0  0  # atno 11005 bound_to 11000
  145.8237  139.2055  143.1923 LP  0  0  0  0  0  0  0  0  0  0  0  0  # atno 17320 bound_to 7965
  146.0492  140.8087  142.9790 LP  0  0  0  0  0  0  0  0  0  0  0  0  # atno 17321 bound_to 7965
  140.7537  143.3013  151.3073 LP  0  0  0  0  0  0  0  0  0  0  0  0  # atno 17342 bound_to 10162
  139.6516  144.0352  152.2630 LP  0  0  0  0  0  0  0  0  0  0  0  0  # atno 17343 bound_to 10162
  155.9955  130.5022  150.7462 LP  0  0  0  0  0  0  0  0  0  0  0  0  # atno 17370 bound_to 10713
  157.4891  131.0909  151.0447 LP  0  0  0  0  0  0  0  0  0  0  0  0  # atno 17371 bound_to 10713
  140.9366  133.7543  156.0092 LP  0  0  0  0  0  0  0  0  0  0  0  0  # atno 17394 bound_to 11000
  140.8269  134.3224  157.5362 LP  0  0  0  0  0  0  0  0  0  0  0  0  # atno 17395 bound_to 11000

$$$$
