AV-unprocessed.smi:1829|AV-procd|sdf|7428|dock1
  -GOLD-   22720 9113D 1   1.00000     0.00000
 Structure written by MMmdl.
 45 47  0  0  0  0  0  0  0  0  1 V2000
  155.7714  132.6758  163.5929 C   0  0  0  0  0  0  0  0  0  0  0  0
  154.8701  133.7037  164.2953 C   0  0  0  0  0  0  0  0  0  0  0  0
  153.5942  133.0528  164.8515 C   0  0  0  0  0  0  0  0  0  0  0  0
  154.5434  134.8837  163.3882 C   0  0  0  0  0  0  0  0  0  0  0  0
  154.9613  134.8761  162.0403 C   0  0  0  0  0  0  0  0  0  0  0  0
  154.6726  135.9684  161.1995 C   0  0  0  0  0  0  0  0  0  0  0  0
  153.9633  137.0823  161.6953 C   0  0  0  0  0  0  0  0  0  0  0  0
  153.6536  138.2520  160.7737 C   0  0  2  0  0  0  0  0  0  0  0  0
  153.3933  137.8394  159.4455 O   0  0  0  0  0  0  0  0  0  0  0  0
  154.7921  139.2922  160.7938 C   0  0  0  0  0  0  0  0  0  0  0  0
  154.5052  140.4320  161.6550 N   0  0  0  0  0  0  0  0  0  0  0  0
  154.9728  140.6767  162.9051 C   0  0  0  0  0  0  0  0  0  0  0  0
  155.9130  139.7440  163.6059 C   0  0  0  0  0  0  0  0  0  0  0  0
  157.1595  140.3407  163.8926 O   0  0  0  0  0  0  0  0  0  0  0  0
  154.5489  141.8066  163.4726 N   0  0  0  0  0  0  0  0  0  0  0  0
  153.7321  142.3475  162.4989 C   0  0  0  0  0  0  0  0  0  0  0  0
  152.9835  143.5464  162.4908 C   0  0  0  0  0  0  0  0  0  0  0  0
  152.2090  143.8969  161.3655 C   0  0  0  0  0  0  0  0  0  0  0  0
  152.1718  143.0559  160.2344 C   0  0  0  0  0  0  0  0  0  0  0  0
  152.9110  141.8574  160.2216 C   0  0  0  0  0  0  0  0  0  0  0  0
  153.6830  141.5121  161.3473 C   0  0  0  0  0  0  0  0  0  0  0  0
  153.5365  137.0868  163.0410 C   0  0  0  0  0  0  0  0  0  0  0  0
  153.8274  135.9958  163.8822 C   0  0  0  0  0  0  0  0  0  0  0  0
  156.6980  133.1374  163.2506 H   0  0  0  0  0  0  0  0  0  0  0  0
  155.2792  132.2329  162.7268 H   0  0  0  0  0  0  0  0  0  0  0  0
  156.0393  131.8634  164.2692 H   0  0  0  0  0  0  0  0  0  0  0  0
  155.4311  134.0873  165.1487 H   0  0  0  0  0  0  0  0  0  0  0  0
  152.9893  133.7795  165.3946 H   0  0  0  0  0  0  0  0  0  0  0  0
  153.8354  132.2448  165.5422 H   0  0  0  0  0  0  0  0  0  0  0  0
  152.9772  132.6336  164.0565 H   0  0  0  0  0  0  0  0  0  0  0  0
  155.5076  134.0328  161.6437 H   0  0  0  0  0  0  0  0  0  0  0  0
  154.9984  135.9472  160.1698 H   0  0  0  0  0  0  0  0  0  0  0  0
  152.7366  138.7221  161.1289 H   0  0  0  0  0  0  0  0  0  0  0  0
  153.9376  137.0914  159.2526 H   0  0  0  0  0  0  0  0  0  0  0  0
  155.7214  138.8282  161.1253 H   0  0  0  0  0  0  0  0  0  0  0  0
  154.9851  139.6597  159.7852 H   0  0  0  0  0  0  0  0  0  0  0  0
  155.4613  139.4145  164.5423 H   0  0  0  0  0  0  0  0  0  0  0  0
  156.0699  138.8497  163.0039 H   0  0  0  0  0  0  0  0  0  0  0  0
  157.1963  140.5292  164.8178 H   0  0  0  0  0  0  0  0  0  0  0  0
  153.0054  144.1971  163.3523 H   0  0  0  0  0  0  0  0  0  0  0  0
  151.6403  144.8153  161.3705 H   0  0  0  0  0  0  0  0  0  0  0  0
  151.5746  143.3303  159.3770 H   0  0  0  0  0  0  0  0  0  0  0  0
  152.8823  141.2085  159.3589 H   0  0  0  0  0  0  0  0  0  0  0  0
  152.9837  137.9272  163.4348 H   0  0  0  0  0  0  0  0  0  0  0  0
  153.4981  136.0182  164.9104 H   0  0  0  0  0  0  0  0  0  0  0  0
  1  2  1  0  0  0  0
  1 24  1  0  0  0  0
  1 25  1  0  0  0  0
  1 26  1  0  0  0  0
  2  3  1  0  0  0  0
  2  4  1  0  0  0  0
  2 27  1  0  0  0  0
  3 28  1  0  0  0  0
  3 29  1  0  0  0  0
  3 30  1  0  0  0  0
  4 23  1  0  0  0  0
  4  5  2  0  0  0  0
  5  6  1  0  0  0  0
  5 31  1  0  0  0  0
  6  7  2  0  0  0  0
  6 32  1  0  0  0  0
  7  8  1  0  0  0  0
  7 22  1  0  0  0  0
  8  9  1  0  0  0  0
  8 10  1  0  0  0  0
  8 33  1  0  0  0  0
  9 34  1  0  0  0  0
 10 11  1  0  0  0  0
 10 35  1  0  0  0  0
 10 36  1  0  0  0  0
 11 21  1  0  0  0  0
 11 12  1  0  0  0  0
 12 13  1  0  0  0  0
 12 15  2  0  0  0  0
 13 14  1  0  0  0  0
 13 37  1  0  0  0  0
 13 38  1  0  0  0  0
 14 39  1  0  0  0  0
 15 16  1  0  0  0  0
 16 21  2  0  0  0  0
 16 17  1  0  0  0  0
 17 18  2  0  0  0  0
 17 40  1  0  0  0  0
 18 19  1  0  0  0  0
 18 41  1  0  0  0  0
 19 20  2  0  0  0  0
 19 42  1  0  0  0  0
 20 21  1  0  0  0  0
 20 43  1  0  0  0  0
 22 23  2  0  0  0  0
 22 44  1  0  0  0  0
 23 45  1  0  0  0  0
M  END
> <s_m_source_file>
AV-unprocessed.smi

> <i_m_source_file_index>
1829

> <i_lp_mmshare_version>
43012

> <i_f3d_flags>
0

> <s_epik_input>
W0NIM11bQ0hdKFtDSDNdKWMxW2NIXVtjSF1jKFtjSF1bY0hdMSlbQ0BIXShbT0hdKVtDSDJdbihjKG4yKVtDSDJdW09IXSljKGMyMylbY0hdW2NIXVtjSF1bY0hdMw==

> <s_epik_cmdline>
J2VwaWtfcHl0aG9uJywgJy1waCcsICc3LjAnLCAnLXRuJywgJzgnLCAnLW1hJywgJzIwMCcsICctbWV0YWxfYmluZGluZycsICctaW1hZScsICc8aW5maWxlLm1hZT4nLCAnLW9tYWUnLCAnPG91dGZpbGUubWFlPic=

> <r_epik_Ionization_Penalty>
0.0634718

> <r_epik_Ionization_Penalty_Charging>
0

> <r_epik_Ionization_Penalty_Neutral>
0.0634718

> <r_epik_State_Penalty>
0.0551572

> <r_epik_Charging_Adjusted_Penalty>
0.0551572

> <i_epik_Tot_Q>
0

> <i_epik_Tot_abs_Q>
0

> <r_epik_Metal_State_Penalty>
5.78034e-05

> <b_epik_Metal_Only>
0

> <s_lp_Force_Field>
OPLS_2005

> <r_lp_Energy>
12.4565

> <b_lp_Chiralities_Consistent>
1

> <s_lp_Variant>
AV-unprocessed.smi:1829-1

> <Gold.Version>
5.8.1

> <Gold.Id.Protein>
6NUR|6NUR_protein|mol2

> <Gold.PLP.Fitness>
49.4157

> <Gold.PLP.PLP>
-52.4088

> <Gold.PLP.part.hbond>
-2.0000

> <Gold.PLP.part.metal>
0.0000

> <Gold.PLP.part.buried>
-3.1931

> <Gold.PLP.part.nonpolar>
-45.5581

> <Gold.PLP.part.repulsive>
0.0128

> <Gold.PLP.ligand.clash>
0.0000

> <Gold.PLP.ligand.torsion>
1.6085

> <Gold.PLP.Chemscore.Hbond>
0.0000

> <Gold.PLP.Chemscore.CHOScore>
0.0000

> <Gold.PLP.Chemscore.Metal>
0.0000

> <Gold.PLP.Chemscore.Internal.Correction>
0.2238

> <Gold.Rescore>
     Score         DG    S(hbond)    S(metal)    S(lipo)     H(rot)  DE(clash)    DE(int)     intcor
     14.74     -16.51       0.00        0.00     152.83       2.68       0.37       1.40       ----

> <Gold.Chemscore.Fitness>
14.7359

> <Gold.Chemscore.DG>
-16.5102

> <Gold.Chemscore.ZeroCoef>
-5.4800

> <Gold.Chemscore.Hbond>
0.0000

> <Gold.Chemscore.Metal>
0.0000

> <Gold.Chemscore.Lipo>
152.8288

> <Gold.Chemscore.Internal_Hbond>
0.0000

> <Gold.Chemscore.DEClash>
0.3725

> <Gold.Chemscore.DEInternal>
1.4018

> <Gold.Chemscore.Rot>
2.6761

> <Gold.Chemscore.Internal.Correction>
   9.000000E+99

> <Gold.Chemscore.Hbond.Weighted>
-0.0000

> <Gold.Chemscore.Metal.Weighted>
-0.0000

> <Gold.Chemscore.Lipo.Weighted>
-17.8810

> <Gold.Chemscore.Internal_Hbond.Weighted>
0.0000

> <Gold.Chemscore.DEClash.Weighted>
0.3725

> <Gold.Chemscore.DEInternal.Weighted>
1.4018

> <Gold.Chemscore.Rot.Weighted>
6.8507

> <Gold.Chemscore.Internal.Correction.Weighted>
   9.000000E+99

> <Gold.Protein.RotatedTorsions>
[ 6907 6896 6895 6894 ] final  172.84 input  -60.11 | X-H torsion
[ 7974 7965 7964 7962 ] final  -69.17 input  175.53 | X-H torsion
[ 8008 7997 7996 7995 ] final  128.00 input   59.86 | X-H torsion
[ 10167 10162 10161 10158 ] final -159.87 input  -65.29 | X-H torsion
[ 10718 10713 10712 10709 ] final  116.66 input   66.30 | X-H torsion
[ 10763 10752 10751 10750 ] final  -20.36 input  -60.55 | X-H torsion
[ 11005 11000 10999 10996 ] final  172.09 input  -57.11 | X-H torsion

> <Gold.Protein.ActiveResidues>
 VAL166  LYS551  ARG553  GLY616  TRP617  ASP618  TYR619  PRO620  LYS621  CYS622 
 ASP623  PHE694  ASN695  SER759  ASP760  ASP761  ALA762  ILE779  LEU786  VAL792 
 PHE793  MET794  SER795  GLU796  ALA797  LYS798  CYS799  TRP800  GLU811  SER814 

> <Gold.Protein.RotatedAtoms>
  151.7778  133.3347  159.3462 H   0  0  0  0  0  0  0  0  0  0  0  0  # atno 6907 bound_to 6896
  150.7437  134.5959  159.6021 H   0  0  0  0  0  0  0  0  0  0  0  0  # atno 6908 bound_to 6896
  152.3297  134.7277  160.0344 H   0  0  0  0  0  0  0  0  0  0  0  0  # atno 6909 bound_to 6896
  145.7072  140.9093  143.0699 H   0  0  0  0  0  0  0  0  0  0  0  0  # atno 7974 bound_to 7965
  156.2905  140.2655  156.2365 H   0  0  0  0  0  0  0  0  0  0  0  0  # atno 8008 bound_to 7997
  155.0020  140.0387  157.2382 H   0  0  0  0  0  0  0  0  0  0  0  0  # atno 8009 bound_to 7997
  154.7593  140.2757  155.6232 H   0  0  0  0  0  0  0  0  0  0  0  0  # atno 8010 bound_to 7997
  139.6582  143.9960  152.2208 H   0  0  0  0  0  0  0  0  0  0  0  0  # atno 10167 bound_to 10162
  157.6146  131.1028  150.7505 H   0  0  0  0  0  0  0  0  0  0  0  0  # atno 10718 bound_to 10713
  153.6192  135.6993  153.5317 H   0  0  0  0  0  0  0  0  0  0  0  0  # atno 10763 bound_to 10752
  153.2951  135.4145  155.1202 H   0  0  0  0  0  0  0  0  0  0  0  0  # atno 10764 bound_to 10752
  154.8547  135.3635  154.5733 H   0  0  0  0  0  0  0  0  0  0  0  0  # atno 10765 bound_to 10752
  140.3259  134.7398  157.4099 H   0  0  0  0  0  0  0  0  0  0  0  0  # atno 11005 bound_to 11000
  144.6952  139.9026  143.7459 LP  0  0  0  0  0  0  0  0  0  0  0  0  # atno 17320 bound_to 7965
  146.0745  139.3733  143.0503 LP  0  0  0  0  0  0  0  0  0  0  0  0  # atno 17321 bound_to 7965
  139.9692  144.6505  150.8005 LP  0  0  0  0  0  0  0  0  0  0  0  0  # atno 17342 bound_to 10162
  140.7568  143.3074  151.2928 LP  0  0  0  0  0  0  0  0  0  0  0  0  # atno 17343 bound_to 10162
  156.7875  130.4879  149.5390 LP  0  0  0  0  0  0  0  0  0  0  0  0  # atno 17370 bound_to 10713
  156.1263  130.6146  151.0267 LP  0  0  0  0  0  0  0  0  0  0  0  0  # atno 17371 bound_to 10713
  140.0902  134.5612  155.8452 LP  0  0  0  0  0  0  0  0  0  0  0  0  # atno 17394 bound_to 11000
  141.2075  133.6665  156.6311 LP  0  0  0  0  0  0  0  0  0  0  0  0  # atno 17395 bound_to 11000

$$$$
