AV-unprocessed.smi:2073|AV-procd|sdf|8451|dock8
  -GOLD-   2272011143D 1   1.00000     0.00000
 Structure written by MMmdl.
 27 27  0  0  0  0  0  0  0  0  2 V2000
  147.5032  134.2042  162.0795 C   0  0  0  0  0  0  0  0  0  0  0  0
  146.8689  135.5756  162.3629 C   0  0  0  0  0  0  0  0  0  0  0  0
  145.3482  135.4604  162.5697 C   0  0  0  0  0  0  0  0  0  0  0  0
  147.2099  136.5688  161.2374 C   0  0  0  0  0  0  0  0  0  0  0  0
  146.3040  137.2006  160.6899 O   0  0  0  0  0  0  0  0  0  0  0  0
  148.5401  136.6076  160.9809 N   0  5  0  0  0  0  0  0  0  0  0  0
  148.9669  136.7878  159.7216 C   0  0  0  0  0  0  0  0  0  0  0  0
  150.2610  136.8769  159.3966 N   0  0  0  0  0  0  0  0  0  0  0  0
  150.4845  137.0613  158.0290 C   0  0  0  0  0  0  0  0  0  0  0  0
  151.8888  137.1635  157.5065 C   0  0  0  0  0  0  0  0  0  0  0  0
  151.8907  137.3352  155.9852 C   0  0  0  0  0  0  0  0  0  0  0  0
  152.3507  138.4918  155.4989 N   0  0  0  0  0  0  0  0  0  0  0  0
  151.4692  136.4389  155.2571 O   0  0  0  0  0  0  0  0  0  0  0  0
  149.3244  137.1338  157.3015 C   0  0  0  0  0  0  0  0  0  0  0  0
  147.9185  136.9585  158.3122 S   0  0  0  0  0  0  0  0  0  0  0  0
  148.5837  134.2856  161.9540 H   0  0  0  0  0  0  0  0  0  0  0  0
  147.0951  133.7550  161.1731 H   0  0  0  0  0  0  0  0  0  0  0  0
  147.3213  133.5132  162.9027 H   0  0  0  0  0  0  0  0  0  0  0  0
  147.2870  135.9451  163.3019 H   0  0  0  0  0  0  0  0  0  0  0  0
  144.8970  136.4380  162.7437 H   0  0  0  0  0  0  0  0  0  0  0  0
  145.1208  134.8372  163.4345 H   0  0  0  0  0  0  0  0  0  0  0  0
  144.8561  135.0144  161.7045 H   0  0  0  0  0  0  0  0  0  0  0  0
  152.4042  138.0077  157.9662 H   0  0  0  0  0  0  0  0  0  0  0  0
  152.4670  136.2746  157.7628 H   0  0  0  0  0  0  0  0  0  0  0  0
  152.3490  138.6520  154.5012 H   0  0  0  0  0  0  0  0  0  0  0  0
  152.6785  139.2085  156.1295 H   0  0  0  0  0  0  0  0  0  0  0  0
  149.2119  137.2742  156.2369 H   0  0  0  0  0  0  0  0  0  0  0  0
  1  2  1  0  0  0  0
  1 16  1  0  0  0  0
  1 17  1  0  0  0  0
  1 18  1  0  0  0  0
  2  3  1  0  0  0  0
  2  4  1  0  0  0  0
  2 19  1  0  0  0  0
  3 20  1  0  0  0  0
  3 21  1  0  0  0  0
  3 22  1  0  0  0  0
  4  5  2  0  0  0  0
  4  6  1  0  0  0  0
  6  7  1  0  0  0  0
  7 15  1  0  0  0  0
  7  8  2  0  0  0  0
  8  9  1  0  0  0  0
  9 10  1  0  0  0  0
  9 14  2  0  0  0  0
 10 11  1  0  0  0  0
 10 23  1  0  0  0  0
 10 24  1  0  0  0  0
 11 12  1  0  0  0  0
 11 13  2  0  0  0  0
 12 25  1  0  0  0  0
 12 26  1  0  0  0  0
 14 15  1  0  0  0  0
 14 27  1  0  0  0  0
M  CHG  1   6  -1
M  END
> <s_m_source_file>
AV-unprocessed.smi

> <i_m_source_file_index>
2073

> <i_lp_mmshare_version>
43012

> <i_f3d_flags>
0

> <s_epik_input>
W0NIM11bQ0hdKFtDSDNdKUMoPU8pW05IXWMxbmMoW2NIXXMxKVtDSDJdQyg9TylbTkgyXQ==

> <s_epik_cmdline>
J2VwaWtfcHl0aG9uJywgJy1waCcsICc3LjAnLCAnLXRuJywgJzgnLCAnLW1hJywgJzIwMCcsICctbWV0YWxfYmluZGluZycsICctaW1hZScsICc8aW5maWxlLm1hZT4nLCAnLW9tYWUnLCAnPG91dGZpbGUubWFlPic=

> <r_lp_tautomer_probability>
1

> <r_epik_Ionization_Penalty>
5.4698

> <r_epik_Ionization_Penalty_Charging>
4.98646

> <r_epik_Ionization_Penalty_Neutral>
0.483343

> <r_epik_State_Penalty>
4.98633

> <r_epik_Charging_Adjusted_Penalty>
9.97279

> <i_epik_Tot_Q>
-1

> <i_epik_Tot_abs_Q>
1

> <r_epik_Metal_State_Penalty>
1.11062

> <b_epik_Metal_Only>
1

> <s_lp_Force_Field>
OPLS_2005

> <r_lp_Energy>
-0.551018

> <b_lp_Chiralities_Consistent>
1

> <s_lp_Variant>
AV-unprocessed.smi:2073-2

> <Gold.Version>
5.8.1

> <Gold.Id.Protein>
6NUR|6NUR_protein|mol2

> <Gold.PLP.Fitness>
36.1890

> <Gold.PLP.PLP>
-21.8493

> <Gold.PLP.part.hbond>
-4.0000

> <Gold.PLP.part.metal>
0.0000

> <Gold.PLP.part.buried>
-3.9859

> <Gold.PLP.part.nonpolar>
-14.0994

> <Gold.PLP.part.repulsive>
0.2721

> <Gold.PLP.ligand.clash>
0.0000

> <Gold.PLP.ligand.torsion>
0.3653

> <Gold.PLP.Chemscore.Hbond>
5.0000

> <Gold.PLP.Chemscore.CHOScore>
0.0000

> <Gold.PLP.Chemscore.Metal>
0.0000

> <Gold.Chemscore.Hbonds>
donor molecule, donor type, donor heavy atom, donor atom, acceptor molecule, acceptor atom, score
      P1  H  6896  6907       L1     8  0.98
      P1  H  6931  6943       L1     6  2.00
      P1  H  6934  6947       L1     5  0.80
      P1  H 10752 10764       L1    13  1.00

> <Gold.PLP.Chemscore.Internal.Correction>
0.0702

> <Gold.Rescore>
     Score         DG    S(hbond)    S(metal)    S(lipo)     H(rot)  DE(clash)    DE(int)     intcor
     12.01     -13.86       2.90        0.00      30.51       1.90       0.00       1.84       ----

> <Gold.Chemscore.Fitness>
12.0139

> <Gold.Chemscore.DG>
-13.8569

> <Gold.Chemscore.ZeroCoef>
-5.4800

> <Gold.Chemscore.Hbond>
2.8966

> <Gold.Chemscore.Metal>
0.0000

> <Gold.Chemscore.Lipo>
30.5073

> <Gold.Chemscore.Internal_Hbond>
0.0000

> <Gold.Chemscore.DEClash>
0.0000

> <Gold.Chemscore.DEInternal>
1.8430

> <Gold.Chemscore.Rot>
1.9012

> <Gold.Chemscore.Internal.Correction>
   9.000000E+99

> <Gold.Chemscore.Hbonds>
donor molecule, donor type, donor heavy atom, donor atom, acceptor molecule, acceptor atom, score
      P1  H  6896  6907       L1     8  0.28
      P1  H  6931  6943       L1     6  0.13
      P1  H  6934  6947       L1     5  0.11
      P1  H 10752 10764       L1    13  0.60

> <Gold.Chemscore.Hbond.Weighted>
-9.6746

> <Gold.Chemscore.Metal.Weighted>
-0.0000

> <Gold.Chemscore.Lipo.Weighted>
-3.5694

> <Gold.Chemscore.Internal_Hbond.Weighted>
0.0000

> <Gold.Chemscore.DEClash.Weighted>
0.0000

> <Gold.Chemscore.DEInternal.Weighted>
1.8430

> <Gold.Chemscore.Rot.Weighted>
4.8671

> <Gold.Chemscore.Internal.Correction.Weighted>
   9.000000E+99

> <Gold.Protein.RotatedTorsions>
[ 6907 6896 6895 6894 ] final  -29.09 input  -60.11 | X-H torsion
[ 7974 7965 7964 7962 ] final -161.53 input  175.53 | X-H torsion
[ 8008 7997 7996 7995 ] final  148.40 input   59.86 | X-H torsion
[ 10167 10162 10161 10158 ] final  -15.02 input  -65.29 | X-H torsion
[ 10718 10713 10712 10709 ] final -142.74 input   66.30 | X-H torsion
[ 10763 10752 10751 10750 ] final  -64.17 input  -60.55 | X-H torsion
[ 11005 11000 10999 10996 ] final  -53.84 input  -57.11 | X-H torsion

> <Gold.Protein.ActiveResidues>
 VAL166  LYS551  ARG553  GLY616  TRP617  ASP618  TYR619  PRO620  LYS621  CYS622 
 ASP623  PHE694  ASN695  SER759  ASP760  ASP761  ALA762  ILE779  LEU786  VAL792 
 PHE793  MET794  SER795  GLU796  ALA797  LYS798  CYS799  TRP800  GLU811  SER814 

> <Gold.Protein.RotatedAtoms>
  151.1239  135.0094  159.8551 H   0  0  0  0  0  0  0  0  0  0  0  0  # atno 6907 bound_to 6896
  152.5449  134.1690  159.8599 H   0  0  0  0  0  0  0  0  0  0  0  0  # atno 6908 bound_to 6896
  151.1750  133.4715  159.2627 H   0  0  0  0  0  0  0  0  0  0  0  0  # atno 6909 bound_to 6896
  144.7388  140.3384  143.6139 H   0  0  0  0  0  0  0  0  0  0  0  0  # atno 7974 bound_to 7965
  156.2792  140.2129  156.5692 H   0  0  0  0  0  0  0  0  0  0  0  0  # atno 8008 bound_to 7997
  154.7149  140.0508  157.0608 H   0  0  0  0  0  0  0  0  0  0  0  0  # atno 8009 bound_to 7997
  155.0556  140.3161  155.4680 H   0  0  0  0  0  0  0  0  0  0  0  0  # atno 8010 bound_to 7997
  140.7211  143.5261  150.9575 H   0  0  0  0  0  0  0  0  0  0  0  0  # atno 10167 bound_to 10162
  156.3496  130.7681  151.1831 H   0  0  0  0  0  0  0  0  0  0  0  0  # atno 10718 bound_to 10713
  154.3260  135.6186  153.5529 H   0  0  0  0  0  0  0  0  0  0  0  0  # atno 10763 bound_to 10752
  152.9815  135.5735  154.5015 H   0  0  0  0  0  0  0  0  0  0  0  0  # atno 10764 bound_to 10752
  154.4693  135.2858  155.1632 H   0  0  0  0  0  0  0  0  0  0  0  0  # atno 10765 bound_to 10752
  141.0996  133.6620  156.4232 H   0  0  0  0  0  0  0  0  0  0  0  0  # atno 11005 bound_to 11000
  145.7400  139.1761  143.2381 LP  0  0  0  0  0  0  0  0  0  0  0  0  # atno 17320 bound_to 7965
  146.1141  140.7391  142.9489 LP  0  0  0  0  0  0  0  0  0  0  0  0  # atno 17321 bound_to 7965
  139.8980  143.6871  152.3135 LP  0  0  0  0  0  0  0  0  0  0  0  0  # atno 17342 bound_to 10162
  139.7210  144.7602  151.0955 LP  0  0  0  0  0  0  0  0  0  0  0  0  # atno 17343 bound_to 10162
  157.7459  131.0431  150.4729 LP  0  0  0  0  0  0  0  0  0  0  0  0  # atno 17370 bound_to 10713
  156.4922  130.4098  149.6400 LP  0  0  0  0  0  0  0  0  0  0  0  0  # atno 17371 bound_to 10713
  140.5055  134.6445  157.5265 LP  0  0  0  0  0  0  0  0  0  0  0  0  # atno 17394 bound_to 11000
  139.9843  134.7086  155.9802 LP  0  0  0  0  0  0  0  0  0  0  0  0  # atno 17395 bound_to 11000

$$$$
