AV-unprocessed.smi:686|AV-procd|sdf|3347|dock3
  -GOLD-   22720 0323D 1   1.00000     0.00000
 Structure written by MMmdl.
 40 41  0  0  0  0  0  0  0  0  3 V2000
  152.0422  138.4548  155.7512 C   0  0  0  0  0  0  0  0  0  0  0  0
  150.7712  137.8326  155.1410 C   0  0  2  0  0  0  0  0  0  0  0  0
  150.0938  138.7310  154.1042 C   0  0  0  0  0  0  0  0  0  0  0  0
  148.7244  138.1889  153.9664 N   0  3  2  0  0  0  0  0  0  0  0  0
  147.7187  139.1153  153.3722 C   0  0  0  0  0  0  0  0  0  0  0  0
  147.4857  140.3385  154.2792 C   0  0  0  0  0  0  0  0  0  0  0  0
  146.3768  138.4060  153.1096 C   0  0  0  0  0  0  0  0  0  0  0  0
  148.3530  137.6079  155.2812 C   0  0  0  0  0  0  0  0  0  0  0  0
  149.6341  137.5423  156.1345 C   0  0  1  0  0  0  0  0  0  0  0  0
  149.8037  136.2394  156.7664 N   0  5  0  0  0  0  0  0  0  0  0  0
  148.7393  135.6840  157.8657 S   0  0  0  0  0  0  0  0  0  0  0  0
  147.3394  136.0241  157.5570 O   0  0  0  0  0  0  0  0  0  0  0  0
  149.0143  134.2788  158.2004 O   0  0  0  0  0  0  0  0  0  0  0  0
  149.1945  136.6505  159.3773 C   0  0  0  0  0  0  0  0  0  0  0  0
  148.3058  136.2621  160.5262 C   0  0  0  0  0  0  0  0  0  0  0  0
  148.0366  134.9626  161.0394 C   0  0  0  0  0  0  0  0  0  0  0  0
  147.1690  135.1978  162.0664 C   0  0  0  0  0  0  0  0  0  0  0  0
  146.9119  136.5254  162.1766 O   0  0  0  0  0  0  0  0  0  0  0  0
  147.6393  137.1963  161.1870 N   0  0  0  0  0  0  0  0  0  0  0  0
  151.8411  139.4052  156.2491 H   0  0  0  0  0  0  0  0  0  0  0  0
  152.7815  138.6488  154.9739 H   0  0  0  0  0  0  0  0  0  0  0  0
  152.5099  137.7885  156.4785 H   0  0  0  0  0  0  0  0  0  0  0  0
  151.0493  136.9045  154.6366 H   0  0  0  0  0  0  0  0  0  0  0  0
  150.0563  139.7703  154.4426 H   0  0  0  0  0  0  0  0  0  0  0  0
  150.6248  138.7132  153.1517 H   0  0  0  0  0  0  0  0  0  0  0  0
  148.1077  139.4674  152.4155 H   0  0  0  0  0  0  0  0  0  0  0  0
  146.7338  141.0031  153.8526 H   0  0  0  0  0  0  0  0  0  0  0  0
  148.3910  140.9307  154.4124 H   0  0  0  0  0  0  0  0  0  0  0  0
  147.1366  140.0373  155.2675 H   0  0  0  0  0  0  0  0  0  0  0  0
  145.6364  139.1052  152.7196 H   0  0  0  0  0  0  0  0  0  0  0  0
  145.9710  137.9731  154.0246 H   0  0  0  0  0  0  0  0  0  0  0  0
  146.4728  137.6080  152.3735 H   0  0  0  0  0  0  0  0  0  0  0  0
  147.6101  138.2200  155.7949 H   0  0  0  0  0  0  0  0  0  0  0  0
  147.9069  136.6264  155.1126 H   0  0  0  0  0  0  0  0  0  0  0  0
  149.6028  138.3538  156.8628 H   0  0  0  0  0  0  0  0  0  0  0  0
  150.2424  136.4508  159.6036 H   0  0  0  0  0  0  0  0  0  0  0  0
  149.0982  137.7133  159.1594 H   0  0  0  0  0  0  0  0  0  0  0  0
  148.4260  134.0107  160.7101 H   0  0  0  0  0  0  0  0  0  0  0  0
  146.6685  134.5565  162.7766 H   0  0  0  0  0  0  0  0  0  0  0  0
  148.8084  137.4016  153.3395 H   0  0  0  0  0  0  0  0  0  0  0  0
  1  2  1  0  0  0  0
  1 20  1  0  0  0  0
  1 21  1  0  0  0  0
  1 22  1  0  0  0  0
  2  9  1  0  0  0  0
  2  3  1  0  0  0  0
  2 23  1  0  0  0  0
  3  4  1  0  0  0  0
  3 24  1  0  0  0  0
  3 25  1  0  0  0  0
  4  5  1  0  0  0  0
  4  8  1  0  0  0  0
  4 40  1  0  0  0  0
  5  6  1  0  0  0  0
  5  7  1  0  0  0  0
  5 26  1  0  0  0  0
  6 27  1  0  0  0  0
  6 28  1  0  0  0  0
  6 29  1  0  0  0  0
  7 30  1  0  0  0  0
  7 31  1  0  0  0  0
  7 32  1  0  0  0  0
  8  9  1  0  0  0  0
  8 33  1  0  0  0  0
  8 34  1  0  0  0  0
  9 10  1  0  0  0  0
  9 35  1  0  0  0  0
 10 11  1  0  0  0  0
 11 12  2  0  0  0  0
 11 13  2  0  0  0  0
 11 14  1  0  0  0  0
 14 15  1  0  0  0  0
 14 36  1  0  0  0  0
 14 37  1  0  0  0  0
 15 19  2  0  0  0  0
 15 16  1  0  0  0  0
 16 17  2  0  0  0  0
 16 38  1  0  0  0  0
 17 18  1  0  0  0  0
 17 39  1  0  0  0  0
 18 19  1  0  0  0  0
M  CHG  1   4   1
M  CHG  1  10  -1
M  END
> <s_m_source_file>
AV-unprocessed.smi

> <i_m_source_file_index>
686

> <i_lp_mmshare_version>
43012

> <i_f3d_flags>
0

> <s_epik_input>
W0NIM11bQ0BASF0xW0NIMl1OKFtDSF0oW0NIM10pW0NIM10pW0NIMl1bQ0BIXTFbTkhdUyg9TykoPU8pW0NIMl1jMltjSF1bY0hdb24y

> <s_epik_cmdline>
J2VwaWtfcHl0aG9uJywgJy1waCcsICc3LjAnLCAnLXRuJywgJzgnLCAnLW1hJywgJzIwMCcsICctbWV0YWxfYmluZGluZycsICctaW1hZScsICc8aW5maWxlLm1hZT4nLCAnLW9tYWUnLCAnPG91dGZpbGUubWFlPic=

> <r_epik_Ionization_Penalty>
3.62478

> <r_epik_Ionization_Penalty_Charging>
3.62478

> <r_epik_Ionization_Penalty_Neutral>
2.03645e-10

> <r_epik_State_Penalty>
3.6247

> <r_epik_Charging_Adjusted_Penalty>
7.24949

> <i_epik_Tot_Q>
0

> <i_epik_Tot_abs_Q>
2

> <r_epik_Metal_State_Penalty>
0.530836

> <b_epik_Metal_Only>
1

> <s_lp_Force_Field>
OPLS_2005

> <r_lp_Energy>
16.7108

> <b_lp_Chiralities_Consistent>
1

> <s_lp_Variant>
AV-unprocessed.smi:686-11

> <Gold.Version>
5.8.1

> <Gold.Id.Protein>
6NUR|6NUR_protein|mol2

> <Gold.PLP.Fitness>
40.3420

> <Gold.PLP.PLP>
-25.9361

> <Gold.PLP.part.hbond>
-3.9815

> <Gold.PLP.part.metal>
0.0000

> <Gold.PLP.part.buried>
-3.1458

> <Gold.PLP.part.nonpolar>
-18.7788

> <Gold.PLP.part.repulsive>
0.0087

> <Gold.PLP.ligand.clash>
0.0000

> <Gold.PLP.ligand.torsion>
0.5820

> <Gold.PLP.Chemscore.Hbond>
4.8400

> <Gold.PLP.Chemscore.CHOScore>
0.0000

> <Gold.PLP.Chemscore.Metal>
0.0000

> <Gold.Chemscore.Hbonds>
donor molecule, donor type, donor heavy atom, donor atom, acceptor molecule, acceptor atom, score
      L1  H     4    40       P1  7948  2.00
      P1  H  6896  6908       L1    13  1.00
      P1  H  6931  6943       L1    19  0.93
      P1  H  6934  6947       L1    19  0.88

> <Gold.PLP.Chemscore.Internal.Correction>
1.0499

> <Gold.Rescore>
     Score         DG    S(hbond)    S(metal)    S(lipo)     H(rot)  DE(clash)    DE(int)     intcor
     17.35     -19.06       2.95        0.00      67.21       1.61       0.02       1.69       ----

> <Gold.Chemscore.Fitness>
17.3481

> <Gold.Chemscore.DG>
-19.0647

> <Gold.Chemscore.ZeroCoef>
-5.4800

> <Gold.Chemscore.Hbond>
2.9508

> <Gold.Chemscore.Metal>
0.0000

> <Gold.Chemscore.Lipo>
67.2061

> <Gold.Chemscore.Internal_Hbond>
0.0000

> <Gold.Chemscore.DEClash>
0.0240

> <Gold.Chemscore.DEInternal>
1.6926

> <Gold.Chemscore.Rot>
1.6149

> <Gold.Chemscore.Internal.Correction>
   9.000000E+99

> <Gold.Chemscore.Hbonds>
donor molecule, donor type, donor heavy atom, donor atom, acceptor molecule, acceptor atom, score
      L1  H     4    40       P1  7948  1.00
      P1  H  6896  6908       L1    13  0.75
      P1  H  6931  6943       L1    19  0.30
      P1  H  6934  6947       L1    19  0.80

> <Gold.Chemscore.Hbond.Weighted>
-9.8557

> <Gold.Chemscore.Metal.Weighted>
-0.0000

> <Gold.Chemscore.Lipo.Weighted>
-7.8631

> <Gold.Chemscore.Internal_Hbond.Weighted>
0.0000

> <Gold.Chemscore.DEClash.Weighted>
0.0240

> <Gold.Chemscore.DEInternal.Weighted>
1.6926

> <Gold.Chemscore.Rot.Weighted>
4.1341

> <Gold.Chemscore.Internal.Correction.Weighted>
   9.000000E+99

> <Gold.Protein.RotatedTorsions>
[ 6907 6896 6895 6894 ] final  140.93 input  -60.11 | X-H torsion
[ 7974 7965 7964 7962 ] final  106.27 input  175.53 | X-H torsion
[ 8008 7997 7996 7995 ] final -106.24 input   59.86 | X-H torsion
[ 10167 10162 10161 10158 ] final  -16.18 input  -65.29 | X-H torsion
[ 10718 10713 10712 10709 ] final   75.21 input   66.30 | X-H torsion
[ 10763 10752 10751 10750 ] final  115.42 input  -60.55 | X-H torsion
[ 11005 11000 10999 10996 ] final -158.41 input  -57.11 | X-H torsion

> <Gold.Protein.ActiveResidues>
 VAL166  LYS551  ARG553  GLY616  TRP617  ASP618  TYR619  PRO620  LYS621  CYS622 
 ASP623  PHE694  ASN695  SER759  ASP760  ASP761  ALA762  ILE779  LEU786  VAL792 
 PHE793  MET794  SER795  GLU796  ALA797  LYS798  CYS799  TRP800  GLU811  SER814 

> <Gold.Protein.RotatedAtoms>
  152.2371  133.5105  159.5248 H   0  0  0  0  0  0  0  0  0  0  0  0  # atno 6907 bound_to 6896
  150.7053  134.1139  159.4019 H   0  0  0  0  0  0  0  0  0  0  0  0  # atno 6908 bound_to 6896
  151.9060  135.0358  160.0561 H   0  0  0  0  0  0  0  0  0  0  0  0  # atno 6909 bound_to 6896
  145.3088  139.2546  143.3774 H   0  0  0  0  0  0  0  0  0  0  0  0  # atno 7974 bound_to 7965
  154.9116  140.0410  157.1949 H   0  0  0  0  0  0  0  0  0  0  0  0  # atno 8008 bound_to 7997
  154.8343  140.2904  155.5680 H   0  0  0  0  0  0  0  0  0  0  0  0  # atno 8009 bound_to 7997
  156.2988  140.2495  156.3274 H   0  0  0  0  0  0  0  0  0  0  0  0  # atno 8010 bound_to 7997
  140.7230  143.5142  150.9712 H   0  0  0  0  0  0  0  0  0  0  0  0  # atno 10167 bound_to 10162
  157.6625  130.9715  150.1321 H   0  0  0  0  0  0  0  0  0  0  0  0  # atno 10718 bound_to 10713
  153.5219  135.3596  155.2636 H   0  0  0  0  0  0  0  0  0  0  0  0  # atno 10763 bound_to 10752
  154.8734  135.4047  154.3250 H   0  0  0  0  0  0  0  0  0  0  0  0  # atno 10764 bound_to 10752
  153.3922  135.7072  153.6554 H   0  0  0  0  0  0  0  0  0  0  0  0  # atno 10765 bound_to 10752
  140.6540  134.4420  157.5235 H   0  0  0  0  0  0  0  0  0  0  0  0  # atno 11005 bound_to 11000
  146.3125  140.3620  142.8666 LP  0  0  0  0  0  0  0  0  0  0  0  0  # atno 17320 bound_to 7965
  144.9032  140.7668  143.5853 LP  0  0  0  0  0  0  0  0  0  0  0  0  # atno 17321 bound_to 7965
  139.8857  143.7016  152.3151 LP  0  0  0  0  0  0  0  0  0  0  0  0  # atno 17342 bound_to 10162
  139.7314  144.7581  151.0796 LP  0  0  0  0  0  0  0  0  0  0  0  0  # atno 17343 bound_to 10162
  156.2165  130.3670  149.8607 LP  0  0  0  0  0  0  0  0  0  0  0  0  # atno 17370 bound_to 10713
  156.6471  130.8728  151.3524 LP  0  0  0  0  0  0  0  0  0  0  0  0  # atno 17371 bound_to 10713
  139.9036  134.8500  156.1795 LP  0  0  0  0  0  0  0  0  0  0  0  0  # atno 17394 bound_to 11000
  141.0516  133.6886  156.1782 LP  0  0  0  0  0  0  0  0  0  0  0  0  # atno 17395 bound_to 11000

$$$$
