AV-unprocessed.smi:21|AV-procd|sdf|166|dock1
  -GOLD-   2262015413D 1   1.00000     0.00000
 Structure written by MMmdl.
 61 64  0  0  0  0  0  0  0  0  1 V2000
  150.4434  145.2808  159.8461 C   0  0  0  0  0  0  0  0  0  0  0  0
  150.9338  144.1813  159.0951 O   0  0  0  0  0  0  0  0  0  0  0  0
  152.2682  143.8217  159.4237 C   0  0  2  0  0  0  0  0  0  0  0  0
  152.6599  142.4270  158.9004 C   0  0  0  0  0  0  0  0  0  0  0  0
  152.9611  141.6095  160.1657 C   0  0  1  0  0  0  0  0  0  0  0  0
  154.0011  140.4877  159.9456 C   0  0  0  0  0  0  0  0  0  0  0  0
  153.4062  139.1521  159.8882 N   0  0  0  0  0  0  0  0  0  0  0  0
  153.9484  138.1263  160.7779 C   0  0  0  0  0  0  0  0  0  0  0  0
  152.7163  138.7594  158.7770 C   0  0  0  0  0  0  0  0  0  0  0  0
  153.1842  139.1385  157.5563 N   0  0  0  0  0  0  0  0  0  0  0  0
  152.5371  138.8058  156.4372 C   0  0  0  0  0  0  0  0  0  0  0  0
  151.4137  138.1021  156.3040 N   0  0  0  0  0  0  0  0  0  0  0  0
  150.9378  137.7012  157.5162 C   0  0  0  0  0  0  0  0  0  0  0  0
  151.5186  137.9777  158.7892 C   0  0  0  0  0  0  0  0  0  0  0  0
  150.7423  137.3898  159.7835 N   0  0  0  0  0  0  0  0  0  0  0  0
  149.7622  136.8168  159.1422 C   0  0  0  0  0  0  0  0  0  0  0  0
  149.8054  136.9488  157.7749 N   0  0  0  0  0  0  0  0  0  0  0  0
  148.8443  136.4168  156.8238 C   0  0  0  0  0  0  0  0  0  0  0  0
  149.4263  135.3065  155.9150 C   0  0  1  0  0  0  0  0  0  0  0  0
  150.4695  135.9004  154.9392 C   0  0  0  0  0  0  0  0  0  0  0  0
  149.9727  137.0773  154.3366 O   0  0  0  0  0  0  0  0  0  0  0  0
  149.9568  134.0879  156.7218 C   0  0  1  0  0  0  0  0  0  0  0  0
  148.9308  133.4087  157.6318 C   0  0  0  0  0  0  0  0  0  0  0  0
  149.0009  131.9333  157.2406 C   0  0  0  0  0  0  0  0  0  0  0  0
  150.3013  131.7887  156.6950 O   0  0  0  0  0  0  0  0  0  0  0  0
  150.5298  132.9321  155.8885 C   0  0  0  0  0  0  0  0  0  0  0  0
  153.3372  142.5956  161.1647 N   0  0  0  0  0  0  0  0  0  0  0  0
  153.2833  142.0942  162.5318 C   0  0  0  0  0  0  0  0  0  0  0  0
  152.4031  143.6820  160.9433 C   0  0  0  0  0  0  0  0  0  0  0  0
  152.9744  144.5735  159.0666 H   0  0  0  0  0  0  0  0  0  0  0  0
  152.0200  141.1582  160.4844 H   0  0  0  0  0  0  0  0  0  0  0  0
  149.4199  145.5001  159.5439 H   0  0  0  0  0  0  0  0  0  0  0  0
  151.0386  146.1799  159.6835 H   0  0  0  0  0  0  0  0  0  0  0  0
  150.4361  145.0563  160.9133 H   0  0  0  0  0  0  0  0  0  0  0  0
  151.8733  141.9566  158.3100 H   0  0  0  0  0  0  0  0  0  0  0  0
  153.5450  142.5103  158.2683 H   0  0  0  0  0  0  0  0  0  0  0  0
  154.5344  140.6801  159.0141 H   0  0  0  0  0  0  0  0  0  0  0  0
  154.7736  140.5046  160.7113 H   0  0  0  0  0  0  0  0  0  0  0  0
  153.1648  137.4395  161.0998 H   0  0  0  0  0  0  0  0  0  0  0  0
  154.3814  138.5710  161.6742 H   0  0  0  0  0  0  0  0  0  0  0  0
  154.7290  137.5527  160.2773 H   0  0  0  0  0  0  0  0  0  0  0  0
  152.9818  139.1568  155.5178 H   0  0  0  0  0  0  0  0  0  0  0  0
  148.9787  136.2746  159.6514 H   0  0  0  0  0  0  0  0  0  0  0  0
  147.9968  136.0358  157.3945 H   0  0  0  0  0  0  0  0  0  0  0  0
  148.4587  137.2365  156.2168 H   0  0  0  0  0  0  0  0  0  0  0  0
  148.6035  134.9254  155.3075 H   0  0  0  0  0  0  0  0  0  0  0  0
  151.4003  136.1387  155.4542 H   0  0  0  0  0  0  0  0  0  0  0  0
  150.7181  135.2021  154.1413 H   0  0  0  0  0  0  0  0  0  0  0  0
  149.6001  136.8513  153.4977 H   0  0  0  0  0  0  0  0  0  0  0  0
  150.7525  134.4282  157.3853 H   0  0  0  0  0  0  0  0  0  0  0  0
  149.2264  133.5332  158.6744 H   0  0  0  0  0  0  0  0  0  0  0  0
  147.9196  133.8042  157.5381 H   0  0  0  0  0  0  0  0  0  0  0  0
  148.8419  131.2646  158.0867 H   0  0  0  0  0  0  0  0  0  0  0  0
  148.2585  131.7007  156.4752 H   0  0  0  0  0  0  0  0  0  0  0  0
  150.0055  132.8004  154.9423 H   0  0  0  0  0  0  0  0  0  0  0  0
  151.5902  133.0568  155.6712 H   0  0  0  0  0  0  0  0  0  0  0  0
  153.5115  142.8905  163.2408 H   0  0  0  0  0  0  0  0  0  0  0  0
  154.0121  141.2990  162.6860 H   0  0  0  0  0  0  0  0  0  0  0  0
  152.2948  141.6997  162.7710 H   0  0  0  0  0  0  0  0  0  0  0  0
  152.7379  144.6049  161.4176 H   0  0  0  0  0  0  0  0  0  0  0  0
  151.4318  143.4255  161.3706 H   0  0  0  0  0  0  0  0  0  0  0  0
  1  2  1  0  0  0  0
  1 32  1  0  0  0  0
  1 33  1  0  0  0  0
  1 34  1  0  0  0  0
  2  3  1  0  0  0  0
  3 30  1  0  0  0  0
  3 29  1  0  0  0  0
  3  4  1  0  0  0  0
  4  5  1  0  0  0  0
  4 35  1  0  0  0  0
  4 36  1  0  0  0  0
  5 31  1  0  0  0  0
  5  6  1  0  0  0  0
  5 27  1  0  0  0  0
  6  7  1  0  0  0  0
  6 37  1  0  0  0  0
  6 38  1  0  0  0  0
  7  8  1  0  0  0  0
  7  9  1  0  0  0  0
  8 39  1  0  0  0  0
  8 40  1  0  0  0  0
  8 41  1  0  0  0  0
  9 14  1  0  0  0  0
  9 10  2  0  0  0  0
 10 11  1  0  0  0  0
 11 12  2  0  0  0  0
 11 42  1  0  0  0  0
 12 13  1  0  0  0  0
 13 17  1  0  0  0  0
 13 14  2  0  0  0  0
 14 15  1  0  0  0  0
 15 16  2  0  0  0  0
 16 17  1  0  0  0  0
 16 43  1  0  0  0  0
 17 18  1  0  0  0  0
 18 19  1  0  0  0  0
 18 44  1  0  0  0  0
 18 45  1  0  0  0  0
 19 20  1  0  0  0  0
 19 22  1  0  0  0  0
 19 46  1  0  0  0  0
 20 21  1  0  0  0  0
 20 47  1  0  0  0  0
 20 48  1  0  0  0  0
 21 49  1  0  0  0  0
 22 26  1  0  0  0  0
 22 23  1  0  0  0  0
 22 50  1  0  0  0  0
 23 24  1  0  0  0  0
 23 51  1  0  0  0  0
 23 52  1  0  0  0  0
 24 25  1  0  0  0  0
 24 53  1  0  0  0  0
 24 54  1  0  0  0  0
 25 26  1  0  0  0  0
 26 55  1  0  0  0  0
 26 56  1  0  0  0  0
 27 28  1  0  0  0  0
 27 29  1  0  0  0  0
 28 57  1  0  0  0  0
 28 58  1  0  0  0  0
 28 59  1  0  0  0  0
 29 60  1  0  0  0  0
 29 61  1  0  0  0  0
M  END
> <s_m_source_file>
AV-unprocessed.smi

> <i_m_source_file_index>
21

> <i_lp_mmshare_version>
43012

> <i_f3d_flags>
0

> <s_epik_input>
W0NIM11PW0NASF0xW0NIMl1bQ0BIXShOKFtDSDNdKVtDSDJdMSlbQ0gyXU4oW0NIM10pYyhuW2NIXW4yKWMoYzIzKW5bY0hdbjNbQ0gyXVtDQEhdKFtDSDJdW09IXSlbQ0BASF00W0NIMl1bQ0gyXU9bQ0gyXTQ=

> <s_epik_cmdline>
J2VwaWtfcHl0aG9uJywgJy1waCcsICc3LjAnLCAnLXRuJywgJzgnLCAnLW1hJywgJzIwMCcsICctbWV0YWxfYmluZGluZycsICctaW1hZScsICc8aW5maWxlLm1hZT4nLCAnLW9tYWUnLCAnPG91dGZpbGUubWFlPic=

> <r_lp_tautomer_probability>
1

> <r_epik_Ionization_Penalty>
2.17574

> <r_epik_Ionization_Penalty_Charging>
0

> <r_epik_Ionization_Penalty_Neutral>
2.17574

> <r_epik_State_Penalty>
2.31336

> <r_epik_Charging_Adjusted_Penalty>
2.31336

> <i_epik_Tot_Q>
0

> <i_epik_Tot_abs_Q>
0

> <r_epik_Metal_State_Penalty>
2.31025

> <b_epik_Metal_Only>
0

> <s_lp_Force_Field>
OPLS_2005

> <r_lp_Energy>
69.2807

> <b_lp_Chiralities_Consistent>
1

> <s_lp_Variant>
AV-unprocessed.smi:21-46

> <Gold.Version>
5.8.1

> <Gold.Id.Protein>
6NUR|6NUR_protein|mol2

> <Gold.PLP.Fitness>
48.1389

> <Gold.PLP.PLP>
-44.2602

> <Gold.PLP.part.hbond>
-2.8366

> <Gold.PLP.part.metal>
0.0000

> <Gold.PLP.part.buried>
-6.2515

> <Gold.PLP.part.nonpolar>
-35.0507

> <Gold.PLP.part.repulsive>
0.1235

> <Gold.PLP.ligand.clash>
0.0000

> <Gold.PLP.ligand.torsion>
1.8325

> <Gold.PLP.Chemscore.Hbond>
2.0000

> <Gold.PLP.Chemscore.CHOScore>
0.0000

> <Gold.PLP.Chemscore.Metal>
0.0000

> <Gold.Chemscore.Hbonds>
donor molecule, donor type, donor heavy atom, donor atom, acceptor molecule, acceptor atom, score
      L1  H    21    49       P1  7948  1.00
      P1  H  7997  8009       L1    10  0.85

> <Gold.PLP.Chemscore.Internal.Correction>
1.5436

> <Gold.Rescore>
     Score         DG    S(hbond)    S(metal)    S(lipo)     H(rot)  DE(clash)    DE(int)     intcor
     13.69     -16.85       1.93        0.00     107.83       3.00       0.02       3.13       ----

> <Gold.Chemscore.Fitness>
13.6937

> <Gold.Chemscore.DG>
-16.8472

> <Gold.Chemscore.ZeroCoef>
-5.4800

> <Gold.Chemscore.Hbond>
1.9278

> <Gold.Chemscore.Metal>
0.0000

> <Gold.Chemscore.Lipo>
107.8318

> <Gold.Chemscore.Internal_Hbond>
0.0000

> <Gold.Chemscore.DEClash>
0.0193

> <Gold.Chemscore.DEInternal>
3.1342

> <Gold.Chemscore.Rot>
3.0031

> <Gold.Chemscore.Internal.Correction>
   9.000000E+99

> <Gold.Chemscore.Hbonds>
donor molecule, donor type, donor heavy atom, donor atom, acceptor molecule, acceptor atom, score
      L1  H    21    49       P1  7948  0.74
      P1  H  7997  8009       L1    10  0.15

> <Gold.Chemscore.Hbond.Weighted>
-6.4388

> <Gold.Chemscore.Metal.Weighted>
-0.0000

> <Gold.Chemscore.Lipo.Weighted>
-12.6163

> <Gold.Chemscore.Internal_Hbond.Weighted>
0.0000

> <Gold.Chemscore.DEClash.Weighted>
0.0193

> <Gold.Chemscore.DEInternal.Weighted>
3.1342

> <Gold.Chemscore.Rot.Weighted>
7.6880

> <Gold.Chemscore.Internal.Correction.Weighted>
   9.000000E+99

> <Gold.Protein.RotatedTorsions>
[ 6907 6896 6895 6894 ] final -107.08 input  -60.11 | X-H torsion
[ 7974 7965 7964 7962 ] final   84.94 input  175.53 | X-H torsion
[ 8008 7997 7996 7995 ] final  170.01 input   59.86 | X-H torsion
[ 10167 10162 10161 10158 ] final  -66.83 input  -65.29 | X-H torsion
[ 10718 10713 10712 10709 ] final   33.59 input   66.30 | X-H torsion
[ 10763 10752 10751 10750 ] final  -58.64 input  -60.55 | X-H torsion
[ 11005 11000 10999 10996 ] final  -94.99 input  -57.11 | X-H torsion

> <Gold.Protein.ActiveResidues>
 VAL166  LYS551  ARG553  GLY616  TRP617  ASP618  TYR619  PRO620  LYS621  CYS622 
 ASP623  PHE694  ASN695  SER759  ASP760  ASP761  ALA762  ILE779  LEU786  VAL792 
 PHE793  MET794  SER795  GLU796  ALA797  LYS798  CYS799  TRP800  GLU811  SER814 

> <Gold.Protein.RotatedAtoms>
  150.7424  133.9879  159.3597 H   0  0  0  0  0  0  0  0  0  0  0  0  # atno 6907 bound_to 6896
  151.7825  135.0755  160.0385 H   0  0  0  0  0  0  0  0  0  0  0  0  # atno 6908 bound_to 6896
  152.3264  133.5873  159.5815 H   0  0  0  0  0  0  0  0  0  0  0  0  # atno 6909 bound_to 6896
  145.5921  139.2339  143.2294 H   0  0  0  0  0  0  0  0  0  0  0  0  # atno 7974 bound_to 7965
  156.1405  140.1549  156.8928 H   0  0  0  0  0  0  0  0  0  0  0  0  # atno 8008 bound_to 7997
  154.4983  140.0832  156.7783 H   0  0  0  0  0  0  0  0  0  0  0  0  # atno 8009 bound_to 7997
  155.4088  140.3418  155.4264 H   0  0  0  0  0  0  0  0  0  0  0  0  # atno 8010 bound_to 7997
  140.5628  143.2313  151.6694 H   0  0  0  0  0  0  0  0  0  0  0  0  # atno 10167 bound_to 10162
  157.2998  130.7345  149.6660 H   0  0  0  0  0  0  0  0  0  0  0  0  # atno 10718 bound_to 10713
  154.2413  135.6343  153.5208 H   0  0  0  0  0  0  0  0  0  0  0  0  # atno 10763 bound_to 10752
  152.9929  135.5543  154.5907 H   0  0  0  0  0  0  0  0  0  0  0  0  # atno 10764 bound_to 10752
  154.5413  135.2895  155.1067 H   0  0  0  0  0  0  0  0  0  0  0  0  # atno 10765 bound_to 10752
  141.1455  133.7995  157.0374 H   0  0  0  0  0  0  0  0  0  0  0  0  # atno 11005 bound_to 11000
  146.1639  140.6747  142.9264 LP  0  0  0  0  0  0  0  0  0  0  0  0  # atno 17320 bound_to 7965
  144.7347  140.4773  143.6912 LP  0  0  0  0  0  0  0  0  0  0  0  0  # atno 17321 bound_to 7965
  139.5078  144.3633  152.0541 LP  0  0  0  0  0  0  0  0  0  0  0  0  # atno 17342 bound_to 10162
  140.2761  144.3911  150.6134 LP  0  0  0  0  0  0  0  0  0  0  0  0  # atno 17343 bound_to 10162
  155.9671  130.4283  150.4784 LP  0  0  0  0  0  0  0  0  0  0  0  0  # atno 17370 bound_to 10713
  157.2762  131.0597  151.2227 LP  0  0  0  0  0  0  0  0  0  0  0  0  # atno 17371 bound_to 10713
  140.0715  134.9700  157.1474 LP  0  0  0  0  0  0  0  0  0  0  0  0  # atno 17394 bound_to 11000
  140.3705  134.2396  155.7178 LP  0  0  0  0  0  0  0  0  0  0  0  0  # atno 17395 bound_to 11000

$$$$
