AV-unprocessed.smi:910|AV-procd|sdf|4119|dock4
  -GOLD-   22720 2 13D 1   1.00000     0.00000
 Structure written by MMmdl.
 46 47  0  0  0  0  0  0  0  0  1 V2000
  149.2201  133.0315  162.7763 C   0  0  0  0  0  0  0  0  0  0  0  0
  149.3732  134.3810  162.1478 C   0  0  0  0  0  0  0  0  0  0  0  0
  149.6045  134.5408  160.7888 N   0  0  0  0  0  0  0  0  0  0  0  0
  149.6801  135.8615  160.6149 C   0  0  0  0  0  0  0  0  0  0  0  0
  149.9105  136.5403  159.3925 N   0  0  0  0  0  0  0  0  0  0  0  0
  151.0583  137.0937  158.9679 C   0  0  0  0  0  0  0  0  0  0  0  0
  152.1269  137.0719  159.5794 O   0  0  0  0  0  0  0  0  0  0  0  0
  150.8962  137.6950  157.7808 N   0  0  0  0  0  0  0  0  0  0  0  0
  151.9187  138.4649  157.0797 C   0  0  0  0  0  0  0  0  0  0  0  0
  151.6085  139.9691  157.1043 C   0  0  0  0  0  0  0  0  0  0  0  0
  151.8417  140.4573  158.4173 O   0  0  0  0  0  0  0  0  0  0  0  0
  152.1110  141.8507  158.4913 C   0  0  1  0  0  0  0  0  0  0  0  0
  150.8348  142.6397  158.1342 C   0  0  0  0  0  0  0  0  0  0  0  0
  151.0306  144.1491  158.3388 C   0  0  0  0  0  0  0  0  0  0  0  0
  151.4845  144.4568  159.7729 C   0  0  0  0  0  0  0  0  0  0  0  0
  152.7618  143.6797  160.1265 C   0  0  0  0  0  0  0  0  0  0  0  0
  152.5797  142.1611  159.9305 C   0  0  2  0  0  0  0  0  0  0  0  0
  153.8743  141.4077  160.2802 C   0  0  0  0  0  0  0  0  0  0  0  0
  149.5151  136.5775  161.7587 O   0  0  0  0  0  0  0  0  0  0  0  0
  149.3205  135.6252  162.7235 C   0  0  0  0  0  0  0  0  0  0  0  0
  149.1047  136.0882  164.1242 C   0  0  0  0  0  0  0  0  0  0  0  0
  149.6905  132.9988  163.7592 H   0  0  0  0  0  0  0  0  0  0  0  0
  149.6787  132.2525  162.1664 H   0  0  0  0  0  0  0  0  0  0  0  0
  148.1681  132.7763  162.9037 H   0  0  0  0  0  0  0  0  0  0  0  0
  149.1092  136.6333  158.7861 H   0  0  0  0  0  0  0  0  0  0  0  0
  149.9839  137.6599  157.3506 H   0  0  0  0  0  0  0  0  0  0  0  0
  152.8987  138.2715  157.5185 H   0  0  0  0  0  0  0  0  0  0  0  0
  151.9627  138.1136  156.0486 H   0  0  0  0  0  0  0  0  0  0  0  0
  152.2392  140.4909  156.3830 H   0  0  0  0  0  0  0  0  0  0  0  0
  150.5722  140.1419  156.8133 H   0  0  0  0  0  0  0  0  0  0  0  0
  152.9150  142.1234  157.8049 H   0  0  0  0  0  0  0  0  0  0  0  0
  150.5463  142.4492  157.1006 H   0  0  0  0  0  0  0  0  0  0  0  0
  150.0064  142.2945  158.7541 H   0  0  0  0  0  0  0  0  0  0  0  0
  151.7728  144.5214  157.6317 H   0  0  0  0  0  0  0  0  0  0  0  0
  150.1019  144.6776  158.1212 H   0  0  0  0  0  0  0  0  0  0  0  0
  151.6570  145.5274  159.8864 H   0  0  0  0  0  0  0  0  0  0  0  0
  150.6909  144.1946  160.4735 H   0  0  0  0  0  0  0  0  0  0  0  0
  153.5851  144.0352  159.5050 H   0  0  0  0  0  0  0  0  0  0  0  0
  153.0420  143.8918  161.1588 H   0  0  0  0  0  0  0  0  0  0  0  0
  151.8038  141.8256  160.6204 H   0  0  0  0  0  0  0  0  0  0  0  0
  154.6894  141.6883  159.6124 H   0  0  0  0  0  0  0  0  0  0  0  0
  153.7405  140.3282  160.2029 H   0  0  0  0  0  0  0  0  0  0  0  0
  154.1907  141.6242  161.3008 H   0  0  0  0  0  0  0  0  0  0  0  0
  148.3212  135.5052  164.6085 H   0  0  0  0  0  0  0  0  0  0  0  0
  148.8080  137.1370  164.1489 H   0  0  0  0  0  0  0  0  0  0  0  0
  150.0176  135.9806  164.7101 H   0  0  0  0  0  0  0  0  0  0  0  0
  1  2  1  0  0  0  0
  1 22  1  0  0  0  0
  1 23  1  0  0  0  0
  1 24  1  0  0  0  0
  2 20  2  0  0  0  0
  2  3  1  0  0  0  0
  3  4  2  0  0  0  0
  4  5  1  0  0  0  0
  4 19  1  0  0  0  0
  5  6  1  0  0  0  0
  5 25  1  0  0  0  0
  6  7  2  0  0  0  0
  6  8  1  0  0  0  0
  8  9  1  0  0  0  0
  8 26  1  0  0  0  0
  9 10  1  0  0  0  0
  9 27  1  0  0  0  0
  9 28  1  0  0  0  0
 10 11  1  0  0  0  0
 10 29  1  0  0  0  0
 10 30  1  0  0  0  0
 11 12  1  0  0  0  0
 12 17  1  0  0  0  0
 12 13  1  0  0  0  0
 12 31  1  0  0  0  0
 13 14  1  0  0  0  0
 13 32  1  0  0  0  0
 13 33  1  0  0  0  0
 14 15  1  0  0  0  0
 14 34  1  0  0  0  0
 14 35  1  0  0  0  0
 15 16  1  0  0  0  0
 15 36  1  0  0  0  0
 15 37  1  0  0  0  0
 16 17  1  0  0  0  0
 16 38  1  0  0  0  0
 16 39  1  0  0  0  0
 17 18  1  0  0  0  0
 17 40  1  0  0  0  0
 18 41  1  0  0  0  0
 18 42  1  0  0  0  0
 18 43  1  0  0  0  0
 19 20  1  0  0  0  0
 20 21  1  0  0  0  0
 21 44  1  0  0  0  0
 21 45  1  0  0  0  0
 21 46  1  0  0  0  0
M  END
> <s_m_source_file>
AV-unprocessed.smi

> <i_m_source_file_index>
910

> <i_lp_mmshare_version>
43012

> <i_f3d_flags>
0

> <s_epik_input>
W0NIM11jMW5jKG9jMVtDSDNdKVtOSF1DKD1PKVtOSF1bQ0gyXVtDSDJdT1tDQEBIXTJbQ0gyXVtDSDJdW0NIMl1bQ0gyXVtDQEhdMltDSDNd

> <s_epik_cmdline>
J2VwaWtfcHl0aG9uJywgJy1waCcsICc3LjAnLCAnLXRuJywgJzgnLCAnLW1hJywgJzIwMCcsICctbWV0YWxfYmluZGluZycsICctaW1hZScsICc8aW5maWxlLm1hZT4nLCAnLW9tYWUnLCAnPG91dGZpbGUubWFlPic=

> <r_lp_tautomer_probability>
0.785861

> <r_epik_Ionization_Penalty>
4.15957e-05

> <r_epik_Ionization_Penalty_Charging>
0

> <r_epik_Ionization_Penalty_Neutral>
4.15957e-05

> <r_epik_State_Penalty>
0.0240523

> <r_epik_Charging_Adjusted_Penalty>
0.0240523

> <i_epik_Tot_Q>
0

> <i_epik_Tot_abs_Q>
0

> <r_epik_Metal_State_Penalty>
0.057053

> <b_epik_Metal_Only>
0

> <s_lp_Force_Field>
OPLS_2005

> <r_lp_Energy>
8.26637

> <b_lp_Chiralities_Consistent>
1

> <s_lp_Variant>
AV-unprocessed.smi:910-4

> <Gold.Version>
5.8.1

> <Gold.Id.Protein>
6NUR|6NUR_protein|mol2

> <Gold.PLP.Fitness>
51.0049

> <Gold.PLP.PLP>
-45.3459

> <Gold.PLP.part.hbond>
-2.7886

> <Gold.PLP.part.metal>
0.0000

> <Gold.PLP.part.buried>
-5.9122

> <Gold.PLP.part.nonpolar>
-38.0448

> <Gold.PLP.part.repulsive>
0.2232

> <Gold.PLP.ligand.clash>
0.0000

> <Gold.PLP.ligand.torsion>
0.9865

> <Gold.PLP.Chemscore.Hbond>
2.5287

> <Gold.PLP.Chemscore.CHOScore>
0.0000

> <Gold.PLP.Chemscore.Metal>
0.0000

> <Gold.Chemscore.Hbonds>
donor molecule, donor type, donor heavy atom, donor atom, acceptor molecule, acceptor atom, score
      P1  H  6931  6943       L1    19  0.88

> <Gold.PLP.Chemscore.Internal.Correction>
0.0460

> <Gold.Rescore>
     Score         DG    S(hbond)    S(metal)    S(lipo)     H(rot)  DE(clash)    DE(int)     intcor
     21.80     -23.01       2.49        0.00     115.17       1.66       0.24       0.98       ----

> <Gold.Chemscore.Fitness>
21.7967

> <Gold.Chemscore.DG>
-23.0143

> <Gold.Chemscore.ZeroCoef>
-5.4800

> <Gold.Chemscore.Hbond>
2.4858

> <Gold.Chemscore.Metal>
0.0000

> <Gold.Chemscore.Lipo>
115.1741

> <Gold.Chemscore.Internal_Hbond>
0.0000

> <Gold.Chemscore.DEClash>
0.2405

> <Gold.Chemscore.DEInternal>
0.9772

> <Gold.Chemscore.Rot>
1.6576

> <Gold.Chemscore.Internal.Correction>
   9.000000E+99

> <Gold.Chemscore.Hbonds>
donor molecule, donor type, donor heavy atom, donor atom, acceptor molecule, acceptor atom, score
      P1  H  6931  6943       L1    19  0.86

> <Gold.Chemscore.Hbond.Weighted>
-8.3025

> <Gold.Chemscore.Metal.Weighted>
-0.0000

> <Gold.Chemscore.Lipo.Weighted>
-13.4754

> <Gold.Chemscore.Internal_Hbond.Weighted>
0.0000

> <Gold.Chemscore.DEClash.Weighted>
0.2405

> <Gold.Chemscore.DEInternal.Weighted>
0.9772

> <Gold.Chemscore.Rot.Weighted>
4.2436

> <Gold.Chemscore.Internal.Correction.Weighted>
   9.000000E+99

> <Gold.Protein.RotatedTorsions>
[ 6907 6896 6895 6894 ] final -136.06 input  -60.11 | X-H torsion
[ 7974 7965 7964 7962 ] final -144.44 input  175.53 | X-H torsion
[ 8008 7997 7996 7995 ] final -171.11 input   59.86 | X-H torsion
[ 10167 10162 10161 10158 ] final  138.45 input  -65.29 | X-H torsion
[ 10718 10713 10712 10709 ] final  -60.05 input   66.30 | X-H torsion
[ 10763 10752 10751 10750 ] final  169.14 input  -60.55 | X-H torsion
[ 11005 11000 10999 10996 ] final -179.78 input  -57.11 | X-H torsion

> <Gold.Protein.ActiveResidues>
 VAL166  LYS551  ARG553  GLY616  TRP617  ASP618  TYR619  PRO620  LYS621  CYS622 
 ASP623  PHE694  ASN695  SER759  ASP760  ASP761  ALA762  ILE779  LEU786  VAL792 
 PHE793  MET794  SER795  GLU796  ALA797  LYS798  CYS799  TRP800  GLU811  SER814 

> <Gold.Protein.RotatedAtoms>
  151.0054  133.6016  159.2689 H   0  0  0  0  0  0  0  0  0  0  0  0  # atno 6907 bound_to 6896
  151.3187  135.0812  159.9308 H   0  0  0  0  0  0  0  0  0  0  0  0  # atno 6908 bound_to 6896
  152.5285  133.9706  159.7814 H   0  0  0  0  0  0  0  0  0  0  0  0  # atno 6909 bound_to 6896
  144.8297  140.5709  143.5523 H   0  0  0  0  0  0  0  0  0  0  0  0  # atno 7974 bound_to 7965
  155.9273  140.1085  157.1160 H   0  0  0  0  0  0  0  0  0  0  0  0  # atno 8008 bound_to 7997
  154.4064  140.1244  156.4822 H   0  0  0  0  0  0  0  0  0  0  0  0  # atno 8009 bound_to 7997
  155.7123  140.3471  155.4981 H   0  0  0  0  0  0  0  0  0  0  0  0  # atno 8010 bound_to 7997
  139.5110  144.6352  151.5714 H   0  0  0  0  0  0  0  0  0  0  0  0  # atno 10167 bound_to 10162
  156.1018  130.4185  150.0800 H   0  0  0  0  0  0  0  0  0  0  0  0  # atno 10718 bound_to 10713
  154.3788  135.2753  155.2224 H   0  0  0  0  0  0  0  0  0  0  0  0  # atno 10763 bound_to 10752
  154.4339  135.5970  153.6090 H   0  0  0  0  0  0  0  0  0  0  0  0  # atno 10764 bound_to 10752
  152.9835  135.6002  154.4028 H   0  0  0  0  0  0  0  0  0  0  0  0  # atno 10765 bound_to 10752
  140.4149  134.6658  157.4633 H   0  0  0  0  0  0  0  0  0  0  0  0  # atno 11005 bound_to 11000
  145.4922  139.1488  143.3703 LP  0  0  0  0  0  0  0  0  0  0  0  0  # atno 17320 bound_to 7965
  146.2601  140.5060  142.8857 LP  0  0  0  0  0  0  0  0  0  0  0  0  # atno 17321 bound_to 7965
  140.6099  143.9456  150.6445 LP  0  0  0  0  0  0  0  0  0  0  0  0  # atno 17342 bound_to 10162
  140.2695  143.3466  152.1251 LP  0  0  0  0  0  0  0  0  0  0  0  0  # atno 17343 bound_to 10162
  156.8785  130.9548  151.3602 LP  0  0  0  0  0  0  0  0  0  0  0  0  # atno 17370 bound_to 10713
  157.6189  130.8640  149.9075 LP  0  0  0  0  0  0  0  0  0  0  0  0  # atno 17371 bound_to 10713
  140.0241  134.6503  155.9197 LP  0  0  0  0  0  0  0  0  0  0  0  0  # atno 17394 bound_to 11000
  141.1807  133.6546  156.5008 LP  0  0  0  0  0  0  0  0  0  0  0  0  # atno 17395 bound_to 11000

$$$$
