AV-unprocessed.smi:1417|AV-procd|sdf|5767|dock10
  -GOLD-   22720 5413D 1   1.00000     0.00000
 Structure written by MMmdl.
 40 41  0  0  0  0  0  0  0  0  2 V2000
  153.7029  141.6328  159.9209 C   0  0  0  0  0  0  0  0  0  0  0  0
  152.7265  141.5622  158.7971 C   0  0  0  0  0  0  0  0  0  0  0  0
  151.7236  142.3924  158.3825 C   0  0  0  0  0  0  0  0  0  0  0  0
  151.1965  141.7127  157.2459 C   0  0  0  0  0  0  0  0  0  0  0  0
  150.1209  142.1470  156.4291 N   0  0  0  0  0  0  0  0  0  0  0  0
  149.4956  141.4784  155.4458 C   0  0  0  0  0  0  0  0  0  0  0  0
  149.7594  140.3333  155.0804 O   0  0  0  0  0  0  0  0  0  0  0  0
  148.5271  142.2240  154.8936 N   0  0  0  0  0  0  0  0  0  0  0  0
  147.6464  141.7988  153.8057 C   0  0  2  0  0  0  0  0  0  0  0  0
  146.4567  142.7619  153.6196 C   0  0  0  0  0  0  0  0  0  0  0  0
  145.4506  142.6651  154.7797 C   0  0  0  0  0  0  0  0  0  0  0  0
  144.9701  141.2685  154.9553 N   0  3  2  0  0  0  0  0  0  0  0  0
  143.8917  141.1465  155.9702 C   0  0  0  0  0  0  0  0  0  0  0  0
  143.2257  139.7664  155.9759 C   0  0  0  0  0  0  0  0  0  0  0  0
  142.6970  139.3477  154.8237 N   0  0  0  0  0  0  0  0  0  0  0  0
  143.1730  139.0931  157.0036 O   0  0  0  0  0  0  0  0  0  0  0  0
  146.0947  140.3316  155.2071 C   0  0  0  0  0  0  0  0  0  0  0  0
  147.1241  140.3746  154.0626 C   0  0  0  0  0  0  0  0  0  0  0  0
  151.8198  140.5756  156.9984 N   0  0  0  0  0  0  0  0  0  0  0  0
  152.8041  140.4716  157.9882 O   0  0  0  0  0  0  0  0  0  0  0  0
  153.4876  142.4808  160.5712 H   0  0  0  0  0  0  0  0  0  0  0  0
  154.7190  141.7458  159.5427 H   0  0  0  0  0  0  0  0  0  0  0  0
  153.6645  140.7260  160.5245 H   0  0  0  0  0  0  0  0  0  0  0  0
  151.4304  143.3291  158.8319 H   0  0  0  0  0  0  0  0  0  0  0  0
  149.7863  143.0794  156.6218 H   0  0  0  0  0  0  0  0  0  0  0  0
  148.3776  143.1511  155.2641 H   0  0  0  0  0  0  0  0  0  0  0  0
  148.2342  141.7825  152.8859 H   0  0  0  0  0  0  0  0  0  0  0  0
  146.8051  143.7896  153.5115 H   0  0  0  0  0  0  0  0  0  0  0  0
  145.9452  142.5204  152.6868 H   0  0  0  0  0  0  0  0  0  0  0  0
  145.9077  143.0150  155.7064 H   0  0  0  0  0  0  0  0  0  0  0  0
  144.6102  143.3289  154.5763 H   0  0  0  0  0  0  0  0  0  0  0  0
  144.3081  141.2939  156.9676 H   0  0  0  0  0  0  0  0  0  0  0  0
  143.1477  141.9312  155.8223 H   0  0  0  0  0  0  0  0  0  0  0  0
  142.2489  138.4445  154.7671 H   0  0  0  0  0  0  0  0  0  0  0  0
  142.7507  139.9377  154.0053 H   0  0  0  0  0  0  0  0  0  0  0  0
  146.5698  140.5783  156.1578 H   0  0  0  0  0  0  0  0  0  0  0  0
  145.7120  139.3147  155.3006 H   0  0  0  0  0  0  0  0  0  0  0  0
  146.6564  139.9968  153.1520 H   0  0  0  0  0  0  0  0  0  0  0  0
  147.9534  139.6996  154.2780 H   0  0  0  0  0  0  0  0  0  0  0  0
  144.5582  140.9872  154.0764 H   0  0  0  0  0  0  0  0  0  0  0  0
  1  2  1  0  0  0  0
  1 21  1  0  0  0  0
  1 22  1  0  0  0  0
  1 23  1  0  0  0  0
  2 20  1  0  0  0  0
  2  3  2  0  0  0  0
  3  4  1  0  0  0  0
  3 24  1  0  0  0  0
  4  5  1  0  0  0  0
  4 19  2  0  0  0  0
  5  6  1  0  0  0  0
  5 25  1  0  0  0  0
  6  7  2  0  0  0  0
  6  8  1  0  0  0  0
  8  9  1  0  0  0  0
  8 26  1  0  0  0  0
  9 18  1  0  0  0  0
  9 10  1  0  0  0  0
  9 27  1  0  0  0  0
 10 11  1  0  0  0  0
 10 28  1  0  0  0  0
 10 29  1  0  0  0  0
 11 12  1  0  0  0  0
 11 30  1  0  0  0  0
 11 31  1  0  0  0  0
 12 13  1  0  0  0  0
 12 17  1  0  0  0  0
 12 40  1  0  0  0  0
 13 14  1  0  0  0  0
 13 32  1  0  0  0  0
 13 33  1  0  0  0  0
 14 15  1  0  0  0  0
 14 16  2  0  0  0  0
 15 34  1  0  0  0  0
 15 35  1  0  0  0  0
 17 18  1  0  0  0  0
 17 36  1  0  0  0  0
 17 37  1  0  0  0  0
 18 38  1  0  0  0  0
 18 39  1  0  0  0  0
 19 20  1  0  0  0  0
M  CHG  1  12   1
M  END
> <s_m_source_file>
AV-unprocessed.smi

> <i_m_source_file_index>
1417

> <i_lp_mmshare_version>
43012

> <i_f3d_flags>
0

> <s_epik_input>
W0NIM11jMVtjSF1jKG5vMSlbTkhdQyg9TylbTkhdW0NIXTJbQ0gyXVtDSDJdTihbQ0gyXVtDSDJdMilbQ0gyXUMoPU8pW05IMl0=

> <s_epik_cmdline>
J2VwaWtfcHl0aG9uJywgJy1waCcsICc3LjAnLCAnLXRuJywgJzgnLCAnLW1hJywgJzIwMCcsICctbWV0YWxfYmluZGluZycsICctaW1hZScsICc8aW5maWxlLm1hZT4nLCAnLW9tYWUnLCAnPG91dGZpbGUubWFlPic=

> <r_epik_Ionization_Penalty>
0.867698

> <r_epik_Ionization_Penalty_Charging>
0.867623

> <r_epik_Ionization_Penalty_Neutral>
7.46743e-05

> <r_epik_State_Penalty>
0.904669

> <r_epik_Charging_Adjusted_Penalty>
1.77229

> <i_epik_Tot_Q>
1

> <i_epik_Tot_abs_Q>
1

> <r_epik_Metal_State_Penalty>
0.930696

> <b_epik_Metal_Only>
0

> <s_lp_Force_Field>
OPLS_2005

> <r_lp_Energy>
12.5471

> <b_lp_Chiralities_Consistent>
1

> <s_lp_Variant>
AV-unprocessed.smi:1417-3

> <Gold.Version>
5.8.1

> <Gold.Id.Protein>
6NUR|6NUR_protein|mol2

> <Gold.PLP.Fitness>
45.9917

> <Gold.PLP.PLP>
-29.7386

> <Gold.PLP.part.hbond>
-5.0000

> <Gold.PLP.part.metal>
0.0000

> <Gold.PLP.part.buried>
-5.2554

> <Gold.PLP.part.nonpolar>
-18.3582

> <Gold.PLP.part.repulsive>
0.3612

> <Gold.PLP.ligand.clash>
0.0000

> <Gold.PLP.ligand.torsion>
0.2224

> <Gold.PLP.Chemscore.Hbond>
5.5574

> <Gold.PLP.Chemscore.CHOScore>
0.0000

> <Gold.PLP.Chemscore.Metal>
0.0000

> <Gold.Chemscore.Hbonds>
donor molecule, donor type, donor heavy atom, donor atom, acceptor molecule, acceptor atom, score
      L1  H     5    25       P1  8028  0.69
      L1  H     8    26       P1  8028  1.00
      L1  H    12    40       P1 10175  2.00
      L1  H    15    35       P1 10175  1.00
      P1  H  7997  8010       L1    20  0.81

> <Gold.PLP.Chemscore.Internal.Correction>
0.0256

> <Gold.Rescore>
     Score         DG    S(hbond)    S(metal)    S(lipo)     H(rot)  DE(clash)    DE(int)     intcor
     16.46     -20.15       3.87        0.00      59.65       2.05       0.72       2.98       ----

> <Gold.Chemscore.Fitness>
16.4598

> <Gold.Chemscore.DG>
-20.1519

> <Gold.Chemscore.ZeroCoef>
-5.4800

> <Gold.Chemscore.Hbond>
3.8713

> <Gold.Chemscore.Metal>
0.0000

> <Gold.Chemscore.Lipo>
59.6487

> <Gold.Chemscore.Internal_Hbond>
0.0000

> <Gold.Chemscore.DEClash>
0.7168

> <Gold.Chemscore.DEInternal>
2.9753

> <Gold.Chemscore.Rot>
2.0457

> <Gold.Chemscore.Internal.Correction>
   9.000000E+99

> <Gold.Chemscore.Hbonds>
donor molecule, donor type, donor heavy atom, donor atom, acceptor molecule, acceptor atom, score
      L1  H     5    25       P1  8028  0.65
      L1  H     8    26       P1  8028  0.97
      L1  H    12    40       P1 10175  0.88
      L1  H    15    35       P1 10175  0.95
      P1  H  7997  8010       L1    20  0.26

> <Gold.Chemscore.Hbond.Weighted>
-12.9301

> <Gold.Chemscore.Metal.Weighted>
-0.0000

> <Gold.Chemscore.Lipo.Weighted>
-6.9789

> <Gold.Chemscore.Internal_Hbond.Weighted>
0.0000

> <Gold.Chemscore.DEClash.Weighted>
0.7168

> <Gold.Chemscore.DEInternal.Weighted>
2.9753

> <Gold.Chemscore.Rot.Weighted>
5.2371

> <Gold.Chemscore.Internal.Correction.Weighted>
   9.000000E+99

> <Gold.Protein.RotatedTorsions>
[ 6907 6896 6895 6894 ] final  156.68 input  -60.11 | X-H torsion
[ 7974 7965 7964 7962 ] final  173.35 input  175.53 | X-H torsion
[ 8008 7997 7996 7995 ] final   45.13 input   59.86 | X-H torsion
[ 10167 10162 10161 10158 ] final   92.48 input  -65.29 | X-H torsion
[ 10718 10713 10712 10709 ] final  -41.47 input   66.30 | X-H torsion
[ 10763 10752 10751 10750 ] final   74.34 input  -60.55 | X-H torsion
[ 11005 11000 10999 10996 ] final   68.66 input  -57.11 | X-H torsion

> <Gold.Protein.ActiveResidues>
 VAL166  LYS551  ARG553  GLY616  TRP617  ASP618  TYR619  PRO620  LYS621  CYS622 
 ASP623  PHE694  ASN695  SER759  ASP760  ASP761  ALA762  ILE779  LEU786  VAL792 
 PHE793  MET794  SER795  GLU796  ALA797  LYS798  CYS799  TRP800  GLU811  SER814 

> <Gold.Protein.RotatedAtoms>
  152.0261  133.3918  159.4277 H   0  0  0  0  0  0  0  0  0  0  0  0  # atno 6907 bound_to 6896
  150.6886  134.3572  159.4944 H   0  0  0  0  0  0  0  0  0  0  0  0  # atno 6908 bound_to 6896
  152.1352  134.9104  160.0607 H   0  0  0  0  0  0  0  0  0  0  0  0  # atno 6909 bound_to 6896
  144.7246  139.9634  143.6435 H   0  0  0  0  0  0  0  0  0  0  0  0  # atno 7974 bound_to 7965
  155.3308  140.3402  155.4239 H   0  0  0  0  0  0  0  0  0  0  0  0  # atno 8008 bound_to 7997
  156.1862  140.1681  156.8217 H   0  0  0  0  0  0  0  0  0  0  0  0  # atno 8009 bound_to 7997
  154.5389  140.0729  156.8459 H   0  0  0  0  0  0  0  0  0  0  0  0  # atno 8010 bound_to 7997
  139.8273  144.6704  150.9444 H   0  0  0  0  0  0  0  0  0  0  0  0  # atno 10167 bound_to 10162
  156.2700  130.4205  149.8448 H   0  0  0  0  0  0  0  0  0  0  0  0  # atno 10718 bound_to 10713
  153.0580  135.5029  154.8027 H   0  0  0  0  0  0  0  0  0  0  0  0  # atno 10763 bound_to 10752
  154.6838  135.2973  154.9578 H   0  0  0  0  0  0  0  0  0  0  0  0  # atno 10764 bound_to 10752
  154.0355  135.6724  153.4837 H   0  0  0  0  0  0  0  0  0  0  0  0  # atno 10765 bound_to 10752
  139.9698  134.6919  156.0469 H   0  0  0  0  0  0  0  0  0  0  0  0  # atno 11005 bound_to 11000
  146.0619  139.3612  143.0576 LP  0  0  0  0  0  0  0  0  0  0  0  0  # atno 17320 bound_to 7965
  145.8081  140.9739  143.0963 LP  0  0  0  0  0  0  0  0  0  0  0  0  # atno 17321 bound_to 7965
  140.7809  143.4034  151.1111 LP  0  0  0  0  0  0  0  0  0  0  0  0  # atno 17342 bound_to 10162
  139.7691  143.8522  152.3116 LP  0  0  0  0  0  0  0  0  0  0  0  0  # atno 17343 bound_to 10162
  156.5933  130.8515  151.3413 LP  0  0  0  0  0  0  0  0  0  0  0  0  # atno 17370 bound_to 10713
  157.7280  130.9651  150.1725 LP  0  0  0  0  0  0  0  0  0  0  0  0  # atno 17371 bound_to 10713
  141.1378  133.6571  156.3644 LP  0  0  0  0  0  0  0  0  0  0  0  0  # atno 17394 bound_to 11000
  140.5317  134.6206  157.5352 LP  0  0  0  0  0  0  0  0  0  0  0  0  # atno 17395 bound_to 11000

$$$$
