AV-unprocessed.smi:1094|AV-procd|sdf|4746|dock10
  -GOLD-   22720 3283D 1   1.00000     0.00000
 Structure written by MMmdl.
 45 46  0  0  0  0  0  0  0  0  1 V2000
  145.6589  129.5985  152.3826 C   0  0  0  0  0  0  0  0  0  0  0  0
  145.6876  130.2615  150.9980 C   0  0  0  0  0  0  0  0  0  0  0  0
  145.4666  131.7113  151.0914 N   0  0  0  0  0  0  0  0  0  0  0  0
  146.3862  132.4478  151.8640 C   0  0  0  0  0  0  0  0  0  0  0  0
  146.2876  133.7856  152.0282 C   0  0  0  0  0  0  0  0  0  0  0  0
  147.1638  134.5845  152.7788 N   0  0  0  0  0  0  0  0  0  0  0  0
  147.2642  134.7255  154.1140 C   0  0  0  0  0  0  0  0  0  0  0  0
  146.5577  134.1714  154.9558 O   0  0  0  0  0  0  0  0  0  0  0  0
  148.2629  135.5628  154.4300 N   0  0  0  0  0  0  0  0  0  0  0  0
  148.6628  135.9425  155.7850 C   0  0  0  0  0  0  0  0  0  0  0  0
  149.6736  137.1246  155.8443 C   0  0  0  0  0  0  0  0  0  0  0  0
  149.9726  137.3605  157.3509 C   0  0  0  0  0  0  0  0  0  0  0  0
  149.6255  138.5293  157.9001 N   0  0  0  0  0  0  0  0  0  0  0  0
  150.5361  136.4945  158.0184 O   0  0  0  0  0  0  0  0  0  0  0  0
  150.9614  136.8256  155.0225 C   0  0  0  0  0  0  0  0  0  0  0  0
  151.8964  138.0484  154.9232 C   0  0  0  0  0  0  0  0  0  0  0  0
  151.1975  139.1454  154.3465 O   0  0  0  0  0  0  0  0  0  0  0  0
  150.0739  139.5585  155.1160 C   0  0  0  0  0  0  0  0  0  0  0  0
  149.0560  138.4050  155.2150 C   0  0  0  0  0  0  0  0  0  0  0  0
  145.1835  134.4448  151.3639 C   0  0  0  0  0  0  0  0  0  0  0  0
  144.2931  133.7491  150.6309 C   0  0  0  0  0  0  0  0  0  0  0  0
  144.4009  132.2975  150.4687 C   0  0  0  0  0  0  0  0  0  0  0  0
  143.5827  131.6508  149.8142 O   0  0  0  0  0  0  0  0  0  0  0  0
  145.8350  128.5257  152.3014 H   0  0  0  0  0  0  0  0  0  0  0  0
  144.6938  129.7395  152.8704 H   0  0  0  0  0  0  0  0  0  0  0  0
  146.4282  130.0129  153.0347 H   0  0  0  0  0  0  0  0  0  0  0  0
  146.6456  130.0574  150.5174 H   0  0  0  0  0  0  0  0  0  0  0  0
  144.9441  129.7951  150.3491 H   0  0  0  0  0  0  0  0  0  0  0  0
  147.1578  131.8345  152.3010 H   0  0  0  0  0  0  0  0  0  0  0  0
  147.8146  135.1241  152.2272 H   0  0  0  0  0  0  0  0  0  0  0  0
  148.7924  135.9719  153.6742 H   0  0  0  0  0  0  0  0  0  0  0  0
  147.7471  136.2125  156.3134 H   0  0  0  0  0  0  0  0  0  0  0  0
  149.0614  135.0764  156.3174 H   0  0  0  0  0  0  0  0  0  0  0  0
  149.8106  138.7021  158.8774 H   0  0  0  0  0  0  0  0  0  0  0  0
  149.1783  139.2356  157.3338 H   0  0  0  0  0  0  0  0  0  0  0  0
  151.4999  135.9666  155.4244 H   0  0  0  0  0  0  0  0  0  0  0  0
  150.6938  136.5449  154.0042 H   0  0  0  0  0  0  0  0  0  0  0  0
  152.3005  138.3320  155.8953 H   0  0  0  0  0  0  0  0  0  0  0  0
  152.7506  137.8103  154.2891 H   0  0  0  0  0  0  0  0  0  0  0  0
  150.3968  139.8979  156.1011 H   0  0  0  0  0  0  0  0  0  0  0  0
  149.6147  140.4166  154.6253 H   0  0  0  0  0  0  0  0  0  0  0  0
  148.6993  138.1926  154.2069 H   0  0  0  0  0  0  0  0  0  0  0  0
  148.1765  138.7325  155.7713 H   0  0  0  0  0  0  0  0  0  0  0  0
  145.0657  135.5150  151.4557 H   0  0  0  0  0  0  0  0  0  0  0  0
  143.4801  134.2726  150.1494 H   0  0  0  0  0  0  0  0  0  0  0  0
  1  2  1  0  0  0  0
  1 24  1  0  0  0  0
  1 25  1  0  0  0  0
  1 26  1  0  0  0  0
  2  3  1  0  0  0  0
  2 27  1  0  0  0  0
  2 28  1  0  0  0  0
  3 22  1  0  0  0  0
  3  4  1  0  0  0  0
  4  5  2  0  0  0  0
  4 29  1  0  0  0  0
  5  6  1  0  0  0  0
  5 20  1  0  0  0  0
  6  7  1  0  0  0  0
  6 30  1  0  0  0  0
  7  8  2  0  0  0  0
  7  9  1  0  0  0  0
  9 10  1  0  0  0  0
  9 31  1  0  0  0  0
 10 11  1  0  0  0  0
 10 32  1  0  0  0  0
 10 33  1  0  0  0  0
 11 19  1  0  0  0  0
 11 12  1  0  0  0  0
 11 15  1  0  0  0  0
 12 13  1  0  0  0  0
 12 14  2  0  0  0  0
 13 34  1  0  0  0  0
 13 35  1  0  0  0  0
 15 16  1  0  0  0  0
 15 36  1  0  0  0  0
 15 37  1  0  0  0  0
 16 17  1  0  0  0  0
 16 38  1  0  0  0  0
 16 39  1  0  0  0  0
 17 18  1  0  0  0  0
 18 19  1  0  0  0  0
 18 40  1  0  0  0  0
 18 41  1  0  0  0  0
 19 42  1  0  0  0  0
 19 43  1  0  0  0  0
 20 21  2  0  0  0  0
 20 44  1  0  0  0  0
 21 22  1  0  0  0  0
 21 45  1  0  0  0  0
 22 23  2  0  0  0  0
M  END
> <s_m_source_file>
AV-unprocessed.smi

> <i_m_source_file_index>
1094

> <i_lp_mmshare_version>
43012

> <i_f3d_flags>
0

> <s_epik_input>
W0NIM11bQ0gyXW4xW2NIXWMoW2NIXVtjSF1jMT1PKVtOSF1DKD1PKVtOSF1bQ0gyXUMyKEMoPU8pW05IMl0pW0NIMl1bQ0gyXU9bQ0gyXVtDSDJdMg==

> <s_epik_cmdline>
J2VwaWtfcHl0aG9uJywgJy1waCcsICc3LjAnLCAnLXRuJywgJzgnLCAnLW1hJywgJzIwMCcsICctbWV0YWxfYmluZGluZycsICctaW1hZScsICc8aW5maWxlLm1hZT4nLCAnLW9tYWUnLCAnPG91dGZpbGUubWFlPic=

> <r_lp_tautomer_probability>
1

> <r_epik_Ionization_Penalty>
2.3227e-05

> <r_epik_Ionization_Penalty_Charging>
4.44262e-06

> <r_epik_Ionization_Penalty_Neutral>
1.87844e-05

> <r_epik_State_Penalty>
-0

> <r_epik_Charging_Adjusted_Penalty>
4.44262e-06

> <i_epik_Tot_Q>
0

> <i_epik_Tot_abs_Q>
0

> <r_epik_Metal_State_Penalty>
-0

> <b_epik_Metal_Only>
0

> <s_lp_Force_Field>
OPLS_2005

> <r_lp_Energy>
26.2071

> <b_lp_Chiralities_Consistent>
1

> <s_lp_Variant>
AV-unprocessed.smi:1094-1

> <Gold.Version>
5.8.1

> <Gold.Id.Protein>
6NUR|6NUR_protein|mol2

> <Gold.PLP.Fitness>
44.5443

> <Gold.PLP.PLP>
-31.3078

> <Gold.PLP.part.hbond>
-5.0000

> <Gold.PLP.part.metal>
0.0000

> <Gold.PLP.part.buried>
-5.0457

> <Gold.PLP.part.nonpolar>
-22.9116

> <Gold.PLP.part.repulsive>
1.1172

> <Gold.PLP.ligand.clash>
0.0867

> <Gold.PLP.ligand.torsion>
0.7915

> <Gold.PLP.Chemscore.Hbond>
4.0691

> <Gold.PLP.Chemscore.CHOScore>
0.8809

> <Gold.PLP.Chemscore.Metal>
0.0000

> <Gold.Chemscore.Hbonds>
donor molecule, donor type, donor heavy atom, donor atom, acceptor molecule, acceptor atom, score
      L1  H     6    30       P1  7948  1.00
      L1  H     9    31       P1  7948  0.96
      P1  H  6896  6909       L1    14  0.18
      P1  H  7989  7998       L1    17  1.00
      P1  H 10785 10796       L1    23  0.94
      L1  C     4    29       P1 10747  0.06

> <Gold.PLP.Chemscore.Internal.Correction>
0.0561

> <Gold.Rescore>
     Score         DG    S(hbond)    S(metal)    S(lipo)     H(rot)  DE(clash)    DE(int)     intcor
     19.67     -21.79       4.14        0.00      67.51       2.11       0.34       1.78       ----

> <Gold.Chemscore.Fitness>
19.6680

> <Gold.Chemscore.DG>
-21.7926

> <Gold.Chemscore.ZeroCoef>
-5.4800

> <Gold.Chemscore.Hbond>
4.1394

> <Gold.Chemscore.Metal>
0.0000

> <Gold.Chemscore.Lipo>
67.5112

> <Gold.Chemscore.Internal_Hbond>
0.0000

> <Gold.Chemscore.DEClash>
0.3406

> <Gold.Chemscore.DEInternal>
1.7840

> <Gold.Chemscore.Rot>
2.1140

> <Gold.Chemscore.Internal.Correction>
   9.000000E+99

> <Gold.Chemscore.Hbonds>
donor molecule, donor type, donor heavy atom, donor atom, acceptor molecule, acceptor atom, score
      L1  H     6    30       P1  7948  0.91
      L1  H     9    31       P1  7948  0.92
      P1  H  6896  6909       L1    14  0.18
      P1  H  7989  7998       L1    17  0.25
      P1  H 10785 10796       L1    23  0.91

> <Gold.Chemscore.Hbond.Weighted>
-13.8256

> <Gold.Chemscore.Metal.Weighted>
-0.0000

> <Gold.Chemscore.Lipo.Weighted>
-7.8988

> <Gold.Chemscore.Internal_Hbond.Weighted>
0.0000

> <Gold.Chemscore.DEClash.Weighted>
0.3406

> <Gold.Chemscore.DEInternal.Weighted>
1.7840

> <Gold.Chemscore.Rot.Weighted>
5.4119

> <Gold.Chemscore.Internal.Correction.Weighted>
   9.000000E+99

> <Gold.Protein.RotatedTorsions>
[ 6907 6896 6895 6894 ] final   78.95 input  -60.11 | X-H torsion
[ 7974 7965 7964 7962 ] final   78.66 input  175.53 | X-H torsion
[ 8008 7997 7996 7995 ] final -127.95 input   59.86 | X-H torsion
[ 10167 10162 10161 10158 ] final  135.63 input  -65.29 | X-H torsion
[ 10718 10713 10712 10709 ] final  -76.90 input   66.30 | X-H torsion
[ 10763 10752 10751 10750 ] final   24.24 input  -60.55 | X-H torsion
[ 11005 11000 10999 10996 ] final -117.86 input  -57.11 | X-H torsion

> <Gold.Protein.ActiveResidues>
 VAL166  LYS551  ARG553  GLY616  TRP617  ASP618  TYR619  PRO620  LYS621  CYS622 
 ASP623  PHE694  ASN695  SER759  ASP760  ASP761  ALA762  ILE779  LEU786  VAL792 
 PHE793  MET794  SER795  GLU796  ALA797  LYS798  CYS799  TRP800  GLU811  SER814 

> <Gold.Protein.RotatedAtoms>
  152.5179  134.3586  159.9276 H   0  0  0  0  0  0  0  0  0  0  0  0  # atno 6907 bound_to 6896
  151.3538  133.3909  159.2690 H   0  0  0  0  0  0  0  0  0  0  0  0  # atno 6908 bound_to 6896
  150.9706  134.9098  159.7843 H   0  0  0  0  0  0  0  0  0  0  0  0  # atno 6909 bound_to 6896
  145.6742  139.2505  143.1851 H   0  0  0  0  0  0  0  0  0  0  0  0  # atno 7974 bound_to 7965
  155.2546  140.0433  157.2990 H   0  0  0  0  0  0  0  0  0  0  0  0  # atno 8008 bound_to 7997
  154.5748  140.2384  155.8108 H   0  0  0  0  0  0  0  0  0  0  0  0  # atno 8009 bound_to 7997
  156.2149  140.2987  155.9825 H   0  0  0  0  0  0  0  0  0  0  0  0  # atno 8010 bound_to 7997
  139.5210  144.6507  151.5310 H   0  0  0  0  0  0  0  0  0  0  0  0  # atno 10167 bound_to 10162
  156.0161  130.4477  150.3264 H   0  0  0  0  0  0  0  0  0  0  0  0  # atno 10718 bound_to 10713
  153.0779  135.6609  154.0108 H   0  0  0  0  0  0  0  0  0  0  0  0  # atno 10763 bound_to 10752
  153.9737  135.2962  155.3427 H   0  0  0  0  0  0  0  0  0  0  0  0  # atno 10764 bound_to 10752
  154.7171  135.5180  153.8825 H   0  0  0  0  0  0  0  0  0  0  0  0  # atno 10765 bound_to 10752
  141.0326  133.9959  157.3120 H   0  0  0  0  0  0  0  0  0  0  0  0  # atno 11005 bound_to 11000
  146.1019  140.7533  142.9545 LP  0  0  0  0  0  0  0  0  0  0  0  0  # atno 17320 bound_to 7965
  144.7047  140.3801  143.7128 LP  0  0  0  0  0  0  0  0  0  0  0  0  # atno 17321 bound_to 7965
  140.6311  143.9075  150.6606 LP  0  0  0  0  0  0  0  0  0  0  0  0  # atno 17342 bound_to 10162
  140.2379  143.3686  152.1511 LP  0  0  0  0  0  0  0  0  0  0  0  0  # atno 17343 bound_to 10162
  157.1363  131.0285  151.2947 LP  0  0  0  0  0  0  0  0  0  0  0  0  # atno 17370 bound_to 10713
  157.4509  130.7598  149.7150 LP  0  0  0  0  0  0  0  0  0  0  0  0  # atno 17371 bound_to 10713
  139.9218  135.0200  156.8092 LP  0  0  0  0  0  0  0  0  0  0  0  0  # atno 17394 bound_to 11000
  140.6380  133.9844  155.7694 LP  0  0  0  0  0  0  0  0  0  0  0  0  # atno 17395 bound_to 11000

$$$$
