AV-unprocessed.smi:3185|AV-procd|sdf|12169|dock7
  -GOLD-   2272018 03D 1   1.00000     0.00000
 Structure written by MMmdl.
 37 38  0  0  0  0  0  0  0  0  1 V2000
  151.9846  136.7161  154.7745 N   0  0  0  0  0  0  0  0  0  0  0  0
  151.9859  137.8203  155.1197 C   0  0  0  0  0  0  0  0  0  0  0  0
  151.9869  139.2237  155.5585 C   0  0  0  0  0  0  0  0  0  0  0  0
  150.5965  139.7079  155.9916 C   0  0  0  0  0  0  0  0  0  0  0  0
  150.6289  141.1063  156.6210 C   0  0  0  0  0  0  0  0  0  0  0  0
  151.7971  141.2267  157.4796 N   0  0  0  0  0  0  0  0  0  0  0  0
  151.5994  142.1833  158.5643 C   0  0  2  0  0  0  0  0  0  0  0  0
  150.9168  143.4577  158.0190 C   0  0  0  0  0  0  0  0  0  0  0  0
  150.7998  144.5442  159.0986 C   0  0  0  0  0  0  0  0  0  0  0  0
  152.1721  144.8804  159.6989 C   0  0  0  0  0  0  0  0  0  0  0  0
  152.8453  143.6223  160.2655 C   0  0  0  0  0  0  0  0  0  0  0  0
  152.9767  142.5192  159.1938 C   0  0  1  0  0  0  0  0  0  0  0  0
  153.6279  141.3357  159.7455 N   0  0  0  0  0  0  0  0  0  0  0  0
  154.0789  141.1366  161.0341 C   0  0  0  0  0  0  0  0  0  0  0  0
  154.6319  139.8894  161.0867 C   0  0  0  0  0  0  0  0  0  0  0  0
  154.4706  139.3925  159.7636 C   0  0  0  0  0  0  0  0  0  0  0  0
  153.8703  140.2584  158.9639 N   0  0  0  0  0  0  0  0  0  0  0  0
  152.6962  139.3166  156.3810 H   0  0  0  0  0  0  0  0  0  0  0  0
  152.3669  139.8277  154.7342 H   0  0  0  0  0  0  0  0  0  0  0  0
  149.9117  139.6915  155.1426 H   0  0  0  0  0  0  0  0  0  0  0  0
  150.1934  139.0042  156.7205 H   0  0  0  0  0  0  0  0  0  0  0  0
  150.6709  141.8620  155.8366 H   0  0  0  0  0  0  0  0  0  0  0  0
  149.7164  141.2779  157.1932 H   0  0  0  0  0  0  0  0  0  0  0  0
  152.6159  141.4683  156.9400 H   0  0  0  0  0  0  0  0  0  0  0  0
  150.9679  141.7363  159.3338 H   0  0  0  0  0  0  0  0  0  0  0  0
  151.4859  143.8515  157.1756 H   0  0  0  0  0  0  0  0  0  0  0  0
  149.9212  143.2278  157.6389 H   0  0  0  0  0  0  0  0  0  0  0  0
  150.3502  145.4426  158.6747 H   0  0  0  0  0  0  0  0  0  0  0  0
  150.1279  144.2047  159.8879 H   0  0  0  0  0  0  0  0  0  0  0  0
  152.8092  145.3260  158.9341 H   0  0  0  0  0  0  0  0  0  0  0  0
  152.0616  145.6282  160.4846 H   0  0  0  0  0  0  0  0  0  0  0  0
  153.8299  143.8793  160.6581 H   0  0  0  0  0  0  0  0  0  0  0  0
  152.2615  143.2569  161.1116 H   0  0  0  0  0  0  0  0  0  0  0  0
  153.6275  142.9044  158.4064 H   0  0  0  0  0  0  0  0  0  0  0  0
  153.9731  141.8928  161.7980 H   0  0  0  0  0  0  0  0  0  0  0  0
  155.0837  139.4061  161.9400 H   0  0  0  0  0  0  0  0  0  0  0  0
  154.7702  138.4354  159.3633 H   0  0  0  0  0  0  0  0  0  0  0  0
  1  2  3  0  0  0  0
  2  3  1  0  0  0  0
  3  4  1  0  0  0  0
  3 18  1  0  0  0  0
  3 19  1  0  0  0  0
  4  5  1  0  0  0  0
  4 20  1  0  0  0  0
  4 21  1  0  0  0  0
  5  6  1  0  0  0  0
  5 22  1  0  0  0  0
  5 23  1  0  0  0  0
  6  7  1  0  0  0  0
  6 24  1  0  0  0  0
  7 12  1  0  0  0  0
  7  8  1  0  0  0  0
  7 25  1  0  0  0  0
  8  9  1  0  0  0  0
  8 26  1  0  0  0  0
  8 27  1  0  0  0  0
  9 10  1  0  0  0  0
  9 28  1  0  0  0  0
  9 29  1  0  0  0  0
 10 11  1  0  0  0  0
 10 30  1  0  0  0  0
 10 31  1  0  0  0  0
 11 12  1  0  0  0  0
 11 32  1  0  0  0  0
 11 33  1  0  0  0  0
 12 13  1  0  0  0  0
 12 34  1  0  0  0  0
 13 17  1  0  0  0  0
 13 14  1  0  0  0  0
 14 15  2  0  0  0  0
 14 35  1  0  0  0  0
 15 16  1  0  0  0  0
 15 36  1  0  0  0  0
 16 17  2  0  0  0  0
 16 37  1  0  0  0  0
M  END
> <s_m_source_file>
AV-unprocessed.smi

> <i_m_source_file_index>
3185

> <i_lp_mmshare_version>
43012

> <i_f3d_flags>
0

> <s_epik_input>
TiNDW0NIMl1bQ0gyXVtDSDJdW05IXVtDQEBIXTFbQ0gyXVtDSDJdW0NIMl1bQ0gyXVtDQEhdMW4yW2NIXVtjSF1bY0hdbjI=

> <s_epik_cmdline>
J2VwaWtfcHl0aG9uJywgJy1waCcsICc3LjAnLCAnLXRuJywgJzgnLCAnLW1hJywgJzIwMCcsICctbWV0YWxfYmluZGluZycsICctaW1hZScsICc8aW5maWxlLm1hZT4nLCAnLW9tYWUnLCAnPG91dGZpbGUubWFlPic=

> <r_lp_tautomer_probability>
1

> <r_epik_Ionization_Penalty>
2.21326

> <r_epik_Ionization_Penalty_Charging>
0

> <r_epik_Ionization_Penalty_Neutral>
2.21326

> <r_epik_State_Penalty>
2.35651

> <r_epik_Charging_Adjusted_Penalty>
2.35651

> <i_epik_Tot_Q>
0

> <i_epik_Tot_abs_Q>
0

> <r_epik_Metal_State_Penalty>
2.3555

> <b_epik_Metal_Only>
0

> <s_lp_Force_Field>
OPLS_2005

> <r_lp_Energy>
16.739

> <b_lp_Chiralities_Consistent>
1

> <s_lp_Variant>
AV-unprocessed.smi:3185-5

> <Gold.Version>
5.8.1

> <Gold.Id.Protein>
6NUR|6NUR_protein|mol2

> <Gold.PLP.Fitness>
45.6591

> <Gold.PLP.PLP>
-40.5790

> <Gold.PLP.part.hbond>
-2.0000

> <Gold.PLP.part.metal>
0.0000

> <Gold.PLP.part.buried>
-3.1978

> <Gold.PLP.part.nonpolar>
-35.2527

> <Gold.PLP.part.repulsive>
0.1543

> <Gold.PLP.ligand.clash>
0.0000

> <Gold.PLP.ligand.torsion>
0.3983

> <Gold.PLP.Chemscore.Hbond>
1.9440

> <Gold.PLP.Chemscore.CHOScore>
0.0000

> <Gold.PLP.Chemscore.Metal>
0.0000

> <Gold.Chemscore.Hbonds>
donor molecule, donor type, donor heavy atom, donor atom, acceptor molecule, acceptor atom, score
      P1  H  7997  8009       L1    17  0.88
      P1  H 10752 10765       L1     1  0.82

> <Gold.PLP.Chemscore.Internal.Correction>
0.0446

> <Gold.Rescore>
     Score         DG    S(hbond)    S(metal)    S(lipo)     H(rot)  DE(clash)    DE(int)     intcor
     17.78     -19.63       1.81        0.00     108.91       1.81       0.14       1.72       ----

> <Gold.Chemscore.Fitness>
17.7760

> <Gold.Chemscore.DG>
-19.6326

> <Gold.Chemscore.ZeroCoef>
-5.4800

> <Gold.Chemscore.Hbond>
1.8103

> <Gold.Chemscore.Metal>
0.0000

> <Gold.Chemscore.Lipo>
108.9096

> <Gold.Chemscore.Internal_Hbond>
0.0000

> <Gold.Chemscore.DEClash>
0.1352

> <Gold.Chemscore.DEInternal>
1.7214

> <Gold.Chemscore.Rot>
1.8110

> <Gold.Chemscore.Internal.Correction>
   9.000000E+99

> <Gold.Chemscore.Hbonds>
donor molecule, donor type, donor heavy atom, donor atom, acceptor molecule, acceptor atom, score
      P1  H  7997  8009       L1    17  0.46
      P1  H 10752 10765       L1     1  0.78

> <Gold.Chemscore.Hbond.Weighted>
-6.0464

> <Gold.Chemscore.Metal.Weighted>
-0.0000

> <Gold.Chemscore.Lipo.Weighted>
-12.7424

> <Gold.Chemscore.Internal_Hbond.Weighted>
0.0000

> <Gold.Chemscore.DEClash.Weighted>
0.1352

> <Gold.Chemscore.DEInternal.Weighted>
1.7214

> <Gold.Chemscore.Rot.Weighted>
4.6362

> <Gold.Chemscore.Internal.Correction.Weighted>
   9.000000E+99

> <Gold.Protein.RotatedTorsions>
[ 6907 6896 6895 6894 ] final  -41.35 input  -60.11 | X-H torsion
[ 7974 7965 7964 7962 ] final  134.73 input  175.53 | X-H torsion
[ 8008 7997 7996 7995 ] final  142.45 input   59.86 | X-H torsion
[ 10167 10162 10161 10158 ] final   42.48 input  -65.29 | X-H torsion
[ 10718 10713 10712 10709 ] final  -33.05 input   66.30 | X-H torsion
[ 10763 10752 10751 10750 ] final  151.73 input  -60.55 | X-H torsion
[ 11005 11000 10999 10996 ] final -150.24 input  -57.11 | X-H torsion

> <Gold.Protein.ActiveResidues>
 VAL166  LYS551  ARG553  GLY616  TRP617  ASP618  TYR619  PRO620  LYS621  CYS622 
 ASP623  PHE694  ASN695  SER759  ASP760  ASP761  ALA762  ILE779  LEU786  VAL792 
 PHE793  MET794  SER795  GLU796  ALA797  LYS798  CYS799  TRP800  GLU811  SER814 

> <Gold.Protein.RotatedAtoms>
  150.9678  134.9056  159.7769 H   0  0  0  0  0  0  0  0  0  0  0  0  # atno 6907 bound_to 6896
  152.5179  134.3583  159.9286 H   0  0  0  0  0  0  0  0  0  0  0  0  # atno 6908 bound_to 6896
  151.3593  133.3855  159.2723 H   0  0  0  0  0  0  0  0  0  0  0  0  # atno 6909 bound_to 6896
  144.9734  139.4581  143.5421 H   0  0  0  0  0  0  0  0  0  0  0  0  # atno 7974 bound_to 7965
  156.2949  140.2288  156.4730 H   0  0  0  0  0  0  0  0  0  0  0  0  # atno 8008 bound_to 7997
  154.7918  140.0453  157.1228 H   0  0  0  0  0  0  0  0  0  0  0  0  # atno 8009 bound_to 7997
  154.9636  140.3057  155.5023 H   0  0  0  0  0  0  0  0  0  0  0  0  # atno 8010 bound_to 7997
  140.3540  144.2314  150.6143 H   0  0  0  0  0  0  0  0  0  0  0  0  # atno 10167 bound_to 10162
  156.3674  130.4334  149.7573 H   0  0  0  0  0  0  0  0  0  0  0  0  # atno 10718 bound_to 10713
  154.1085  135.2841  155.3236 H   0  0  0  0  0  0  0  0  0  0  0  0  # atno 10763 bound_to 10752
  154.6506  135.5370  153.7901 H   0  0  0  0  0  0  0  0  0  0  0  0  # atno 10764 bound_to 10752
  153.0354  135.6509  154.1245 H   0  0  0  0  0  0  0  0  0  0  0  0  # atno 10765 bound_to 10752
  140.7422  134.3501  157.5145 H   0  0  0  0  0  0  0  0  0  0  0  0  # atno 11005 bound_to 11000
  146.3388  139.8961  142.8801 LP  0  0  0  0  0  0  0  0  0  0  0  0  # atno 17320 bound_to 7965
  145.2525  141.0049  143.3873 LP  0  0  0  0  0  0  0  0  0  0  0  0  # atno 17321 bound_to 7965
  140.5192  143.2270  151.8415 LP  0  0  0  0  0  0  0  0  0  0  0  0  # atno 17342 bound_to 10162
  139.4822  144.4857  151.9249 LP  0  0  0  0  0  0  0  0  0  0  0  0  # atno 17343 bound_to 10162
  156.4714  130.7998  151.3016 LP  0  0  0  0  0  0  0  0  0  0  0  0  # atno 17370 bound_to 10713
  157.7480  131.0034  150.3039 LP  0  0  0  0  0  0  0  0  0  0  0  0  # atno 17371 bound_to 10713
  139.8804  134.9088  156.2977 LP  0  0  0  0  0  0  0  0  0  0  0  0  # atno 17394 bound_to 11000
  140.9826  133.7258  156.0694 LP  0  0  0  0  0  0  0  0  0  0  0  0  # atno 17395 bound_to 11000

$$$$
