AV-unprocessed.smi:2739|AV-procd|sdf|10552|dock5
  -GOLD-   2272015 03D 1   1.00000     0.00000
 Structure written by MMmdl.
 35 35  0  0  0  0  0  0  0  0  1 V2000
  151.8381  144.8528  160.5762 C   0  0  0  0  0  0  0  0  0  0  0  0
  151.8771  144.0921  159.2429 C   0  0  0  0  0  0  0  0  0  0  0  0
  152.1628  142.5844  159.3901 C   0  0  2  0  0  0  0  0  0  0  0  0
  153.5115  142.3291  160.0771 C   0  0  0  0  0  0  0  0  0  0  0  0
  152.1611  141.9260  158.0851 N   0  0  0  0  0  0  0  0  0  0  0  0
  151.5636  140.7606  157.7883 C   0  0  0  0  0  0  0  0  0  0  0  0
  150.9144  140.0987  158.5976 O   0  0  0  0  0  0  0  0  0  0  0  0
  151.7205  140.2656  156.3504 C   0  0  0  0  0  0  0  0  0  0  0  0
  150.5178  140.5182  155.5778 N   0  0  0  0  0  0  0  0  0  0  0  0
  149.8901  141.7218  155.3388 C   0  0  0  0  0  0  0  0  0  0  0  0
  148.7951  141.4617  154.5662 C   0  0  0  0  0  0  0  0  0  0  0  0
  148.8298  140.0501  154.3796 C   0  0  0  0  0  0  0  0  0  0  0  0
  147.8613  139.2012  153.5969 C   0  0  1  0  0  0  0  0  0  0  0  0
  146.8048  140.0582  152.8861 C   0  0  0  0  0  0  0  0  0  0  0  0
  148.5094  138.3957  152.6331 O   0  0  0  0  0  0  0  0  0  0  0  0
  149.8678  139.4915  154.9886 N   0  0  0  0  0  0  0  0  0  0  0  0
  151.6957  145.9203  160.4079 H   0  0  0  0  0  0  0  0  0  0  0  0
  152.7690  144.7247  161.1292 H   0  0  0  0  0  0  0  0  0  0  0  0
  151.0210  144.5096  161.2108 H   0  0  0  0  0  0  0  0  0  0  0  0
  150.9337  144.2404  158.7157 H   0  0  0  0  0  0  0  0  0  0  0  0
  152.6474  144.5400  158.6140 H   0  0  0  0  0  0  0  0  0  0  0  0
  151.3894  142.1534  160.0281 H   0  0  0  0  0  0  0  0  0  0  0  0
  153.5385  142.7809  161.0689 H   0  0  0  0  0  0  0  0  0  0  0  0
  154.3377  142.7452  159.4995 H   0  0  0  0  0  0  0  0  0  0  0  0
  153.6941  141.2607  160.1981 H   0  0  0  0  0  0  0  0  0  0  0  0
  152.6704  142.3895  157.3462 H   0  0  0  0  0  0  0  0  0  0  0  0
  152.5579  140.7735  155.8703 H   0  0  0  0  0  0  0  0  0  0  0  0
  151.9455  139.1977  156.3425 H   0  0  0  0  0  0  0  0  0  0  0  0
  150.2708  142.6517  155.7354 H   0  0  0  0  0  0  0  0  0  0  0  0
  148.0755  142.1737  154.1900 H   0  0  0  0  0  0  0  0  0  0  0  0
  147.3491  138.5235  154.2806 H   0  0  0  0  0  0  0  0  0  0  0  0
  146.2456  140.6615  153.6020 H   0  0  0  0  0  0  0  0  0  0  0  0
  146.0882  139.4357  152.3495 H   0  0  0  0  0  0  0  0  0  0  0  0
  147.2620  140.7368  152.1650 H   0  0  0  0  0  0  0  0  0  0  0  0
  148.8337  138.9567  151.9454 H   0  0  0  0  0  0  0  0  0  0  0  0
  1  2  1  0  0  0  0
  1 17  1  0  0  0  0
  1 18  1  0  0  0  0
  1 19  1  0  0  0  0
  2  3  1  0  0  0  0
  2 20  1  0  0  0  0
  2 21  1  0  0  0  0
  3  4  1  0  0  0  0
  3  5  1  0  0  0  0
  3 22  1  0  0  0  0
  4 23  1  0  0  0  0
  4 24  1  0  0  0  0
  4 25  1  0  0  0  0
  5  6  1  0  0  0  0
  5 26  1  0  0  0  0
  6  7  2  0  0  0  0
  6  8  1  0  0  0  0
  8  9  1  0  0  0  0
  8 27  1  0  0  0  0
  8 28  1  0  0  0  0
  9 16  1  0  0  0  0
  9 10  1  0  0  0  0
 10 11  2  0  0  0  0
 10 29  1  0  0  0  0
 11 12  1  0  0  0  0
 11 30  1  0  0  0  0
 12 13  1  0  0  0  0
 12 16  2  0  0  0  0
 13 14  1  0  0  0  0
 13 15  1  0  0  0  0
 13 31  1  0  0  0  0
 14 32  1  0  0  0  0
 14 33  1  0  0  0  0
 14 34  1  0  0  0  0
 15 35  1  0  0  0  0
M  END
> <s_m_source_file>
AV-unprocessed.smi

> <i_m_source_file_index>
2739

> <i_lp_mmshare_version>
43012

> <i_f3d_flags>
0

> <s_epik_input>
W0NIM11bQ0gyXVtDQEhdKFtDSDNdKVtOSF1DKD1PKVtDSDJdbjFbY0hdW2NIXWMobjEpW0NASF0oW0NIM10pW09IXQ==

> <s_epik_cmdline>
J2VwaWtfcHl0aG9uJywgJy1waCcsICc3LjAnLCAnLXRuJywgJzgnLCAnLW1hJywgJzIwMCcsICctbWV0YWxfYmluZGluZycsICctaW1hZScsICc8aW5maWxlLm1hZT4nLCAnLW9tYWUnLCAnPG91dGZpbGUubWFlPic=

> <r_lp_tautomer_probability>
1

> <r_epik_Ionization_Penalty>
5.22246e-06

> <r_epik_Ionization_Penalty_Charging>
0

> <r_epik_Ionization_Penalty_Neutral>
5.22246e-06

> <r_epik_State_Penalty>
-0

> <r_epik_Charging_Adjusted_Penalty>
0

> <i_epik_Tot_Q>
0

> <i_epik_Tot_abs_Q>
0

> <r_epik_Metal_State_Penalty>
-0

> <b_epik_Metal_Only>
0

> <s_lp_Force_Field>
OPLS_2005

> <r_lp_Energy>
1.64389

> <b_lp_Chiralities_Consistent>
1

> <s_lp_Variant>
AV-unprocessed.smi:2739-3

> <Gold.Version>
5.8.1

> <Gold.Id.Protein>
6NUR|6NUR_protein|mol2

> <Gold.PLP.Fitness>
38.5047

> <Gold.PLP.PLP>
-34.1737

> <Gold.PLP.part.hbond>
-1.1800

> <Gold.PLP.part.metal>
0.0000

> <Gold.PLP.part.buried>
-0.3177

> <Gold.PLP.part.nonpolar>
-32.4615

> <Gold.PLP.part.repulsive>
0.1520

> <Gold.PLP.ligand.clash>
0.0000

> <Gold.PLP.ligand.torsion>
0.5255

> <Gold.PLP.Chemscore.Hbond>
1.0000

> <Gold.PLP.Chemscore.CHOScore>
0.7830

> <Gold.PLP.Chemscore.Metal>
0.0000

> <Gold.Chemscore.Hbonds>
donor molecule, donor type, donor heavy atom, donor atom, acceptor molecule, acceptor atom, score
      L1  H    15    35       P1  7957  0.98
      L1  C    10    29       P1  8028  0.81

> <Gold.PLP.Chemscore.Internal.Correction>
0.0331

> <Gold.Rescore>
     Score         DG    S(hbond)    S(metal)    S(lipo)     H(rot)  DE(clash)    DE(int)     intcor
     12.45     -12.86       0.94        0.00      87.58       2.34       0.01       0.40       ----

> <Gold.Chemscore.Fitness>
12.4454

> <Gold.Chemscore.DG>
-12.8609

> <Gold.Chemscore.ZeroCoef>
-5.4800

> <Gold.Chemscore.Hbond>
0.9391

> <Gold.Chemscore.Metal>
0.0000

> <Gold.Chemscore.Lipo>
87.5807

> <Gold.Chemscore.Internal_Hbond>
0.0000

> <Gold.Chemscore.DEClash>
0.0133

> <Gold.Chemscore.DEInternal>
0.4022

> <Gold.Chemscore.Rot>
2.3448

> <Gold.Chemscore.Internal.Correction>
   9.000000E+99

> <Gold.Chemscore.Hbonds>
donor molecule, donor type, donor heavy atom, donor atom, acceptor molecule, acceptor atom, score
      L1  H    15    35       P1  7957  0.78

> <Gold.Chemscore.Hbond.Weighted>
-3.1367

> <Gold.Chemscore.Metal.Weighted>
-0.0000

> <Gold.Chemscore.Lipo.Weighted>
-10.2469

> <Gold.Chemscore.Internal_Hbond.Weighted>
0.0000

> <Gold.Chemscore.DEClash.Weighted>
0.0133

> <Gold.Chemscore.DEInternal.Weighted>
0.4022

> <Gold.Chemscore.Rot.Weighted>
6.0027

> <Gold.Chemscore.Internal.Correction.Weighted>
   9.000000E+99

> <Gold.Protein.RotatedTorsions>
[ 6907 6896 6895 6894 ] final  -44.92 input  -60.11 | X-H torsion
[ 7974 7965 7964 7962 ] final  169.03 input  175.53 | X-H torsion
[ 8008 7997 7996 7995 ] final  129.98 input   59.86 | X-H torsion
[ 10167 10162 10161 10158 ] final   97.49 input  -65.29 | X-H torsion
[ 10718 10713 10712 10709 ] final -137.35 input   66.30 | X-H torsion
[ 10763 10752 10751 10750 ] final  -69.59 input  -60.55 | X-H torsion
[ 11005 11000 10999 10996 ] final   22.40 input  -57.11 | X-H torsion

> <Gold.Protein.ActiveResidues>
 VAL166  LYS551  ARG553  GLY616  TRP617  ASP618  TYR619  PRO620  LYS621  CYS622 
 ASP623  PHE694  ASN695  SER759  ASP760  ASP761  ALA762  ILE779  LEU786  VAL792 
 PHE793  MET794  SER795  GLU796  ALA797  LYS798  CYS799  TRP800  GLU811  SER814 

> <Gold.Protein.RotatedAtoms>
  150.9275  134.8691  159.7529 H   0  0  0  0  0  0  0  0  0  0  0  0  # atno 6907 bound_to 6896
  152.5022  134.4127  159.9464 H   0  0  0  0  0  0  0  0  0  0  0  0  # atno 6908 bound_to 6896
  151.4156  133.3674  159.2784 H   0  0  0  0  0  0  0  0  0  0  0  0  # atno 6909 bound_to 6896
  144.7369  139.8994  143.6408 H   0  0  0  0  0  0  0  0  0  0  0  0  # atno 7974 bound_to 7965
  156.2946  140.2607  156.2688 H   0  0  0  0  0  0  0  0  0  0  0  0  # atno 8008 bound_to 7997
  154.9716  140.0391  157.2255 H   0  0  0  0  0  0  0  0  0  0  0  0  # atno 8009 bound_to 7997
  154.7853  140.2802  155.6037 H   0  0  0  0  0  0  0  0  0  0  0  0  # atno 8010 bound_to 7997
  139.7796  144.6893  151.0041 H   0  0  0  0  0  0  0  0  0  0  0  0  # atno 10167 bound_to 10162
  156.2871  130.7354  151.1368 H   0  0  0  0  0  0  0  0  0  0  0  0  # atno 10718 bound_to 10713
  154.4055  135.6021  153.5922 H   0  0  0  0  0  0  0  0  0  0  0  0  # atno 10763 bound_to 10752
  152.9789  135.5917  154.4133 H   0  0  0  0  0  0  0  0  0  0  0  0  # atno 10764 bound_to 10752
  154.3937  135.2842  155.2117 H   0  0  0  0  0  0  0  0  0  0  0  0  # atno 10765 bound_to 10752
  140.3810  134.1921  155.7663 H   0  0  0  0  0  0  0  0  0  0  0  0  # atno 11005 bound_to 11000
  146.1083  139.4085  143.0303 LP  0  0  0  0  0  0  0  0  0  0  0  0  # atno 17320 bound_to 7965
  145.7480  140.9983  143.1266 LP  0  0  0  0  0  0  0  0  0  0  0  0  # atno 17321 bound_to 7965
  140.7818  143.4498  151.0430 LP  0  0  0  0  0  0  0  0  0  0  0  0  # atno 17342 bound_to 10162
  139.8179  143.7861  152.3175 LP  0  0  0  0  0  0  0  0  0  0  0  0  # atno 17343 bound_to 10162
  157.7332  131.0593  150.5591 LP  0  0  0  0  0  0  0  0  0  0  0  0  # atno 17370 bound_to 10713
  156.5703  130.4278  149.6022 LP  0  0  0  0  0  0  0  0  0  0  0  0  # atno 17371 bound_to 10713
  141.1923  133.8175  157.0843 LP  0  0  0  0  0  0  0  0  0  0  0  0  # atno 17394 bound_to 11000
  140.0479  134.9821  157.1082 LP  0  0  0  0  0  0  0  0  0  0  0  0  # atno 17395 bound_to 11000

$$$$
