AV-unprocessed.smi:315|AV-procd|sdf|2316|dock1
  -GOLD-   2262022223D 1   1.00000     0.00000
 Structure written by MMmdl.
 47 49  0  0  0  0  0  0  0  0  2 V2000
  151.4893  137.4493  155.6744 C   0  0  0  0  0  0  0  0  0  0  0  0
  151.4937  138.2231  154.3538 C   0  0  0  0  0  0  0  0  0  0  0  0
  150.1915  138.1481  153.7838 O   0  0  0  0  0  0  0  0  0  0  0  0
  149.3204  139.2047  153.9706 C   0  0  0  0  0  0  0  0  0  0  0  0
  149.8067  140.3634  154.4809 N   0  0  0  0  0  0  0  0  0  0  0  0
  148.9526  141.3917  154.6628 C   0  0  0  0  0  0  0  0  0  0  0  0
  147.5813  141.3184  154.3553 C   0  0  0  0  0  0  0  0  0  0  0  0
  147.0748  140.1165  153.8263 C   0  0  0  0  0  0  0  0  0  0  0  0
  147.9621  139.0333  153.6171 C   0  0  0  0  0  0  0  0  0  0  0  0
  147.5705  137.7677  153.1032 N   0  0  0  0  0  0  0  0  0  0  0  0
  146.4260  137.0840  153.2925 C   0  0  0  0  0  0  0  0  0  0  0  0
  145.5148  137.4282  154.0410 O   0  0  0  0  0  0  0  0  0  0  0  0
  146.3414  135.9557  152.5649 N   0  0  0  0  0  0  0  0  0  0  0  0
  145.2417  134.9889  152.5336 C   0  0  2  0  0  0  0  0  0  0  0  0
  145.5422  133.7142  151.7255 C   0  0  0  0  0  0  0  0  0  0  0  0
  144.2315  133.3761  150.9880 C   0  0  0  0  0  0  0  0  0  0  0  0
  143.2224  134.3610  151.4403 N   0  3  1  0  0  0  0  0  0  0  0  0
  142.3540  133.8163  152.5200 C   0  0  0  0  0  0  0  0  0  0  0  0
  141.4687  134.8989  153.1505 C   0  0  0  0  0  0  0  0  0  0  0  0
  142.3357  136.0278  153.7133 C   0  0  0  0  0  0  0  0  0  0  0  0
  143.1947  136.6214  152.5915 C   0  0  0  0  0  0  0  0  0  0  0  0
  144.0105  135.5582  151.8217 C   0  0  1  0  0  0  0  0  0  0  0  0
  152.4723  137.4770  156.1451 H   0  0  0  0  0  0  0  0  0  0  0  0
  151.2239  136.4040  155.5145 H   0  0  0  0  0  0  0  0  0  0  0  0
  150.7704  137.8748  156.3748 H   0  0  0  0  0  0  0  0  0  0  0  0
  151.7694  139.2627  154.5377 H   0  0  0  0  0  0  0  0  0  0  0  0
  152.2328  137.7898  153.6782 H   0  0  0  0  0  0  0  0  0  0  0  0
  149.3740  142.2982  155.0711 H   0  0  0  0  0  0  0  0  0  0  0  0
  146.9316  142.1641  154.5253 H   0  0  0  0  0  0  0  0  0  0  0  0
  146.0211  140.0495  153.6064 H   0  0  0  0  0  0  0  0  0  0  0  0
  148.2038  137.3747  152.4227 H   0  0  0  0  0  0  0  0  0  0  0  0
  147.1271  135.7506  151.9643 H   0  0  0  0  0  0  0  0  0  0  0  0
  144.9682  134.7137  153.5536 H   0  0  0  0  0  0  0  0  0  0  0  0
  146.3420  133.8782  151.0015 H   0  0  0  0  0  0  0  0  0  0  0  0
  145.8565  132.9007  152.3803 H   0  0  0  0  0  0  0  0  0  0  0  0
  144.3737  133.5008  149.9139 H   0  0  0  0  0  0  0  0  0  0  0  0
  143.9142  132.3453  151.1533 H   0  0  0  0  0  0  0  0  0  0  0  0
  141.7298  133.0232  152.1068 H   0  0  0  0  0  0  0  0  0  0  0  0
  142.9685  133.3554  153.2952 H   0  0  0  0  0  0  0  0  0  0  0  0
  140.7745  135.2938  152.4075 H   0  0  0  0  0  0  0  0  0  0  0  0
  140.8607  134.4655  153.9454 H   0  0  0  0  0  0  0  0  0  0  0  0
  141.7068  136.8023  154.1529 H   0  0  0  0  0  0  0  0  0  0  0  0
  142.9700  135.6496  154.5157 H   0  0  0  0  0  0  0  0  0  0  0  0
  142.5367  137.1324  151.8872 H   0  0  0  0  0  0  0  0  0  0  0  0
  143.8574  137.3892  152.9921 H   0  0  0  0  0  0  0  0  0  0  0  0
  144.3480  136.0165  150.8895 H   0  0  0  0  0  0  0  0  0  0  0  0
  142.6203  134.6031  150.6663 H   0  0  0  0  0  0  0  0  0  0  0  0
  1  2  1  0  0  0  0
  1 23  1  0  0  0  0
  1 24  1  0  0  0  0
  1 25  1  0  0  0  0
  2  3  1  0  0  0  0
  2 26  1  0  0  0  0
  2 27  1  0  0  0  0
  3  4  1  0  0  0  0
  4  9  1  0  0  0  0
  4  5  2  0  0  0  0
  5  6  1  0  0  0  0
  6  7  2  0  0  0  0
  6 28  1  0  0  0  0
  7  8  1  0  0  0  0
  7 29  1  0  0  0  0
  8  9  2  0  0  0  0
  8 30  1  0  0  0  0
  9 10  1  0  0  0  0
 10 11  1  0  0  0  0
 10 31  1  0  0  0  0
 11 12  2  0  0  0  0
 11 13  1  0  0  0  0
 13 14  1  0  0  0  0
 13 32  1  0  0  0  0
 14 22  1  0  0  0  0
 14 15  1  0  0  0  0
 14 33  1  0  0  0  0
 15 16  1  0  0  0  0
 15 34  1  0  0  0  0
 15 35  1  0  0  0  0
 16 17  1  0  0  0  0
 16 36  1  0  0  0  0
 16 37  1  0  0  0  0
 17 22  1  0  0  0  0
 17 18  1  0  0  0  0
 17 47  1  0  0  0  0
 18 19  1  0  0  0  0
 18 38  1  0  0  0  0
 18 39  1  0  0  0  0
 19 20  1  0  0  0  0
 19 40  1  0  0  0  0
 19 41  1  0  0  0  0
 20 21  1  0  0  0  0
 20 42  1  0  0  0  0
 20 43  1  0  0  0  0
 21 22  1  0  0  0  0
 21 44  1  0  0  0  0
 21 45  1  0  0  0  0
 22 46  1  0  0  0  0
M  CHG  1  17   1
M  END
> <s_m_source_file>
AV-unprocessed.smi

> <i_m_source_file_index>
315

> <i_lp_mmshare_version>
43012

> <i_f3d_flags>
0

> <s_epik_input>
W0NIM11bQ0gyXU9jMW5bY0hdW2NIXVtjSF1jMVtOSF1DKD1PKVtOSF1bQ0BIXShbQ0gyXVtDSDJdMilbQ0BASF0oTjIzKVtDSDJdW0NIMl1bQ0gyXVtDSDJdMw==

> <s_epik_cmdline>
J2VwaWtfcHl0aG9uJywgJy1waCcsICc3LjAnLCAnLXRuJywgJzgnLCAnLW1hJywgJzIwMCcsICctbWV0YWxfYmluZGluZycsICctaW1hZScsICc8aW5maWxlLm1hZT4nLCAnLW9tYWUnLCAnPG91dGZpbGUubWFlPic=

> <r_lp_tautomer_probability>
1

> <r_epik_Ionization_Penalty>
0.00106455

> <r_epik_Ionization_Penalty_Charging>
0.000974069

> <r_epik_Ionization_Penalty_Neutral>
9.04821e-05

> <r_epik_State_Penalty>
0.000633842

> <r_epik_Charging_Adjusted_Penalty>
0.00160791

> <i_epik_Tot_Q>
1

> <i_epik_Tot_abs_Q>
1

> <r_epik_Metal_State_Penalty>
-0

> <b_epik_Metal_Only>
0

> <s_lp_Force_Field>
OPLS_2005

> <r_lp_Energy>
51.3526

> <b_lp_Chiralities_Consistent>
1

> <s_lp_Variant>
AV-unprocessed.smi:315-1

> <Gold.Version>
5.8.1

> <Gold.Id.Protein>
6NUR|6NUR_protein|mol2

> <Gold.PLP.Fitness>
47.8448

> <Gold.PLP.PLP>
-33.4388

> <Gold.PLP.part.hbond>
-3.7317

> <Gold.PLP.part.metal>
0.0000

> <Gold.PLP.part.buried>
-2.7877

> <Gold.PLP.part.nonpolar>
-29.3684

> <Gold.PLP.part.repulsive>
1.2302

> <Gold.PLP.ligand.clash>
0.0000

> <Gold.PLP.ligand.torsion>
0.7234

> <Gold.PLP.Chemscore.Hbond>
4.2670

> <Gold.PLP.Chemscore.CHOScore>
1.0000

> <Gold.PLP.Chemscore.Metal>
0.0000

> <Gold.Chemscore.Hbonds>
donor molecule, donor type, donor heavy atom, donor atom, acceptor molecule, acceptor atom, score
      L1  H    10    31       P1  7948  0.83
      L1  H    13    32       P1  7948  0.77
      L1  H    17    47       P1 10186  1.80
      P1  H  7989  7998       L1     5  0.67
      L1  C     6    28       P1  8028  1.00

> <Gold.PLP.Chemscore.Internal.Correction>
0.0519

> <Gold.Rescore>
     Score         DG    S(hbond)    S(metal)    S(lipo)     H(rot)  DE(clash)    DE(int)     intcor
     16.12     -19.07       2.47        0.00      75.77       1.38       0.70       2.25       ----

> <Gold.Chemscore.Fitness>
16.1183

> <Gold.Chemscore.DG>
-19.0710

> <Gold.Chemscore.ZeroCoef>
-5.4800

> <Gold.Chemscore.Hbond>
2.4704

> <Gold.Chemscore.Metal>
0.0000

> <Gold.Chemscore.Lipo>
75.7683

> <Gold.Chemscore.Internal_Hbond>
0.0000

> <Gold.Chemscore.DEClash>
0.7016

> <Gold.Chemscore.DEInternal>
2.2510

> <Gold.Chemscore.Rot>
1.3770

> <Gold.Chemscore.Internal.Correction>
   9.000000E+99

> <Gold.Chemscore.Hbonds>
donor molecule, donor type, donor heavy atom, donor atom, acceptor molecule, acceptor atom, score
      L1  H    10    31       P1  7948  0.80
      L1  H    13    32       P1  7948  0.78
      L1  H    17    47       P1 10186  0.17
      P1  H  7989  7998       L1     5  0.44

> <Gold.Chemscore.Hbond.Weighted>
-8.2513

> <Gold.Chemscore.Metal.Weighted>
-0.0000

> <Gold.Chemscore.Lipo.Weighted>
-8.8649

> <Gold.Chemscore.Internal_Hbond.Weighted>
0.0000

> <Gold.Chemscore.DEClash.Weighted>
0.7016

> <Gold.Chemscore.DEInternal.Weighted>
2.2510

> <Gold.Chemscore.Rot.Weighted>
3.5252

> <Gold.Chemscore.Internal.Correction.Weighted>
   9.000000E+99

> <Gold.Protein.RotatedTorsions>
[ 6907 6896 6895 6894 ] final -153.90 input  -60.11 | X-H torsion
[ 7974 7965 7964 7962 ] final -167.40 input  175.53 | X-H torsion
[ 8008 7997 7996 7995 ] final   51.09 input   59.86 | X-H torsion
[ 10167 10162 10161 10158 ] final  140.96 input  -65.29 | X-H torsion
[ 10718 10713 10712 10709 ] final  143.40 input   66.30 | X-H torsion
[ 10763 10752 10751 10750 ] final   72.22 input  -60.55 | X-H torsion
[ 11005 11000 10999 10996 ] final   59.90 input  -57.11 | X-H torsion

> <Gold.Protein.ActiveResidues>
 VAL166  LYS551  ARG553  GLY616  TRP617  ASP618  TYR619  PRO620  LYS621  CYS622 
 ASP623  PHE694  ASN695  SER759  ASP760  ASP761  ALA762  ILE779  LEU786  VAL792 
 PHE793  MET794  SER795  GLU796  ALA797  LYS798  CYS799  TRP800  GLU811  SER814 

> <Gold.Protein.RotatedAtoms>
  151.2494  133.4358  159.2610 H   0  0  0  0  0  0  0  0  0  0  0  0  # atno 6907 bound_to 6896
  151.0631  134.9750  159.8281 H   0  0  0  0  0  0  0  0  0  0  0  0  # atno 6908 bound_to 6896
  152.5401  134.2443  159.8927 H   0  0  0  0  0  0  0  0  0  0  0  0  # atno 6909 bound_to 6896
  144.7224  140.2524  143.6276 H   0  0  0  0  0  0  0  0  0  0  0  0  # atno 7974 bound_to 7965
  155.4296  140.3450  155.4279 H   0  0  0  0  0  0  0  0  0  0  0  0  # atno 8008 bound_to 7997
  156.1344  140.1523  156.9047 H   0  0  0  0  0  0  0  0  0  0  0  0  # atno 8009 bound_to 7997
  154.4920  140.0838  156.7596 H   0  0  0  0  0  0  0  0  0  0  0  0  # atno 8010 bound_to 7997
  139.5034  144.6202  151.6070 H   0  0  0  0  0  0  0  0  0  0  0  0  # atno 10167 bound_to 10162
  157.3694  131.0976  151.0842 H   0  0  0  0  0  0  0  0  0  0  0  0  # atno 10718 bound_to 10713
  153.0446  135.5108  154.7711 H   0  0  0  0  0  0  0  0  0  0  0  0  # atno 10763 bound_to 10752
  154.6622  135.2940  154.9854 H   0  0  0  0  0  0  0  0  0  0  0  0  # atno 10764 bound_to 10752
  154.0701  135.6679  153.4876 H   0  0  0  0  0  0  0  0  0  0  0  0  # atno 10765 bound_to 10752
  140.0270  134.6067  155.9559 H   0  0  0  0  0  0  0  0  0  0  0  0  # atno 11005 bound_to 11000
  145.8215  139.2046  143.1935 LP  0  0  0  0  0  0  0  0  0  0  0  0  # atno 17320 bound_to 7965
  146.0510  140.8069  142.9782 LP  0  0  0  0  0  0  0  0  0  0  0  0  # atno 17321 bound_to 7965
  140.5901  143.9794  150.6319 LP  0  0  0  0  0  0  0  0  0  0  0  0  # atno 17342 bound_to 10162
  140.2972  143.3285  152.1006 LP  0  0  0  0  0  0  0  0  0  0  0  0  # atno 17343 bound_to 10162
  157.1952  130.6370  149.5718 LP  0  0  0  0  0  0  0  0  0  0  0  0  # atno 17370 bound_to 10713
  155.9752  130.4709  150.6446 LP  0  0  0  0  0  0  0  0  0  0  0  0  # atno 17371 bound_to 10713
  141.1809  133.6546  156.5015 LP  0  0  0  0  0  0  0  0  0  0  0  0  # atno 17394 bound_to 11000
  140.4289  134.7120  157.4931 LP  0  0  0  0  0  0  0  0  0  0  0  0  # atno 17395 bound_to 11000

$$$$
