AV-unprocessed.smi:51|AV-procd|sdf|504|dock1
  -GOLD-   2262016373D 1   1.00000     0.00000
 Structure written by MMmdl.
 26 27  0  0  0  0  0  0  0  0  3 V2000
  152.6245  137.7893  158.6408 O   0  0  0  0  0  0  0  0  0  0  0  0
  152.8523  139.0073  158.4773 C   0  0  0  0  0  0  0  0  0  0  0  0
  153.0461  139.5689  157.3760 O   0  5  0  0  0  0  0  0  0  0  0  0
  152.8734  139.8814  159.7398 C   0  0  1  0  0  0  0  0  0  0  0  0
  153.8781  139.3669  160.7851 C   0  0  0  0  0  0  0  0  0  0  0  0
  154.3226  140.6445  161.4966 C   0  0  1  0  0  0  0  0  0  0  0  0
  155.5823  140.5140  162.1206 O   0  0  0  0  0  0  0  0  0  0  0  0
  154.3297  141.6921  160.3816 C   0  0  0  0  0  0  0  0  0  0  0  0
  153.2935  141.2542  159.4581 N   0  0  0  0  0  0  0  0  0  0  0  0
  152.5019  142.1788  158.7488 C   0  0  0  0  0  0  0  0  0  0  0  0
  152.7933  143.5588  158.7725 C   0  0  0  0  0  0  0  0  0  0  0  0
  151.9553  144.4067  158.0250 C   0  0  0  0  0  0  0  0  0  0  0  0
  150.9151  143.8976  157.3221 N   0  3  0  0  0  0  0  0  0  0  0  0
  150.6898  142.5761  157.3419 C   0  0  0  0  0  0  0  0  0  0  0  0
  151.4491  141.7201  158.0340 N   0  0  0  0  0  0  0  0  0  0  0  0
  151.8771  139.9095  160.1838 H   0  0  0  0  0  0  0  0  0  0  0  0
  153.4370  138.6396  161.4674 H   0  0  0  0  0  0  0  0  0  0  0  0
  154.7373  138.8941  160.3048 H   0  0  0  0  0  0  0  0  0  0  0  0
  153.5775  140.9155  162.2462 H   0  0  0  0  0  0  0  0  0  0  0  0
  155.6655  141.1937  162.7717 H   0  0  0  0  0  0  0  0  0  0  0  0
  154.1507  142.6900  160.7840 H   0  0  0  0  0  0  0  0  0  0  0  0
  155.2822  141.7008  159.8496 H   0  0  0  0  0  0  0  0  0  0  0  0
  153.6317  143.9581  159.3240 H   0  0  0  0  0  0  0  0  0  0  0  0
  152.0860  145.4772  157.9637 H   0  0  0  0  0  0  0  0  0  0  0  0
  149.8506  142.2157  156.7655 H   0  0  0  0  0  0  0  0  0  0  0  0
  150.3153  144.5208  156.7814 H   0  0  0  0  0  0  0  0  0  0  0  0
  1  2  2  0  0  0  0
  2  3  1  0  0  0  0
  2  4  1  0  0  0  0
  4  9  1  0  0  0  0
  4  5  1  0  0  0  0
  4 16  1  0  0  0  0
  5  6  1  0  0  0  0
  5 17  1  0  0  0  0
  5 18  1  0  0  0  0
  6  7  1  0  0  0  0
  6  8  1  0  0  0  0
  6 19  1  0  0  0  0
  7 20  1  0  0  0  0
  8  9  1  0  0  0  0
  8 21  1  0  0  0  0
  8 22  1  0  0  0  0
  9 10  1  0  0  0  0
 10 15  1  0  0  0  0
 10 11  2  0  0  0  0
 11 12  1  0  0  0  0
 11 23  1  0  0  0  0
 12 13  2  0  0  0  0
 12 24  1  0  0  0  0
 13 14  1  0  0  0  0
 13 26  1  0  0  0  0
 14 15  2  0  0  0  0
 14 25  1  0  0  0  0
M  CHG  1   3  -1
M  CHG  1  13   1
M  END
> <s_m_source_file>
AV-unprocessed.smi

> <i_m_source_file_index>
51

> <i_lp_mmshare_version>
43012

> <i_f3d_flags>
0

> <s_epik_input>
Tz1DKFtPSF0pW0NAQEhdMVtDSDJdW0NAQEhdKFtPSF0pW0NIMl1OMWMyW2NIXVtjSF1uW2NIXW4y

> <s_epik_cmdline>
J2VwaWtfcHl0aG9uJywgJy1waCcsICc3LjAnLCAnLXRuJywgJzgnLCAnLW1hJywgJzIwMCcsICctbWV0YWxfYmluZGluZycsICctaW1hZScsICc8aW5maWxlLm1hZT4nLCAnLW9tYWUnLCAnPG91dGZpbGUubWFlPic=

> <r_lp_tautomer_probability>
0.999336

> <r_epik_Ionization_Penalty>
0.688427

> <r_epik_Ionization_Penalty_Charging>
0.688427

> <r_epik_Ionization_Penalty_Neutral>
1.98379e-07

> <r_epik_State_Penalty>
0.709817

> <r_epik_Charging_Adjusted_Penalty>
1.39824

> <i_epik_Tot_Q>
0

> <i_epik_Tot_abs_Q>
2

> <r_epik_Metal_State_Penalty>
0.873261

> <b_epik_Metal_Only>
0

> <s_lp_Force_Field>
OPLS_2005

> <r_lp_Energy>
15.7

> <b_lp_Chiralities_Consistent>
1

> <s_lp_Variant>
AV-unprocessed.smi:51-6

> <Gold.Version>
5.8.1

> <Gold.Id.Protein>
6NUR|6NUR_protein|mol2

> <Gold.PLP.Fitness>
43.3960

> <Gold.PLP.PLP>
-31.4238

> <Gold.PLP.part.hbond>
-2.9811

> <Gold.PLP.part.metal>
0.0000

> <Gold.PLP.part.buried>
-3.2629

> <Gold.PLP.part.nonpolar>
-24.6256

> <Gold.PLP.part.repulsive>
0.0302

> <Gold.PLP.ligand.clash>
0.0000

> <Gold.PLP.ligand.torsion>
0.1336

> <Gold.PLP.Chemscore.Hbond>
4.0000

> <Gold.PLP.Chemscore.CHOScore>
0.0364

> <Gold.PLP.Chemscore.Metal>
0.0000

> <Gold.Chemscore.Hbonds>
donor molecule, donor type, donor heavy atom, donor atom, acceptor molecule, acceptor atom, score
      L1  H    13    26       P1  8028  2.00
      P1  H  7997  8010       L1     3  2.00
      L1  C    14    25       P1  8028  0.03

> <Gold.PLP.Chemscore.Internal.Correction>
0.1304

> <Gold.Rescore>
     Score         DG    S(hbond)    S(metal)    S(lipo)     H(rot)  DE(clash)    DE(int)     intcor
     12.29     -14.51       1.98        0.00      57.91       1.70       0.04       2.17       ----

> <Gold.Chemscore.Fitness>
12.2946

> <Gold.Chemscore.DG>
-14.5053

> <Gold.Chemscore.ZeroCoef>
-5.4800

> <Gold.Chemscore.Hbond>
1.9780

> <Gold.Chemscore.Metal>
0.0000

> <Gold.Chemscore.Lipo>
57.9139

> <Gold.Chemscore.Internal_Hbond>
0.0000

> <Gold.Chemscore.DEClash>
0.0440

> <Gold.Chemscore.DEInternal>
2.1666

> <Gold.Chemscore.Rot>
1.7020

> <Gold.Chemscore.Internal.Correction>
   9.000000E+99

> <Gold.Chemscore.Hbonds>
donor molecule, donor type, donor heavy atom, donor atom, acceptor molecule, acceptor atom, score
      L1  H    13    26       P1  8028  0.83
      P1  H  7997  8010       L1     3  0.97

> <Gold.Chemscore.Hbond.Weighted>
-6.6065

> <Gold.Chemscore.Metal.Weighted>
-0.0000

> <Gold.Chemscore.Lipo.Weighted>
-6.7759

> <Gold.Chemscore.Internal_Hbond.Weighted>
0.0000

> <Gold.Chemscore.DEClash.Weighted>
0.0440

> <Gold.Chemscore.DEInternal.Weighted>
2.1666

> <Gold.Chemscore.Rot.Weighted>
4.3571

> <Gold.Chemscore.Internal.Correction.Weighted>
   9.000000E+99

> <Gold.Protein.RotatedTorsions>
[ 6907 6896 6895 6894 ] final  166.77 input  -60.11 | X-H torsion
[ 7974 7965 7964 7962 ] final  138.79 input  175.53 | X-H torsion
[ 8008 7997 7996 7995 ] final   67.73 input   59.86 | X-H torsion
[ 10167 10162 10161 10158 ] final  127.30 input  -65.29 | X-H torsion
[ 10718 10713 10712 10709 ] final  -56.55 input   66.30 | X-H torsion
[ 10763 10752 10751 10750 ] final -157.73 input  -60.55 | X-H torsion
[ 11005 11000 10999 10996 ] final  108.87 input  -57.11 | X-H torsion

> <Gold.Protein.ActiveResidues>
 VAL166  LYS551  ARG553  GLY616  TRP617  ASP618  TYR619  PRO620  LYS621  CYS622 
 ASP623  PHE694  ASN695  SER759  ASP760  ASP761  ALA762  ILE779  LEU786  VAL792 
 PHE793  MET794  SER795  GLU796  ALA797  LYS798  CYS799  TRP800  GLU811  SER814 

> <Gold.Protein.RotatedAtoms>
  151.8737  133.3481  159.3742 H   0  0  0  0  0  0  0  0  0  0  0  0  # atno 6907 bound_to 6896
  150.7146  134.5087  159.5606 H   0  0  0  0  0  0  0  0  0  0  0  0  # atno 6908 bound_to 6896
  152.2625  134.8019  160.0479 H   0  0  0  0  0  0  0  0  0  0  0  0  # atno 6909 bound_to 6896
  144.9340  139.5012  143.5604 H   0  0  0  0  0  0  0  0  0  0  0  0  # atno 7974 bound_to 7965
  155.6974  140.3495  155.4919 H   0  0  0  0  0  0  0  0  0  0  0  0  # atno 8008 bound_to 7997
  155.9470  140.1112  157.1030 H   0  0  0  0  0  0  0  0  0  0  0  0  # atno 8009 bound_to 7997
  154.4114  140.1201  156.4989 H   0  0  0  0  0  0  0  0  0  0  0  0  # atno 8010 bound_to 7997
  139.5585  144.6866  151.4111 H   0  0  0  0  0  0  0  0  0  0  0  0  # atno 10167 bound_to 10162
  156.1280  130.4161  150.0320 H   0  0  0  0  0  0  0  0  0  0  0  0  # atno 10718 bound_to 10713
  154.7613  135.3118  154.8372 H   0  0  0  0  0  0  0  0  0  0  0  0  # atno 10763 bound_to 10752
  153.9132  135.6803  153.4754 H   0  0  0  0  0  0  0  0  0  0  0  0  # atno 10764 bound_to 10752
  153.1214  135.4821  154.9133 H   0  0  0  0  0  0  0  0  0  0  0  0  # atno 10765 bound_to 10752
  139.8852  134.9443  156.6039 H   0  0  0  0  0  0  0  0  0  0  0  0  # atno 11005 bound_to 11000
  146.3259  139.8310  142.8908 LP  0  0  0  0  0  0  0  0  0  0  0  0  # atno 17320 bound_to 7965
  145.3097  141.0216  143.3561 LP  0  0  0  0  0  0  0  0  0  0  0  0  # atno 17321 bound_to 7965
  140.6862  143.7969  150.7189 LP  0  0  0  0  0  0  0  0  0  0  0  0  # atno 17342 bound_to 10162
  140.1437  143.4418  152.2177 LP  0  0  0  0  0  0  0  0  0  0  0  0  # atno 17343 bound_to 10162
  156.8240  130.9369  151.3640 LP  0  0  0  0  0  0  0  0  0  0  0  0  # atno 17370 bound_to 10713
  157.6460  130.8845  149.9539 LP  0  0  0  0  0  0  0  0  0  0  0  0  # atno 17371 bound_to 10713
  140.7863  133.8619  155.8609 LP  0  0  0  0  0  0  0  0  0  0  0  0  # atno 17394 bound_to 11000
  140.9717  134.1523  157.4571 LP  0  0  0  0  0  0  0  0  0  0  0  0  # atno 17395 bound_to 11000

$$$$
