AV-unprocessed.smi:2763|AV-procd|sdf|10638|dock5
  -GOLD-   2272015 83D 1   1.00000     0.00000
 Structure written by MMmdl.
 37 38  0  0  0  0  0  0  0  0  1 V2000
  144.9499  137.6322  153.1544 O   0  0  0  0  0  0  0  0  0  0  0  0
  146.0822  137.4724  152.6972 C   0  0  0  0  0  0  0  0  0  0  0  0
  147.0748  138.3601  152.8538 N   0  0  0  0  0  0  0  0  0  0  0  0
  146.9649  139.6210  153.5776 C   0  0  0  0  0  0  0  0  0  0  0  0
  148.3054  140.3748  153.6054 C   0  0  0  0  0  0  0  0  0  0  0  0
  149.2423  139.8809  154.7191 C   0  0  2  0  0  0  0  0  0  0  0  0
  149.3670  140.9046  155.8645 C   0  0  0  0  0  0  0  0  0  0  0  0
  150.3653  140.4139  156.9195 C   0  0  0  0  0  0  0  0  0  0  0  0
  151.6955  140.0591  156.2466 C   0  0  0  0  0  0  0  0  0  0  0  0
  151.4599  139.0861  155.0806 C   0  0  0  0  0  0  0  0  0  0  0  0
  150.5339  139.6513  154.1578 O   0  0  0  0  0  0  0  0  0  0  0  0
  146.4904  136.4091  151.9823 N   0  0  0  0  0  0  0  0  0  0  0  0
  145.7489  135.2509  151.6274 C   0  0  0  0  0  0  0  0  0  0  0  0
  146.5280  134.1476  151.2106 C   0  0  0  0  0  0  0  0  0  0  0  0
  145.8892  132.9483  150.8399 C   0  0  0  0  0  0  0  0  0  0  0  0
  144.4857  132.8850  150.8971 C   0  0  0  0  0  0  0  0  0  0  0  0
  143.8273  131.7534  150.5513 F   0  0  0  0  0  0  0  0  0  0  0  0
  143.7837  134.0275  151.3233 C   0  0  0  0  0  0  0  0  0  0  0  0
  144.3949  135.1777  151.6787 N   0  0  0  0  0  0  0  0  0  0  0  0
  147.9727  138.1494  152.4436 H   0  0  0  0  0  0  0  0  0  0  0  0
  146.1844  140.2428  153.1357 H   0  0  0  0  0  0  0  0  0  0  0  0
  146.6415  139.3950  154.5939 H   0  0  0  0  0  0  0  0  0  0  0  0
  148.8031  140.2803  152.6393 H   0  0  0  0  0  0  0  0  0  0  0  0
  148.1143  141.4392  153.7490 H   0  0  0  0  0  0  0  0  0  0  0  0
  148.8509  138.9420  155.1153 H   0  0  0  0  0  0  0  0  0  0  0  0
  149.6992  141.8646  155.4669 H   0  0  0  0  0  0  0  0  0  0  0  0
  148.3944  141.0772  156.3262 H   0  0  0  0  0  0  0  0  0  0  0  0
  150.5154  141.1749  157.6857 H   0  0  0  0  0  0  0  0  0  0  0  0
  149.9628  139.5348  157.4244 H   0  0  0  0  0  0  0  0  0  0  0  0
  152.1707  140.9668  155.8723 H   0  0  0  0  0  0  0  0  0  0  0  0
  152.3820  139.6216  156.9719 H   0  0  0  0  0  0  0  0  0  0  0  0
  152.3980  138.8881  154.5616 H   0  0  0  0  0  0  0  0  0  0  0  0
  151.0886  138.1259  155.4423 H   0  0  0  0  0  0  0  0  0  0  0  0
  147.4471  136.4263  151.6615 H   0  0  0  0  0  0  0  0  0  0  0  0
  147.6058  134.2148  151.1737 H   0  0  0  0  0  0  0  0  0  0  0  0
  146.4664  132.0939  150.5183 H   0  0  0  0  0  0  0  0  0  0  0  0
  142.7052  134.0195  151.3813 H   0  0  0  0  0  0  0  0  0  0  0  0
  1  2  2  0  0  0  0
  2  3  1  0  0  0  0
  2 12  1  0  0  0  0
  3  4  1  0  0  0  0
  3 20  1  0  0  0  0
  4  5  1  0  0  0  0
  4 21  1  0  0  0  0
  4 22  1  0  0  0  0
  5  6  1  0  0  0  0
  5 23  1  0  0  0  0
  5 24  1  0  0  0  0
  6 11  1  0  0  0  0
  6  7  1  0  0  0  0
  6 25  1  0  0  0  0
  7  8  1  0  0  0  0
  7 26  1  0  0  0  0
  7 27  1  0  0  0  0
  8  9  1  0  0  0  0
  8 28  1  0  0  0  0
  8 29  1  0  0  0  0
  9 10  1  0  0  0  0
  9 30  1  0  0  0  0
  9 31  1  0  0  0  0
 10 11  1  0  0  0  0
 10 32  1  0  0  0  0
 10 33  1  0  0  0  0
 12 13  1  0  0  0  0
 12 34  1  0  0  0  0
 13 19  1  0  0  0  0
 13 14  2  0  0  0  0
 14 15  1  0  0  0  0
 14 35  1  0  0  0  0
 15 16  2  0  0  0  0
 15 36  1  0  0  0  0
 16 17  1  0  0  0  0
 16 18  1  0  0  0  0
 18 19  2  0  0  0  0
 18 37  1  0  0  0  0
M  END
> <s_m_source_file>
AV-unprocessed.smi

> <i_m_source_file_index>
2763

> <i_lp_mmshare_version>
43012

> <i_f3d_flags>
0

> <s_epik_input>
bjFbY0hdYyhGKVtjSF1bY0hdYzFbTkhdQyg9TylbTkhdW0NIMl1bQ0gyXVtDQEBIXTJbQ0gyXVtDSDJdW0NIMl1bQ0gyXU8y

> <s_epik_cmdline>
J2VwaWtfcHl0aG9uJywgJy1waCcsICc3LjAnLCAnLXRuJywgJzgnLCAnLW1hJywgJzIwMCcsICctbWV0YWxfYmluZGluZycsICctaW1hZScsICc8aW5maWxlLm1hZT4nLCAnLW9tYWUnLCAnPG91dGZpbGUubWFlPic=

> <r_lp_tautomer_probability>
1

> <r_epik_Ionization_Penalty>
3.67849e-05

> <r_epik_Ionization_Penalty_Charging>
0

> <r_epik_Ionization_Penalty_Neutral>
3.67849e-05

> <r_epik_State_Penalty>
-0

> <r_epik_Charging_Adjusted_Penalty>
0

> <i_epik_Tot_Q>
0

> <i_epik_Tot_abs_Q>
0

> <r_epik_Metal_State_Penalty>
-0

> <b_epik_Metal_Only>
0

> <s_lp_Force_Field>
OPLS_2005

> <r_lp_Energy>
12.1233

> <b_lp_Chiralities_Consistent>
1

> <s_lp_Variant>
AV-unprocessed.smi:2763-1

> <Gold.Version>
5.8.1

> <Gold.Id.Protein>
6NUR|6NUR_protein|mol2

> <Gold.PLP.Fitness>
40.4692

> <Gold.PLP.PLP>
-32.4839

> <Gold.PLP.part.hbond>
-2.7135

> <Gold.PLP.part.metal>
0.0000

> <Gold.PLP.part.buried>
-2.0164

> <Gold.PLP.part.nonpolar>
-28.3238

> <Gold.PLP.part.repulsive>
0.7301

> <Gold.PLP.ligand.clash>
0.0000

> <Gold.PLP.ligand.torsion>
0.8685

> <Gold.PLP.Chemscore.Hbond>
2.2793

> <Gold.PLP.Chemscore.CHOScore>
0.9595

> <Gold.PLP.Chemscore.Metal>
0.0000

> <Gold.Chemscore.Hbonds>
donor molecule, donor type, donor heavy atom, donor atom, acceptor molecule, acceptor atom, score
      L1  H     3    20       P1  7948  0.37
      L1  H    12    34       P1  7948  0.93
      P1  H  7989  7998       L1    11  0.85
      L1  C    18    37       P1 10186  0.99

> <Gold.PLP.Chemscore.Internal.Correction>
0.0059

> <Gold.Rescore>
     Score         DG    S(hbond)    S(metal)    S(lipo)     H(rot)  DE(clash)    DE(int)     intcor
     15.36     -17.64       2.69        0.00      60.81       1.54       0.61       1.67       ----

> <Gold.Chemscore.Fitness>
15.3604

> <Gold.Chemscore.DG>
-17.6436

> <Gold.Chemscore.ZeroCoef>
-5.4800

> <Gold.Chemscore.Hbond>
2.6907

> <Gold.Chemscore.Metal>
0.0000

> <Gold.Chemscore.Lipo>
60.8103

> <Gold.Chemscore.Internal_Hbond>
0.0000

> <Gold.Chemscore.DEClash>
0.6107

> <Gold.Chemscore.DEInternal>
1.6725

> <Gold.Chemscore.Rot>
1.5384

> <Gold.Chemscore.Internal.Correction>
   9.000000E+99

> <Gold.Chemscore.Hbonds>
donor molecule, donor type, donor heavy atom, donor atom, acceptor molecule, acceptor atom, score
      L1  H     3    20       P1  7948  0.38
      L1  H    12    34       P1  7948  0.87
      P1  H  7989  7998       L1    11  0.15

> <Gold.Chemscore.Hbond.Weighted>
-8.9870

> <Gold.Chemscore.Metal.Weighted>
-0.0000

> <Gold.Chemscore.Lipo.Weighted>
-7.1148

> <Gold.Chemscore.Internal_Hbond.Weighted>
0.0000

> <Gold.Chemscore.DEClash.Weighted>
0.6107

> <Gold.Chemscore.DEInternal.Weighted>
1.6725

> <Gold.Chemscore.Rot.Weighted>
3.9382

> <Gold.Chemscore.Internal.Correction.Weighted>
   9.000000E+99

> <Gold.Protein.RotatedTorsions>
[ 6907 6896 6895 6894 ] final   32.41 input  -60.11 | X-H torsion
[ 7974 7965 7964 7962 ] final   78.24 input  175.53 | X-H torsion
[ 8008 7997 7996 7995 ] final  -84.46 input   59.86 | X-H torsion
[ 10167 10162 10161 10158 ] final -142.05 input  -65.29 | X-H torsion
[ 10718 10713 10712 10709 ] final -125.85 input   66.30 | X-H torsion
[ 10763 10752 10751 10750 ] final -145.92 input  -60.55 | X-H torsion
[ 11005 11000 10999 10996 ] final   98.81 input  -57.11 | X-H torsion

> <Gold.Protein.ActiveResidues>
 VAL166  LYS551  ARG553  GLY616  TRP617  ASP618  TYR619  PRO620  LYS621  CYS622 
 ASP623  PHE694  ASN695  SER759  ASP760  ASP761  ALA762  ILE779  LEU786  VAL792 
 PHE793  MET794  SER795  GLU796  ALA797  LYS798  CYS799  TRP800  GLU811  SER814 

> <Gold.Protein.RotatedAtoms>
  152.0741  134.9514  160.0574 H   0  0  0  0  0  0  0  0  0  0  0  0  # atno 6907 bound_to 6896
  152.0829  133.4157  159.4517 H   0  0  0  0  0  0  0  0  0  0  0  0  # atno 6908 bound_to 6896
  150.6836  134.2881  159.4699 H   0  0  0  0  0  0  0  0  0  0  0  0  # atno 6909 bound_to 6896
  145.6797  139.2520  143.1821 H   0  0  0  0  0  0  0  0  0  0  0  0  # atno 7974 bound_to 7965
  154.6300  140.0605  156.9721 H   0  0  0  0  0  0  0  0  0  0  0  0  # atno 8008 bound_to 7997
  155.1680  140.3288  155.4380 H   0  0  0  0  0  0  0  0  0  0  0  0  # atno 8009 bound_to 7997
  156.2478  140.1919  156.6784 H   0  0  0  0  0  0  0  0  0  0  0  0  # atno 8010 bound_to 7997
  139.8125  143.7683  152.2664 H   0  0  0  0  0  0  0  0  0  0  0  0  # atno 10167 bound_to 10162
  156.1712  130.6669  151.0183 H   0  0  0  0  0  0  0  0  0  0  0  0  # atno 10718 bound_to 10713
  154.8360  135.3400  154.6581 H   0  0  0  0  0  0  0  0  0  0  0  0  # atno 10763 bound_to 10752
  153.7195  135.6959  153.5021 H   0  0  0  0  0  0  0  0  0  0  0  0  # atno 10764 bound_to 10752
  153.2392  135.4390  155.0632 H   0  0  0  0  0  0  0  0  0  0  0  0  # atno 10765 bound_to 10752
  139.8771  134.9066  156.4511 H   0  0  0  0  0  0  0  0  0  0  0  0  # atno 11005 bound_to 11000
  146.0975  140.7584  142.9565 LP  0  0  0  0  0  0  0  0  0  0  0  0  # atno 17320 bound_to 7965
  144.7030  140.3734  143.7141 LP  0  0  0  0  0  0  0  0  0  0  0  0  # atno 17321 bound_to 7965
  139.7836  144.7435  151.0053 LP  0  0  0  0  0  0  0  0  0  0  0  0  # atno 17342 bound_to 10162
  140.7817  143.4516  151.0405 LP  0  0  0  0  0  0  0  0  0  0  0  0  # atno 17343 bound_to 10162
  157.6804  131.0839  150.7384 LP  0  0  0  0  0  0  0  0  0  0  0  0  # atno 17370 bound_to 10713
  156.7443  130.4749  149.5470 LP  0  0  0  0  0  0  0  0  0  0  0  0  # atno 17371 bound_to 10713
  140.8931  133.7834  155.9594 LP  0  0  0  0  0  0  0  0  0  0  0  0  # atno 17394 bound_to 11000
  140.8732  134.2701  157.5180 LP  0  0  0  0  0  0  0  0  0  0  0  0  # atno 17395 bound_to 11000

$$$$
