AV-unprocessed.smi:262|AV-procd|sdf|2000|dock1
  -GOLD-   2262021193D 1   1.00000     0.00000
 Structure written by MMmdl.
 60 64  0  0  0  0  0  0  0  0  2 V2000
  148.2998  136.6697  161.6080 O   0  0  0  0  0  0  0  0  0  0  0  0
  147.5104  135.8236  160.7893 C   0  0  0  0  0  0  0  0  0  0  0  0
  148.1157  135.8421  159.3637 C   0  0  0  0  0  0  0  0  0  0  0  0
  148.0810  137.1480  158.7222 N   0  0  0  0  0  0  0  0  0  0  0  0
  149.1296  138.0309  158.5994 C   0  0  0  0  0  0  0  0  0  0  0  0
  148.8487  139.1449  157.9806 N   0  0  0  0  0  0  0  0  0  0  0  0
  147.5082  139.0162  157.6362 C   0  0  0  0  0  0  0  0  0  0  0  0
  146.5739  139.8493  156.9563 C   0  0  0  0  0  0  0  0  0  0  0  0
  146.9027  141.0668  156.4475 N   0  0  0  0  0  0  0  0  0  0  0  0
  147.2324  142.1048  157.4200 C   0  0  0  0  0  0  0  0  0  0  0  0
  148.7401  142.1045  157.7274 C   0  0  0  0  0  0  0  0  0  0  0  0
  149.5444  142.2249  156.4839 N   0  3  0  0  0  0  0  0  0  0  0  0
  151.0003  142.3135  156.7638 C   0  0  0  0  0  0  0  0  0  0  0  0
  151.3091  143.0578  158.0771 C   0  0  1  0  0  0  0  0  0  0  0  0
  152.4780  142.4894  158.8591 C   0  0  0  0  0  0  0  0  0  0  0  0
  152.8619  143.6595  159.7605 C   0  0  0  0  0  0  0  0  0  0  0  0
  152.4948  144.8393  159.0507 O   0  0  0  0  0  0  0  0  0  0  0  0
  151.7801  144.4964  157.8681 C   0  0  0  0  0  0  0  0  0  0  0  0
  149.1967  141.1685  155.4955 C   0  0  0  0  0  0  0  0  0  0  0  0
  147.6815  141.1409  155.2116 C   0  0  0  0  0  0  0  0  0  0  0  0
  145.3039  139.3810  156.8256 N   0  0  0  0  0  0  0  0  0  0  0  0
  144.9709  138.1803  157.3085 C   0  0  0  0  0  0  0  0  0  0  0  0
  145.7380  137.2978  157.9503 N   0  0  0  0  0  0  0  0  0  0  0  0
  147.0103  137.7647  158.0985 C   0  0  0  0  0  0  0  0  0  0  0  0
  147.5607  134.3983  161.3758 C   0  0  0  0  0  0  0  0  0  0  0  0
  146.8165  134.2967  162.7191 C   0  0  0  0  0  0  0  0  0  0  0  0
  145.4746  134.7424  162.5655 O   0  0  0  0  0  0  0  0  0  0  0  0
  145.3925  136.1133  162.1955 C   0  0  0  0  0  0  0  0  0  0  0  0
  146.0526  136.3326  160.8225 C   0  0  0  0  0  0  0  0  0  0  0  0
  148.4078  136.2552  162.4503 H   0  0  0  0  0  0  0  0  0  0  0  0
  149.1534  135.5061  159.3908 H   0  0  0  0  0  0  0  0  0  0  0  0
  147.5871  135.1350  158.7232 H   0  0  0  0  0  0  0  0  0  0  0  0
  150.1148  137.8224  158.9913 H   0  0  0  0  0  0  0  0  0  0  0  0
  146.9392  143.0696  157.0046 H   0  0  0  0  0  0  0  0  0  0  0  0
  146.6728  141.9904  158.3473 H   0  0  0  0  0  0  0  0  0  0  0  0
  148.9691  142.9334  158.3980 H   0  0  0  0  0  0  0  0  0  0  0  0
  149.0154  141.1866  158.2495 H   0  0  0  0  0  0  0  0  0  0  0  0
  151.4189  141.3082  156.8325 H   0  0  0  0  0  0  0  0  0  0  0  0
  151.5041  142.7940  155.9237 H   0  0  0  0  0  0  0  0  0  0  0  0
  150.4302  143.0857  158.7218 H   0  0  0  0  0  0  0  0  0  0  0  0
  152.2233  141.5902  159.4208 H   0  0  0  0  0  0  0  0  0  0  0  0
  153.3060  142.2498  158.1898 H   0  0  0  0  0  0  0  0  0  0  0  0
  152.2961  143.6258  160.6921 H   0  0  0  0  0  0  0  0  0  0  0  0
  153.9235  143.6587  160.0090 H   0  0  0  0  0  0  0  0  0  0  0  0
  152.4648  144.5624  157.0211 H   0  0  0  0  0  0  0  0  0  0  0  0
  150.9548  145.1859  157.6884 H   0  0  0  0  0  0  0  0  0  0  0  0
  149.7271  141.3330  154.5587 H   0  0  0  0  0  0  0  0  0  0  0  0
  149.5261  140.2003  155.8748 H   0  0  0  0  0  0  0  0  0  0  0  0
  147.4300  140.3194  154.5396 H   0  0  0  0  0  0  0  0  0  0  0  0
  147.3937  142.0537  154.6890 H   0  0  0  0  0  0  0  0  0  0  0  0
  143.9429  137.8842  157.1593 H   0  0  0  0  0  0  0  0  0  0  0  0
  147.0984  133.7028  160.6741 H   0  0  0  0  0  0  0  0  0  0  0  0
  148.5939  134.0692  161.4956 H   0  0  0  0  0  0  0  0  0  0  0  0
  146.8049  133.2614  163.0601 H   0  0  0  0  0  0  0  0  0  0  0  0
  147.3192  134.8774  163.4939 H   0  0  0  0  0  0  0  0  0  0  0  0
  144.3421  136.4017  162.1525 H   0  0  0  0  0  0  0  0  0  0  0  0
  145.8591  136.7365  162.9599 H   0  0  0  0  0  0  0  0  0  0  0  0
  146.0018  137.3891  160.5568 H   0  0  0  0  0  0  0  0  0  0  0  0
  145.4697  135.7994  160.0703 H   0  0  0  0  0  0  0  0  0  0  0  0
  149.2792  143.1076  156.0710 H   0  0  0  0  0  0  0  0  0  0  0  0
  1  2  1  0  0  0  0
  1 30  1  0  0  0  0
  2 29  1  0  0  0  0
  2  3  1  0  0  0  0
  2 25  1  0  0  0  0
  3  4  1  0  0  0  0
  3 31  1  0  0  0  0
  3 32  1  0  0  0  0
  4 24  1  0  0  0  0
  4  5  1  0  0  0  0
  5  6  2  0  0  0  0
  5 33  1  0  0  0  0
  6  7  1  0  0  0  0
  7 24  2  0  0  0  0
  7  8  1  0  0  0  0
  8  9  1  0  0  0  0
  8 21  2  0  0  0  0
  9 20  1  0  0  0  0
  9 10  1  0  0  0  0
 10 11  1  0  0  0  0
 10 34  1  0  0  0  0
 10 35  1  0  0  0  0
 11 12  1  0  0  0  0
 11 36  1  0  0  0  0
 11 37  1  0  0  0  0
 12 13  1  0  0  0  0
 12 19  1  0  0  0  0
 12 60  1  0  0  0  0
 13 14  1  0  0  0  0
 13 38  1  0  0  0  0
 13 39  1  0  0  0  0
 14 18  1  0  0  0  0
 14 15  1  0  0  0  0
 14 40  1  0  0  0  0
 15 16  1  0  0  0  0
 15 41  1  0  0  0  0
 15 42  1  0  0  0  0
 16 17  1  0  0  0  0
 16 43  1  0  0  0  0
 16 44  1  0  0  0  0
 17 18  1  0  0  0  0
 18 45  1  0  0  0  0
 18 46  1  0  0  0  0
 19 20  1  0  0  0  0
 19 47  1  0  0  0  0
 19 48  1  0  0  0  0
 20 49  1  0  0  0  0
 20 50  1  0  0  0  0
 21 22  1  0  0  0  0
 22 23  2  0  0  0  0
 22 51  1  0  0  0  0
 23 24  1  0  0  0  0
 25 26  1  0  0  0  0
 25 52  1  0  0  0  0
 25 53  1  0  0  0  0
 26 27  1  0  0  0  0
 26 54  1  0  0  0  0
 26 55  1  0  0  0  0
 27 28  1  0  0  0  0
 28 29  1  0  0  0  0
 28 56  1  0  0  0  0
 28 57  1  0  0  0  0
 29 58  1  0  0  0  0
 29 59  1  0  0  0  0
M  CHG  1  12   1
M  END
> <s_m_source_file>
AV-unprocessed.smi

> <i_m_source_file_index>
262

> <i_lp_mmshare_version>
43012

> <i_f3d_flags>
0

> <s_epik_input>
W0NIMl0xW0NIMl1PW0NIMl1bQ0gyXUMxKFtPSF0pW0NIMl1uKFtjSF1uMiljKGMyMyluW2NIXW5jM040W0NIMl1bQ0gyXU4oW0NIMl1bQ0gyXTQpW0NIMl1bQ0BASF01W0NIMl1bQ0gyXU9bQ0gyXTU=

> <s_epik_cmdline>
J2VwaWtfcHl0aG9uJywgJy1waCcsICc3LjAnLCAnLXRuJywgJzgnLCAnLW1hJywgJzIwMCcsICctbWV0YWxfYmluZGluZycsICctaW1hZScsICc8aW5maWxlLm1hZT4nLCAnLW9tYWUnLCAnPG91dGZpbGUubWFlPic=

> <r_lp_tautomer_probability>
1

> <r_epik_Ionization_Penalty>
0.010889

> <r_epik_Ionization_Penalty_Charging>
0.0108222

> <r_epik_Ionization_Penalty_Neutral>
6.6801e-05

> <r_epik_State_Penalty>
0.00829663

> <r_epik_Charging_Adjusted_Penalty>
0.0191189

> <i_epik_Tot_Q>
1

> <i_epik_Tot_abs_Q>
1

> <r_epik_Metal_State_Penalty>
0.00842341

> <b_epik_Metal_Only>
0

> <s_lp_Force_Field>
OPLS_2005

> <r_lp_Energy>
55.9789

> <b_lp_Chiralities_Consistent>
1

> <s_lp_Variant>
AV-unprocessed.smi:262-2

> <Gold.Version>
5.8.1

> <Gold.Id.Protein>
6NUR|6NUR_protein|mol2

> <Gold.PLP.Fitness>
48.7925

> <Gold.PLP.PLP>
-41.6328

> <Gold.PLP.part.hbond>
-2.0000

> <Gold.PLP.part.metal>
0.0000

> <Gold.PLP.part.buried>
-8.1780

> <Gold.PLP.part.nonpolar>
-32.7034

> <Gold.PLP.part.repulsive>
0.1120

> <Gold.PLP.ligand.clash>
0.0000

> <Gold.PLP.ligand.torsion>
1.3066

> <Gold.PLP.Chemscore.Hbond>
3.0000

> <Gold.PLP.Chemscore.CHOScore>
0.0000

> <Gold.PLP.Chemscore.Metal>
0.0000

> <Gold.Chemscore.Hbonds>
donor molecule, donor type, donor heavy atom, donor atom, acceptor molecule, acceptor atom, score
      L1  H    12    60       P1  8028  2.00
      P1  H  6931  6943       L1     1  1.00

> <Gold.PLP.Chemscore.Internal.Correction>
0.7729

> <Gold.Rescore>
     Score         DG    S(hbond)    S(metal)    S(lipo)     H(rot)  DE(clash)    DE(int)     intcor
     15.32     -17.77       1.63        0.00     113.81       2.53       0.02       2.43       ----

> <Gold.Chemscore.Fitness>
15.3196

> <Gold.Chemscore.DG>
-17.7721

> <Gold.Chemscore.ZeroCoef>
-5.4800

> <Gold.Chemscore.Hbond>
1.6318

> <Gold.Chemscore.Metal>
0.0000

> <Gold.Chemscore.Lipo>
113.8108

> <Gold.Chemscore.Internal_Hbond>
0.0000

> <Gold.Chemscore.DEClash>
0.0176

> <Gold.Chemscore.DEInternal>
2.4350

> <Gold.Chemscore.Rot>
2.5288

> <Gold.Chemscore.Internal.Correction>
   9.000000E+99

> <Gold.Chemscore.Hbonds>
donor molecule, donor type, donor heavy atom, donor atom, acceptor molecule, acceptor atom, score
      L1  H    12    60       P1  8028  1.00
      P1  H  6931  6943       L1     1  0.30

> <Gold.Chemscore.Hbond.Weighted>
-5.4500

> <Gold.Chemscore.Metal.Weighted>
-0.0000

> <Gold.Chemscore.Lipo.Weighted>
-13.3159

> <Gold.Chemscore.Internal_Hbond.Weighted>
0.0000

> <Gold.Chemscore.DEClash.Weighted>
0.0176

> <Gold.Chemscore.DEInternal.Weighted>
2.4350

> <Gold.Chemscore.Rot.Weighted>
6.4738

> <Gold.Chemscore.Internal.Correction.Weighted>
   9.000000E+99

> <Gold.Protein.RotatedTorsions>
[ 6907 6896 6895 6894 ] final   94.12 input  -60.11 | X-H torsion
[ 7974 7965 7964 7962 ] final  -21.89 input  175.53 | X-H torsion
[ 8008 7997 7996 7995 ] final  -70.95 input   59.86 | X-H torsion
[ 10167 10162 10161 10158 ] final -129.09 input  -65.29 | X-H torsion
[ 10718 10713 10712 10709 ] final -133.25 input   66.30 | X-H torsion
[ 10763 10752 10751 10750 ] final -138.95 input  -60.55 | X-H torsion
[ 11005 11000 10999 10996 ] final -160.73 input  -57.11 | X-H torsion

> <Gold.Protein.ActiveResidues>
 VAL166  LYS551  ARG553  GLY616  TRP617  ASP618  TYR619  PRO620  LYS621  CYS622 
 ASP623  PHE694  ASN695  SER759  ASP760  ASP761  ALA762  ILE779  LEU786  VAL792 
 PHE793  MET794  SER795  GLU796  ALA797  LYS798  CYS799  TRP800  GLU811  SER814 

> <Gold.Protein.RotatedAtoms>
  152.5450  134.1242  159.8411 H   0  0  0  0  0  0  0  0  0  0  0  0  # atno 6907 bound_to 6896
  151.1295  133.5040  159.2607 H   0  0  0  0  0  0  0  0  0  0  0  0  # atno 6908 bound_to 6896
  151.1691  135.0319  159.8798 H   0  0  0  0  0  0  0  0  0  0  0  0  # atno 6909 bound_to 6896
  146.1707  140.4403  142.8533 H   0  0  0  0  0  0  0  0  0  0  0  0  # atno 7974 bound_to 7965
  154.5051  140.0824  156.7877 H   0  0  0  0  0  0  0  0  0  0  0  0  # atno 8008 bound_to 7997
  155.3913  140.3432  155.4233 H   0  0  0  0  0  0  0  0  0  0  0  0  # atno 8009 bound_to 7997
  156.1505  140.1557  156.8765 H   0  0  0  0  0  0  0  0  0  0  0  0  # atno 8010 bound_to 7997
  139.9435  143.6137  152.2497 H   0  0  0  0  0  0  0  0  0  0  0  0  # atno 10167 bound_to 10162
  156.2430  130.7107  151.0976 H   0  0  0  0  0  0  0  0  0  0  0  0  # atno 10718 bound_to 10713
  154.8623  135.3597  154.5467 H   0  0  0  0  0  0  0  0  0  0  0  0  # atno 10763 bound_to 10752
  153.6087  135.7010  153.5360 H   0  0  0  0  0  0  0  0  0  0  0  0  # atno 10764 bound_to 10752
  153.3228  135.4146  155.1392 H   0  0  0  0  0  0  0  0  0  0  0  0  # atno 10765 bound_to 10752
  140.6283  134.4678  157.5228 H   0  0  0  0  0  0  0  0  0  0  0  0  # atno 11005 bound_to 11000
  144.8159  140.6467  143.6384 LP  0  0  0  0  0  0  0  0  0  0  0  0  # atno 17320 bound_to 7965
  145.4347  139.1544  143.4003 LP  0  0  0  0  0  0  0  0  0  0  0  0  # atno 17321 bound_to 7965
  139.6686  144.7661  151.1826 LP  0  0  0  0  0  0  0  0  0  0  0  0  # atno 17342 bound_to 10162
  140.7604  143.5900  150.8806 LP  0  0  0  0  0  0  0  0  0  0  0  0  # atno 17343 bound_to 10162
  157.7183  131.0697  150.6238 LP  0  0  0  0  0  0  0  0  0  0  0  0  # atno 17370 bound_to 10713
  156.6313  130.4432  149.5786 LP  0  0  0  0  0  0  0  0  0  0  0  0  # atno 17371 bound_to 10713
  139.9126  134.8313  156.1475 LP  0  0  0  0  0  0  0  0  0  0  0  0  # atno 17394 bound_to 11000
  141.0693  133.6804  156.2109 LP  0  0  0  0  0  0  0  0  0  0  0  0  # atno 17395 bound_to 11000

$$$$
