AV-unprocessed.smi:1893|AV-procd|sdf|7674|dock4
  -GOLD-   22720 9413D 1   1.00000     0.00000
 Structure written by MMmdl.
 43 44  0  0  0  0  0  0  0  0  2 V2000
  150.8453  144.9286  159.9980 C   0  0  0  0  0  0  0  0  0  0  0  0
  152.0462  143.9683  160.1081 C   0  0  1  0  0  0  0  0  0  0  0  0
  152.2865  143.6310  161.5962 C   0  0  0  0  0  0  0  0  0  0  0  0
  153.4573  142.6618  161.7840 C   0  0  0  0  0  0  0  0  0  0  0  0
  153.2138  141.4012  160.9523 C   0  0  0  0  0  0  0  0  0  0  0  0
  152.9940  141.7651  159.4776 C   0  0  0  0  0  0  0  0  0  0  0  0
  151.8644  142.7191  159.3017 N   0  3  2  0  0  0  0  0  0  0  0  0
  151.5781  142.9554  157.8600 C   0  0  0  0  0  0  0  0  0  0  0  0
  151.4091  141.6311  157.0924 C   0  0  0  0  0  0  0  0  0  0  0  0
  150.0194  141.4132  156.7107 N   0  0  0  0  0  0  0  0  0  0  0  0
  149.6158  140.8986  155.5381 C   0  0  0  0  0  0  0  0  0  0  0  0
  150.4019  140.5240  154.6669 O   0  0  0  0  0  0  0  0  0  0  0  0
  148.0965  140.8086  155.3211 C   0  0  2  0  0  0  0  0  0  0  0  0
  147.6091  141.6588  154.1302 C   0  0  0  0  0  0  0  0  0  0  0  0
  147.3920  141.1399  156.5536 N   0  0  0  0  0  0  0  0  0  0  0  0
  146.7024  140.3561  157.3854 C   0  0  0  0  0  0  0  0  0  0  0  0
  146.2263  140.9870  158.4494 N   0  0  0  0  0  0  0  0  0  0  0  0
  146.6942  142.2453  158.1974 C   0  0  0  0  0  0  0  0  0  0  0  0
  147.4095  142.3892  157.0820 N   0  0  0  0  0  0  0  0  0  0  0  0
  150.9873  145.8009  160.6367 H   0  0  0  0  0  0  0  0  0  0  0  0
  149.9196  144.4433  160.3095 H   0  0  0  0  0  0  0  0  0  0  0  0
  150.7048  145.3055  158.9855 H   0  0  0  0  0  0  0  0  0  0  0  0
  152.9296  144.4846  159.7284 H   0  0  0  0  0  0  0  0  0  0  0  0
  152.4814  144.5441  162.1601 H   0  0  0  0  0  0  0  0  0  0  0  0
  151.3841  143.1932  162.0257 H   0  0  0  0  0  0  0  0  0  0  0  0
  154.3890  143.1382  161.4761 H   0  0  0  0  0  0  0  0  0  0  0  0
  153.5690  142.4037  162.8376 H   0  0  0  0  0  0  0  0  0  0  0  0
  154.0626  140.7232  161.0467 H   0  0  0  0  0  0  0  0  0  0  0  0
  152.3437  140.8657  161.3349 H   0  0  0  0  0  0  0  0  0  0  0  0
  153.9044  142.1979  159.0595 H   0  0  0  0  0  0  0  0  0  0  0  0
  152.7900  140.8513  158.9175 H   0  0  0  0  0  0  0  0  0  0  0  0
  150.7015  143.5932  157.7373 H   0  0  0  0  0  0  0  0  0  0  0  0
  152.3966  143.5132  157.4024 H   0  0  0  0  0  0  0  0  0  0  0  0
  152.0454  141.6200  156.2056 H   0  0  0  0  0  0  0  0  0  0  0  0
  151.7214  140.7855  157.7036 H   0  0  0  0  0  0  0  0  0  0  0  0
  149.3123  141.6917  157.3756 H   0  0  0  0  0  0  0  0  0  0  0  0
  147.8656  139.7672  155.0897 H   0  0  0  0  0  0  0  0  0  0  0  0
  148.1086  141.3652  153.2063 H   0  0  0  0  0  0  0  0  0  0  0  0
  147.7943  142.7229  154.2820 H   0  0  0  0  0  0  0  0  0  0  0  0
  146.5375  141.5305  153.9753 H   0  0  0  0  0  0  0  0  0  0  0  0
  146.5498  139.3007  157.2123 H   0  0  0  0  0  0  0  0  0  0  0  0
  146.5092  143.0783  158.8597 H   0  0  0  0  0  0  0  0  0  0  0  0
  151.0515  142.2511  159.6766 H   0  0  0  0  0  0  0  0  0  0  0  0
  1  2  1  0  0  0  0
  1 20  1  0  0  0  0
  1 21  1  0  0  0  0
  1 22  1  0  0  0  0
  2  7  1  0  0  0  0
  2  3  1  0  0  0  0
  2 23  1  0  0  0  0
  3  4  1  0  0  0  0
  3 24  1  0  0  0  0
  3 25  1  0  0  0  0
  4  5  1  0  0  0  0
  4 26  1  0  0  0  0
  4 27  1  0  0  0  0
  5  6  1  0  0  0  0
  5 28  1  0  0  0  0
  5 29  1  0  0  0  0
  6  7  1  0  0  0  0
  6 30  1  0  0  0  0
  6 31  1  0  0  0  0
  7  8  1  0  0  0  0
  7 43  1  0  0  0  0
  8  9  1  0  0  0  0
  8 32  1  0  0  0  0
  8 33  1  0  0  0  0
  9 10  1  0  0  0  0
  9 34  1  0  0  0  0
  9 35  1  0  0  0  0
 10 11  1  0  0  0  0
 10 36  1  0  0  0  0
 11 12  2  0  0  0  0
 11 13  1  0  0  0  0
 13 14  1  0  0  0  0
 13 15  1  0  0  0  0
 13 37  1  0  0  0  0
 14 38  1  0  0  0  0
 14 39  1  0  0  0  0
 14 40  1  0  0  0  0
 15 19  1  0  0  0  0
 15 16  1  0  0  0  0
 16 17  2  0  0  0  0
 16 41  1  0  0  0  0
 17 18  1  0  0  0  0
 18 19  2  0  0  0  0
 18 42  1  0  0  0  0
M  CHG  1   7   1
M  END
> <s_m_source_file>
AV-unprocessed.smi

> <i_m_source_file_index>
1893

> <i_lp_mmshare_version>
43012

> <i_f3d_flags>
0

> <s_epik_input>
W0NIM11bQ0BASF0xW0NIMl1bQ0gyXVtDSDJdW0NIMl1OMVtDSDJdW0NIMl1bTkhdQyg9TylbQ0BIXShbQ0gzXSluMltjSF1uW2NIXW4y

> <s_epik_cmdline>
J2VwaWtfcHl0aG9uJywgJy1waCcsICc3LjAnLCAnLXRuJywgJzgnLCAnLW1hJywgJzIwMCcsICctbWV0YWxfYmluZGluZycsICctaW1hZScsICc8aW5maWxlLm1hZT4nLCAnLW9tYWUnLCAnPG91dGZpbGUubWFlPic=

> <r_lp_tautomer_probability>
1

> <r_epik_Ionization_Penalty>
0.00266409

> <r_epik_Ionization_Penalty_Charging>
0.00265606

> <r_epik_Ionization_Penalty_Neutral>
8.02794e-06

> <r_epik_State_Penalty>
0.00184955

> <r_epik_Charging_Adjusted_Penalty>
0.00450561

> <i_epik_Tot_Q>
1

> <i_epik_Tot_abs_Q>
1

> <r_epik_Metal_State_Penalty>
-0

> <b_epik_Metal_Only>
0

> <s_lp_Force_Field>
OPLS_2005

> <r_lp_Energy>
24.4169

> <b_lp_Chiralities_Consistent>
1

> <s_lp_Variant>
AV-unprocessed.smi:1893-4

> <Gold.Version>
5.8.1

> <Gold.Id.Protein>
6NUR|6NUR_protein|mol2

> <Gold.PLP.Fitness>
38.2868

> <Gold.PLP.PLP>
-36.4071

> <Gold.PLP.part.hbond>
-1.9577

> <Gold.PLP.part.metal>
0.0000

> <Gold.PLP.part.buried>
-7.1078

> <Gold.PLP.part.nonpolar>
-28.0545

> <Gold.PLP.part.repulsive>
0.7655

> <Gold.PLP.ligand.clash>
0.0000

> <Gold.PLP.ligand.torsion>
0.6646

> <Gold.PLP.Chemscore.Hbond>
1.0211

> <Gold.PLP.Chemscore.CHOScore>
0.0000

> <Gold.PLP.Chemscore.Metal>
0.0000

> <Gold.Chemscore.Hbonds>
donor molecule, donor type, donor heavy atom, donor atom, acceptor molecule, acceptor atom, score
      P1  H  6934  6946       L1    17  0.09
      P1  H  7989  7998       L1    12  0.98

> <Gold.PLP.Chemscore.Internal.Correction>
0.1458

> <Gold.Rescore>
     Score         DG    S(hbond)    S(metal)    S(lipo)     H(rot)  DE(clash)    DE(int)     intcor
     12.66     -15.03       1.46        0.00      95.45       2.54       0.22       2.14       ----

> <Gold.Chemscore.Fitness>
12.6607

> <Gold.Chemscore.DG>
-15.0283

> <Gold.Chemscore.ZeroCoef>
-5.4800

> <Gold.Chemscore.Hbond>
1.4603

> <Gold.Chemscore.Metal>
0.0000

> <Gold.Chemscore.Lipo>
95.4496

> <Gold.Chemscore.Internal_Hbond>
0.0000

> <Gold.Chemscore.DEClash>
0.2241

> <Gold.Chemscore.DEInternal>
2.1435

> <Gold.Chemscore.Rot>
2.5377

> <Gold.Chemscore.Internal.Correction>
   9.000000E+99

> <Gold.Chemscore.Hbonds>
donor molecule, donor type, donor heavy atom, donor atom, acceptor molecule, acceptor atom, score
      P1  H  6934  6946       L1    17  0.02
      P1  H  7989  7998       L1    12  0.93

> <Gold.Chemscore.Hbond.Weighted>
-4.8773

> <Gold.Chemscore.Metal.Weighted>
-0.0000

> <Gold.Chemscore.Lipo.Weighted>
-11.1676

> <Gold.Chemscore.Internal_Hbond.Weighted>
0.0000

> <Gold.Chemscore.DEClash.Weighted>
0.2241

> <Gold.Chemscore.DEInternal.Weighted>
2.1435

> <Gold.Chemscore.Rot.Weighted>
6.4966

> <Gold.Chemscore.Internal.Correction.Weighted>
   9.000000E+99

> <Gold.Protein.RotatedTorsions>
[ 6907 6896 6895 6894 ] final  136.08 input  -60.11 | X-H torsion
[ 7974 7965 7964 7962 ] final  -41.92 input  175.53 | X-H torsion
[ 8008 7997 7996 7995 ] final   77.47 input   59.86 | X-H torsion
[ 10167 10162 10161 10158 ] final  126.76 input  -65.29 | X-H torsion
[ 10718 10713 10712 10709 ] final  -52.03 input   66.30 | X-H torsion
[ 10763 10752 10751 10750 ] final  -28.11 input  -60.55 | X-H torsion
[ 11005 11000 10999 10996 ] final  -24.83 input  -57.11 | X-H torsion

> <Gold.Protein.ActiveResidues>
 VAL166  LYS551  ARG553  GLY616  TRP617  ASP618  TYR619  PRO620  LYS621  CYS622 
 ASP623  PHE694  ASN695  SER759  ASP760  ASP761  ALA762  ILE779  LEU786  VAL792 
 PHE793  MET794  SER795  GLU796  ALA797  LYS798  CYS799  TRP800  GLU811  SER814 

> <Gold.Protein.RotatedAtoms>
  152.2933  133.5582  159.5571 H   0  0  0  0  0  0  0  0  0  0  0  0  # atno 6907 bound_to 6896
  150.7245  134.0397  159.3770 H   0  0  0  0  0  0  0  0  0  0  0  0  # atno 6908 bound_to 6896
  151.8302  135.0624  160.0486 H   0  0  0  0  0  0  0  0  0  0  0  0  # atno 6909 bound_to 6896
  146.0165  140.6902  142.9199 H   0  0  0  0  0  0  0  0  0  0  0  0  # atno 7974 bound_to 7965
  155.8421  140.3462  155.5638 H   0  0  0  0  0  0  0  0  0  0  0  0  # atno 8008 bound_to 7997
  155.8129  140.0901  157.1913 H   0  0  0  0  0  0  0  0  0  0  0  0  # atno 8009 bound_to 7997
  154.4005  140.1444  156.3396 H   0  0  0  0  0  0  0  0  0  0  0  0  # atno 8010 bound_to 7997
  139.5614  144.6884  151.4033 H   0  0  0  0  0  0  0  0  0  0  0  0  # atno 10167 bound_to 10162
  156.1657  130.4149  149.9724 H   0  0  0  0  0  0  0  0  0  0  0  0  # atno 10718 bound_to 10713
  153.7430  135.6931  153.4962 H   0  0  0  0  0  0  0  0  0  0  0  0  # atno 10763 bound_to 10752
  153.2056  135.4421  155.0317 H   0  0  0  0  0  0  0  0  0  0  0  0  # atno 10764 bound_to 10752
  154.8214  135.3424  154.6955 H   0  0  0  0  0  0  0  0  0  0  0  0  # atno 10765 bound_to 10752
  140.8882  133.7607  156.0387 H   0  0  0  0  0  0  0  0  0  0  0  0  # atno 11005 bound_to 11000
  144.6973  140.3490  143.7185 LP  0  0  0  0  0  0  0  0  0  0  0  0  # atno 17320 bound_to 7965
  145.7260  139.1723  143.2457 LP  0  0  0  0  0  0  0  0  0  0  0  0  # atno 17321 bound_to 7965
  140.6894  143.7898  150.7233 LP  0  0  0  0  0  0  0  0  0  0  0  0  # atno 17342 bound_to 10162
  140.1375  143.4470  152.2215 LP  0  0  0  0  0  0  0  0  0  0  0  0  # atno 17343 bound_to 10162
  156.7539  130.9126  151.3638 LP  0  0  0  0  0  0  0  0  0  0  0  0  # atno 17370 bound_to 10713
  157.6766  130.9100  150.0165 LP  0  0  0  0  0  0  0  0  0  0  0  0  # atno 17371 bound_to 10713
  140.8379  134.3101  157.5324 LP  0  0  0  0  0  0  0  0  0  0  0  0  # atno 17394 bound_to 11000
  139.8726  134.9400  156.3757 LP  0  0  0  0  0  0  0  0  0  0  0  0  # atno 17395 bound_to 11000

$$$$
