AV-unprocessed.smi:2720|AV-procd|sdf|10498|dock2
  -GOLD-   2272014543D 1   1.00000     0.00000
 Structure written by MMmdl.
 31 32  0  0  0  0  0  0  0  0  2 V2000
  146.5182  135.5597  152.7798 O   0  0  0  0  0  0  0  0  0  0  0  0
  145.6563  136.3779  152.0085 C   0  0  0  0  0  0  0  0  0  0  0  0
  145.5659  135.7374  150.5971 C   0  0  0  0  0  0  0  0  0  0  0  0
  145.3048  134.2387  150.5809 C   0  0  0  0  0  0  0  0  0  0  0  0
  146.3553  133.3163  150.7731 C   0  0  0  0  0  0  0  0  0  0  0  0
  146.0537  131.9396  150.7508 C   0  0  0  0  0  0  0  0  0  0  0  0
  144.8085  131.4562  150.5541 N   0  0  0  0  0  0  0  0  0  0  0  0
  143.8087  132.3441  150.3669 C   0  0  0  0  0  0  0  0  0  0  0  0
  144.0028  133.7399  150.3698 C   0  0  0  0  0  0  0  0  0  0  0  0
  144.2662  136.3813  152.6869 C   0  0  0  0  0  0  0  0  0  0  0  0
  144.2737  137.0843  154.0571 C   0  0  0  0  0  0  0  0  0  0  0  0
  144.8090  138.4560  153.9391 N   0  3  0  0  0  0  0  0  0  0  0  0
  146.1788  138.4873  153.3866 C   0  0  0  0  0  0  0  0  0  0  0  0
  146.2300  137.8177  152.0006 C   0  0  0  0  0  0  0  0  0  0  0  0
  147.3399  135.4679  152.3213 H   0  0  0  0  0  0  0  0  0  0  0  0
  144.8127  136.2425  149.9903 H   0  0  0  0  0  0  0  0  0  0  0  0
  146.5092  135.8964  150.0725 H   0  0  0  0  0  0  0  0  0  0  0  0
  147.3692  133.6505  150.9374 H   0  0  0  0  0  0  0  0  0  0  0  0
  146.8340  131.2072  150.8965 H   0  0  0  0  0  0  0  0  0  0  0  0
  142.8236  131.9302  150.2109 H   0  0  0  0  0  0  0  0  0  0  0  0
  143.1688  134.4091  150.2169 H   0  0  0  0  0  0  0  0  0  0  0  0
  143.5502  136.8930  152.0418 H   0  0  0  0  0  0  0  0  0  0  0  0
  143.8959  135.3612  152.7980 H   0  0  0  0  0  0  0  0  0  0  0  0
  143.2619  137.1325  154.4605 H   0  0  0  0  0  0  0  0  0  0  0  0
  144.8735  136.5235  154.7750 H   0  0  0  0  0  0  0  0  0  0  0  0
  144.2032  138.9890  153.3318 H   0  0  0  0  0  0  0  0  0  0  0  0
  146.5089  139.5240  153.3150 H   0  0  0  0  0  0  0  0  0  0  0  0
  146.8572  137.9873  154.0790 H   0  0  0  0  0  0  0  0  0  0  0  0
  147.2612  137.8226  151.6450 H   0  0  0  0  0  0  0  0  0  0  0  0
  145.6615  138.4265  151.2962 H   0  0  0  0  0  0  0  0  0  0  0  0
  144.8146  138.8859  154.8533 H   0  0  0  0  0  0  0  0  0  0  0  0
  1  2  1  0  0  0  0
  1 15  1  0  0  0  0
  2 14  1  0  0  0  0
  2  3  1  0  0  0  0
  2 10  1  0  0  0  0
  3  4  1  0  0  0  0
  3 16  1  0  0  0  0
  3 17  1  0  0  0  0
  4  9  1  0  0  0  0
  4  5  2  0  0  0  0
  5  6  1  0  0  0  0
  5 18  1  0  0  0  0
  6  7  2  0  0  0  0
  6 19  1  0  0  0  0
  7  8  1  0  0  0  0
  8  9  2  0  0  0  0
  8 20  1  0  0  0  0
  9 21  1  0  0  0  0
 10 11  1  0  0  0  0
 10 22  1  0  0  0  0
 10 23  1  0  0  0  0
 11 12  1  0  0  0  0
 11 24  1  0  0  0  0
 11 25  1  0  0  0  0
 12 13  1  0  0  0  0
 12 26  1  0  0  0  0
 12 31  1  0  0  0  0
 13 14  1  0  0  0  0
 13 27  1  0  0  0  0
 13 28  1  0  0  0  0
 14 29  1  0  0  0  0
 14 30  1  0  0  0  0
M  CHG  1  12   1
M  END
> <s_m_source_file>
AV-unprocessed.smi

> <i_m_source_file_index>
2720

> <i_lp_mmshare_version>
43012

> <i_f3d_flags>
0

> <s_epik_input>
W0NIMl0xW0NIMl1bTkhdW0NIMl1bQ0gyXUMxKFtPSF0pW0NIMl1jMltjSF1bY0hdbltjSF1bY0hdMg==

> <s_epik_cmdline>
J2VwaWtfcHl0aG9uJywgJy1waCcsICc3LjAnLCAnLXRuJywgJzgnLCAnLW1hJywgJzIwMCcsICctbWV0YWxfYmluZGluZycsICctaW1hZScsICc8aW5maWxlLm1hZT4nLCAnLW9tYWUnLCAnPG91dGZpbGUubWFlPic=

> <r_epik_Ionization_Penalty>
0.069741

> <r_epik_Ionization_Penalty_Charging>
0.000197202

> <r_epik_Ionization_Penalty_Neutral>
0.0695438

> <r_epik_State_Penalty>
0.060924

> <r_epik_Charging_Adjusted_Penalty>
0.0611212

> <i_epik_Tot_Q>
1

> <i_epik_Tot_abs_Q>
1

> <r_epik_Metal_State_Penalty>
6.4163e-05

> <b_epik_Metal_Only>
0

> <s_lp_Force_Field>
OPLS_2005

> <r_lp_Energy>
18.1257

> <b_lp_Chiralities_Consistent>
1

> <s_lp_Variant>
AV-unprocessed.smi:2720-1

> <Gold.Version>
5.8.1

> <Gold.Id.Protein>
6NUR|6NUR_protein|mol2

> <Gold.PLP.Fitness>
38.8406

> <Gold.PLP.PLP>
-24.9213

> <Gold.PLP.part.hbond>
-2.0000

> <Gold.PLP.part.metal>
0.0000

> <Gold.PLP.part.buried>
-0.9097

> <Gold.PLP.part.nonpolar>
-22.6393

> <Gold.PLP.part.repulsive>
0.1259

> <Gold.PLP.ligand.clash>
0.0000

> <Gold.PLP.ligand.torsion>
0.4072

> <Gold.PLP.Chemscore.Hbond>
2.9440

> <Gold.PLP.Chemscore.CHOScore>
1.9660

> <Gold.PLP.Chemscore.Metal>
0.0000

> <Gold.Chemscore.Hbonds>
donor molecule, donor type, donor heavy atom, donor atom, acceptor molecule, acceptor atom, score
      L1  H     1    15       P1  7948  0.98
      L1  H    12    26       P1 10175  2.00
      L1  C     6    19       P1 10747  1.00
      L1  C     8    20       P1 10952  0.75

> <Gold.PLP.Chemscore.Internal.Correction>
0.0037

> <Gold.Rescore>
     Score         DG    S(hbond)    S(metal)    S(lipo)     H(rot)  DE(clash)    DE(int)     intcor
     15.72     -16.23       1.98        0.00      70.49       1.61       0.03       0.48       ----

> <Gold.Chemscore.Fitness>
15.7181

> <Gold.Chemscore.DG>
-16.2268

> <Gold.Chemscore.ZeroCoef>
-5.4800

> <Gold.Chemscore.Hbond>
1.9825

> <Gold.Chemscore.Metal>
0.0000

> <Gold.Chemscore.Lipo>
70.4922

> <Gold.Chemscore.Internal_Hbond>
0.0000

> <Gold.Chemscore.DEClash>
0.0266

> <Gold.Chemscore.DEInternal>
0.4821

> <Gold.Chemscore.Rot>
1.6102

> <Gold.Chemscore.Internal.Correction>
   9.000000E+99

> <Gold.Chemscore.Hbonds>
donor molecule, donor type, donor heavy atom, donor atom, acceptor molecule, acceptor atom, score
      L1  H     1    15       P1  7948  0.93
      L1  H    12    26       P1 10175  0.98

> <Gold.Chemscore.Hbond.Weighted>
-6.6214

> <Gold.Chemscore.Metal.Weighted>
-0.0000

> <Gold.Chemscore.Lipo.Weighted>
-8.2476

> <Gold.Chemscore.Internal_Hbond.Weighted>
0.0000

> <Gold.Chemscore.DEClash.Weighted>
0.0266

> <Gold.Chemscore.DEInternal.Weighted>
0.4821

> <Gold.Chemscore.Rot.Weighted>
4.1222

> <Gold.Chemscore.Internal.Correction.Weighted>
   9.000000E+99

> <Gold.Protein.RotatedTorsions>
[ 6907 6896 6895 6894 ] final  -50.53 input  -60.11 | X-H torsion
[ 7974 7965 7964 7962 ] final  149.35 input  175.53 | X-H torsion
[ 8008 7997 7996 7995 ] final  115.16 input   59.86 | X-H torsion
[ 10167 10162 10161 10158 ] final -133.11 input  -65.29 | X-H torsion
[ 10718 10713 10712 10709 ] final -171.00 input   66.30 | X-H torsion
[ 10763 10752 10751 10750 ] final  175.88 input  -60.55 | X-H torsion
[ 11005 11000 10999 10996 ] final  141.44 input  -57.11 | X-H torsion

> <Gold.Protein.ActiveResidues>
 VAL166  LYS551  ARG553  GLY616  TRP617  ASP618  TYR619  PRO620  LYS621  CYS622 
 ASP623  PHE694  ASN695  SER759  ASP760  ASP761  ALA762  ILE779  LEU786  VAL792 
 PHE793  MET794  SER795  GLU796  ALA797  LYS798  CYS799  TRP800  GLU811  SER814 

> <Gold.Protein.RotatedAtoms>
  150.8699  134.8070  159.7146 H   0  0  0  0  0  0  0  0  0  0  0  0  # atno 6907 bound_to 6896
  152.4707  134.4964  159.9721 H   0  0  0  0  0  0  0  0  0  0  0  0  # atno 6908 bound_to 6896
  151.5054  133.3457  159.2911 H   0  0  0  0  0  0  0  0  0  0  0  0  # atno 6909 bound_to 6896
  144.8445  139.6269  143.6002 H   0  0  0  0  0  0  0  0  0  0  0  0  # atno 7974 bound_to 7965
  156.2365  140.2944  156.0326 H   0  0  0  0  0  0  0  0  0  0  0  0  # atno 8008 bound_to 7997
  155.2077  140.0411  157.2945 H   0  0  0  0  0  0  0  0  0  0  0  0  # atno 8009 bound_to 7997
  154.6088  140.2446  155.7703 H   0  0  0  0  0  0  0  0  0  0  0  0  # atno 8010 bound_to 7997
  139.9016  143.6600  152.2593 H   0  0  0  0  0  0  0  0  0  0  0  0  # atno 10167 bound_to 10162
  156.7344  130.9318  151.3106 H   0  0  0  0  0  0  0  0  0  0  0  0  # atno 10718 bound_to 10713
  154.4736  135.2772  155.1624 H   0  0  0  0  0  0  0  0  0  0  0  0  # atno 10763 bound_to 10752
  154.3363  135.6179  153.5579 H   0  0  0  0  0  0  0  0  0  0  0  0  # atno 10764 bound_to 10752
  152.9867  135.5777  154.5122 H   0  0  0  0  0  0  0  0  0  0  0  0  # atno 10765 bound_to 10752
  140.0402  134.9309  157.0828 H   0  0  0  0  0  0  0  0  0  0  0  0  # atno 11005 bound_to 11000
  146.2732  139.6686  142.9281 LP  0  0  0  0  0  0  0  0  0  0  0  0  # atno 17320 bound_to 7965
  145.4626  141.0433  143.2743 LP  0  0  0  0  0  0  0  0  0  0  0  0  # atno 17321 bound_to 7965
  139.7020  144.7633  151.1257 LP  0  0  0  0  0  0  0  0  0  0  0  0  # atno 17342 bound_to 10162
  140.7705  143.5445  150.9274 LP  0  0  0  0  0  0  0  0  0  0  0  0  # atno 17343 bound_to 10162
  157.6845  130.9172  150.0351 LP  0  0  0  0  0  0  0  0  0  0  0  0  # atno 17370 bound_to 10713
  156.1507  130.3642  149.9442 LP  0  0  0  0  0  0  0  0  0  0  0  0  # atno 17371 bound_to 10713
  140.4082  134.2010  155.7163 LP  0  0  0  0  0  0  0  0  0  0  0  0  # atno 17394 bound_to 11000
  141.1879  133.8272  157.1015 LP  0  0  0  0  0  0  0  0  0  0  0  0  # atno 17395 bound_to 11000

$$$$
