AV-unprocessed.smi:1501|AV-procd|sdf|6066|dock4
  -GOLD-   22720 6183D 1   1.00000     0.00000
 Structure written by MMmdl.
 48 49  0  0  0  0  0  0  0  0  2 V2000
  153.3299  137.2940  156.7968 C   0  0  0  0  0  0  0  0  0  0  0  0
  152.5759  138.6035  156.6486 C   0  0  0  0  0  0  0  0  0  0  0  0
  152.7740  139.5428  157.6710 N   0  0  0  0  0  0  0  0  0  0  0  0
  152.1658  140.6900  157.6320 C   0  0  0  0  0  0  0  0  0  0  0  0
  152.3373  141.6517  158.6313 N   0  0  0  0  0  0  0  0  0  0  0  0
  151.5127  142.8620  158.6620 C   0  0  0  0  0  0  0  0  0  0  0  0
  152.2006  143.9884  159.4512 C   0  0  0  0  0  0  0  0  0  0  0  0
  152.5187  143.5336  160.7598 O   0  0  0  0  0  0  0  0  0  0  0  0
  153.4205  142.4362  160.7191 C   0  0  0  0  0  0  0  0  0  0  0  0
  152.7719  141.2589  159.9722 C   0  0  0  0  0  0  0  0  0  0  0  0
  151.3154  141.0451  156.5964 N   0  5  0  0  0  0  0  0  0  0  0  0
  151.0820  140.1848  155.5648 C   0  0  0  0  0  0  0  0  0  0  0  0
  150.3402  140.4761  154.6271 O   0  0  0  0  0  0  0  0  0  0  0  0
  151.7559  138.8750  155.5947 C   0  0  0  0  0  0  0  0  0  0  0  0
  151.4909  137.8830  154.4643 C   0  0  0  0  0  0  0  0  0  0  0  0
  150.5547  136.7411  154.9040 C   0  0  0  0  0  0  0  0  0  0  0  0
  149.1331  137.2133  155.2242 C   0  0  0  0  0  0  0  0  0  0  0  0
  148.8020  137.4741  156.3814 O   0  0  0  0  0  0  0  0  0  0  0  0
  148.2933  137.3093  154.1823 N   0  0  0  0  0  0  0  0  0  0  0  0
  146.8960  137.7225  154.2674 C   0  0  0  0  0  0  0  0  0  0  0  0
  146.5924  138.9726  153.4144 C   0  0  0  0  0  0  0  0  0  0  0  0
  146.6605  138.6384  151.9172 C   0  0  0  0  0  0  0  0  0  0  0  0
  147.5234  140.1497  153.7523 C   0  0  0  0  0  0  0  0  0  0  0  0
  153.8944  137.0699  155.8915 H   0  0  0  0  0  0  0  0  0  0  0  0
  152.6353  136.4755  156.9860 H   0  0  0  0  0  0  0  0  0  0  0  0
  154.0346  137.3364  157.6281 H   0  0  0  0  0  0  0  0  0  0  0  0
  151.2896  143.2218  157.6573 H   0  0  0  0  0  0  0  0  0  0  0  0
  150.5560  142.6169  159.1245 H   0  0  0  0  0  0  0  0  0  0  0  0
  153.1037  144.3248  158.9397 H   0  0  0  0  0  0  0  0  0  0  0  0
  151.5381  144.8506  159.5277 H   0  0  0  0  0  0  0  0  0  0  0  0
  154.3540  142.7338  160.2385 H   0  0  0  0  0  0  0  0  0  0  0  0
  153.6680  142.1420  161.7389 H   0  0  0  0  0  0  0  0  0  0  0  0
  151.9097  140.8915  160.5298 H   0  0  0  0  0  0  0  0  0  0  0  0
  153.4882  140.4381  159.9145 H   0  0  0  0  0  0  0  0  0  0  0  0
  151.0634  138.4106  153.6118 H   0  0  0  0  0  0  0  0  0  0  0  0
  152.4367  137.4777  154.1006 H   0  0  0  0  0  0  0  0  0  0  0  0
  150.5120  135.9820  154.1213 H   0  0  0  0  0  0  0  0  0  0  0  0
  150.9570  136.2514  155.7912 H   0  0  0  0  0  0  0  0  0  0  0  0
  148.6474  137.0772  153.2655 H   0  0  0  0  0  0  0  0  0  0  0  0
  146.2767  136.8881  153.9370 H   0  0  0  0  0  0  0  0  0  0  0  0
  146.6323  137.9016  155.3113 H   0  0  0  0  0  0  0  0  0  0  0  0
  145.5701  139.2894  153.6259 H   0  0  0  0  0  0  0  0  0  0  0  0
  147.6594  138.3092  151.6286 H   0  0  0  0  0  0  0  0  0  0  0  0
  146.4064  139.5063  151.3080 H   0  0  0  0  0  0  0  0  0  0  0  0
  145.9609  137.8424  151.6603 H   0  0  0  0  0  0  0  0  0  0  0  0
  148.5683  139.8890  153.5811 H   0  0  0  0  0  0  0  0  0  0  0  0
  147.4220  140.4547  154.7942 H   0  0  0  0  0  0  0  0  0  0  0  0
  147.2934  141.0203  153.1375 H   0  0  0  0  0  0  0  0  0  0  0  0
  1  2  1  0  0  0  0
  1 24  1  0  0  0  0
  1 25  1  0  0  0  0
  1 26  1  0  0  0  0
  2 14  2  0  0  0  0
  2  3  1  0  0  0  0
  3  4  2  0  0  0  0
  4  5  1  0  0  0  0
  4 11  1  0  0  0  0
  5 10  1  0  0  0  0
  5  6  1  0  0  0  0
  6  7  1  0  0  0  0
  6 27  1  0  0  0  0
  6 28  1  0  0  0  0
  7  8  1  0  0  0  0
  7 29  1  0  0  0  0
  7 30  1  0  0  0  0
  8  9  1  0  0  0  0
  9 10  1  0  0  0  0
  9 31  1  0  0  0  0
  9 32  1  0  0  0  0
 10 33  1  0  0  0  0
 10 34  1  0  0  0  0
 11 12  1  0  0  0  0
 12 13  2  0  0  0  0
 12 14  1  0  0  0  0
 14 15  1  0  0  0  0
 15 16  1  0  0  0  0
 15 35  1  0  0  0  0
 15 36  1  0  0  0  0
 16 17  1  0  0  0  0
 16 37  1  0  0  0  0
 16 38  1  0  0  0  0
 17 18  2  0  0  0  0
 17 19  1  0  0  0  0
 19 20  1  0  0  0  0
 19 39  1  0  0  0  0
 20 21  1  0  0  0  0
 20 40  1  0  0  0  0
 20 41  1  0  0  0  0
 21 22  1  0  0  0  0
 21 23  1  0  0  0  0
 21 42  1  0  0  0  0
 22 43  1  0  0  0  0
 22 44  1  0  0  0  0
 22 45  1  0  0  0  0
 23 46  1  0  0  0  0
 23 47  1  0  0  0  0
 23 48  1  0  0  0  0
M  CHG  1  11  -1
M  END
> <s_m_source_file>
AV-unprocessed.smi

> <i_m_source_file_index>
1501

> <i_lp_mmshare_version>
43012

> <i_f3d_flags>
0

> <s_epik_input>
W0NIMl0xW0NIMl1PW0NIMl1bQ0gyXU4xYyhuYzJbQ0gzXSlbbkhdYyg9TyljMltDSDJdW0NIMl1DKD1PKVtOSF1bQ0gyXVtDSF0oW0NIM10pW0NIM10=

> <s_epik_cmdline>
J2VwaWtfcHl0aG9uJywgJy1waCcsICc3LjAnLCAnLXRuJywgJzgnLCAnLW1hJywgJzIwMCcsICctbWV0YWxfYmluZGluZycsICctaW1hZScsICc8aW5maWxlLm1hZT4nLCAnLW9tYWUnLCAnPG91dGZpbGUubWFlPic=

> <r_lp_tautomer_probability>
1

> <r_epik_Ionization_Penalty>
5.04715

> <r_epik_Ionization_Penalty_Charging>
9.89309e-08

> <r_epik_Ionization_Penalty_Neutral>
5.04715

> <r_epik_State_Penalty>
2.57778

> <r_epik_Charging_Adjusted_Penalty>
2.57778

> <i_epik_Tot_Q>
-1

> <i_epik_Tot_abs_Q>
1

> <r_epik_Metal_State_Penalty>
0.1232

> <b_epik_Metal_Only>
0

> <s_lp_Force_Field>
OPLS_2005

> <r_lp_Energy>
25.0321

> <b_lp_Chiralities_Consistent>
1

> <s_lp_Variant>
AV-unprocessed.smi:1501-3

> <Gold.Version>
5.8.1

> <Gold.Id.Protein>
6NUR|6NUR_protein|mol2

> <Gold.PLP.Fitness>
47.5515

> <Gold.PLP.PLP>
-40.7779

> <Gold.PLP.part.hbond>
-3.0000

> <Gold.PLP.part.metal>
0.0000

> <Gold.PLP.part.buried>
-2.5632

> <Gold.PLP.part.nonpolar>
-34.9948

> <Gold.PLP.part.repulsive>
0.2114

> <Gold.PLP.ligand.clash>
0.0000

> <Gold.PLP.ligand.torsion>
0.7078

> <Gold.PLP.Chemscore.Hbond>
2.6248

> <Gold.PLP.Chemscore.CHOScore>
0.0000

> <Gold.PLP.Chemscore.Metal>
0.0000

> <Gold.Chemscore.Hbonds>
donor molecule, donor type, donor heavy atom, donor atom, acceptor molecule, acceptor atom, score
      L1  H    19    39       P1  7948  1.00
      P1  H  7989  7998       L1    13  0.79
      P1  H  7997  8009       L1     3  0.73

> <Gold.PLP.Chemscore.Internal.Correction>
0.3148

> <Gold.Rescore>
     Score         DG    S(hbond)    S(metal)    S(lipo)     H(rot)  DE(clash)    DE(int)     intcor
     17.72     -18.45       1.95        0.00      94.27       1.79       0.05       0.69       ----

> <Gold.Chemscore.Fitness>
17.7197

> <Gold.Chemscore.DG>
-18.4509

> <Gold.Chemscore.ZeroCoef>
-5.4800

> <Gold.Chemscore.Hbond>
1.9513

> <Gold.Chemscore.Metal>
0.0000

> <Gold.Chemscore.Lipo>
94.2713

> <Gold.Chemscore.Internal_Hbond>
0.0000

> <Gold.Chemscore.DEClash>
0.0460

> <Gold.Chemscore.DEInternal>
0.6852

> <Gold.Chemscore.Rot>
1.7875

> <Gold.Chemscore.Internal.Correction>
   9.000000E+99

> <Gold.Chemscore.Hbonds>
donor molecule, donor type, donor heavy atom, donor atom, acceptor molecule, acceptor atom, score
      L1  H    19    39       P1  7948  1.00
      P1  H  7989  7998       L1    13  0.11
      P1  H  7997  8009       L1     3  0.03

> <Gold.Chemscore.Hbond.Weighted>
-6.5172

> <Gold.Chemscore.Metal.Weighted>
-0.0000

> <Gold.Chemscore.Lipo.Weighted>
-11.0297

> <Gold.Chemscore.Internal_Hbond.Weighted>
0.0000

> <Gold.Chemscore.DEClash.Weighted>
0.0460

> <Gold.Chemscore.DEInternal.Weighted>
0.6852

> <Gold.Chemscore.Rot.Weighted>
4.5760

> <Gold.Chemscore.Internal.Correction.Weighted>
   9.000000E+99

> <Gold.Protein.RotatedTorsions>
[ 6907 6896 6895 6894 ] final   45.01 input  -60.11 | X-H torsion
[ 7974 7965 7964 7962 ] final -161.13 input  175.53 | X-H torsion
[ 8008 7997 7996 7995 ] final  147.46 input   59.86 | X-H torsion
[ 10167 10162 10161 10158 ] final  -18.03 input  -65.29 | X-H torsion
[ 10718 10713 10712 10709 ] final   70.45 input   66.30 | X-H torsion
[ 10763 10752 10751 10750 ] final  141.38 input  -60.55 | X-H torsion
[ 11005 11000 10999 10996 ] final  158.61 input  -57.11 | X-H torsion

> <Gold.Protein.ActiveResidues>
 VAL166  LYS551  ARG553  GLY616  TRP617  ASP618  TYR619  PRO620  LYS621  CYS622 
 ASP623  PHE694  ASN695  SER759  ASP760  ASP761  ALA762  ILE779  LEU786  VAL792 
 PHE793  MET794  SER795  GLU796  ALA797  LYS798  CYS799  TRP800  GLU811  SER814 

> <Gold.Protein.RotatedAtoms>
  152.2394  134.8244  160.0462 H   0  0  0  0  0  0  0  0  0  0  0  0  # atno 6907 bound_to 6896
  151.8964  133.3522  159.3824 H   0  0  0  0  0  0  0  0  0  0  0  0  # atno 6908 bound_to 6896
  150.7049  134.4799  159.5509 H   0  0  0  0  0  0  0  0  0  0  0  0  # atno 6909 bound_to 6896
  144.7402  140.3443  143.6128 H   0  0  0  0  0  0  0  0  0  0  0  0  # atno 7974 bound_to 7965
  156.2824  140.2155  156.5541 H   0  0  0  0  0  0  0  0  0  0  0  0  # atno 8008 bound_to 7997
  154.7267  140.0499  157.0712 H   0  0  0  0  0  0  0  0  0  0  0  0  # atno 8009 bound_to 7997
  155.0407  140.3145  155.4729 H   0  0  0  0  0  0  0  0  0  0  0  0  # atno 8010 bound_to 7997
  140.7254  143.4957  150.9934 H   0  0  0  0  0  0  0  0  0  0  0  0  # atno 10167 bound_to 10162
  157.6400  130.9478  150.0652 H   0  0  0  0  0  0  0  0  0  0  0  0  # atno 10718 bound_to 10713
  153.9383  135.2982  155.3443 H   0  0  0  0  0  0  0  0  0  0  0  0  # atno 10763 bound_to 10752
  154.7490  135.4989  153.9259 H   0  0  0  0  0  0  0  0  0  0  0  0  # atno 10764 bound_to 10752
  153.1055  135.6746  153.9700 H   0  0  0  0  0  0  0  0  0  0  0  0  # atno 10765 bound_to 10752
  140.1882  134.8427  157.2881 H   0  0  0  0  0  0  0  0  0  0  0  0  # atno 11005 bound_to 11000
  145.7342  139.1745  143.2413 LP  0  0  0  0  0  0  0  0  0  0  0  0  # atno 17320 bound_to 7965
  146.1183  140.7342  142.9470 LP  0  0  0  0  0  0  0  0  0  0  0  0  # atno 17321 bound_to 7965
  139.8664  143.7249  152.3170 LP  0  0  0  0  0  0  0  0  0  0  0  0  # atno 17342 bound_to 10162
  139.7482  144.7541  151.0547 LP  0  0  0  0  0  0  0  0  0  0  0  0  # atno 17343 bound_to 10162
  156.1673  130.3645  149.9214 LP  0  0  0  0  0  0  0  0  0  0  0  0  # atno 17370 bound_to 10713
  156.7198  130.9002  151.3617 LP  0  0  0  0  0  0  0  0  0  0  0  0  # atno 17371 bound_to 10713
  140.2190  134.4046  155.7575 LP  0  0  0  0  0  0  0  0  0  0  0  0  # atno 17394 bound_to 11000
  141.2225  133.7156  156.8460 LP  0  0  0  0  0  0  0  0  0  0  0  0  # atno 17395 bound_to 11000

$$$$
