AV-unprocessed.smi:3057|AV-procd|sdf|11663|dock8
  -GOLD-   2272017 63D 1   1.00000     0.00000
 Structure written by MMmdl.
 40 42  0  0  0  0  0  0  0  0  1 V2000
  148.4792  135.5932  154.6733 C   0  0  0  0  0  0  0  0  0  0  0  0
  149.1281  136.5385  155.7059 C   0  0  1  0  0  0  0  0  0  0  0  0
  149.6106  135.7663  156.9439 C   0  0  0  0  0  0  0  0  0  0  0  0
  151.0649  135.3997  156.6083 C   0  0  0  0  0  0  0  0  0  0  0  0
  151.4449  136.4607  155.5853 C   0  0  0  0  0  0  0  0  0  0  0  0
  152.6065  136.6913  155.2528 O   0  0  0  0  0  0  0  0  0  0  0  0
  150.3487  137.1205  155.1792 N   0  0  0  0  0  0  0  0  0  0  0  0
  150.2259  138.4227  154.5060 C   0  0  2  0  0  0  0  0  0  0  0  0
  151.1360  139.5213  155.0885 C   0  0  0  0  0  0  0  0  0  0  0  0
  152.0673  139.9836  154.4280 O   0  0  0  0  0  0  0  0  0  0  0  0
  150.8735  139.8977  156.3492 N   0  0  0  0  0  0  0  0  0  0  0  0
  151.6230  140.8943  157.1092 C   0  0  0  0  0  0  0  0  0  0  0  0
  150.8831  142.2410  157.2574 C   0  0  0  0  0  0  0  0  0  0  0  0
  151.2796  143.0288  158.4949 C   0  0  0  0  0  0  0  0  0  0  0  0
  150.7600  144.3219  158.7208 C   0  0  0  0  0  0  0  0  0  0  0  0
  151.1690  145.0184  159.8738 C   0  0  0  0  0  0  0  0  0  0  0  0
  152.0749  144.3969  160.7546 C   0  0  0  0  0  0  0  0  0  0  0  0
  152.5319  143.1009  160.4420 C   0  0  0  0  0  0  0  0  0  0  0  0
  152.1470  142.4245  159.3379 N   0  0  0  0  0  0  0  0  0  0  0  0
  148.7347  138.8176  154.5824 C   0  0  0  0  0  0  0  0  0  0  0  0
  148.0759  137.9661  156.0413 S   0  0  0  0  0  0  0  0  0  0  0  0
  149.1374  134.7608  154.4225 H   0  0  0  0  0  0  0  0  0  0  0  0
  148.2399  136.1075  153.7426 H   0  0  0  0  0  0  0  0  0  0  0  0
  147.5515  135.1720  155.0613 H   0  0  0  0  0  0  0  0  0  0  0  0
  149.5913  136.4075  157.8267 H   0  0  0  0  0  0  0  0  0  0  0  0
  148.9983  134.8903  157.1609 H   0  0  0  0  0  0  0  0  0  0  0  0
  151.7122  135.4286  157.4851 H   0  0  0  0  0  0  0  0  0  0  0  0
  151.1339  134.4133  156.1486 H   0  0  0  0  0  0  0  0  0  0  0  0
  150.5004  138.2795  153.4596 H   0  0  0  0  0  0  0  0  0  0  0  0
  150.0970  139.4578  156.8219 H   0  0  0  0  0  0  0  0  0  0  0  0
  151.8902  140.4966  158.0893 H   0  0  0  0  0  0  0  0  0  0  0  0
  152.5613  141.0581  156.5785 H   0  0  0  0  0  0  0  0  0  0  0  0
  151.0661  142.8572  156.3765 H   0  0  0  0  0  0  0  0  0  0  0  0
  149.8066  142.0670  157.2772 H   0  0  0  0  0  0  0  0  0  0  0  0
  150.0720  144.7748  158.0217 H   0  0  0  0  0  0  0  0  0  0  0  0
  150.7962  146.0116  160.0768 H   0  0  0  0  0  0  0  0  0  0  0  0
  152.4113  144.9011  161.6483 H   0  0  0  0  0  0  0  0  0  0  0  0
  153.2265  142.5945  161.0960 H   0  0  0  0  0  0  0  0  0  0  0  0
  148.5679  139.8928  154.6490 H   0  0  0  0  0  0  0  0  0  0  0  0
  148.2037  138.4615  153.6998 H   0  0  0  0  0  0  0  0  0  0  0  0
  1  2  1  0  0  0  0
  1 22  1  0  0  0  0
  1 23  1  0  0  0  0
  1 24  1  0  0  0  0
  2  7  1  0  0  0  0
  2 21  1  0  0  0  0
  2  3  1  0  0  0  0
  3  4  1  0  0  0  0
  3 25  1  0  0  0  0
  3 26  1  0  0  0  0
  4  5  1  0  0  0  0
  4 27  1  0  0  0  0
  4 28  1  0  0  0  0
  5  6  2  0  0  0  0
  5  7  1  0  0  0  0
  7  8  1  0  0  0  0
  8  9  1  0  0  0  0
  8 20  1  0  0  0  0
  8 29  1  0  0  0  0
  9 10  2  0  0  0  0
  9 11  1  0  0  0  0
 11 12  1  0  0  0  0
 11 30  1  0  0  0  0
 12 13  1  0  0  0  0
 12 31  1  0  0  0  0
 12 32  1  0  0  0  0
 13 14  1  0  0  0  0
 13 33  1  0  0  0  0
 13 34  1  0  0  0  0
 14 19  1  0  0  0  0
 14 15  2  0  0  0  0
 15 16  1  0  0  0  0
 15 35  1  0  0  0  0
 16 17  2  0  0  0  0
 16 36  1  0  0  0  0
 17 18  1  0  0  0  0
 17 37  1  0  0  0  0
 18 19  2  0  0  0  0
 18 38  1  0  0  0  0
 20 21  1  0  0  0  0
 20 39  1  0  0  0  0
 20 40  1  0  0  0  0
M  END
> <s_m_source_file>
AV-unprocessed.smi

> <i_m_source_file_index>
3057

> <i_lp_mmshare_version>
43012

> <i_f3d_flags>
0

> <s_epik_input>
W0NIMl0xW0NIMl1DKD1PKU4oW0NAQF0xMltDSDNdKVtDQEhdKFtDSDJdUzIpQyg9TylbTkhdW0NIMl1bQ0gyXWMzW2NIXVtjSF1bY0hdW2NIXW4z

> <s_epik_cmdline>
J2VwaWtfcHl0aG9uJywgJy1waCcsICc3LjAnLCAnLXRuJywgJzgnLCAnLW1hJywgJzIwMCcsICctbWV0YWxfYmluZGluZycsICctaW1hZScsICc8aW5maWxlLm1hZT4nLCAnLW9tYWUnLCAnPG91dGZpbGUubWFlPic=

> <r_epik_Ionization_Penalty>
0.0249631

> <r_epik_Ionization_Penalty_Charging>
0

> <r_epik_Ionization_Penalty_Neutral>
0.0249631

> <r_epik_State_Penalty>
0.0202943

> <r_epik_Charging_Adjusted_Penalty>
0.0202943

> <i_epik_Tot_Q>
0

> <i_epik_Tot_abs_Q>
0

> <r_epik_Metal_State_Penalty>
0.0194661

> <b_epik_Metal_Only>
0

> <s_lp_Force_Field>
OPLS_2005

> <r_lp_Energy>
26.5663

> <b_lp_Chiralities_Consistent>
1

> <s_lp_Variant>
AV-unprocessed.smi:3057-3

> <Gold.Version>
5.8.1

> <Gold.Id.Protein>
6NUR|6NUR_protein|mol2

> <Gold.PLP.Fitness>
40.1338

> <Gold.PLP.PLP>
-35.2854

> <Gold.PLP.part.hbond>
-2.0000

> <Gold.PLP.part.metal>
0.0000

> <Gold.PLP.part.buried>
-5.8293

> <Gold.PLP.part.nonpolar>
-28.0669

> <Gold.PLP.part.repulsive>
0.1476

> <Gold.PLP.ligand.clash>
0.0000

> <Gold.PLP.ligand.torsion>
0.3284

> <Gold.PLP.Chemscore.Hbond>
1.8320

> <Gold.PLP.Chemscore.CHOScore>
0.0000

> <Gold.PLP.Chemscore.Metal>
0.0000

> <Gold.Chemscore.Hbonds>
donor molecule, donor type, donor heavy atom, donor atom, acceptor molecule, acceptor atom, score
      P1  H  7989  7998       L1    10  0.39
      P1  H 10752 10764       L1     6  0.31

> <Gold.PLP.Chemscore.Internal.Correction>
0.0091

> <Gold.Rescore>
     Score         DG    S(hbond)    S(metal)    S(lipo)     H(rot)  DE(clash)    DE(int)     intcor
     17.67     -18.23       1.91        0.00      88.08       1.53       0.07       0.49       ----

> <Gold.Chemscore.Fitness>
17.6676

> <Gold.Chemscore.DG>
-18.2268

> <Gold.Chemscore.ZeroCoef>
-5.4800

> <Gold.Chemscore.Hbond>
1.9068

> <Gold.Chemscore.Metal>
0.0000

> <Gold.Chemscore.Lipo>
88.0759

> <Gold.Chemscore.Internal_Hbond>
0.0000

> <Gold.Chemscore.DEClash>
0.0710

> <Gold.Chemscore.DEInternal>
0.4882

> <Gold.Chemscore.Rot>
1.5339

> <Gold.Chemscore.Internal.Correction>
   9.000000E+99

> <Gold.Chemscore.Hbonds>
donor molecule, donor type, donor heavy atom, donor atom, acceptor molecule, acceptor atom, score
      P1  H  7989  7998       L1    10  0.36
      P1  H 10752 10764       L1     6  0.17

> <Gold.Chemscore.Hbond.Weighted>
-6.3686

> <Gold.Chemscore.Metal.Weighted>
-0.0000

> <Gold.Chemscore.Lipo.Weighted>
-10.3049

> <Gold.Chemscore.Internal_Hbond.Weighted>
0.0000

> <Gold.Chemscore.DEClash.Weighted>
0.0710

> <Gold.Chemscore.DEInternal.Weighted>
0.4882

> <Gold.Chemscore.Rot.Weighted>
3.9267

> <Gold.Chemscore.Internal.Correction.Weighted>
   9.000000E+99

> <Gold.Protein.RotatedTorsions>
[ 6907 6896 6895 6894 ] final  -52.59 input  -60.11 | X-H torsion
[ 7974 7965 7964 7962 ] final -147.67 input  175.53 | X-H torsion
[ 8008 7997 7996 7995 ] final  -55.49 input   59.86 | X-H torsion
[ 10167 10162 10161 10158 ] final  -26.67 input  -65.29 | X-H torsion
[ 10718 10713 10712 10709 ] final  -57.15 input   66.30 | X-H torsion
[ 10763 10752 10751 10750 ] final  -26.68 input  -60.55 | X-H torsion
[ 11005 11000 10999 10996 ] final  -71.91 input  -57.11 | X-H torsion

> <Gold.Protein.ActiveResidues>
 VAL166  LYS551  ARG553  GLY616  TRP617  ASP618  TYR619  PRO620  LYS621  CYS622 
 ASP623  PHE694  ASN695  SER759  ASP760  ASP761  ALA762  ILE779  LEU786  VAL792 
 PHE793  MET794  SER795  GLU796  ALA797  LYS798  CYS799  TRP800  GLU811  SER814 

> <Gold.Protein.RotatedAtoms>
  150.8504  134.7827  159.7003 H   0  0  0  0  0  0  0  0  0  0  0  0  # atno 6907 bound_to 6896
  152.4570  134.5266  159.9808 H   0  0  0  0  0  0  0  0  0  0  0  0  # atno 6908 bound_to 6896
  151.5388  133.3398  159.2967 H   0  0  0  0  0  0  0  0  0  0  0  0  # atno 6909 bound_to 6896
  144.8078  140.5297  143.5663 H   0  0  0  0  0  0  0  0  0  0  0  0  # atno 7974 bound_to 7965
  154.4197  140.1152  156.5484 H   0  0  0  0  0  0  0  0  0  0  0  0  # atno 8008 bound_to 7997
  155.6435  140.3496  155.4704 H   0  0  0  0  0  0  0  0  0  0  0  0  # atno 8009 bound_to 7997
  155.9851  140.1168  157.0680 H   0  0  0  0  0  0  0  0  0  0  0  0  # atno 8010 bound_to 7997
  140.7281  143.4158  151.1031 H   0  0  0  0  0  0  0  0  0  0  0  0  # atno 10167 bound_to 10162
  156.1233  130.4164  150.0401 H   0  0  0  0  0  0  0  0  0  0  0  0  # atno 10718 bound_to 10713
  153.7198  135.6945  153.5016 H   0  0  0  0  0  0  0  0  0  0  0  0  # atno 10763 bound_to 10752
  153.2212  135.4369  155.0490 H   0  0  0  0  0  0  0  0  0  0  0  0  # atno 10764 bound_to 10752
  154.8288  135.3461  154.6732 H   0  0  0  0  0  0  0  0  0  0  0  0  # atno 10765 bound_to 10752
  141.1600  133.6831  156.6979 H   0  0  0  0  0  0  0  0  0  0  0  0  # atno 11005 bound_to 11000
  145.5395  139.1475  143.3454 LP  0  0  0  0  0  0  0  0  0  0  0  0  # atno 17320 bound_to 7965
  146.2372  140.5535  142.8949 LP  0  0  0  0  0  0  0  0  0  0  0  0  # atno 17321 bound_to 7965
  139.7797  143.8373  152.3135 LP  0  0  0  0  0  0  0  0  0  0  0  0  # atno 17342 bound_to 10162
  139.8320  144.7249  150.9439 LP  0  0  0  0  0  0  0  0  0  0  0  0  # atno 17343 bound_to 10162
  156.8333  130.9400  151.3636 LP  0  0  0  0  0  0  0  0  0  0  0  0  # atno 17370 bound_to 10713
  157.6416  130.8810  149.9459 LP  0  0  0  0  0  0  0  0  0  0  0  0  # atno 17371 bound_to 10713
  140.2981  134.8186  157.4074 LP  0  0  0  0  0  0  0  0  0  0  0  0  # atno 17394 bound_to 11000
  140.1286  134.5125  155.8124 LP  0  0  0  0  0  0  0  0  0  0  0  0  # atno 17395 bound_to 11000

$$$$
