AV-unprocessed.smi:41|AV-procd|sdf|385|dock8
  -GOLD-   2262016243D 1   1.00000     0.00000
 Structure written by MMmdl.
 26 27  0  0  0  0  0  0  0  0  1 V2000
  150.4325  139.2418  153.7816 N   0  0  0  0  0  0  0  0  0  0  0  0
  150.6399  139.9244  154.9171 C   0  0  0  0  0  0  0  0  0  0  0  0
  151.6228  139.5569  155.7153 N   0  0  0  0  0  0  0  0  0  0  0  0
  151.9113  140.1910  156.8956 C   0  0  0  0  0  0  0  0  0  0  0  0
  152.8596  139.8173  157.5846 O   0  0  0  0  0  0  0  0  0  0  0  0
  151.0798  141.2739  157.2809 N   0  0  0  0  0  0  0  0  0  0  0  0
  151.3672  142.0310  158.4983 C   0  0  2  0  0  0  0  0  0  0  0  0
  150.7875  143.4575  158.5225 C   0  0  0  0  0  0  0  0  0  0  0  0
  151.7598  144.3615  159.7353 S   0  0  0  0  0  0  0  0  0  0  0  0
  153.0196  143.0620  159.7149 C   0  0  1  0  0  0  0  0  0  0  0  0
  153.0998  142.3423  161.0751 C   0  0  0  0  0  0  0  0  0  0  0  0
  151.9100  142.5506  161.8056 O   0  0  0  0  0  0  0  0  0  0  0  0
  152.7452  142.1299  158.6747 O   0  0  0  0  0  0  0  0  0  0  0  0
  150.0674  141.6901  156.4239 C   0  0  0  0  0  0  0  0  0  0  0  0
  149.8080  141.0540  155.2615 C   0  0  0  0  0  0  0  0  0  0  0  0
  148.8155  141.4647  154.4531 F   0  0  0  0  0  0  0  0  0  0  0  0
  150.9707  141.4951  159.3610 H   0  0  0  0  0  0  0  0  0  0  0  0
  153.9747  143.5449  159.5050 H   0  0  0  0  0  0  0  0  0  0  0  0
  149.6877  139.5170  153.1576 H   0  0  0  0  0  0  0  0  0  0  0  0
  151.0197  138.4525  153.5541 H   0  0  0  0  0  0  0  0  0  0  0  0
  150.9002  143.9652  157.5678 H   0  0  0  0  0  0  0  0  0  0  0  0
  149.7288  143.4357  158.7816 H   0  0  0  0  0  0  0  0  0  0  0  0
  153.1951  141.2667  160.9239 H   0  0  0  0  0  0  0  0  0  0  0  0
  153.9620  142.6582  161.6619 H   0  0  0  0  0  0  0  0  0  0  0  0
  151.9033  143.4411  162.1221 H   0  0  0  0  0  0  0  0  0  0  0  0
  149.4628  142.5519  156.6611 H   0  0  0  0  0  0  0  0  0  0  0  0
  1  2  1  0  0  0  0
  1 19  1  0  0  0  0
  1 20  1  0  0  0  0
  2 15  1  0  0  0  0
  2  3  2  0  0  0  0
  3  4  1  0  0  0  0
  4  5  2  0  0  0  0
  4  6  1  0  0  0  0
  6  7  1  0  0  0  0
  6 14  1  0  0  0  0
  7 17  1  0  0  0  0
  7 13  1  0  0  0  0
  7  8  1  0  0  0  0
  8  9  1  0  0  0  0
  8 21  1  0  0  0  0
  8 22  1  0  0  0  0
  9 10  1  0  0  0  0
 10 18  1  0  0  0  0
 10 11  1  0  0  0  0
 10 13  1  0  0  0  0
 11 12  1  0  0  0  0
 11 23  1  0  0  0  0
 11 24  1  0  0  0  0
 12 25  1  0  0  0  0
 14 15  2  0  0  0  0
 14 26  1  0  0  0  0
 15 16  1  0  0  0  0
M  END
> <s_m_source_file>
AV-unprocessed.smi

> <i_m_source_file_index>
41

> <i_lp_mmshare_version>
43012

> <i_f3d_flags>
0

> <s_epik_input>
W05IMl1jMW5jKD1PKW4oW2NIXWMxRilbQ0BASF0yW0NIMl1TW0NAQEhdKE8yKVtDSDJdW09IXQ==

> <s_epik_cmdline>
J2VwaWtfcHl0aG9uJywgJy1waCcsICc3LjAnLCAnLXRuJywgJzgnLCAnLW1hJywgJzIwMCcsICctbWV0YWxfYmluZGluZycsICctaW1hZScsICc8aW5maWxlLm1hZT4nLCAnLW9tYWUnLCAnPG91dGZpbGUubWFlPic=

> <r_lp_tautomer_probability>
1

> <r_epik_Ionization_Penalty>
0.000101883

> <r_epik_Ionization_Penalty_Charging>
1.48607e-08

> <r_epik_Ionization_Penalty_Neutral>
0.000101868

> <r_epik_State_Penalty>
-0

> <r_epik_Charging_Adjusted_Penalty>
1.48607e-08

> <i_epik_Tot_Q>
0

> <i_epik_Tot_abs_Q>
0

> <r_epik_Metal_State_Penalty>
-0

> <b_epik_Metal_Only>
0

> <s_epik_Chemistry_Notes>
This compound contains an acetal/aminal-like group ( X-CH(R)-Y where X, Y are N, S, or O) that may be acid/base labile, releasing an aldehyde.

> <s_lp_Force_Field>
OPLS_2005

> <r_lp_Energy>
16.0015

> <b_lp_Chiralities_Consistent>
1

> <s_lp_Variant>
AV-unprocessed.smi:41-3

> <Gold.Version>
5.8.1

> <Gold.Id.Protein>
6NUR|6NUR_protein|mol2

> <Gold.PLP.Fitness>
42.6793

> <Gold.PLP.PLP>
-34.8987

> <Gold.PLP.part.hbond>
-3.4459

> <Gold.PLP.part.metal>
0.0000

> <Gold.PLP.part.buried>
-1.3389

> <Gold.PLP.part.nonpolar>
-29.1798

> <Gold.PLP.part.repulsive>
0.6630

> <Gold.PLP.ligand.clash>
0.0000

> <Gold.PLP.ligand.torsion>
1.1571

> <Gold.PLP.Chemscore.Hbond>
2.3504

> <Gold.PLP.Chemscore.CHOScore>
1.0000

> <Gold.PLP.Chemscore.Metal>
0.0000

> <Gold.Chemscore.Hbonds>
donor molecule, donor type, donor heavy atom, donor atom, acceptor molecule, acceptor atom, score
      L1  H     1    19       P1  7957  0.62
      P1  H  6933  6945       L1    12  0.73
      P1  H  7997  8010       L1     5  1.00
      L1  C    14    26       P1  8028  1.00

> <Gold.PLP.Chemscore.Internal.Correction>
0.0436

> <Gold.Rescore>
     Score         DG    S(hbond)    S(metal)    S(lipo)     H(rot)  DE(clash)    DE(int)     intcor
     10.70     -14.03       2.20        0.00      58.36       2.19       0.29       3.04       ----

> <Gold.Chemscore.Fitness>
10.7021

> <Gold.Chemscore.DG>
-14.0322

> <Gold.Chemscore.ZeroCoef>
-5.4800

> <Gold.Chemscore.Hbond>
2.1970

> <Gold.Chemscore.Metal>
0.0000

> <Gold.Chemscore.Lipo>
58.3590

> <Gold.Chemscore.Internal_Hbond>
0.0000

> <Gold.Chemscore.DEClash>
0.2886

> <Gold.Chemscore.DEInternal>
3.0415

> <Gold.Chemscore.Rot>
2.1929

> <Gold.Chemscore.Internal.Correction>
   9.000000E+99

> <Gold.Chemscore.Hbonds>
donor molecule, donor type, donor heavy atom, donor atom, acceptor molecule, acceptor atom, score
      L1  H     1    19       P1  7957  0.58
      P1  H  6933  6945       L1    12  0.38
      P1  H  7997  8010       L1     5  0.95

> <Gold.Chemscore.Hbond.Weighted>
-7.3379

> <Gold.Chemscore.Metal.Weighted>
-0.0000

> <Gold.Chemscore.Lipo.Weighted>
-6.8280

> <Gold.Chemscore.Internal_Hbond.Weighted>
0.0000

> <Gold.Chemscore.DEClash.Weighted>
0.2886

> <Gold.Chemscore.DEInternal.Weighted>
3.0415

> <Gold.Chemscore.Rot.Weighted>
5.6137

> <Gold.Chemscore.Internal.Correction.Weighted>
   9.000000E+99

> <Gold.Protein.RotatedTorsions>
[ 6907 6896 6895 6894 ] final -139.88 input  -60.11 | X-H torsion
[ 7974 7965 7964 7962 ] final  -49.79 input  175.53 | X-H torsion
[ 8008 7997 7996 7995 ] final   39.72 input   59.86 | X-H torsion
[ 10167 10162 10161 10158 ] final   76.15 input  -65.29 | X-H torsion
[ 10718 10713 10712 10709 ] final  142.94 input   66.30 | X-H torsion
[ 10763 10752 10751 10750 ] final  -80.68 input  -60.55 | X-H torsion
[ 11005 11000 10999 10996 ] final -122.43 input  -57.11 | X-H torsion

> <Gold.Protein.ActiveResidues>
 VAL166  LYS551  ARG553  GLY616  TRP617  ASP618  TYR619  PRO620  LYS621  CYS622 
 ASP623  PHE694  ASN695  SER759  ASP760  ASP761  ALA762  ILE779  LEU786  VAL792 
 PHE793  MET794  SER795  GLU796  ALA797  LYS798  CYS799  TRP800  GLU811  SER814 

> <Gold.Protein.RotatedAtoms>
  151.0534  133.5604  159.2640 H   0  0  0  0  0  0  0  0  0  0  0  0  # atno 6907 bound_to 6896
  151.2607  135.0652  159.9107 H   0  0  0  0  0  0  0  0  0  0  0  0  # atno 6908 bound_to 6896
  152.5386  134.0280  159.8066 H   0  0  0  0  0  0  0  0  0  0  0  0  # atno 6909 bound_to 6896
  145.9367  140.7699  142.9572 H   0  0  0  0  0  0  0  0  0  0  0  0  # atno 7974 bound_to 7965
  155.2412  140.3345  155.4292 H   0  0  0  0  0  0  0  0  0  0  0  0  # atno 8008 bound_to 7997
  156.2255  140.1827  156.7419 H   0  0  0  0  0  0  0  0  0  0  0  0  # atno 8009 bound_to 7997
  154.5892  140.0641  156.9199 H   0  0  0  0  0  0  0  0  0  0  0  0  # atno 8010 bound_to 7997
  139.9954  144.5726  150.7782 H   0  0  0  0  0  0  0  0  0  0  0  0  # atno 10167 bound_to 10162
  157.3748  131.0984  151.0795 H   0  0  0  0  0  0  0  0  0  0  0  0  # atno 10718 bound_to 10713
  154.5542  135.5652  153.6949 H   0  0  0  0  0  0  0  0  0  0  0  0  # atno 10763 bound_to 10752
  152.9998  135.6258  154.2332 H   0  0  0  0  0  0  0  0  0  0  0  0  # atno 10764 bound_to 10752
  154.2268  135.2867  155.2884 H   0  0  0  0  0  0  0  0  0  0  0  0  # atno 10765 bound_to 10752
  140.9995  134.0423  157.3555 H   0  0  0  0  0  0  0  0  0  0  0  0  # atno 11005 bound_to 11000
  144.6773  140.2215  143.7366 LP  0  0  0  0  0  0  0  0  0  0  0  0  # atno 17320 bound_to 7965
  145.8354  139.2105  143.1858 LP  0  0  0  0  0  0  0  0  0  0  0  0  # atno 17321 bound_to 7965
  140.7439  143.2853  151.3481 LP  0  0  0  0  0  0  0  0  0  0  0  0  # atno 17342 bound_to 10162
  139.6310  144.0721  152.2476 LP  0  0  0  0  0  0  0  0  0  0  0  0  # atno 17343 bound_to 10162
  157.1886  130.6341  149.5696 LP  0  0  0  0  0  0  0  0  0  0  0  0  # atno 17370 bound_to 10713
  155.9763  130.4730  150.6518 LP  0  0  0  0  0  0  0  0  0  0  0  0  # atno 17371 bound_to 10713
  139.9032  135.0171  156.7364 LP  0  0  0  0  0  0  0  0  0  0  0  0  # atno 17394 bound_to 11000
  140.6911  133.9389  155.7967 LP  0  0  0  0  0  0  0  0  0  0  0  0  # atno 17395 bound_to 11000

$$$$
