AV-unprocessed.smi:457|AV-procd|sdf|2619|dock1
  -GOLD-   2262023 23D 1   1.00000     0.00000
 Structure written by MMmdl.
 41 41  0  0  0  0  0  0  0  0  1 V2000
  151.5663  145.6310  160.0502 C   0  0  0  0  0  0  0  0  0  0  0  0
  151.7930  144.7505  158.8176 C   0  0  0  0  0  0  0  0  0  0  0  0
  150.6869  143.6966  158.6405 C   0  0  0  0  0  0  0  0  0  0  0  0
  151.1679  142.4808  158.0150 N   0  0  0  0  0  0  0  0  0  0  0  0
  150.6163  141.9354  156.8521 C   0  0  0  0  0  0  0  0  0  0  0  0
  149.5329  142.5801  156.2751 N   0  0  0  0  0  0  0  0  0  0  0  0
  151.0956  140.7842  156.2971 C   0  0  0  0  0  0  0  0  0  0  0  0
  150.5708  140.2185  155.1377 N   0  0  0  0  0  0  0  0  0  0  0  0
  151.1218  138.9830  154.5848 C   0  0  0  0  0  0  0  0  0  0  0  0
  150.1945  137.7808  154.8069 C   0  0  0  0  0  0  0  0  0  0  0  0
  149.4805  140.8617  154.4063 C   0  0  0  0  0  0  0  0  0  0  0  0
  148.2139  139.9953  154.3589 C   0  0  0  0  0  0  0  0  0  0  0  0
  147.2315  140.6643  153.5868 O   0  0  0  0  0  0  0  0  0  0  0  0
  146.8983  141.9356  154.1161 C   0  0  0  0  0  0  0  0  0  0  0  0
  152.2223  140.0748  156.9150 C   0  0  0  0  0  0  0  0  0  0  0  0
  152.7436  139.0449  156.4883 O   0  0  0  0  0  0  0  0  0  0  0  0
  152.7107  140.6527  158.0843 N   0  0  0  0  0  0  0  0  0  0  0  0
  152.2307  141.8171  158.6730 C   0  0  0  0  0  0  0  0  0  0  0  0
  152.7368  142.2169  159.7222 O   0  0  0  0  0  0  0  0  0  0  0  0
  153.4766  140.1838  158.5457 H   0  0  0  0  0  0  0  0  0  0  0  0
  152.3619  146.3695  160.1518 H   0  0  0  0  0  0  0  0  0  0  0  0
  151.5474  145.0338  160.9620 H   0  0  0  0  0  0  0  0  0  0  0  0
  150.6202  146.1685  159.9807 H   0  0  0  0  0  0  0  0  0  0  0  0
  151.8472  145.3846  157.9320 H   0  0  0  0  0  0  0  0  0  0  0  0
  152.7612  144.2559  158.9018 H   0  0  0  0  0  0  0  0  0  0  0  0
  150.2494  143.4123  159.5970 H   0  0  0  0  0  0  0  0  0  0  0  0
  149.8505  144.0736  158.0489 H   0  0  0  0  0  0  0  0  0  0  0  0
  149.1448  143.4217  156.6761 H   0  0  0  0  0  0  0  0  0  0  0  0
  149.1351  142.2744  155.3989 H   0  0  0  0  0  0  0  0  0  0  0  0
  151.3201  139.1042  153.5203 H   0  0  0  0  0  0  0  0  0  0  0  0
  152.0875  138.7761  155.0479 H   0  0  0  0  0  0  0  0  0  0  0  0
  150.6514  136.8666  154.4282 H   0  0  0  0  0  0  0  0  0  0  0  0
  149.2398  137.9047  154.2963 H   0  0  0  0  0  0  0  0  0  0  0  0
  149.9904  137.6341  155.8680 H   0  0  0  0  0  0  0  0  0  0  0  0
  149.2503  141.8268  154.8574 H   0  0  0  0  0  0  0  0  0  0  0  0
  149.8025  141.0785  153.3868 H   0  0  0  0  0  0  0  0  0  0  0  0
  148.4413  139.0265  153.9114 H   0  0  0  0  0  0  0  0  0  0  0  0
  147.8300  139.8137  155.3633 H   0  0  0  0  0  0  0  0  0  0  0  0
  146.1450  142.4084  153.4860 H   0  0  0  0  0  0  0  0  0  0  0  0
  147.7699  142.5911  154.1478 H   0  0  0  0  0  0  0  0  0  0  0  0
  146.4887  141.8482  155.1234 H   0  0  0  0  0  0  0  0  0  0  0  0
  1  2  1  0  0  0  0
  1 21  1  0  0  0  0
  1 22  1  0  0  0  0
  1 23  1  0  0  0  0
  2  3  1  0  0  0  0
  2 24  1  0  0  0  0
  2 25  1  0  0  0  0
  3  4  1  0  0  0  0
  3 26  1  0  0  0  0
  3 27  1  0  0  0  0
  4 18  1  0  0  0  0
  4  5  1  0  0  0  0
  5  6  1  0  0  0  0
  5  7  2  0  0  0  0
  6 28  1  0  0  0  0
  6 29  1  0  0  0  0
  7  8  1  0  0  0  0
  7 15  1  0  0  0  0
  8  9  1  0  0  0  0
  8 11  1  0  0  0  0
  9 10  1  0  0  0  0
  9 30  1  0  0  0  0
  9 31  1  0  0  0  0
 10 32  1  0  0  0  0
 10 33  1  0  0  0  0
 10 34  1  0  0  0  0
 11 12  1  0  0  0  0
 11 35  1  0  0  0  0
 11 36  1  0  0  0  0
 12 13  1  0  0  0  0
 12 37  1  0  0  0  0
 12 38  1  0  0  0  0
 13 14  1  0  0  0  0
 14 39  1  0  0  0  0
 14 40  1  0  0  0  0
 14 41  1  0  0  0  0
 15 16  2  0  0  0  0
 15 17  1  0  0  0  0
 17 20  1  0  0  0  0
 17 18  1  0  0  0  0
 18 19  2  0  0  0  0
M  END
> <s_m_source_file>
AV-unprocessed.smi

> <i_m_source_file_index>
457

> <i_lp_mmshare_version>
43012

> <i_f3d_flags>
0

> <s_epik_input>
W0NIM11bQ0gyXVtDSDJdbjFjKFtOSDJdKWMoYyg9TylbbkhdYzE9TylOKFtDSDJdW0NIM10pW0NIMl1bQ0gyXU9bQ0gzXQ==

> <s_epik_cmdline>
J2VwaWtfcHl0aG9uJywgJy1waCcsICc3LjAnLCAnLXRuJywgJzgnLCAnLW1hJywgJzIwMCcsICctbWV0YWxfYmluZGluZycsICctaW1hZScsICc8aW5maWxlLm1hZT4nLCAnLW9tYWUnLCAnPG91dGZpbGUubWFlPic=

> <r_lp_tautomer_probability>
1

> <r_epik_Ionization_Penalty>
0.000127086

> <r_epik_Ionization_Penalty_Charging>
2.15301e-06

> <r_epik_Ionization_Penalty_Neutral>
0.000124933

> <r_epik_State_Penalty>
-0

> <r_epik_Charging_Adjusted_Penalty>
2.15301e-06

> <i_epik_Tot_Q>
0

> <i_epik_Tot_abs_Q>
0

> <r_epik_Metal_State_Penalty>
-0

> <b_epik_Metal_Only>
0

> <s_epik_Chemistry_Notes>
This compound has an imine and may undergo hydrolysis.

> <s_lp_Force_Field>
OPLS_2005

> <r_lp_Energy>
18.1381

> <b_lp_Chiralities_Consistent>
1

> <s_lp_Variant>
AV-unprocessed.smi:457-1

> <Gold.Version>
5.8.1

> <Gold.Id.Protein>
6NUR|6NUR_protein|mol2

> <Gold.PLP.Fitness>
40.9288

> <Gold.PLP.PLP>
-39.4141

> <Gold.PLP.part.hbond>
-1.2981

> <Gold.PLP.part.metal>
0.0000

> <Gold.PLP.part.buried>
-2.2057

> <Gold.PLP.part.nonpolar>
-35.7975

> <Gold.PLP.part.repulsive>
0.4136

> <Gold.PLP.ligand.clash>
22.8091

> <Gold.PLP.ligand.torsion>
0.3949

> <Gold.PLP.Chemscore.Hbond>
0.7469

> <Gold.PLP.Chemscore.CHOScore>
0.0000

> <Gold.PLP.Chemscore.Metal>
0.0000

> <Gold.Chemscore.Hbonds>
donor molecule, donor type, donor heavy atom, donor atom, acceptor molecule, acceptor atom, score
      L1  H     6    28       P1  8028  0.37
      P1  H  7997  8008       L1    16  0.35

> <Gold.PLP.Chemscore.Internal.Correction>
22.8728

> <Gold.Rescore>
     Score         DG    S(hbond)    S(metal)    S(lipo)     H(rot)  DE(clash)    DE(int)     intcor
      5.45     -10.77       0.57        0.00      75.38       2.12       0.07       5.26       ----

> <Gold.Chemscore.Fitness>
5.4453

> <Gold.Chemscore.DG>
-10.7716

> <Gold.Chemscore.ZeroCoef>
-5.4800

> <Gold.Chemscore.Hbond>
0.5716

> <Gold.Chemscore.Metal>
0.0000

> <Gold.Chemscore.Lipo>
75.3766

> <Gold.Chemscore.Internal_Hbond>
0.0000

> <Gold.Chemscore.DEClash>
0.0653

> <Gold.Chemscore.DEInternal>
5.2609

> <Gold.Chemscore.Rot>
2.1237

> <Gold.Chemscore.Internal.Correction>
   9.000000E+99

> <Gold.Chemscore.Hbonds>
donor molecule, donor type, donor heavy atom, donor atom, acceptor molecule, acceptor atom, score
      L1  H     6    28       P1  8028  0.36
      P1  H  7997  8008       L1    16  0.01

> <Gold.Chemscore.Hbond.Weighted>
-1.9092

> <Gold.Chemscore.Metal.Weighted>
-0.0000

> <Gold.Chemscore.Lipo.Weighted>
-8.8191

> <Gold.Chemscore.Internal_Hbond.Weighted>
0.0000

> <Gold.Chemscore.DEClash.Weighted>
0.0653

> <Gold.Chemscore.DEInternal.Weighted>
5.2609

> <Gold.Chemscore.Rot.Weighted>
5.4367

> <Gold.Chemscore.Internal.Correction.Weighted>
   9.000000E+99

> <Gold.Protein.RotatedTorsions>
[ 6907 6896 6895 6894 ] final   29.68 input  -60.11 | X-H torsion
[ 7974 7965 7964 7962 ] final  -64.89 input  175.53 | X-H torsion
[ 8008 7997 7996 7995 ] final  -31.13 input   59.86 | X-H torsion
[ 10167 10162 10161 10158 ] final -169.62 input  -65.29 | X-H torsion
[ 10718 10713 10712 10709 ] final   89.27 input   66.30 | X-H torsion
[ 10763 10752 10751 10750 ] final  -42.53 input  -60.55 | X-H torsion
[ 11005 11000 10999 10996 ] final    3.43 input  -57.11 | X-H torsion

> <Gold.Protein.ActiveResidues>
 VAL166  LYS551  ARG553  GLY616  TRP617  ASP618  TYR619  PRO620  LYS621  CYS622 
 ASP623  PHE694  ASN695  SER759  ASP760  ASP761  ALA762  ILE779  LEU786  VAL792 
 PHE793  MET794  SER795  GLU796  ALA797  LYS798  CYS799  TRP800  GLU811  SER814 

> <Gold.Protein.RotatedAtoms>
  152.0350  134.9745  160.0572 H   0  0  0  0  0  0  0  0  0  0  0  0  # atno 6907 bound_to 6896
  152.1207  133.4347  159.4682 H   0  0  0  0  0  0  0  0  0  0  0  0  # atno 6908 bound_to 6896
  150.6849  134.2457  159.4534 H   0  0  0  0  0  0  0  0  0  0  0  0  # atno 6909 bound_to 6896
  145.7611  140.8861  143.0429 H   0  0  0  0  0  0  0  0  0  0  0  0  # atno 7974 bound_to 7965
  154.4225  140.1772  156.1518 H   0  0  0  0  0  0  0  0  0  0  0  0  # atno 8008 bound_to 7997
  155.9909  140.3369  155.6727 H   0  0  0  0  0  0  0  0  0  0  0  0  # atno 8009 bound_to 7997
  155.6374  140.0676  157.2620 H   0  0  0  0  0  0  0  0  0  0  0  0  # atno 8010 bound_to 7997
  139.5911  144.1211  152.1635 H   0  0  0  0  0  0  0  0  0  0  0  0  # atno 10167 bound_to 10162
  157.6954  131.0326  150.3400 H   0  0  0  0  0  0  0  0  0  0  0  0  # atno 10718 bound_to 10713
  153.9806  135.6717  153.4750 H   0  0  0  0  0  0  0  0  0  0  0  0  # atno 10763 bound_to 10752
  153.0750  135.4953  154.8382 H   0  0  0  0  0  0  0  0  0  0  0  0  # atno 10764 bound_to 10752
  154.7167  135.3108  154.9074 H   0  0  0  0  0  0  0  0  0  0  0  0  # atno 10765 bound_to 10752
  140.5932  133.9905  155.8098 H   0  0  0  0  0  0  0  0  0  0  0  0  # atno 11005 bound_to 11000
  144.6830  139.9724  143.7482 LP  0  0  0  0  0  0  0  0  0  0  0  0  # atno 17320 bound_to 7965
  146.0263  139.3295  143.0782 LP  0  0  0  0  0  0  0  0  0  0  0  0  # atno 17321 bound_to 7965
  140.0785  144.5720  150.7139 LP  0  0  0  0  0  0  0  0  0  0  0  0  # atno 17342 bound_to 10162
  140.7174  143.2557  151.4390 LP  0  0  0  0  0  0  0  0  0  0  0  0  # atno 17343 bound_to 10162
  156.3862  130.3889  149.7064 LP  0  0  0  0  0  0  0  0  0  0  0  0  # atno 17370 bound_to 10713
  156.4429  130.7870  151.2891 LP  0  0  0  0  0  0  0  0  0  0  0  0  # atno 17371 bound_to 10713
  141.0921  133.9900  157.3220 LP  0  0  0  0  0  0  0  0  0  0  0  0  # atno 17394 bound_to 11000
  139.9265  135.0201  156.8252 LP  0  0  0  0  0  0  0  0  0  0  0  0  # atno 17395 bound_to 11000

$$$$
