AV-unprocessed.smi:537|AV-procd|sdf|2865|dock7
  -GOLD-   2262023353D 1   1.00000     0.00000
 Structure written by MMmdl.
 32 33  0  0  0  0  0  0  0  0  2 V2000
  151.8885  143.3341  159.8658 C   0  0  0  0  0  0  0  0  0  0  0  0
  151.5530  142.7344  158.5898 N   0  0  0  0  0  0  0  0  0  0  0  0
  151.8260  141.4796  158.0585 C   0  0  0  0  0  0  0  0  0  0  0  0
  152.5056  140.5242  158.6943 N   0  0  0  0  0  0  0  0  0  0  0  0
  152.5008  139.4878  157.7712 C   0  0  0  0  0  0  0  0  0  0  0  0
  151.8371  139.8351  156.6354 C   0  0  0  0  0  0  0  0  0  0  0  0
  151.6582  138.9298  155.4794 C   0  0  0  0  0  0  0  0  0  0  0  0
  151.0413  139.2887  154.4784 O   0  0  0  0  0  0  0  0  0  0  0  0
  152.2471  137.7090  155.6850 N   0  5  0  0  0  0  0  0  0  0  0  0
  152.9321  137.3173  156.8159 C   0  0  0  0  0  0  0  0  0  0  0  0
  153.4308  136.1955  156.9095 O   0  0  0  0  0  0  0  0  0  0  0  0
  153.0676  138.1895  157.8660 N   0  0  0  0  0  0  0  0  0  0  0  0
  153.7802  137.8505  159.1017 C   0  0  0  0  0  0  0  0  0  0  0  0
  151.3949  141.1495  156.8156 N   0  0  0  0  0  0  0  0  0  0  0  0
  150.6343  141.9927  155.8970 C   0  0  0  0  0  0  0  0  0  0  0  0
  149.3467  141.3088  155.4135 C   0  0  0  0  0  0  0  0  0  0  0  0
  149.0576  141.6985  154.0812 O   0  0  0  0  0  0  0  0  0  0  0  0
  147.7260  141.4010  153.7024 C   0  0  0  0  0  0  0  0  0  0  0  0
  151.5102  144.3550  159.9149 H   0  0  0  0  0  0  0  0  0  0  0  0
  152.9701  143.3571  160.0004 H   0  0  0  0  0  0  0  0  0  0  0  0
  151.4492  142.7603  160.6819 H   0  0  0  0  0  0  0  0  0  0  0  0
  151.0277  143.3429  157.9790 H   0  0  0  0  0  0  0  0  0  0  0  0
  154.2059  136.8469  159.1172 H   0  0  0  0  0  0  0  0  0  0  0  0
  153.1033  137.9291  159.9528 H   0  0  0  0  0  0  0  0  0  0  0  0
  154.5998  138.5517  159.2601 H   0  0  0  0  0  0  0  0  0  0  0  0
  150.3903  142.9305  156.3965 H   0  0  0  0  0  0  0  0  0  0  0  0
  151.2605  142.2746  155.0527 H   0  0  0  0  0  0  0  0  0  0  0  0
  149.4616  140.2249  155.4641 H   0  0  0  0  0  0  0  0  0  0  0  0
  148.5182  141.5793  156.0694 H   0  0  0  0  0  0  0  0  0  0  0  0
  147.5577  141.7228  152.6748 H   0  0  0  0  0  0  0  0  0  0  0  0
  147.0096  141.9205  154.3401 H   0  0  0  0  0  0  0  0  0  0  0  0
  147.5309  140.3293  153.7561 H   0  0  0  0  0  0  0  0  0  0  0  0
  1  2  1  0  0  0  0
  1 19  1  0  0  0  0
  1 20  1  0  0  0  0
  1 21  1  0  0  0  0
  2  3  1  0  0  0  0
  2 22  1  0  0  0  0
  3 14  1  0  0  0  0
  3  4  2  0  0  0  0
  4  5  1  0  0  0  0
  5 12  1  0  0  0  0
  5  6  2  0  0  0  0
  6  7  1  0  0  0  0
  6 14  1  0  0  0  0
  7  8  2  0  0  0  0
  7  9  1  0  0  0  0
  9 10  1  0  0  0  0
 10 11  2  0  0  0  0
 10 12  1  0  0  0  0
 12 13  1  0  0  0  0
 13 23  1  0  0  0  0
 13 24  1  0  0  0  0
 13 25  1  0  0  0  0
 14 15  1  0  0  0  0
 15 16  1  0  0  0  0
 15 26  1  0  0  0  0
 15 27  1  0  0  0  0
 16 17  1  0  0  0  0
 16 28  1  0  0  0  0
 16 29  1  0  0  0  0
 17 18  1  0  0  0  0
 18 30  1  0  0  0  0
 18 31  1  0  0  0  0
 18 32  1  0  0  0  0
M  CHG  1   9  -1
M  END
> <s_m_source_file>
AV-unprocessed.smi

> <i_m_source_file_index>
537

> <i_lp_mmshare_version>
43012

> <i_f3d_flags>
0

> <s_epik_input>
W0NIM11PW0NIMl1bQ0gyXW4oYyhuMSlbTkhdW0NIM10pYyhjMTIpYyg9TylbbkhdYyg9TyluMltDSDNd

> <s_epik_cmdline>
J2VwaWtfcHl0aG9uJywgJy1waCcsICc3LjAnLCAnLXRuJywgJzgnLCAnLW1hJywgJzIwMCcsICctbWV0YWxfYmluZGluZycsICctaW1hZScsICc8aW5maWxlLm1hZT4nLCAnLW9tYWUnLCAnPG91dGZpbGUubWFlPic=

> <r_lp_tautomer_probability>
1

> <r_epik_Ionization_Penalty>
6.3083

> <r_epik_Ionization_Penalty_Charging>
1.44173e-08

> <r_epik_Ionization_Penalty_Neutral>
6.3083

> <r_epik_State_Penalty>
6.30819

> <r_epik_Charging_Adjusted_Penalty>
6.30819

> <i_epik_Tot_Q>
-1

> <i_epik_Tot_abs_Q>
1

> <r_epik_Metal_State_Penalty>
2.24297

> <b_epik_Metal_Only>
1

> <s_lp_Force_Field>
OPLS_2005

> <r_lp_Energy>
24.4874

> <b_lp_Chiralities_Consistent>
1

> <s_lp_Variant>
AV-unprocessed.smi:537-2

> <Gold.Version>
5.8.1

> <Gold.Id.Protein>
6NUR|6NUR_protein|mol2

> <Gold.PLP.Fitness>
35.1138

> <Gold.PLP.PLP>
-28.0272

> <Gold.PLP.part.hbond>
-3.6923

> <Gold.PLP.part.metal>
0.0000

> <Gold.PLP.part.buried>
-5.0132

> <Gold.PLP.part.nonpolar>
-19.1988

> <Gold.PLP.part.repulsive>
0.3861

> <Gold.PLP.ligand.clash>
0.0000

> <Gold.PLP.ligand.torsion>
0.3213

> <Gold.PLP.Chemscore.Hbond>
2.5760

> <Gold.PLP.Chemscore.CHOScore>
0.0000

> <Gold.PLP.Chemscore.Metal>
0.0000

> <Gold.Chemscore.Hbonds>
donor molecule, donor type, donor heavy atom, donor atom, acceptor molecule, acceptor atom, score
      P1  H  7989  7998       L1     8  1.00
      P1  H  8011  8017       L1    17  0.58
      P1  H 10752 10765       L1    11  1.00

> <Gold.PLP.Chemscore.Internal.Correction>
0.0012

> <Gold.Rescore>
     Score         DG    S(hbond)    S(metal)    S(lipo)     H(rot)  DE(clash)    DE(int)     intcor
     12.37     -14.14       2.32        0.00      43.91       1.64       0.18       1.59       ----

> <Gold.Chemscore.Fitness>
12.3719

> <Gold.Chemscore.DG>
-14.1450

> <Gold.Chemscore.ZeroCoef>
-5.4800

> <Gold.Chemscore.Hbond>
2.3161

> <Gold.Chemscore.Metal>
0.0000

> <Gold.Chemscore.Lipo>
43.9120

> <Gold.Chemscore.Internal_Hbond>
0.0000

> <Gold.Chemscore.DEClash>
0.1792

> <Gold.Chemscore.DEInternal>
1.5940

> <Gold.Chemscore.Rot>
1.6439

> <Gold.Chemscore.Internal.Correction>
   9.000000E+99

> <Gold.Chemscore.Hbonds>
donor molecule, donor type, donor heavy atom, donor atom, acceptor molecule, acceptor atom, score
      P1  H  7989  7998       L1     8  0.97
      P1  H  8011  8017       L1    17  0.16
      P1  H 10752 10765       L1    11  0.90

> <Gold.Chemscore.Hbond.Weighted>
-7.7357

> <Gold.Chemscore.Metal.Weighted>
-0.0000

> <Gold.Chemscore.Lipo.Weighted>
-5.1377

> <Gold.Chemscore.Internal_Hbond.Weighted>
0.0000

> <Gold.Chemscore.DEClash.Weighted>
0.1792

> <Gold.Chemscore.DEInternal.Weighted>
1.5940

> <Gold.Chemscore.Rot.Weighted>
4.2085

> <Gold.Chemscore.Internal.Correction.Weighted>
   9.000000E+99

> <Gold.Protein.RotatedTorsions>
[ 6907 6896 6895 6894 ] final  161.12 input  -60.11 | X-H torsion
[ 7974 7965 7964 7962 ] final   88.33 input  175.53 | X-H torsion
[ 8008 7997 7996 7995 ] final  139.28 input   59.86 | X-H torsion
[ 10167 10162 10161 10158 ] final  -21.66 input  -65.29 | X-H torsion
[ 10718 10713 10712 10709 ] final -175.38 input   66.30 | X-H torsion
[ 10763 10752 10751 10750 ] final -113.82 input  -60.55 | X-H torsion
[ 11005 11000 10999 10996 ] final -166.87 input  -57.11 | X-H torsion

> <Gold.Protein.ActiveResidues>
 VAL166  LYS551  ARG553  GLY616  TRP617  ASP618  TYR619  PRO620  LYS621  CYS622 
 ASP623  PHE694  ASN695  SER759  ASP760  ASP761  ALA762  ILE779  LEU786  VAL792 
 PHE793  MET794  SER795  GLU796  ALA797  LYS798  CYS799  TRP800  GLU811  SER814 

> <Gold.Protein.RotatedAtoms>
  151.9604  133.3693  159.4032 H   0  0  0  0  0  0  0  0  0  0  0  0  # atno 6907 bound_to 6896
  150.6965  134.4247  159.5230 H   0  0  0  0  0  0  0  0  0  0  0  0  # atno 6908 bound_to 6896
  152.1934  134.8651  160.0566 H   0  0  0  0  0  0  0  0  0  0  0  0  # atno 6909 bound_to 6896
  145.5471  139.2292  143.2533 H   0  0  0  0  0  0  0  0  0  0  0  0  # atno 7974 bound_to 7965
  156.2991  140.2372  156.4211 H   0  0  0  0  0  0  0  0  0  0  0  0  # atno 8008 bound_to 7997
  154.8355  140.0431  157.1526 H   0  0  0  0  0  0  0  0  0  0  0  0  # atno 8009 bound_to 7997
  154.9161  140.2997  155.5244 H   0  0  0  0  0  0  0  0  0  0  0  0  # atno 8010 bound_to 7997
  140.7283  143.4607  151.0384 H   0  0  0  0  0  0  0  0  0  0  0  0  # atno 10167 bound_to 10162
  156.7990  130.9545  151.3119 H   0  0  0  0  0  0  0  0  0  0  0  0  # atno 10718 bound_to 10713
  154.8413  135.4440  154.1409 H   0  0  0  0  0  0  0  0  0  0  0  0  # atno 10763 bound_to 10752
  153.2594  135.6934  153.7600 H   0  0  0  0  0  0  0  0  0  0  0  0  # atno 10764 bound_to 10752
  153.6883  135.3391  155.3171 H   0  0  0  0  0  0  0  0  0  0  0  0  # atno 10765 bound_to 10752
  140.5596  134.5346  157.5140 H   0  0  0  0  0  0  0  0  0  0  0  0  # atno 11005 bound_to 11000
  146.1942  140.6293  142.9132 LP  0  0  0  0  0  0  0  0  0  0  0  0  # atno 17320 bound_to 7965
  144.7548  140.5280  143.6777 LP  0  0  0  0  0  0  0  0  0  0  0  0  # atno 17321 bound_to 7965
  139.8291  143.7715  152.3179 LP  0  0  0  0  0  0  0  0  0  0  0  0  # atno 17342 bound_to 10162
  139.7825  144.7439  151.0068 LP  0  0  0  0  0  0  0  0  0  0  0  0  # atno 17343 bound_to 10162
  157.6563  130.8927  149.9736 LP  0  0  0  0  0  0  0  0  0  0  0  0  # atno 17370 bound_to 10713
  156.1113  130.3650  150.0045 LP  0  0  0  0  0  0  0  0  0  0  0  0  # atno 17371 bound_to 10713
  139.9414  134.7780  156.0669 LP  0  0  0  0  0  0  0  0  0  0  0  0  # atno 17394 bound_to 11000
  141.1122  133.6639  156.3007 LP  0  0  0  0  0  0  0  0  0  0  0  0  # atno 17395 bound_to 11000

$$$$
