AV-unprocessed.smi:2027|AV-procd|sdf|8220|dock6
  -GOLD-   2272010493D 1   1.00000     0.00000
 Structure written by MMmdl.
 51 53  0  0  0  0  0  0  0  0  3 V2000
  152.0454  143.6420  160.1403 C   0  0  0  0  0  0  0  0  0  0  0  0
  151.8079  142.7121  158.9629 C   0  0  0  0  0  0  0  0  0  0  0  0
  150.8754  143.0997  157.9741 C   0  0  0  0  0  0  0  0  0  0  0  0
  150.6730  142.2237  156.9141 C   0  0  0  0  0  0  0  0  0  0  0  0
  149.8310  142.3117  155.8034 N   0  3  0  0  0  0  0  0  0  0  0  0
  149.9705  141.1946  155.0371 C   0  0  0  0  0  0  0  0  0  0  0  0
  150.8877  140.3924  155.6430 N   0  0  0  0  0  0  0  0  0  0  0  0
  151.3946  139.0746  155.2333 C   0  0  0  0  0  0  0  0  0  0  0  0
  150.2763  138.0648  154.8940 C   0  0  1  0  0  0  0  0  0  0  0  0
  149.7293  138.4582  153.6513 O   0  0  0  0  0  0  0  0  0  0  0  0
  150.7750  136.6045  154.7968 C   0  0  0  0  0  0  0  0  0  0  0  0
  149.6927  135.5937  154.6379 N   0  3  2  0  0  0  0  0  0  0  0  0
  148.4515  135.9513  155.3656 C   0  0  0  0  0  0  0  0  0  0  0  0
  150.1362  134.2142  154.9717 C   0  0  0  0  0  0  0  0  0  0  0  0
  149.1966  133.1683  154.4304 C   0  0  0  0  0  0  0  0  0  0  0  0
  149.1627  131.7781  154.7428 C   0  0  0  0  0  0  0  0  0  0  0  0
  148.2240  131.1246  154.0797 N   0  0  0  0  0  0  0  0  0  0  0  0
  147.6182  132.0714  153.3341 N   0  0  0  0  0  0  0  0  0  0  0  0
  146.5185  131.7027  152.4686 C   0  0  0  0  0  0  0  0  0  0  0  0
  148.1803  133.3146  153.5286 C   0  0  0  0  0  0  0  0  0  0  0  0
  151.3636  141.0002  156.8125 C   0  0  0  0  0  0  0  0  0  0  0  0
  152.2958  140.6102  157.7724 C   0  0  0  0  0  0  0  0  0  0  0  0
  152.5100  141.4833  158.8622 C   0  0  0  0  0  0  0  0  0  0  0  0
  153.5105  141.0748  159.9303 C   0  0  0  0  0  0  0  0  0  0  0  0
  151.4029  144.5216  160.0904 H   0  0  0  0  0  0  0  0  0  0  0  0
  153.0804  143.9843  160.1545 H   0  0  0  0  0  0  0  0  0  0  0  0
  151.8360  143.1316  161.0806 H   0  0  0  0  0  0  0  0  0  0  0  0
  150.3394  144.0352  158.0433 H   0  0  0  0  0  0  0  0  0  0  0  0
  149.4465  140.9830  154.1159 H   0  0  0  0  0  0  0  0  0  0  0  0
  152.0297  139.2325  154.3604 H   0  0  0  0  0  0  0  0  0  0  0  0
  152.0501  138.6893  156.0150 H   0  0  0  0  0  0  0  0  0  0  0  0
  149.5004  138.1514  155.6541 H   0  0  0  0  0  0  0  0  0  0  0  0
  149.4520  137.6884  153.1788 H   0  0  0  0  0  0  0  0  0  0  0  0
  151.4531  136.5513  153.9469 H   0  0  0  0  0  0  0  0  0  0  0  0
  151.3632  136.3414  155.6768 H   0  0  0  0  0  0  0  0  0  0  0  0
  148.6388  136.0448  156.4361 H   0  0  0  0  0  0  0  0  0  0  0  0
  147.6844  135.1896  155.2213 H   0  0  0  0  0  0  0  0  0  0  0  0
  148.0320  136.8898  155.0062 H   0  0  0  0  0  0  0  0  0  0  0  0
  151.1495  134.0658  154.5950 H   0  0  0  0  0  0  0  0  0  0  0  0
  150.2041  134.1145  156.0557 H   0  0  0  0  0  0  0  0  0  0  0  0
  149.7986  131.2255  155.4190 H   0  0  0  0  0  0  0  0  0  0  0  0
  146.1659  132.5762  151.9193 H   0  0  0  0  0  0  0  0  0  0  0  0
  145.6971  131.3034  153.0643 H   0  0  0  0  0  0  0  0  0  0  0  0
  146.8466  130.9455  151.7558 H   0  0  0  0  0  0  0  0  0  0  0  0
  147.8186  134.1901  153.0092 H   0  0  0  0  0  0  0  0  0  0  0  0
  152.8343  139.6770  157.7006 H   0  0  0  0  0  0  0  0  0  0  0  0
  153.9798  140.1191  159.6941 H   0  0  0  0  0  0  0  0  0  0  0  0
  153.0177  140.9720  160.8972 H   0  0  0  0  0  0  0  0  0  0  0  0
  154.3007  141.8202  160.0209 H   0  0  0  0  0  0  0  0  0  0  0  0
  149.4552  135.5772  153.6563 H   0  0  0  0  0  0  0  0  0  0  0  0
  149.2073  143.0776  155.5812 H   0  0  0  0  0  0  0  0  0  0  0  0
  1  2  1  0  0  0  0
  1 25  1  0  0  0  0
  1 26  1  0  0  0  0
  1 27  1  0  0  0  0
  2 23  1  0  0  0  0
  2  3  2  0  0  0  0
  3  4  1  0  0  0  0
  3 28  1  0  0  0  0
  4 21  2  0  0  0  0
  4  5  1  0  0  0  0
  5  6  2  0  0  0  0
  5 51  1  0  0  0  0
  6  7  1  0  0  0  0
  6 29  1  0  0  0  0
  7  8  1  0  0  0  0
  7 21  1  0  0  0  0
  8  9  1  0  0  0  0
  8 30  1  0  0  0  0
  8 31  1  0  0  0  0
  9 10  1  0  0  0  0
  9 11  1  0  0  0  0
  9 32  1  0  0  0  0
 10 33  1  0  0  0  0
 11 12  1  0  0  0  0
 11 34  1  0  0  0  0
 11 35  1  0  0  0  0
 12 13  1  0  0  0  0
 12 14  1  0  0  0  0
 12 50  1  0  0  0  0
 13 36  1  0  0  0  0
 13 37  1  0  0  0  0
 13 38  1  0  0  0  0
 14 15  1  0  0  0  0
 14 39  1  0  0  0  0
 14 40  1  0  0  0  0
 15 20  2  0  0  0  0
 15 16  1  0  0  0  0
 16 17  2  0  0  0  0
 16 41  1  0  0  0  0
 17 18  1  0  0  0  0
 18 19  1  0  0  0  0
 18 20  1  0  0  0  0
 19 42  1  0  0  0  0
 19 43  1  0  0  0  0
 19 44  1  0  0  0  0
 20 45  1  0  0  0  0
 21 22  1  0  0  0  0
 22 23  2  0  0  0  0
 22 46  1  0  0  0  0
 23 24  1  0  0  0  0
 24 47  1  0  0  0  0
 24 48  1  0  0  0  0
 24 49  1  0  0  0  0
M  CHG  1   5   1
M  CHG  1  12   1
M  END
> <s_m_source_file>
AV-unprocessed.smi

> <i_m_source_file_index>
2027

> <i_lp_mmshare_version>
43012

> <i_f3d_flags>
0

> <s_epik_input>
W0NIM11jKFtjSF0xKWMoW0NIM10pW2NIXWMoYzEyKW4oW2NIXW4yKVtDSDJdW0NASF0oW09IXSlbQ0gyXU4oW0NIM10pW0NIMl1jM1tjSF1ubihbQ0gzXSlbY0hdMw==

> <s_epik_cmdline>
J2VwaWtfcHl0aG9uJywgJy1waCcsICc3LjAnLCAnLXRuJywgJzgnLCAnLW1hJywgJzIwMCcsICctbWV0YWxfYmluZGluZycsICctaW1hZScsICc8aW5maWxlLm1hZT4nLCAnLW9tYWUnLCAnPG91dGZpbGUubWFlPic=

> <r_lp_tautomer_probability>
1

> <r_epik_Ionization_Penalty>
1.77469

> <r_epik_Ionization_Penalty_Charging>
1.77463

> <r_epik_Ionization_Penalty_Neutral>
6.41153e-05

> <r_epik_State_Penalty>
1.85225

> <r_epik_Charging_Adjusted_Penalty>
3.62688

> <i_epik_Tot_Q>
2

> <i_epik_Tot_abs_Q>
2

> <r_epik_Metal_State_Penalty>
1.92669

> <b_epik_Metal_Only>
0

> <s_lp_Force_Field>
OPLS_2005

> <r_lp_Energy>
22.5678

> <b_lp_Chiralities_Consistent>
1

> <s_lp_Variant>
AV-unprocessed.smi:2027-12

> <Gold.Version>
5.8.1

> <Gold.Id.Protein>
6NUR|6NUR_protein|mol2

> <Gold.PLP.Fitness>
65.8246

> <Gold.PLP.PLP>
-49.0123

> <Gold.PLP.part.hbond>
-4.0000

> <Gold.PLP.part.metal>
0.0000

> <Gold.PLP.part.buried>
-4.8161

> <Gold.PLP.part.nonpolar>
-41.6001

> <Gold.PLP.part.repulsive>
0.2373

> <Gold.PLP.ligand.clash>
0.0000

> <Gold.PLP.ligand.torsion>
0.6551

> <Gold.PLP.Chemscore.Hbond>
4.9913

> <Gold.PLP.Chemscore.CHOScore>
1.0000

> <Gold.PLP.Chemscore.Metal>
0.0000

> <Gold.Chemscore.Hbonds>
donor molecule, donor type, donor heavy atom, donor atom, acceptor molecule, acceptor atom, score
      L1  H     5    51       P1  8028  1.95
      L1  H    10    33       P1  7948  1.00
      L1  H    12    50       P1  7948  2.00
      L1  C    20    45       P1  7948  0.92

> <Gold.PLP.Chemscore.Internal.Correction>
0.1488

> <Gold.Rescore>
     Score         DG    S(hbond)    S(metal)    S(lipo)     H(rot)  DE(clash)    DE(int)     intcor
     19.79     -21.22       2.71        0.00     113.75       2.58       0.07       1.37       ----

> <Gold.Chemscore.Fitness>
19.7893

> <Gold.Chemscore.DG>
-21.2211

> <Gold.Chemscore.ZeroCoef>
-5.4800

> <Gold.Chemscore.Hbond>
2.7084

> <Gold.Chemscore.Metal>
0.0000

> <Gold.Chemscore.Lipo>
113.7514

> <Gold.Chemscore.Internal_Hbond>
0.0000

> <Gold.Chemscore.DEClash>
0.0666

> <Gold.Chemscore.DEInternal>
1.3652

> <Gold.Chemscore.Rot>
2.5836

> <Gold.Chemscore.Internal.Correction>
   9.000000E+99

> <Gold.Chemscore.Hbonds>
donor molecule, donor type, donor heavy atom, donor atom, acceptor molecule, acceptor atom, score
      L1  H     5    51       P1  8028  0.93
      L1  H    10    33       P1  7948  0.90
      L1  H    12    50       P1  7948  0.30

> <Gold.Chemscore.Hbond.Weighted>
-9.0461

> <Gold.Chemscore.Metal.Weighted>
-0.0000

> <Gold.Chemscore.Lipo.Weighted>
-13.3089

> <Gold.Chemscore.Internal_Hbond.Weighted>
0.0000

> <Gold.Chemscore.DEClash.Weighted>
0.0666

> <Gold.Chemscore.DEInternal.Weighted>
1.3652

> <Gold.Chemscore.Rot.Weighted>
6.6139

> <Gold.Chemscore.Internal.Correction.Weighted>
   9.000000E+99

> <Gold.Protein.RotatedTorsions>
[ 6907 6896 6895 6894 ] final  102.06 input  -60.11 | X-H torsion
[ 7974 7965 7964 7962 ] final  -10.45 input  175.53 | X-H torsion
[ 8008 7997 7996 7995 ] final  -68.42 input   59.86 | X-H torsion
[ 10167 10162 10161 10158 ] final  -93.34 input  -65.29 | X-H torsion
[ 10718 10713 10712 10709 ] final  139.11 input   66.30 | X-H torsion
[ 10763 10752 10751 10750 ] final  142.45 input  -60.55 | X-H torsion
[ 11005 11000 10999 10996 ] final  -76.33 input  -57.11 | X-H torsion

> <Gold.Protein.ActiveResidues>
 VAL166  LYS551  ARG553  GLY616  TRP617  ASP618  TYR619  PRO620  LYS621  CYS622 
 ASP623  PHE694  ASN695  SER759  ASP760  ASP761  ALA762  ILE779  LEU786  VAL792 
 PHE793  MET794  SER795  GLU796  ALA797  LYS798  CYS799  TRP800  GLU811  SER814 

> <Gold.Protein.RotatedAtoms>
  152.5334  134.0033  159.7904 H   0  0  0  0  0  0  0  0  0  0  0  0  # atno 6907 bound_to 6896
  151.0248  133.5836  159.2674 H   0  0  0  0  0  0  0  0  0  0  0  0  # atno 6908 bound_to 6896
  151.2862  135.0735  159.9241 H   0  0  0  0  0  0  0  0  0  0  0  0  # atno 6909 bound_to 6896
  146.2220  140.2765  142.8360 H   0  0  0  0  0  0  0  0  0  0  0  0  # atno 7974 bound_to 7965
  154.4866  140.0873  156.7501 H   0  0  0  0  0  0  0  0  0  0  0  0  # atno 8008 bound_to 7997
  155.4334  140.3450  155.4264 H   0  0  0  0  0  0  0  0  0  0  0  0  # atno 8009 bound_to 7997
  156.1271  140.1490  156.9109 H   0  0  0  0  0  0  0  0  0  0  0  0  # atno 8010 bound_to 7997
  140.3256  143.3024  151.9998 H   0  0  0  0  0  0  0  0  0  0  0  0  # atno 10167 bound_to 10162
  157.4179  131.1035  151.0384 H   0  0  0  0  0  0  0  0  0  0  0  0  # atno 10718 bound_to 10713
  153.9561  135.2965  155.3436 H   0  0  0  0  0  0  0  0  0  0  0  0  # atno 10763 bound_to 10752
  154.7400  135.5029  153.9110 H   0  0  0  0  0  0  0  0  0  0  0  0  # atno 10764 bound_to 10752
  153.0970  135.6724  153.9854 H   0  0  0  0  0  0  0  0  0  0  0  0  # atno 10765 bound_to 10752
  141.1653  133.6980  156.7653 H   0  0  0  0  0  0  0  0  0  0  0  0  # atno 11005 bound_to 11000
  144.9229  140.7888  143.5737 LP  0  0  0  0  0  0  0  0  0  0  0  0  # atno 17320 bound_to 7965
  145.2703  139.1957  143.4845 LP  0  0  0  0  0  0  0  0  0  0  0  0  # atno 17321 bound_to 7965
  139.4866  144.6276  151.7133 LP  0  0  0  0  0  0  0  0  0  0  0  0  # atno 17342 bound_to 10162
  140.5444  144.0527  150.6101 LP  0  0  0  0  0  0  0  0  0  0  0  0  # atno 17343 bound_to 10162
  157.1325  130.6108  149.5533 LP  0  0  0  0  0  0  0  0  0  0  0  0  # atno 17370 bound_to 10713
  155.9871  130.4909  150.7110 LP  0  0  0  0  0  0  0  0  0  0  0  0  # atno 17371 bound_to 10713
  140.2504  134.8545  157.3661 LP  0  0  0  0  0  0  0  0  0  0  0  0  # atno 17394 bound_to 11000
  140.1708  134.4611  155.7833 LP  0  0  0  0  0  0  0  0  0  0  0  0  # atno 17395 bound_to 11000

$$$$
