AV-unprocessed.smi:907|AV-procd|sdf|4113|dock3
  -GOLD-   22720 2 13D 1   1.00000     0.00000
 Structure written by MMmdl.
 54 57  0  0  0  0  0  0  0  0  3 V2000
  150.0857  140.0372  154.0964 O   0  0  0  0  0  0  0  0  0  0  0  0
  149.2667  140.8850  154.4533 C   0  0  0  0  0  0  0  0  0  0  0  0
  149.5253  141.7544  155.4456 N   0  0  0  0  0  0  0  0  0  0  0  0
  150.7863  141.8399  156.1748 C   0  0  0  0  0  0  0  0  0  0  0  0
  150.5749  141.7321  157.6947 C   0  0  0  0  0  0  0  0  0  0  0  0
  151.0747  142.9594  158.4318 C   0  0  0  0  0  0  0  0  0  0  0  0
  152.1174  142.8888  159.3811 C   0  0  0  0  0  0  0  0  0  0  0  0
  152.5419  144.0680  160.0281 C   0  0  0  0  0  0  0  0  0  0  0  0
  151.9168  145.2921  159.7117 C   0  0  0  0  0  0  0  0  0  0  0  0
  150.8817  145.3055  158.7544 C   0  0  0  0  0  0  0  0  0  0  0  0
  150.5032  144.1543  158.1563 N   0  3  0  0  0  0  0  0  0  0  0  0
  148.0170  140.9722  153.9337 N   0  0  0  0  0  0  0  0  0  0  0  0
  147.2104  139.8515  153.4325 C   0  0  0  0  0  0  0  0  0  0  0  0
  146.1128  139.5178  154.4617 C   0  0  0  0  0  0  0  0  0  0  0  0
  145.2787  140.7091  154.7943 N   0  3  0  0  0  0  0  0  0  0  0  0
  144.2164  140.4213  155.8010 C   0  0  1  0  0  0  0  0  0  0  0  0
  143.5212  139.0486  155.6237 C   0  0  0  0  0  0  0  0  0  0  0  0
  143.5829  138.4391  157.0369 C   0  0  1  0  0  0  0  0  0  0  0  0
  145.0173  137.9516  157.3026 C   0  0  0  0  0  0  0  0  0  0  0  0
  145.7951  139.2710  157.4528 C   0  0  0  0  0  0  0  0  0  0  0  0
  144.6986  140.3438  157.2717 C   0  0  2  0  0  0  0  0  0  0  0  0
  143.5015  139.6689  157.9331 C   0  0  0  0  0  0  0  0  0  0  0  0
  146.1111  141.8909  155.1610 C   0  0  0  0  0  0  0  0  0  0  0  0
  147.1913  142.1697  154.1016 C   0  0  0  0  0  0  0  0  0  0  0  0
  148.7984  142.4032  155.7105 H   0  0  0  0  0  0  0  0  0  0  0  0
  151.4667  141.0598  155.8286 H   0  0  0  0  0  0  0  0  0  0  0  0
  151.2570  142.7923  155.9292 H   0  0  0  0  0  0  0  0  0  0  0  0
  149.5167  141.5896  157.9174 H   0  0  0  0  0  0  0  0  0  0  0  0
  151.0911  140.8551  158.0881 H   0  0  0  0  0  0  0  0  0  0  0  0
  152.5887  141.9440  159.6106 H   0  0  0  0  0  0  0  0  0  0  0  0
  153.3383  144.0338  160.7573 H   0  0  0  0  0  0  0  0  0  0  0  0
  152.2278  146.2067  160.1954 H   0  0  0  0  0  0  0  0  0  0  0  0
  150.3496  146.1953  158.4510 H   0  0  0  0  0  0  0  0  0  0  0  0
  146.7543  140.1390  152.4839 H   0  0  0  0  0  0  0  0  0  0  0  0
  147.7899  138.9542  153.2163 H   0  0  0  0  0  0  0  0  0  0  0  0
  145.4910  138.7204  154.0561 H   0  0  0  0  0  0  0  0  0  0  0  0
  146.5686  139.1319  155.3750 H   0  0  0  0  0  0  0  0  0  0  0  0
  143.4647  141.2101  155.7292 H   0  0  0  0  0  0  0  0  0  0  0  0
  142.4890  139.1834  155.2981 H   0  0  0  0  0  0  0  0  0  0  0  0
  144.0146  138.3979  154.9010 H   0  0  0  0  0  0  0  0  0  0  0  0
  142.8227  137.6796  157.2218 H   0  0  0  0  0  0  0  0  0  0  0  0
  145.0658  137.3705  158.2246 H   0  0  0  0  0  0  0  0  0  0  0  0
  145.4031  137.3282  156.4950 H   0  0  0  0  0  0  0  0  0  0  0  0
  146.2382  139.3381  158.4472 H   0  0  0  0  0  0  0  0  0  0  0  0
  146.6036  139.3607  156.7272 H   0  0  0  0  0  0  0  0  0  0  0  0
  144.9545  141.3109  157.7053 H   0  0  0  0  0  0  0  0  0  0  0  0
  142.5694  140.2257  157.8208 H   0  0  0  0  0  0  0  0  0  0  0  0
  143.6584  139.4455  158.9901 H   0  0  0  0  0  0  0  0  0  0  0  0
  145.4916  142.7799  155.2721 H   0  0  0  0  0  0  0  0  0  0  0  0
  146.5825  141.7146  156.1294 H   0  0  0  0  0  0  0  0  0  0  0  0
  147.7766  143.0464  154.3834 H   0  0  0  0  0  0  0  0  0  0  0  0
  146.7248  142.4230  153.1482 H   0  0  0  0  0  0  0  0  0  0  0  0
  144.7991  140.9575  153.9409 H   0  0  0  0  0  0  0  0  0  0  0  0
  149.7520  144.1884  157.4666 H   0  0  0  0  0  0  0  0  0  0  0  0
  1  2  2  0  0  0  0
  2  3  1  0  0  0  0
  2 12  1  0  0  0  0
  3  4  1  0  0  0  0
  3 25  1  0  0  0  0
  4  5  1  0  0  0  0
  4 26  1  0  0  0  0
  4 27  1  0  0  0  0
  5  6  1  0  0  0  0
  5 28  1  0  0  0  0
  5 29  1  0  0  0  0
  6 11  1  0  0  0  0
  6  7  2  0  0  0  0
  7  8  1  0  0  0  0
  7 30  1  0  0  0  0
  8  9  2  0  0  0  0
  8 31  1  0  0  0  0
  9 10  1  0  0  0  0
  9 32  1  0  0  0  0
 10 11  2  0  0  0  0
 10 33  1  0  0  0  0
 11 54  1  0  0  0  0
 12 24  1  0  0  0  0
 12 13  1  0  0  0  0
 13 14  1  0  0  0  0
 13 34  1  0  0  0  0
 13 35  1  0  0  0  0
 14 15  1  0  0  0  0
 14 36  1  0  0  0  0
 14 37  1  0  0  0  0
 15 16  1  0  0  0  0
 15 23  1  0  0  0  0
 15 53  1  0  0  0  0
 16 21  1  0  0  0  0
 16 17  1  0  0  0  0
 16 38  1  0  0  0  0
 17 18  1  0  0  0  0
 17 39  1  0  0  0  0
 17 40  1  0  0  0  0
 18 22  1  0  0  0  0
 18 19  1  0  0  0  0
 18 41  1  0  0  0  0
 19 20  1  0  0  0  0
 19 42  1  0  0  0  0
 19 43  1  0  0  0  0
 20 21  1  0  0  0  0
 20 44  1  0  0  0  0
 20 45  1  0  0  0  0
 21 22  1  0  0  0  0
 21 46  1  0  0  0  0
 22 47  1  0  0  0  0
 22 48  1  0  0  0  0
 23 24  1  0  0  0  0
 23 49  1  0  0  0  0
 23 50  1  0  0  0  0
 24 51  1  0  0  0  0
 24 52  1  0  0  0  0
M  CHG  1  11   1
M  CHG  1  15   1
M  END
> <s_m_source_file>
AV-unprocessed.smi

> <i_m_source_file_index>
907

> <i_lp_mmshare_version>
43012

> <i_f3d_flags>
0

> <s_epik_input>
W0NIMl0xW0NIMl1bQ0BASF0oW0NIMl0yKVtDQEBIXShbQ0gyXVtDQEhdMTIpTihbQ0gyXVtDSDJdMylbQ0gyXVtDSDJdTjNDKD1PKVtOSF1bQ0gyXVtDSDJdYzRbY0hdW2NIXVtjSF1bY0hdbjQ=

> <s_epik_cmdline>
J2VwaWtfcHl0aG9uJywgJy1waCcsICc3LjAnLCAnLXRuJywgJzgnLCAnLW1hJywgJzIwMCcsICctbWV0YWxfYmluZGluZycsICctaW1hZScsICc8aW5maWxlLm1hZT4nLCAnLW9tYWUnLCAnPG91dGZpbGUubWFlPic=

> <r_epik_Ionization_Penalty>
1.63018

> <r_epik_Ionization_Penalty_Charging>
1.63015

> <r_epik_Ionization_Penalty_Neutral>
2.64641e-05

> <r_epik_State_Penalty>
1.72761

> <r_epik_Charging_Adjusted_Penalty>
3.35777

> <i_epik_Tot_Q>
2

> <i_epik_Tot_abs_Q>
2

> <r_epik_Metal_State_Penalty>
1.76501

> <b_epik_Metal_Only>
0

> <s_lp_Force_Field>
OPLS_2005

> <r_lp_Energy>
102.542

> <b_lp_Chiralities_Consistent>
1

> <s_lp_Variant>
AV-unprocessed.smi:907-8

> <Gold.Version>
5.8.1

> <Gold.Id.Protein>
6NUR|6NUR_protein|mol2

> <Gold.PLP.Fitness>
53.6184

> <Gold.PLP.PLP>
-40.9006

> <Gold.PLP.part.hbond>
-4.2050

> <Gold.PLP.part.metal>
0.0000

> <Gold.PLP.part.buried>
-6.4312

> <Gold.PLP.part.nonpolar>
-32.5317

> <Gold.PLP.part.repulsive>
1.2978

> <Gold.PLP.ligand.clash>
0.8994

> <Gold.PLP.ligand.torsion>
0.9250

> <Gold.PLP.Chemscore.Hbond>
5.1132

> <Gold.PLP.Chemscore.CHOScore>
0.0000

> <Gold.PLP.Chemscore.Metal>
0.0000

> <Gold.Chemscore.Hbonds>
donor molecule, donor type, donor heavy atom, donor atom, acceptor molecule, acceptor atom, score
      L1  H     3    25       P1  8028  0.16
      L1  H    11    54       P1  8028  1.92
      L1  H    15    53       P1 10175  2.00
      P1  H  7989  7998       L1     1  0.96

> <Gold.PLP.Chemscore.Internal.Correction>
0.1276

> <Gold.Rescore>
     Score         DG    S(hbond)    S(metal)    S(lipo)     H(rot)  DE(clash)    DE(int)     intcor
     18.49     -20.22       2.24        0.00      93.94       1.46       0.49       1.25       ----

> <Gold.Chemscore.Fitness>
18.4883

> <Gold.Chemscore.DG>
-20.2235

> <Gold.Chemscore.ZeroCoef>
-5.4800

> <Gold.Chemscore.Hbond>
2.2404

> <Gold.Chemscore.Metal>
0.0000

> <Gold.Chemscore.Lipo>
93.9419

> <Gold.Chemscore.Internal_Hbond>
0.0000

> <Gold.Chemscore.DEClash>
0.4869

> <Gold.Chemscore.DEInternal>
1.2483

> <Gold.Chemscore.Rot>
1.4572

> <Gold.Chemscore.Internal.Correction>
   9.000000E+99

> <Gold.Chemscore.Hbonds>
donor molecule, donor type, donor heavy atom, donor atom, acceptor molecule, acceptor atom, score
      L1  H     3    25       P1  8028  0.16
      L1  H    11    54       P1  8028  0.31
      L1  H    15    53       P1 10175  0.84
      P1  H  7989  7998       L1     1  0.69

> <Gold.Chemscore.Hbond.Weighted>
-7.4828

> <Gold.Chemscore.Metal.Weighted>
-0.0000

> <Gold.Chemscore.Lipo.Weighted>
-10.9912

> <Gold.Chemscore.Internal_Hbond.Weighted>
0.0000

> <Gold.Chemscore.DEClash.Weighted>
0.4869

> <Gold.Chemscore.DEInternal.Weighted>
1.2483

> <Gold.Chemscore.Rot.Weighted>
3.7305

> <Gold.Chemscore.Internal.Correction.Weighted>
   9.000000E+99

> <Gold.Protein.RotatedTorsions>
[ 6907 6896 6895 6894 ] final   63.46 input  -60.11 | X-H torsion
[ 7974 7965 7964 7962 ] final  152.32 input  175.53 | X-H torsion
[ 8008 7997 7996 7995 ] final    6.82 input   59.86 | X-H torsion
[ 10167 10162 10161 10158 ] final  -47.48 input  -65.29 | X-H torsion
[ 10718 10713 10712 10709 ] final  -18.68 input   66.30 | X-H torsion
[ 10763 10752 10751 10750 ] final -149.26 input  -60.55 | X-H torsion
[ 11005 11000 10999 10996 ] final   39.24 input  -57.11 | X-H torsion

> <Gold.Protein.ActiveResidues>
 VAL166  LYS551  ARG553  GLY616  TRP617  ASP618  TYR619  PRO620  LYS621  CYS622 
 ASP623  PHE694  ASN695  SER759  ASP760  ASP761  ALA762  ILE779  LEU786  VAL792 
 PHE793  MET794  SER795  GLU796  ALA797  LYS798  CYS799  TRP800  GLU811  SER814 

> <Gold.Protein.RotatedAtoms>
  152.4255  134.5877  159.9965 H   0  0  0  0  0  0  0  0  0  0  0  0  # atno 6907 bound_to 6896
  151.6014  133.3350  159.3056 H   0  0  0  0  0  0  0  0  0  0  0  0  # atno 6908 bound_to 6896
  150.8144  134.7355  159.6782 H   0  0  0  0  0  0  0  0  0  0  0  0  # atno 6909 bound_to 6896
  144.8230  139.6654  143.6092 H   0  0  0  0  0  0  0  0  0  0  0  0  # atno 7974 bound_to 7965
  154.7459  140.2758  155.6333 H   0  0  0  0  0  0  0  0  0  0  0  0  # atno 8008 bound_to 7997
  156.2884  140.2688  156.2126 H   0  0  0  0  0  0  0  0  0  0  0  0  # atno 8009 bound_to 7997
  155.0198  140.0371  157.2422 H   0  0  0  0  0  0  0  0  0  0  0  0  # atno 8010 bound_to 7997
  140.6773  143.2782  151.3933 H   0  0  0  0  0  0  0  0  0  0  0  0  # atno 10167 bound_to 10162
  156.5562  130.4714  149.6428 H   0  0  0  0  0  0  0  0  0  0  0  0  # atno 10718 bound_to 10713
  154.8187  135.3313  154.7101 H   0  0  0  0  0  0  0  0  0  0  0  0  # atno 10763 bound_to 10752
  153.7738  135.6923  153.4906 H   0  0  0  0  0  0  0  0  0  0  0  0  # atno 10764 bound_to 10752
  153.2027  135.4510  155.0234 H   0  0  0  0  0  0  0  0  0  0  0  0  # atno 10765 bound_to 10752
  140.2047  134.3827  155.8078 H   0  0  0  0  0  0  0  0  0  0  0  0  # atno 11005 bound_to 11000
  146.2536  139.6252  142.9410 LP  0  0  0  0  0  0  0  0  0  0  0  0  # atno 17320 bound_to 7965
  145.5062  141.0436  143.2513 LP  0  0  0  0  0  0  0  0  0  0  0  0  # atno 17321 bound_to 7965
  139.6073  144.1170  152.2262 LP  0  0  0  0  0  0  0  0  0  0  0  0  # atno 17342 bound_to 10162
  140.0573  144.5884  150.7290 LP  0  0  0  0  0  0  0  0  0  0  0  0  # atno 17343 bound_to 10162
  156.2840  130.7086  151.1918 LP  0  0  0  0  0  0  0  0  0  0  0  0  # atno 17370 bound_to 10713
  157.7378  131.0548  150.5336 LP  0  0  0  0  0  0  0  0  0  0  0  0  # atno 17371 bound_to 10713
  141.2227  133.7112  156.8317 LP  0  0  0  0  0  0  0  0  0  0  0  0  # atno 17394 bound_to 11000
  140.2016  134.8893  157.3175 LP  0  0  0  0  0  0  0  0  0  0  0  0  # atno 17395 bound_to 11000

$$$$
