AV-unprocessed.smi:1715|AV-procd|sdf|6911|dock10
  -GOLD-   22720 8113D 1   1.00000     0.00000
 Structure written by MMmdl.
 40 41  0  0  0  0  0  0  0  0  1 V2000
  151.6913  137.5913  156.0111 C   0  0  0  0  0  0  0  0  0  0  0  0
  151.8638  138.8144  155.0944 C   0  0  1  0  0  0  0  0  0  0  0  0
  150.7008  139.0036  154.1000 C   0  0  0  0  0  0  0  0  0  0  0  0
  149.4837  139.4960  154.7372 N   0  0  0  0  0  0  0  0  0  0  0  0
  148.4141  139.6641  153.7549 C   0  0  0  0  0  0  0  0  0  0  0  0
  147.1586  138.8084  154.0073 C   0  0  0  0  0  0  0  0  0  0  0  0
  147.1505  137.6182  153.1655 N   0  0  0  0  0  0  0  0  0  0  0  0
  146.0559  137.0627  152.6271 C   0  0  0  0  0  0  0  0  0  0  0  0
  144.9178  137.5038  152.7893 O   0  0  0  0  0  0  0  0  0  0  0  0
  146.3672  135.9769  151.9001 N   0  0  0  0  0  0  0  0  0  0  0  0
  145.4781  135.1327  151.1882 C   0  0  0  0  0  0  0  0  0  0  0  0
  145.7667  133.7951  150.8034 C   0  0  0  0  0  0  0  0  0  0  0  0
  144.7500  133.2494  150.1516 N   0  0  0  0  0  0  0  0  0  0  0  0
  143.8155  134.2259  150.1156 N   0  0  0  0  0  0  0  0  0  0  0  0
  144.2149  135.3902  150.7342 C   0  0  0  0  0  0  0  0  0  0  0  0
  149.7900  140.7313  155.4527 C   0  0  0  0  0  0  0  0  0  0  0  0
  150.9119  140.5340  156.4888 C   0  0  2  0  0  0  0  0  0  0  0  0
  151.2995  141.8472  157.1764 C   0  0  0  0  0  0  0  0  0  0  0  0
  152.0718  140.0134  155.8423 O   0  0  0  0  0  0  0  0  0  0  0  0
  142.9200  134.0845  149.6699 H   0  0  0  0  0  0  0  0  0  0  0  0
  151.6500  136.6719  155.4264 H   0  0  0  0  0  0  0  0  0  0  0  0
  150.7745  137.6438  156.5980 H   0  0  0  0  0  0  0  0  0  0  0  0
  152.5279  137.5044  156.7045 H   0  0  0  0  0  0  0  0  0  0  0  0
  152.7747  138.6526  154.5173 H   0  0  0  0  0  0  0  0  0  0  0  0
  151.0127  139.7075  153.3266 H   0  0  0  0  0  0  0  0  0  0  0  0
  150.5007  138.0598  153.5913 H   0  0  0  0  0  0  0  0  0  0  0  0
  148.1333  140.7166  153.6932 H   0  0  0  0  0  0  0  0  0  0  0  0
  148.8038  139.4013  152.7704 H   0  0  0  0  0  0  0  0  0  0  0  0
  147.0935  138.5253  155.0594 H   0  0  0  0  0  0  0  0  0  0  0  0
  146.2536  139.3697  153.7782 H   0  0  0  0  0  0  0  0  0  0  0  0
  148.0442  137.1873  152.9791 H   0  0  0  0  0  0  0  0  0  0  0  0
  147.3439  135.7263  151.8513 H   0  0  0  0  0  0  0  0  0  0  0  0
  146.6616  133.2143  150.9723 H   0  0  0  0  0  0  0  0  0  0  0  0
  143.5809  136.2626  150.7899 H   0  0  0  0  0  0  0  0  0  0  0  0
  150.0806  141.5069  154.7421 H   0  0  0  0  0  0  0  0  0  0  0  0
  148.9043  141.0978  155.9705 H   0  0  0  0  0  0  0  0  0  0  0  0
  150.5800  139.8326  157.2549 H   0  0  0  0  0  0  0  0  0  0  0  0
  150.4500  142.2789  157.7061 H   0  0  0  0  0  0  0  0  0  0  0  0
  151.6525  142.5826  156.4528 H   0  0  0  0  0  0  0  0  0  0  0  0
  152.0963  141.6857  157.9027 H   0  0  0  0  0  0  0  0  0  0  0  0
  1  2  1  0  0  0  0
  1 21  1  0  0  0  0
  1 22  1  0  0  0  0
  1 23  1  0  0  0  0
  2 19  1  0  0  0  0
  2  3  1  0  0  0  0
  2 24  1  0  0  0  0
  3  4  1  0  0  0  0
  3 25  1  0  0  0  0
  3 26  1  0  0  0  0
  4  5  1  0  0  0  0
  4 16  1  0  0  0  0
  5  6  1  0  0  0  0
  5 27  1  0  0  0  0
  5 28  1  0  0  0  0
  6  7  1  0  0  0  0
  6 29  1  0  0  0  0
  6 30  1  0  0  0  0
  7  8  1  0  0  0  0
  7 31  1  0  0  0  0
  8  9  2  0  0  0  0
  8 10  1  0  0  0  0
 10 11  1  0  0  0  0
 10 32  1  0  0  0  0
 11 15  2  0  0  0  0
 11 12  1  0  0  0  0
 12 13  2  0  0  0  0
 12 33  1  0  0  0  0
 13 14  1  0  0  0  0
 14 20  1  0  0  0  0
 14 15  1  0  0  0  0
 15 34  1  0  0  0  0
 16 17  1  0  0  0  0
 16 35  1  0  0  0  0
 16 36  1  0  0  0  0
 17 18  1  0  0  0  0
 17 19  1  0  0  0  0
 17 37  1  0  0  0  0
 18 38  1  0  0  0  0
 18 39  1  0  0  0  0
 18 40  1  0  0  0  0
M  END
> <s_m_source_file>
AV-unprocessed.smi

> <i_m_source_file_index>
1715

> <i_lp_mmshare_version>
43012

> <i_f3d_flags>
0

> <s_epik_input>
W0NIM11bQ0BASF0xW0NIMl1OKFtDSDJdW0NASF0oTzEpW0NIM10pW0NIMl1bQ0gyXVtOSF1DKD1PKVtOSF1jMltjSF1uW25IXVtjSF0y

> <s_epik_cmdline>
J2VwaWtfcHl0aG9uJywgJy1waCcsICc3LjAnLCAnLXRuJywgJzgnLCAnLW1hJywgJzIwMCcsICctbWV0YWxfYmluZGluZycsICctaW1hZScsICc8aW5maWxlLm1hZT4nLCAnLW9tYWUnLCAnPG91dGZpbGUubWFlPic=

> <r_lp_tautomer_probability>
0.5

> <r_epik_Ionization_Penalty>
0.242771

> <r_epik_Ionization_Penalty_Charging>
0

> <r_epik_Ionization_Penalty_Neutral>
0.242771

> <r_epik_State_Penalty>
0.233765

> <r_epik_Charging_Adjusted_Penalty>
0.233765

> <i_epik_Tot_Q>
0

> <i_epik_Tot_abs_Q>
0

> <r_epik_Metal_State_Penalty>
0.233764

> <b_epik_Metal_Only>
0

> <s_lp_Force_Field>
OPLS_2005

> <r_lp_Energy>
25.0708

> <b_lp_Chiralities_Consistent>
1

> <s_lp_Variant>
AV-unprocessed.smi:1715-3

> <Gold.Version>
5.8.1

> <Gold.Id.Protein>
6NUR|6NUR_protein|mol2

> <Gold.PLP.Fitness>
36.9546

> <Gold.PLP.PLP>
-27.8360

> <Gold.PLP.part.hbond>
-3.1477

> <Gold.PLP.part.metal>
0.0000

> <Gold.PLP.part.buried>
-2.5954

> <Gold.PLP.part.nonpolar>
-21.8536

> <Gold.PLP.part.repulsive>
0.5837

> <Gold.PLP.ligand.clash>
0.0000

> <Gold.PLP.ligand.torsion>
1.3016

> <Gold.PLP.Chemscore.Hbond>
2.9040

> <Gold.PLP.Chemscore.CHOScore>
1.0000

> <Gold.PLP.Chemscore.Metal>
0.0000

> <Gold.Chemscore.Hbonds>
donor molecule, donor type, donor heavy atom, donor atom, acceptor molecule, acceptor atom, score
      L1  H     7    31       P1  7948  0.91
      L1  H    10    32       P1  7948  0.98
      L1  H    14    20       P1 10186  1.00
      L1  C    15    34       P1 10171  1.00

> <Gold.PLP.Chemscore.Internal.Correction>
0.0099

> <Gold.Rescore>
     Score         DG    S(hbond)    S(metal)    S(lipo)     H(rot)  DE(clash)    DE(int)     intcor
     18.07     -20.40       3.31        0.00      68.64       1.63       0.37       1.96       ----

> <Gold.Chemscore.Fitness>
18.0727

> <Gold.Chemscore.DG>
-20.4018

> <Gold.Chemscore.ZeroCoef>
-5.4800

> <Gold.Chemscore.Hbond>
3.3114

> <Gold.Chemscore.Metal>
0.0000

> <Gold.Chemscore.Lipo>
68.6442

> <Gold.Chemscore.Internal_Hbond>
0.0000

> <Gold.Chemscore.DEClash>
0.3720

> <Gold.Chemscore.DEInternal>
1.9571

> <Gold.Chemscore.Rot>
1.6287

> <Gold.Chemscore.Internal.Correction>
   9.000000E+99

> <Gold.Chemscore.Hbonds>
donor molecule, donor type, donor heavy atom, donor atom, acceptor molecule, acceptor atom, score
      L1  H     7    31       P1  7948  0.88
      L1  H    10    32       P1  7948  0.93
      L1  H    14    20       P1 10186  0.95

> <Gold.Chemscore.Hbond.Weighted>
-11.0599

> <Gold.Chemscore.Metal.Weighted>
-0.0000

> <Gold.Chemscore.Lipo.Weighted>
-8.0314

> <Gold.Chemscore.Internal_Hbond.Weighted>
0.0000

> <Gold.Chemscore.DEClash.Weighted>
0.3720

> <Gold.Chemscore.DEInternal.Weighted>
1.9571

> <Gold.Chemscore.Rot.Weighted>
4.1695

> <Gold.Chemscore.Internal.Correction.Weighted>
   9.000000E+99

> <Gold.Protein.RotatedTorsions>
[ 6907 6896 6895 6894 ] final  131.11 input  -60.11 | X-H torsion
[ 7974 7965 7964 7962 ] final -128.18 input  175.53 | X-H torsion
[ 8008 7997 7996 7995 ] final   -1.19 input   59.86 | X-H torsion
[ 10167 10162 10161 10158 ] final -168.27 input  -65.29 | X-H torsion
[ 10718 10713 10712 10709 ] final -121.14 input   66.30 | X-H torsion
[ 10763 10752 10751 10750 ] final  -94.78 input  -60.55 | X-H torsion
[ 11005 11000 10999 10996 ] final   42.31 input  -57.11 | X-H torsion

> <Gold.Protein.ActiveResidues>
 VAL166  LYS551  ARG553  GLY616  TRP617  ASP618  TYR619  PRO620  LYS621  CYS622 
 ASP623  PHE694  ASN695  SER759  ASP760  ASP761  ALA762  ILE779  LEU786  VAL792 
 PHE793  MET794  SER795  GLU796  ALA797  LYS798  CYS799  TRP800  GLU811  SER814 

> <Gold.Protein.RotatedAtoms>
  152.3459  133.6121  159.5909 H   0  0  0  0  0  0  0  0  0  0  0  0  # atno 6907 bound_to 6896
  150.7507  133.9650  159.3536 H   0  0  0  0  0  0  0  0  0  0  0  0  # atno 6908 bound_to 6896
  151.7508  135.0834  160.0381 H   0  0  0  0  0  0  0  0  0  0  0  0  # atno 6909 bound_to 6896
  144.9696  140.7531  143.4679 H   0  0  0  0  0  0  0  0  0  0  0  0  # atno 7974 bound_to 7965
  154.6495  140.2565  155.7230 H   0  0  0  0  0  0  0  0  0  0  0  0  # atno 8008 bound_to 7997
  156.2568  140.2871  156.0844 H   0  0  0  0  0  0  0  0  0  0  0  0  # atno 8009 bound_to 7997
  155.1472  140.0381  157.2803 H   0  0  0  0  0  0  0  0  0  0  0  0  # atno 8010 bound_to 7997
  139.5996  144.1039  152.1728 H   0  0  0  0  0  0  0  0  0  0  0  0  # atno 10167 bound_to 10162
  156.1313  130.6398  150.9626 H   0  0  0  0  0  0  0  0  0  0  0  0  # atno 10718 bound_to 10713
  154.7087  135.5145  153.8634 H   0  0  0  0  0  0  0  0  0  0  0  0  # atno 10763 bound_to 10752
  153.0762  135.6617  154.0149 H   0  0  0  0  0  0  0  0  0  0  0  0  # atno 10764 bound_to 10752
  153.9995  135.3012  155.3383 H   0  0  0  0  0  0  0  0  0  0  0  0  # atno 10765 bound_to 10752
  140.1751  134.4173  155.8233 H   0  0  0  0  0  0  0  0  0  0  0  0  # atno 11005 bound_to 11000
  145.2579  139.2004  143.4908 LP  0  0  0  0  0  0  0  0  0  0  0  0  # atno 17320 bound_to 7965
  146.3378  140.2503  142.8598 LP  0  0  0  0  0  0  0  0  0  0  0  0  # atno 17321 bound_to 7965
  140.0632  144.5840  150.7247 LP  0  0  0  0  0  0  0  0  0  0  0  0  # atno 17342 bound_to 10162
  140.7239  143.2616  151.4186 LP  0  0  0  0  0  0  0  0  0  0  0  0  # atno 17343 bound_to 10162
  157.6491  131.0899  150.8090 LP  0  0  0  0  0  0  0  0  0  0  0  0  # atno 17370 bound_to 10713
  156.8175  130.4973  149.5347 LP  0  0  0  0  0  0  0  0  0  0  0  0  # atno 17371 bound_to 10713
  141.2220  133.6974  156.7832 LP  0  0  0  0  0  0  0  0  0  0  0  0  # atno 17394 bound_to 11000
  140.2332  134.8670  157.3498 LP  0  0  0  0  0  0  0  0  0  0  0  0  # atno 17395 bound_to 11000

$$$$
