AV-unprocessed.smi:636|AV-procd|sdf|3140|dock10
  -GOLD-   22720 0 63D 1   1.00000     0.00000
 Structure written by MMmdl.
 39 41  0  0  0  0  0  0  0  0  1 V2000
  151.3000  140.4162  155.3486 O   0  0  0  0  0  0  0  0  0  0  0  0
  150.3456  140.1240  156.0676 C   0  0  0  0  0  0  0  0  0  0  0  0
  150.6164  139.6201  157.4962 C   0  0  0  0  0  0  0  0  0  0  0  0
  151.5618  140.4411  158.2748 N   0  0  0  0  0  0  0  0  0  0  0  0
  151.4023  141.8377  158.1988 C   0  0  0  0  0  0  0  0  0  0  0  0
  152.1960  142.7017  158.8578 C   0  0  0  0  0  0  0  0  0  0  0  0
  152.0437  144.2066  158.7019 C   0  0  0  0  0  0  0  0  0  0  0  0
  152.9517  144.6666  157.8429 F   0  0  0  0  0  0  0  0  0  0  0  0
  150.8346  144.5203  158.2366 F   0  0  0  0  0  0  0  0  0  0  0  0
  152.2193  144.8318  159.8666 F   0  0  0  0  0  0  0  0  0  0  0  0
  153.2646  142.1218  159.6461 C   0  0  0  0  0  0  0  0  0  0  0  0
  153.4460  140.7880  159.7227 C   0  0  0  0  0  0  0  0  0  0  0  0
  154.7371  140.1513  160.6773 Cl  0  0  0  0  0  0  0  0  0  0  0  0
  152.5613  139.8613  159.0050 C   0  0  0  0  0  0  0  0  0  0  0  0
  152.7099  138.6393  159.0474 O   0  0  0  0  0  0  0  0  0  0  0  0
  149.0681  140.2225  155.6612 N   0  0  0  0  0  0  0  0  0  0  0  0
  148.6147  140.6773  154.3525 C   0  0  0  0  0  0  0  0  0  0  0  0
  147.9552  142.0455  154.4090 C   0  0  0  0  0  0  0  0  0  0  0  0
  146.5950  142.2383  155.0375 C   0  0  0  0  0  0  0  0  0  0  0  0
  146.7644  142.3824  153.5427 C   0  0  0  0  0  0  0  0  0  0  0  0
  147.6795  139.6676  153.7134 C   0  0  0  0  0  0  0  0  0  0  0  0
  146.4011  139.2483  154.3983 C   0  0  0  0  0  0  0  0  0  0  0  0
  147.5415  138.2649  154.2558 C   0  0  0  0  0  0  0  0  0  0  0  0
  149.6602  139.5612  158.0181 H   0  0  0  0  0  0  0  0  0  0  0  0
  150.9644  138.5873  157.4382 H   0  0  0  0  0  0  0  0  0  0  0  0
  150.5974  142.1624  157.5553 H   0  0  0  0  0  0  0  0  0  0  0  0
  153.9329  142.7730  160.1902 H   0  0  0  0  0  0  0  0  0  0  0  0
  148.3476  139.9585  156.3171 H   0  0  0  0  0  0  0  0  0  0  0  0
  149.4867  140.7578  153.7002 H   0  0  0  0  0  0  0  0  0  0  0  0
  148.6620  142.8570  154.5730 H   0  0  0  0  0  0  0  0  0  0  0  0
  146.0667  141.3573  155.3953 H   0  0  0  0  0  0  0  0  0  0  0  0
  146.4339  143.1458  155.6157 H   0  0  0  0  0  0  0  0  0  0  0  0
  146.7179  143.3853  153.1234 H   0  0  0  0  0  0  0  0  0  0  0  0
  146.3509  141.5955  152.9152 H   0  0  0  0  0  0  0  0  0  0  0  0
  147.6221  139.7584  152.6300 H   0  0  0  0  0  0  0  0  0  0  0  0
  146.2036  139.6464  155.3916 H   0  0  0  0  0  0  0  0  0  0  0  0
  145.5235  139.0967  153.7734 H   0  0  0  0  0  0  0  0  0  0  0  0
  147.4244  137.4581  153.5354 H   0  0  0  0  0  0  0  0  0  0  0  0
  148.0935  138.0084  155.1576 H   0  0  0  0  0  0  0  0  0  0  0  0
  1  2  2  0  0  0  0
  2  3  1  0  0  0  0
  2 16  1  0  0  0  0
  3  4  1  0  0  0  0
  3 24  1  0  0  0  0
  3 25  1  0  0  0  0
  4 14  1  0  0  0  0
  4  5  1  0  0  0  0
  5  6  2  0  0  0  0
  5 26  1  0  0  0  0
  6  7  1  0  0  0  0
  6 11  1  0  0  0  0
  7  8  1  0  0  0  0
  7  9  1  0  0  0  0
  7 10  1  0  0  0  0
 11 12  2  0  0  0  0
 11 27  1  0  0  0  0
 12 13  1  0  0  0  0
 12 14  1  0  0  0  0
 14 15  2  0  0  0  0
 16 17  1  0  0  0  0
 16 28  1  0  0  0  0
 17 18  1  0  0  0  0
 17 21  1  0  0  0  0
 17 29  1  0  0  0  0
 18 20  1  0  0  0  0
 18 19  1  0  0  0  0
 18 30  1  0  0  0  0
 19 20  1  0  0  0  0
 19 31  1  0  0  0  0
 19 32  1  0  0  0  0
 20 33  1  0  0  0  0
 20 34  1  0  0  0  0
 21 23  1  0  0  0  0
 21 22  1  0  0  0  0
 21 35  1  0  0  0  0
 22 23  1  0  0  0  0
 22 36  1  0  0  0  0
 22 37  1  0  0  0  0
 23 38  1  0  0  0  0
 23 39  1  0  0  0  0
M  END
> <s_m_source_file>
AV-unprocessed.smi

> <i_m_source_file_index>
636

> <i_lp_mmshare_version>
43012

> <i_f3d_flags>
0

> <s_epik_input>
W0NIMl0xW0NIMl1bQ0hdMVtDSF0oW0NIXTJbQ0gyXVtDSDJdMilbTkhdQyg9TylbQ0gyXW4zW2NIXWMoQyhGKShGKUYpW2NIXWMoQ2wpYzM9Tw==

> <s_epik_cmdline>
J2VwaWtfcHl0aG9uJywgJy1waCcsICc3LjAnLCAnLXRuJywgJzgnLCAnLW1hJywgJzIwMCcsICctbWV0YWxfYmluZGluZycsICctaW1hZScsICc8aW5maWxlLm1hZT4nLCAnLW9tYWUnLCAnPG91dGZpbGUubWFlPic=

> <r_lp_tautomer_probability>
1

> <r_epik_Ionization_Penalty>
2.07964e-08

> <r_epik_Ionization_Penalty_Charging>
3.83819e-10

> <r_epik_Ionization_Penalty_Neutral>
2.04126e-08

> <r_epik_State_Penalty>
-0

> <r_epik_Charging_Adjusted_Penalty>
3.83819e-10

> <i_epik_Tot_Q>
0

> <i_epik_Tot_abs_Q>
0

> <r_epik_Metal_State_Penalty>
-0

> <b_epik_Metal_Only>
0

> <s_lp_Force_Field>
OPLS_2005

> <r_lp_Energy>
34.6708

> <b_lp_Chiralities_Consistent>
1

> <s_lp_Variant>
AV-unprocessed.smi:636-1

> <Gold.Version>
5.8.1

> <Gold.Id.Protein>
6NUR|6NUR_protein|mol2

> <Gold.PLP.Fitness>
49.5321

> <Gold.PLP.PLP>
-49.6221

> <Gold.PLP.part.hbond>
-1.0000

> <Gold.PLP.part.metal>
0.0000

> <Gold.PLP.part.buried>
-6.1571

> <Gold.PLP.part.nonpolar>
-43.1794

> <Gold.PLP.part.repulsive>
0.0602

> <Gold.PLP.ligand.clash>
0.2810

> <Gold.PLP.ligand.torsion>
2.3700

> <Gold.PLP.Chemscore.Hbond>
0.9120

> <Gold.PLP.Chemscore.CHOScore>
0.0000

> <Gold.PLP.Chemscore.Metal>
0.0000

> <Gold.Chemscore.Hbonds>
donor molecule, donor type, donor heavy atom, donor atom, acceptor molecule, acceptor atom, score
      P1  H  7989  7998       L1     1  0.94

> <Gold.PLP.Chemscore.Internal.Correction>
2.1949

> <Gold.Rescore>
     Score         DG    S(hbond)    S(metal)    S(lipo)     H(rot)  DE(clash)    DE(int)     intcor
     13.17     -14.80       0.94        0.00      94.29       1.90       0.03       1.61       ----

> <Gold.Chemscore.Fitness>
13.1661

> <Gold.Chemscore.DG>
-14.8032

> <Gold.Chemscore.ZeroCoef>
-5.4800

> <Gold.Chemscore.Hbond>
0.9432

> <Gold.Chemscore.Metal>
0.0000

> <Gold.Chemscore.Lipo>
94.2863

> <Gold.Chemscore.Internal_Hbond>
0.0000

> <Gold.Chemscore.DEClash>
0.0294

> <Gold.Chemscore.DEInternal>
1.6078

> <Gold.Chemscore.Rot>
1.8979

> <Gold.Chemscore.Internal.Correction>
   9.000000E+99

> <Gold.Chemscore.Hbonds>
donor molecule, donor type, donor heavy atom, donor atom, acceptor molecule, acceptor atom, score
      P1  H  7989  7998       L1     1  0.91

> <Gold.Chemscore.Hbond.Weighted>
-3.1503

> <Gold.Chemscore.Metal.Weighted>
-0.0000

> <Gold.Chemscore.Lipo.Weighted>
-11.0315

> <Gold.Chemscore.Internal_Hbond.Weighted>
0.0000

> <Gold.Chemscore.DEClash.Weighted>
0.0294

> <Gold.Chemscore.DEInternal.Weighted>
1.6078

> <Gold.Chemscore.Rot.Weighted>
4.8586

> <Gold.Chemscore.Internal.Correction.Weighted>
   9.000000E+99

> <Gold.Protein.RotatedTorsions>
[ 6907 6896 6895 6894 ] final   40.12 input  -60.11 | X-H torsion
[ 7974 7965 7964 7962 ] final -160.26 input  175.53 | X-H torsion
[ 8008 7997 7996 7995 ] final  121.14 input   59.86 | X-H torsion
[ 10167 10162 10161 10158 ] final  -17.27 input  -65.29 | X-H torsion
[ 10718 10713 10712 10709 ] final   91.55 input   66.30 | X-H torsion
[ 10763 10752 10751 10750 ] final -145.55 input  -60.55 | X-H torsion
[ 11005 11000 10999 10996 ] final   38.88 input  -57.11 | X-H torsion

> <Gold.Protein.ActiveResidues>
 VAL166  LYS551  ARG553  GLY616  TRP617  ASP618  TYR619  PRO620  LYS621  CYS622 
 ASP623  PHE694  ASN695  SER759  ASP760  ASP761  ALA762  ILE779  LEU786  VAL792 
 PHE793  MET794  SER795  GLU796  ALA797  LYS798  CYS799  TRP800  GLU811  SER814 

> <Gold.Protein.RotatedAtoms>
  152.1784  134.8775  160.0528 H   0  0  0  0  0  0  0  0  0  0  0  0  # atno 6907 bound_to 6896
  151.9709  133.3720  159.4079 H   0  0  0  0  0  0  0  0  0  0  0  0  # atno 6908 bound_to 6896
  150.6913  134.4064  159.5186 H   0  0  0  0  0  0  0  0  0  0  0  0  # atno 6909 bound_to 6896
  144.7434  140.3567  143.6104 H   0  0  0  0  0  0  0  0  0  0  0  0  # atno 7974 bound_to 7965
  156.2673  140.2815  156.1261 H   0  0  0  0  0  0  0  0  0  0  0  0  # atno 8008 bound_to 7997
  155.1104  140.0391  157.2740 H   0  0  0  0  0  0  0  0  0  0  0  0  # atno 8009 bound_to 7997
  154.6747  140.2595  155.6976 H   0  0  0  0  0  0  0  0  0  0  0  0  # atno 8010 bound_to 7997
  140.7245  143.5033  150.9842 H   0  0  0  0  0  0  0  0  0  0  0  0  # atno 10167 bound_to 10162
  157.6960  131.0411  150.3747 H   0  0  0  0  0  0  0  0  0  0  0  0  # atno 10718 bound_to 10713
  154.8378  135.3410  154.6522 H   0  0  0  0  0  0  0  0  0  0  0  0  # atno 10763 bound_to 10752
  153.7135  135.6962  153.5035 H   0  0  0  0  0  0  0  0  0  0  0  0  # atno 10764 bound_to 10752
  153.2434  135.4377  155.0675 H   0  0  0  0  0  0  0  0  0  0  0  0  # atno 10765 bound_to 10752
  140.2083  134.3786  155.8061 H   0  0  0  0  0  0  0  0  0  0  0  0  # atno 11005 bound_to 11000
  145.7220  139.1712  143.2479 LP  0  0  0  0  0  0  0  0  0  0  0  0  # atno 17320 bound_to 7965
  146.1270  140.7235  142.9430 LP  0  0  0  0  0  0  0  0  0  0  0  0  # atno 17321 bound_to 7965
  139.8743  143.7152  152.3163 LP  0  0  0  0  0  0  0  0  0  0  0  0  # atno 17342 bound_to 10162
  139.7412  144.7559  151.0649 LP  0  0  0  0  0  0  0  0  0  0  0  0  # atno 17343 bound_to 10162
  156.4168  130.3945  149.6853 LP  0  0  0  0  0  0  0  0  0  0  0  0  # atno 17370 bound_to 10713
  156.4118  130.7726  151.2739 LP  0  0  0  0  0  0  0  0  0  0  0  0  # atno 17371 bound_to 10713
  141.2226  133.7129  156.8374 LP  0  0  0  0  0  0  0  0  0  0  0  0  # atno 17394 bound_to 11000
  140.1979  134.8918  157.3135 LP  0  0  0  0  0  0  0  0  0  0  0  0  # atno 17395 bound_to 11000

$$$$
