AV-unprocessed.smi:612|AV-procd|sdf|3063|dock8
  -GOLD-   2262023583D 1   1.00000     0.00000
 Structure written by MMmdl.
 50 52  0  0  0  0  0  0  0  0  2 V2000
  152.2413  139.6015  155.9061 C   0  0  0  0  0  0  0  0  0  0  0  0
  150.9256  139.9005  155.3349 N   0  0  0  0  0  0  0  0  0  0  0  0
  150.4402  141.2117  155.4730 C   0  0  0  0  0  0  0  0  0  0  0  0
  149.2463  141.5744  154.9846 C   0  0  0  0  0  0  0  0  0  0  0  0
  148.4525  140.5805  154.3027 C   0  0  0  0  0  0  0  0  0  0  0  0
  148.9039  139.3092  154.1526 C   0  0  0  0  0  0  0  0  0  0  0  0
  148.1990  138.2749  153.5104 N   0  0  0  0  0  0  0  0  0  0  0  0
  146.9002  138.2042  153.1636 C   0  0  0  0  0  0  0  0  0  0  0  0
  146.0566  139.0824  153.3398 O   0  0  0  0  0  0  0  0  0  0  0  0
  146.6293  137.0318  152.5711 N   0  0  0  0  0  0  0  0  0  0  0  0
  145.3276  136.6188  152.0516 C   0  0  2  0  0  0  0  0  0  0  0  0
  144.6571  135.6307  153.0222 C   0  0  0  0  0  0  0  0  0  0  0  0
  143.3447  135.0771  152.4332 C   0  0  0  0  0  0  0  0  0  0  0  0
  143.5512  134.4442  151.1005 N   0  3  2  0  0  0  0  0  0  0  0  0
  144.2302  133.1142  151.1455 C   0  0  0  0  0  0  0  0  0  0  0  0
  145.6559  133.1670  151.7119 C   0  0  0  0  0  0  0  0  0  0  0  0
  146.3223  131.8764  151.2280 C   0  0  0  0  0  0  0  0  0  0  0  0
  145.5853  131.4738  149.9438 C   0  0  0  0  0  0  0  0  0  0  0  0
  144.4570  132.4948  149.7588 C   0  0  0  0  0  0  0  0  0  0  0  0
  144.1558  135.4171  150.1483 C   0  0  0  0  0  0  0  0  0  0  0  0
  145.4957  135.9740  150.6654 C   0  0  0  0  0  0  0  0  0  0  0  0
  150.2181  138.9185  154.7006 C   0  0  0  0  0  0  0  0  0  0  0  0
  150.6664  137.7735  154.5996 O   0  0  0  0  0  0  0  0  0  0  0  0
  152.7130  140.4745  156.3586 H   0  0  0  0  0  0  0  0  0  0  0  0
  152.9193  139.2305  155.1360 H   0  0  0  0  0  0  0  0  0  0  0  0
  152.1565  138.8387  156.6815 H   0  0  0  0  0  0  0  0  0  0  0  0
  151.0915  141.8967  155.9962 H   0  0  0  0  0  0  0  0  0  0  0  0
  148.8858  142.5860  155.0991 H   0  0  0  0  0  0  0  0  0  0  0  0
  147.4901  140.8953  153.9354 H   0  0  0  0  0  0  0  0  0  0  0  0
  148.7713  137.4835  153.2536 H   0  0  0  0  0  0  0  0  0  0  0  0
  147.3871  136.3724  152.4687 H   0  0  0  0  0  0  0  0  0  0  0  0
  144.6705  137.4831  151.9398 H   0  0  0  0  0  0  0  0  0  0  0  0
  145.3364  134.8094  153.2539 H   0  0  0  0  0  0  0  0  0  0  0  0
  144.4496  136.1284  153.9702 H   0  0  0  0  0  0  0  0  0  0  0  0
  142.8735  134.3865  153.1315 H   0  0  0  0  0  0  0  0  0  0  0  0
  142.6351  135.8968  152.3132 H   0  0  0  0  0  0  0  0  0  0  0  0
  143.6461  132.4164  151.7464 H   0  0  0  0  0  0  0  0  0  0  0  0
  146.1900  134.0264  151.3030 H   0  0  0  0  0  0  0  0  0  0  0  0
  145.6788  133.2462  152.7993 H   0  0  0  0  0  0  0  0  0  0  0  0
  147.3918  132.0124  151.0637 H   0  0  0  0  0  0  0  0  0  0  0  0
  146.2052  131.0939  151.9787 H   0  0  0  0  0  0  0  0  0  0  0  0
  146.2514  131.4640  149.0804 H   0  0  0  0  0  0  0  0  0  0  0  0
  145.1767  130.4682  150.0508 H   0  0  0  0  0  0  0  0  0  0  0  0
  143.5583  132.0313  149.3507 H   0  0  0  0  0  0  0  0  0  0  0  0
  144.7813  133.2637  149.0558 H   0  0  0  0  0  0  0  0  0  0  0  0
  144.2784  134.9811  149.1578 H   0  0  0  0  0  0  0  0  0  0  0  0
  143.4547  136.2422  150.0158 H   0  0  0  0  0  0  0  0  0  0  0  0
  145.8809  136.7113  149.9600 H   0  0  0  0  0  0  0  0  0  0  0  0
  146.2386  135.1767  150.7069 H   0  0  0  0  0  0  0  0  0  0  0  0
  142.6263  134.2512  150.7428 H   0  0  0  0  0  0  0  0  0  0  0  0
  1  2  1  0  0  0  0
  1 24  1  0  0  0  0
  1 25  1  0  0  0  0
  1 26  1  0  0  0  0
  2 22  1  0  0  0  0
  2  3  1  0  0  0  0
  3  4  2  0  0  0  0
  3 27  1  0  0  0  0
  4  5  1  0  0  0  0
  4 28  1  0  0  0  0
  5  6  2  0  0  0  0
  5 29  1  0  0  0  0
  6  7  1  0  0  0  0
  6 22  1  0  0  0  0
  7  8  1  0  0  0  0
  7 30  1  0  0  0  0
  8  9  2  0  0  0  0
  8 10  1  0  0  0  0
 10 11  1  0  0  0  0
 10 31  1  0  0  0  0
 11 21  1  0  0  0  0
 11 12  1  0  0  0  0
 11 32  1  0  0  0  0
 12 13  1  0  0  0  0
 12 33  1  0  0  0  0
 12 34  1  0  0  0  0
 13 14  1  0  0  0  0
 13 35  1  0  0  0  0
 13 36  1  0  0  0  0
 14 15  1  0  0  0  0
 14 20  1  0  0  0  0
 14 50  1  0  0  0  0
 15 19  1  0  0  0  0
 15 16  1  0  0  0  0
 15 37  1  0  0  0  0
 16 17  1  0  0  0  0
 16 38  1  0  0  0  0
 16 39  1  0  0  0  0
 17 18  1  0  0  0  0
 17 40  1  0  0  0  0
 17 41  1  0  0  0  0
 18 19  1  0  0  0  0
 18 42  1  0  0  0  0
 18 43  1  0  0  0  0
 19 44  1  0  0  0  0
 19 45  1  0  0  0  0
 20 21  1  0  0  0  0
 20 46  1  0  0  0  0
 20 47  1  0  0  0  0
 21 48  1  0  0  0  0
 21 49  1  0  0  0  0
 22 23  2  0  0  0  0
M  CHG  1  14   1
M  END
> <s_m_source_file>
AV-unprocessed.smi

> <i_m_source_file_index>
612

> <i_lp_mmshare_version>
43012

> <i_f3d_flags>
0

> <s_epik_input>
W0NIM11uMVtjSF1bY0hdW2NIXWMoYzE9TylbTkhdQyg9TylbTkhdW0NIXTJbQ0gyXVtDSDJdTihbQ0gyXVtDSDJdMilbQ0hdM1tDSDJdW0NIMl1bQ0gyXVtDSDJdMw==

> <s_epik_cmdline>
J2VwaWtfcHl0aG9uJywgJy1waCcsICc3LjAnLCAnLXRuJywgJzgnLCAnLW1hJywgJzIwMCcsICctbWV0YWxfYmluZGluZycsICctaW1hZScsICc8aW5maWxlLm1hZT4nLCAnLW9tYWUnLCAnPG91dGZpbGUubWFlPic=

> <r_lp_tautomer_probability>
1

> <r_epik_Ionization_Penalty>
0.00200366

> <r_epik_Ionization_Penalty_Charging>
0.00198522

> <r_epik_Ionization_Penalty_Neutral>
1.84356e-05

> <r_epik_State_Penalty>
0.00135242

> <r_epik_Charging_Adjusted_Penalty>
0.00333764

> <i_epik_Tot_Q>
1

> <i_epik_Tot_abs_Q>
1

> <r_epik_Metal_State_Penalty>
-0

> <b_epik_Metal_Only>
0

> <s_lp_Force_Field>
OPLS_2005

> <r_lp_Energy>
52.136

> <b_lp_Chiralities_Consistent>
1

> <s_lp_Variant>
AV-unprocessed.smi:612-2

> <Gold.Version>
5.8.1

> <Gold.Id.Protein>
6NUR|6NUR_protein|mol2

> <Gold.PLP.Fitness>
49.4699

> <Gold.PLP.PLP>
-40.2306

> <Gold.PLP.part.hbond>
-3.0229

> <Gold.PLP.part.metal>
0.0000

> <Gold.PLP.part.buried>
-1.5619

> <Gold.PLP.part.nonpolar>
-38.2524

> <Gold.PLP.part.repulsive>
1.8272

> <Gold.PLP.ligand.clash>
1.2021

> <Gold.PLP.ligand.torsion>
0.3032

> <Gold.PLP.Chemscore.Hbond>
3.6640

> <Gold.PLP.Chemscore.CHOScore>
0.0000

> <Gold.PLP.Chemscore.Metal>
0.0000

> <Gold.Chemscore.Hbonds>
donor molecule, donor type, donor heavy atom, donor atom, acceptor molecule, acceptor atom, score
      L1  H     7    30       P1  7948  0.80
      L1  H    10    31       P1  7948  0.85
      L1  H    14    50       P1 10186  2.00

> <Gold.PLP.Chemscore.Internal.Correction>
0.0558

> <Gold.Rescore>
     Score         DG    S(hbond)    S(metal)    S(lipo)     H(rot)  DE(clash)    DE(int)     intcor
     18.14     -23.53       2.53        0.00     108.46       1.21       2.61       2.77       ----

> <Gold.Chemscore.Fitness>
18.1408

> <Gold.Chemscore.DG>
-23.5290

> <Gold.Chemscore.ZeroCoef>
-5.4800

> <Gold.Chemscore.Hbond>
2.5285

> <Gold.Chemscore.Metal>
0.0000

> <Gold.Chemscore.Lipo>
108.4613

> <Gold.Chemscore.Internal_Hbond>
0.0000

> <Gold.Chemscore.DEClash>
2.6141

> <Gold.Chemscore.DEInternal>
2.7742

> <Gold.Chemscore.Rot>
1.2056

> <Gold.Chemscore.Internal.Correction>
   9.000000E+99

> <Gold.Chemscore.Hbonds>
donor molecule, donor type, donor heavy atom, donor atom, acceptor molecule, acceptor atom, score
      L1  H     7    30       P1  7948  0.80
      L1  H    10    31       P1  7948  0.83
      L1  H    14    50       P1 10186  0.42

> <Gold.Chemscore.Hbond.Weighted>
-8.4452

> <Gold.Chemscore.Metal.Weighted>
-0.0000

> <Gold.Chemscore.Lipo.Weighted>
-12.6900

> <Gold.Chemscore.Internal_Hbond.Weighted>
0.0000

> <Gold.Chemscore.DEClash.Weighted>
2.6141

> <Gold.Chemscore.DEInternal.Weighted>
2.7742

> <Gold.Chemscore.Rot.Weighted>
3.0862

> <Gold.Chemscore.Internal.Correction.Weighted>
   9.000000E+99

> <Gold.Protein.RotatedTorsions>
[ 6907 6896 6895 6894 ] final   89.86 input  -60.11 | X-H torsion
[ 7974 7965 7964 7962 ] final   40.17 input  175.53 | X-H torsion
[ 8008 7997 7996 7995 ] final   -3.45 input   59.86 | X-H torsion
[ 10167 10162 10161 10158 ] final  -73.97 input  -65.29 | X-H torsion
[ 10718 10713 10712 10709 ] final  -18.88 input   66.30 | X-H torsion
[ 10763 10752 10751 10750 ] final  133.99 input  -60.55 | X-H torsion
[ 11005 11000 10999 10996 ] final  142.01 input  -57.11 | X-H torsion

> <Gold.Protein.ActiveResidues>
 VAL166  LYS551  ARG553  GLY616  TRP617  ASP618  TYR619  PRO620  LYS621  CYS622 
 ASP623  PHE694  ASN695  SER759  ASP760  ASP761  ALA762  ILE779  LEU786  VAL792 
 PHE793  MET794  SER795  GLU796  ALA797  LYS798  CYS799  TRP800  GLU811  SER814 

> <Gold.Protein.RotatedAtoms>
  152.5440  134.1900  159.8669 H   0  0  0  0  0  0  0  0  0  0  0  0  # atno 6907 bound_to 6896
  151.1896  133.4668  159.2602 H   0  0  0  0  0  0  0  0  0  0  0  0  # atno 6908 bound_to 6896
  151.1096  135.0031  159.8543 H   0  0  0  0  0  0  0  0  0  0  0  0  # atno 6909 bound_to 6896
  146.0926  139.5564  142.9466 H   0  0  0  0  0  0  0  0  0  0  0  0  # atno 7974 bound_to 7965
  154.6247  140.2509  155.7506 H   0  0  0  0  0  0  0  0  0  0  0  0  # atno 8008 bound_to 7997
  156.2447  140.2919  156.0491 H   0  0  0  0  0  0  0  0  0  0  0  0  # atno 8009 bound_to 7997
  155.1840  140.0389  157.2878 H   0  0  0  0  0  0  0  0  0  0  0  0  # atno 8010 bound_to 7997
  140.5066  143.2352  151.7663 H   0  0  0  0  0  0  0  0  0  0  0  0  # atno 10167 bound_to 10162
  156.5534  130.4707  149.6441 H   0  0  0  0  0  0  0  0  0  0  0  0  # atno 10718 bound_to 10713
  153.8161  135.3122  155.3405 H   0  0  0  0  0  0  0  0  0  0  0  0  # atno 10763 bound_to 10752
  154.8032  135.4714  154.0329 H   0  0  0  0  0  0  0  0  0  0  0  0  # atno 10764 bound_to 10752
  153.1723  135.6880  153.8680 H   0  0  0  0  0  0  0  0  0  0  0  0  # atno 10765 bound_to 10752
  140.0445  134.9288  157.0904 H   0  0  0  0  0  0  0  0  0  0  0  0  # atno 11005 bound_to 11000
  145.6010  141.0355  143.2018 LP  0  0  0  0  0  0  0  0  0  0  0  0  # atno 17320 bound_to 7965
  144.7371  139.7554  143.7325 LP  0  0  0  0  0  0  0  0  0  0  0  0  # atno 17321 bound_to 7965
  139.4885  144.4448  151.9722 LP  0  0  0  0  0  0  0  0  0  0  0  0  # atno 17342 bound_to 10162
  140.3539  144.3055  150.5944 LP  0  0  0  0  0  0  0  0  0  0  0  0  # atno 17343 bound_to 10162
  156.2864  130.7099  151.1937 LP  0  0  0  0  0  0  0  0  0  0  0  0  # atno 17370 bound_to 10713
  157.7383  131.0542  150.5303 LP  0  0  0  0  0  0  0  0  0  0  0  0  # atno 17371 bound_to 10713
  140.4016  134.2076  155.7163 LP  0  0  0  0  0  0  0  0  0  0  0  0  # atno 17394 bound_to 11000
  141.1900  133.8227  157.0936 LP  0  0  0  0  0  0  0  0  0  0  0  0  # atno 17395 bound_to 11000

$$$$
