AV-unprocessed.smi:1181|AV-procd|sdf|4966|dock8
  -GOLD-   22720 3563D 1   1.00000     0.00000
 Structure written by MMmdl.
 44 45  0  0  0  0  0  0  0  0  1 V2000
  144.9830  135.0936  151.0597 C   0  0  0  0  0  0  0  0  0  0  0  0
  145.5843  135.7248  152.1765 O   0  0  0  0  0  0  0  0  0  0  0  0
  145.4502  137.1360  152.1396 C   0  0  0  0  0  0  0  0  0  0  0  0
  146.3365  137.7545  153.2249 C   0  0  0  0  0  0  0  0  0  0  0  0
  146.3486  139.1688  153.0566 O   0  0  0  0  0  0  0  0  0  0  0  0
  147.2528  139.9120  153.7867 C   0  0  0  0  0  0  0  0  0  0  0  0
  148.4738  139.3130  154.1547 C   0  0  0  0  0  0  0  0  0  0  0  0
  149.4000  140.0650  154.9012 C   0  0  0  0  0  0  0  0  0  0  0  0
  149.0851  141.3937  155.2490 C   0  0  0  0  0  0  0  0  0  0  0  0
  150.0279  142.1221  156.0223 N   0  0  0  0  0  0  0  0  0  0  0  0
  150.9309  141.6572  156.9081 C   0  0  0  0  0  0  0  0  0  0  0  0
  151.0363  140.4657  157.2007 O   0  0  0  0  0  0  0  0  0  0  0  0
  151.6987  142.6218  157.4783 N   0  0  0  0  0  0  0  0  0  0  0  0
  151.6457  144.0668  157.1946 C   0  0  0  0  0  0  0  0  0  0  0  0
  151.0053  144.7822  158.3974 C   0  0  0  0  0  0  0  0  0  0  0  0
  151.7870  144.4922  159.6969 C   0  0  0  0  0  0  0  0  0  0  0  0
  151.1026  145.1152  160.9212 C   0  0  0  0  0  0  0  0  0  0  0  0
  152.0139  142.9755  159.8787 C   0  0  0  0  0  0  0  0  0  0  0  0
  152.5993  142.3400  158.6040 C   0  0  0  0  0  0  0  0  0  0  0  0
  147.8272  141.9019  154.8433 C   0  0  0  0  0  0  0  0  0  0  0  0
  146.9337  141.1848  154.1291 N   0  0  0  0  0  0  0  0  0  0  0  0
  145.1136  134.0142  151.1350 H   0  0  0  0  0  0  0  0  0  0  0  0
  145.4402  135.4239  150.1262 H   0  0  0  0  0  0  0  0  0  0  0  0
  143.9129  135.3010  151.0185 H   0  0  0  0  0  0  0  0  0  0  0  0
  145.7670  137.4999  151.1611 H   0  0  0  0  0  0  0  0  0  0  0  0
  144.4104  137.4352  152.2804 H   0  0  0  0  0  0  0  0  0  0  0  0
  145.9722  137.4747  154.2150 H   0  0  0  0  0  0  0  0  0  0  0  0
  147.3517  137.3683  153.1183 H   0  0  0  0  0  0  0  0  0  0  0  0
  148.6947  138.2947  153.8708 H   0  0  0  0  0  0  0  0  0  0  0  0
  150.3413  139.6256  155.1980 H   0  0  0  0  0  0  0  0  0  0  0  0
  149.9717  143.1268  155.9405 H   0  0  0  0  0  0  0  0  0  0  0  0
  152.6600  144.4378  157.0402 H   0  0  0  0  0  0  0  0  0  0  0  0
  151.1088  144.3227  156.2813 H   0  0  0  0  0  0  0  0  0  0  0  0
  150.9709  145.8567  158.2142 H   0  0  0  0  0  0  0  0  0  0  0  0
  149.9707  144.4529  158.5049 H   0  0  0  0  0  0  0  0  0  0  0  0
  152.7682  144.9588  159.5981 H   0  0  0  0  0  0  0  0  0  0  0  0
  150.1086  144.6947  161.0764 H   0  0  0  0  0  0  0  0  0  0  0  0
  150.9934  146.1937  160.8031 H   0  0  0  0  0  0  0  0  0  0  0  0
  151.6838  144.9399  161.8269 H   0  0  0  0  0  0  0  0  0  0  0  0
  152.6818  142.7961  160.7218 H   0  0  0  0  0  0  0  0  0  0  0  0
  151.0698  142.4868  160.1238 H   0  0  0  0  0  0  0  0  0  0  0  0
  152.7596  141.2729  158.7636 H   0  0  0  0  0  0  0  0  0  0  0  0
  153.5853  142.7569  158.3943 H   0  0  0  0  0  0  0  0  0  0  0  0
  147.5008  142.8956  155.1080 H   0  0  0  0  0  0  0  0  0  0  0  0
  1  2  1  0  0  0  0
  1 22  1  0  0  0  0
  1 23  1  0  0  0  0
  1 24  1  0  0  0  0
  2  3  1  0  0  0  0
  3  4  1  0  0  0  0
  3 25  1  0  0  0  0
  3 26  1  0  0  0  0
  4  5  1  0  0  0  0
  4 27  1  0  0  0  0
  4 28  1  0  0  0  0
  5  6  1  0  0  0  0
  6 21  1  0  0  0  0
  6  7  2  0  0  0  0
  7  8  1  0  0  0  0
  7 29  1  0  0  0  0
  8  9  2  0  0  0  0
  8 30  1  0  0  0  0
  9 10  1  0  0  0  0
  9 20  1  0  0  0  0
 10 11  1  0  0  0  0
 10 31  1  0  0  0  0
 11 12  2  0  0  0  0
 11 13  1  0  0  0  0
 13 19  1  0  0  0  0
 13 14  1  0  0  0  0
 14 15  1  0  0  0  0
 14 32  1  0  0  0  0
 14 33  1  0  0  0  0
 15 16  1  0  0  0  0
 15 34  1  0  0  0  0
 15 35  1  0  0  0  0
 16 17  1  0  0  0  0
 16 18  1  0  0  0  0
 16 36  1  0  0  0  0
 17 37  1  0  0  0  0
 17 38  1  0  0  0  0
 17 39  1  0  0  0  0
 18 19  1  0  0  0  0
 18 40  1  0  0  0  0
 18 41  1  0  0  0  0
 19 42  1  0  0  0  0
 19 43  1  0  0  0  0
 20 21  2  0  0  0  0
 20 44  1  0  0  0  0
M  END
> <s_m_source_file>
AV-unprocessed.smi

> <i_m_source_file_index>
1181

> <i_lp_mmshare_version>
43012

> <i_f3d_flags>
0

> <s_epik_input>
W0NIM11PW0NIMl1bQ0gyXU9jMVtjSF1bY0hdYyhbY0hdbjEpW05IXUMoPU8pTjJbQ0gyXVtDSDJdW0NIXShbQ0gzXSlbQ0gyXVtDSDJdMg==

> <s_epik_cmdline>
J2VwaWtfcHl0aG9uJywgJy1waCcsICc3LjAnLCAnLXRuJywgJzgnLCAnLW1hJywgJzIwMCcsICctbWV0YWxfYmluZGluZycsICctaW1hZScsICc8aW5maWxlLm1hZT4nLCAnLW9tYWUnLCAnPG91dGZpbGUubWFlPic=

> <r_lp_tautomer_probability>
1

> <r_epik_Ionization_Penalty>
8.49399e-05

> <r_epik_Ionization_Penalty_Charging>
0

> <r_epik_Ionization_Penalty_Neutral>
8.49399e-05

> <r_epik_State_Penalty>
-0

> <r_epik_Charging_Adjusted_Penalty>
0

> <i_epik_Tot_Q>
0

> <i_epik_Tot_abs_Q>
0

> <r_epik_Metal_State_Penalty>
-0

> <b_epik_Metal_Only>
0

> <s_lp_Force_Field>
OPLS_2005

> <r_lp_Energy>
36.0421

> <b_lp_Chiralities_Consistent>
1

> <s_lp_Variant>
AV-unprocessed.smi:1181-1

> <Gold.Version>
5.8.1

> <Gold.Id.Protein>
6NUR|6NUR_protein|mol2

> <Gold.PLP.Fitness>
41.6311

> <Gold.PLP.PLP>
-37.1977

> <Gold.PLP.part.hbond>
-1.0000

> <Gold.PLP.part.metal>
0.0000

> <Gold.PLP.part.buried>
-1.0558

> <Gold.PLP.part.nonpolar>
-36.8268

> <Gold.PLP.part.repulsive>
0.7200

> <Gold.PLP.ligand.clash>
0.0000

> <Gold.PLP.ligand.torsion>
0.6452

> <Gold.PLP.Chemscore.Hbond>
0.8960

> <Gold.PLP.Chemscore.CHOScore>
1.0000

> <Gold.PLP.Chemscore.Metal>
0.0000

> <Gold.Chemscore.Hbonds>
donor molecule, donor type, donor heavy atom, donor atom, acceptor molecule, acceptor atom, score
      L1  H    10    31       P1  8028  0.99
      L1  C    20    44       P1  8028  0.95

> <Gold.PLP.Chemscore.Internal.Correction>
0.0358

> <Gold.Rescore>
     Score         DG    S(hbond)    S(metal)    S(lipo)     H(rot)  DE(clash)    DE(int)     intcor
     13.76     -17.14       0.97        0.00     105.90       1.55       1.44       1.94       ----

> <Gold.Chemscore.Fitness>
13.7577

> <Gold.Chemscore.DG>
-17.1406

> <Gold.Chemscore.ZeroCoef>
-5.4800

> <Gold.Chemscore.Hbond>
0.9709

> <Gold.Chemscore.Metal>
0.0000

> <Gold.Chemscore.Lipo>
105.8977

> <Gold.Chemscore.Internal_Hbond>
0.0000

> <Gold.Chemscore.DEClash>
1.4440

> <Gold.Chemscore.DEInternal>
1.9389

> <Gold.Chemscore.Rot>
1.5517

> <Gold.Chemscore.Internal.Correction>
   9.000000E+99

> <Gold.Chemscore.Hbonds>
donor molecule, donor type, donor heavy atom, donor atom, acceptor molecule, acceptor atom, score
      L1  H    10    31       P1  8028  0.92

> <Gold.Chemscore.Hbond.Weighted>
-3.2429

> <Gold.Chemscore.Metal.Weighted>
-0.0000

> <Gold.Chemscore.Lipo.Weighted>
-12.3900

> <Gold.Chemscore.Internal_Hbond.Weighted>
0.0000

> <Gold.Chemscore.DEClash.Weighted>
1.4440

> <Gold.Chemscore.DEInternal.Weighted>
1.9389

> <Gold.Chemscore.Rot.Weighted>
3.9723

> <Gold.Chemscore.Internal.Correction.Weighted>
   9.000000E+99

> <Gold.Protein.RotatedTorsions>
[ 6907 6896 6895 6894 ] final  -51.56 input  -60.11 | X-H torsion
[ 7974 7965 7964 7962 ] final  119.04 input  175.53 | X-H torsion
[ 8008 7997 7996 7995 ] final    6.64 input   59.86 | X-H torsion
[ 10167 10162 10161 10158 ] final -102.20 input  -65.29 | X-H torsion
[ 10718 10713 10712 10709 ] final  -11.82 input   66.30 | X-H torsion
[ 10763 10752 10751 10750 ] final  116.67 input  -60.55 | X-H torsion
[ 11005 11000 10999 10996 ] final  -94.82 input  -57.11 | X-H torsion

> <Gold.Protein.ActiveResidues>
 VAL166  LYS551  ARG553  GLY616  TRP617  ASP618  TYR619  PRO620  LYS621  CYS622 
 ASP623  PHE694  ASN695  SER759  ASP760  ASP761  ALA762  ILE779  LEU786  VAL792 
 PHE793  MET794  SER795  GLU796  ALA797  LYS798  CYS799  TRP800  GLU811  SER814 

> <Gold.Protein.RotatedAtoms>
  150.8600  134.7949  159.7075 H   0  0  0  0  0  0  0  0  0  0  0  0  # atno 6907 bound_to 6896
  152.4640  134.5116  159.9765 H   0  0  0  0  0  0  0  0  0  0  0  0  # atno 6908 bound_to 6896
  151.5221  133.3426  159.2939 H   0  0  0  0  0  0  0  0  0  0  0  0  # atno 6909 bound_to 6896
  145.1480  139.3228  143.4581 H   0  0  0  0  0  0  0  0  0  0  0  0  # atno 7974 bound_to 7965
  154.7436  140.2753  155.6352 H   0  0  0  0  0  0  0  0  0  0  0  0  # atno 8008 bound_to 7997
  156.2879  140.2692  156.2096 H   0  0  0  0  0  0  0  0  0  0  0  0  # atno 8009 bound_to 7997
  155.0226  140.0371  157.2433 H   0  0  0  0  0  0  0  0  0  0  0  0  # atno 8010 bound_to 7997
  140.2332  143.3592  152.0868 H   0  0  0  0  0  0  0  0  0  0  0  0  # atno 10167 bound_to 10162
  156.6534  130.4961  149.6054 H   0  0  0  0  0  0  0  0  0  0  0  0  # atno 10718 bound_to 10713
  153.5407  135.3559  155.2717 H   0  0  0  0  0  0  0  0  0  0  0  0  # atno 10763 bound_to 10752
  154.8717  135.4090  154.3047 H   0  0  0  0  0  0  0  0  0  0  0  0  # atno 10764 bound_to 10752
  153.3754  135.7066  153.6674 H   0  0  0  0  0  0  0  0  0  0  0  0  # atno 10765 bound_to 10752
  141.1460  133.7982  157.0350 H   0  0  0  0  0  0  0  0  0  0  0  0  # atno 11005 bound_to 11000
  146.3498  140.1543  142.8592 LP  0  0  0  0  0  0  0  0  0  0  0  0  # atno 17320 bound_to 7965
  145.0461  140.8983  143.5023 LP  0  0  0  0  0  0  0  0  0  0  0  0  # atno 17321 bound_to 7965
  139.5103  144.6881  151.5833 LP  0  0  0  0  0  0  0  0  0  0  0  0  # atno 17342 bound_to 10162
  140.6170  143.9331  150.6496 LP  0  0  0  0  0  0  0  0  0  0  0  0  # atno 17343 bound_to 10162
  156.2066  130.6653  151.1225 LP  0  0  0  0  0  0  0  0  0  0  0  0  # atno 17370 bound_to 10713
  157.7133  131.0723  150.6420 LP  0  0  0  0  0  0  0  0  0  0  0  0  # atno 17371 bound_to 10713
  140.0729  134.9692  157.1498 LP  0  0  0  0  0  0  0  0  0  0  0  0  # atno 17394 bound_to 11000
  140.3684  134.2417  155.7180 LP  0  0  0  0  0  0  0  0  0  0  0  0  # atno 17395 bound_to 11000

$$$$
