AV-unprocessed.smi:2973|AV-procd|sdf|11340|dock6
  -GOLD-   2272016253D 1   1.00000     0.00000
 Structure written by MMmdl.
 49 51  0  0  0  0  0  0  0  0  1 V2000
  142.8557  142.6692  159.6130 C   0  0  0  0  0  0  0  0  0  0  0  0
  143.8770  143.6181  160.2753 C   0  0  1  0  0  0  0  0  0  0  0  0
  144.3599  143.0440  161.6248 C   0  0  0  0  0  0  0  0  0  0  0  0
  145.3025  144.0168  162.3504 C   0  0  0  0  0  0  0  0  0  0  0  0
  146.5035  144.3956  161.4726 C   0  0  0  0  0  0  0  0  0  0  0  0
  146.0459  144.9696  160.1196 C   0  0  0  0  0  0  0  0  0  0  0  0
  145.0719  144.0341  159.3592 C   0  0  2  0  0  0  0  0  0  0  0  0
  144.6026  144.6953  158.1538 N   0  0  0  0  0  0  0  0  0  0  0  0
  144.9688  144.0679  157.0293 C   0  0  0  0  0  0  0  0  0  0  0  0
  144.6984  144.4412  155.8891 O   0  0  0  0  0  0  0  0  0  0  0  0
  145.6716  142.9727  157.3668 N   0  0  0  0  0  0  0  0  0  0  0  0
  146.2548  142.0356  156.3974 C   0  0  0  0  0  0  0  0  0  0  0  0
  147.5810  141.4170  156.8620 C   0  0  0  0  0  0  0  0  0  0  0  0
  147.6232  140.2792  157.3328 O   0  0  0  0  0  0  0  0  0  0  0  0
  148.6670  142.1894  156.7113 N   0  0  0  0  0  0  0  0  0  0  0  0
  150.0254  141.8092  157.0812 C   0  0  0  0  0  0  0  0  0  0  0  0
  151.0332  142.9285  156.7700 C   0  0  0  0  0  0  0  0  0  0  0  0
  151.5346  143.6152  158.0264 C   0  0  0  0  0  0  0  0  0  0  0  0
  152.2355  142.8897  159.0139 C   0  0  0  0  0  0  0  0  0  0  0  0
  152.6832  143.5761  160.1593 C   0  0  0  0  0  0  0  0  0  0  0  0
  152.4160  144.9540  160.2722 C   0  0  0  0  0  0  0  0  0  0  0  0
  151.7099  145.5873  159.2299 C   0  0  0  0  0  0  0  0  0  0  0  0
  151.2755  144.9384  158.1280 N   0  0  0  0  0  0  0  0  0  0  0  0
  145.7994  142.8619  158.6963 C   0  0  0  0  0  0  0  0  0  0  0  0
  146.3950  141.9732  159.3057 O   0  0  0  0  0  0  0  0  0  0  0  0
  143.2958  141.6996  159.3782 H   0  0  0  0  0  0  0  0  0  0  0  0
  142.4563  143.0878  158.6891 H   0  0  0  0  0  0  0  0  0  0  0  0
  142.0087  142.4889  160.2754 H   0  0  0  0  0  0  0  0  0  0  0  0
  143.3284  144.5329  160.5054 H   0  0  0  0  0  0  0  0  0  0  0  0
  143.5022  142.8349  162.2650 H   0  0  0  0  0  0  0  0  0  0  0  0
  144.8624  142.0883  161.4745 H   0  0  0  0  0  0  0  0  0  0  0  0
  144.7538  144.9182  162.6261 H   0  0  0  0  0  0  0  0  0  0  0  0
  145.6502  143.5708  163.2826 H   0  0  0  0  0  0  0  0  0  0  0  0
  147.1223  145.1277  161.9920 H   0  0  0  0  0  0  0  0  0  0  0  0
  147.1362  143.5216  161.3182 H   0  0  0  0  0  0  0  0  0  0  0  0
  145.5590  145.9305  160.2923 H   0  0  0  0  0  0  0  0  0  0  0  0
  146.9224  145.1872  159.5069 H   0  0  0  0  0  0  0  0  0  0  0  0
  144.0636  145.5487  158.1756 H   0  0  0  0  0  0  0  0  0  0  0  0
  145.5518  141.2286  156.1845 H   0  0  0  0  0  0  0  0  0  0  0  0
  146.4164  142.5452  155.4459 H   0  0  0  0  0  0  0  0  0  0  0  0
  148.5430  143.1103  156.3160 H   0  0  0  0  0  0  0  0  0  0  0  0
  150.0343  141.5905  158.1493 H   0  0  0  0  0  0  0  0  0  0  0  0
  150.3065  140.8851  156.5730 H   0  0  0  0  0  0  0  0  0  0  0  0
  151.8890  142.5279  156.2245 H   0  0  0  0  0  0  0  0  0  0  0  0
  150.5742  143.6706  156.1154 H   0  0  0  0  0  0  0  0  0  0  0  0
  152.4272  141.8329  158.8983 H   0  0  0  0  0  0  0  0  0  0  0  0
  153.2219  143.0550  160.9371 H   0  0  0  0  0  0  0  0  0  0  0  0
  152.7437  145.5125  161.1364 H   0  0  0  0  0  0  0  0  0  0  0  0
  151.4886  146.6431  159.2823 H   0  0  0  0  0  0  0  0  0  0  0  0
  1  2  1  0  0  0  0
  1 26  1  0  0  0  0
  1 27  1  0  0  0  0
  1 28  1  0  0  0  0
  2  7  1  0  0  0  0
  2  3  1  0  0  0  0
  2 29  1  0  0  0  0
  3  4  1  0  0  0  0
  3 30  1  0  0  0  0
  3 31  1  0  0  0  0
  4  5  1  0  0  0  0
  4 32  1  0  0  0  0
  4 33  1  0  0  0  0
  5  6  1  0  0  0  0
  5 34  1  0  0  0  0
  5 35  1  0  0  0  0
  6  7  1  0  0  0  0
  6 36  1  0  0  0  0
  6 37  1  0  0  0  0
  7 24  1  0  0  0  0
  7  8  1  0  0  0  0
  8  9  1  0  0  0  0
  8 38  1  0  0  0  0
  9 10  2  0  0  0  0
  9 11  1  0  0  0  0
 11 12  1  0  0  0  0
 11 24  1  0  0  0  0
 12 13  1  0  0  0  0
 12 39  1  0  0  0  0
 12 40  1  0  0  0  0
 13 14  2  0  0  0  0
 13 15  1  0  0  0  0
 15 16  1  0  0  0  0
 15 41  1  0  0  0  0
 16 17  1  0  0  0  0
 16 42  1  0  0  0  0
 16 43  1  0  0  0  0
 17 18  1  0  0  0  0
 17 44  1  0  0  0  0
 17 45  1  0  0  0  0
 18 23  1  0  0  0  0
 18 19  2  0  0  0  0
 19 20  1  0  0  0  0
 19 46  1  0  0  0  0
 20 21  2  0  0  0  0
 20 47  1  0  0  0  0
 21 22  1  0  0  0  0
 21 48  1  0  0  0  0
 22 23  2  0  0  0  0
 22 49  1  0  0  0  0
 24 25  2  0  0  0  0
M  END
> <s_m_source_file>
AV-unprocessed.smi

> <i_m_source_file_index>
2973

> <i_lp_mmshare_version>
43012

> <i_f3d_flags>
0

> <s_epik_input>
W0NIMl0xW0NIMl1bQ0gyXVtDSDJdW0NAQEhdKFtDSDNdKVtDQF0xMltOSF1DKD1PKU4oQzI9TylbQ0gyXUMoPU8pW05IXVtDSDJdW0NIMl1jM1tjSF1bY0hdW2NIXVtjSF1uMw==

> <s_epik_cmdline>
J2VwaWtfcHl0aG9uJywgJy1waCcsICc3LjAnLCAnLXRuJywgJzgnLCAnLW1hJywgJzIwMCcsICctbWV0YWxfYmluZGluZycsICctaW1hZScsICc8aW5maWxlLm1hZT4nLCAnLW9tYWUnLCAnPG91dGZpbGUubWFlPic=

> <r_lp_tautomer_probability>
1

> <r_epik_Ionization_Penalty>
0.0245152

> <r_epik_Ionization_Penalty_Charging>
0

> <r_epik_Ionization_Penalty_Neutral>
0.0245152

> <r_epik_State_Penalty>
0.0198648

> <r_epik_Charging_Adjusted_Penalty>
0.0198648

> <i_epik_Tot_Q>
0

> <i_epik_Tot_abs_Q>
0

> <r_epik_Metal_State_Penalty>
0.0400162

> <b_epik_Metal_Only>
0

> <s_lp_Force_Field>
OPLS_2005

> <r_lp_Energy>
16.769

> <b_lp_Chiralities_Consistent>
1

> <s_lp_Variant>
AV-unprocessed.smi:2973-4

> <Gold.Version>
5.8.1

> <Gold.Id.Protein>
6NUR|6NUR_protein|mol2

> <Gold.PLP.Fitness>
44.7803

> <Gold.PLP.PLP>
-40.7071

> <Gold.PLP.part.hbond>
-2.0000

> <Gold.PLP.part.metal>
0.0000

> <Gold.PLP.part.buried>
-7.1719

> <Gold.PLP.part.nonpolar>
-31.8269

> <Gold.PLP.part.repulsive>
0.2834

> <Gold.PLP.ligand.clash>
0.0000

> <Gold.PLP.ligand.torsion>
0.9805

> <Gold.PLP.Chemscore.Hbond>
2.0000

> <Gold.PLP.Chemscore.CHOScore>
0.0000

> <Gold.PLP.Chemscore.Metal>
0.0000

> <Gold.Chemscore.Hbonds>
donor molecule, donor type, donor heavy atom, donor atom, acceptor molecule, acceptor atom, score
      L1  H    15    41       P1  8028  1.00
      P1  H  6934  6946       L1    25  0.99

> <Gold.PLP.Chemscore.Internal.Correction>
0.0342

> <Gold.Rescore>
     Score         DG    S(hbond)    S(metal)    S(lipo)     H(rot)  DE(clash)    DE(int)     intcor
     15.28     -19.25       1.87        0.00     104.96       1.86       0.06       3.92       ----

> <Gold.Chemscore.Fitness>
15.2756

> <Gold.Chemscore.DG>
-19.2528

> <Gold.Chemscore.ZeroCoef>
-5.4800

> <Gold.Chemscore.Hbond>
1.8688

> <Gold.Chemscore.Metal>
0.0000

> <Gold.Chemscore.Lipo>
104.9617

> <Gold.Chemscore.Internal_Hbond>
0.0000

> <Gold.Chemscore.DEClash>
0.0580

> <Gold.Chemscore.DEInternal>
3.9192

> <Gold.Chemscore.Rot>
1.8553

> <Gold.Chemscore.Internal.Correction>
   9.000000E+99

> <Gold.Chemscore.Hbonds>
donor molecule, donor type, donor heavy atom, donor atom, acceptor molecule, acceptor atom, score
      L1  H    15    41       P1  8028  0.88
      P1  H  6934  6946       L1    25  0.93

> <Gold.Chemscore.Hbond.Weighted>
-6.2419

> <Gold.Chemscore.Metal.Weighted>
-0.0000

> <Gold.Chemscore.Lipo.Weighted>
-12.2805

> <Gold.Chemscore.Internal_Hbond.Weighted>
0.0000

> <Gold.Chemscore.DEClash.Weighted>
0.0580

> <Gold.Chemscore.DEInternal.Weighted>
3.9192

> <Gold.Chemscore.Rot.Weighted>
4.7497

> <Gold.Chemscore.Internal.Correction.Weighted>
   9.000000E+99

> <Gold.Protein.RotatedTorsions>
[ 6907 6896 6895 6894 ] final   -6.66 input  -60.11 | X-H torsion
[ 7974 7965 7964 7962 ] final   48.60 input  175.53 | X-H torsion
[ 8008 7997 7996 7995 ] final   30.57 input   59.86 | X-H torsion
[ 10167 10162 10161 10158 ] final   -6.19 input  -65.29 | X-H torsion
[ 10718 10713 10712 10709 ] final  -24.58 input   66.30 | X-H torsion
[ 10763 10752 10751 10750 ] final   33.23 input  -60.55 | X-H torsion
[ 11005 11000 10999 10996 ] final  -39.46 input  -57.11 | X-H torsion

> <Gold.Protein.ActiveResidues>
 VAL166  LYS551  ARG553  GLY616  TRP617  ASP618  TYR619  PRO620  LYS621  CYS622 
 ASP623  PHE694  ASN695  SER759  ASP760  ASP761  ALA762  ILE779  LEU786  VAL792 
 PHE793  MET794  SER795  GLU796  ALA797  LYS798  CYS799  TRP800  GLU811  SER814 

> <Gold.Protein.RotatedAtoms>
  151.4620  135.1039  159.9727 H   0  0  0  0  0  0  0  0  0  0  0  0  # atno 6907 bound_to 6896
  152.4849  133.8344  159.7130 H   0  0  0  0  0  0  0  0  0  0  0  0  # atno 6908 bound_to 6896
  150.8951  133.7132  159.2921 H   0  0  0  0  0  0  0  0  0  0  0  0  # atno 6909 bound_to 6896
  146.0189  139.4628  142.9909 H   0  0  0  0  0  0  0  0  0  0  0  0  # atno 7974 bound_to 7965
  155.0925  140.3221  155.4569 H   0  0  0  0  0  0  0  0  0  0  0  0  # atno 8008 bound_to 7997
  156.2739  140.2075  156.5999 H   0  0  0  0  0  0  0  0  0  0  0  0  # atno 8009 bound_to 7997
  154.6892  140.0518  157.0333 H   0  0  0  0  0  0  0  0  0  0  0  0  # atno 8010 bound_to 7997
  140.6988  143.6222  150.8601 H   0  0  0  0  0  0  0  0  0  0  0  0  # atno 10167 bound_to 10162
  156.4757  130.4534  149.6842 H   0  0  0  0  0  0  0  0  0  0  0  0  # atno 10718 bound_to 10713
  153.0222  135.6392  154.1479 H   0  0  0  0  0  0  0  0  0  0  0  0  # atno 10763 bound_to 10752
  154.1212  135.2846  155.3209 H   0  0  0  0  0  0  0  0  0  0  0  0  # atno 10764 bound_to 10752
  154.6262  135.5508  153.7691 H   0  0  0  0  0  0  0  0  0  0  0  0  # atno 10765 bound_to 10752
  141.0103  133.6911  156.2189 H   0  0  0  0  0  0  0  0  0  0  0  0  # atno 11005 bound_to 11000
  145.7225  141.0070  143.1395 LP  0  0  0  0  0  0  0  0  0  0  0  0  # atno 17320 bound_to 7965
  144.6982  139.8887  143.7452 LP  0  0  0  0  0  0  0  0  0  0  0  0  # atno 17321 bound_to 7965
  139.9943  143.5813  152.2899 LP  0  0  0  0  0  0  0  0  0  0  0  0  # atno 17342 bound_to 10162
  139.6479  144.7659  151.2206 LP  0  0  0  0  0  0  0  0  0  0  0  0  # atno 17343 bound_to 10162
  156.3572  130.7463  151.2430 LP  0  0  0  0  0  0  0  0  0  0  0  0  # atno 17370 bound_to 10713
  157.7487  131.0360  150.4390 LP  0  0  0  0  0  0  0  0  0  0  0  0  # atno 17371 bound_to 10713
  140.6744  134.4833  157.5588 LP  0  0  0  0  0  0  0  0  0  0  0  0  # atno 17394 bound_to 11000
  139.9086  134.8394  156.1611 LP  0  0  0  0  0  0  0  0  0  0  0  0  # atno 17395 bound_to 11000

$$$$
