AV-unprocessed.smi:1521|AV-procd|sdf|6133|dock1
  -GOLD-   22720 6273D 1   1.00000     0.00000
 Structure written by MMmdl.
 35 36  0  0  0  0  0  0  0  0  2 V2000
  149.4026  133.7843  155.6931 O   0  0  0  0  0  0  0  0  0  0  0  0
  149.2835  134.4164  154.6443 C   0  0  0  0  0  0  0  0  0  0  0  0
  149.8598  135.6091  154.4381 N   0  0  0  0  0  0  0  0  0  0  0  0
  150.7200  136.3068  155.3882 C   0  0  0  0  0  0  0  0  0  0  0  0
  150.3427  137.7937  155.5057 C   0  0  1  0  0  0  0  0  0  0  0  0
  151.0929  138.6619  154.4759 C   0  0  0  0  0  0  0  0  0  0  0  0
  150.6778  140.0149  154.6109 O   0  0  0  0  0  0  0  0  0  0  0  0
  149.2817  140.1519  154.3836 C   0  0  0  0  0  0  0  0  0  0  0  0
  148.5216  139.2856  155.4009 C   0  0  0  0  0  0  0  0  0  0  0  0
  148.9467  137.9369  155.2645 O   0  0  0  0  0  0  0  0  0  0  0  0
  148.5893  134.0320  153.5576 N   0  0  0  0  0  0  0  0  0  0  0  0
  147.8488  132.8597  153.3219 C   0  0  0  0  0  0  0  0  0  0  0  0
  148.2994  131.5897  153.5224 C   0  0  0  0  0  0  0  0  0  0  0  0
  147.4758  130.4173  153.2539 C   0  0  0  0  0  0  0  0  0  0  0  0
  147.9164  128.9932  153.5434 C   0  0  0  0  0  0  0  0  0  0  0  0
  147.1211  128.4192  154.4466 F   0  0  0  0  0  0  0  0  0  0  0  0
  147.8675  128.2675  152.4270 F   0  0  0  0  0  0  0  0  0  0  0  0
  149.1668  128.9634  154.0048 F   0  0  0  0  0  0  0  0  0  0  0  0
  146.2129  130.7543  152.8076 C   0  0  0  0  0  0  0  0  0  0  0  0
  145.6936  131.9783  152.5698 N   0  5  0  0  0  0  0  0  0  0  0  0
  146.4743  133.0673  152.8190 C   0  0  0  0  0  0  0  0  0  0  0  0
  146.0585  134.2118  152.6334 O   0  0  0  0  0  0  0  0  0  0  0  0
  149.7098  136.0585  153.5468 H   0  0  0  0  0  0  0  0  0  0  0  0
  150.5957  135.8202  156.3560 H   0  0  0  0  0  0  0  0  0  0  0  0
  151.7722  136.1944  155.1214 H   0  0  0  0  0  0  0  0  0  0  0  0
  150.5775  138.1436  156.5128 H   0  0  0  0  0  0  0  0  0  0  0  0
  152.1684  138.6072  154.6444 H   0  0  0  0  0  0  0  0  0  0  0  0
  150.9088  138.3122  153.4587 H   0  0  0  0  0  0  0  0  0  0  0  0
  149.0026  141.1997  154.4927 H   0  0  0  0  0  0  0  0  0  0  0  0
  149.0357  139.8575  153.3622 H   0  0  0  0  0  0  0  0  0  0  0  0
  148.6946  139.6356  156.4198 H   0  0  0  0  0  0  0  0  0  0  0  0
  147.4483  139.3401  155.2195 H   0  0  0  0  0  0  0  0  0  0  0  0
  148.6077  134.6670  152.7731 H   0  0  0  0  0  0  0  0  0  0  0  0
  149.2927  131.4007  153.8918 H   0  0  0  0  0  0  0  0  0  0  0  0
  145.5127  129.9132  152.6167 H   0  0  0  0  0  0  0  0  0  0  0  0
  1  2  2  0  0  0  0
  2  3  1  0  0  0  0
  2 11  1  0  0  0  0
  3  4  1  0  0  0  0
  3 23  1  0  0  0  0
  4  5  1  0  0  0  0
  4 24  1  0  0  0  0
  4 25  1  0  0  0  0
  5 10  1  0  0  0  0
  5  6  1  0  0  0  0
  5 26  1  0  0  0  0
  6  7  1  0  0  0  0
  6 27  1  0  0  0  0
  6 28  1  0  0  0  0
  7  8  1  0  0  0  0
  8  9  1  0  0  0  0
  8 29  1  0  0  0  0
  8 30  1  0  0  0  0
  9 10  1  0  0  0  0
  9 31  1  0  0  0  0
  9 32  1  0  0  0  0
 11 12  1  0  0  0  0
 11 33  1  0  0  0  0
 12 21  1  0  0  0  0
 12 13  2  0  0  0  0
 13 14  1  0  0  0  0
 13 34  1  0  0  0  0
 14 15  1  0  0  0  0
 14 19  2  0  0  0  0
 15 16  1  0  0  0  0
 15 17  1  0  0  0  0
 15 18  1  0  0  0  0
 19 20  1  0  0  0  0
 19 35  1  0  0  0  0
 20 21  1  0  0  0  0
 21 22  2  0  0  0  0
M  CHG  1  20  -1
M  END
> <s_m_source_file>
AV-unprocessed.smi

> <i_m_source_file_index>
1521

> <i_lp_mmshare_version>
43012

> <i_f3d_flags>
0

> <s_epik_input>
Tz1jMVtuSF1bY0hdYyhDKEYpKEYpRilbY0hdYzFbTkhdQyg9TylbTkhdW0NIMl1bQ0BASF0yW0NIMl1PW0NIMl1bQ0gyXU8y

> <s_epik_cmdline>
J2VwaWtfcHl0aG9uJywgJy1waCcsICc3LjAnLCAnLXRuJywgJzgnLCAnLW1hJywgJzIwMCcsICctbWV0YWxfYmluZGluZycsICctaW1hZScsICc8aW5maWxlLm1hZT4nLCAnLW9tYWUnLCAnPG91dGZpbGUubWFlPic=

> <r_lp_tautomer_probability>
1

> <r_epik_Ionization_Penalty>
3.1412

> <r_epik_Ionization_Penalty_Charging>
0.17015

> <r_epik_Ionization_Penalty_Neutral>
2.97105

> <r_epik_State_Penalty>
2.96707

> <r_epik_Charging_Adjusted_Penalty>
3.13722

> <i_epik_Tot_Q>
-1

> <i_epik_Tot_abs_Q>
1

> <r_epik_Metal_State_Penalty>
0.451298

> <b_epik_Metal_Only>
1

> <s_lp_Force_Field>
OPLS_2005

> <r_lp_Energy>
21.3

> <b_lp_Chiralities_Consistent>
1

> <s_lp_Variant>
AV-unprocessed.smi:1521-4

> <Gold.Version>
5.8.1

> <Gold.Id.Protein>
6NUR|6NUR_protein|mol2

> <Gold.PLP.Fitness>
37.4473

> <Gold.PLP.PLP>
-30.5317

> <Gold.PLP.part.hbond>
-3.4777

> <Gold.PLP.part.metal>
0.0000

> <Gold.PLP.part.buried>
-4.3050

> <Gold.PLP.part.nonpolar>
-23.6339

> <Gold.PLP.part.repulsive>
0.4915

> <Gold.PLP.ligand.clash>
0.0000

> <Gold.PLP.ligand.torsion>
0.9202

> <Gold.PLP.Chemscore.Hbond>
2.9000

> <Gold.PLP.Chemscore.CHOScore>
0.0000

> <Gold.PLP.Chemscore.Metal>
0.0000

> <Gold.Chemscore.Hbonds>
donor molecule, donor type, donor heavy atom, donor atom, acceptor molecule, acceptor atom, score
      L1  H     3    23       P1  7948  0.95
      L1  H    11    33       P1  7948  0.85
      P1  H  7989  7998       L1     7  1.00

> <Gold.PLP.Chemscore.Internal.Correction>
0.0561

> <Gold.Rescore>
     Score         DG    S(hbond)    S(metal)    S(lipo)     H(rot)  DE(clash)    DE(int)     intcor
     12.14     -13.05       1.64        0.00      47.65       1.36       0.00       0.91       ----

> <Gold.Chemscore.Fitness>
12.1378

> <Gold.Chemscore.DG>
-13.0456

> <Gold.Chemscore.ZeroCoef>
-5.4800

> <Gold.Chemscore.Hbond>
1.6414

> <Gold.Chemscore.Metal>
0.0000

> <Gold.Chemscore.Lipo>
47.6501

> <Gold.Chemscore.Internal_Hbond>
0.0000

> <Gold.Chemscore.DEClash>
0.0004

> <Gold.Chemscore.DEInternal>
0.9073

> <Gold.Chemscore.Rot>
1.3640

> <Gold.Chemscore.Internal.Correction>
   9.000000E+99

> <Gold.Chemscore.Hbonds>
donor molecule, donor type, donor heavy atom, donor atom, acceptor molecule, acceptor atom, score
      L1  H     3    23       P1  7948  0.21
      L1  H    11    33       P1  7948  0.15
      P1  H  7989  7998       L1     7  0.43

> <Gold.Chemscore.Hbond.Weighted>
-5.4823

> <Gold.Chemscore.Metal.Weighted>
-0.0000

> <Gold.Chemscore.Lipo.Weighted>
-5.5751

> <Gold.Chemscore.Internal_Hbond.Weighted>
0.0000

> <Gold.Chemscore.DEClash.Weighted>
0.0004

> <Gold.Chemscore.DEInternal.Weighted>
0.9073

> <Gold.Chemscore.Rot.Weighted>
3.4918

> <Gold.Chemscore.Internal.Correction.Weighted>
   9.000000E+99

> <Gold.Protein.RotatedTorsions>
[ 6907 6896 6895 6894 ] final  140.88 input  -60.11 | X-H torsion
[ 7974 7965 7964 7962 ] final  116.06 input  175.53 | X-H torsion
[ 8008 7997 7996 7995 ] final   22.28 input   59.86 | X-H torsion
[ 10167 10162 10161 10158 ] final   66.83 input  -65.29 | X-H torsion
[ 10718 10713 10712 10709 ] final -129.49 input   66.30 | X-H torsion
[ 10763 10752 10751 10750 ] final -128.46 input  -60.55 | X-H torsion
[ 11005 11000 10999 10996 ] final  -99.16 input  -57.11 | X-H torsion

> <Gold.Protein.ActiveResidues>
 VAL166  LYS551  ARG553  GLY616  TRP617  ASP618  TYR619  PRO620  LYS621  CYS622 
 ASP623  PHE694  ASN695  SER759  ASP760  ASP761  ALA762  ILE779  LEU786  VAL792 
 PHE793  MET794  SER795  GLU796  ALA797  LYS798  CYS799  TRP800  GLU811  SER814 

> <Gold.Protein.RotatedAtoms>
  152.2377  133.5110  159.5251 H   0  0  0  0  0  0  0  0  0  0  0  0  # atno 6907 bound_to 6896
  150.7055  134.1131  159.4016 H   0  0  0  0  0  0  0  0  0  0  0  0  # atno 6908 bound_to 6896
  151.9052  135.0362  160.0560 H   0  0  0  0  0  0  0  0  0  0  0  0  # atno 6909 bound_to 6896
  145.1843  139.3033  143.4401 H   0  0  0  0  0  0  0  0  0  0  0  0  # atno 7974 bound_to 7965
  154.9633  140.3081  155.5021 H   0  0  0  0  0  0  0  0  0  0  0  0  # atno 8008 bound_to 7997
  156.2974  140.2297  156.4658 H   0  0  0  0  0  0  0  0  0  0  0  0  # atno 8009 bound_to 7997
  154.7945  140.0438  157.1214 H   0  0  0  0  0  0  0  0  0  0  0  0  # atno 8010 bound_to 7997
  140.0962  144.4945  150.7067 H   0  0  0  0  0  0  0  0  0  0  0  0  # atno 10167 bound_to 10162
  156.2052  130.6883  151.0585 H   0  0  0  0  0  0  0  0  0  0  0  0  # atno 10718 bound_to 10713
  154.8756  135.3927  154.3761 H   0  0  0  0  0  0  0  0  0  0  0  0  # atno 10763 bound_to 10752
  153.4514  135.7028  153.6111 H   0  0  0  0  0  0  0  0  0  0  0  0  # atno 10764 bound_to 10752
  153.4649  135.3803  155.2328 H   0  0  0  0  0  0  0  0  0  0  0  0  # atno 10765 bound_to 10752
  141.1319  133.8300  157.0934 H   0  0  0  0  0  0  0  0  0  0  0  0  # atno 11005 bound_to 11000
  146.3447  140.2033  142.8589 LP  0  0  0  0  0  0  0  0  0  0  0  0  # atno 17320 bound_to 7965
  145.0105  140.8710  143.5227 LP  0  0  0  0  0  0  0  0  0  0  0  0  # atno 17321 bound_to 7965
  140.7002  143.2430  151.4885 LP  0  0  0  0  0  0  0  0  0  0  0  0  # atno 17342 bound_to 10162
  139.5697  144.1958  152.1818 LP  0  0  0  0  0  0  0  0  0  0  0  0  # atno 17343 bound_to 10162
  157.7008  131.0776  150.6826 LP  0  0  0  0  0  0  0  0  0  0  0  0  # atno 17370 bound_to 10713
  156.6884  130.4588  149.5607 LP  0  0  0  0  0  0  0  0  0  0  0  0  # atno 17371 bound_to 10713
  140.0378  134.9869  157.0904 LP  0  0  0  0  0  0  0  0  0  0  0  0  # atno 17394 bound_to 11000
  140.4183  134.1908  155.7164 LP  0  0  0  0  0  0  0  0  0  0  0  0  # atno 17395 bound_to 11000

$$$$
