AV-unprocessed.smi:196|AV-procd|sdf|1530|dock5
  -GOLD-   2262019383D 1   1.00000     0.00000
 Structure written by MMmdl.
 47 50  0  0  0  0  0  0  0  0  1 V2000
  146.8099  141.9282  154.1569 C   0  0  0  0  0  0  0  0  0  0  0  0
  147.4005  140.7588  153.3520 C   0  0  2  0  0  0  0  0  0  0  0  0
  146.4671  140.2980  152.3854 O   0  0  0  0  0  0  0  0  0  0  0  0
  146.8842  139.0050  151.9867 C   0  0  0  0  0  0  0  0  0  0  0  0
  147.2408  138.3474  153.3136 C   0  0  0  0  0  0  0  0  0  0  0  0
  147.8186  139.4937  154.1488 C   0  0  2  0  0  0  0  0  0  0  0  0
  147.2124  139.4549  155.4301 O   0  0  0  0  0  0  0  0  0  0  0  0
  149.3524  139.3650  154.3282 C   0  0  0  0  0  0  0  0  0  0  0  0
  149.8839  140.1868  155.4053 N   0  0  0  0  0  0  0  0  0  0  0  0
  149.8152  141.5577  155.5093 C   0  0  0  0  0  0  0  0  0  0  0  0
  150.3565  142.0616  156.5840 N   0  0  0  0  0  0  0  0  0  0  0  0
  150.8564  140.9578  157.2662 C   0  0  0  0  0  0  0  0  0  0  0  0
  151.5530  140.7807  158.4972 C   0  0  0  0  0  0  0  0  0  0  0  0
  151.8929  141.8115  159.3183 N   0  0  0  0  0  0  0  0  0  0  0  0
  151.1155  143.0445  159.2468 C   0  0  0  0  0  0  0  0  0  0  0  0
  152.1172  144.1809  159.4485 C   0  0  2  0  0  0  0  0  0  0  0  0
  152.5892  144.5728  158.2638 F   0  0  0  0  0  0  0  0  0  0  0  0
  153.2353  143.5228  160.2491 C   0  0  0  0  0  0  0  0  0  0  0  0
  153.2852  142.0873  159.7007 C   0  0  1  0  0  0  0  0  0  0  0  0
  153.8805  141.1209  160.7443 C   0  0  0  0  0  0  0  0  0  0  0  0
  154.3016  141.6125  161.9145 N   0  0  0  0  0  0  0  0  0  0  0  0
  153.9560  139.9213  160.4872 O   0  0  0  0  0  0  0  0  0  0  0  0
  151.8680  139.5071  158.8536 N   0  0  0  0  0  0  0  0  0  0  0  0
  151.5425  138.4801  158.0639 C   0  0  0  0  0  0  0  0  0  0  0  0
  150.9022  138.4983  156.8942 N   0  0  0  0  0  0  0  0  0  0  0  0
  150.5689  139.7705  156.5339 C   0  0  0  0  0  0  0  0  0  0  0  0
  151.6868  145.0553  159.9372 H   0  0  0  0  0  0  0  0  0  0  0  0
  153.9141  142.0769  158.8087 H   0  0  0  0  0  0  0  0  0  0  0  0
  147.5123  142.2803  154.9126 H   0  0  0  0  0  0  0  0  0  0  0  0
  145.8862  141.6426  154.6608 H   0  0  0  0  0  0  0  0  0  0  0  0
  146.5790  142.7692  153.5029 H   0  0  0  0  0  0  0  0  0  0  0  0
  148.2567  141.1273  152.7854 H   0  0  0  0  0  0  0  0  0  0  0  0
  146.0984  138.4738  151.4496 H   0  0  0  0  0  0  0  0  0  0  0  0
  147.7582  139.0812  151.3378 H   0  0  0  0  0  0  0  0  0  0  0  0
  146.3266  137.9567  153.7644 H   0  0  0  0  0  0  0  0  0  0  0  0
  147.9259  137.5080  153.1899 H   0  0  0  0  0  0  0  0  0  0  0  0
  146.2739  139.4651  155.3200 H   0  0  0  0  0  0  0  0  0  0  0  0
  149.6264  138.3270  154.5224 H   0  0  0  0  0  0  0  0  0  0  0  0
  149.8621  139.6452  153.4052 H   0  0  0  0  0  0  0  0  0  0  0  0
  149.3391  142.1776  154.7638 H   0  0  0  0  0  0  0  0  0  0  0  0
  150.5772  143.1598  158.3043 H   0  0  0  0  0  0  0  0  0  0  0  0
  150.3831  143.0361  160.0548 H   0  0  0  0  0  0  0  0  0  0  0  0
  154.1870  144.0458  160.1492 H   0  0  0  0  0  0  0  0  0  0  0  0
  152.9658  143.5243  161.3070 H   0  0  0  0  0  0  0  0  0  0  0  0
  154.6997  140.9937  162.6058 H   0  0  0  0  0  0  0  0  0  0  0  0
  154.2255  142.6019  162.0996 H   0  0  0  0  0  0  0  0  0  0  0  0
  151.8367  137.5044  158.4217 H   0  0  0  0  0  0  0  0  0  0  0  0
  1  2  1  0  0  0  0
  1 29  1  0  0  0  0
  1 30  1  0  0  0  0
  1 31  1  0  0  0  0
  2  6  1  0  0  0  0
  2  3  1  0  0  0  0
  2 32  1  0  0  0  0
  3  4  1  0  0  0  0
  4  5  1  0  0  0  0
  4 33  1  0  0  0  0
  4 34  1  0  0  0  0
  5  6  1  0  0  0  0
  5 35  1  0  0  0  0
  5 36  1  0  0  0  0
  6  7  1  0  0  0  0
  6  8  1  0  0  0  0
  7 37  1  0  0  0  0
  8  9  1  0  0  0  0
  8 38  1  0  0  0  0
  8 39  1  0  0  0  0
  9 26  1  0  0  0  0
  9 10  1  0  0  0  0
 10 11  2  0  0  0  0
 10 40  1  0  0  0  0
 11 12  1  0  0  0  0
 12 26  2  0  0  0  0
 12 13  1  0  0  0  0
 13 14  1  0  0  0  0
 13 23  2  0  0  0  0
 14 19  1  0  0  0  0
 14 15  1  0  0  0  0
 15 16  1  0  0  0  0
 15 41  1  0  0  0  0
 15 42  1  0  0  0  0
 16 27  1  0  0  0  0
 16 17  1  0  0  0  0
 16 18  1  0  0  0  0
 18 19  1  0  0  0  0
 18 43  1  0  0  0  0
 18 44  1  0  0  0  0
 19 28  1  0  0  0  0
 19 20  1  0  0  0  0
 20 21  1  0  0  0  0
 20 22  2  0  0  0  0
 21 45  1  0  0  0  0
 21 46  1  0  0  0  0
 23 24  1  0  0  0  0
 24 25  2  0  0  0  0
 24 47  1  0  0  0  0
 25 26  1  0  0  0  0
M  END
> <s_m_source_file>
AV-unprocessed.smi

> <i_m_source_file_index>
196

> <i_lp_mmshare_version>
43012

> <i_f3d_flags>
0

> <s_epik_input>
W0NIMl0xW0NIMl1PW0NAQEhdKFtDSDNdKVtDQEBdMShbT0hdKVtDSDJdbihbY0hdbjIpYyhjMjMpbltjSF1uYzNONFtDSDJdW0NASF0oRilbQ0gyXVtDQEhdNEMoPU8pW05IMl0=

> <s_epik_cmdline>
J2VwaWtfcHl0aG9uJywgJy1waCcsICc3LjAnLCAnLXRuJywgJzgnLCAnLW1hJywgJzIwMCcsICctbWV0YWxfYmluZGluZycsICctaW1hZScsICc8aW5maWxlLm1hZT4nLCAnLW9tYWUnLCAnPG91dGZpbGUubWFlPic=

> <r_lp_tautomer_probability>
1

> <r_epik_Ionization_Penalty>
0.000857933

> <r_epik_Ionization_Penalty_Charging>
0

> <r_epik_Ionization_Penalty_Neutral>
0.000857933

> <r_epik_State_Penalty>
0.000462053

> <r_epik_Charging_Adjusted_Penalty>
0.000462053

> <i_epik_Tot_Q>
0

> <i_epik_Tot_abs_Q>
0

> <r_epik_Metal_State_Penalty>
-0

> <b_epik_Metal_Only>
0

> <s_lp_Force_Field>
OPLS_2005

> <r_lp_Energy>
46.3924

> <b_lp_Chiralities_Consistent>
1

> <s_lp_Variant>
AV-unprocessed.smi:196-3

> <Gold.Version>
5.8.1

> <Gold.Id.Protein>
6NUR|6NUR_protein|mol2

> <Gold.PLP.Fitness>
43.8876

> <Gold.PLP.PLP>
-43.8623

> <Gold.PLP.part.hbond>
-1.0000

> <Gold.PLP.part.metal>
0.0000

> <Gold.PLP.part.buried>
-1.1247

> <Gold.PLP.part.nonpolar>
-44.3976

> <Gold.PLP.part.repulsive>
2.6002

> <Gold.PLP.ligand.clash>
0.0185

> <Gold.PLP.ligand.torsion>
0.9094

> <Gold.PLP.Chemscore.Hbond>
0.0000

> <Gold.PLP.Chemscore.CHOScore>
0.5221

> <Gold.PLP.Chemscore.Metal>
0.0000

> <Gold.Chemscore.Hbonds>
donor molecule, donor type, donor heavy atom, donor atom, acceptor molecule, acceptor atom, score
      L1  C    10    40       P1  8028  0.35

> <Gold.PLP.Chemscore.Internal.Correction>
0.2963

> <Gold.Rescore>
     Score         DG    S(hbond)    S(metal)    S(lipo)     H(rot)  DE(clash)    DE(int)     intcor
      4.37      -9.80       0.00        0.00      93.73       2.60       1.65       3.78       ----

> <Gold.Chemscore.Fitness>
4.3716

> <Gold.Chemscore.DG>
-9.7989

> <Gold.Chemscore.ZeroCoef>
-5.4800

> <Gold.Chemscore.Hbond>
0.0000

> <Gold.Chemscore.Metal>
0.0000

> <Gold.Chemscore.Lipo>
93.7316

> <Gold.Chemscore.Internal_Hbond>
0.0000

> <Gold.Chemscore.DEClash>
1.6473

> <Gold.Chemscore.DEInternal>
3.7799

> <Gold.Chemscore.Rot>
2.5968

> <Gold.Chemscore.Internal.Correction>
   9.000000E+99

> <Gold.Chemscore.Hbond.Weighted>
-0.0000

> <Gold.Chemscore.Metal.Weighted>
-0.0000

> <Gold.Chemscore.Lipo.Weighted>
-10.9666

> <Gold.Chemscore.Internal_Hbond.Weighted>
0.0000

> <Gold.Chemscore.DEClash.Weighted>
1.6473

> <Gold.Chemscore.DEInternal.Weighted>
3.7799

> <Gold.Chemscore.Rot.Weighted>
6.6477

> <Gold.Chemscore.Internal.Correction.Weighted>
   9.000000E+99

> <Gold.Protein.RotatedTorsions>
[ 6907 6896 6895 6894 ] final -100.93 input  -60.11 | X-H torsion
[ 7974 7965 7964 7962 ] final   66.92 input  175.53 | X-H torsion
[ 8008 7997 7996 7995 ] final   26.64 input   59.86 | X-H torsion
[ 10167 10162 10161 10158 ] final    9.90 input  -65.29 | X-H torsion
[ 10718 10713 10712 10709 ] final -101.22 input   66.30 | X-H torsion
[ 10763 10752 10751 10750 ] final   34.46 input  -60.55 | X-H torsion
[ 11005 11000 10999 10996 ] final -119.17 input  -57.11 | X-H torsion

> <Gold.Protein.ActiveResidues>
 VAL166  LYS551  ARG553  GLY616  TRP617  ASP618  TYR619  PRO620  LYS621  CYS622 
 ASP623  PHE694  ASN695  SER759  ASP760  ASP761  ALA762  ILE779  LEU786  VAL792 
 PHE793  MET794  SER795  GLU796  ALA797  LYS798  CYS799  TRP800  GLU811  SER814 

> <Gold.Protein.RotatedAtoms>
  150.7135  134.0812  159.3898 H   0  0  0  0  0  0  0  0  0  0  0  0  # atno 6907 bound_to 6896
  151.8796  135.0456  160.0497 H   0  0  0  0  0  0  0  0  0  0  0  0  # atno 6908 bound_to 6896
  152.2578  133.5235  159.5400 H   0  0  0  0  0  0  0  0  0  0  0  0  # atno 6909 bound_to 6896
  145.8209  139.3084  143.1044 H   0  0  0  0  0  0  0  0  0  0  0  0  # atno 7974 bound_to 7965
  155.0305  140.3158  155.4760 H   0  0  0  0  0  0  0  0  0  0  0  0  # atno 8008 bound_to 7997
  156.2875  140.2181  156.5368 H   0  0  0  0  0  0  0  0  0  0  0  0  # atno 8009 bound_to 7997
  154.7375  140.0476  157.0769 H   0  0  0  0  0  0  0  0  0  0  0  0  # atno 8010 bound_to 7997
  140.6227  143.8169  150.7195 H   0  0  0  0  0  0  0  0  0  0  0  0  # atno 10167 bound_to 10162
  156.0188  130.5363  150.6931 H   0  0  0  0  0  0  0  0  0  0  0  0  # atno 10718 bound_to 10713
  153.0163  135.6359  154.1673 H   0  0  0  0  0  0  0  0  0  0  0  0  # atno 10763 bound_to 10752
  154.1412  135.2834  155.3162 H   0  0  0  0  0  0  0  0  0  0  0  0  # atno 10764 bound_to 10752
  154.6123  135.5552  153.7548 H   0  0  0  0  0  0  0  0  0  0  0  0  # atno 10765 bound_to 10752
  141.0234  134.0090  157.3249 H   0  0  0  0  0  0  0  0  0  0  0  0  # atno 11005 bound_to 11000
  145.9676  140.8786  143.0179 LP  0  0  0  0  0  0  0  0  0  0  0  0  # atno 17320 bound_to 7965
  144.6748  140.1900  143.7397 LP  0  0  0  0  0  0  0  0  0  0  0  0  # atno 17321 bound_to 7965
  140.1762  143.4152  152.1965 LP  0  0  0  0  0  0  0  0  0  0  0  0  # atno 17342 bound_to 10162
  139.5453  144.7293  151.4604 LP  0  0  0  0  0  0  0  0  0  0  0  0  # atno 17343 bound_to 10162
  157.4608  131.0883  151.0747 LP  0  0  0  0  0  0  0  0  0  0  0  0  # atno 17370 bound_to 10713
  157.1235  130.6072  149.5511 LP  0  0  0  0  0  0  0  0  0  0  0  0  # atno 17371 bound_to 10713
  139.9160  135.0197  156.7884 LP  0  0  0  0  0  0  0  0  0  0  0  0  # atno 17394 bound_to 11000
  140.6533  133.9711  155.7766 LP  0  0  0  0  0  0  0  0  0  0  0  0  # atno 17395 bound_to 11000

$$$$
