AV-unprocessed.smi:1997|AV-procd|sdf|8088|dock3
  -GOLD-   2272010303D 1   1.00000     0.00000
 Structure written by MMmdl.
 36 38  0  0  0  0  0  0  0  0  2 V2000
  153.1006  139.3828  157.6870 O   0  0  0  0  0  0  0  0  0  0  0  0
  152.0697  139.2124  158.3421 C   0  0  0  0  0  0  0  0  0  0  0  0
  151.5311  138.0226  158.6939 N   0  5  0  0  0  0  0  0  0  0  0  0
  151.3587  137.0634  157.7696 C   0  0  0  0  0  0  0  0  0  0  0  0
  152.1777  136.0071  157.6680 N   0  0  0  0  0  0  0  0  0  0  0  0
  151.8162  135.1336  156.6523 N   0  0  0  0  0  0  0  0  0  0  0  0
  150.7224  135.5405  156.0037 C   0  0  0  0  0  0  0  0  0  0  0  0
  150.1336  134.7730  154.8676 C   0  0  0  0  0  0  0  0  0  0  0  0
  148.6880  134.3326  154.8991 C   0  0  0  0  0  0  0  0  0  0  0  0
  149.7870  133.3058  154.9998 C   0  0  0  0  0  0  0  0  0  0  0  0
  150.0378  137.0434  156.6018 S   0  0  0  0  0  0  0  0  0  0  0  0
  151.3683  140.2713  158.7751 N   0  0  0  0  0  0  0  0  0  0  0  0
  151.6872  141.6808  158.5364 C   0  0  2  0  0  0  0  0  0  0  0  0
  152.2275  142.2803  159.8594 C   0  0  0  0  0  0  0  0  0  0  0  0
  152.2486  143.8224  159.9587 C   0  0  0  0  0  0  0  0  0  0  0  0
  152.7779  144.5544  158.7084 C   0  0  0  0  0  0  0  0  0  0  0  0
  151.9946  144.3334  157.3881 C   0  0  0  0  0  0  0  0  0  0  0  0
  150.6811  143.7101  157.5500 N   0  0  0  0  0  0  0  0  0  0  0  0
  150.4578  142.4853  158.0563 C   0  0  0  0  0  0  0  0  0  0  0  0
  149.3175  142.0351  158.1619 O   0  0  0  0  0  0  0  0  0  0  0  0
  150.5419  135.1163  153.9193 H   0  0  0  0  0  0  0  0  0  0  0  0
  148.1152  134.5450  155.7998 H   0  0  0  0  0  0  0  0  0  0  0  0
  148.1286  134.3828  153.9675 H   0  0  0  0  0  0  0  0  0  0  0  0
  149.9616  132.6694  154.1348 H   0  0  0  0  0  0  0  0  0  0  0  0
  149.9326  132.8273  155.9662 H   0  0  0  0  0  0  0  0  0  0  0  0
  150.5294  140.0810  159.3029 H   0  0  0  0  0  0  0  0  0  0  0  0
  152.4683  141.7257  157.7764 H   0  0  0  0  0  0  0  0  0  0  0  0
  151.6474  141.9006  160.7022 H   0  0  0  0  0  0  0  0  0  0  0  0
  153.2406  141.9058  160.0108 H   0  0  0  0  0  0  0  0  0  0  0  0
  151.2466  144.1873  160.1896 H   0  0  0  0  0  0  0  0  0  0  0  0
  152.8548  144.1061  160.8195 H   0  0  0  0  0  0  0  0  0  0  0  0
  152.7796  145.6226  158.9275 H   0  0  0  0  0  0  0  0  0  0  0  0
  153.8241  144.2910  158.5504 H   0  0  0  0  0  0  0  0  0  0  0  0
  151.8555  145.2897  156.8834 H   0  0  0  0  0  0  0  0  0  0  0  0
  152.5865  143.7283  156.6999 H   0  0  0  0  0  0  0  0  0  0  0  0
  149.8805  144.2450  157.2462 H   0  0  0  0  0  0  0  0  0  0  0  0
  1  2  2  0  0  0  0
  2  3  1  0  0  0  0
  2 12  1  0  0  0  0
  3  4  1  0  0  0  0
  4 11  1  0  0  0  0
  4  5  2  0  0  0  0
  5  6  1  0  0  0  0
  6  7  2  0  0  0  0
  7  8  1  0  0  0  0
  7 11  1  0  0  0  0
  8 10  1  0  0  0  0
  8  9  1  0  0  0  0
  8 21  1  0  0  0  0
  9 10  1  0  0  0  0
  9 22  1  0  0  0  0
  9 23  1  0  0  0  0
 10 24  1  0  0  0  0
 10 25  1  0  0  0  0
 12 13  1  0  0  0  0
 12 26  1  0  0  0  0
 13 19  1  0  0  0  0
 13 14  1  0  0  0  0
 13 27  1  0  0  0  0
 14 15  1  0  0  0  0
 14 28  1  0  0  0  0
 14 29  1  0  0  0  0
 15 16  1  0  0  0  0
 15 30  1  0  0  0  0
 15 31  1  0  0  0  0
 16 17  1  0  0  0  0
 16 32  1  0  0  0  0
 16 33  1  0  0  0  0
 17 18  1  0  0  0  0
 17 34  1  0  0  0  0
 17 35  1  0  0  0  0
 18 19  1  0  0  0  0
 18 36  1  0  0  0  0
 19 20  2  0  0  0  0
M  CHG  1   3  -1
M  END
> <s_m_source_file>
AV-unprocessed.smi

> <i_m_source_file_index>
1997

> <i_lp_mmshare_version>
43012

> <i_f3d_flags>
0

> <s_epik_input>
W0NIMl0xW0NIMl1bQ0hdMWMoczIpbm5jMltOSF1DKD1PKVtOSF1bQ0BASF0zW0NIMl1bQ0gyXVtDSDJdW0NIMl1bTkhdQzM9Tw==

> <s_epik_cmdline>
J2VwaWtfcHl0aG9uJywgJy1waCcsICc3LjAnLCAnLXRuJywgJzgnLCAnLW1hJywgJzIwMCcsICctbWV0YWxfYmluZGluZycsICctaW1hZScsICc8aW5maWxlLm1hZT4nLCAnLW9tYWUnLCAnPG91dGZpbGUubWFlPic=

> <r_lp_tautomer_probability>
1

> <r_epik_Ionization_Penalty>
4.47229

> <r_epik_Ionization_Penalty_Charging>
4.32584

> <r_epik_Ionization_Penalty_Neutral>
0.146443

> <r_epik_State_Penalty>
4.32544

> <r_epik_Charging_Adjusted_Penalty>
8.65129

> <i_epik_Tot_Q>
-1

> <i_epik_Tot_abs_Q>
1

> <r_epik_Metal_State_Penalty>
0.738743

> <b_epik_Metal_Only>
1

> <s_lp_Force_Field>
OPLS_2005

> <r_lp_Energy>
12.6103

> <b_lp_Chiralities_Consistent>
1

> <s_lp_Variant>
AV-unprocessed.smi:1997-3

> <Gold.Version>
5.8.1

> <Gold.Id.Protein>
6NUR|6NUR_protein|mol2

> <Gold.PLP.Fitness>
40.9099

> <Gold.PLP.PLP>
-34.6380

> <Gold.PLP.part.hbond>
-3.9796

> <Gold.PLP.part.metal>
0.0000

> <Gold.PLP.part.buried>
-6.0271

> <Gold.PLP.part.nonpolar>
-24.5816

> <Gold.PLP.part.repulsive>
0.2763

> <Gold.PLP.ligand.clash>
0.0000

> <Gold.PLP.ligand.torsion>
1.3594

> <Gold.PLP.Chemscore.Hbond>
2.9440

> <Gold.PLP.Chemscore.CHOScore>
0.0000

> <Gold.PLP.Chemscore.Metal>
0.0000

> <Gold.Chemscore.Hbonds>
donor molecule, donor type, donor heavy atom, donor atom, acceptor molecule, acceptor atom, score
      L1  H    18    36       P1  8028  0.86
      P1  H  7997  8010       L1     1  1.00
      P1  H 10752 10765       L1     6  0.86

> <Gold.PLP.Chemscore.Internal.Correction>
0.1587

> <Gold.Rescore>
     Score         DG    S(hbond)    S(metal)    S(lipo)     H(rot)  DE(clash)    DE(int)     intcor
     17.25     -18.88       2.07        0.00      83.20       1.27       0.27       1.36       ----

> <Gold.Chemscore.Fitness>
17.2476

> <Gold.Chemscore.DG>
-18.8826

> <Gold.Chemscore.ZeroCoef>
-5.4800

> <Gold.Chemscore.Hbond>
2.0745

> <Gold.Chemscore.Metal>
0.0000

> <Gold.Chemscore.Lipo>
83.2017

> <Gold.Chemscore.Internal_Hbond>
0.0000

> <Gold.Chemscore.DEClash>
0.2737

> <Gold.Chemscore.DEInternal>
1.3613

> <Gold.Chemscore.Rot>
1.2738

> <Gold.Chemscore.Internal.Correction>
   9.000000E+99

> <Gold.Chemscore.Hbonds>
donor molecule, donor type, donor heavy atom, donor atom, acceptor molecule, acceptor atom, score
      L1  H    18    36       P1  8028  0.47
      P1  H  7997  8010       L1     1  0.99
      P1  H 10752 10765       L1     6  0.13

> <Gold.Chemscore.Hbond.Weighted>
-6.9290

> <Gold.Chemscore.Metal.Weighted>
-0.0000

> <Gold.Chemscore.Lipo.Weighted>
-9.7346

> <Gold.Chemscore.Internal_Hbond.Weighted>
0.0000

> <Gold.Chemscore.DEClash.Weighted>
0.2737

> <Gold.Chemscore.DEInternal.Weighted>
1.3613

> <Gold.Chemscore.Rot.Weighted>
3.2610

> <Gold.Chemscore.Internal.Correction.Weighted>
   9.000000E+99

> <Gold.Protein.RotatedTorsions>
[ 6907 6896 6895 6894 ] final -157.49 input  -60.11 | X-H torsion
[ 7974 7965 7964 7962 ] final   34.93 input  175.53 | X-H torsion
[ 8008 7997 7996 7995 ] final   59.35 input   59.86 | X-H torsion
[ 10167 10162 10161 10158 ] final -178.15 input  -65.29 | X-H torsion
[ 10718 10713 10712 10709 ] final   35.20 input   66.30 | X-H torsion
[ 10763 10752 10751 10750 ] final -136.72 input  -60.55 | X-H torsion
[ 11005 11000 10999 10996 ] final  128.10 input  -57.11 | X-H torsion

> <Gold.Protein.ActiveResidues>
 VAL166  LYS551  ARG553  GLY616  TRP617  ASP618  TYR619  PRO620  LYS621  CYS622 
 ASP623  PHE694  ASN695  SER759  ASP760  ASP761  ALA762  ILE779  LEU786  VAL792 
 PHE793  MET794  SER795  GLU796  ALA797  LYS798  CYS799  TRP800  GLU811  SER814 

> <Gold.Protein.RotatedAtoms>
  151.3036  133.4111  159.2641 H   0  0  0  0  0  0  0  0  0  0  0  0  # atno 6907 bound_to 6896
  151.0174  134.9444  159.8051 H   0  0  0  0  0  0  0  0  0  0  0  0  # atno 6908 bound_to 6896
  152.5316  134.3000  159.9127 H   0  0  0  0  0  0  0  0  0  0  0  0  # atno 6909 bound_to 6896
  146.1319  139.6207  142.9221 H   0  0  0  0  0  0  0  0  0  0  0  0  # atno 7974 bound_to 7965
  155.5647  140.3489  155.4500 H   0  0  0  0  0  0  0  0  0  0  0  0  # atno 8008 bound_to 7997
  156.0488  140.1313  157.0099 H   0  0  0  0  0  0  0  0  0  0  0  0  # atno 8009 bound_to 7997
  154.4425  140.1009  156.6331 H   0  0  0  0  0  0  0  0  0  0  0  0  # atno 8010 bound_to 7997
  139.5446  144.2271  152.0962 H   0  0  0  0  0  0  0  0  0  0  0  0  # atno 10167 bound_to 10162
  157.3197  130.7442  149.6777 H   0  0  0  0  0  0  0  0  0  0  0  0  # atno 10718 bound_to 10713
  154.8678  135.3664  154.5107 H   0  0  0  0  0  0  0  0  0  0  0  0  # atno 10763 bound_to 10752
  153.5742  135.7020  153.5496 H   0  0  0  0  0  0  0  0  0  0  0  0  # atno 10764 bound_to 10752
  153.3514  135.4071  155.1612 H   0  0  0  0  0  0  0  0  0  0  0  0  # atno 10765 bound_to 10752
  139.9543  134.9616  156.8953 H   0  0  0  0  0  0  0  0  0  0  0  0  # atno 11005 bound_to 11000
  145.5242  141.0430  143.2418 LP  0  0  0  0  0  0  0  0  0  0  0  0  # atno 17320 bound_to 7965
  144.7699  139.6759  143.7199 LP  0  0  0  0  0  0  0  0  0  0  0  0  # atno 17321 bound_to 7965
  140.1755  144.4894  150.6556 LP  0  0  0  0  0  0  0  0  0  0  0  0  # atno 17342 bound_to 10162
  140.6689  143.2278  151.5675 LP  0  0  0  0  0  0  0  0  0  0  0  0  # atno 17343 bound_to 10162
  155.9685  130.4226  150.4526 LP  0  0  0  0  0  0  0  0  0  0  0  0  # atno 17370 bound_to 10713
  157.2540  131.0552  151.2362 LP  0  0  0  0  0  0  0  0  0  0  0  0  # atno 17371 bound_to 10713
  140.5646  134.0501  155.7410 LP  0  0  0  0  0  0  0  0  0  0  0  0  # atno 17394 bound_to 11000
  141.1211  133.9459  157.2727 LP  0  0  0  0  0  0  0  0  0  0  0  0  # atno 17395 bound_to 11000

$$$$
