AV-unprocessed.smi:623|AV-procd|sdf|3097|dock3
  -GOLD-   22720 0 13D 1   1.00000     0.00000
 Structure written by MMmdl.
 44 46  0  0  0  0  0  0  0  0  2 V2000
  148.9610  140.5128  156.8425 C   0  0  0  0  0  0  0  0  0  0  0  0
  150.0213  139.9373  155.8616 C   0  0  0  0  0  0  0  0  0  0  0  0
  149.7714  140.6754  154.5162 C   0  0  0  0  0  0  0  0  0  0  0  0
  151.4730  140.0255  156.3738 C   0  0  2  0  0  0  0  0  0  0  0  0
  152.2868  139.2990  155.2790 C   0  0  0  0  0  0  0  0  0  0  0  0
  151.3284  138.1711  154.8419 C   0  0  0  0  0  0  0  0  0  0  0  0
  150.1015  138.3875  155.7651 C   0  0  2  0  0  0  0  0  0  0  0  0
  148.8357  137.6773  155.2434 C   0  0  0  0  0  0  0  0  0  0  0  0
  150.5796  137.9326  157.1781 C   0  0  2  0  0  0  0  0  0  0  0  0
  149.4721  137.6785  158.0914 N   0  0  0  0  0  0  0  0  0  0  0  0
  149.0065  136.4811  158.4779 C   0  0  0  0  0  0  0  0  0  0  0  0
  149.4709  135.4180  158.0677 O   0  0  0  0  0  0  0  0  0  0  0  0
  147.8541  136.4643  159.4982 C   0  0  0  0  0  0  0  0  0  0  0  0
  147.4688  135.1140  159.9519 N   0  0  0  0  0  0  0  0  0  0  0  0
  147.1575  134.1641  158.9629 C   0  0  0  0  0  0  0  0  0  0  0  0
  146.8436  132.8918  159.2723 C   0  0  0  0  0  0  0  0  0  0  0  0
  146.8301  132.5073  160.6780 C   0  0  0  0  0  0  0  0  0  0  0  0
  146.5490  131.3492  160.9797 O   0  0  0  0  0  0  0  0  0  0  0  0
  147.1367  133.4651  161.6010 N   0  5  0  0  0  0  0  0  0  0  0  0
  147.4581  134.7543  161.2713 C   0  0  0  0  0  0  0  0  0  0  0  0
  147.7516  135.5973  162.1190 O   0  0  0  0  0  0  0  0  0  0  0  0
  151.4829  139.1080  157.6180 C   0  0  0  0  0  0  0  0  0  0  0  0
  149.0272  141.6003  156.8841 H   0  0  0  0  0  0  0  0  0  0  0  0
  149.0453  140.1727  157.8706 H   0  0  0  0  0  0  0  0  0  0  0  0
  147.9511  140.2670  156.5124 H   0  0  0  0  0  0  0  0  0  0  0  0
  150.4291  140.3865  153.6996 H   0  0  0  0  0  0  0  0  0  0  0  0
  149.8930  141.7519  154.6412 H   0  0  0  0  0  0  0  0  0  0  0  0
  148.7522  140.5073  154.1671 H   0  0  0  0  0  0  0  0  0  0  0  0
  151.8282  141.0356  156.5794 H   0  0  0  0  0  0  0  0  0  0  0  0
  152.5225  139.9628  154.4470 H   0  0  0  0  0  0  0  0  0  0  0  0
  153.2335  138.9105  155.6563 H   0  0  0  0  0  0  0  0  0  0  0  0
  151.0668  138.2654  153.7879 H   0  0  0  0  0  0  0  0  0  0  0  0
  151.7762  137.1838  154.9607 H   0  0  0  0  0  0  0  0  0  0  0  0
  148.9735  136.5958  155.2326 H   0  0  0  0  0  0  0  0  0  0  0  0
  148.5969  137.9889  154.2266 H   0  0  0  0  0  0  0  0  0  0  0  0
  147.9637  137.8921  155.8615 H   0  0  0  0  0  0  0  0  0  0  0  0
  151.1592  137.0101  157.1072 H   0  0  0  0  0  0  0  0  0  0  0  0
  149.0167  138.4934  158.4774 H   0  0  0  0  0  0  0  0  0  0  0  0
  148.1329  137.0901  160.3473 H   0  0  0  0  0  0  0  0  0  0  0  0
  146.9939  136.9632  159.0497 H   0  0  0  0  0  0  0  0  0  0  0  0
  147.2014  134.5283  157.9469 H   0  0  0  0  0  0  0  0  0  0  0  0
  146.6138  132.1728  158.4999 H   0  0  0  0  0  0  0  0  0  0  0  0
  152.4878  138.7716  157.8751 H   0  0  0  0  0  0  0  0  0  0  0  0
  151.0935  139.6244  158.4957 H   0  0  0  0  0  0  0  0  0  0  0  0
  1  2  1  0  0  0  0
  1 23  1  0  0  0  0
  1 24  1  0  0  0  0
  1 25  1  0  0  0  0
  2  7  1  0  0  0  0
  2  3  1  0  0  0  0
  2  4  1  0  0  0  0
  3 26  1  0  0  0  0
  3 27  1  0  0  0  0
  3 28  1  0  0  0  0
  4 22  1  0  0  0  0
  4  5  1  0  0  0  0
  4 29  1  0  0  0  0
  5  6  1  0  0  0  0
  5 30  1  0  0  0  0
  5 31  1  0  0  0  0
  6  7  1  0  0  0  0
  6 32  1  0  0  0  0
  6 33  1  0  0  0  0
  7  8  1  0  0  0  0
  7  9  1  0  0  0  0
  8 34  1  0  0  0  0
  8 35  1  0  0  0  0
  8 36  1  0  0  0  0
  9 10  1  0  0  0  0
  9 22  1  0  0  0  0
  9 37  1  0  0  0  0
 10 11  1  0  0  0  0
 10 38  1  0  0  0  0
 11 12  2  0  0  0  0
 11 13  1  0  0  0  0
 13 14  1  0  0  0  0
 13 39  1  0  0  0  0
 13 40  1  0  0  0  0
 14 20  1  0  0  0  0
 14 15  1  0  0  0  0
 15 16  2  0  0  0  0
 15 41  1  0  0  0  0
 16 17  1  0  0  0  0
 16 42  1  0  0  0  0
 17 18  2  0  0  0  0
 17 19  1  0  0  0  0
 19 20  1  0  0  0  0
 20 21  2  0  0  0  0
 22 43  1  0  0  0  0
 22 44  1  0  0  0  0
M  CHG  1  19  -1
M  END
> <s_m_source_file>
AV-unprocessed.smi

> <i_m_source_file_index>
623

> <i_lp_mmshare_version>
43012

> <i_f3d_flags>
0

> <s_epik_input>
W0NIM11bQ0BdMTJDKFtDSDNdKShbQ0gzXSlbQ0BIXShbQ0gyXVtDSDJdMSlbQ0gyXVtDQEBIXTJbTkhdQyg9TylbQ0gyXW4zW2NIXVtjSF1jKD1PKVtuSF1jMz1P

> <s_epik_cmdline>
J2VwaWtfcHl0aG9uJywgJy1waCcsICc3LjAnLCAnLXRuJywgJzgnLCAnLW1hJywgJzIwMCcsICctbWV0YWxfYmluZGluZycsICctaW1hZScsICc8aW5maWxlLm1hZT4nLCAnLW9tYWUnLCAnPG91dGZpbGUubWFlPic=

> <r_lp_tautomer_probability>
0.999537

> <r_epik_Ionization_Penalty>
3.12624

> <r_epik_Ionization_Penalty_Charging>
3.01273e-08

> <r_epik_Ionization_Penalty_Neutral>
3.12624

> <r_epik_State_Penalty>
3.12534

> <r_epik_Charging_Adjusted_Penalty>
3.12534

> <i_epik_Tot_Q>
-1

> <i_epik_Tot_abs_Q>
1

> <r_epik_Metal_State_Penalty>
0.46406

> <b_epik_Metal_Only>
1

> <s_lp_Force_Field>
OPLS_2005

> <r_lp_Energy>
63.0451

> <b_lp_Chiralities_Consistent>
1

> <s_lp_Variant>
AV-unprocessed.smi:623-7

> <Gold.Version>
5.8.1

> <Gold.Id.Protein>
6NUR|6NUR_protein|mol2

> <Gold.PLP.Fitness>
33.3076

> <Gold.PLP.PLP>
-27.8834

> <Gold.PLP.part.hbond>
-2.0000

> <Gold.PLP.part.metal>
0.0000

> <Gold.PLP.part.buried>
0.3157

> <Gold.PLP.part.nonpolar>
-26.5549

> <Gold.PLP.part.repulsive>
0.1510

> <Gold.PLP.ligand.clash>
0.0000

> <Gold.PLP.ligand.torsion>
0.2816

> <Gold.PLP.Chemscore.Hbond>
1.9913

> <Gold.PLP.Chemscore.CHOScore>
0.0000

> <Gold.PLP.Chemscore.Metal>
0.0000

> <Gold.Chemscore.Hbonds>
donor molecule, donor type, donor heavy atom, donor atom, acceptor molecule, acceptor atom, score
      P1  H  6896  6908       L1    12  0.89

> <Gold.PLP.Chemscore.Internal.Correction>
0.0135

> <Gold.Rescore>
     Score         DG    S(hbond)    S(metal)    S(lipo)     H(rot)  DE(clash)    DE(int)     intcor
     11.72     -15.22       1.93        0.00      63.78       1.63       2.02       1.48       ----

> <Gold.Chemscore.Fitness>
11.7168

> <Gold.Chemscore.DG>
-15.2176

> <Gold.Chemscore.ZeroCoef>
-5.4800

> <Gold.Chemscore.Hbond>
1.9322

> <Gold.Chemscore.Metal>
0.0000

> <Gold.Chemscore.Lipo>
63.7799

> <Gold.Chemscore.Internal_Hbond>
0.0000

> <Gold.Chemscore.DEClash>
2.0164

> <Gold.Chemscore.DEInternal>
1.4844

> <Gold.Chemscore.Rot>
1.6322

> <Gold.Chemscore.Internal.Correction>
   9.000000E+99

> <Gold.Chemscore.Hbonds>
donor molecule, donor type, donor heavy atom, donor atom, acceptor molecule, acceptor atom, score
      P1  H  6896  6908       L1    12  0.70

> <Gold.Chemscore.Hbond.Weighted>
-6.4536

> <Gold.Chemscore.Metal.Weighted>
-0.0000

> <Gold.Chemscore.Lipo.Weighted>
-7.4622

> <Gold.Chemscore.Internal_Hbond.Weighted>
0.0000

> <Gold.Chemscore.DEClash.Weighted>
2.0164

> <Gold.Chemscore.DEInternal.Weighted>
1.4844

> <Gold.Chemscore.Rot.Weighted>
4.1783

> <Gold.Chemscore.Internal.Correction.Weighted>
   9.000000E+99

> <Gold.Protein.RotatedTorsions>
[ 6907 6896 6895 6894 ] final  162.27 input  -60.11 | X-H torsion
[ 7974 7965 7964 7962 ] final -108.55 input  175.53 | X-H torsion
[ 8008 7997 7996 7995 ] final -153.20 input   59.86 | X-H torsion
[ 10167 10162 10161 10158 ] final  117.07 input  -65.29 | X-H torsion
[ 10718 10713 10712 10709 ] final   40.53 input   66.30 | X-H torsion
[ 10763 10752 10751 10750 ] final  -35.65 input  -60.55 | X-H torsion
[ 11005 11000 10999 10996 ] final   20.67 input  -57.11 | X-H torsion

> <Gold.Protein.ActiveResidues>
 VAL166  LYS551  ARG553  GLY616  TRP617  ASP618  TYR619  PRO620  LYS621  CYS622 
 ASP623  PHE694  ASN695  SER759  ASP760  ASP761  ALA762  ILE779  LEU786  VAL792 
 PHE793  MET794  SER795  GLU796  ALA797  LYS798  CYS799  TRP800  GLU811  SER814 

> <Gold.Protein.RotatedAtoms>
  151.9430  133.3643  159.3971 H   0  0  0  0  0  0  0  0  0  0  0  0  # atno 6907 bound_to 6896
  150.6995  134.4420  159.5306 H   0  0  0  0  0  0  0  0  0  0  0  0  # atno 6908 bound_to 6896
  152.2080  134.8528  160.0551 H   0  0  0  0  0  0  0  0  0  0  0  0  # atno 6909 bound_to 6896
  145.1914  140.9016  143.3422 H   0  0  0  0  0  0  0  0  0  0  0  0  # atno 7974 bound_to 7965
  155.6671  140.0729  157.2533 H   0  0  0  0  0  0  0  0  0  0  0  0  # atno 8008 bound_to 7997
  154.4130  140.1705  156.1890 H   0  0  0  0  0  0  0  0  0  0  0  0  # atno 8009 bound_to 7997
  155.9648  140.3367  155.6525 H   0  0  0  0  0  0  0  0  0  0  0  0  # atno 8010 bound_to 7997
  139.6204  144.7100  151.2647 H   0  0  0  0  0  0  0  0  0  0  0  0  # atno 10167 bound_to 10162
  157.3831  130.7765  149.7209 H   0  0  0  0  0  0  0  0  0  0  0  0  # atno 10718 bound_to 10713
  153.8668  135.6835  153.4778 H   0  0  0  0  0  0  0  0  0  0  0  0  # atno 10763 bound_to 10752
  153.1310  135.4698  154.9347 H   0  0  0  0  0  0  0  0  0  0  0  0  # atno 10764 bound_to 10752
  154.7733  135.3245  154.8095 H   0  0  0  0  0  0  0  0  0  0  0  0  # atno 10765 bound_to 10752
  140.4001  134.1728  155.7663 H   0  0  0  0  0  0  0  0  0  0  0  0  # atno 11005 bound_to 11000
  145.0037  139.3574  143.6154 LP  0  0  0  0  0  0  0  0  0  0  0  0  # atno 17320 bound_to 7965
  146.3435  139.9271  142.8758 LP  0  0  0  0  0  0  0  0  0  0  0  0  # atno 17321 bound_to 7965
  140.7378  143.6667  150.8117 LP  0  0  0  0  0  0  0  0  0  0  0  0  # atno 17342 bound_to 10162
  140.0276  143.5477  152.2774 LP  0  0  0  0  0  0  0  0  0  0  0  0  # atno 17343 bound_to 10162
  155.9780  130.4056  150.3674 LP  0  0  0  0  0  0  0  0  0  0  0  0  # atno 17370 bound_to 10713
  157.1780  131.0385  151.2762 LP  0  0  0  0  0  0  0  0  0  0  0  0  # atno 17371 bound_to 10713
  141.1860  133.8312  157.1085 LP  0  0  0  0  0  0  0  0  0  0  0  0  # atno 17394 bound_to 11000
  140.0343  134.9886  157.0840 LP  0  0  0  0  0  0  0  0  0  0  0  0  # atno 17395 bound_to 11000

$$$$
