AV-unprocessed.smi:1879|AV-procd|sdf|7631|dock5
  -GOLD-   22720 9353D 1   1.00000     0.00000
 Structure written by MMmdl.
 46 48  0  0  0  0  0  0  0  0  1 V2000
  146.9401  133.0101  154.2986 O   0  0  0  0  0  0  0  0  0  0  0  0
  147.3958  133.9475  153.6440 C   0  0  0  0  0  0  0  0  0  0  0  0
  148.5109  134.6338  153.9454 N   0  0  0  0  0  0  0  0  0  0  0  0
  149.4231  134.4208  155.0180 C   0  0  0  0  0  0  0  0  0  0  0  0
  149.5356  133.1838  155.6987 C   0  0  0  0  0  0  0  0  0  0  0  0
  150.4845  133.0519  156.7289 C   0  0  0  0  0  0  0  0  0  0  0  0
  151.2938  134.1594  157.0388 C   0  0  0  0  0  0  0  0  0  0  0  0
  151.2092  135.3393  156.3914 N   0  0  0  0  0  0  0  0  0  0  0  0
  150.2971  135.4719  155.3973 C   0  0  0  0  0  0  0  0  0  0  0  0
  150.2315  136.7102  154.7335 N   0  0  0  0  0  0  0  0  0  0  0  0
  149.0222  137.4828  154.9650 C   0  0  0  0  0  0  0  0  0  0  0  0
  149.3420  138.8953  154.4704 C   0  0  0  0  0  0  0  0  0  0  0  0
  150.8724  138.9882  154.5057 C   0  0  0  0  0  0  0  0  0  0  0  0
  151.3417  137.6129  154.9886 C   0  0  0  0  0  0  0  0  0  0  0  0
  146.8206  134.4319  152.5341 N   0  0  0  0  0  0  0  0  0  0  0  0
  145.5953  133.9335  151.9150 C   0  0  2  0  0  0  0  0  0  0  0  0
  145.7348  132.4231  151.6433 C   0  0  0  0  0  0  0  0  0  0  0  0
  144.5084  131.8668  150.9023 C   0  0  0  0  0  0  0  0  0  0  0  0
  144.2552  132.6401  149.5971 C   0  0  1  0  0  0  0  0  0  0  0  0
  143.0913  132.1434  148.9712 O   0  0  0  0  0  0  0  0  0  0  0  0
  144.0920  134.1451  149.8705 C   0  0  0  0  0  0  0  0  0  0  0  0
  145.3153  134.7086  150.6122 C   0  0  0  0  0  0  0  0  0  0  0  0
  148.7017  135.4453  153.3757 H   0  0  0  0  0  0  0  0  0  0  0  0
  148.9263  132.3316  155.4401 H   0  0  0  0  0  0  0  0  0  0  0  0
  150.5931  132.1210  157.2653 H   0  0  0  0  0  0  0  0  0  0  0  0
  152.0335  134.0945  157.8228 H   0  0  0  0  0  0  0  0  0  0  0  0
  148.1732  137.0530  154.4326 H   0  0  0  0  0  0  0  0  0  0  0  0
  148.7769  137.5057  156.0278 H   0  0  0  0  0  0  0  0  0  0  0  0
  148.9864  139.0276  153.4478 H   0  0  0  0  0  0  0  0  0  0  0  0
  148.8641  139.6558  155.0888 H   0  0  0  0  0  0  0  0  0  0  0  0
  151.2550  139.1920  153.5050 H   0  0  0  0  0  0  0  0  0  0  0  0
  151.2238  139.7830  155.1641 H   0  0  0  0  0  0  0  0  0  0  0  0
  151.5709  137.6479  156.0547 H   0  0  0  0  0  0  0  0  0  0  0  0
  152.2392  137.2877  154.4616 H   0  0  0  0  0  0  0  0  0  0  0  0
  147.2701  135.2106  152.0749 H   0  0  0  0  0  0  0  0  0  0  0  0
  144.7465  134.0759  152.5866 H   0  0  0  0  0  0  0  0  0  0  0  0
  146.6299  132.2343  151.0487 H   0  0  0  0  0  0  0  0  0  0  0  0
  145.8697  131.8861  152.5831 H   0  0  0  0  0  0  0  0  0  0  0  0
  144.6558  130.8074  150.6896 H   0  0  0  0  0  0  0  0  0  0  0  0
  143.6335  131.9341  151.5506 H   0  0  0  0  0  0  0  0  0  0  0  0
  145.0935  132.4847  148.9164 H   0  0  0  0  0  0  0  0  0  0  0  0
  142.4166  132.8029  149.0246 H   0  0  0  0  0  0  0  0  0  0  0  0
  143.9489  134.6837  148.9329 H   0  0  0  0  0  0  0  0  0  0  0  0
  143.1958  134.3193  150.4680 H   0  0  0  0  0  0  0  0  0  0  0  0
  145.1556  135.7648  150.8328 H   0  0  0  0  0  0  0  0  0  0  0  0
  146.1864  134.6585  149.9570 H   0  0  0  0  0  0  0  0  0  0  0  0
  1  2  2  0  0  0  0
  2  3  1  0  0  0  0
  2 15  1  0  0  0  0
  3  4  1  0  0  0  0
  3 23  1  0  0  0  0
  4  9  1  0  0  0  0
  4  5  2  0  0  0  0
  5  6  1  0  0  0  0
  5 24  1  0  0  0  0
  6  7  2  0  0  0  0
  6 25  1  0  0  0  0
  7  8  1  0  0  0  0
  7 26  1  0  0  0  0
  8  9  2  0  0  0  0
  9 10  1  0  0  0  0
 10 14  1  0  0  0  0
 10 11  1  0  0  0  0
 11 12  1  0  0  0  0
 11 27  1  0  0  0  0
 11 28  1  0  0  0  0
 12 13  1  0  0  0  0
 12 29  1  0  0  0  0
 12 30  1  0  0  0  0
 13 14  1  0  0  0  0
 13 31  1  0  0  0  0
 13 32  1  0  0  0  0
 14 33  1  0  0  0  0
 14 34  1  0  0  0  0
 15 16  1  0  0  0  0
 15 35  1  0  0  0  0
 16 22  1  0  0  0  0
 16 17  1  0  0  0  0
 16 36  1  0  0  0  0
 17 18  1  0  0  0  0
 17 37  1  0  0  0  0
 17 38  1  0  0  0  0
 18 19  1  0  0  0  0
 18 39  1  0  0  0  0
 18 40  1  0  0  0  0
 19 20  1  0  0  0  0
 19 21  1  0  0  0  0
 19 41  1  0  0  0  0
 20 42  1  0  0  0  0
 21 22  1  0  0  0  0
 21 43  1  0  0  0  0
 21 44  1  0  0  0  0
 22 45  1  0  0  0  0
 22 46  1  0  0  0  0
M  END
> <s_m_source_file>
AV-unprocessed.smi

> <i_m_source_file_index>
1879

> <i_lp_mmshare_version>
43012

> <i_f3d_flags>
0

> <s_epik_input>
W0NIMl0xW0NIMl1bQ0BIXShbT0hdKVtDSDJdW0NIMl1bQ0BIXTFbTkhdQyg9TylbTkhdYzJbY0hdW2NIXVtjSF1uYzJOM1tDSDJdW0NIMl1bQ0gyXVtDSDJdMw==

> <s_epik_cmdline>
J2VwaWtfcHl0aG9uJywgJy1waCcsICc3LjAnLCAnLXRuJywgJzgnLCAnLW1hJywgJzIwMCcsICctbWV0YWxfYmluZGluZycsICctaW1hZScsICc8aW5maWxlLm1hZT4nLCAnLW9tYWUnLCAnPG91dGZpbGUubWFlPic=

> <r_lp_tautomer_probability>
1

> <r_epik_Ionization_Penalty>
0.104121

> <r_epik_Ionization_Penalty_Charging>
0

> <r_epik_Ionization_Penalty_Neutral>
0.104121

> <r_epik_State_Penalty>
0.0934704

> <r_epik_Charging_Adjusted_Penalty>
0.0934704

> <i_epik_Tot_Q>
0

> <i_epik_Tot_abs_Q>
0

> <r_epik_Metal_State_Penalty>
0.0794466

> <b_epik_Metal_Only>
0

> <s_lp_Force_Field>
OPLS_2005

> <r_lp_Energy>
38.1849

> <b_lp_Chiralities_Consistent>
1

> <s_lp_Variant>
AV-unprocessed.smi:1879-1

> <Gold.Version>
5.8.1

> <Gold.Id.Protein>
6NUR|6NUR_protein|mol2

> <Gold.PLP.Fitness>
50.6517

> <Gold.PLP.PLP>
-37.4428

> <Gold.PLP.part.hbond>
-5.8986

> <Gold.PLP.part.metal>
0.0000

> <Gold.PLP.part.buried>
-2.0312

> <Gold.PLP.part.nonpolar>
-30.4858

> <Gold.PLP.part.repulsive>
0.5068

> <Gold.PLP.ligand.clash>
0.0000

> <Gold.PLP.ligand.torsion>
0.3147

> <Gold.PLP.Chemscore.Hbond>
4.6028

> <Gold.PLP.Chemscore.CHOScore>
0.0000

> <Gold.PLP.Chemscore.Metal>
0.0000

> <Gold.Chemscore.Hbonds>
donor molecule, donor type, donor heavy atom, donor atom, acceptor molecule, acceptor atom, score
      L1  H     3    23       P1  7948  1.00
      L1  H    15    35       P1  7948  0.91
      L1  H    20    42       P1 10186  0.59
      P1  H 10752 10763       L1     8  0.17
      P1  H 10785 10796       L1    20  1.00

> <Gold.PLP.Chemscore.Internal.Correction>
0.0302

> <Gold.Rescore>
     Score         DG    S(hbond)    S(metal)    S(lipo)     H(rot)  DE(clash)    DE(int)     intcor
     19.41     -22.73       3.32        0.00      89.17       1.67       0.50       2.82       ----

> <Gold.Chemscore.Fitness>
19.4116

> <Gold.Chemscore.DG>
-22.7305

> <Gold.Chemscore.ZeroCoef>
-5.4800

> <Gold.Chemscore.Hbond>
3.3230

> <Gold.Chemscore.Metal>
0.0000

> <Gold.Chemscore.Lipo>
89.1699

> <Gold.Chemscore.Internal_Hbond>
0.0000

> <Gold.Chemscore.DEClash>
0.4963

> <Gold.Chemscore.DEInternal>
2.8226

> <Gold.Chemscore.Rot>
1.6723

> <Gold.Chemscore.Internal.Correction>
   9.000000E+99

> <Gold.Chemscore.Hbonds>
donor molecule, donor type, donor heavy atom, donor atom, acceptor molecule, acceptor atom, score
      L1  H     3    23       P1  7948  0.87
      L1  H    15    35       P1  7948  0.88
      L1  H    20    42       P1 10186  0.58
      P1  H 10752 10763       L1     8  0.01
      P1  H 10785 10796       L1    20  0.72

> <Gold.Chemscore.Hbond.Weighted>
-11.0988

> <Gold.Chemscore.Metal.Weighted>
-0.0000

> <Gold.Chemscore.Lipo.Weighted>
-10.4329

> <Gold.Chemscore.Internal_Hbond.Weighted>
0.0000

> <Gold.Chemscore.DEClash.Weighted>
0.4963

> <Gold.Chemscore.DEInternal.Weighted>
2.8226

> <Gold.Chemscore.Rot.Weighted>
4.2812

> <Gold.Chemscore.Internal.Correction.Weighted>
   9.000000E+99

> <Gold.Protein.RotatedTorsions>
[ 6907 6896 6895 6894 ] final  -72.87 input  -60.11 | X-H torsion
[ 7974 7965 7964 7962 ] final   28.01 input  175.53 | X-H torsion
[ 8008 7997 7996 7995 ] final   14.17 input   59.86 | X-H torsion
[ 10167 10162 10161 10158 ] final -130.18 input  -65.29 | X-H torsion
[ 10718 10713 10712 10709 ] final -143.76 input   66.30 | X-H torsion
[ 10763 10752 10751 10750 ] final   85.14 input  -60.55 | X-H torsion
[ 11005 11000 10999 10996 ] final -135.36 input  -57.11 | X-H torsion

> <Gold.Protein.ActiveResidues>
 VAL166  LYS551  ARG553  GLY616  TRP617  ASP618  TYR619  PRO620  LYS621  CYS622 
 ASP623  PHE694  ASN695  SER759  ASP760  ASP761  ALA762  ILE779  LEU786  VAL792 
 PHE793  MET794  SER795  GLU796  ALA797  LYS798  CYS799  TRP800  GLU811  SER814 

> <Gold.Protein.RotatedAtoms>
  150.7152  134.5099  159.5602 H   0  0  0  0  0  0  0  0  0  0  0  0  # atno 6907 bound_to 6896
  152.2678  134.7962  160.0428 H   0  0  0  0  0  0  0  0  0  0  0  0  # atno 6908 bound_to 6896
  151.8653  133.3430  159.3754 H   0  0  0  0  0  0  0  0  0  0  0  0  # atno 6909 bound_to 6896
  146.1752  139.7113  142.8939 H   0  0  0  0  0  0  0  0  0  0  0  0  # atno 7974 bound_to 7965
  154.8447  140.2920  155.5636 H   0  0  0  0  0  0  0  0  0  0  0  0  # atno 8008 bound_to 7997
  156.3013  140.2507  156.3327 H   0  0  0  0  0  0  0  0  0  0  0  0  # atno 8009 bound_to 7997
  154.9087  140.0389  157.1923 H   0  0  0  0  0  0  0  0  0  0  0  0  # atno 8010 bound_to 7997
  139.9320  143.6261  152.2527 H   0  0  0  0  0  0  0  0  0  0  0  0  # atno 10167 bound_to 10162
  156.3619  130.7742  151.1911 H   0  0  0  0  0  0  0  0  0  0  0  0  # atno 10718 bound_to 10713
  153.1447  135.4628  154.9548 H   0  0  0  0  0  0  0  0  0  0  0  0  # atno 10763 bound_to 10752
  154.7776  135.3178  154.8061 H   0  0  0  0  0  0  0  0  0  0  0  0  # atno 10764 bound_to 10752
  153.8577  135.6915  153.4840 H   0  0  0  0  0  0  0  0  0  0  0  0  # atno 10765 bound_to 10752
  140.8905  134.1817  157.4530 H   0  0  0  0  0  0  0  0  0  0  0  0  # atno 11005 bound_to 11000
  145.4230  141.0408  143.2953 LP  0  0  0  0  0  0  0  0  0  0  0  0  # atno 17320 bound_to 7965
  144.8226  139.5766  143.6980 LP  0  0  0  0  0  0  0  0  0  0  0  0  # atno 17321 bound_to 7965
  139.6774  144.7658  151.1670 LP  0  0  0  0  0  0  0  0  0  0  0  0  # atno 17342 bound_to 10162
  140.7635  143.5774  150.8930 LP  0  0  0  0  0  0  0  0  0  0  0  0  # atno 17343 bound_to 10162
  157.7474  131.0397  150.4565 LP  0  0  0  0  0  0  0  0  0  0  0  0  # atno 17370 bound_to 10713
  156.4778  130.4067  149.6480 LP  0  0  0  0  0  0  0  0  0  0  0  0  # atno 17371 bound_to 10713
  139.8729  134.9856  156.5290 LP  0  0  0  0  0  0  0  0  0  0  0  0  # atno 17394 bound_to 11000
  140.8352  133.8248  155.9022 LP  0  0  0  0  0  0  0  0  0  0  0  0  # atno 17395 bound_to 11000

$$$$
