AV-unprocessed.smi:2008|AV-procd|sdf|8144|dock5
  -GOLD-   2272010383D 1   1.00000     0.00000
 Structure written by MMmdl.
 46 47  0  0  0  0  0  0  0  0  2 V2000
  136.5420  137.2984  154.9025 C   0  0  0  0  0  0  0  0  0  0  0  0
  137.2306  138.3734  154.2732 O   0  0  0  0  0  0  0  0  0  0  0  0
  138.5618  138.2004  153.9535 C   0  0  0  0  0  0  0  0  0  0  0  0
  139.0897  136.8943  153.9495 C   0  0  0  0  0  0  0  0  0  0  0  0
  140.4469  136.7086  153.6236 C   0  0  0  0  0  0  0  0  0  0  0  0
  141.2349  137.8399  153.3027 C   0  0  0  0  0  0  0  0  0  0  0  0
  142.6168  137.7906  152.9727 N   0  0  0  0  0  0  0  0  0  0  0  0
  143.4060  136.7134  152.8212 C   0  0  0  0  0  0  0  0  0  0  0  0
  143.0451  135.5418  152.9301 O   0  0  0  0  0  0  0  0  0  0  0  0
  144.6623  137.0692  152.5161 N   0  0  0  0  0  0  0  0  0  0  0  0
  145.7557  136.1355  152.2695 C   0  0  0  0  0  0  0  0  0  0  0  0
  146.0518  135.2691  153.5111 C   0  0  0  0  0  0  0  0  0  0  0  0
  147.4240  134.6859  153.4924 N   0  3  1  0  0  0  0  0  0  0  0  0
  148.1690  135.0179  154.7421 C   0  0  0  0  0  0  0  0  0  0  0  0
  149.6260  134.5387  154.6936 C   0  0  0  0  0  0  0  0  0  0  0  0
  149.6819  133.0314  154.4503 C   0  0  0  0  0  0  0  0  0  0  0  0
  148.9240  132.7017  153.1628 C   0  0  0  0  0  0  0  0  0  0  0  0
  147.4666  133.2157  153.1922 C   0  0  2  0  0  0  0  0  0  0  0  0
  146.7992  132.8475  151.8491 C   0  0  0  0  0  0  0  0  0  0  0  0
  140.6136  139.1052  153.3493 C   0  0  0  0  0  0  0  0  0  0  0  0
  139.3135  139.2900  153.6602 N   0  0  0  0  0  0  0  0  0  0  0  0
  135.5081  137.5903  155.0856 H   0  0  0  0  0  0  0  0  0  0  0  0
  136.9900  137.0467  155.8649 H   0  0  0  0  0  0  0  0  0  0  0  0
  136.5275  136.4093  154.2704 H   0  0  0  0  0  0  0  0  0  0  0  0
  138.4651  136.0486  154.1967 H   0  0  0  0  0  0  0  0  0  0  0  0
  140.8527  135.7092  153.6407 H   0  0  0  0  0  0  0  0  0  0  0  0
  143.0434  138.6843  152.7754 H   0  0  0  0  0  0  0  0  0  0  0  0
  144.8742  138.0536  152.4394 H   0  0  0  0  0  0  0  0  0  0  0  0
  145.5182  135.5048  151.4109 H   0  0  0  0  0  0  0  0  0  0  0  0
  146.6221  136.7313  151.9869 H   0  0  0  0  0  0  0  0  0  0  0  0
  145.9082  135.8443  154.4271 H   0  0  0  0  0  0  0  0  0  0  0  0
  145.2996  134.4860  153.5309 H   0  0  0  0  0  0  0  0  0  0  0  0
  148.1752  136.0931  154.9127 H   0  0  0  0  0  0  0  0  0  0  0  0
  147.6609  134.5698  155.5977 H   0  0  0  0  0  0  0  0  0  0  0  0
  150.1629  135.0636  153.9021 H   0  0  0  0  0  0  0  0  0  0  0  0
  150.1317  134.7838  155.6282 H   0  0  0  0  0  0  0  0  0  0  0  0
  150.7173  132.6976  154.3758 H   0  0  0  0  0  0  0  0  0  0  0  0
  149.2380  132.4986  155.2924 H   0  0  0  0  0  0  0  0  0  0  0  0
  149.4509  133.1382  152.3128 H   0  0  0  0  0  0  0  0  0  0  0  0
  148.9369  131.6221  153.0078 H   0  0  0  0  0  0  0  0  0  0  0  0
  146.9368  132.6940  153.9911 H   0  0  0  0  0  0  0  0  0  0  0  0
  147.0198  131.8154  151.5747 H   0  0  0  0  0  0  0  0  0  0  0  0
  147.1562  133.4835  151.0383 H   0  0  0  0  0  0  0  0  0  0  0  0
  145.7129  132.9164  151.8860 H   0  0  0  0  0  0  0  0  0  0  0  0
  141.1757  140.0004  153.1260 H   0  0  0  0  0  0  0  0  0  0  0  0
  147.9132  135.1360  152.7318 H   0  0  0  0  0  0  0  0  0  0  0  0
  1  2  1  0  0  0  0
  1 22  1  0  0  0  0
  1 23  1  0  0  0  0
  1 24  1  0  0  0  0
  2  3  1  0  0  0  0
  3 21  1  0  0  0  0
  3  4  2  0  0  0  0
  4  5  1  0  0  0  0
  4 25  1  0  0  0  0
  5  6  2  0  0  0  0
  5 26  1  0  0  0  0
  6  7  1  0  0  0  0
  6 20  1  0  0  0  0
  7  8  1  0  0  0  0
  7 27  1  0  0  0  0
  8  9  2  0  0  0  0
  8 10  1  0  0  0  0
 10 11  1  0  0  0  0
 10 28  1  0  0  0  0
 11 12  1  0  0  0  0
 11 29  1  0  0  0  0
 11 30  1  0  0  0  0
 12 13  1  0  0  0  0
 12 31  1  0  0  0  0
 12 32  1  0  0  0  0
 13 18  1  0  0  0  0
 13 14  1  0  0  0  0
 13 46  1  0  0  0  0
 14 15  1  0  0  0  0
 14 33  1  0  0  0  0
 14 34  1  0  0  0  0
 15 16  1  0  0  0  0
 15 35  1  0  0  0  0
 15 36  1  0  0  0  0
 16 17  1  0  0  0  0
 16 37  1  0  0  0  0
 16 38  1  0  0  0  0
 17 18  1  0  0  0  0
 17 39  1  0  0  0  0
 17 40  1  0  0  0  0
 18 19  1  0  0  0  0
 18 41  1  0  0  0  0
 19 42  1  0  0  0  0
 19 43  1  0  0  0  0
 19 44  1  0  0  0  0
 20 21  2  0  0  0  0
 20 45  1  0  0  0  0
M  CHG  1  13   1
M  END
> <s_m_source_file>
AV-unprocessed.smi

> <i_m_source_file_index>
2008

> <i_lp_mmshare_version>
43012

> <i_f3d_flags>
0

> <s_epik_input>
W0NIM11PYzFbY0hdW2NIXWMoW2NIXW4xKVtOSF1DKD1PKVtOSF1bQ0gyXVtDSDJdTjJbQ0gyXVtDSDJdW0NIMl1bQ0gyXVtDQEhdMltDSDNd

> <s_epik_cmdline>
J2VwaWtfcHl0aG9uJywgJy1waCcsICc3LjAnLCAnLXRuJywgJzgnLCAnLW1hJywgJzIwMCcsICctbWV0YWxfYmluZGluZycsICctaW1hZScsICc8aW5maWxlLm1hZT4nLCAnLW9tYWUnLCAnPG91dGZpbGUubWFlPic=

> <r_lp_tautomer_probability>
1

> <r_epik_Ionization_Penalty>
0.00219526

> <r_epik_Ionization_Penalty_Charging>
0.00211816

> <r_epik_Ionization_Penalty_Neutral>
7.71003e-05

> <r_epik_State_Penalty>
0.00145254

> <r_epik_Charging_Adjusted_Penalty>
0.0035707

> <i_epik_Tot_Q>
1

> <i_epik_Tot_abs_Q>
1

> <r_epik_Metal_State_Penalty>
-0

> <b_epik_Metal_Only>
0

> <s_lp_Force_Field>
OPLS_2005

> <r_lp_Energy>
23.0726

> <b_lp_Chiralities_Consistent>
1

> <s_lp_Variant>
AV-unprocessed.smi:2008-4

> <Gold.Version>
5.8.1

> <Gold.Id.Protein>
6NUR|6NUR_protein|mol2

> <Gold.PLP.Fitness>
45.5379

> <Gold.PLP.PLP>
-35.0893

> <Gold.PLP.part.hbond>
-2.4864

> <Gold.PLP.part.metal>
0.0000

> <Gold.PLP.part.buried>
-3.4037

> <Gold.PLP.part.nonpolar>
-29.7576

> <Gold.PLP.part.repulsive>
0.3085

> <Gold.PLP.ligand.clash>
0.0005

> <Gold.PLP.ligand.torsion>
1.0046

> <Gold.PLP.Chemscore.Hbond>
3.0000

> <Gold.PLP.Chemscore.CHOScore>
1.1445

> <Gold.PLP.Chemscore.Metal>
0.0000

> <Gold.Chemscore.Hbonds>
donor molecule, donor type, donor heavy atom, donor atom, acceptor molecule, acceptor atom, score
      L1  H     7    27       P1 10175  1.00
      L1  H    13    46       P1  7948  2.00
      L1  C    20    45       P1 10160  0.46
      L1  C    20    45       P1 10175  0.72

> <Gold.PLP.Chemscore.Internal.Correction>
0.0250

> <Gold.Rescore>
     Score         DG    S(hbond)    S(metal)    S(lipo)     H(rot)  DE(clash)    DE(int)     intcor
     15.68     -17.96       2.49        0.00      73.14       1.71       0.14       2.15       ----

> <Gold.Chemscore.Fitness>
15.6770

> <Gold.Chemscore.DG>
-17.9635

> <Gold.Chemscore.ZeroCoef>
-5.4800

> <Gold.Chemscore.Hbond>
2.4867

> <Gold.Chemscore.Metal>
0.0000

> <Gold.Chemscore.Lipo>
73.1393

> <Gold.Chemscore.Internal_Hbond>
0.0000

> <Gold.Chemscore.DEClash>
0.1400

> <Gold.Chemscore.DEInternal>
2.1466

> <Gold.Chemscore.Rot>
1.7107

> <Gold.Chemscore.Internal.Correction>
   9.000000E+99

> <Gold.Chemscore.Hbonds>
donor molecule, donor type, donor heavy atom, donor atom, acceptor molecule, acceptor atom, score
      L1  H     7    27       P1 10175  1.00
      L1  H    13    46       P1  7948  0.98

> <Gold.Chemscore.Hbond.Weighted>
-8.3057

> <Gold.Chemscore.Metal.Weighted>
-0.0000

> <Gold.Chemscore.Lipo.Weighted>
-8.5573

> <Gold.Chemscore.Internal_Hbond.Weighted>
0.0000

> <Gold.Chemscore.DEClash.Weighted>
0.1400

> <Gold.Chemscore.DEInternal.Weighted>
2.1466

> <Gold.Chemscore.Rot.Weighted>
4.3794

> <Gold.Chemscore.Internal.Correction.Weighted>
   9.000000E+99

> <Gold.Protein.RotatedTorsions>
[ 6907 6896 6895 6894 ] final    8.54 input  -60.11 | X-H torsion
[ 7974 7965 7964 7962 ] final   75.05 input  175.53 | X-H torsion
[ 8008 7997 7996 7995 ] final  118.92 input   59.86 | X-H torsion
[ 10167 10162 10161 10158 ] final -178.69 input  -65.29 | X-H torsion
[ 10718 10713 10712 10709 ] final -159.32 input   66.30 | X-H torsion
[ 10763 10752 10751 10750 ] final -155.38 input  -60.55 | X-H torsion
[ 11005 11000 10999 10996 ] final  129.73 input  -57.11 | X-H torsion

> <Gold.Protein.ActiveResidues>
 VAL166  LYS551  ARG553  GLY616  TRP617  ASP618  TYR619  PRO620  LYS621  CYS622 
 ASP623  PHE694  ASN695  SER759  ASP760  ASP761  ALA762  ILE779  LEU786  VAL792 
 PHE793  MET794  SER795  GLU796  ALA797  LYS798  CYS799  TRP800  GLU811  SER814 

> <Gold.Protein.RotatedAtoms>
  151.7077  135.0918  160.0261 H   0  0  0  0  0  0  0  0  0  0  0  0  # atno 6907 bound_to 6896
  152.3681  133.6379  159.6075 H   0  0  0  0  0  0  0  0  0  0  0  0  # atno 6908 bound_to 6896
  150.7653  133.9231  159.3445 H   0  0  0  0  0  0  0  0  0  0  0  0  # atno 6909 bound_to 6896
  145.7204  139.2646  143.1599 H   0  0  0  0  0  0  0  0  0  0  0  0  # atno 7974 bound_to 7965
  156.2570  140.2864  156.0910 H   0  0  0  0  0  0  0  0  0  0  0  0  # atno 8008 bound_to 7997
  155.1462  140.0396  157.2828 H   0  0  0  0  0  0  0  0  0  0  0  0  # atno 8009 bound_to 7997
  154.6493  140.2541  155.7238 H   0  0  0  0  0  0  0  0  0  0  0  0  # atno 8010 bound_to 7997
  139.5420  144.2336  152.0915 H   0  0  0  0  0  0  0  0  0  0  0  0  # atno 10167 bound_to 10162
  156.5664  130.8669  151.2825 H   0  0  0  0  0  0  0  0  0  0  0  0  # atno 10718 bound_to 10713
  154.7791  135.3169  154.8028 H   0  0  0  0  0  0  0  0  0  0  0  0  # atno 10763 bound_to 10752
  153.8743  135.6841  153.4776 H   0  0  0  0  0  0  0  0  0  0  0  0  # atno 10764 bound_to 10752
  153.1423  135.4734  154.9451 H   0  0  0  0  0  0  0  0  0  0  0  0  # atno 10765 bound_to 10752
  139.9632  134.9597  156.9191 H   0  0  0  0  0  0  0  0  0  0  0  0  # atno 11005 bound_to 11000
  146.0630  140.7950  142.9725 LP  0  0  0  0  0  0  0  0  0  0  0  0  # atno 17320 bound_to 7965
  144.6918  140.3226  143.7229 LP  0  0  0  0  0  0  0  0  0  0  0  0  # atno 17321 bound_to 7965
  140.1816  144.4838  150.6525 LP  0  0  0  0  0  0  0  0  0  0  0  0  # atno 17342 bound_to 10162
  140.6654  143.2266  151.5755 LP  0  0  0  0  0  0  0  0  0  0  0  0  # atno 17343 bound_to 10162
  157.7357  130.9767  150.2099 LP  0  0  0  0  0  0  0  0  0  0  0  0  # atno 17370 bound_to 10713
  156.2753  130.3727  149.7990 LP  0  0  0  0  0  0  0  0  0  0  0  0  # atno 17371 bound_to 10713
  140.5454  134.0679  155.7353 LP  0  0  0  0  0  0  0  0  0  0  0  0  # atno 17394 bound_to 11000
  141.1310  133.9301  157.2535 LP  0  0  0  0  0  0  0  0  0  0  0  0  # atno 17395 bound_to 11000

$$$$
