AV-unprocessed.smi:2277|AV-procd|sdf|9178|dock3
  -GOLD-   2272012393D 1   1.00000     0.00000
 Structure written by MMmdl.
 37 38  0  0  0  0  0  0  0  0  1 V2000
  150.8730  142.1588  158.3955 C   0  0  0  0  0  0  0  0  0  0  0  0
  150.3109  141.5634  157.1217 C   0  0  0  0  0  0  0  0  0  0  0  0
  148.9250  141.5423  156.8743 C   0  0  0  0  0  0  0  0  0  0  0  0
  148.4591  140.9757  155.6721 C   0  0  0  0  0  0  0  0  0  0  0  0
  149.3866  140.4448  154.7475 C   0  0  0  0  0  0  0  0  0  0  0  0
  148.8144  139.8995  153.5675 N   0  0  0  0  0  0  0  0  0  0  0  0
  147.5736  139.4108  153.3953 C   0  0  0  0  0  0  0  0  0  0  0  0
  146.6957  139.3721  154.2576 O   0  0  0  0  0  0  0  0  0  0  0  0
  147.4009  138.9516  152.1463 N   0  0  0  0  0  0  0  0  0  0  0  0
  146.1699  138.3515  151.6294 C   0  0  0  0  0  0  0  0  0  0  0  0
  145.8132  136.9802  152.2270 C   0  0  0  0  0  0  0  0  0  0  0  0
  146.4364  136.5764  153.2080 O   0  0  0  0  0  0  0  0  0  0  0  0
  144.8281  136.2710  151.6530 N   0  0  0  0  0  0  0  0  0  0  0  0
  144.3897  134.9544  152.0890 C   0  0  0  0  0  0  0  0  0  0  0  0
  145.1094  133.8125  151.4035 C   0  0  0  0  0  0  0  0  0  0  0  0
  144.5057  133.1406  150.1928 C   0  0  0  0  0  0  0  0  0  0  0  0
  144.5935  132.3962  151.5042 C   0  0  0  0  0  0  0  0  0  0  0  0
  150.7200  140.4707  154.9951 N   0  0  0  0  0  0  0  0  0  0  0  0
  151.1658  141.0135  156.1474 C   0  0  0  0  0  0  0  0  0  0  0  0
  150.0782  142.5103  159.0540 H   0  0  0  0  0  0  0  0  0  0  0  0
  151.5224  143.0031  158.1631 H   0  0  0  0  0  0  0  0  0  0  0  0
  151.4580  141.4134  158.9350 H   0  0  0  0  0  0  0  0  0  0  0  0
  148.2274  141.9520  157.5900 H   0  0  0  0  0  0  0  0  0  0  0  0
  147.3988  140.9511  155.4663 H   0  0  0  0  0  0  0  0  0  0  0  0
  149.4236  139.8717  152.7635 H   0  0  0  0  0  0  0  0  0  0  0  0
  148.1748  139.0213  151.5020 H   0  0  0  0  0  0  0  0  0  0  0  0
  145.3310  139.0332  151.7789 H   0  0  0  0  0  0  0  0  0  0  0  0
  146.2810  138.2342  150.5513 H   0  0  0  0  0  0  0  0  0  0  0  0
  144.3664  136.6645  150.8459 H   0  0  0  0  0  0  0  0  0  0  0  0
  144.5232  134.8675  153.1688 H   0  0  0  0  0  0  0  0  0  0  0  0
  143.3215  134.8537  151.8921 H   0  0  0  0  0  0  0  0  0  0  0  0
  146.1915  133.9280  151.3828 H   0  0  0  0  0  0  0  0  0  0  0  0
  143.5204  133.4691  149.8678 H   0  0  0  0  0  0  0  0  0  0  0  0
  145.1824  132.8374  149.3964 H   0  0  0  0  0  0  0  0  0  0  0  0
  145.3299  131.5993  151.5832 H   0  0  0  0  0  0  0  0  0  0  0  0
  143.6674  132.2314  152.0518 H   0  0  0  0  0  0  0  0  0  0  0  0
  152.2359  141.0083  156.2945 H   0  0  0  0  0  0  0  0  0  0  0  0
  1  2  1  0  0  0  0
  1 20  1  0  0  0  0
  1 21  1  0  0  0  0
  1 22  1  0  0  0  0
  2 19  1  0  0  0  0
  2  3  2  0  0  0  0
  3  4  1  0  0  0  0
  3 23  1  0  0  0  0
  4  5  2  0  0  0  0
  4 24  1  0  0  0  0
  5  6  1  0  0  0  0
  5 18  1  0  0  0  0
  6  7  1  0  0  0  0
  6 25  1  0  0  0  0
  7  8  2  0  0  0  0
  7  9  1  0  0  0  0
  9 10  1  0  0  0  0
  9 26  1  0  0  0  0
 10 11  1  0  0  0  0
 10 27  1  0  0  0  0
 10 28  1  0  0  0  0
 11 12  2  0  0  0  0
 11 13  1  0  0  0  0
 13 14  1  0  0  0  0
 13 29  1  0  0  0  0
 14 15  1  0  0  0  0
 14 30  1  0  0  0  0
 14 31  1  0  0  0  0
 15 17  1  0  0  0  0
 15 16  1  0  0  0  0
 15 32  1  0  0  0  0
 16 17  1  0  0  0  0
 16 33  1  0  0  0  0
 16 34  1  0  0  0  0
 17 35  1  0  0  0  0
 17 36  1  0  0  0  0
 18 19  2  0  0  0  0
 19 37  1  0  0  0  0
M  END
> <s_m_source_file>
AV-unprocessed.smi

> <i_m_source_file_index>
2277

> <i_lp_mmshare_version>
43012

> <i_f3d_flags>
0

> <s_epik_input>
W0NIM11jMVtjSF1bY0hdYyhuW2NIXTEpW05IXUMoPU8pW05IXVtDSDJdQyg9TylbTkhdW0NIMl1bQ0hdMltDSDJdW0NIMl0y

> <s_epik_cmdline>
J2VwaWtfcHl0aG9uJywgJy1waCcsICc3LjAnLCAnLXRuJywgJzgnLCAnLW1hJywgJzIwMCcsICctbWV0YWxfYmluZGluZycsICctaW1hZScsICc8aW5maWxlLm1hZT4nLCAnLW9tYWUnLCAnPG91dGZpbGUubWFlPic=

> <r_lp_tautomer_probability>
1

> <r_epik_Ionization_Penalty>
4.99402e-05

> <r_epik_Ionization_Penalty_Charging>
0

> <r_epik_Ionization_Penalty_Neutral>
4.99402e-05

> <r_epik_State_Penalty>
-0

> <r_epik_Charging_Adjusted_Penalty>
0

> <i_epik_Tot_Q>
0

> <i_epik_Tot_abs_Q>
0

> <r_epik_Metal_State_Penalty>
-0

> <b_epik_Metal_Only>
0

> <s_lp_Force_Field>
OPLS_2005

> <r_lp_Energy>
11.1939

> <b_lp_Chiralities_Consistent>
1

> <s_lp_Variant>
AV-unprocessed.smi:2277-1

> <Gold.Version>
5.8.1

> <Gold.Id.Protein>
6NUR|6NUR_protein|mol2

> <Gold.PLP.Fitness>
41.9094

> <Gold.PLP.PLP>
-32.2990

> <Gold.PLP.part.hbond>
-4.3271

> <Gold.PLP.part.metal>
0.0000

> <Gold.PLP.part.buried>
-3.5252

> <Gold.PLP.part.nonpolar>
-27.0002

> <Gold.PLP.part.repulsive>
1.5132

> <Gold.PLP.ligand.clash>
0.0000

> <Gold.PLP.ligand.torsion>
0.7426

> <Gold.PLP.Chemscore.Hbond>
3.5120

> <Gold.PLP.Chemscore.CHOScore>
0.0000

> <Gold.PLP.Chemscore.Metal>
0.0000

> <Gold.Chemscore.Hbonds>
donor molecule, donor type, donor heavy atom, donor atom, acceptor molecule, acceptor atom, score
      L1  H     6    25       P1  7957  0.98
      L1  H     9    26       P1  7957  0.85
      L1  H    13    29       P1 10171  0.45
      P1  H  7989  7998       L1    18  1.00

> <Gold.PLP.Chemscore.Internal.Correction>
0.5596

> <Gold.Rescore>
     Score         DG    S(hbond)    S(metal)    S(lipo)     H(rot)  DE(clash)    DE(int)     intcor
     15.20     -19.69       3.50        0.00      60.93       1.81       2.33       2.15       ----

> <Gold.Chemscore.Fitness>
15.2032

> <Gold.Chemscore.DG>
-19.6872

> <Gold.Chemscore.ZeroCoef>
-5.4800

> <Gold.Chemscore.Hbond>
3.5035

> <Gold.Chemscore.Metal>
0.0000

> <Gold.Chemscore.Lipo>
60.9259

> <Gold.Chemscore.Internal_Hbond>
0.0000

> <Gold.Chemscore.DEClash>
2.3312

> <Gold.Chemscore.DEInternal>
2.1528

> <Gold.Chemscore.Rot>
1.8058

> <Gold.Chemscore.Internal.Correction>
   9.000000E+99

> <Gold.Chemscore.Hbonds>
donor molecule, donor type, donor heavy atom, donor atom, acceptor molecule, acceptor atom, score
      L1  H     6    25       P1  7957  0.93
      L1  H     9    26       P1  7957  0.67
      L1  H    13    29       P1 10171  0.43
      P1  H  7989  7998       L1    18  0.71

> <Gold.Chemscore.Hbond.Weighted>
-11.7018

> <Gold.Chemscore.Metal.Weighted>
-0.0000

> <Gold.Chemscore.Lipo.Weighted>
-7.1283

> <Gold.Chemscore.Internal_Hbond.Weighted>
0.0000

> <Gold.Chemscore.DEClash.Weighted>
2.3312

> <Gold.Chemscore.DEInternal.Weighted>
2.1528

> <Gold.Chemscore.Rot.Weighted>
4.6230

> <Gold.Chemscore.Internal.Correction.Weighted>
   9.000000E+99

> <Gold.Protein.RotatedTorsions>
[ 6907 6896 6895 6894 ] final   13.99 input  -60.11 | X-H torsion
[ 7974 7965 7964 7962 ] final  126.06 input  175.53 | X-H torsion
[ 8008 7997 7996 7995 ] final  127.11 input   59.86 | X-H torsion
[ 10167 10162 10161 10158 ] final -127.33 input  -65.29 | X-H torsion
[ 10718 10713 10712 10709 ] final -138.76 input   66.30 | X-H torsion
[ 10763 10752 10751 10750 ] final   30.25 input  -60.55 | X-H torsion
[ 11005 11000 10999 10996 ] final -125.53 input  -57.11 | X-H torsion

> <Gold.Protein.ActiveResidues>
 VAL166  LYS551  ARG553  GLY616  TRP617  ASP618  TYR619  PRO620  LYS621  CYS622 
 ASP623  PHE694  ASN695  SER759  ASP760  ASP761  ALA762  ILE779  LEU786  VAL792 
 PHE793  MET794  SER795  GLU796  ALA797  LYS798  CYS799  TRP800  GLU811  SER814 

> <Gold.Protein.RotatedAtoms>
  151.7950  135.0725  160.0392 H   0  0  0  0  0  0  0  0  0  0  0  0  # atno 6907 bound_to 6896
  152.3129  133.5767  159.5701 H   0  0  0  0  0  0  0  0  0  0  0  0  # atno 6908 bound_to 6896
  150.7329  134.0041  159.3690 H   0  0  0  0  0  0  0  0  0  0  0  0  # atno 6909 bound_to 6896
  145.0660  139.3767  143.4982 H   0  0  0  0  0  0  0  0  0  0  0  0  # atno 7974 bound_to 7965
  156.2882  140.2676  156.2220 H   0  0  0  0  0  0  0  0  0  0  0  0  # atno 8008 bound_to 7997
  155.0159  140.0387  157.2436 H   0  0  0  0  0  0  0  0  0  0  0  0  # atno 8009 bound_to 7997
  154.7478  140.2737  155.6323 H   0  0  0  0  0  0  0  0  0  0  0  0  # atno 8010 bound_to 7997
  139.9620  143.5939  152.2442 H   0  0  0  0  0  0  0  0  0  0  0  0  # atno 10167 bound_to 10162
  156.3030  130.7439  151.1495 H   0  0  0  0  0  0  0  0  0  0  0  0  # atno 10718 bound_to 10713
  153.0382  135.6469  154.1016 H   0  0  0  0  0  0  0  0  0  0  0  0  # atno 10763 bound_to 10752
  154.0727  135.2879  155.3306 H   0  0  0  0  0  0  0  0  0  0  0  0  # atno 10764 bound_to 10752
  154.6583  135.5401  153.8051 H   0  0  0  0  0  0  0  0  0  0  0  0  # atno 10765 bound_to 10752
  140.9754  134.0747  157.3824 H   0  0  0  0  0  0  0  0  0  0  0  0  # atno 11005 bound_to 11000
  146.3527  140.0381  142.8645 LP  0  0  0  0  0  0  0  0  0  0  0  0  # atno 17320 bound_to 7965
  145.1350  140.9539  143.4522 LP  0  0  0  0  0  0  0  0  0  0  0  0  # atno 17321 bound_to 7965
  139.6546  144.7662  151.2080 LP  0  0  0  0  0  0  0  0  0  0  0  0  # atno 17342 bound_to 10162
  140.7550  143.6106  150.8609 LP  0  0  0  0  0  0  0  0  0  0  0  0  # atno 17343 bound_to 10162
  157.7372  131.0554  150.5366 LP  0  0  0  0  0  0  0  0  0  0  0  0  # atno 17370 bound_to 10713
  156.5496  130.4228  149.6114 LP  0  0  0  0  0  0  0  0  0  0  0  0  # atno 17371 bound_to 10713
  139.8928  135.0127  156.6867 LP  0  0  0  0  0  0  0  0  0  0  0  0  # atno 17394 bound_to 11000
  140.7266  133.9094  155.8183 LP  0  0  0  0  0  0  0  0  0  0  0  0  # atno 17395 bound_to 11000

$$$$
