AV-unprocessed.smi:1605|AV-procd|sdf|6452|dock1
  -GOLD-   22720 7103D 1   1.00000     0.00000
 Structure written by MMmdl.
 51 53  0  0  0  0  0  0  0  0  2 V2000
  145.4364  131.3432  151.0264 C   0  0  0  0  0  0  0  0  0  0  0  0
  146.3290  132.1765  151.7494 O   0  0  0  0  0  0  0  0  0  0  0  0
  145.8087  133.4610  152.0648 C   0  0  2  0  0  0  0  0  0  0  0  0
  145.7957  134.2850  150.7690 C   0  0  0  0  0  0  0  0  0  0  0  0
  145.3478  135.7321  151.0313 C   0  0  0  0  0  0  0  0  0  0  0  0
  146.2155  136.3845  152.0458 N   0  3  1  0  0  0  0  0  0  0  0  0
  145.8994  137.8271  152.2102 C   0  0  0  0  0  0  0  0  0  0  0  0
  147.1300  138.6765  152.6019 C   0  0  1  0  0  0  0  0  0  0  0  0
  146.9071  140.0162  152.2058 O   0  0  0  0  0  0  0  0  0  0  0  0
  147.4374  138.6436  154.1160 C   0  0  0  0  0  0  0  0  0  0  0  0
  148.7196  139.2325  154.4692 N   0  0  0  0  0  0  0  0  0  0  0  0
  149.9132  138.9825  153.8964 C   0  0  0  0  0  0  0  0  0  0  0  0
  150.9699  139.6260  154.3825 N   0  0  0  0  0  0  0  0  0  0  0  0
  150.3937  140.3964  155.3781 C   0  0  0  0  0  0  0  0  0  0  0  0
  150.9753  141.3155  156.2786 C   0  0  0  0  0  0  0  0  0  0  0  0
  150.1832  142.0023  157.2262 C   0  0  0  0  0  0  0  0  0  0  0  0
  150.8505  142.9817  158.1762 C   0  0  0  0  0  0  0  0  0  0  0  0
  148.7845  141.7756  157.2804 C   0  0  0  0  0  0  0  0  0  0  0  0
  147.9119  142.5041  158.2871 C   0  0  0  0  0  0  0  0  0  0  0  0
  148.1879  140.8590  156.3900 C   0  0  0  0  0  0  0  0  0  0  0  0
  148.9867  140.1784  155.4540 C   0  0  0  0  0  0  0  0  0  0  0  0
  146.2137  135.6276  153.3264 C   0  0  0  0  0  0  0  0  0  0  0  0
  146.6796  134.1772  153.1141 C   0  0  0  0  0  0  0  0  0  0  0  0
  145.9321  130.4014  150.7912 H   0  0  0  0  0  0  0  0  0  0  0  0
  145.1381  131.8060  150.0850 H   0  0  0  0  0  0  0  0  0  0  0  0
  144.5413  131.1096  151.6024 H   0  0  0  0  0  0  0  0  0  0  0  0
  144.7835  133.3697  152.4288 H   0  0  0  0  0  0  0  0  0  0  0  0
  146.7919  134.2889  150.3242 H   0  0  0  0  0  0  0  0  0  0  0  0
  145.1335  133.8189  150.0385 H   0  0  0  0  0  0  0  0  0  0  0  0
  145.3882  136.2903  150.0952 H   0  0  0  0  0  0  0  0  0  0  0  0
  144.3102  135.7524  151.3689 H   0  0  0  0  0  0  0  0  0  0  0  0
  145.4923  138.2147  151.2752 H   0  0  0  0  0  0  0  0  0  0  0  0
  145.1078  137.9363  152.9532 H   0  0  0  0  0  0  0  0  0  0  0  0
  148.0205  138.3247  152.0828 H   0  0  0  0  0  0  0  0  0  0  0  0
  147.6751  140.3389  151.7603 H   0  0  0  0  0  0  0  0  0  0  0  0
  146.6574  139.1778  154.6603 H   0  0  0  0  0  0  0  0  0  0  0  0
  147.4153  137.6171  154.4847 H   0  0  0  0  0  0  0  0  0  0  0  0
  150.0131  138.2800  153.0819 H   0  0  0  0  0  0  0  0  0  0  0  0
  152.0402  141.4905  156.2349 H   0  0  0  0  0  0  0  0  0  0  0  0
  150.4807  143.9923  158.0025 H   0  0  0  0  0  0  0  0  0  0  0  0
  151.9325  142.9925  158.0420 H   0  0  0  0  0  0  0  0  0  0  0  0
  150.6470  142.7106  159.2124 H   0  0  0  0  0  0  0  0  0  0  0  0
  146.8589  142.2538  158.1556 H   0  0  0  0  0  0  0  0  0  0  0  0
  148.0147  143.5837  158.1743 H   0  0  0  0  0  0  0  0  0  0  0  0
  148.1961  142.2328  159.3041 H   0  0  0  0  0  0  0  0  0  0  0  0
  147.1243  140.6747  156.4231 H   0  0  0  0  0  0  0  0  0  0  0  0
  146.8704  136.1026  154.0538 H   0  0  0  0  0  0  0  0  0  0  0  0
  145.2107  135.6388  153.7558 H   0  0  0  0  0  0  0  0  0  0  0  0
  146.6479  133.6486  154.0666 H   0  0  0  0  0  0  0  0  0  0  0  0
  147.7219  134.1725  152.7920 H   0  0  0  0  0  0  0  0  0  0  0  0
  147.1544  136.3413  151.6760 H   0  0  0  0  0  0  0  0  0  0  0  0
  1  2  1  0  0  0  0
  1 24  1  0  0  0  0
  1 25  1  0  0  0  0
  1 26  1  0  0  0  0
  2  3  1  0  0  0  0
  3 23  1  0  0  0  0
  3  4  1  0  0  0  0
  3 27  1  0  0  0  0
  4  5  1  0  0  0  0
  4 28  1  0  0  0  0
  4 29  1  0  0  0  0
  5  6  1  0  0  0  0
  5 30  1  0  0  0  0
  5 31  1  0  0  0  0
  6  7  1  0  0  0  0
  6 22  1  0  0  0  0
  6 51  1  0  0  0  0
  7  8  1  0  0  0  0
  7 32  1  0  0  0  0
  7 33  1  0  0  0  0
  8  9  1  0  0  0  0
  8 10  1  0  0  0  0
  8 34  1  0  0  0  0
  9 35  1  0  0  0  0
 10 11  1  0  0  0  0
 10 36  1  0  0  0  0
 10 37  1  0  0  0  0
 11 21  1  0  0  0  0
 11 12  1  0  0  0  0
 12 13  2  0  0  0  0
 12 38  1  0  0  0  0
 13 14  1  0  0  0  0
 14 21  2  0  0  0  0
 14 15  1  0  0  0  0
 15 16  2  0  0  0  0
 15 39  1  0  0  0  0
 16 17  1  0  0  0  0
 16 18  1  0  0  0  0
 17 40  1  0  0  0  0
 17 41  1  0  0  0  0
 17 42  1  0  0  0  0
 18 19  1  0  0  0  0
 18 20  2  0  0  0  0
 19 43  1  0  0  0  0
 19 44  1  0  0  0  0
 19 45  1  0  0  0  0
 20 21  1  0  0  0  0
 20 46  1  0  0  0  0
 22 23  1  0  0  0  0
 22 47  1  0  0  0  0
 22 48  1  0  0  0  0
 23 49  1  0  0  0  0
 23 50  1  0  0  0  0
M  CHG  1   6   1
M  END
> <s_m_source_file>
AV-unprocessed.smi

> <i_m_source_file_index>
1605

> <i_lp_mmshare_version>
43012

> <i_f3d_flags>
0

> <s_epik_input>
W0NIM11PW0NIXTFbQ0gyXVtDSDJdTihbQ0gyXVtDSDJdMSlbQ0gyXVtDQEhdKFtPSF0pW0NIMl1uKFtjSF1uMiljKGMyMylbY0hdYyhbQ0gzXSljKFtjSF0zKVtDSDNd

> <s_epik_cmdline>
J2VwaWtfcHl0aG9uJywgJy1waCcsICc3LjAnLCAnLXRuJywgJzgnLCAnLW1hJywgJzIwMCcsICctbWV0YWxfYmluZGluZycsICctaW1hZScsICc8aW5maWxlLm1hZT4nLCAnLW9tYWUnLCAnPG91dGZpbGUubWFlPic=

> <r_epik_Ionization_Penalty>
0.110943

> <r_epik_Ionization_Penalty_Charging>
0.0229283

> <r_epik_Ionization_Penalty_Neutral>
0.0880146

> <r_epik_State_Penalty>
0.0947554

> <r_epik_Charging_Adjusted_Penalty>
0.117684

> <i_epik_Tot_Q>
1

> <i_epik_Tot_abs_Q>
1

> <r_epik_Metal_State_Penalty>
0.0192456

> <b_epik_Metal_Only>
0

> <s_lp_Force_Field>
OPLS_2005

> <r_lp_Energy>
23.4204

> <b_lp_Chiralities_Consistent>
1

> <s_lp_Variant>
AV-unprocessed.smi:1605-2

> <Gold.Version>
5.8.1

> <Gold.Id.Protein>
6NUR|6NUR_protein|mol2

> <Gold.PLP.Fitness>
51.7508

> <Gold.PLP.PLP>
-37.8824

> <Gold.PLP.part.hbond>
-3.2883

> <Gold.PLP.part.metal>
0.0000

> <Gold.PLP.part.buried>
-1.5910

> <Gold.PLP.part.nonpolar>
-32.2257

> <Gold.PLP.part.repulsive>
0.2750

> <Gold.PLP.ligand.clash>
0.0000

> <Gold.PLP.ligand.torsion>
0.8120

> <Gold.PLP.Chemscore.Hbond>
3.9500

> <Gold.PLP.Chemscore.CHOScore>
1.1823

> <Gold.PLP.Chemscore.Metal>
0.0000

> <Gold.Chemscore.Hbonds>
donor molecule, donor type, donor heavy atom, donor atom, acceptor molecule, acceptor atom, score
      L1  H     6    51       P1  7948  2.00
      L1  H     9    35       P1  7957  0.99
      P1  H  7989  7998       L1    13  0.90
      L1  C    12    38       P1  7948  0.93
      L1  C    12    38       P1  7957  0.26

> <Gold.PLP.Chemscore.Internal.Correction>
0.0957

> <Gold.Rescore>
     Score         DG    S(hbond)    S(metal)    S(lipo)     H(rot)  DE(clash)    DE(int)     intcor
     17.80     -18.75       2.61        0.00      87.39       2.22       0.10       0.85       ----

> <Gold.Chemscore.Fitness>
17.7988

> <Gold.Chemscore.DG>
-18.7541

> <Gold.Chemscore.ZeroCoef>
-5.4800

> <Gold.Chemscore.Hbond>
2.6121

> <Gold.Chemscore.Metal>
0.0000

> <Gold.Chemscore.Lipo>
87.3945

> <Gold.Chemscore.Internal_Hbond>
0.0000

> <Gold.Chemscore.DEClash>
0.1010

> <Gold.Chemscore.DEInternal>
0.8544

> <Gold.Chemscore.Rot>
2.2169

> <Gold.Chemscore.Internal.Correction>
   9.000000E+99

> <Gold.Chemscore.Hbonds>
donor molecule, donor type, donor heavy atom, donor atom, acceptor molecule, acceptor atom, score
      L1  H     6    51       P1  7948  0.98
      L1  H     9    35       P1  7957  0.90
      P1  H  7989  7998       L1    13  0.17

> <Gold.Chemscore.Hbond.Weighted>
-8.7243

> <Gold.Chemscore.Metal.Weighted>
-0.0000

> <Gold.Chemscore.Lipo.Weighted>
-10.2252

> <Gold.Chemscore.Internal_Hbond.Weighted>
0.0000

> <Gold.Chemscore.DEClash.Weighted>
0.1010

> <Gold.Chemscore.DEInternal.Weighted>
0.8544

> <Gold.Chemscore.Rot.Weighted>
5.6753

> <Gold.Chemscore.Internal.Correction.Weighted>
   9.000000E+99

> <Gold.Protein.RotatedTorsions>
[ 6907 6896 6895 6894 ] final   82.16 input  -60.11 | X-H torsion
[ 7974 7965 7964 7962 ] final -144.46 input  175.53 | X-H torsion
[ 8008 7997 7996 7995 ] final  -22.89 input   59.86 | X-H torsion
[ 10167 10162 10161 10158 ] final -128.24 input  -65.29 | X-H torsion
[ 10718 10713 10712 10709 ] final   40.69 input   66.30 | X-H torsion
[ 10763 10752 10751 10750 ] final -157.96 input  -60.55 | X-H torsion
[ 11005 11000 10999 10996 ] final -171.85 input  -57.11 | X-H torsion

> <Gold.Protein.ActiveResidues>
 VAL166  LYS551  ARG553  GLY616  TRP617  ASP618  TYR619  PRO620  LYS621  CYS622 
 ASP623  PHE694  ASN695  SER759  ASP760  ASP761  ALA762  ILE779  LEU786  VAL792 
 PHE793  MET794  SER795  GLU796  ALA797  LYS798  CYS799  TRP800  GLU811  SER814 

> <Gold.Protein.RotatedAtoms>
  152.5291  134.3092  159.9106 H   0  0  0  0  0  0  0  0  0  0  0  0  # atno 6907 bound_to 6896
  151.3042  133.4102  159.2649 H   0  0  0  0  0  0  0  0  0  0  0  0  # atno 6908 bound_to 6896
  151.0093  134.9401  159.8055 H   0  0  0  0  0  0  0  0  0  0  0  0  # atno 6909 bound_to 6896
  144.8296  140.5707  143.5524 H   0  0  0  0  0  0  0  0  0  0  0  0  # atno 7974 bound_to 7965
  154.4617  140.1995  156.0227 H   0  0  0  0  0  0  0  0  0  0  0  0  # atno 8008 bound_to 7997
  156.0852  140.3266  155.7716 H   0  0  0  0  0  0  0  0  0  0  0  0  # atno 8009 bound_to 7997
  155.5046  140.0556  157.2924 H   0  0  0  0  0  0  0  0  0  0  0  0  # atno 8010 bound_to 7997
  139.9523  143.6041  152.2471 H   0  0  0  0  0  0  0  0  0  0  0  0  # atno 10167 bound_to 10162
  157.3850  130.7775  149.7223 H   0  0  0  0  0  0  0  0  0  0  0  0  # atno 10718 bound_to 10713
  154.7595  135.3114  154.8406 H   0  0  0  0  0  0  0  0  0  0  0  0  # atno 10763 bound_to 10752
  153.9171  135.6799  153.4753 H   0  0  0  0  0  0  0  0  0  0  0  0  # atno 10764 bound_to 10752
  153.1194  135.4829  154.9101 H   0  0  0  0  0  0  0  0  0  0  0  0  # atno 10765 bound_to 10752
  140.5036  134.5870  157.4996 H   0  0  0  0  0  0  0  0  0  0  0  0  # atno 11005 bound_to 11000
  145.4925  139.1488  143.3702 LP  0  0  0  0  0  0  0  0  0  0  0  0  # atno 17320 bound_to 7965
  146.2600  140.5063  142.8857 LP  0  0  0  0  0  0  0  0  0  0  0  0  # atno 17321 bound_to 7965
  139.6618  144.7662  151.1948 LP  0  0  0  0  0  0  0  0  0  0  0  0  # atno 17342 bound_to 10162
  140.7579  143.5998  150.8711 LP  0  0  0  0  0  0  0  0  0  0  0  0  # atno 17343 bound_to 10162
  155.9784  130.4051  150.3647 LP  0  0  0  0  0  0  0  0  0  0  0  0  # atno 17370 bound_to 10713
  157.1756  131.0379  151.2774 LP  0  0  0  0  0  0  0  0  0  0  0  0  # atno 17371 bound_to 10713
  139.9699  134.7310  156.0063 LP  0  0  0  0  0  0  0  0  0  0  0  0  # atno 17394 bound_to 11000
  141.1422  133.6562  156.3764 LP  0  0  0  0  0  0  0  0  0  0  0  0  # atno 17395 bound_to 11000

$$$$
