AV-unprocessed.smi:332|AV-procd|sdf|2355|dock3
  -GOLD-   2262022263D 1   1.00000     0.00000
 Structure written by MMmdl.
 42 44  0  0  0  0  0  0  0  0  1 V2000
  150.7829  137.6542  157.5982 C   0  0  0  0  0  0  0  0  0  0  0  0
  149.5790  137.3843  156.6796 C   0  0  1  0  0  0  0  0  0  0  0  0
  148.4727  136.8423  157.4613 N   0  0  0  0  0  0  0  0  0  0  0  0
  148.4986  135.7193  158.1986 C   0  0  0  0  0  0  0  0  0  0  0  0
  149.5102  135.0317  158.3315 O   0  0  0  0  0  0  0  0  0  0  0  0
  147.1958  135.2752  158.8863 C   0  0  0  0  0  0  0  0  0  0  0  0
  147.3128  135.0470  160.3380 N   0  0  0  0  0  0  0  0  0  0  0  0
  146.9852  133.7592  160.8070 C   0  0  0  0  0  0  0  0  0  0  0  0
  147.0375  133.4431  162.1103 C   0  0  0  0  0  0  0  0  0  0  0  0
  147.4466  134.4650  163.0441 C   0  0  0  0  0  0  0  0  0  0  0  0
  147.7578  135.7016  162.6069 C   0  0  0  0  0  0  0  0  0  0  0  0
  147.6940  136.0538  161.1837 C   0  0  0  0  0  0  0  0  0  0  0  0
  147.9579  137.1859  160.7786 O   0  0  0  0  0  0  0  0  0  0  0  0
  149.1096  138.6642  155.9487 C   0  0  1  0  0  0  0  0  0  0  0  0
  149.0808  139.9375  156.8236 C   0  0  0  0  0  0  0  0  0  0  0  0
  149.8445  140.9641  155.9659 C   0  0  1  0  0  0  0  0  0  0  0  0
  151.3468  140.6279  155.9978 C   0  0  0  0  0  0  0  0  0  0  0  0
  151.4289  139.3641  155.1224 C   0  0  0  0  0  0  0  0  0  0  0  0
  149.9562  139.1220  154.7331 C   0  0  2  0  0  0  0  0  0  0  0  0
  149.4597  140.5523  154.5495 C   0  0  0  0  0  0  0  0  0  0  0  0
  151.6300  138.0473  157.0359 H   0  0  0  0  0  0  0  0  0  0  0  0
  151.1167  136.7402  158.0902 H   0  0  0  0  0  0  0  0  0  0  0  0
  150.5353  138.3778  158.3754 H   0  0  0  0  0  0  0  0  0  0  0  0
  149.8820  136.6461  155.9354 H   0  0  0  0  0  0  0  0  0  0  0  0
  147.5998  137.3469  157.4108 H   0  0  0  0  0  0  0  0  0  0  0  0
  146.4373  136.0358  158.6948 H   0  0  0  0  0  0  0  0  0  0  0  0
  146.8269  134.3804  158.3821 H   0  0  0  0  0  0  0  0  0  0  0  0
  146.6818  133.0560  160.0445 H   0  0  0  0  0  0  0  0  0  0  0  0
  146.7772  132.4519  162.4517 H   0  0  0  0  0  0  0  0  0  0  0  0
  147.5032  134.2372  164.0983 H   0  0  0  0  0  0  0  0  0  0  0  0
  148.0612  136.4534  163.3207 H   0  0  0  0  0  0  0  0  0  0  0  0
  148.0974  138.4830  155.5817 H   0  0  0  0  0  0  0  0  0  0  0  0
  148.0530  140.2581  156.9963 H   0  0  0  0  0  0  0  0  0  0  0  0
  149.5509  139.7984  157.7977 H   0  0  0  0  0  0  0  0  0  0  0  0
  149.6231  142.0002  156.2230 H   0  0  0  0  0  0  0  0  0  0  0  0
  151.9369  141.4349  155.5615 H   0  0  0  0  0  0  0  0  0  0  0  0
  151.7114  140.4564  157.0114 H   0  0  0  0  0  0  0  0  0  0  0  0
  152.0284  139.5598  154.2326 H   0  0  0  0  0  0  0  0  0  0  0  0
  151.8849  138.5201  155.6386 H   0  0  0  0  0  0  0  0  0  0  0  0
  149.8376  138.4884  153.8533 H   0  0  0  0  0  0  0  0  0  0  0  0
  148.3878  140.6200  154.3544 H   0  0  0  0  0  0  0  0  0  0  0  0
  149.9987  141.1032  153.7767 H   0  0  0  0  0  0  0  0  0  0  0  0
  1  2  1  0  0  0  0
  1 21  1  0  0  0  0
  1 22  1  0  0  0  0
  1 23  1  0  0  0  0
  2  3  1  0  0  0  0
  2 14  1  0  0  0  0
  2 24  1  0  0  0  0
  3  4  1  0  0  0  0
  3 25  1  0  0  0  0
  4  5  2  0  0  0  0
  4  6  1  0  0  0  0
  6  7  1  0  0  0  0
  6 26  1  0  0  0  0
  6 27  1  0  0  0  0
  7 12  1  0  0  0  0
  7  8  1  0  0  0  0
  8  9  2  0  0  0  0
  8 28  1  0  0  0  0
  9 10  1  0  0  0  0
  9 29  1  0  0  0  0
 10 11  2  0  0  0  0
 10 30  1  0  0  0  0
 11 12  1  0  0  0  0
 11 31  1  0  0  0  0
 12 13  2  0  0  0  0
 14 19  1  0  0  0  0
 14 15  1  0  0  0  0
 14 32  1  0  0  0  0
 15 16  1  0  0  0  0
 15 33  1  0  0  0  0
 15 34  1  0  0  0  0
 16 20  1  0  0  0  0
 16 17  1  0  0  0  0
 16 35  1  0  0  0  0
 17 18  1  0  0  0  0
 17 36  1  0  0  0  0
 17 37  1  0  0  0  0
 18 19  1  0  0  0  0
 18 38  1  0  0  0  0
 18 39  1  0  0  0  0
 19 20  1  0  0  0  0
 19 40  1  0  0  0  0
 20 41  1  0  0  0  0
 20 42  1  0  0  0  0
M  END
> <s_m_source_file>
AV-unprocessed.smi

> <i_m_source_file_index>
332

> <i_lp_mmshare_version>
43012

> <i_f3d_flags>
0

> <s_epik_input>
W0NIMl0xW0NIMl1bQ0BIXShbQ0gyXTIpW0NAQEhdKFtDSDJdW0NAQEhdMTIpW0NASF0oW0NIM10pW05IXUMoPU8pW0NIMl1uM1tjSF1bY0hdW2NIXVtjSF1jMz1P

> <s_epik_cmdline>
J2VwaWtfcHl0aG9uJywgJy1waCcsICc3LjAnLCAnLXRuJywgJzgnLCAnLW1hJywgJzIwMCcsICctbWV0YWxfYmluZGluZycsICctaW1hZScsICc8aW5maWxlLm1hZT4nLCAnLW9tYWUnLCAnPG91dGZpbGUubWFlPic=

> <r_lp_tautomer_probability>
1

> <r_epik_Ionization_Penalty>
4.05802e-07

> <r_epik_Ionization_Penalty_Charging>
3.84175e-07

> <r_epik_Ionization_Penalty_Neutral>
2.16269e-08

> <r_epik_State_Penalty>
-0

> <r_epik_Charging_Adjusted_Penalty>
3.84175e-07

> <i_epik_Tot_Q>
0

> <i_epik_Tot_abs_Q>
0

> <r_epik_Metal_State_Penalty>
-0

> <b_epik_Metal_Only>
0

> <s_lp_Force_Field>
OPLS_2005

> <r_lp_Energy>
59.7758

> <b_lp_Chiralities_Consistent>
1

> <s_lp_Variant>
AV-unprocessed.smi:332-4

> <Gold.Version>
5.8.1

> <Gold.Id.Protein>
6NUR|6NUR_protein|mol2

> <Gold.PLP.Fitness>
42.5322

> <Gold.PLP.PLP>
-35.3971

> <Gold.PLP.part.hbond>
-3.0000

> <Gold.PLP.part.metal>
0.0000

> <Gold.PLP.part.buried>
-1.5507

> <Gold.PLP.part.nonpolar>
-31.3882

> <Gold.PLP.part.repulsive>
0.0165

> <Gold.PLP.ligand.clash>
0.0000

> <Gold.PLP.ligand.torsion>
0.3691

> <Gold.PLP.Chemscore.Hbond>
2.6160

> <Gold.PLP.Chemscore.CHOScore>
0.0000

> <Gold.PLP.Chemscore.Metal>
0.0000

> <Gold.Chemscore.Hbonds>
donor molecule, donor type, donor heavy atom, donor atom, acceptor molecule, acceptor atom, score
      P1  H  6896  6907       L1     5  1.00
      P1  H  6931  6943       L1    13  0.86
      P1  H  6934  6947       L1    13  0.78

> <Gold.PLP.Chemscore.Internal.Correction>
0.0252

> <Gold.Rescore>
     Score         DG    S(hbond)    S(metal)    S(lipo)     H(rot)  DE(clash)    DE(int)     intcor
     19.16     -19.86       2.74        0.00      78.36       1.54       0.07       0.63       ----

> <Gold.Chemscore.Fitness>
19.1607

> <Gold.Chemscore.DG>
-19.8650

> <Gold.Chemscore.ZeroCoef>
-5.4800

> <Gold.Chemscore.Hbond>
2.7420

> <Gold.Chemscore.Metal>
0.0000

> <Gold.Chemscore.Lipo>
78.3632

> <Gold.Chemscore.Internal_Hbond>
0.0000

> <Gold.Chemscore.DEClash>
0.0727

> <Gold.Chemscore.DEInternal>
0.6315

> <Gold.Chemscore.Rot>
1.5398

> <Gold.Chemscore.Internal.Correction>
   9.000000E+99

> <Gold.Chemscore.Hbonds>
donor molecule, donor type, donor heavy atom, donor atom, acceptor molecule, acceptor atom, score
      P1  H  6896  6907       L1     5  0.98
      P1  H  6931  6943       L1    13  0.80
      P1  H  6934  6947       L1    13  0.75

> <Gold.Chemscore.Hbond.Weighted>
-9.1584

> <Gold.Chemscore.Metal.Weighted>
-0.0000

> <Gold.Chemscore.Lipo.Weighted>
-9.1685

> <Gold.Chemscore.Internal_Hbond.Weighted>
0.0000

> <Gold.Chemscore.DEClash.Weighted>
0.0727

> <Gold.Chemscore.DEInternal.Weighted>
0.6315

> <Gold.Chemscore.Rot.Weighted>
3.9419

> <Gold.Chemscore.Internal.Correction.Weighted>
   9.000000E+99

> <Gold.Protein.RotatedTorsions>
[ 6907 6896 6895 6894 ] final  -67.01 input  -60.11 | X-H torsion
[ 7974 7965 7964 7962 ] final  115.08 input  175.53 | X-H torsion
[ 8008 7997 7996 7995 ] final -113.69 input   59.86 | X-H torsion
[ 10167 10162 10161 10158 ] final  -81.96 input  -65.29 | X-H torsion
[ 10718 10713 10712 10709 ] final   94.98 input   66.30 | X-H torsion
[ 10763 10752 10751 10750 ] final -100.74 input  -60.55 | X-H torsion
[ 11005 11000 10999 10996 ] final -128.46 input  -57.11 | X-H torsion

> <Gold.Protein.ActiveResidues>
 VAL166  LYS551  ARG553  GLY616  TRP617  ASP618  TYR619  PRO620  LYS621  CYS622 
 ASP623  PHE694  ASN695  SER759  ASP760  ASP761  ALA762  ILE779  LEU786  VAL792 
 PHE793  MET794  SER795  GLU796  ALA797  LYS798  CYS799  TRP800  GLU811  SER814 

> <Gold.Protein.RotatedAtoms>
  150.7433  134.5941  159.6002 H   0  0  0  0  0  0  0  0  0  0  0  0  # atno 6907 bound_to 6896
  152.3321  134.7243  160.0296 H   0  0  0  0  0  0  0  0  0  0  0  0  # atno 6908 bound_to 6896
  151.7724  133.3306  159.3484 H   0  0  0  0  0  0  0  0  0  0  0  0  # atno 6909 bound_to 6896
  145.1964  139.2974  143.4341 H   0  0  0  0  0  0  0  0  0  0  0  0  # atno 7974 bound_to 7965
  155.0247  140.0393  157.2451 H   0  0  0  0  0  0  0  0  0  0  0  0  # atno 8008 bound_to 7997
  154.7348  140.2737  155.6401 H   0  0  0  0  0  0  0  0  0  0  0  0  # atno 8009 bound_to 7997
  156.2850  140.2677  156.2058 H   0  0  0  0  0  0  0  0  0  0  0  0  # atno 8010 bound_to 7997
  140.4364  143.2530  151.8688 H   0  0  0  0  0  0  0  0  0  0  0  0  # atno 10167 bound_to 10162
  157.6943  131.0530  150.4268 H   0  0  0  0  0  0  0  0  0  0  0  0  # atno 10718 bound_to 10713
  154.7603  135.4923  153.9452 H   0  0  0  0  0  0  0  0  0  0  0  0  # atno 10763 bound_to 10752
  153.1244  135.6739  153.9290 H   0  0  0  0  0  0  0  0  0  0  0  0  # atno 10764 bound_to 10752
  153.9012  135.3109  155.3427 H   0  0  0  0  0  0  0  0  0  0  0  0  # atno 10765 bound_to 10752
  140.9514  134.1060  157.4058 H   0  0  0  0  0  0  0  0  0  0  0  0  # atno 11005 bound_to 11000
  146.3426  140.2194  142.8591 LP  0  0  0  0  0  0  0  0  0  0  0  0  # atno 17320 bound_to 7965
  144.9991  140.8615  143.5293 LP  0  0  0  0  0  0  0  0  0  0  0  0  # atno 17321 bound_to 7965
  139.4787  144.5278  151.8710 LP  0  0  0  0  0  0  0  0  0  0  0  0  # atno 17342 bound_to 10162
  140.4369  144.2040  150.5889 LP  0  0  0  0  0  0  0  0  0  0  0  0  # atno 17343 bound_to 10162
  156.4638  130.4038  149.6559 LP  0  0  0  0  0  0  0  0  0  0  0  0  # atno 17370 bound_to 10713
  156.3665  130.7508  151.2486 LP  0  0  0  0  0  0  0  0  0  0  0  0  # atno 17371 bound_to 10713
  139.8849  135.0067  156.6397 LP  0  0  0  0  0  0  0  0  0  0  0  0  # atno 17394 bound_to 11000
  140.7597  133.8828  155.8409 LP  0  0  0  0  0  0  0  0  0  0  0  0  # atno 17395 bound_to 11000

$$$$
