AV-unprocessed.smi:705|AV-procd|sdf|3446|dock3
  -GOLD-   22720 0433D 1   1.00000     0.00000
 Structure written by MMmdl.
 29 30  0  0  0  0  0  0  0  0  2 V2000
  151.1145  137.7859  153.7901 N   0  0  0  0  0  0  0  0  0  0  0  0
  151.3146  137.3503  155.0374 C   0  0  0  0  0  0  0  0  0  0  0  0
  151.3682  136.1531  155.3117 O   0  0  0  0  0  0  0  0  0  0  0  0
  151.5106  138.3793  156.0796 C   0  0  0  0  0  0  0  0  0  0  0  0
  151.6525  139.7227  155.8774 C   0  0  0  0  0  0  0  0  0  0  0  0
  151.7829  140.2308  157.2058 C   0  0  0  0  0  0  0  0  0  0  0  0
  151.9846  141.6664  157.6197 C   0  0  2  0  0  0  0  0  0  0  0  0
  152.0565  141.8206  159.1514 C   0  0  0  0  0  0  0  0  0  0  0  0
  152.2581  143.2951  159.5331 C   0  0  0  0  0  0  0  0  0  0  0  0
  151.1719  144.1798  158.8985 C   0  0  0  0  0  0  0  0  0  0  0  0
  151.1427  144.0027  157.4300 N   0  3  0  0  0  0  0  0  0  0  0  0
  150.9116  142.5998  157.0203 C   0  0  0  0  0  0  0  0  0  0  0  0
  151.7111  139.2748  158.1311 N   0  0  0  0  0  0  0  0  0  0  0  0
  151.5342  138.1378  157.4298 N   0  0  0  0  0  0  0  0  0  0  0  0
  151.4408  137.2348  157.8733 H   0  0  0  0  0  0  0  0  0  0  0  0
  150.9803  137.1208  153.0423 H   0  0  0  0  0  0  0  0  0  0  0  0
  151.1028  138.7768  153.5986 H   0  0  0  0  0  0  0  0  0  0  0  0
  151.6658  140.2617  154.9414 H   0  0  0  0  0  0  0  0  0  0  0  0
  152.9473  141.9911  157.2214 H   0  0  0  0  0  0  0  0  0  0  0  0
  151.1378  141.4510  159.6094 H   0  0  0  0  0  0  0  0  0  0  0  0
  152.8705  141.2171  159.5548 H   0  0  0  0  0  0  0  0  0  0  0  0
  152.2416  143.4044  160.6179 H   0  0  0  0  0  0  0  0  0  0  0  0
  153.2435  143.6282  159.2041 H   0  0  0  0  0  0  0  0  0  0  0  0
  150.1923  143.9320  159.3094 H   0  0  0  0  0  0  0  0  0  0  0  0
  151.3580  145.2295  159.1269 H   0  0  0  0  0  0  0  0  0  0  0  0
  150.4099  144.5810  157.0444 H   0  0  0  0  0  0  0  0  0  0  0  0
  150.9248  142.5448  155.9313 H   0  0  0  0  0  0  0  0  0  0  0  0
  149.9135  142.2996  157.3426 H   0  0  0  0  0  0  0  0  0  0  0  0
  152.0293  144.3052  157.0528 H   0  0  0  0  0  0  0  0  0  0  0  0
  1  2  1  0  0  0  0
  1 16  1  0  0  0  0
  1 17  1  0  0  0  0
  2  3  2  0  0  0  0
  2  4  1  0  0  0  0
  4 14  1  0  0  0  0
  4  5  2  0  0  0  0
  5  6  1  0  0  0  0
  5 18  1  0  0  0  0
  6  7  1  0  0  0  0
  6 13  2  0  0  0  0
  7 12  1  0  0  0  0
  7  8  1  0  0  0  0
  7 19  1  0  0  0  0
  8  9  1  0  0  0  0
  8 20  1  0  0  0  0
  8 21  1  0  0  0  0
  9 10  1  0  0  0  0
  9 22  1  0  0  0  0
  9 23  1  0  0  0  0
 10 11  1  0  0  0  0
 10 24  1  0  0  0  0
 10 25  1  0  0  0  0
 11 12  1  0  0  0  0
 11 26  1  0  0  0  0
 11 29  1  0  0  0  0
 12 27  1  0  0  0  0
 12 28  1  0  0  0  0
 13 14  1  0  0  0  0
 14 15  1  0  0  0  0
M  CHG  1  11   1
M  END
> <s_m_source_file>
AV-unprocessed.smi

> <i_m_source_file_index>
705

> <i_lp_mmshare_version>
43012

> <i_f3d_flags>
0

> <s_epik_input>
W05IMl1DKD1PKWMxW2NIXWMoW25IXW4xKVtDQEBIXTJbQ0gyXVtDSDJdW0NIMl1bTkhdW0NIMl0y

> <s_epik_cmdline>
J2VwaWtfcHl0aG9uJywgJy1waCcsICc3LjAnLCAnLXRuJywgJzgnLCAnLW1hJywgJzIwMCcsICctbWV0YWxfYmluZGluZycsICctaW1hZScsICc8aW5maWxlLm1hZT4nLCAnLW9tYWUnLCAnPG91dGZpbGUubWFlPic=

> <r_lp_tautomer_probability>
0.5

> <r_epik_Ionization_Penalty>
0.000242638

> <r_epik_Ionization_Penalty_Charging>
0.000157527

> <r_epik_Ionization_Penalty_Neutral>
8.51112e-05

> <r_epik_State_Penalty>
0.41068

> <r_epik_Charging_Adjusted_Penalty>
0.410837

> <i_epik_Tot_Q>
1

> <i_epik_Tot_abs_Q>
1

> <r_epik_Metal_State_Penalty>
0.446108

> <b_epik_Metal_Only>
0

> <s_lp_Force_Field>
OPLS_2005

> <r_lp_Energy>
10.1374

> <b_lp_Chiralities_Consistent>
1

> <s_lp_Variant>
AV-unprocessed.smi:705-1

> <Gold.Version>
5.8.1

> <Gold.Id.Protein>
6NUR|6NUR_protein|mol2

> <Gold.PLP.Fitness>
35.9810

> <Gold.PLP.PLP>
-24.3589

> <Gold.PLP.part.hbond>
-3.3578

> <Gold.PLP.part.metal>
0.0000

> <Gold.PLP.part.buried>
-3.6999

> <Gold.PLP.part.nonpolar>
-17.1907

> <Gold.PLP.part.repulsive>
0.2787

> <Gold.PLP.ligand.clash>
0.0000

> <Gold.PLP.ligand.torsion>
0.0854

> <Gold.PLP.Chemscore.Hbond>
3.9200

> <Gold.PLP.Chemscore.CHOScore>
0.0000

> <Gold.PLP.Chemscore.Metal>
0.0000

> <Gold.Chemscore.Hbonds>
donor molecule, donor type, donor heavy atom, donor atom, acceptor molecule, acceptor atom, score
      L1  H     1    16       P1  7949  1.00
      L1  H    11    26       P1  8028  1.92
      P1  H 10752 10765       L1     3  1.00

> <Gold.PLP.Chemscore.Internal.Correction>
0.0328

> <Gold.Rescore>
     Score         DG    S(hbond)    S(metal)    S(lipo)     H(rot)  DE(clash)    DE(int)     intcor
     17.43     -17.99       2.29        0.00      63.34       1.00       0.45       0.10       ----

> <Gold.Chemscore.Fitness>
17.4341

> <Gold.Chemscore.DG>
-17.9883

> <Gold.Chemscore.ZeroCoef>
-5.4800

> <Gold.Chemscore.Hbond>
2.2927

> <Gold.Chemscore.Metal>
0.0000

> <Gold.Chemscore.Lipo>
63.3399

> <Gold.Chemscore.Internal_Hbond>
0.0000

> <Gold.Chemscore.DEClash>
0.4539

> <Gold.Chemscore.DEInternal>
0.1003

> <Gold.Chemscore.Rot>
1.0000

> <Gold.Chemscore.Internal.Correction>
   9.000000E+99

> <Gold.Chemscore.Hbonds>
donor molecule, donor type, donor heavy atom, donor atom, acceptor molecule, acceptor atom, score
      L1  H     1    16       P1  7949  0.25
      L1  H    11    26       P1  8028  0.64
      P1  H 10752 10765       L1     3  0.29

> <Gold.Chemscore.Hbond.Weighted>
-7.6576

> <Gold.Chemscore.Metal.Weighted>
-0.0000

> <Gold.Chemscore.Lipo.Weighted>
-7.4108

> <Gold.Chemscore.Internal_Hbond.Weighted>
0.0000

> <Gold.Chemscore.DEClash.Weighted>
0.4539

> <Gold.Chemscore.DEInternal.Weighted>
0.1003

> <Gold.Chemscore.Rot.Weighted>
2.5600

> <Gold.Chemscore.Internal.Correction.Weighted>
   9.000000E+99

> <Gold.Protein.RotatedTorsions>
[ 6907 6896 6895 6894 ] final   84.06 input  -60.11 | X-H torsion
[ 7974 7965 7964 7962 ] final   86.41 input  175.53 | X-H torsion
[ 8008 7997 7996 7995 ] final  131.58 input   59.86 | X-H torsion
[ 10167 10162 10161 10158 ] final -107.41 input  -65.29 | X-H torsion
[ 10718 10713 10712 10709 ] final  -19.70 input   66.30 | X-H torsion
[ 10763 10752 10751 10750 ] final  166.46 input  -60.55 | X-H torsion
[ 11005 11000 10999 10996 ] final   51.00 input  -57.11 | X-H torsion

> <Gold.Protein.ActiveResidues>
 VAL166  LYS551  ARG553  GLY616  TRP617  ASP618  TYR619  PRO620  LYS621  CYS622 
 ASP623  PHE694  ASN695  SER759  ASP760  ASP761  ALA762  ILE779  LEU786  VAL792 
 PHE793  MET794  SER795  GLU796  ALA797  LYS798  CYS799  TRP800  GLU811  SER814 

> <Gold.Protein.RotatedAtoms>
  152.5343  134.2799  159.9003 H   0  0  0  0  0  0  0  0  0  0  0  0  # atno 6907 bound_to 6896
  151.2753  133.4229  159.2631 H   0  0  0  0  0  0  0  0  0  0  0  0  # atno 6908 bound_to 6896
  151.0331  134.9569  159.8178 H   0  0  0  0  0  0  0  0  0  0  0  0  # atno 6909 bound_to 6896
  145.5727  139.2315  143.2397 H   0  0  0  0  0  0  0  0  0  0  0  0  # atno 7974 bound_to 7965
  156.2972  140.2568  156.2949 H   0  0  0  0  0  0  0  0  0  0  0  0  # atno 8008 bound_to 7997
  154.9474  140.0395  157.2145 H   0  0  0  0  0  0  0  0  0  0  0  0  # atno 8009 bound_to 7997
  154.8069  140.2837  155.5886 H   0  0  0  0  0  0  0  0  0  0  0  0  # atno 8010 bound_to 7997
  140.1773  143.3995  152.1309 H   0  0  0  0  0  0  0  0  0  0  0  0  # atno 10167 bound_to 10162
  156.5421  130.4681  149.6493 H   0  0  0  0  0  0  0  0  0  0  0  0  # atno 10718 bound_to 10713
  154.3394  135.2754  155.2430 H   0  0  0  0  0  0  0  0  0  0  0  0  # atno 10763 bound_to 10752
  154.4708  135.5883  153.6323 H   0  0  0  0  0  0  0  0  0  0  0  0  # atno 10764 bound_to 10752
  152.9859  135.6087  154.3594 H   0  0  0  0  0  0  0  0  0  0  0  0  # atno 10765 bound_to 10752
  140.0970  134.5133  155.8798 H   0  0  0  0  0  0  0  0  0  0  0  0  # atno 11005 bound_to 11000
  146.1773  140.6553  142.9205 LP  0  0  0  0  0  0  0  0  0  0  0  0  # atno 17320 bound_to 7965
  144.7430  140.4994  143.6855 LP  0  0  0  0  0  0  0  0  0  0  0  0  # atno 17321 bound_to 7965
  139.5311  144.7160  151.5051 LP  0  0  0  0  0  0  0  0  0  0  0  0  # atno 17342 bound_to 10162
  140.6543  143.8632  150.6818 LP  0  0  0  0  0  0  0  0  0  0  0  0  # atno 17343 bound_to 10162
  156.2962  130.7151  151.2012 LP  0  0  0  0  0  0  0  0  0  0  0  0  # atno 17370 bound_to 10713
  157.7403  131.0518  150.5173 LP  0  0  0  0  0  0  0  0  0  0  0  0  # atno 17371 bound_to 10713
  141.2095  133.6684  156.6441 LP  0  0  0  0  0  0  0  0  0  0  0  0  # atno 17394 bound_to 11000
  140.3273  134.7958  157.4299 LP  0  0  0  0  0  0  0  0  0  0  0  0  # atno 17395 bound_to 11000

$$$$
