AV-unprocessed.smi:199|AV-procd|sdf|1565|dock5
  -GOLD-   2262019443D 1   1.00000     0.00000
 Structure written by MMmdl.
 51 55  0  0  0  0  0  0  0  0  1 V2000
  150.6599  135.7386  155.6298 C   0  0  0  0  0  0  0  0  0  0  0  0
  151.4815  137.0314  155.7603 C   0  0  1  0  0  0  0  0  0  0  0  0
  152.5445  137.0467  154.8182 O   0  0  0  0  0  0  0  0  0  0  0  0
  152.9942  138.3860  154.7236 C   0  0  0  0  0  0  0  0  0  0  0  0
  151.6909  139.1726  154.6582 C   0  0  0  0  0  0  0  0  0  0  0  0
  150.7298  138.3717  155.5424 C   0  0  1  0  0  0  0  0  0  0  0  0
  149.5214  138.1871  154.8230 O   0  0  0  0  0  0  0  0  0  0  0  0
  150.3999  139.1094  156.8639 C   0  0  0  0  0  0  0  0  0  0  0  0
  149.9744  138.2209  157.9355 N   0  0  0  0  0  0  0  0  0  0  0  0
  150.7774  137.6257  158.8814 C   0  0  0  0  0  0  0  0  0  0  0  0
  150.1543  136.8750  159.7468 N   0  0  0  0  0  0  0  0  0  0  0  0
  148.8201  136.9403  159.3626 C   0  0  0  0  0  0  0  0  0  0  0  0
  147.6107  136.3698  159.8560 C   0  0  0  0  0  0  0  0  0  0  0  0
  147.5512  135.5416  160.9348 N   0  0  0  0  0  0  0  0  0  0  0  0
  146.9928  135.9983  162.2011 C   0  0  2  0  0  0  0  0  0  0  0  0
  147.3269  134.8300  163.1428 C   0  0  0  0  0  0  0  0  0  0  0  0
  147.1745  133.6314  162.1943 C   0  0  0  0  0  0  0  0  0  0  0  0
  146.7499  134.3273  160.8860 C   0  0  1  0  0  0  0  0  0  0  0  0
  145.2961  134.8610  160.9641 C   0  0  1  0  0  0  0  0  0  0  0  0
  144.1900  133.8532  161.3282 C   0  0  0  0  0  0  0  0  0  0  0  0
  144.1265  133.6801  162.7275 O   0  0  0  0  0  0  0  0  0  0  0  0
  145.4666  136.0194  161.9637 C   0  0  0  0  0  0  0  0  0  0  0  0
  146.4594  136.7037  159.2142 N   0  0  0  0  0  0  0  0  0  0  0  0
  146.4846  137.5100  158.1499 C   0  0  0  0  0  0  0  0  0  0  0  0
  147.5344  138.0957  157.5729 N   0  0  0  0  0  0  0  0  0  0  0  0
  148.6919  137.7863  158.2235 C   0  0  0  0  0  0  0  0  0  0  0  0
  149.8322  135.7255  156.3394 H   0  0  0  0  0  0  0  0  0  0  0  0
  151.2809  134.8656  155.8306 H   0  0  0  0  0  0  0  0  0  0  0  0
  150.2484  135.6242  154.6267 H   0  0  0  0  0  0  0  0  0  0  0  0
  151.9565  137.0398  156.7419 H   0  0  0  0  0  0  0  0  0  0  0  0
  153.5672  138.6482  155.6145 H   0  0  0  0  0  0  0  0  0  0  0  0
  153.6250  138.5400  153.8480 H   0  0  0  0  0  0  0  0  0  0  0  0
  151.8168  140.2079  154.9770 H   0  0  0  0  0  0  0  0  0  0  0  0
  151.3473  139.1917  153.6224 H   0  0  0  0  0  0  0  0  0  0  0  0
  148.9323  137.6722  155.3526 H   0  0  0  0  0  0  0  0  0  0  0  0
  151.2725  139.6663  157.2079 H   0  0  0  0  0  0  0  0  0  0  0  0
  149.6145  139.8487  156.7019 H   0  0  0  0  0  0  0  0  0  0  0  0
  151.8469  137.7739  158.9159 H   0  0  0  0  0  0  0  0  0  0  0  0
  147.3890  136.9482  162.5623 H   0  0  0  0  0  0  0  0  0  0  0  0
  148.3524  134.9020  163.5073 H   0  0  0  0  0  0  0  0  0  0  0  0
  146.6620  134.7783  164.0057 H   0  0  0  0  0  0  0  0  0  0  0  0
  148.1362  133.1337  162.0625 H   0  0  0  0  0  0  0  0  0  0  0  0
  146.4683  132.8833  162.5509 H   0  0  0  0  0  0  0  0  0  0  0  0
  146.9211  133.6926  160.0184 H   0  0  0  0  0  0  0  0  0  0  0  0
  145.0410  135.2881  159.9924 H   0  0  0  0  0  0  0  0  0  0  0  0
  143.2146  134.1583  160.9516 H   0  0  0  0  0  0  0  0  0  0  0  0
  144.4087  132.8869  160.8737 H   0  0  0  0  0  0  0  0  0  0  0  0
  145.0068  133.5936  163.0598 H   0  0  0  0  0  0  0  0  0  0  0  0
  144.9028  135.8806  162.8871 H   0  0  0  0  0  0  0  0  0  0  0  0
  145.1455  136.9610  161.5169 H   0  0  0  0  0  0  0  0  0  0  0  0
  145.5266  137.7155  157.6958 H   0  0  0  0  0  0  0  0  0  0  0  0
  1  2  1  0  0  0  0
  1 27  1  0  0  0  0
  1 28  1  0  0  0  0
  1 29  1  0  0  0  0
  2  6  1  0  0  0  0
  2  3  1  0  0  0  0
  2 30  1  0  0  0  0
  3  4  1  0  0  0  0
  4  5  1  0  0  0  0
  4 31  1  0  0  0  0
  4 32  1  0  0  0  0
  5  6  1  0  0  0  0
  5 33  1  0  0  0  0
  5 34  1  0  0  0  0
  6  7  1  0  0  0  0
  6  8  1  0  0  0  0
  7 35  1  0  0  0  0
  8  9  1  0  0  0  0
  8 36  1  0  0  0  0
  8 37  1  0  0  0  0
  9 26  1  0  0  0  0
  9 10  1  0  0  0  0
 10 11  2  0  0  0  0
 10 38  1  0  0  0  0
 11 12  1  0  0  0  0
 12 26  2  0  0  0  0
 12 13  1  0  0  0  0
 13 14  1  0  0  0  0
 13 23  2  0  0  0  0
 14 18  1  0  0  0  0
 14 15  1  0  0  0  0
 15 22  1  0  0  0  0
 15 16  1  0  0  0  0
 15 39  1  0  0  0  0
 16 17  1  0  0  0  0
 16 40  1  0  0  0  0
 16 41  1  0  0  0  0
 17 18  1  0  0  0  0
 17 42  1  0  0  0  0
 17 43  1  0  0  0  0
 18 19  1  0  0  0  0
 18 44  1  0  0  0  0
 19 20  1  0  0  0  0
 19 22  1  0  0  0  0
 19 45  1  0  0  0  0
 20 21  1  0  0  0  0
 20 46  1  0  0  0  0
 20 47  1  0  0  0  0
 21 48  1  0  0  0  0
 22 49  1  0  0  0  0
 22 50  1  0  0  0  0
 23 24  1  0  0  0  0
 24 25  2  0  0  0  0
 24 51  1  0  0  0  0
 25 26  1  0  0  0  0
M  END
> <s_m_source_file>
AV-unprocessed.smi

> <i_m_source_file_index>
199

> <i_lp_mmshare_version>
43012

> <i_f3d_flags>
0

> <s_epik_input>
W0NIMl0xW0NIMl1PW0NAQEhdKFtDSDNdKVtDQEBdMShbT0hdKVtDSDJdbihbY0hdbjIpYyhjMjMpbltjSF1uYzNOKFtDQEBIXTQ1KVtDQEhdKFtDSDJdW0NIMl00KVtDQEhdKFtDSDJdNSlbQ0gyXVtPSF0=

> <s_epik_cmdline>
J2VwaWtfcHl0aG9uJywgJy1waCcsICc3LjAnLCAnLXRuJywgJzgnLCAnLW1hJywgJzIwMCcsICctbWV0YWxfYmluZGluZycsICctaW1hZScsICc8aW5maWxlLm1hZT4nLCAnLW9tYWUnLCAnPG91dGZpbGUubWFlPic=

> <r_lp_tautomer_probability>
1

> <r_epik_Ionization_Penalty>
0.00583903

> <r_epik_Ionization_Penalty_Charging>
0

> <r_epik_Ionization_Penalty_Neutral>
0.00583903

> <r_epik_State_Penalty>
-0

> <r_epik_Charging_Adjusted_Penalty>
0

> <i_epik_Tot_Q>
0

> <i_epik_Tot_abs_Q>
0

> <r_epik_Metal_State_Penalty>
-0

> <b_epik_Metal_Only>
0

> <s_lp_Force_Field>
OPLS_2005

> <r_lp_Energy>
84.4473

> <b_lp_Chiralities_Consistent>
1

> <s_lp_Variant>
AV-unprocessed.smi:199-6

> <Gold.Version>
5.8.1

> <Gold.Id.Protein>
6NUR|6NUR_protein|mol2

> <Gold.PLP.Fitness>
39.4310

> <Gold.PLP.PLP>
-36.0739

> <Gold.PLP.part.hbond>
-1.9797

> <Gold.PLP.part.metal>
0.0000

> <Gold.PLP.part.buried>
-5.4652

> <Gold.PLP.part.nonpolar>
-29.1744

> <Gold.PLP.part.repulsive>
0.1306

> <Gold.PLP.ligand.clash>
0.0000

> <Gold.PLP.ligand.torsion>
1.2857

> <Gold.PLP.Chemscore.Hbond>
1.9600

> <Gold.PLP.Chemscore.CHOScore>
0.0000

> <Gold.PLP.Chemscore.Metal>
0.0000

> <Gold.Chemscore.Hbonds>
donor molecule, donor type, donor heavy atom, donor atom, acceptor molecule, acceptor atom, score
      P1  H  6896  6909       L1    11  0.98
      P1  H 10752 10765       L1     3  0.57

> <Gold.PLP.Chemscore.Internal.Correction>
0.0485

> <Gold.Rescore>
     Score         DG    S(hbond)    S(metal)    S(lipo)     H(rot)  DE(clash)    DE(int)     intcor
      8.73     -12.24       1.48        0.00      82.85       3.07       0.12       3.39       ----

> <Gold.Chemscore.Fitness>
8.7324

> <Gold.Chemscore.DG>
-12.2425

> <Gold.Chemscore.ZeroCoef>
-5.4800

> <Gold.Chemscore.Hbond>
1.4778

> <Gold.Chemscore.Metal>
0.0000

> <Gold.Chemscore.Lipo>
82.8502

> <Gold.Chemscore.Internal_Hbond>
0.0000

> <Gold.Chemscore.DEClash>
0.1166

> <Gold.Chemscore.DEInternal>
3.3935

> <Gold.Chemscore.Rot>
3.0729

> <Gold.Chemscore.Internal.Correction>
   9.000000E+99

> <Gold.Chemscore.Hbonds>
donor molecule, donor type, donor heavy atom, donor atom, acceptor molecule, acceptor atom, score
      P1  H  6896  6909       L1    11  0.65
      P1  H 10752 10765       L1     3  0.49

> <Gold.Chemscore.Hbond.Weighted>
-4.9358

> <Gold.Chemscore.Metal.Weighted>
-0.0000

> <Gold.Chemscore.Lipo.Weighted>
-9.6935

> <Gold.Chemscore.Internal_Hbond.Weighted>
0.0000

> <Gold.Chemscore.DEClash.Weighted>
0.1166

> <Gold.Chemscore.DEInternal.Weighted>
3.3935

> <Gold.Chemscore.Rot.Weighted>
7.8667

> <Gold.Chemscore.Internal.Correction.Weighted>
   9.000000E+99

> <Gold.Protein.RotatedTorsions>
[ 6907 6896 6895 6894 ] final   84.94 input  -60.11 | X-H torsion
[ 7974 7965 7964 7962 ] final   81.23 input  175.53 | X-H torsion
[ 8008 7997 7996 7995 ] final  128.85 input   59.86 | X-H torsion
[ 10167 10162 10161 10158 ] final   65.90 input  -65.29 | X-H torsion
[ 10718 10713 10712 10709 ] final -128.21 input   66.30 | X-H torsion
[ 10763 10752 10751 10750 ] final  163.99 input  -60.55 | X-H torsion
[ 11005 11000 10999 10996 ] final   38.66 input  -57.11 | X-H torsion

> <Gold.Protein.ActiveResidues>
 VAL166  LYS551  ARG553  GLY616  TRP617  ASP618  TYR619  PRO620  LYS621  CYS622 
 ASP623  PHE694  ASN695  SER759  ASP760  ASP761  ALA762  ILE779  LEU786  VAL792 
 PHE793  MET794  SER795  GLU796  ALA797  LYS798  CYS799  TRP800  GLU811  SER814 

> <Gold.Protein.RotatedAtoms>
  152.5364  134.2662  159.8953 H   0  0  0  0  0  0  0  0  0  0  0  0  # atno 6907 bound_to 6896
  151.2620  133.4290  159.2624 H   0  0  0  0  0  0  0  0  0  0  0  0  # atno 6908 bound_to 6896
  151.0444  134.9644  159.8235 H   0  0  0  0  0  0  0  0  0  0  0  0  # atno 6909 bound_to 6896
  145.6409  139.2425  143.2031 H   0  0  0  0  0  0  0  0  0  0  0  0  # atno 7974 bound_to 7965
  156.2924  140.2635  156.2503 H   0  0  0  0  0  0  0  0  0  0  0  0  # atno 8008 bound_to 7997
  154.9889  140.0389  157.2329 H   0  0  0  0  0  0  0  0  0  0  0  0  # atno 8009 bound_to 7997
  154.7704  140.2777  155.6147 H   0  0  0  0  0  0  0  0  0  0  0  0  # atno 8010 bound_to 7997
  140.1062  144.4859  150.7006 H   0  0  0  0  0  0  0  0  0  0  0  0  # atno 10167 bound_to 10162
  156.1929  130.6807  151.0446 H   0  0  0  0  0  0  0  0  0  0  0  0  # atno 10718 bound_to 10713
  154.3021  135.2759  155.2606 H   0  0  0  0  0  0  0  0  0  0  0  0  # atno 10763 bound_to 10752
  154.5038  135.5801  153.6555 H   0  0  0  0  0  0  0  0  0  0  0  0  # atno 10764 bound_to 10752
  152.9899  135.6164  154.3193 H   0  0  0  0  0  0  0  0  0  0  0  0  # atno 10765 bound_to 10752
  140.2105  134.3761  155.8051 H   0  0  0  0  0  0  0  0  0  0  0  0  # atno 11005 bound_to 11000
  146.1282  140.7221  142.9425 LP  0  0  0  0  0  0  0  0  0  0  0  0  # atno 17320 bound_to 7965
  144.7158  140.4203  143.7046 LP  0  0  0  0  0  0  0  0  0  0  0  0  # atno 17321 bound_to 7965
  140.6951  143.2399  151.5024 LP  0  0  0  0  0  0  0  0  0  0  0  0  # atno 17342 bound_to 10162
  139.5644  144.2078  152.1742 LP  0  0  0  0  0  0  0  0  0  0  0  0  # atno 17343 bound_to 10162
  157.6940  131.0800  150.7024 LP  0  0  0  0  0  0  0  0  0  0  0  0  # atno 17370 bound_to 10713
  156.7080  130.4643  149.5555 LP  0  0  0  0  0  0  0  0  0  0  0  0  # atno 17371 bound_to 10713
  141.2226  133.7140  156.8409 LP  0  0  0  0  0  0  0  0  0  0  0  0  # atno 17394 bound_to 11000
  140.1956  134.8934  157.3111 LP  0  0  0  0  0  0  0  0  0  0  0  0  # atno 17395 bound_to 11000

$$$$
