AV-unprocessed.smi:1465|AV-procd|sdf|5951|dock10
  -GOLD-   22720 6 33D 1   1.00000     0.00000
 Structure written by MMmdl.
 54 55  0  0  0  0  0  0  0  0  2 V2000
  151.3917  144.4599  158.8287 C   0  0  0  0  0  0  0  0  0  0  0  0
  151.4085  143.4399  157.8461 O   0  0  0  0  0  0  0  0  0  0  0  0
  150.4974  142.3914  158.1327 C   0  0  0  0  0  0  0  0  0  0  0  0
  150.8422  141.1648  157.2727 C   0  0  0  0  0  0  0  0  0  0  0  0
  151.0709  139.9676  158.0944 N   0  0  0  0  0  0  0  0  0  0  0  0
  150.3854  138.7959  157.7195 C   0  0  0  0  0  0  0  0  0  0  0  0
  150.5112  137.6374  158.3965 C   0  0  0  0  0  0  0  0  0  0  0  0
  149.7581  136.4589  157.9614 C   0  0  0  0  0  0  0  0  0  0  0  0
  149.2855  135.6120  158.7212 O   0  0  0  0  0  0  0  0  0  0  0  0
  149.6211  136.3667  156.6270 N   0  0  0  0  0  0  0  0  0  0  0  0
  148.9303  135.2937  155.9182 C   0  0  2  0  0  0  0  0  0  0  0  0
  149.8888  134.5699  154.9556 C   0  0  0  0  0  0  0  0  0  0  0  0
  149.1486  133.5075  154.1262 C   0  0  0  0  0  0  0  0  0  0  0  0
  148.0099  134.1054  153.3795 N   0  3  1  0  0  0  0  0  0  0  0  0
  147.3397  133.1461  152.4638 C   0  0  0  0  0  0  0  0  0  0  0  0
  145.9708  133.6513  151.9585 C   0  0  0  0  0  0  0  0  0  0  0  0
  145.2848  132.6248  151.0413 C   0  0  0  0  0  0  0  0  0  0  0  0
  146.1257  134.9964  151.2335 C   0  0  0  0  0  0  0  0  0  0  0  0
  147.0514  134.7762  154.2953 C   0  0  0  0  0  0  0  0  0  0  0  0
  147.7464  135.8688  155.1250 C   0  0  0  0  0  0  0  0  0  0  0  0
  151.3986  137.6333  159.5504 C   0  0  0  0  0  0  0  0  0  0  0  0
  152.0497  138.7543  159.9183 C   0  0  0  0  0  0  0  0  0  0  0  0
  151.8982  140.0125  159.1815 C   0  0  0  0  0  0  0  0  0  0  0  0
  152.4796  141.0427  159.5231 O   0  0  0  0  0  0  0  0  0  0  0  0
  152.1078  145.2369  158.5613 H   0  0  0  0  0  0  0  0  0  0  0  0
  151.6692  144.0693  159.8087 H   0  0  0  0  0  0  0  0  0  0  0  0
  150.4060  144.9210  158.9015 H   0  0  0  0  0  0  0  0  0  0  0  0
  150.5707  142.1264  159.1885 H   0  0  0  0  0  0  0  0  0  0  0  0
  149.4711  142.7147  157.9507 H   0  0  0  0  0  0  0  0  0  0  0  0
  150.0459  140.9881  156.5482 H   0  0  0  0  0  0  0  0  0  0  0  0
  151.7256  141.3805  156.6694 H   0  0  0  0  0  0  0  0  0  0  0  0
  149.7479  138.9133  156.8539 H   0  0  0  0  0  0  0  0  0  0  0  0
  150.0316  137.0965  156.0629 H   0  0  0  0  0  0  0  0  0  0  0  0
  148.5399  134.5760  156.6427 H   0  0  0  0  0  0  0  0  0  0  0  0
  150.3558  135.2919  154.2840 H   0  0  0  0  0  0  0  0  0  0  0  0
  150.6987  134.0984  155.5136 H   0  0  0  0  0  0  0  0  0  0  0  0
  149.8545  133.0453  153.4372 H   0  0  0  0  0  0  0  0  0  0  0  0
  148.7813  132.7141  154.7790 H   0  0  0  0  0  0  0  0  0  0  0  0
  148.0039  132.9266  151.6264 H   0  0  0  0  0  0  0  0  0  0  0  0
  147.1805  132.1970  152.9782 H   0  0  0  0  0  0  0  0  0  0  0  0
  145.3160  133.8284  152.8112 H   0  0  0  0  0  0  0  0  0  0  0  0
  145.8942  132.4078  150.1631 H   0  0  0  0  0  0  0  0  0  0  0  0
  144.3208  132.9952  150.6914 H   0  0  0  0  0  0  0  0  0  0  0  0
  145.1005  131.6839  151.5602 H   0  0  0  0  0  0  0  0  0  0  0  0
  146.7655  134.9037  150.3553 H   0  0  0  0  0  0  0  0  0  0  0  0
  146.5663  135.7487  151.8882 H   0  0  0  0  0  0  0  0  0  0  0  0
  145.1598  135.3778  150.9008 H   0  0  0  0  0  0  0  0  0  0  0  0
  146.2445  135.2290  153.7174 H   0  0  0  0  0  0  0  0  0  0  0  0
  146.5941  134.0353  154.9533 H   0  0  0  0  0  0  0  0  0  0  0  0
  147.0279  136.3278  155.8052 H   0  0  0  0  0  0  0  0  0  0  0  0
  148.0933  136.6616  154.4601 H   0  0  0  0  0  0  0  0  0  0  0  0
  151.5553  136.7399  160.1369 H   0  0  0  0  0  0  0  0  0  0  0  0
  152.7024  138.7273  160.7788 H   0  0  0  0  0  0  0  0  0  0  0  0
  148.3911  134.8342  152.7933 H   0  0  0  0  0  0  0  0  0  0  0  0
  1  2  1  0  0  0  0
  1 25  1  0  0  0  0
  1 26  1  0  0  0  0
  1 27  1  0  0  0  0
  2  3  1  0  0  0  0
  3  4  1  0  0  0  0
  3 28  1  0  0  0  0
  3 29  1  0  0  0  0
  4  5  1  0  0  0  0
  4 30  1  0  0  0  0
  4 31  1  0  0  0  0
  5 23  1  0  0  0  0
  5  6  1  0  0  0  0
  6  7  2  0  0  0  0
  6 32  1  0  0  0  0
  7  8  1  0  0  0  0
  7 21  1  0  0  0  0
  8  9  2  0  0  0  0
  8 10  1  0  0  0  0
 10 11  1  0  0  0  0
 10 33  1  0  0  0  0
 11 20  1  0  0  0  0
 11 12  1  0  0  0  0
 11 34  1  0  0  0  0
 12 13  1  0  0  0  0
 12 35  1  0  0  0  0
 12 36  1  0  0  0  0
 13 14  1  0  0  0  0
 13 37  1  0  0  0  0
 13 38  1  0  0  0  0
 14 15  1  0  0  0  0
 14 19  1  0  0  0  0
 14 54  1  0  0  0  0
 15 16  1  0  0  0  0
 15 39  1  0  0  0  0
 15 40  1  0  0  0  0
 16 17  1  0  0  0  0
 16 18  1  0  0  0  0
 16 41  1  0  0  0  0
 17 42  1  0  0  0  0
 17 43  1  0  0  0  0
 17 44  1  0  0  0  0
 18 45  1  0  0  0  0
 18 46  1  0  0  0  0
 18 47  1  0  0  0  0
 19 20  1  0  0  0  0
 19 48  1  0  0  0  0
 19 49  1  0  0  0  0
 20 50  1  0  0  0  0
 20 51  1  0  0  0  0
 21 22  2  0  0  0  0
 21 52  1  0  0  0  0
 22 23  1  0  0  0  0
 22 53  1  0  0  0  0
 23 24  2  0  0  0  0
M  CHG  1  14   1
M  END
> <s_m_source_file>
AV-unprocessed.smi

> <i_m_source_file_index>
1465

> <i_lp_mmshare_version>
43012

> <i_f3d_flags>
0

> <s_epik_input>
W0NIM11PW0NIMl1bQ0gyXW4xW2NIXWMoW2NIXVtjSF1jMT1PKUMoPU8pW05IXVtDSF0yW0NIMl1bQ0gyXU4oW0NIMl1bQ0gyXTIpW0NIMl1bQ0hdKFtDSDNdKVtDSDNd

> <s_epik_cmdline>
J2VwaWtfcHl0aG9uJywgJy1waCcsICc3LjAnLCAnLXRuJywgJzgnLCAnLW1hJywgJzIwMCcsICctbWV0YWxfYmluZGluZycsICctaW1hZScsICc8aW5maWxlLm1hZT4nLCAnLW9tYWUnLCAnPG91dGZpbGUubWFlPic=

> <r_lp_tautomer_probability>
1

> <r_epik_Ionization_Penalty>
0.00386091

> <r_epik_Ionization_Penalty_Charging>
0.0038603

> <r_epik_Ionization_Penalty_Neutral>
6.13806e-07

> <r_epik_State_Penalty>
0.00275716

> <r_epik_Charging_Adjusted_Penalty>
0.00661746

> <i_epik_Tot_Q>
1

> <i_epik_Tot_abs_Q>
1

> <r_epik_Metal_State_Penalty>
-0

> <b_epik_Metal_Only>
0

> <s_lp_Force_Field>
OPLS_2005

> <r_lp_Energy>
35.0866

> <b_lp_Chiralities_Consistent>
1

> <s_lp_Variant>
AV-unprocessed.smi:1465-1

> <Gold.Version>
5.8.1

> <Gold.Id.Protein>
6NUR|6NUR_protein|mol2

> <Gold.PLP.Fitness>
43.8466

> <Gold.PLP.PLP>
-37.0920

> <Gold.PLP.part.hbond>
-2.0000

> <Gold.PLP.part.metal>
0.0000

> <Gold.PLP.part.buried>
-5.6231

> <Gold.PLP.part.nonpolar>
-29.2515

> <Gold.PLP.part.repulsive>
0.1464

> <Gold.PLP.ligand.clash>
0.0000

> <Gold.PLP.ligand.torsion>
1.1946

> <Gold.PLP.Chemscore.Hbond>
3.0000

> <Gold.PLP.Chemscore.CHOScore>
0.0000

> <Gold.PLP.Chemscore.Metal>
0.0000

> <Gold.Chemscore.Hbonds>
donor molecule, donor type, donor heavy atom, donor atom, acceptor molecule, acceptor atom, score
      L1  H    14    54       P1  7948  2.00
      P1  H  6896  6909       L1     9  1.00

> <Gold.PLP.Chemscore.Internal.Correction>
0.1438

> <Gold.Rescore>
     Score         DG    S(hbond)    S(metal)    S(lipo)     H(rot)  DE(clash)    DE(int)     intcor
     15.91     -16.94       1.97        0.00      80.67       1.78       0.02       1.00       ----

> <Gold.Chemscore.Fitness>
15.9139

> <Gold.Chemscore.DG>
-16.9412

> <Gold.Chemscore.ZeroCoef>
-5.4800

> <Gold.Chemscore.Hbond>
1.9676

> <Gold.Chemscore.Metal>
0.0000

> <Gold.Chemscore.Lipo>
80.6702

> <Gold.Chemscore.Internal_Hbond>
0.0000

> <Gold.Chemscore.DEClash>
0.0245

> <Gold.Chemscore.DEInternal>
1.0029

> <Gold.Chemscore.Rot>
1.7769

> <Gold.Chemscore.Internal.Correction>
   9.000000E+99

> <Gold.Chemscore.Hbonds>
donor molecule, donor type, donor heavy atom, donor atom, acceptor molecule, acceptor atom, score
      L1  H    14    54       P1  7948  0.50
      P1  H  6896  6909       L1     9  0.78

> <Gold.Chemscore.Hbond.Weighted>
-6.5718

> <Gold.Chemscore.Metal.Weighted>
-0.0000

> <Gold.Chemscore.Lipo.Weighted>
-9.4384

> <Gold.Chemscore.Internal_Hbond.Weighted>
0.0000

> <Gold.Chemscore.DEClash.Weighted>
0.0245

> <Gold.Chemscore.DEInternal.Weighted>
1.0029

> <Gold.Chemscore.Rot.Weighted>
4.5490

> <Gold.Chemscore.Internal.Correction.Weighted>
   9.000000E+99

> <Gold.Protein.RotatedTorsions>
[ 6907 6896 6895 6894 ] final   48.87 input  -60.11 | X-H torsion
[ 7974 7965 7964 7962 ] final   97.27 input  175.53 | X-H torsion
[ 8008 7997 7996 7995 ] final  148.48 input   59.86 | X-H torsion
[ 10167 10162 10161 10158 ] final  100.38 input  -65.29 | X-H torsion
[ 10718 10713 10712 10709 ] final  -18.24 input   66.30 | X-H torsion
[ 10763 10752 10751 10750 ] final  -66.58 input  -60.55 | X-H torsion
[ 11005 11000 10999 10996 ] final   71.11 input  -57.11 | X-H torsion

> <Gold.Protein.ActiveResidues>
 VAL166  LYS551  ARG553  GLY616  TRP617  ASP618  TYR619  PRO620  LYS621  CYS622 
 ASP623  PHE694  ASN695  SER759  ASP760  ASP761  ALA762  ILE779  LEU786  VAL792 
 PHE793  MET794  SER795  GLU796  ALA797  LYS798  CYS799  TRP800  GLU811  SER814 

> <Gold.Protein.RotatedAtoms>
  152.2844  134.7792  160.0390 H   0  0  0  0  0  0  0  0  0  0  0  0  # atno 6907 bound_to 6896
  151.8360  133.3411  159.3636 H   0  0  0  0  0  0  0  0  0  0  0  0  # atno 6908 bound_to 6896
  150.7203  134.5365  159.5770 H   0  0  0  0  0  0  0  0  0  0  0  0  # atno 6909 bound_to 6896
  145.4278  139.2314  143.3161 H   0  0  0  0  0  0  0  0  0  0  0  0  # atno 7974 bound_to 7965
  156.2789  140.2127  156.5705 H   0  0  0  0  0  0  0  0  0  0  0  0  # atno 8008 bound_to 7997
  154.7139  140.0509  157.0599 H   0  0  0  0  0  0  0  0  0  0  0  0  # atno 8009 bound_to 7997
  155.0568  140.3162  155.4676 H   0  0  0  0  0  0  0  0  0  0  0  0  # atno 8010 bound_to 7997
  139.7532  144.6977  151.0401 H   0  0  0  0  0  0  0  0  0  0  0  0  # atno 10167 bound_to 10162
  156.5623  130.4728  149.6401 H   0  0  0  0  0  0  0  0  0  0  0  0  # atno 10718 bound_to 10713
  154.3619  135.6114  153.5695 H   0  0  0  0  0  0  0  0  0  0  0  0  # atno 10763 bound_to 10752
  152.9793  135.5817  154.4623 H   0  0  0  0  0  0  0  0  0  0  0  0  # atno 10764 bound_to 10752
  154.4362  135.2849  155.1856 H   0  0  0  0  0  0  0  0  0  0  0  0  # atno 10765 bound_to 10752
  139.9561  134.7141  156.0750 H   0  0  0  0  0  0  0  0  0  0  0  0  # atno 11005 bound_to 11000
  146.2623  140.5010  142.8848 LP  0  0  0  0  0  0  0  0  0  0  0  0  # atno 17320 bound_to 7965
  144.8203  140.6538  143.6357 LP  0  0  0  0  0  0  0  0  0  0  0  0  # atno 17321 bound_to 7965
  140.7800  143.4784  151.0051 LP  0  0  0  0  0  0  0  0  0  0  0  0  # atno 17342 bound_to 10162
  139.8471  143.7487  152.3179 LP  0  0  0  0  0  0  0  0  0  0  0  0  # atno 17343 bound_to 10162
  156.2788  130.7059  151.1877 LP  0  0  0  0  0  0  0  0  0  0  0  0  # atno 17370 bound_to 10713
  157.7366  131.0561  150.5405 LP  0  0  0  0  0  0  0  0  0  0  0  0  # atno 17371 bound_to 10713
  141.1233  133.6606  156.3270 LP  0  0  0  0  0  0  0  0  0  0  0  0  # atno 17394 bound_to 11000
  140.5606  134.5938  157.5432 LP  0  0  0  0  0  0  0  0  0  0  0  0  # atno 17395 bound_to 11000

$$$$
