AV-unprocessed.smi:1965|AV-procd|sdf|7936|dock8
  -GOLD-   2272010103D 1   1.00000     0.00000
 Structure written by MMmdl.
 37 39  0  0  0  0  0  0  0  0  2 V2000
  146.0158  139.1324  153.4127 O   0  0  0  0  0  0  0  0  0  0  0  0
  146.8377  138.3245  152.9843 C   0  0  0  0  0  0  0  0  0  0  0  0
  148.1504  138.4429  153.2746 N   0  0  0  0  0  0  0  0  0  0  0  0
  148.8556  139.4052  154.0539 C   0  0  0  0  0  0  0  0  0  0  0  0
  149.9588  139.1556  154.7717 N   0  0  0  0  0  0  0  0  0  0  0  0
  150.4423  140.3001  155.4112 C   0  0  0  0  0  0  0  0  0  0  0  0
  149.6960  141.4243  155.1613 C   0  0  0  0  0  0  0  0  0  0  0  0
  148.3501  141.0883  154.1056 S   0  0  0  0  0  0  0  0  0  0  0  0
  146.4965  137.2827  152.2076 N   0  0  0  0  0  0  0  0  0  0  0  0
  145.1517  136.9827  151.7215 C   0  0  2  0  0  0  0  0  0  0  0  0
  144.0703  137.1600  152.8051 C   0  0  0  0  0  0  0  0  0  0  0  0
  143.1376  135.9580  152.6248 C   0  0  0  0  0  0  0  0  0  0  0  0
  144.0480  134.9017  152.1685 N   0  3  1  0  0  0  0  0  0  0  0  0
  143.4693  133.6452  151.6513 C   0  0  0  0  0  0  0  0  0  0  0  0
  144.6172  132.6406  151.4133 C   0  0  0  0  0  0  0  0  0  0  0  0
  145.7427  133.2341  150.5358 C   0  0  0  0  0  0  0  0  0  0  0  0
  146.2132  134.6084  151.0589 C   0  0  0  0  0  0  0  0  0  0  0  0
  144.9891  135.5273  151.2240 C   0  0  2  0  0  0  0  0  0  0  0  0
  148.7228  137.6805  152.9414 H   0  0  0  0  0  0  0  0  0  0  0  0
  151.3272  140.2246  156.0258 H   0  0  0  0  0  0  0  0  0  0  0  0
  149.8577  142.4264  155.5304 H   0  0  0  0  0  0  0  0  0  0  0  0
  147.2383  136.6665  151.9061 H   0  0  0  0  0  0  0  0  0  0  0  0
  144.9107  137.6555  150.8962 H   0  0  0  0  0  0  0  0  0  0  0  0
  144.5187  137.1202  153.7992 H   0  0  0  0  0  0  0  0  0  0  0  0
  143.5436  138.1110  152.7214 H   0  0  0  0  0  0  0  0  0  0  0  0
  142.6204  135.6828  153.5445 H   0  0  0  0  0  0  0  0  0  0  0  0
  142.3928  136.1618  151.8541 H   0  0  0  0  0  0  0  0  0  0  0  0
  142.7598  133.2413  152.3743 H   0  0  0  0  0  0  0  0  0  0  0  0
  142.9200  133.8357  150.7282 H   0  0  0  0  0  0  0  0  0  0  0  0
  145.0376  132.3458  152.3759 H   0  0  0  0  0  0  0  0  0  0  0  0
  144.2285  131.7291  150.9578 H   0  0  0  0  0  0  0  0  0  0  0  0
  146.5846  132.5428  150.4890 H   0  0  0  0  0  0  0  0  0  0  0  0
  145.3791  133.3443  149.5135 H   0  0  0  0  0  0  0  0  0  0  0  0
  146.7308  134.4883  152.0117 H   0  0  0  0  0  0  0  0  0  0  0  0
  146.9284  135.0441  150.3607 H   0  0  0  0  0  0  0  0  0  0  0  0
  144.4868  135.5907  150.2560 H   0  0  0  0  0  0  0  0  0  0  0  0
  144.5946  134.6516  152.9803 H   0  0  0  0  0  0  0  0  0  0  0  0
  1  2  2  0  0  0  0
  2  3  1  0  0  0  0
  2  9  1  0  0  0  0
  3  4  1  0  0  0  0
  3 19  1  0  0  0  0
  4  8  1  0  0  0  0
  4  5  2  0  0  0  0
  5  6  1  0  0  0  0
  6  7  2  0  0  0  0
  6 20  1  0  0  0  0
  7  8  1  0  0  0  0
  7 21  1  0  0  0  0
  9 10  1  0  0  0  0
  9 22  1  0  0  0  0
 10 18  1  0  0  0  0
 10 11  1  0  0  0  0
 10 23  1  0  0  0  0
 11 12  1  0  0  0  0
 11 24  1  0  0  0  0
 11 25  1  0  0  0  0
 12 13  1  0  0  0  0
 12 26  1  0  0  0  0
 12 27  1  0  0  0  0
 13 18  1  0  0  0  0
 13 14  1  0  0  0  0
 13 37  1  0  0  0  0
 14 15  1  0  0  0  0
 14 28  1  0  0  0  0
 14 29  1  0  0  0  0
 15 16  1  0  0  0  0
 15 30  1  0  0  0  0
 15 31  1  0  0  0  0
 16 17  1  0  0  0  0
 16 32  1  0  0  0  0
 16 33  1  0  0  0  0
 17 18  1  0  0  0  0
 17 34  1  0  0  0  0
 17 35  1  0  0  0  0
 18 36  1  0  0  0  0
M  CHG  1  13   1
M  END
> <s_m_source_file>
AV-unprocessed.smi

> <i_m_source_file_index>
1965

> <i_lp_mmshare_version>
43012

> <i_f3d_flags>
0

> <s_epik_input>
czFbY0hdW2NIXW5jMVtOSF1DKD1PKVtOSF1bQ0BIXShbQ0gyXVtDSDJdMilbQ0BASF0oTjIzKVtDSDJdW0NIMl1bQ0gyXVtDSDJdMw==

> <s_epik_cmdline>
J2VwaWtfcHl0aG9uJywgJy1waCcsICc3LjAnLCAnLXRuJywgJzgnLCAnLW1hJywgJzIwMCcsICctbWV0YWxfYmluZGluZycsICctaW1hZScsICc8aW5maWxlLm1hZT4nLCAnLW9tYWUnLCAnPG91dGZpbGUubWFlPic=

> <r_lp_tautomer_probability>
1

> <r_epik_Ionization_Penalty>
0.00125962

> <r_epik_Ionization_Penalty_Charging>
0.00107044

> <r_epik_Ionization_Penalty_Neutral>
0.000189176

> <r_epik_State_Penalty>
-0

> <r_epik_Charging_Adjusted_Penalty>
0.00107044

> <i_epik_Tot_Q>
1

> <i_epik_Tot_abs_Q>
1

> <r_epik_Metal_State_Penalty>
0.0179285

> <b_epik_Metal_Only>
0

> <s_lp_Force_Field>
OPLS_2005

> <r_lp_Energy>
42.3256

> <b_lp_Chiralities_Consistent>
1

> <s_lp_Variant>
AV-unprocessed.smi:1965-5

> <Gold.Version>
5.8.1

> <Gold.Id.Protein>
6NUR|6NUR_protein|mol2

> <Gold.PLP.Fitness>
37.9519

> <Gold.PLP.PLP>
-29.8609

> <Gold.PLP.part.hbond>
-3.0000

> <Gold.PLP.part.metal>
0.0000

> <Gold.PLP.part.buried>
-0.7594

> <Gold.PLP.part.nonpolar>
-27.4726

> <Gold.PLP.part.repulsive>
1.8824

> <Gold.PLP.ligand.clash>
0.0000

> <Gold.PLP.ligand.torsion>
0.4549

> <Gold.PLP.Chemscore.Hbond>
2.0000

> <Gold.PLP.Chemscore.CHOScore>
1.0000

> <Gold.PLP.Chemscore.Metal>
0.0000

> <Gold.Chemscore.Hbonds>
donor molecule, donor type, donor heavy atom, donor atom, acceptor molecule, acceptor atom, score
      L1  H     3    19       P1  7948  1.00
      L1  H     9    22       P1  7948  1.00
      L1  C     7    21       P1  8028  1.00

> <Gold.PLP.Chemscore.Internal.Correction>
0.0009

> <Gold.Rescore>
     Score         DG    S(hbond)    S(metal)    S(lipo)     H(rot)  DE(clash)    DE(int)     intcor
     14.71     -17.18       1.88        0.00      68.17       1.00       0.55       1.92       ----

> <Gold.Chemscore.Fitness>
14.7122

> <Gold.Chemscore.DG>
-17.1774

> <Gold.Chemscore.ZeroCoef>
-5.4800

> <Gold.Chemscore.Hbond>
1.8808

> <Gold.Chemscore.Metal>
0.0000

> <Gold.Chemscore.Lipo>
68.1668

> <Gold.Chemscore.Internal_Hbond>
0.0000

> <Gold.Chemscore.DEClash>
0.5502

> <Gold.Chemscore.DEInternal>
1.9151

> <Gold.Chemscore.Rot>
1.0000

> <Gold.Chemscore.Internal.Correction>
   9.000000E+99

> <Gold.Chemscore.Hbonds>
donor molecule, donor type, donor heavy atom, donor atom, acceptor molecule, acceptor atom, score
      L1  H     3    19       P1  7948  0.95
      L1  H     9    22       P1  7948  0.95

> <Gold.Chemscore.Hbond.Weighted>
-6.2819

> <Gold.Chemscore.Metal.Weighted>
-0.0000

> <Gold.Chemscore.Lipo.Weighted>
-7.9755

> <Gold.Chemscore.Internal_Hbond.Weighted>
0.0000

> <Gold.Chemscore.DEClash.Weighted>
0.5502

> <Gold.Chemscore.DEInternal.Weighted>
1.9151

> <Gold.Chemscore.Rot.Weighted>
2.5600

> <Gold.Chemscore.Internal.Correction.Weighted>
   9.000000E+99

> <Gold.Protein.RotatedTorsions>
[ 6907 6896 6895 6894 ] final  -54.23 input  -60.11 | X-H torsion
[ 7974 7965 7964 7962 ] final  -96.36 input  175.53 | X-H torsion
[ 8008 7997 7996 7995 ] final -176.11 input   59.86 | X-H torsion
[ 10167 10162 10161 10158 ] final  -50.90 input  -65.29 | X-H torsion
[ 10718 10713 10712 10709 ] final   71.39 input   66.30 | X-H torsion
[ 10763 10752 10751 10750 ] final  -48.88 input  -60.55 | X-H torsion
[ 11005 11000 10999 10996 ] final  140.62 input  -57.11 | X-H torsion

> <Gold.Protein.ActiveResidues>
 VAL166  LYS551  ARG553  GLY616  TRP617  ASP618  TYR619  PRO620  LYS621  CYS622 
 ASP623  PHE694  ASN695  SER759  ASP760  ASP761  ALA762  ILE779  LEU786  VAL792 
 PHE793  MET794  SER795  GLU796  ALA797  LYS798  CYS799  TRP800  GLU811  SER814 

> <Gold.Protein.RotatedAtoms>
  150.8356  134.7628  159.6889 H   0  0  0  0  0  0  0  0  0  0  0  0  # atno 6907 bound_to 6896
  152.4453  134.5504  159.9875 H   0  0  0  0  0  0  0  0  0  0  0  0  # atno 6908 bound_to 6896
  151.5655  133.3359  159.3015 H   0  0  0  0  0  0  0  0  0  0  0  0  # atno 6909 bound_to 6896
  145.3479  140.9471  143.2571 H   0  0  0  0  0  0  0  0  0  0  0  0  # atno 7974 bound_to 7965
  155.9909  140.1201  157.0639 H   0  0  0  0  0  0  0  0  0  0  0  0  # atno 8008 bound_to 7997
  154.4211  140.1126  156.5632 H   0  0  0  0  0  0  0  0  0  0  0  0  # atno 8009 bound_to 7997
  155.6344  140.3473  155.4696 H   0  0  0  0  0  0  0  0  0  0  0  0  # atno 8010 bound_to 7997
  140.6615  143.2640  151.4427 H   0  0  0  0  0  0  0  0  0  0  0  0  # atno 10167 bound_to 10162
  157.6449  130.9526  150.0783 H   0  0  0  0  0  0  0  0  0  0  0  0  # atno 10718 bound_to 10713
  154.0850  135.6585  153.4843 H   0  0  0  0  0  0  0  0  0  0  0  0  # atno 10763 bound_to 10752
  153.0342  135.5189  154.7437 H   0  0  0  0  0  0  0  0  0  0  0  0  # atno 10764 bound_to 10752
  154.6543  135.3006  154.9915 H   0  0  0  0  0  0  0  0  0  0  0  0  # atno 10765 bound_to 10752
  140.0341  134.9337  157.0719 H   0  0  0  0  0  0  0  0  0  0  0  0  # atno 11005 bound_to 11000
  144.8740  139.4998  143.6754 LP  0  0  0  0  0  0  0  0  0  0  0  0  # atno 17320 bound_to 7965
  146.2980  139.7338  142.9112 LP  0  0  0  0  0  0  0  0  0  0  0  0  # atno 17321 bound_to 7965
  139.5850  144.1625  152.2017 LP  0  0  0  0  0  0  0  0  0  0  0  0  # atno 17342 bound_to 10162
  140.0962  144.5579  150.7020 LP  0  0  0  0  0  0  0  0  0  0  0  0  # atno 17343 bound_to 10162
  156.1767  130.3648  149.9091 LP  0  0  0  0  0  0  0  0  0  0  0  0  # atno 17370 bound_to 10713
  156.7054  130.8949  151.3604 LP  0  0  0  0  0  0  0  0  0  0  0  0  # atno 17371 bound_to 10713
  140.4177  134.1914  155.7164 LP  0  0  0  0  0  0  0  0  0  0  0  0  # atno 17394 bound_to 11000
  141.1847  133.8337  157.1129 LP  0  0  0  0  0  0  0  0  0  0  0  0  # atno 17395 bound_to 11000

$$$$
