AV-unprocessed.smi:1033|AV-procd|sdf|4494|dock8
  -GOLD-   22720 2483D 1   1.00000     0.00000
 Structure written by MMmdl.
 56 58  0  0  0  0  0  0  0  0  2 V2000
  154.6293  141.0866  161.6016 C   0  0  0  0  0  0  0  0  0  0  0  0
  153.7641  141.1748  160.3566 C   0  0  0  0  0  0  0  0  0  0  0  0
  153.3466  142.4444  159.8990 C   0  0  0  0  0  0  0  0  0  0  0  0
  152.5566  142.5711  158.7358 C   0  0  0  0  0  0  0  0  0  0  0  0
  152.0709  143.6999  158.1001 N   0  0  0  0  0  0  0  0  0  0  0  0
  151.4508  143.1703  157.0500 C   0  0  0  0  0  0  0  0  0  0  0  0
  151.4850  141.8299  156.9245 N   0  0  0  0  0  0  0  0  0  0  0  0
  150.9178  141.0461  155.8415 C   0  0  0  0  0  0  0  0  0  0  0  0
  149.5810  141.6274  155.3338 C   0  0  2  0  0  0  0  0  0  0  0  0
  148.7734  141.8771  156.4652 O   0  0  0  0  0  0  0  0  0  0  0  0
  148.8091  140.6764  154.3859 C   0  0  0  0  0  0  0  0  0  0  0  0
  147.4358  141.0802  154.0587 N   0  0  0  0  0  0  0  0  0  0  0  0
  147.1921  141.3137  152.6333 C   0  0  0  0  0  0  0  0  0  0  0  0
  147.2112  140.0279  151.7814 C   0  0  0  0  0  0  0  0  0  0  0  0
  146.2627  139.0078  152.3024 N   0  3  0  0  0  0  0  0  0  0  0  0
  146.3105  137.7241  151.5534 C   0  0  0  0  0  0  0  0  0  0  0  0
  145.1889  136.7348  151.9309 C   0  0  2  0  0  0  0  0  0  0  0  0
  145.0387  135.5810  150.9286 C   0  0  0  0  0  0  0  0  0  0  0  0
  143.9702  137.4468  151.9660 O   0  0  0  0  0  0  0  0  0  0  0  0
  146.4612  138.7880  153.7595 C   0  0  0  0  0  0  0  0  0  0  0  0
  146.4391  140.1222  154.5333 C   0  0  0  0  0  0  0  0  0  0  0  0
  152.1909  141.3830  158.0371 C   0  0  0  0  0  0  0  0  0  0  0  0
  152.5824  140.1123  158.4956 C   0  0  0  0  0  0  0  0  0  0  0  0
  153.3775  140.0045  159.6556 C   0  0  0  0  0  0  0  0  0  0  0  0
  153.8131  138.6297  160.1299 C   0  0  0  0  0  0  0  0  0  0  0  0
  154.8509  142.0756  162.0040 H   0  0  0  0  0  0  0  0  0  0  0  0
  155.5776  140.5985  161.3750 H   0  0  0  0  0  0  0  0  0  0  0  0
  154.1217  140.5151  162.3791 H   0  0  0  0  0  0  0  0  0  0  0  0
  153.6389  143.3364  160.4336 H   0  0  0  0  0  0  0  0  0  0  0  0
  150.9584  143.7939  156.3179 H   0  0  0  0  0  0  0  0  0  0  0  0
  151.6446  140.9846  155.0303 H   0  0  0  0  0  0  0  0  0  0  0  0
  150.7726  140.0282  156.2068 H   0  0  0  0  0  0  0  0  0  0  0  0
  149.7716  142.5907  154.8613 H   0  0  0  0  0  0  0  0  0  0  0  0
  149.0505  142.6909  156.8584 H   0  0  0  0  0  0  0  0  0  0  0  0
  149.3738  140.5440  153.4664 H   0  0  0  0  0  0  0  0  0  0  0  0
  148.7925  139.6807  154.8322 H   0  0  0  0  0  0  0  0  0  0  0  0
  146.2187  141.7926  152.5179 H   0  0  0  0  0  0  0  0  0  0  0  0
  147.9133  142.0248  152.2323 H   0  0  0  0  0  0  0  0  0  0  0  0
  146.9566  140.2928  150.7561 H   0  0  0  0  0  0  0  0  0  0  0  0
  148.2069  139.5990  151.7536 H   0  0  0  0  0  0  0  0  0  0  0  0
  146.2727  137.9383  150.4835 H   0  0  0  0  0  0  0  0  0  0  0  0
  147.2745  137.2460  151.7361 H   0  0  0  0  0  0  0  0  0  0  0  0
  145.3438  136.3347  152.9323 H   0  0  0  0  0  0  0  0  0  0  0  0
  145.9399  134.9686  150.8923 H   0  0  0  0  0  0  0  0  0  0  0  0
  144.8459  135.9508  149.9209 H   0  0  0  0  0  0  0  0  0  0  0  0
  144.2116  134.9267  151.2057 H   0  0  0  0  0  0  0  0  0  0  0  0
  143.9352  138.0286  151.2216 H   0  0  0  0  0  0  0  0  0  0  0  0
  145.6686  138.1409  154.1368 H   0  0  0  0  0  0  0  0  0  0  0  0
  147.4000  138.2594  153.9306 H   0  0  0  0  0  0  0  0  0  0  0  0
  146.5850  139.9339  155.5977 H   0  0  0  0  0  0  0  0  0  0  0  0
  145.4469  140.5670  154.4455 H   0  0  0  0  0  0  0  0  0  0  0  0
  152.2913  139.2292  157.9463 H   0  0  0  0  0  0  0  0  0  0  0  0
  153.4176  137.8430  159.4868 H   0  0  0  0  0  0  0  0  0  0  0  0
  153.4549  138.4440  161.1428 H   0  0  0  0  0  0  0  0  0  0  0  0
  154.9007  138.5503  160.1260 H   0  0  0  0  0  0  0  0  0  0  0  0
  145.3326  139.3859  152.1919 H   0  0  0  0  0  0  0  0  0  0  0  0
  1  2  1  0  0  0  0
  1 26  1  0  0  0  0
  1 27  1  0  0  0  0
  1 28  1  0  0  0  0
  2 24  1  0  0  0  0
  2  3  2  0  0  0  0
  3  4  1  0  0  0  0
  3 29  1  0  0  0  0
  4 22  2  0  0  0  0
  4  5  1  0  0  0  0
  5  6  2  0  0  0  0
  6  7  1  0  0  0  0
  6 30  1  0  0  0  0
  7  8  1  0  0  0  0
  7 22  1  0  0  0  0
  8  9  1  0  0  0  0
  8 31  1  0  0  0  0
  8 32  1  0  0  0  0
  9 10  1  0  0  0  0
  9 11  1  0  0  0  0
  9 33  1  0  0  0  0
 10 34  1  0  0  0  0
 11 12  1  0  0  0  0
 11 35  1  0  0  0  0
 11 36  1  0  0  0  0
 12 21  1  0  0  0  0
 12 13  1  0  0  0  0
 13 14  1  0  0  0  0
 13 37  1  0  0  0  0
 13 38  1  0  0  0  0
 14 15  1  0  0  0  0
 14 39  1  0  0  0  0
 14 40  1  0  0  0  0
 15 16  1  0  0  0  0
 15 20  1  0  0  0  0
 15 56  1  0  0  0  0
 16 17  1  0  0  0  0
 16 41  1  0  0  0  0
 16 42  1  0  0  0  0
 17 18  1  0  0  0  0
 17 19  1  0  0  0  0
 17 43  1  0  0  0  0
 18 44  1  0  0  0  0
 18 45  1  0  0  0  0
 18 46  1  0  0  0  0
 19 47  1  0  0  0  0
 20 21  1  0  0  0  0
 20 48  1  0  0  0  0
 20 49  1  0  0  0  0
 21 50  1  0  0  0  0
 21 51  1  0  0  0  0
 22 23  1  0  0  0  0
 23 24  2  0  0  0  0
 23 52  1  0  0  0  0
 24 25  1  0  0  0  0
 25 53  1  0  0  0  0
 25 54  1  0  0  0  0
 25 55  1  0  0  0  0
M  CHG  1  15   1
M  END
> <s_m_source_file>
AV-unprocessed.smi

> <i_m_source_file_index>
1033

> <i_lp_mmshare_version>
43012

> <i_f3d_flags>
0

> <s_epik_input>
W0NIM11jKFtjSF0xKWMoW0NIM10pW2NIXWMoYzEyKW4oW2NIXW4yKVtDSDJdW0NASF0oW09IXSlbQ0gyXU4zW0NIMl1bQ0gyXU4oW0NIMl1bQ0gyXTMpW0NIMl1bQ0BIXShbQ0gzXSlbT0hd

> <s_epik_cmdline>
J2VwaWtfcHl0aG9uJywgJy1waCcsICc3LjAnLCAnLXRuJywgJzgnLCAnLW1hJywgJzIwMCcsICctbWV0YWxfYmluZGluZycsICctaW1hZScsICc8aW5maWxlLm1hZT4nLCAnLW9tYWUnLCAnPG91dGZpbGUubWFlPic=

> <r_epik_Ionization_Penalty>
0.129152

> <r_epik_Ionization_Penalty_Charging>
0.00083231

> <r_epik_Ionization_Penalty_Neutral>
0.128319

> <r_epik_State_Penalty>
0.556973

> <r_epik_Charging_Adjusted_Penalty>
0.557805

> <i_epik_Tot_Q>
1

> <i_epik_Tot_abs_Q>
1

> <r_epik_Metal_State_Penalty>
0.490047

> <b_epik_Metal_Only>
0

> <s_lp_Force_Field>
OPLS_2005

> <r_lp_Energy>
33.6507

> <b_lp_Chiralities_Consistent>
1

> <s_lp_Variant>
AV-unprocessed.smi:1033-5

> <Gold.Version>
5.8.1

> <Gold.Id.Protein>
6NUR|6NUR_protein|mol2

> <Gold.PLP.Fitness>
55.1941

> <Gold.PLP.PLP>
-45.7422

> <Gold.PLP.part.hbond>
-3.4618

> <Gold.PLP.part.metal>
0.0000

> <Gold.PLP.part.buried>
0.4810

> <Gold.PLP.part.nonpolar>
-42.7064

> <Gold.PLP.part.repulsive>
0.2234

> <Gold.PLP.ligand.clash>
0.0000

> <Gold.PLP.ligand.torsion>
1.3144

> <Gold.PLP.Chemscore.Hbond>
3.0000

> <Gold.PLP.Chemscore.CHOScore>
1.0000

> <Gold.PLP.Chemscore.Metal>
0.0000

> <Gold.Chemscore.Hbonds>
donor molecule, donor type, donor heavy atom, donor atom, acceptor molecule, acceptor atom, score
      L1  H    10    34       P1  8028  0.07
      L1  H    15    56       P1 10175  2.00
      L1  H    19    47       P1 10171  0.94
      L1  C     6    30       P1  8028  1.00

> <Gold.PLP.Chemscore.Internal.Correction>
0.0807

> <Gold.Rescore>
     Score         DG    S(hbond)    S(metal)    S(lipo)     H(rot)  DE(clash)    DE(int)     intcor
     16.44     -19.09       1.98        0.00     127.03       3.07       1.44       1.21       ----

> <Gold.Chemscore.Fitness>
16.4418

> <Gold.Chemscore.DG>
-19.0932

> <Gold.Chemscore.ZeroCoef>
-5.4800

> <Gold.Chemscore.Hbond>
1.9751

> <Gold.Chemscore.Metal>
0.0000

> <Gold.Chemscore.Lipo>
127.0321

> <Gold.Chemscore.Internal_Hbond>
0.0000

> <Gold.Chemscore.DEClash>
1.4435

> <Gold.Chemscore.DEInternal>
1.2080

> <Gold.Chemscore.Rot>
3.0650

> <Gold.Chemscore.Internal.Correction>
   9.000000E+99

> <Gold.Chemscore.Hbonds>
donor molecule, donor type, donor heavy atom, donor atom, acceptor molecule, acceptor atom, score
      L1  H    10    34       P1  8028  0.08
      L1  H    15    56       P1 10175  0.96
      L1  H    19    47       P1 10171  0.90

> <Gold.Chemscore.Hbond.Weighted>
-6.5970

> <Gold.Chemscore.Metal.Weighted>
-0.0000

> <Gold.Chemscore.Lipo.Weighted>
-14.8628

> <Gold.Chemscore.Internal_Hbond.Weighted>
0.0000

> <Gold.Chemscore.DEClash.Weighted>
1.4435

> <Gold.Chemscore.DEInternal.Weighted>
1.2080

> <Gold.Chemscore.Rot.Weighted>
7.8465

> <Gold.Chemscore.Internal.Correction.Weighted>
   9.000000E+99

> <Gold.Protein.RotatedTorsions>
[ 6907 6896 6895 6894 ] final  125.81 input  -60.11 | X-H torsion
[ 7974 7965 7964 7962 ] final  -62.79 input  175.53 | X-H torsion
[ 8008 7997 7996 7995 ] final  172.49 input   59.86 | X-H torsion
[ 10167 10162 10161 10158 ] final   71.67 input  -65.29 | X-H torsion
[ 10718 10713 10712 10709 ] final   13.56 input   66.30 | X-H torsion
[ 10763 10752 10751 10750 ] final   75.34 input  -60.55 | X-H torsion
[ 11005 11000 10999 10996 ] final -155.28 input  -57.11 | X-H torsion

> <Gold.Protein.ActiveResidues>
 VAL166  LYS551  ARG553  GLY616  TRP617  ASP618  TYR619  PRO620  LYS621  CYS622 
 ASP623  PHE694  ASN695  SER759  ASP760  ASP761  ALA762  ILE779  LEU786  VAL792 
 PHE793  MET794  SER795  GLU796  ALA797  LYS798  CYS799  TRP800  GLU811  SER814 

> <Gold.Protein.RotatedAtoms>
  152.3959  133.6746  159.6275 H   0  0  0  0  0  0  0  0  0  0  0  0  # atno 6907 bound_to 6896
  150.7858  133.8874  159.3312 H   0  0  0  0  0  0  0  0  0  0  0  0  # atno 6908 bound_to 6896
  151.6651  135.0985  160.0238 H   0  0  0  0  0  0  0  0  0  0  0  0  # atno 6909 bound_to 6896
  145.7870  140.8730  143.0300 H   0  0  0  0  0  0  0  0  0  0  0  0  # atno 7974 bound_to 7965
  156.1169  140.1484  156.9260 H   0  0  0  0  0  0  0  0  0  0  0  0  # atno 8008 bound_to 7997
  154.4807  140.0880  156.7413 H   0  0  0  0  0  0  0  0  0  0  0  0  # atno 8009 bound_to 7997
  155.4497  140.3434  155.4301 H   0  0  0  0  0  0  0  0  0  0  0  0  # atno 8010 bound_to 7997
  140.0435  144.5370  150.7416 H   0  0  0  0  0  0  0  0  0  0  0  0  # atno 10167 bound_to 10162
  157.0264  130.6175  149.5728 H   0  0  0  0  0  0  0  0  0  0  0  0  # atno 10718 bound_to 10713
  153.0648  135.4992  154.8174 H   0  0  0  0  0  0  0  0  0  0  0  0  # atno 10763 bound_to 10752
  154.6937  135.2989  154.9445 H   0  0  0  0  0  0  0  0  0  0  0  0  # atno 10764 bound_to 10752
  154.0192  135.6744  153.4824 H   0  0  0  0  0  0  0  0  0  0  0  0  # atno 10765 bound_to 10752
  140.6882  134.4071  157.5221 H   0  0  0  0  0  0  0  0  0  0  0  0  # atno 11005 bound_to 11000
  144.6787  140.0070  143.7484 LP  0  0  0  0  0  0  0  0  0  0  0  0  # atno 17320 bound_to 7965
  146.0015  139.3095  143.0924 LP  0  0  0  0  0  0  0  0  0  0  0  0  # atno 17321 bound_to 7965
  140.7249  143.2626  151.4154 LP  0  0  0  0  0  0  0  0  0  0  0  0  # atno 17342 bound_to 10162
  139.5998  144.1319  152.2185 LP  0  0  0  0  0  0  0  0  0  0  0  0  # atno 17343 bound_to 10162
  156.0084  130.5174  150.7908 LP  0  0  0  0  0  0  0  0  0  0  0  0  # atno 17370 bound_to 10713
  157.5211  131.0931  151.0078 LP  0  0  0  0  0  0  0  0  0  0  0  0  # atno 17371 bound_to 10713
  139.8931  134.8738  156.2238 LP  0  0  0  0  0  0  0  0  0  0  0  0  # atno 17394 bound_to 11000
  141.0263  133.7013  156.1353 LP  0  0  0  0  0  0  0  0  0  0  0  0  # atno 17395 bound_to 11000

$$$$
