AV-unprocessed.smi:3274|AV-procd|sdf|12529|dock2
  -GOLD-   2272018443D 1   1.00000     0.00000
 Structure written by MMmdl.
 43 44  0  0  0  0  0  0  0  0  2 V2000
  153.1329  140.5541  159.6699 C   0  0  0  0  0  0  0  0  0  0  0  0
  152.6793  141.9713  159.9799 C   0  0  0  0  0  0  0  0  0  0  0  0
  152.7611  142.4626  161.2323 C   0  0  0  0  0  0  0  0  0  0  0  0
  152.3813  143.8770  161.6356 C   0  0  0  0  0  0  0  0  0  0  0  0
  151.7084  144.6689  160.5021 C   0  0  0  0  0  0  0  0  0  0  0  0
  152.3293  144.3328  159.1355 C   0  0  2  0  0  0  0  0  0  0  0  0
  151.8393  145.2809  158.0275 C   0  0  0  0  0  0  0  0  0  0  0  0
  152.1694  142.8211  158.8080 C   0  0  2  0  0  0  0  0  0  0  0  0
  150.7230  142.4365  158.4014 C   0  0  0  0  0  0  0  0  0  0  0  0
  150.4734  142.6110  156.9549 N   0  3  0  0  0  0  0  0  0  0  0  0
  149.5633  141.6186  156.3427 C   0  0  1  0  0  0  0  0  0  0  0  0
  148.2853  141.5125  157.1919 C   0  0  0  0  0  0  0  0  0  0  0  0
  149.2716  141.9842  154.8691 C   0  0  0  0  0  0  0  0  0  0  0  0
  148.4676  140.9873  154.1860 N   0  0  0  0  0  0  0  0  0  0  0  0
  147.3099  141.1047  153.5335 C   0  0  0  0  0  0  0  0  0  0  0  0
  146.8613  139.9634  153.0303 N   0  0  0  0  0  0  0  0  0  0  0  0
  147.8575  139.1241  153.4431 C   0  0  0  0  0  0  0  0  0  0  0  0
  148.8444  139.6882  154.1398 N   0  0  0  0  0  0  0  0  0  0  0  0
  153.7925  140.5438  158.8020 H   0  0  0  0  0  0  0  0  0  0  0  0
  152.2871  139.8970  159.4752 H   0  0  0  0  0  0  0  0  0  0  0  0
  153.6845  140.1280  160.5087 H   0  0  0  0  0  0  0  0  0  0  0  0
  153.1472  141.8397  162.0262 H   0  0  0  0  0  0  0  0  0  0  0  0
  151.7298  143.8439  162.5091 H   0  0  0  0  0  0  0  0  0  0  0  0
  153.2959  144.3844  161.9443 H   0  0  0  0  0  0  0  0  0  0  0  0
  150.6405  144.4504  160.4856 H   0  0  0  0  0  0  0  0  0  0  0  0
  151.7930  145.7364  160.7092 H   0  0  0  0  0  0  0  0  0  0  0  0
  153.4014  144.5185  159.2239 H   0  0  0  0  0  0  0  0  0  0  0  0
  150.7524  145.2928  157.9492 H   0  0  0  0  0  0  0  0  0  0  0  0
  152.2480  144.9991  157.0569 H   0  0  0  0  0  0  0  0  0  0  0  0
  152.1555  146.3046  158.2301 H   0  0  0  0  0  0  0  0  0  0  0  0
  152.8212  142.6193  157.9564 H   0  0  0  0  0  0  0  0  0  0  0  0
  150.5234  141.4054  158.6912 H   0  0  0  0  0  0  0  0  0  0  0  0
  149.9932  143.0565  158.9199 H   0  0  0  0  0  0  0  0  0  0  0  0
  150.0664  143.5271  156.8306 H   0  0  0  0  0  0  0  0  0  0  0  0
  150.0539  140.6443  156.3758 H   0  0  0  0  0  0  0  0  0  0  0  0
  147.6324  140.7143  156.8377 H   0  0  0  0  0  0  0  0  0  0  0  0
  147.7158  142.4422  157.1700 H   0  0  0  0  0  0  0  0  0  0  0  0
  148.5232  141.2923  158.2331 H   0  0  0  0  0  0  0  0  0  0  0  0
  148.7554  142.9445  154.8165 H   0  0  0  0  0  0  0  0  0  0  0  0
  150.1972  142.1017  154.3056 H   0  0  0  0  0  0  0  0  0  0  0  0
  146.7862  142.0429  153.4223 H   0  0  0  0  0  0  0  0  0  0  0  0
  147.8556  138.0666  153.2236 H   0  0  0  0  0  0  0  0  0  0  0  0
  151.3546  142.5852  156.4618 H   0  0  0  0  0  0  0  0  0  0  0  0
  1  2  1  0  0  0  0
  1 19  1  0  0  0  0
  1 20  1  0  0  0  0
  1 21  1  0  0  0  0
  2  8  1  0  0  0  0
  2  3  2  0  0  0  0
  3  4  1  0  0  0  0
  3 22  1  0  0  0  0
  4  5  1  0  0  0  0
  4 23  1  0  0  0  0
  4 24  1  0  0  0  0
  5  6  1  0  0  0  0
  5 25  1  0  0  0  0
  5 26  1  0  0  0  0
  6  7  1  0  0  0  0
  6  8  1  0  0  0  0
  6 27  1  0  0  0  0
  7 28  1  0  0  0  0
  7 29  1  0  0  0  0
  7 30  1  0  0  0  0
  8  9  1  0  0  0  0
  8 31  1  0  0  0  0
  9 10  1  0  0  0  0
  9 32  1  0  0  0  0
  9 33  1  0  0  0  0
 10 11  1  0  0  0  0
 10 34  1  0  0  0  0
 10 43  1  0  0  0  0
 11 12  1  0  0  0  0
 11 13  1  0  0  0  0
 11 35  1  0  0  0  0
 12 36  1  0  0  0  0
 12 37  1  0  0  0  0
 12 38  1  0  0  0  0
 13 14  1  0  0  0  0
 13 39  1  0  0  0  0
 13 40  1  0  0  0  0
 14 18  1  0  0  0  0
 14 15  1  0  0  0  0
 15 16  2  0  0  0  0
 15 41  1  0  0  0  0
 16 17  1  0  0  0  0
 17 18  2  0  0  0  0
 17 42  1  0  0  0  0
M  CHG  1  10   1
M  END
> <s_m_source_file>
AV-unprocessed.smi

> <i_m_source_file_index>
3274

> <i_lp_mmshare_version>
43012

> <i_f3d_flags>
0

> <s_epik_input>
W0NIM11DMT1bQ0hdW0NIMl1bQ0gyXVtDQEBIXShbQ0gzXSlbQ0BIXTFbQ0gyXVtOSF1bQ0BIXShbQ0gzXSlbQ0gyXW4yW2NIXW5bY0hdbjI=

> <s_epik_cmdline>
J2VwaWtfcHl0aG9uJywgJy1waCcsICc3LjAnLCAnLXRuJywgJzgnLCAnLW1hJywgJzIwMCcsICctbWV0YWxfYmluZGluZycsICctaW1hZScsICc8aW5maWxlLm1hZT4nLCAnLW9tYWUnLCAnPG91dGZpbGUubWFlPic=

> <r_lp_tautomer_probability>
1

> <r_epik_Ionization_Penalty>
0.0017527

> <r_epik_Ionization_Penalty_Charging>
0.00175191

> <r_epik_Ionization_Penalty_Neutral>
7.94565e-07

> <r_epik_State_Penalty>
0.00118605

> <r_epik_Charging_Adjusted_Penalty>
0.00293796

> <i_epik_Tot_Q>
1

> <i_epik_Tot_abs_Q>
1

> <r_epik_Metal_State_Penalty>
-0

> <b_epik_Metal_Only>
0

> <s_lp_Force_Field>
OPLS_2005

> <r_lp_Energy>
19.123

> <b_lp_Chiralities_Consistent>
1

> <s_lp_Variant>
AV-unprocessed.smi:3274-8

> <Gold.Version>
5.8.1

> <Gold.Id.Protein>
6NUR|6NUR_protein|mol2

> <Gold.PLP.Fitness>
49.8861

> <Gold.PLP.PLP>
-42.0364

> <Gold.PLP.part.hbond>
-1.0000

> <Gold.PLP.part.metal>
0.0000

> <Gold.PLP.part.buried>
-3.1446

> <Gold.PLP.part.nonpolar>
-38.1136

> <Gold.PLP.part.repulsive>
0.4128

> <Gold.PLP.ligand.clash>
0.0000

> <Gold.PLP.ligand.torsion>
0.6676

> <Gold.PLP.Chemscore.Hbond>
2.0000

> <Gold.PLP.Chemscore.CHOScore>
0.9961

> <Gold.PLP.Chemscore.Metal>
0.0000

> <Gold.Chemscore.Hbonds>
donor molecule, donor type, donor heavy atom, donor atom, acceptor molecule, acceptor atom, score
      L1  H    10    34       P1  8028  1.87
      L1  C    17    42       P1  7948  1.00

> <Gold.PLP.Chemscore.Internal.Correction>
0.1967

> <Gold.Rescore>
     Score         DG    S(hbond)    S(metal)    S(lipo)     H(rot)  DE(clash)    DE(int)     intcor
     14.07     -16.67       1.00        0.00     118.87       2.36       1.86       0.74       ----

> <Gold.Chemscore.Fitness>
14.0680

> <Gold.Chemscore.DG>
-16.6699

> <Gold.Chemscore.ZeroCoef>
-5.4800

> <Gold.Chemscore.Hbond>
0.9961

> <Gold.Chemscore.Metal>
0.0000

> <Gold.Chemscore.Lipo>
118.8740

> <Gold.Chemscore.Internal_Hbond>
0.0000

> <Gold.Chemscore.DEClash>
1.8624

> <Gold.Chemscore.DEInternal>
0.7394

> <Gold.Chemscore.Rot>
2.3615

> <Gold.Chemscore.Internal.Correction>
   9.000000E+99

> <Gold.Chemscore.Hbonds>
donor molecule, donor type, donor heavy atom, donor atom, acceptor molecule, acceptor atom, score
      L1  H    10    34       P1  8028  0.84

> <Gold.Chemscore.Hbond.Weighted>
-3.3270

> <Gold.Chemscore.Metal.Weighted>
-0.0000

> <Gold.Chemscore.Lipo.Weighted>
-13.9083

> <Gold.Chemscore.Internal_Hbond.Weighted>
0.0000

> <Gold.Chemscore.DEClash.Weighted>
1.8624

> <Gold.Chemscore.DEInternal.Weighted>
0.7394

> <Gold.Chemscore.Rot.Weighted>
6.0454

> <Gold.Chemscore.Internal.Correction.Weighted>
   9.000000E+99

> <Gold.Protein.RotatedTorsions>
[ 6907 6896 6895 6894 ] final    6.74 input  -60.11 | X-H torsion
[ 7974 7965 7964 7962 ] final    7.14 input  175.53 | X-H torsion
[ 8008 7997 7996 7995 ] final  -69.53 input   59.86 | X-H torsion
[ 10167 10162 10161 10158 ] final  -95.02 input  -65.29 | X-H torsion
[ 10718 10713 10712 10709 ] final -111.69 input   66.30 | X-H torsion
[ 10763 10752 10751 10750 ] final   81.12 input  -60.55 | X-H torsion
[ 11005 11000 10999 10996 ] final  -40.40 input  -57.11 | X-H torsion

> <Gold.Protein.ActiveResidues>
 VAL166  LYS551  ARG553  GLY616  TRP617  ASP618  TYR619  PRO620  LYS621  CYS622 
 ASP623  PHE694  ASN695  SER759  ASP760  ASP761  ALA762  ILE779  LEU786  VAL792 
 PHE793  MET794  SER795  GLU796  ALA797  LYS798  CYS799  TRP800  GLU811  SER814 

> <Gold.Protein.RotatedAtoms>
  151.6786  135.0965  160.0211 H   0  0  0  0  0  0  0  0  0  0  0  0  # atno 6907 bound_to 6896
  152.3849  133.6592  159.6199 H   0  0  0  0  0  0  0  0  0  0  0  0  # atno 6908 bound_to 6896
  150.7777  133.8969  159.3371 H   0  0  0  0  0  0  0  0  0  0  0  0  # atno 6909 bound_to 6896
  146.2429  140.0127  142.8405 H   0  0  0  0  0  0  0  0  0  0  0  0  # atno 7974 bound_to 7965
  154.4945  140.0852  156.7666 H   0  0  0  0  0  0  0  0  0  0  0  0  # atno 8008 bound_to 7997
  155.4150  140.3443  155.4248 H   0  0  0  0  0  0  0  0  0  0  0  0  # atno 8009 bound_to 7997
  156.1375  140.1519  156.8960 H   0  0  0  0  0  0  0  0  0  0  0  0  # atno 8010 bound_to 7997
  140.3084  143.3120  152.0174 H   0  0  0  0  0  0  0  0  0  0  0  0  # atno 10167 bound_to 10162
  156.0662  130.5881  150.8408 H   0  0  0  0  0  0  0  0  0  0  0  0  # atno 10718 bound_to 10713
  153.1090  135.4777  154.9001 H   0  0  0  0  0  0  0  0  0  0  0  0  # atno 10763 bound_to 10752
  154.7460  135.3094  154.8645 H   0  0  0  0  0  0  0  0  0  0  0  0  # atno 10764 bound_to 10752
  153.9240  135.6852  153.4800 H   0  0  0  0  0  0  0  0  0  0  0  0  # atno 10765 bound_to 10752
  141.0172  133.6880  156.2317 H   0  0  0  0  0  0  0  0  0  0  0  0  # atno 11005 bound_to 11000
  145.1313  140.9519  143.4543 LP  0  0  0  0  0  0  0  0  0  0  0  0  # atno 17320 bound_to 7965
  145.0385  139.3280  143.5988 LP  0  0  0  0  0  0  0  0  0  0  0  0  # atno 17321 bound_to 7965
  139.4899  144.6403  151.6890 LP  0  0  0  0  0  0  0  0  0  0  0  0  # atno 17342 bound_to 10162
  140.5590  144.0300  150.6161 LP  0  0  0  0  0  0  0  0  0  0  0  0  # atno 17343 bound_to 10162
  157.5704  131.0946  150.9426 LP  0  0  0  0  0  0  0  0  0  0  0  0  # atno 17370 bound_to 10713
  156.9643  130.5467  149.5287 LP  0  0  0  0  0  0  0  0  0  0  0  0  # atno 17371 bound_to 10713
  140.6634  134.4943  157.5584 LP  0  0  0  0  0  0  0  0  0  0  0  0  # atno 17394 bound_to 11000
  139.9124  134.8317  156.1482 LP  0  0  0  0  0  0  0  0  0  0  0  0  # atno 17395 bound_to 11000

$$$$
