AV-unprocessed.smi:49|AV-procd|sdf|490|dock5
  -GOLD-   2262016353D 1   1.00000     0.00000
 Structure written by MMmdl.
 26 27  0  0  0  0  0  0  0  0  2 V2000
  152.6879  142.2350  159.0917 C   0  0  0  0  0  0  0  0  0  0  0  0
  152.2899  140.8043  158.7155 C   0  0  0  0  0  0  0  0  0  0  0  0
  151.7003  140.7238  157.3244 C   0  0  0  0  0  0  0  0  0  0  0  0
  150.5599  141.2803  156.9288 N   0  0  0  0  0  0  0  0  0  0  0  0
  150.4382  140.9815  155.6276 C   0  0  0  0  0  0  0  0  0  0  0  0
  149.2867  141.4461  154.7541 C   0  0  1  0  0  0  0  0  0  0  0  0
  148.5926  140.2669  154.0483 C   0  0  0  0  0  0  0  0  0  0  0  0
  147.2294  140.1789  154.7272 C   0  0  2  0  0  0  0  0  0  0  0  0
  146.2308  139.6350  153.8902 O   0  0  0  0  0  0  0  0  0  0  0  0
  146.9559  141.6323  155.0910 C   0  0  0  0  0  0  0  0  0  0  0  0
  148.2486  142.1499  155.5161 N   0  0  0  0  0  0  0  0  0  0  0  0
  151.4986  140.2741  155.2040 N   0  0  0  0  0  0  0  0  0  0  0  0
  152.2673  140.1238  156.2633 N   0  5  0  0  0  0  0  0  0  0  0  0
  149.6963  142.1150  153.9965 H   0  0  0  0  0  0  0  0  0  0  0  0
  147.3073  139.5803  155.6361 H   0  0  0  0  0  0  0  0  0  0  0  0
  153.1105  142.2700  160.0958 H   0  0  0  0  0  0  0  0  0  0  0  0
  151.8244  142.9003  159.0686 H   0  0  0  0  0  0  0  0  0  0  0  0
  153.4333  142.6289  158.4005 H   0  0  0  0  0  0  0  0  0  0  0  0
  153.1601  140.1494  158.7676 H   0  0  0  0  0  0  0  0  0  0  0  0
  151.5625  140.4188  159.4301 H   0  0  0  0  0  0  0  0  0  0  0  0
  148.4653  140.5135  152.9931 H   0  0  0  0  0  0  0  0  0  0  0  0
  149.1534  139.3326  154.1004 H   0  0  0  0  0  0  0  0  0  0  0  0
  145.5703  140.2953  153.7471 H   0  0  0  0  0  0  0  0  0  0  0  0
  146.6141  142.1788  154.2109 H   0  0  0  0  0  0  0  0  0  0  0  0
  146.1980  141.7380  155.8674 H   0  0  0  0  0  0  0  0  0  0  0  0
  148.2899  143.1442  155.3187 H   0  0  0  0  0  0  0  0  0  0  0  0
  1  2  1  0  0  0  0
  1 16  1  0  0  0  0
  1 17  1  0  0  0  0
  1 18  1  0  0  0  0
  2  3  1  0  0  0  0
  2 19  1  0  0  0  0
  2 20  1  0  0  0  0
  3 13  1  0  0  0  0
  3  4  2  0  0  0  0
  4  5  1  0  0  0  0
  5  6  1  0  0  0  0
  5 12  2  0  0  0  0
  6 14  1  0  0  0  0
  6 11  1  0  0  0  0
  6  7  1  0  0  0  0
  7  8  1  0  0  0  0
  7 21  1  0  0  0  0
  7 22  1  0  0  0  0
  8 15  1  0  0  0  0
  8  9  1  0  0  0  0
  8 10  1  0  0  0  0
  9 23  1  0  0  0  0
 10 11  1  0  0  0  0
 10 24  1  0  0  0  0
 10 25  1  0  0  0  0
 11 26  1  0  0  0  0
 12 13  1  0  0  0  0
M  CHG  1  13  -1
M  END
> <s_m_source_file>
AV-unprocessed.smi

> <i_m_source_file_index>
49

> <i_lp_mmshare_version>
43012

> <i_f3d_flags>
0

> <s_epik_input>
W0NIM11bQ0gyXWMxbmMobltuSF0xKVtDQEBIXTJbQ0gyXVtDQEBIXShbT0hdKVtDSDJdW05IXTI=

> <s_epik_cmdline>
J2VwaWtfcHl0aG9uJywgJy1waCcsICc3LjAnLCAnLXRuJywgJzgnLCAnLW1hJywgJzIwMCcsICctbWV0YWxfYmluZGluZycsICctaW1hZScsICc8aW5maWxlLm1hZT4nLCAnLW9tYWUnLCAnPG91dGZpbGUubWFlPic=

> <r_lp_tautomer_probability>
0.948284

> <r_epik_Ionization_Penalty>
20.726

> <r_epik_Ionization_Penalty_Charging>
17.6814

> <r_epik_Ionization_Penalty_Neutral>
3.04463

> <r_epik_State_Penalty>
7.95092

> <r_epik_Charging_Adjusted_Penalty>
25.6323

> <i_epik_Tot_Q>
-1

> <i_epik_Tot_abs_Q>
1

> <r_epik_Metal_State_Penalty>
4.146

> <b_epik_Metal_Only>
1

> <s_lp_Force_Field>
OPLS_2005

> <r_lp_Energy>
18.0563

> <b_lp_Chiralities_Consistent>
1

> <s_lp_Variant>
AV-unprocessed.smi:49-28

> <Gold.Version>
5.8.1

> <Gold.Id.Protein>
6NUR|6NUR_protein|mol2

> <Gold.PLP.Fitness>
34.7982

> <Gold.PLP.PLP>
-22.4068

> <Gold.PLP.part.hbond>
-4.0000

> <Gold.PLP.part.metal>
0.0000

> <Gold.PLP.part.buried>
-0.8680

> <Gold.PLP.part.nonpolar>
-16.9796

> <Gold.PLP.part.repulsive>
0.0812

> <Gold.PLP.ligand.clash>
0.0000

> <Gold.PLP.ligand.torsion>
0.0804

> <Gold.PLP.Chemscore.Hbond>
4.1791

> <Gold.PLP.Chemscore.CHOScore>
0.0000

> <Gold.PLP.Chemscore.Metal>
0.0000

> <Gold.Chemscore.Hbonds>
donor molecule, donor type, donor heavy atom, donor atom, acceptor molecule, acceptor atom, score
      L1  H     9    23       P1 10175  0.27
      L1  H    11    26       P1  8028  1.00
      P1  H  7989  7998       L1    12  0.96
      P1  H  7997  8010       L1    13  1.82

> <Gold.PLP.Chemscore.Internal.Correction>
0.0149

> <Gold.Rescore>
     Score         DG    S(hbond)    S(metal)    S(lipo)     H(rot)  DE(clash)    DE(int)     intcor
     13.97     -14.56       2.74        0.00      39.36       1.82       0.58       0.02       ----

> <Gold.Chemscore.Fitness>
13.9669

> <Gold.Chemscore.DG>
-14.5650

> <Gold.Chemscore.ZeroCoef>
-5.4800

> <Gold.Chemscore.Hbond>
2.7381

> <Gold.Chemscore.Metal>
0.0000

> <Gold.Chemscore.Lipo>
39.3623

> <Gold.Chemscore.Internal_Hbond>
0.0000

> <Gold.Chemscore.DEClash>
0.5784

> <Gold.Chemscore.DEInternal>
0.0197

> <Gold.Chemscore.Rot>
1.8226

> <Gold.Chemscore.Internal.Correction>
   9.000000E+99

> <Gold.Chemscore.Hbonds>
donor molecule, donor type, donor heavy atom, donor atom, acceptor molecule, acceptor atom, score
      L1  H     9    23       P1 10175  0.27
      L1  H    11    26       P1  8028  0.94
      P1  H  7989  7998       L1    12  0.28
      P1  H  7997  8010       L1    13  0.75

> <Gold.Chemscore.Hbond.Weighted>
-9.1454

> <Gold.Chemscore.Metal.Weighted>
-0.0000

> <Gold.Chemscore.Lipo.Weighted>
-4.6054

> <Gold.Chemscore.Internal_Hbond.Weighted>
0.0000

> <Gold.Chemscore.DEClash.Weighted>
0.5784

> <Gold.Chemscore.DEInternal.Weighted>
0.0197

> <Gold.Chemscore.Rot.Weighted>
4.6658

> <Gold.Chemscore.Internal.Correction.Weighted>
   9.000000E+99

> <Gold.Protein.RotatedTorsions>
[ 6907 6896 6895 6894 ] final  -51.44 input  -60.11 | X-H torsion
[ 7974 7965 7964 7962 ] final -136.87 input  175.53 | X-H torsion
[ 8008 7997 7996 7995 ] final   77.84 input   59.86 | X-H torsion
[ 10167 10162 10161 10158 ] final   84.37 input  -65.29 | X-H torsion
[ 10718 10713 10712 10709 ] final   65.06 input   66.30 | X-H torsion
[ 10763 10752 10751 10750 ] final  156.65 input  -60.55 | X-H torsion
[ 11005 11000 10999 10996 ] final   75.11 input  -57.11 | X-H torsion

> <Gold.Protein.ActiveResidues>
 VAL166  LYS551  ARG553  GLY616  TRP617  ASP618  TYR619  PRO620  LYS621  CYS622 
 ASP623  PHE694  ASN695  SER759  ASP760  ASP761  ALA762  ILE779  LEU786  VAL792 
 PHE793  MET794  SER795  GLU796  ALA797  LYS798  CYS799  TRP800  GLU811  SER814 

> <Gold.Protein.RotatedAtoms>
  150.8611  134.7963  159.7083 H   0  0  0  0  0  0  0  0  0  0  0  0  # atno 6907 bound_to 6896
  152.4648  134.5098  159.9760 H   0  0  0  0  0  0  0  0  0  0  0  0  # atno 6908 bound_to 6896
  151.5202  133.3430  159.2935 H   0  0  0  0  0  0  0  0  0  0  0  0  # atno 6909 bound_to 6896
  144.8890  140.6615  143.5158 H   0  0  0  0  0  0  0  0  0  0  0  0  # atno 7974 bound_to 7965
  155.8473  140.3459  155.5670 H   0  0  0  0  0  0  0  0  0  0  0  0  # atno 8008 bound_to 7997
  155.8076  140.0894  157.1942 H   0  0  0  0  0  0  0  0  0  0  0  0  # atno 8009 bound_to 7997
  154.4006  140.1454  156.3336 H   0  0  0  0  0  0  0  0  0  0  0  0  # atno 8010 bound_to 7997
  139.9088  144.6285  150.8559 H   0  0  0  0  0  0  0  0  0  0  0  0  # atno 10167 bound_to 10162
  157.6081  130.9193  149.9927 H   0  0  0  0  0  0  0  0  0  0  0  0  # atno 10718 bound_to 10713
  154.1877  135.2796  155.3032 H   0  0  0  0  0  0  0  0  0  0  0  0  # atno 10763 bound_to 10752
  154.5953  135.5547  153.7323 H   0  0  0  0  0  0  0  0  0  0  0  0  # atno 10764 bound_to 10752
  153.0121  135.6378  154.2015 H   0  0  0  0  0  0  0  0  0  0  0  0  # atno 10765 bound_to 10752
  139.9359  134.7490  156.1230 H   0  0  0  0  0  0  0  0  0  0  0  0  # atno 11005 bound_to 11000
  145.3818  139.1635  143.4276 LP  0  0  0  0  0  0  0  0  0  0  0  0  # atno 17320 bound_to 7965
  146.3042  140.3899  142.8693 LP  0  0  0  0  0  0  0  0  0  0  0  0  # atno 17321 bound_to 7965
  140.7690  143.3381  151.2265 LP  0  0  0  0  0  0  0  0  0  0  0  0  # atno 17342 bound_to 10162
  139.6961  143.9611  152.2883 LP  0  0  0  0  0  0  0  0  0  0  0  0  # atno 17343 bound_to 10162
  156.1173  130.3647  149.9946 LP  0  0  0  0  0  0  0  0  0  0  0  0  # atno 17370 bound_to 10713
  156.8033  130.9298  151.3645 LP  0  0  0  0  0  0  0  0  0  0  0  0  # atno 17371 bound_to 10713
  141.0972  133.6691  156.2672 LP  0  0  0  0  0  0  0  0  0  0  0  0  # atno 17394 bound_to 11000
  140.6077  134.5490  157.5528 LP  0  0  0  0  0  0  0  0  0  0  0  0  # atno 17395 bound_to 11000

$$$$
