AV-unprocessed.smi:109|AV-procd|sdf|1055|dock3
  -GOLD-   2262018113D 1   1.00000     0.00000
 Structure written by MMmdl.
 58 61  0  0  0  0  0  0  0  0  1 V2000
  152.0489  137.0656  153.9820 O   0  0  0  0  0  0  0  0  0  0  0  0
  151.3285  138.1918  154.4335 C   0  0  0  0  0  0  0  0  0  0  0  0
  151.8240  138.6018  155.8309 C   0  0  0  0  0  0  0  0  0  0  0  0
  151.1505  139.8785  156.3910 C   0  0  2  0  0  0  0  0  0  0  0  0
  150.8107  140.7729  155.2818 N   0  0  0  0  0  0  0  0  0  0  0  0
  149.5976  140.7598  154.6855 C   0  0  0  0  0  0  0  0  0  0  0  0
  149.1680  141.7971  153.9204 N   0  0  0  0  0  0  0  0  0  0  0  0
  147.9628  141.7522  153.3449 C   0  0  0  0  0  0  0  0  0  0  0  0
  147.0451  140.7841  153.4043 N   0  0  0  0  0  0  0  0  0  0  0  0
  147.4720  139.7423  154.1751 C   0  0  0  0  0  0  0  0  0  0  0  0
  148.7240  139.6535  154.8432 C   0  0  0  0  0  0  0  0  0  0  0  0
  148.8066  138.4485  155.5287 N   0  0  0  0  0  0  0  0  0  0  0  0
  147.6671  137.8622  155.2747 C   0  0  0  0  0  0  0  0  0  0  0  0
  146.8060  138.5722  154.4650 N   0  0  0  0  0  0  0  0  0  0  0  0
  145.4398  138.1988  153.9807 C   0  0  2  0  0  0  0  0  0  0  0  0
  144.9595  137.1889  154.8177 O   0  0  0  0  0  0  0  0  0  0  0  0
  144.5693  136.0457  154.0591 C   0  0  2  0  0  0  0  0  0  0  0  0
  144.7290  134.7547  154.8812 C   0  0  0  0  0  0  0  0  0  0  0  0
  143.6738  134.6389  155.8111 O   0  0  0  0  0  0  0  0  0  0  0  0
  145.4151  136.1285  152.7807 C   0  0  2  0  0  0  0  0  0  0  0  0
  146.6972  135.5530  152.9740 O   0  0  0  0  0  0  0  0  0  0  0  0
  145.4706  137.6329  152.5481 C   0  0  2  0  0  0  0  0  0  0  0  0
  146.5672  138.0380  151.7459 O   0  0  0  0  0  0  0  0  0  0  0  0
  152.0269  140.6462  157.4220 C   0  0  0  0  0  0  0  0  0  0  0  0
  152.2330  139.8697  158.7470 C   0  0  0  0  0  0  0  0  0  0  0  0
  153.0652  140.6608  159.7699 C   0  0  0  0  0  0  0  0  0  0  0  0
  152.4463  142.0338  160.0580 C   0  0  0  0  0  0  0  0  0  0  0  0
  152.2642  142.8255  158.7581 C   0  0  0  0  0  0  0  0  0  0  0  0
  151.4217  142.0374  157.7436 C   0  0  0  0  0  0  0  0  0  0  0  0
  144.8494  139.1106  154.0791 H   0  0  0  0  0  0  0  0  0  0  0  0
  143.5240  136.1779  153.7725 H   0  0  0  0  0  0  0  0  0  0  0  0
  144.9364  135.6117  151.9482 H   0  0  0  0  0  0  0  0  0  0  0  0
  144.5482  137.9499  152.0599 H   0  0  0  0  0  0  0  0  0  0  0  0
  151.7201  136.8200  153.1307 H   0  0  0  0  0  0  0  0  0  0  0  0
  151.4612  138.9985  153.7126 H   0  0  0  0  0  0  0  0  0  0  0  0
  150.2665  137.9463  154.4592 H   0  0  0  0  0  0  0  0  0  0  0  0
  151.6284  137.7586  156.4909 H   0  0  0  0  0  0  0  0  0  0  0  0
  152.9065  138.7354  155.8143 H   0  0  0  0  0  0  0  0  0  0  0  0
  150.2527  139.5668  156.9241 H   0  0  0  0  0  0  0  0  0  0  0  0
  151.5437  141.4080  155.0000 H   0  0  0  0  0  0  0  0  0  0  0  0
  147.6958  142.6149  152.7527 H   0  0  0  0  0  0  0  0  0  0  0  0
  147.4239  136.8891  155.6757 H   0  0  0  0  0  0  0  0  0  0  0  0
  144.6804  133.8837  154.2269 H   0  0  0  0  0  0  0  0  0  0  0  0
  145.6906  134.7255  155.3946 H   0  0  0  0  0  0  0  0  0  0  0  0
  143.3181  133.7651  155.7556 H   0  0  0  0  0  0  0  0  0  0  0  0
  147.3092  135.9780  152.3931 H   0  0  0  0  0  0  0  0  0  0  0  0
  147.3474  137.6136  152.0686 H   0  0  0  0  0  0  0  0  0  0  0  0
  153.0105  140.8033  156.9759 H   0  0  0  0  0  0  0  0  0  0  0  0
  151.2642  139.6179  159.1803 H   0  0  0  0  0  0  0  0  0  0  0  0
  152.7490  138.9277  158.5692 H   0  0  0  0  0  0  0  0  0  0  0  0
  153.1519  140.0922  160.6961 H   0  0  0  0  0  0  0  0  0  0  0  0
  154.0800  140.7906  159.3916 H   0  0  0  0  0  0  0  0  0  0  0  0
  151.4813  141.9071  160.5504 H   0  0  0  0  0  0  0  0  0  0  0  0
  153.0786  142.5913  160.7498 H   0  0  0  0  0  0  0  0  0  0  0  0
  151.7884  143.7833  158.9705 H   0  0  0  0  0  0  0  0  0  0  0  0
  153.2393  143.0535  158.3257 H   0  0  0  0  0  0  0  0  0  0  0  0
  151.3288  142.6387  156.8392 H   0  0  0  0  0  0  0  0  0  0  0  0
  150.4097  141.9148  158.1317 H   0  0  0  0  0  0  0  0  0  0  0  0
  1  2  1  0  0  0  0
  1 34  1  0  0  0  0
  2  3  1  0  0  0  0
  2 35  1  0  0  0  0
  2 36  1  0  0  0  0
  3  4  1  0  0  0  0
  3 37  1  0  0  0  0
  3 38  1  0  0  0  0
  4  5  1  0  0  0  0
  4 24  1  0  0  0  0
  4 39  1  0  0  0  0
  5  6  1  0  0  0  0
  5 40  1  0  0  0  0
  6 11  1  0  0  0  0
  6  7  2  0  0  0  0
  7  8  1  0  0  0  0
  8  9  2  0  0  0  0
  8 41  1  0  0  0  0
  9 10  1  0  0  0  0
 10 14  1  0  0  0  0
 10 11  2  0  0  0  0
 11 12  1  0  0  0  0
 12 13  2  0  0  0  0
 13 14  1  0  0  0  0
 13 42  1  0  0  0  0
 14 15  1  0  0  0  0
 15 30  1  0  0  0  0
 15 22  1  0  0  0  0
 15 16  1  0  0  0  0
 16 17  1  0  0  0  0
 17 31  1  0  0  0  0
 17 18  1  0  0  0  0
 17 20  1  0  0  0  0
 18 19  1  0  0  0  0
 18 43  1  0  0  0  0
 18 44  1  0  0  0  0
 19 45  1  0  0  0  0
 20 32  1  0  0  0  0
 20 21  1  0  0  0  0
 20 22  1  0  0  0  0
 21 46  1  0  0  0  0
 22 33  1  0  0  0  0
 22 23  1  0  0  0  0
 23 47  1  0  0  0  0
 24 29  1  0  0  0  0
 24 25  1  0  0  0  0
 24 48  1  0  0  0  0
 25 26  1  0  0  0  0
 25 49  1  0  0  0  0
 25 50  1  0  0  0  0
 26 27  1  0  0  0  0
 26 51  1  0  0  0  0
 26 52  1  0  0  0  0
 27 28  1  0  0  0  0
 27 53  1  0  0  0  0
 27 54  1  0  0  0  0
 28 29  1  0  0  0  0
 28 55  1  0  0  0  0
 28 56  1  0  0  0  0
 29 57  1  0  0  0  0
 29 58  1  0  0  0  0
M  END
> <s_m_source_file>
AV-unprocessed.smi

> <i_m_source_file_index>
109

> <i_lp_mmshare_version>
43012

> <i_f3d_flags>
0

> <s_epik_input>
W0NIMl0xW0NIMl1bQ0gyXVtDSDJdW0NIMl1bQ0hdMVtDQEhdKFtDSDJdW0NIMl1bT0hdKVtOSF1jKG5bY0hdbjIpYyhjMjMpbltjSF1uM1tDQEBIXTRPW0NASF0oW0NIMl1bT0hdKVtDQEBIXShbT0hdKVtDQEhdNFtPSF0=

> <s_epik_cmdline>
J2VwaWtfcHl0aG9uJywgJy1waCcsICc3LjAnLCAnLXRuJywgJzgnLCAnLW1hJywgJzIwMCcsICctbWV0YWxfYmluZGluZycsICctaW1hZScsICc8aW5maWxlLm1hZT4nLCAnLW9tYWUnLCAnPG91dGZpbGUubWFlPic=

> <r_lp_tautomer_probability>
1

> <r_epik_Ionization_Penalty>
0.000793976

> <r_epik_Ionization_Penalty_Charging>
0

> <r_epik_Ionization_Penalty_Neutral>
0.000793976

> <r_epik_State_Penalty>
-0

> <r_epik_Charging_Adjusted_Penalty>
0

> <i_epik_Tot_Q>
0

> <i_epik_Tot_abs_Q>
0

> <r_epik_Metal_State_Penalty>
-0

> <b_epik_Metal_Only>
0

> <s_epik_Chemistry_Notes>
This compound contains an acetal/aminal-like group ( X-CH(R)-Y where X, Y are N, S, or O) that may be acid/base labile, releasing an aldehyde.

> <s_lp_Force_Field>
OPLS_2005

> <r_lp_Energy>
59.4654

> <b_lp_Chiralities_Consistent>
1

> <s_lp_Variant>
AV-unprocessed.smi:109-25

> <Gold.Version>
5.8.1

> <Gold.Id.Protein>
6NUR|6NUR_protein|mol2

> <Gold.PLP.Fitness>
53.4679

> <Gold.PLP.PLP>
-39.8813

> <Gold.PLP.part.hbond>
-5.9672

> <Gold.PLP.part.metal>
0.0000

> <Gold.PLP.part.buried>
-9.1403

> <Gold.PLP.part.nonpolar>
-26.5651

> <Gold.PLP.part.repulsive>
2.2356

> <Gold.PLP.ligand.clash>
0.0000

> <Gold.PLP.ligand.torsion>
1.5289

> <Gold.PLP.Chemscore.Hbond>
5.4455

> <Gold.PLP.Chemscore.CHOScore>
0.0000

> <Gold.PLP.Chemscore.Metal>
0.0000

> <Gold.Chemscore.Hbonds>
donor molecule, donor type, donor heavy atom, donor atom, acceptor molecule, acceptor atom, score
      L1  H     1    34       P1  7949  1.00
      L1  H    19    45       P1 10957  0.32
      L1  H    21    46       P1  7948  0.99
      L1  H    23    47       P1  7948  0.81
      P1  H  8011  8017       L1     7  0.19
      P1  H 10752 10763       L1     1  0.65

> <Gold.PLP.Chemscore.Internal.Correction>
0.3081

> <Gold.Rescore>
     Score         DG    S(hbond)    S(metal)    S(lipo)     H(rot)  DE(clash)    DE(int)     intcor
      9.75     -14.24       3.98        0.00      80.87       5.47       0.34       4.15       ----

> <Gold.Chemscore.Fitness>
9.7517

> <Gold.Chemscore.DG>
-14.2446

> <Gold.Chemscore.ZeroCoef>
-5.4800

> <Gold.Chemscore.Hbond>
3.9811

> <Gold.Chemscore.Metal>
0.0000

> <Gold.Chemscore.Lipo>
80.8651

> <Gold.Chemscore.Internal_Hbond>
0.0000

> <Gold.Chemscore.DEClash>
0.3382

> <Gold.Chemscore.DEInternal>
4.1547

> <Gold.Chemscore.Rot>
5.4662

> <Gold.Chemscore.Internal.Correction>
   9.000000E+99

> <Gold.Chemscore.Hbonds>
donor molecule, donor type, donor heavy atom, donor atom, acceptor molecule, acceptor atom, score
      L1  H     1    34       P1  7949  0.98
      L1  H    19    45       P1 10957  0.33
      L1  H    21    46       P1  7948  0.94
      L1  H    23    47       P1  7948  0.77
      P1  H 10752 10763       L1     1  0.05

> <Gold.Chemscore.Hbond.Weighted>
-13.2969

> <Gold.Chemscore.Metal.Weighted>
-0.0000

> <Gold.Chemscore.Lipo.Weighted>
-9.4612

> <Gold.Chemscore.Internal_Hbond.Weighted>
0.0000

> <Gold.Chemscore.DEClash.Weighted>
0.3382

> <Gold.Chemscore.DEInternal.Weighted>
4.1547

> <Gold.Chemscore.Rot.Weighted>
13.9935

> <Gold.Chemscore.Internal.Correction.Weighted>
   9.000000E+99

> <Gold.Protein.RotatedTorsions>
[ 6907 6896 6895 6894 ] final  143.57 input  -60.11 | X-H torsion
[ 7974 7965 7964 7962 ] final  -95.36 input  175.53 | X-H torsion
[ 8008 7997 7996 7995 ] final -111.22 input   59.86 | X-H torsion
[ 10167 10162 10161 10158 ] final  129.60 input  -65.29 | X-H torsion
[ 10718 10713 10712 10709 ] final  118.78 input   66.30 | X-H torsion
[ 10763 10752 10751 10750 ] final   32.02 input  -60.55 | X-H torsion
[ 11005 11000 10999 10996 ] final  -11.87 input  -57.11 | X-H torsion

> <Gold.Protein.ActiveResidues>
 VAL166  LYS551  ARG553  GLY616  TRP617  ASP618  TYR619  PRO620  LYS621  CYS622 
 ASP623  PHE694  ASN695  SER759  ASP760  ASP761  ALA762  ILE779  LEU786  VAL792 
 PHE793  MET794  SER795  GLU796  ALA797  LYS798  CYS799  TRP800  GLU811  SER814 

> <Gold.Protein.RotatedAtoms>
  152.2046  133.4866  159.5076 H   0  0  0  0  0  0  0  0  0  0  0  0  # atno 6907 bound_to 6896
  150.6977  134.1546  159.4162 H   0  0  0  0  0  0  0  0  0  0  0  0  # atno 6908 bound_to 6896
  151.9464  135.0189  160.0590 H   0  0  0  0  0  0  0  0  0  0  0  0  # atno 6909 bound_to 6896
  145.3611  140.9492  143.2500 H   0  0  0  0  0  0  0  0  0  0  0  0  # atno 7974 bound_to 7965
  154.9864  140.0395  157.2300 H   0  0  0  0  0  0  0  0  0  0  0  0  # atno 8008 bound_to 7997
  154.7667  140.2794  155.6147 H   0  0  0  0  0  0  0  0  0  0  0  0  # atno 8009 bound_to 7997
  156.2914  140.2618  156.2460 H   0  0  0  0  0  0  0  0  0  0  0  0  # atno 8010 bound_to 7997
  139.5470  144.6781  151.4443 H   0  0  0  0  0  0  0  0  0  0  0  0  # atno 10167 bound_to 10162
  157.6007  131.1051  150.7805 H   0  0  0  0  0  0  0  0  0  0  0  0  # atno 10718 bound_to 10713
  153.0284  135.6424  154.1291 H   0  0  0  0  0  0  0  0  0  0  0  0  # atno 10763 bound_to 10752
  154.1016  135.2859  155.3252 H   0  0  0  0  0  0  0  0  0  0  0  0  # atno 10764 bound_to 10752
  154.6394  135.5465  153.7835 H   0  0  0  0  0  0  0  0  0  0  0  0  # atno 10765 bound_to 10752
  140.7598  133.8524  155.9115 H   0  0  0  0  0  0  0  0  0  0  0  0  # atno 11005 bound_to 11000
  144.8646  139.5127  143.6796 LP  0  0  0  0  0  0  0  0  0  0  0  0  # atno 17320 bound_to 7965
  146.2927  139.7186  142.9149 LP  0  0  0  0  0  0  0  0  0  0  0  0  # atno 17321 bound_to 7965
  140.6721  143.8271  150.7012 LP  0  0  0  0  0  0  0  0  0  0  0  0  # atno 17342 bound_to 10162
  140.1698  143.4204  152.2008 LP  0  0  0  0  0  0  0  0  0  0  0  0  # atno 17343 bound_to 10162
  156.8204  130.4982  149.5344 LP  0  0  0  0  0  0  0  0  0  0  0  0  # atno 17370 bound_to 10713
  156.1079  130.6018  151.0000 LP  0  0  0  0  0  0  0  0  0  0  0  0  # atno 17371 bound_to 10713
  140.9674  134.1576  157.4605 LP  0  0  0  0  0  0  0  0  0  0  0  0  # atno 17394 bound_to 11000
  139.8773  134.9966  156.5805 LP  0  0  0  0  0  0  0  0  0  0  0  0  # atno 17395 bound_to 11000

$$$$
