AV-unprocessed.smi:739|AV-procd|sdf|3543|dock9
  -GOLD-   22720 0533D 1   1.00000     0.00000
 Structure written by MMmdl.
 32 34  0  0  0  0  0  0  0  0  1 V2000
  153.6051  139.6825  158.4555 O   0  0  0  0  0  0  0  0  0  0  0  0
  152.7457  140.7853  158.6592 C   0  0  1  0  0  0  0  0  0  0  0  0
  151.2922  140.3078  158.4706 C   0  0  0  0  0  0  0  0  0  0  0  0
  150.8560  140.4065  157.0887 N   0  0  0  0  0  0  0  0  0  0  0  0
  151.5269  139.9885  155.9982 C   0  0  0  0  0  0  0  0  0  0  0  0
  150.9514  140.1864  154.8156 N   0  0  0  0  0  0  0  0  0  0  0  0
  149.7680  140.8050  155.1803 C   0  0  0  0  0  0  0  0  0  0  0  0
  148.7015  141.2839  154.3864 C   0  0  0  0  0  0  0  0  0  0  0  0
  147.5808  141.8941  154.9872 C   0  0  0  0  0  0  0  0  0  0  0  0
  146.5685  142.3490  154.2113 F   0  0  0  0  0  0  0  0  0  0  0  0
  147.5091  142.0334  156.3893 C   0  0  0  0  0  0  0  0  0  0  0  0
  146.4308  142.6228  156.9582 F   0  0  0  0  0  0  0  0  0  0  0  0
  148.5579  141.5606  157.2007 C   0  0  0  0  0  0  0  0  0  0  0  0
  149.6756  140.9549  156.5970 C   0  0  0  0  0  0  0  0  0  0  0  0
  152.9658  141.4445  160.0140 C   0  0  0  0  0  0  0  0  0  0  0  0
  152.2599  142.6205  160.3481 C   0  0  0  0  0  0  0  0  0  0  0  0
  152.4336  143.2187  161.6111 C   0  0  0  0  0  0  0  0  0  0  0  0
  153.3155  142.6456  162.5473 C   0  0  0  0  0  0  0  0  0  0  0  0
  153.4802  143.2190  163.7626 F   0  0  0  0  0  0  0  0  0  0  0  0
  154.0241  141.4740  162.2194 C   0  0  0  0  0  0  0  0  0  0  0  0
  153.8501  140.8748  160.9567 C   0  0  0  0  0  0  0  0  0  0  0  0
  154.1316  139.5661  159.2318 H   0  0  0  0  0  0  0  0  0  0  0  0
  152.9847  141.5074  157.8770 H   0  0  0  0  0  0  0  0  0  0  0  0
  151.1987  139.2640  158.7744 H   0  0  0  0  0  0  0  0  0  0  0  0
  150.6088  140.8775  159.1017 H   0  0  0  0  0  0  0  0  0  0  0  0
  152.4948  139.5153  156.0773 H   0  0  0  0  0  0  0  0  0  0  0  0
  148.7457  141.1837  153.3120 H   0  0  0  0  0  0  0  0  0  0  0  0
  148.5055  141.6680  158.2738 H   0  0  0  0  0  0  0  0  0  0  0  0
  151.5730  143.0615  159.6408 H   0  0  0  0  0  0  0  0  0  0  0  0
  151.8874  144.1157  161.8629 H   0  0  0  0  0  0  0  0  0  0  0  0
  154.6986  141.0320  162.9379 H   0  0  0  0  0  0  0  0  0  0  0  0
  154.3905  139.9702  160.7187 H   0  0  0  0  0  0  0  0  0  0  0  0
  1  2  1  0  0  0  0
  1 22  1  0  0  0  0
  2  3  1  0  0  0  0
  2 15  1  0  0  0  0
  2 23  1  0  0  0  0
  3  4  1  0  0  0  0
  3 24  1  0  0  0  0
  3 25  1  0  0  0  0
  4 14  1  0  0  0  0
  4  5  1  0  0  0  0
  5  6  2  0  0  0  0
  5 26  1  0  0  0  0
  6  7  1  0  0  0  0
  7 14  2  0  0  0  0
  7  8  1  0  0  0  0
  8  9  2  0  0  0  0
  8 27  1  0  0  0  0
  9 10  1  0  0  0  0
  9 11  1  0  0  0  0
 11 12  1  0  0  0  0
 11 13  2  0  0  0  0
 13 14  1  0  0  0  0
 13 28  1  0  0  0  0
 15 21  1  0  0  0  0
 15 16  2  0  0  0  0
 16 17  1  0  0  0  0
 16 29  1  0  0  0  0
 17 18  2  0  0  0  0
 17 30  1  0  0  0  0
 18 19  1  0  0  0  0
 18 20  1  0  0  0  0
 20 21  2  0  0  0  0
 20 31  1  0  0  0  0
 21 32  1  0  0  0  0
M  END
> <s_m_source_file>
AV-unprocessed.smi

> <i_m_source_file_index>
739

> <i_lp_mmshare_version>
43012

> <i_f3d_flags>
0

> <s_epik_input>
W2NIXTFbY0hdYyhGKVtjSF1bY0hdYzFbQ0BIXShbT0hdKVtDSDJdbihbY0hdbjIpYyhjMjMpW2NIXWMoRiljKEYpW2NIXTM=

> <s_epik_cmdline>
J2VwaWtfcHl0aG9uJywgJy1waCcsICc3LjAnLCAnLXRuJywgJzgnLCAnLW1hJywgJzIwMCcsICctbWV0YWxfYmluZGluZycsICctaW1hZScsICc8aW5maWxlLm1hZT4nLCAnLW9tYWUnLCAnPG91dGZpbGUubWFlPic=

> <r_epik_Ionization_Penalty>
0.0156356

> <r_epik_Ionization_Penalty_Charging>
0

> <r_epik_Ionization_Penalty_Neutral>
0.0156356

> <r_epik_State_Penalty>
0.0122974

> <r_epik_Charging_Adjusted_Penalty>
0.0122974

> <i_epik_Tot_Q>
0

> <i_epik_Tot_abs_Q>
0

> <r_epik_Metal_State_Penalty>
1.24258e-05

> <b_epik_Metal_Only>
0

> <s_lp_Force_Field>
OPLS_2005

> <r_lp_Energy>
11.0695

> <b_lp_Chiralities_Consistent>
1

> <s_lp_Variant>
AV-unprocessed.smi:739-2

> <Gold.Version>
5.8.1

> <Gold.Id.Protein>
6NUR|6NUR_protein|mol2

> <Gold.PLP.Fitness>
56.1578

> <Gold.PLP.PLP>
-51.2724

> <Gold.PLP.part.hbond>
-2.0000

> <Gold.PLP.part.metal>
0.0000

> <Gold.PLP.part.buried>
-3.2566

> <Gold.PLP.part.nonpolar>
-44.6469

> <Gold.PLP.part.repulsive>
0.0715

> <Gold.PLP.ligand.clash>
0.0000

> <Gold.PLP.ligand.torsion>
0.5644

> <Gold.PLP.Chemscore.Hbond>
2.0000

> <Gold.PLP.Chemscore.CHOScore>
0.0000

> <Gold.PLP.Chemscore.Metal>
0.0000

> <Gold.Chemscore.Hbonds>
donor molecule, donor type, donor heavy atom, donor atom, acceptor molecule, acceptor atom, score
      P1  H  7989  7998       L1     6  1.00
      P1  H  7997  8009       L1     1  1.00

> <Gold.PLP.Chemscore.Internal.Correction>
0.0141

> <Gold.Rescore>
     Score         DG    S(hbond)    S(metal)    S(lipo)     H(rot)  DE(clash)    DE(int)     intcor
     17.74     -18.41       1.72        0.00     106.82       2.07       0.05       0.62       ----

> <Gold.Chemscore.Fitness>
17.7402

> <Gold.Chemscore.DG>
-18.4089

> <Gold.Chemscore.ZeroCoef>
-5.4800

> <Gold.Chemscore.Hbond>
1.7157

> <Gold.Chemscore.Metal>
0.0000

> <Gold.Chemscore.Lipo>
106.8190

> <Gold.Chemscore.Internal_Hbond>
0.0000

> <Gold.Chemscore.DEClash>
0.0458

> <Gold.Chemscore.DEInternal>
0.6230

> <Gold.Chemscore.Rot>
2.0700

> <Gold.Chemscore.Internal.Correction>
   9.000000E+99

> <Gold.Chemscore.Hbonds>
donor molecule, donor type, donor heavy atom, donor atom, acceptor molecule, acceptor atom, score
      P1  H  7989  7998       L1     6  0.82
      P1  H  7997  8009       L1     1  0.39

> <Gold.Chemscore.Hbond.Weighted>
-5.7304

> <Gold.Chemscore.Metal.Weighted>
-0.0000

> <Gold.Chemscore.Lipo.Weighted>
-12.4978

> <Gold.Chemscore.Internal_Hbond.Weighted>
0.0000

> <Gold.Chemscore.DEClash.Weighted>
0.0458

> <Gold.Chemscore.DEInternal.Weighted>
0.6230

> <Gold.Chemscore.Rot.Weighted>
5.2992

> <Gold.Chemscore.Internal.Correction.Weighted>
   9.000000E+99

> <Gold.Protein.RotatedTorsions>
[ 6907 6896 6895 6894 ] final   57.45 input  -60.11 | X-H torsion
[ 7974 7965 7964 7962 ] final -163.52 input  175.53 | X-H torsion
[ 8008 7997 7996 7995 ] final  141.26 input   59.86 | X-H torsion
[ 10167 10162 10161 10158 ] final -170.30 input  -65.29 | X-H torsion
[ 10718 10713 10712 10709 ] final    4.19 input   66.30 | X-H torsion
[ 10763 10752 10751 10750 ] final  122.61 input  -60.55 | X-H torsion
[ 11005 11000 10999 10996 ] final -105.13 input  -57.11 | X-H torsion

> <Gold.Protein.ActiveResidues>
 VAL166  LYS551  ARG553  GLY616  TRP617  ASP618  TYR619  PRO620  LYS621  CYS622 
 ASP623  PHE694  ASN695  SER759  ASP760  ASP761  ALA762  ILE779  LEU786  VAL792 
 PHE793  MET794  SER795  GLU796  ALA797  LYS798  CYS799  TRP800  GLU811  SER814 

> <Gold.Protein.RotatedAtoms>
  152.3732  134.6703  160.0168 H   0  0  0  0  0  0  0  0  0  0  0  0  # atno 6907 bound_to 6896
  151.6989  133.3305  159.3269 H   0  0  0  0  0  0  0  0  0  0  0  0  # atno 6908 bound_to 6896
  150.7689  134.6568  159.6362 H   0  0  0  0  0  0  0  0  0  0  0  0  # atno 6909 bound_to 6896
  144.7323  140.3095  143.6190 H   0  0  0  0  0  0  0  0  0  0  0  0  # atno 7974 bound_to 7965
  156.2968  140.2320  156.4535 H   0  0  0  0  0  0  0  0  0  0  0  0  # atno 8008 bound_to 7997
  154.8080  140.0444  157.1343 H   0  0  0  0  0  0  0  0  0  0  0  0  # atno 8009 bound_to 7997
  154.9456  140.3035  155.5103 H   0  0  0  0  0  0  0  0  0  0  0  0  # atno 8010 bound_to 7997
  139.5870  144.1297  152.1587 H   0  0  0  0  0  0  0  0  0  0  0  0  # atno 10167 bound_to 10162
  156.8890  130.5680  149.5650 H   0  0  0  0  0  0  0  0  0  0  0  0  # atno 10718 bound_to 10713
  153.6324  135.3394  155.3046 H   0  0  0  0  0  0  0  0  0  0  0  0  # atno 10763 bound_to 10752
  154.8577  135.4299  154.2091 H   0  0  0  0  0  0  0  0  0  0  0  0  # atno 10764 bound_to 10752
  153.2990  135.7023  153.7294 H   0  0  0  0  0  0  0  0  0  0  0  0  # atno 10765 bound_to 10752
  141.1068  133.8782  157.1697 H   0  0  0  0  0  0  0  0  0  0  0  0  # atno 11005 bound_to 11000
  145.7680  139.1847  143.2229 LP  0  0  0  0  0  0  0  0  0  0  0  0  # atno 17320 bound_to 7965
  146.0934  140.7629  142.9584 LP  0  0  0  0  0  0  0  0  0  0  0  0  # atno 17321 bound_to 7965
  140.0863  144.5659  150.7086 LP  0  0  0  0  0  0  0  0  0  0  0  0  # atno 17342 bound_to 10162
  140.7140  143.2528  151.4493 LP  0  0  0  0  0  0  0  0  0  0  0  0  # atno 17343 bound_to 10162
  156.0639  130.5686  150.9248 LP  0  0  0  0  0  0  0  0  0  0  0  0  # atno 17370 bound_to 10713
  157.6095  131.0937  150.8820 LP  0  0  0  0  0  0  0  0  0  0  0  0  # atno 17371 bound_to 10713
  139.9942  135.0053  157.0043 LP  0  0  0  0  0  0  0  0  0  0  0  0  # atno 17394 bound_to 11000
  140.4882  134.1220  155.7228 LP  0  0  0  0  0  0  0  0  0  0  0  0  # atno 17395 bound_to 11000

$$$$
