AV-unprocessed.smi:1897|AV-procd|sdf|7688|dock4
  -GOLD-   22720 9423D 1   1.00000     0.00000
 Structure written by MMmdl.
 39 41  0  0  0  0  0  0  0  0  2 V2000
  150.9290  141.9344  156.5321 C   0  0  0  0  0  0  0  0  0  0  0  0
  150.4675  140.8287  155.6458 C   0  0  0  0  0  0  0  0  0  0  0  0
  151.3116  139.9772  155.0507 N   0  0  0  0  0  0  0  0  0  0  0  0
  150.6497  139.0414  154.2700 N   0  0  0  0  0  0  0  0  0  0  0  0
  149.3189  139.2044  154.3079 C   0  0  0  0  0  0  0  0  0  0  0  0
  148.3897  138.4035  153.5823 N   0  0  0  0  0  0  0  0  0  0  0  0
  147.0406  138.3718  153.6042 C   0  0  0  0  0  0  0  0  0  0  0  0
  146.3978  139.1190  154.3393 O   0  0  0  0  0  0  0  0  0  0  0  0
  146.4586  137.4830  152.7815 N   0  0  0  0  0  0  0  0  0  0  0  0
  145.0215  137.3086  152.5855 C   0  0  2  0  0  0  0  0  0  0  0  0
  144.2467  137.2215  153.9151 C   0  0  0  0  0  0  0  0  0  0  0  0
  143.2437  136.0812  153.7108 C   0  0  0  0  0  0  0  0  0  0  0  0
  143.9588  135.1712  152.8088 N   0  3  1  0  0  0  0  0  0  0  0  0
  143.2060  134.0647  152.1836 C   0  0  0  0  0  0  0  0  0  0  0  0
  144.2034  133.1579  151.4315 C   0  0  0  0  0  0  0  0  0  0  0  0
  145.0957  133.9546  150.4529 C   0  0  0  0  0  0  0  0  0  0  0  0
  145.7539  135.1709  151.1393 C   0  0  0  0  0  0  0  0  0  0  0  0
  144.6608  136.0120  151.8237 C   0  0  2  0  0  0  0  0  0  0  0  0
  148.7669  140.5501  155.2911 S   0  0  0  0  0  0  0  0  0  0  0  0
  151.8863  141.6831  156.9900 H   0  0  0  0  0  0  0  0  0  0  0  0
  150.2008  142.1107  157.3239 H   0  0  0  0  0  0  0  0  0  0  0  0
  151.0465  142.8504  155.9526 H   0  0  0  0  0  0  0  0  0  0  0  0
  148.8164  137.6818  153.0195 H   0  0  0  0  0  0  0  0  0  0  0  0
  147.0664  136.9036  152.2198 H   0  0  0  0  0  0  0  0  0  0  0  0
  144.6291  138.1581  152.0227 H   0  0  0  0  0  0  0  0  0  0  0  0
  144.9228  136.9621  154.7317 H   0  0  0  0  0  0  0  0  0  0  0  0
  143.7597  138.1608  154.1791 H   0  0  0  0  0  0  0  0  0  0  0  0
  142.9626  135.5939  154.6449 H   0  0  0  0  0  0  0  0  0  0  0  0
  142.3384  136.4470  153.2235 H   0  0  0  0  0  0  0  0  0  0  0  0
  142.6838  133.4940  152.9525 H   0  0  0  0  0  0  0  0  0  0  0  0
  142.4507  134.4614  151.5037 H   0  0  0  0  0  0  0  0  0  0  0  0
  144.8395  132.6488  152.1571 H   0  0  0  0  0  0  0  0  0  0  0  0
  143.6659  132.3755  150.8947 H   0  0  0  0  0  0  0  0  0  0  0  0
  145.8609  133.3038  150.0288 H   0  0  0  0  0  0  0  0  0  0  0  0
  144.4885  134.2999  149.6149 H   0  0  0  0  0  0  0  0  0  0  0  0
  146.4898  134.8330  151.8705 H   0  0  0  0  0  0  0  0  0  0  0  0
  146.2896  135.7674  150.4002 H   0  0  0  0  0  0  0  0  0  0  0  0
  143.9334  136.2981  151.0606 H   0  0  0  0  0  0  0  0  0  0  0  0
  144.6794  134.7448  153.3735 H   0  0  0  0  0  0  0  0  0  0  0  0
  1  2  1  0  0  0  0
  1 20  1  0  0  0  0
  1 21  1  0  0  0  0
  1 22  1  0  0  0  0
  2 19  1  0  0  0  0
  2  3  2  0  0  0  0
  3  4  1  0  0  0  0
  4  5  2  0  0  0  0
  5  6  1  0  0  0  0
  5 19  1  0  0  0  0
  6  7  1  0  0  0  0
  6 23  1  0  0  0  0
  7  8  2  0  0  0  0
  7  9  1  0  0  0  0
  9 10  1  0  0  0  0
  9 24  1  0  0  0  0
 10 18  1  0  0  0  0
 10 11  1  0  0  0  0
 10 25  1  0  0  0  0
 11 12  1  0  0  0  0
 11 26  1  0  0  0  0
 11 27  1  0  0  0  0
 12 13  1  0  0  0  0
 12 28  1  0  0  0  0
 12 29  1  0  0  0  0
 13 18  1  0  0  0  0
 13 14  1  0  0  0  0
 13 39  1  0  0  0  0
 14 15  1  0  0  0  0
 14 30  1  0  0  0  0
 14 31  1  0  0  0  0
 15 16  1  0  0  0  0
 15 32  1  0  0  0  0
 15 33  1  0  0  0  0
 16 17  1  0  0  0  0
 16 34  1  0  0  0  0
 16 35  1  0  0  0  0
 17 18  1  0  0  0  0
 17 36  1  0  0  0  0
 17 37  1  0  0  0  0
 18 38  1  0  0  0  0
M  CHG  1  13   1
M  END
> <s_m_source_file>
AV-unprocessed.smi

> <i_m_source_file_index>
1897

> <i_lp_mmshare_version>
43012

> <i_f3d_flags>
0

> <s_epik_input>
W0NIM11jMW5uYyhzMSlbTkhdQyg9TylbTkhdW0NASF0oW0NIMl1bQ0gyXTIpW0NAQEhdKE4yMylbQ0gyXVtDSDJdW0NIMl1bQ0gyXTM=

> <s_epik_cmdline>
J2VwaWtfcHl0aG9uJywgJy1waCcsICc3LjAnLCAnLXRuJywgJzgnLCAnLW1hJywgJzIwMCcsICctbWV0YWxfYmluZGluZycsICctaW1hZScsICc8aW5maWxlLm1hZT4nLCAnLW9tYWUnLCAnPG91dGZpbGUubWFlPic=

> <r_lp_tautomer_probability>
1

> <r_epik_Ionization_Penalty>
0.00228891

> <r_epik_Ionization_Penalty_Charging>
0.00107044

> <r_epik_Ionization_Penalty_Neutral>
0.00121847

> <r_epik_State_Penalty>
-0

> <r_epik_Charging_Adjusted_Penalty>
0.00107044

> <i_epik_Tot_Q>
1

> <i_epik_Tot_abs_Q>
1

> <r_epik_Metal_State_Penalty>
0.304057

> <b_epik_Metal_Only>
0

> <s_lp_Force_Field>
OPLS_2005

> <r_lp_Energy>
42.5593

> <b_lp_Chiralities_Consistent>
1

> <s_lp_Variant>
AV-unprocessed.smi:1897-5

> <Gold.Version>
5.8.1

> <Gold.Id.Protein>
6NUR|6NUR_protein|mol2

> <Gold.PLP.Fitness>
36.2514

> <Gold.PLP.PLP>
-29.4231

> <Gold.PLP.part.hbond>
-4.4782

> <Gold.PLP.part.metal>
0.0000

> <Gold.PLP.part.buried>
-3.7462

> <Gold.PLP.part.nonpolar>
-22.1577

> <Gold.PLP.part.repulsive>
0.4188

> <Gold.PLP.ligand.clash>
0.0000

> <Gold.PLP.ligand.torsion>
0.1504

> <Gold.PLP.Chemscore.Hbond>
2.3760

> <Gold.PLP.Chemscore.CHOScore>
0.0000

> <Gold.PLP.Chemscore.Metal>
0.0000

> <Gold.Chemscore.Hbonds>
donor molecule, donor type, donor heavy atom, donor atom, acceptor molecule, acceptor atom, score
      L1  H     6    23       P1  7948  1.00
      L1  H     9    24       P1  7948  0.98
      P1  H  7989  7998       L1     3  0.35

> <Gold.PLP.Chemscore.Internal.Correction>
0.0011

> <Gold.Rescore>
     Score         DG    S(hbond)    S(metal)    S(lipo)     H(rot)  DE(clash)    DE(int)     intcor
     13.90     -16.48       1.94        0.00      60.43       1.00       0.00       2.57       ----

> <Gold.Chemscore.Fitness>
13.9010

> <Gold.Chemscore.DG>
-16.4765

> <Gold.Chemscore.ZeroCoef>
-5.4800

> <Gold.Chemscore.Hbond>
1.9419

> <Gold.Chemscore.Metal>
0.0000

> <Gold.Chemscore.Lipo>
60.4331

> <Gold.Chemscore.Internal_Hbond>
0.0000

> <Gold.Chemscore.DEClash>
0.0015

> <Gold.Chemscore.DEInternal>
2.5740

> <Gold.Chemscore.Rot>
1.0000

> <Gold.Chemscore.Internal.Correction>
   9.000000E+99

> <Gold.Chemscore.Hbonds>
donor molecule, donor type, donor heavy atom, donor atom, acceptor molecule, acceptor atom, score
      L1  H     6    23       P1  7948  1.00
      L1  H     9    24       P1  7948  0.88

> <Gold.Chemscore.Hbond.Weighted>
-6.4858

> <Gold.Chemscore.Metal.Weighted>
-0.0000

> <Gold.Chemscore.Lipo.Weighted>
-7.0707

> <Gold.Chemscore.Internal_Hbond.Weighted>
0.0000

> <Gold.Chemscore.DEClash.Weighted>
0.0015

> <Gold.Chemscore.DEInternal.Weighted>
2.5740

> <Gold.Chemscore.Rot.Weighted>
2.5600

> <Gold.Chemscore.Internal.Correction.Weighted>
   9.000000E+99

> <Gold.Protein.RotatedTorsions>
[ 6907 6896 6895 6894 ] final -172.55 input  -60.11 | X-H torsion
[ 7974 7965 7964 7962 ] final  110.00 input  175.53 | X-H torsion
[ 8008 7997 7996 7995 ] final   65.49 input   59.86 | X-H torsion
[ 10167 10162 10161 10158 ] final   29.09 input  -65.29 | X-H torsion
[ 10718 10713 10712 10709 ] final  -85.49 input   66.30 | X-H torsion
[ 10763 10752 10751 10750 ] final  164.08 input  -60.55 | X-H torsion
[ 11005 11000 10999 10996 ] final  -83.06 input  -57.11 | X-H torsion

> <Gold.Protein.ActiveResidues>
 VAL166  LYS551  ARG553  GLY616  TRP617  ASP618  TYR619  PRO620  LYS621  CYS622 
 ASP623  PHE694  ASN695  SER759  ASP760  ASP761  ALA762  ILE779  LEU786  VAL792 
 PHE793  MET794  SER795  GLU796  ALA797  LYS798  CYS799  TRP800  GLU811  SER814 

> <Gold.Protein.RotatedAtoms>
  151.5417  133.3431  159.2936 H   0  0  0  0  0  0  0  0  0  0  0  0  # atno 6907 bound_to 6896
  150.8531  134.7865  159.7036 H   0  0  0  0  0  0  0  0  0  0  0  0  # atno 6908 bound_to 6896
  152.4572  134.5273  159.9852 H   0  0  0  0  0  0  0  0  0  0  0  0  # atno 6909 bound_to 6896
  145.2605  139.2704  143.4019 H   0  0  0  0  0  0  0  0  0  0  0  0  # atno 7974 bound_to 7965
  155.6626  140.3497  155.4788 H   0  0  0  0  0  0  0  0  0  0  0  0  # atno 8008 bound_to 7997
  155.9756  140.1164  157.0796 H   0  0  0  0  0  0  0  0  0  0  0  0  # atno 8009 bound_to 7997
  154.4178  140.1148  156.5352 H   0  0  0  0  0  0  0  0  0  0  0  0  # atno 8010 bound_to 7997
  140.4796  144.0636  150.6261 H   0  0  0  0  0  0  0  0  0  0  0  0  # atno 10167 bound_to 10162
  155.9996  130.4733  150.4570 H   0  0  0  0  0  0  0  0  0  0  0  0  # atno 10718 bound_to 10713
  154.3035  135.2758  155.2600 H   0  0  0  0  0  0  0  0  0  0  0  0  # atno 10763 bound_to 10752
  154.5026  135.5804  153.6546 H   0  0  0  0  0  0  0  0  0  0  0  0  # atno 10764 bound_to 10752
  152.9897  135.6161  154.3207 H   0  0  0  0  0  0  0  0  0  0  0  0  # atno 10765 bound_to 10752
  141.1660  133.7275  156.8664 H   0  0  0  0  0  0  0  0  0  0  0  0  # atno 11005 bound_to 11000
  146.3276  140.3021  142.8621 LP  0  0  0  0  0  0  0  0  0  0  0  0  # atno 17320 bound_to 7965
  144.9422  140.8090  143.5623 LP  0  0  0  0  0  0  0  0  0  0  0  0  # atno 17321 bound_to 7965
  140.3875  143.2770  152.0099 LP  0  0  0  0  0  0  0  0  0  0  0  0  # atno 17342 bound_to 10162
  139.4831  144.6105  151.7442 LP  0  0  0  0  0  0  0  0  0  0  0  0  # atno 17343 bound_to 10162
  157.2598  131.0564  151.2327 LP  0  0  0  0  0  0  0  0  0  0  0  0  # atno 17370 bound_to 10713
  157.3446  130.7051  149.6402 LP  0  0  0  0  0  0  0  0  0  0  0  0  # atno 17371 bound_to 10713
  140.1812  134.9031  157.2951 LP  0  0  0  0  0  0  0  0  0  0  0  0  # atno 17394 bound_to 11000
  140.2392  134.3815  155.7488 LP  0  0  0  0  0  0  0  0  0  0  0  0  # atno 17395 bound_to 11000

$$$$
