AV-unprocessed.smi:1352|AV-procd|sdf|5531|dock6
  -GOLD-   22720 5123D 1   1.00000     0.00000
 Structure written by MMmdl.
 47 48  0  0  0  0  0  0  0  0  2 V2000
  142.3134  138.0557  153.5589 C   0  0  0  0  0  0  0  0  0  0  0  0
  143.5175  137.1454  153.8573 C   0  0  1  0  0  0  0  0  0  0  0  0
  143.5185  135.8559  153.0158 C   0  0  0  0  0  0  0  0  0  0  0  0
  143.9117  136.1307  151.5534 C   0  0  2  0  0  0  0  0  0  0  0  0
  143.9738  134.8313  150.7380 C   0  0  0  0  0  0  0  0  0  0  0  0
  145.2472  136.8971  151.4939 C   0  0  0  0  0  0  0  0  0  0  0  0
  145.1868  138.1545  152.2830 N   0  3  2  0  0  0  0  0  0  0  0  0
  146.4018  138.9891  152.1055 C   0  0  0  0  0  0  0  0  0  0  0  0
  147.5398  138.5774  153.0596 C   0  0  0  0  0  0  0  0  0  0  0  0
  148.3204  139.7298  153.4942 N   0  0  0  0  0  0  0  0  0  0  0  0
  148.2354  140.3034  154.7041 C   0  0  0  0  0  0  0  0  0  0  0  0
  147.4524  139.9208  155.5745 O   0  0  0  0  0  0  0  0  0  0  0  0
  149.1642  141.5014  154.9493 C   0  0  0  0  0  0  0  0  0  0  0  0
  150.1580  141.2608  156.0091 N   0  0  0  0  0  0  0  0  0  0  0  0
  150.0599  142.0497  157.1724 C   0  0  0  0  0  0  0  0  0  0  0  0
  150.9132  141.9097  158.1993 C   0  0  0  0  0  0  0  0  0  0  0  0
  151.9557  140.9171  158.0898 C   0  0  0  0  0  0  0  0  0  0  0  0
  152.0567  140.1548  156.9829 C   0  0  0  0  0  0  0  0  0  0  0  0
  151.1241  140.3023  155.8594 C   0  0  0  0  0  0  0  0  0  0  0  0
  151.2053  139.6074  154.8461 O   0  0  0  0  0  0  0  0  0  0  0  0
  144.8605  137.8880  153.7098 C   0  0  0  0  0  0  0  0  0  0  0  0
  142.3316  138.4373  152.5381 H   0  0  0  0  0  0  0  0  0  0  0  0
  142.2993  138.9153  154.2296 H   0  0  0  0  0  0  0  0  0  0  0  0
  141.3738  137.5200  153.6960 H   0  0  0  0  0  0  0  0  0  0  0  0
  143.4226  136.8482  154.9025 H   0  0  0  0  0  0  0  0  0  0  0  0
  144.2266  135.1494  153.4515 H   0  0  0  0  0  0  0  0  0  0  0  0
  142.5412  135.3733  153.0633 H   0  0  0  0  0  0  0  0  0  0  0  0
  143.1417  136.7568  151.1016 H   0  0  0  0  0  0  0  0  0  0  0  0
  144.7327  134.1526  151.1282 H   0  0  0  0  0  0  0  0  0  0  0  0
  144.2133  135.0337  149.6938 H   0  0  0  0  0  0  0  0  0  0  0  0
  143.0170  134.3086  150.7600 H   0  0  0  0  0  0  0  0  0  0  0  0
  146.0629  136.2738  151.8646 H   0  0  0  0  0  0  0  0  0  0  0  0
  145.4758  137.1315  150.4532 H   0  0  0  0  0  0  0  0  0  0  0  0
  146.7312  138.9492  151.0661 H   0  0  0  0  0  0  0  0  0  0  0  0
  146.1476  140.0307  152.3065 H   0  0  0  0  0  0  0  0  0  0  0  0
  147.1398  138.0504  153.9278 H   0  0  0  0  0  0  0  0  0  0  0  0
  148.2286  137.8896  152.5710 H   0  0  0  0  0  0  0  0  0  0  0  0
  148.9866  140.1077  152.8357 H   0  0  0  0  0  0  0  0  0  0  0  0
  149.6690  141.7664  154.0182 H   0  0  0  0  0  0  0  0  0  0  0  0
  148.5454  142.3656  155.1939 H   0  0  0  0  0  0  0  0  0  0  0  0
  149.2497  142.7642  157.1784 H   0  0  0  0  0  0  0  0  0  0  0  0
  150.8200  142.5207  159.0851 H   0  0  0  0  0  0  0  0  0  0  0  0
  152.6573  140.7844  158.9003 H   0  0  0  0  0  0  0  0  0  0  0  0
  152.8425  139.4168  156.9188 H   0  0  0  0  0  0  0  0  0  0  0  0
  144.8190  138.8173  154.2766 H   0  0  0  0  0  0  0  0  0  0  0  0
  145.6614  137.2930  154.1517 H   0  0  0  0  0  0  0  0  0  0  0  0
  144.4192  138.6871  151.8989 H   0  0  0  0  0  0  0  0  0  0  0  0
  1  2  1  0  0  0  0
  1 22  1  0  0  0  0
  1 23  1  0  0  0  0
  1 24  1  0  0  0  0
  2 21  1  0  0  0  0
  2  3  1  0  0  0  0
  2 25  1  0  0  0  0
  3  4  1  0  0  0  0
  3 26  1  0  0  0  0
  3 27  1  0  0  0  0
  4  5  1  0  0  0  0
  4  6  1  0  0  0  0
  4 28  1  0  0  0  0
  5 29  1  0  0  0  0
  5 30  1  0  0  0  0
  5 31  1  0  0  0  0
  6  7  1  0  0  0  0
  6 32  1  0  0  0  0
  6 33  1  0  0  0  0
  7  8  1  0  0  0  0
  7 21  1  0  0  0  0
  7 47  1  0  0  0  0
  8  9  1  0  0  0  0
  8 34  1  0  0  0  0
  8 35  1  0  0  0  0
  9 10  1  0  0  0  0
  9 36  1  0  0  0  0
  9 37  1  0  0  0  0
 10 11  1  0  0  0  0
 10 38  1  0  0  0  0
 11 12  2  0  0  0  0
 11 13  1  0  0  0  0
 13 14  1  0  0  0  0
 13 39  1  0  0  0  0
 13 40  1  0  0  0  0
 14 19  1  0  0  0  0
 14 15  1  0  0  0  0
 15 16  2  0  0  0  0
 15 41  1  0  0  0  0
 16 17  1  0  0  0  0
 16 42  1  0  0  0  0
 17 18  2  0  0  0  0
 17 43  1  0  0  0  0
 18 19  1  0  0  0  0
 18 44  1  0  0  0  0
 19 20  2  0  0  0  0
 21 45  1  0  0  0  0
 21 46  1  0  0  0  0
M  CHG  1   7   1
M  END
> <s_m_source_file>
AV-unprocessed.smi

> <i_m_source_file_index>
1352

> <i_lp_mmshare_version>
43012

> <i_f3d_flags>
0

> <s_epik_input>
W0NIM11bQ0BASF0xW0NIMl1bQ0BASF0oW0NIM10pW0NIMl1OKFtDSDJdMSlbQ0gyXVtDSDJdW05IXUMoPU8pW0NIMl1uMltjSF1bY0hdW2NIXVtjSF1jMj1P

> <s_epik_cmdline>
J2VwaWtfcHl0aG9uJywgJy1waCcsICc3LjAnLCAnLXRuJywgJzgnLCAnLW1hJywgJzIwMCcsICctbWV0YWxfYmluZGluZycsICctaW1hZScsICc8aW5maWxlLm1hZT4nLCAnLW9tYWUnLCAnPG91dGZpbGUubWFlPic=

> <r_lp_tautomer_probability>
1

> <r_epik_Ionization_Penalty>
0.00156146

> <r_epik_Ionization_Penalty_Charging>
0.00156138

> <r_epik_Ionization_Penalty_Neutral>
8.12891e-08

> <r_epik_State_Penalty>
0.00104868

> <r_epik_Charging_Adjusted_Penalty>
0.00261006

> <i_epik_Tot_Q>
1

> <i_epik_Tot_abs_Q>
1

> <r_epik_Metal_State_Penalty>
-0

> <b_epik_Metal_Only>
0

> <s_lp_Force_Field>
OPLS_2005

> <r_lp_Energy>
27.867

> <b_lp_Chiralities_Consistent>
1

> <s_lp_Variant>
AV-unprocessed.smi:1352-4

> <Gold.Version>
5.8.1

> <Gold.Id.Protein>
6NUR|6NUR_protein|mol2

> <Gold.PLP.Fitness>
43.8110

> <Gold.PLP.PLP>
-33.4401

> <Gold.PLP.part.hbond>
-4.0000

> <Gold.PLP.part.metal>
0.0000

> <Gold.PLP.part.buried>
3.2823

> <Gold.PLP.part.nonpolar>
-32.3920

> <Gold.PLP.part.repulsive>
0.1638

> <Gold.PLP.ligand.clash>
0.0000

> <Gold.PLP.ligand.torsion>
0.5923

> <Gold.PLP.Chemscore.Hbond>
2.8394

> <Gold.PLP.Chemscore.CHOScore>
1.0000

> <Gold.PLP.Chemscore.Metal>
0.0000

> <Gold.Chemscore.Hbonds>
donor molecule, donor type, donor heavy atom, donor atom, acceptor molecule, acceptor atom, score
      L1  H     7    47       P1 10175  1.25
      L1  H    10    38       P1  7957  0.91
      P1  H  7989  7998       L1    20  1.00
      L1  C    15    41       P1  8028  0.98

> <Gold.PLP.Chemscore.Internal.Correction>
0.0371

> <Gold.Rescore>
     Score         DG    S(hbond)    S(metal)    S(lipo)     H(rot)  DE(clash)    DE(int)     intcor
     16.62     -17.84       2.54        0.00      73.17       1.83       0.39       0.83       ----

> <Gold.Chemscore.Fitness>
16.6169

> <Gold.Chemscore.DG>
-17.8374

> <Gold.Chemscore.ZeroCoef>
-5.4800

> <Gold.Chemscore.Hbond>
2.5416

> <Gold.Chemscore.Metal>
0.0000

> <Gold.Chemscore.Lipo>
73.1671

> <Gold.Chemscore.Internal_Hbond>
0.0000

> <Gold.Chemscore.DEClash>
0.3924

> <Gold.Chemscore.DEInternal>
0.8280

> <Gold.Chemscore.Rot>
1.8329

> <Gold.Chemscore.Internal.Correction>
   9.000000E+99

> <Gold.Chemscore.Hbonds>
donor molecule, donor type, donor heavy atom, donor atom, acceptor molecule, acceptor atom, score
      L1  H     7    47       P1 10175  0.60
      L1  H    10    38       P1  7957  0.90
      P1  H  7989  7998       L1    20  0.40

> <Gold.Chemscore.Hbond.Weighted>
-8.4890

> <Gold.Chemscore.Metal.Weighted>
-0.0000

> <Gold.Chemscore.Lipo.Weighted>
-8.5606

> <Gold.Chemscore.Internal_Hbond.Weighted>
0.0000

> <Gold.Chemscore.DEClash.Weighted>
0.3924

> <Gold.Chemscore.DEInternal.Weighted>
0.8280

> <Gold.Chemscore.Rot.Weighted>
4.6922

> <Gold.Chemscore.Internal.Correction.Weighted>
   9.000000E+99

> <Gold.Protein.RotatedTorsions>
[ 6907 6896 6895 6894 ] final  -36.52 input  -60.11 | X-H torsion
[ 7974 7965 7964 7962 ] final   -0.56 input  175.53 | X-H torsion
[ 8008 7997 7996 7995 ] final  -86.62 input   59.86 | X-H torsion
[ 10167 10162 10161 10158 ] final   38.68 input  -65.29 | X-H torsion
[ 10718 10713 10712 10709 ] final  139.72 input   66.30 | X-H torsion
[ 10763 10752 10751 10750 ] final -158.19 input  -60.55 | X-H torsion
[ 11005 11000 10999 10996 ] final  171.83 input  -57.11 | X-H torsion

> <Gold.Protein.ActiveResidues>
 VAL166  LYS551  ARG553  GLY616  TRP617  ASP618  TYR619  PRO620  LYS621  CYS622 
 ASP623  PHE694  ASN695  SER759  ASP760  ASP761  ALA762  ILE779  LEU786  VAL792 
 PHE793  MET794  SER795  GLU796  ALA797  LYS798  CYS799  TRP800  GLU811  SER814 

> <Gold.Protein.RotatedAtoms>
  151.0261  134.9505  159.8085 H   0  0  0  0  0  0  0  0  0  0  0  0  # atno 6907 bound_to 6896
  152.5335  134.2841  159.9028 H   0  0  0  0  0  0  0  0  0  0  0  0  # atno 6908 bound_to 6896
  151.2849  133.4150  159.2663 H   0  0  0  0  0  0  0  0  0  0  0  0  # atno 6909 bound_to 6896
  146.2426  140.1288  142.8338 H   0  0  0  0  0  0  0  0  0  0  0  0  # atno 7974 bound_to 7965
  154.6540  140.0576  156.9987 H   0  0  0  0  0  0  0  0  0  0  0  0  # atno 8008 bound_to 7997
  155.1328  140.3258  155.4451 H   0  0  0  0  0  0  0  0  0  0  0  0  # atno 8009 bound_to 7997
  156.2589  140.1977  156.6447 H   0  0  0  0  0  0  0  0  0  0  0  0  # atno 8010 bound_to 7997
  140.3913  144.1849  150.6131 H   0  0  0  0  0  0  0  0  0  0  0  0  # atno 10167 bound_to 10162
  157.4113  131.1028  151.0451 H   0  0  0  0  0  0  0  0  0  0  0  0  # atno 10718 bound_to 10713
  154.7577  135.3109  154.8439 H   0  0  0  0  0  0  0  0  0  0  0  0  # atno 10763 bound_to 10752
  153.9208  135.6796  153.4752 H   0  0  0  0  0  0  0  0  0  0  0  0  # atno 10764 bound_to 10752
  153.1175  135.4838  154.9070 H   0  0  0  0  0  0  0  0  0  0  0  0  # atno 10765 bound_to 10752
  140.3232  134.7419  157.4080 H   0  0  0  0  0  0  0  0  0  0  0  0  # atno 11005 bound_to 11000
  145.0344  140.8896  143.5090 LP  0  0  0  0  0  0  0  0  0  0  0  0  # atno 17320 bound_to 7965
  145.1358  139.2603  143.5516 LP  0  0  0  0  0  0  0  0  0  0  0  0  # atno 17321 bound_to 7965
  140.4837  143.2370  151.8919 LP  0  0  0  0  0  0  0  0  0  0  0  0  # atno 17342 bound_to 10162
  139.4789  144.5242  151.8759 LP  0  0  0  0  0  0  0  0  0  0  0  0  # atno 17343 bound_to 10162
  157.1415  130.6145  149.5556 LP  0  0  0  0  0  0  0  0  0  0  0  0  # atno 17370 bound_to 10713
  155.9851  130.4880  150.7017 LP  0  0  0  0  0  0  0  0  0  0  0  0  # atno 17371 bound_to 10713
  140.0924  134.5584  155.8432 LP  0  0  0  0  0  0  0  0  0  0  0  0  # atno 17394 bound_to 11000
  141.2081  133.6671  156.6352 LP  0  0  0  0  0  0  0  0  0  0  0  0  # atno 17395 bound_to 11000

$$$$
