AV-unprocessed.smi:3149|AV-procd|sdf|12001|dock7
  -GOLD-   2272017403D 1   1.00000     0.00000
 Structure written by MMmdl.
 38 39  0  0  0  0  0  0  0  0  2 V2000
  147.9935  141.0098  154.6541 C   0  0  0  0  0  0  0  0  0  0  0  0
  148.8175  141.3566  155.9126 C   0  0  2  0  0  0  0  0  0  0  0  0
  149.8887  142.3218  155.5747 N   0  3  0  0  0  0  0  0  0  0  0  0
  151.0222  142.3720  156.5227 C   0  0  0  0  0  0  0  0  0  0  0  0
  150.5627  142.7768  157.9267 C   0  0  0  0  0  0  0  0  0  0  0  0
  149.8019  142.0529  158.5701 O   0  0  0  0  0  0  0  0  0  0  0  0
  150.9562  144.0321  158.3953 N   0  0  0  0  0  0  0  0  0  0  0  0
  151.2552  144.2624  159.8010 C   0  0  0  0  0  0  0  0  0  0  0  0
  152.2388  145.3274  159.3052 C   0  0  0  0  0  0  0  0  0  0  0  0
  152.1842  144.6578  157.9282 C   0  0  0  0  0  0  0  0  0  0  0  0
  149.4372  140.1064  156.5936 C   0  0  1  0  0  0  0  0  0  0  0  0
  148.3672  139.1208  157.1032 C   0  0  0  0  0  0  0  0  0  0  0  0
  150.3800  139.4137  155.7242 N   0  0  0  0  0  0  0  0  0  0  0  0
  151.7580  139.3999  155.7974 C   0  0  0  0  0  0  0  0  0  0  0  0
  152.2139  138.6225  154.7719 C   0  0  0  0  0  0  0  0  0  0  0  0
  151.0258  138.1936  154.1179 C   0  0  0  0  0  0  0  0  0  0  0  0
  149.9304  138.6672  154.6896 N   0  0  0  0  0  0  0  0  0  0  0  0
  147.1536  140.3554  154.8873 H   0  0  0  0  0  0  0  0  0  0  0  0
  148.6073  140.5062  153.9068 H   0  0  0  0  0  0  0  0  0  0  0  0
  147.5686  141.8991  154.1897 H   0  0  0  0  0  0  0  0  0  0  0  0
  148.1503  141.8316  156.6339 H   0  0  0  0  0  0  0  0  0  0  0  0
  150.2713  142.0509  154.6798 H   0  0  0  0  0  0  0  0  0  0  0  0
  151.5085  141.3974  156.5644 H   0  0  0  0  0  0  0  0  0  0  0  0
  151.7595  143.0968  156.1759 H   0  0  0  0  0  0  0  0  0  0  0  0
  150.4159  144.6537  160.3769 H   0  0  0  0  0  0  0  0  0  0  0  0
  151.7474  143.4192  160.2894 H   0  0  0  0  0  0  0  0  0  0  0  0
  151.8236  146.3369  159.3121 H   0  0  0  0  0  0  0  0  0  0  0  0
  153.2182  145.2890  159.7832 H   0  0  0  0  0  0  0  0  0  0  0  0
  153.0011  143.9525  157.7612 H   0  0  0  0  0  0  0  0  0  0  0  0
  152.0426  145.3449  157.0933 H   0  0  0  0  0  0  0  0  0  0  0  0
  150.0086  140.4460  157.4595 H   0  0  0  0  0  0  0  0  0  0  0  0
  147.7273  139.5769  157.8588 H   0  0  0  0  0  0  0  0  0  0  0  0
  148.8293  138.2447  157.5593 H   0  0  0  0  0  0  0  0  0  0  0  0
  147.7254  138.7720  156.2934 H   0  0  0  0  0  0  0  0  0  0  0  0
  152.2949  139.9406  156.5630 H   0  0  0  0  0  0  0  0  0  0  0  0
  153.2405  138.3938  154.5266 H   0  0  0  0  0  0  0  0  0  0  0  0
  150.9271  137.5572  153.2508 H   0  0  0  0  0  0  0  0  0  0  0  0
  149.4893  143.2447  155.4810 H   0  0  0  0  0  0  0  0  0  0  0  0
  1  2  1  0  0  0  0
  1 18  1  0  0  0  0
  1 19  1  0  0  0  0
  1 20  1  0  0  0  0
  2  3  1  0  0  0  0
  2 11  1  0  0  0  0
  2 21  1  0  0  0  0
  3  4  1  0  0  0  0
  3 22  1  0  0  0  0
  3 38  1  0  0  0  0
  4  5  1  0  0  0  0
  4 23  1  0  0  0  0
  4 24  1  0  0  0  0
  5  6  2  0  0  0  0
  5  7  1  0  0  0  0
  7 10  1  0  0  0  0
  7  8  1  0  0  0  0
  8  9  1  0  0  0  0
  8 25  1  0  0  0  0
  8 26  1  0  0  0  0
  9 10  1  0  0  0  0
  9 27  1  0  0  0  0
  9 28  1  0  0  0  0
 10 29  1  0  0  0  0
 10 30  1  0  0  0  0
 11 12  1  0  0  0  0
 11 13  1  0  0  0  0
 11 31  1  0  0  0  0
 12 32  1  0  0  0  0
 12 33  1  0  0  0  0
 12 34  1  0  0  0  0
 13 17  1  0  0  0  0
 13 14  1  0  0  0  0
 14 15  2  0  0  0  0
 14 35  1  0  0  0  0
 15 16  1  0  0  0  0
 15 36  1  0  0  0  0
 16 17  2  0  0  0  0
 16 37  1  0  0  0  0
M  CHG  1   3   1
M  END
> <s_m_source_file>
AV-unprocessed.smi

> <i_m_source_file_index>
3149

> <i_lp_mmshare_version>
43012

> <i_f3d_flags>
0

> <s_epik_input>
bjFbY0hdW2NIXVtjSF1uMVtDQEBIXShbQ0gzXSlbQ0BIXShbQ0gzXSlbTkhdW0NIMl1DKD1PKU4yW0NIMl1bQ0gyXVtDSDJdMg==

> <s_epik_cmdline>
J2VwaWtfcHl0aG9uJywgJy1waCcsICc3LjAnLCAnLXRuJywgJzgnLCAnLW1hJywgJzIwMCcsICctbWV0YWxfYmluZGluZycsICctaW1hZScsICc8aW5maWxlLm1hZT4nLCAnLW9tYWUnLCAnPG91dGZpbGUubWFlPic=

> <r_lp_tautomer_probability>
1

> <r_epik_Ionization_Penalty>
0.141739

> <r_epik_Ionization_Penalty_Charging>
0.141731

> <r_epik_Ionization_Penalty_Neutral>
8.82171e-06

> <r_epik_State_Penalty>
0.131043

> <r_epik_Charging_Adjusted_Penalty>
0.272773

> <i_epik_Tot_Q>
1

> <i_epik_Tot_abs_Q>
1

> <r_epik_Metal_State_Penalty>
0.131384

> <b_epik_Metal_Only>
0

> <s_lp_Force_Field>
OPLS_2005

> <r_lp_Energy>
21.3939

> <b_lp_Chiralities_Consistent>
1

> <s_lp_Variant>
AV-unprocessed.smi:3149-3

> <Gold.Version>
5.8.1

> <Gold.Id.Protein>
6NUR|6NUR_protein|mol2

> <Gold.PLP.Fitness>
44.9508

> <Gold.PLP.PLP>
-36.5867

> <Gold.PLP.part.hbond>
-1.2850

> <Gold.PLP.part.metal>
0.0000

> <Gold.PLP.part.buried>
-6.1349

> <Gold.PLP.part.nonpolar>
-29.0936

> <Gold.PLP.part.repulsive>
0.4102

> <Gold.PLP.ligand.clash>
0.0000

> <Gold.PLP.ligand.torsion>
0.9634

> <Gold.PLP.Chemscore.Hbond>
2.0000

> <Gold.PLP.Chemscore.CHOScore>
1.1222

> <Gold.PLP.Chemscore.Metal>
0.0000

> <Gold.Chemscore.Hbonds>
donor molecule, donor type, donor heavy atom, donor atom, acceptor molecule, acceptor atom, score
      L1  H     3    38       P1  8028  2.00
      L1  C    16    37       P1  7948  0.14
      L1  C    16    37       P1  7949  0.98

> <Gold.PLP.Chemscore.Internal.Correction>
0.9241

> <Gold.Rescore>
     Score         DG    S(hbond)    S(metal)    S(lipo)     H(rot)  DE(clash)    DE(int)     intcor
     11.50     -14.30       1.00        0.00      87.55       1.85       0.24       2.56       ----

> <Gold.Chemscore.Fitness>
11.5006

> <Gold.Chemscore.DG>
-14.3001

> <Gold.Chemscore.ZeroCoef>
-5.4800

> <Gold.Chemscore.Hbond>
0.9952

> <Gold.Chemscore.Metal>
0.0000

> <Gold.Chemscore.Lipo>
87.5495

> <Gold.Chemscore.Internal_Hbond>
0.0000

> <Gold.Chemscore.DEClash>
0.2419

> <Gold.Chemscore.DEInternal>
2.5576

> <Gold.Chemscore.Rot>
1.8544

> <Gold.Chemscore.Internal.Correction>
   9.000000E+99

> <Gold.Chemscore.Hbonds>
donor molecule, donor type, donor heavy atom, donor atom, acceptor molecule, acceptor atom, score
      L1  H     3    38       P1  8028  0.99

> <Gold.Chemscore.Hbond.Weighted>
-3.3240

> <Gold.Chemscore.Metal.Weighted>
-0.0000

> <Gold.Chemscore.Lipo.Weighted>
-10.2433

> <Gold.Chemscore.Internal_Hbond.Weighted>
0.0000

> <Gold.Chemscore.DEClash.Weighted>
0.2419

> <Gold.Chemscore.DEInternal.Weighted>
2.5576

> <Gold.Chemscore.Rot.Weighted>
4.7472

> <Gold.Chemscore.Internal.Correction.Weighted>
   9.000000E+99

> <Gold.Protein.RotatedTorsions>
[ 6907 6896 6895 6894 ] final   30.69 input  -60.11 | X-H torsion
[ 7974 7965 7964 7962 ] final   27.91 input  175.53 | X-H torsion
[ 8008 7997 7996 7995 ] final  173.18 input   59.86 | X-H torsion
[ 10167 10162 10161 10158 ] final  -60.61 input  -65.29 | X-H torsion
[ 10718 10713 10712 10709 ] final   70.33 input   66.30 | X-H torsion
[ 10763 10752 10751 10750 ] final -158.46 input  -60.55 | X-H torsion
[ 11005 11000 10999 10996 ] final   16.42 input  -57.11 | X-H torsion

> <Gold.Protein.ActiveResidues>
 VAL166  LYS551  ARG553  GLY616  TRP617  ASP618  TYR619  PRO620  LYS621  CYS622 
 ASP623  PHE694  ASN695  SER759  ASP760  ASP761  ALA762  ILE779  LEU786  VAL792 
 PHE793  MET794  SER795  GLU796  ALA797  LYS798  CYS799  TRP800  GLU811  SER814 

> <Gold.Protein.RotatedAtoms>
  152.0496  134.9662  160.0574 H   0  0  0  0  0  0  0  0  0  0  0  0  # atno 6907 bound_to 6896
  152.1068  133.4274  159.4620 H   0  0  0  0  0  0  0  0  0  0  0  0  # atno 6908 bound_to 6896
  150.6841  134.2614  159.4594 H   0  0  0  0  0  0  0  0  0  0  0  0  # atno 6909 bound_to 6896
  146.1758  139.7127  142.8935 H   0  0  0  0  0  0  0  0  0  0  0  0  # atno 7974 bound_to 7965
  156.1101  140.1467  156.9350 H   0  0  0  0  0  0  0  0  0  0  0  0  # atno 8008 bound_to 7997
  154.4761  140.0894  156.7309 H   0  0  0  0  0  0  0  0  0  0  0  0  # atno 8009 bound_to 7997
  155.4611  140.3438  155.4315 H   0  0  0  0  0  0  0  0  0  0  0  0  # atno 8010 bound_to 7997
  140.6060  143.2373  151.5820 H   0  0  0  0  0  0  0  0  0  0  0  0  # atno 10167 bound_to 10162
  157.6394  130.9472  150.0636 H   0  0  0  0  0  0  0  0  0  0  0  0  # atno 10718 bound_to 10713
  154.7554  135.3103  154.8479 H   0  0  0  0  0  0  0  0  0  0  0  0  # atno 10763 bound_to 10752
  153.9254  135.6791  153.4751 H   0  0  0  0  0  0  0  0  0  0  0  0  # atno 10764 bound_to 10752
  153.1152  135.4848  154.9032 H   0  0  0  0  0  0  0  0  0  0  0  0  # atno 10765 bound_to 10752
  140.4473  134.1260  155.7698 H   0  0  0  0  0  0  0  0  0  0  0  0  # atno 11005 bound_to 11000
  145.4215  141.0407  143.2961 LP  0  0  0  0  0  0  0  0  0  0  0  0  # atno 17320 bound_to 7965
  144.8234  139.5752  143.6976 LP  0  0  0  0  0  0  0  0  0  0  0  0  # atno 17321 bound_to 7965
  139.5325  144.2875  152.1179 LP  0  0  0  0  0  0  0  0  0  0  0  0  # atno 17342 bound_to 10162
  140.2064  144.4606  150.6406 LP  0  0  0  0  0  0  0  0  0  0  0  0  # atno 17343 bound_to 10162
  156.1661  130.3645  149.9230 LP  0  0  0  0  0  0  0  0  0  0  0  0  # atno 17370 bound_to 10713
  156.7217  130.9009  151.3618 LP  0  0  0  0  0  0  0  0  0  0  0  0  # atno 17371 bound_to 10713
  141.1679  133.8666  157.1659 LP  0  0  0  0  0  0  0  0  0  0  0  0  # atno 17394 bound_to 11000
  140.0030  135.0020  157.0231 LP  0  0  0  0  0  0  0  0  0  0  0  0  # atno 17395 bound_to 11000

$$$$
