AV-unprocessed.smi:2119|AV-procd|sdf|8631|dock7
  -GOLD-   2272011373D 1   1.00000     0.00000
 Structure written by MMmdl.
 47 49  0  0  0  0  0  0  0  0  1 V2000
  144.8264  137.2819  151.8616 O   0  0  0  0  0  0  0  0  0  0  0  0
  146.0197  136.9839  151.9006 C   0  0  0  0  0  0  0  0  0  0  0  0
  146.9905  137.8695  152.1579 N   0  0  0  0  0  0  0  0  0  0  0  0
  146.7669  139.2837  152.4339 C   0  0  0  0  0  0  0  0  0  0  0  0
  147.2925  139.6844  153.8379 C   0  0  1  0  0  0  0  0  0  0  0  0
  148.8524  139.7060  153.9020 C   0  0  2  0  0  0  0  0  0  0  0  0
  149.5524  138.3897  154.2544 C   0  0  0  0  0  0  0  0  0  0  0  0
  150.5382  138.7804  155.3552 C   0  0  0  0  0  0  0  0  0  0  0  0
  150.7666  140.1638  155.1426 O   0  0  0  0  0  0  0  0  0  0  0  0
  149.5123  140.7443  154.8242 C   0  0  0  0  0  0  0  0  0  0  0  0
  146.6199  140.8525  154.4423 N   0  0  0  0  0  0  0  0  0  0  0  0
  145.2583  140.5693  154.8920 C   0  0  0  0  0  0  0  0  0  0  0  0
  144.6476  141.7615  155.6460 C   0  0  0  0  0  0  0  0  0  0  0  0
  144.6702  142.9102  154.8062 O   0  0  0  0  0  0  0  0  0  0  0  0
  145.9864  143.2564  154.3888 C   0  0  0  0  0  0  0  0  0  0  0  0
  146.6323  142.0755  153.6420 C   0  0  0  0  0  0  0  0  0  0  0  0
  146.5281  135.7589  151.6821 N   0  0  0  0  0  0  0  0  0  0  0  0
  145.8455  134.5435  151.4019 C   0  0  0  0  0  0  0  0  0  0  0  0
  144.5184  134.4599  150.9136 C   0  0  0  0  0  0  0  0  0  0  0  0
  143.9537  133.1887  150.6934 C   0  0  0  0  0  0  0  0  0  0  0  0
  144.7307  132.0488  150.9754 C   0  0  0  0  0  0  0  0  0  0  0  0
  145.9919  132.1125  151.4513 N   0  0  0  0  0  0  0  0  0  0  0  0
  146.5268  133.3345  151.6593 C   0  0  0  0  0  0  0  0  0  0  0  0
  147.9469  137.5462  152.1654 H   0  0  0  0  0  0  0  0  0  0  0  0
  147.2472  139.8848  151.6605 H   0  0  0  0  0  0  0  0  0  0  0  0
  145.6957  139.4629  152.3489 H   0  0  0  0  0  0  0  0  0  0  0  0
  147.0289  138.8466  154.4855 H   0  0  0  0  0  0  0  0  0  0  0  0
  149.1983  139.9568  152.8979 H   0  0  0  0  0  0  0  0  0  0  0  0
  148.8886  137.5920  154.5865 H   0  0  0  0  0  0  0  0  0  0  0  0
  150.0908  138.0153  153.3827 H   0  0  0  0  0  0  0  0  0  0  0  0
  150.0932  138.6359  156.3408 H   0  0  0  0  0  0  0  0  0  0  0  0
  151.4651  138.2081  155.3127 H   0  0  0  0  0  0  0  0  0  0  0  0
  149.6450  141.7090  154.3340 H   0  0  0  0  0  0  0  0  0  0  0  0
  148.9523  140.9197  155.7404 H   0  0  0  0  0  0  0  0  0  0  0  0
  144.6176  140.3369  154.0417 H   0  0  0  0  0  0  0  0  0  0  0  0
  145.2541  139.6927  155.5406 H   0  0  0  0  0  0  0  0  0  0  0  0
  143.6169  141.5448  155.9269 H   0  0  0  0  0  0  0  0  0  0  0  0
  145.1976  141.9608  156.5669 H   0  0  0  0  0  0  0  0  0  0  0  0
  145.9367  144.1318  153.7410 H   0  0  0  0  0  0  0  0  0  0  0  0
  146.5861  143.5355  155.2566 H   0  0  0  0  0  0  0  0  0  0  0  0
  147.6530  142.3606  153.4010 H   0  0  0  0  0  0  0  0  0  0  0  0
  146.1081  141.9142  152.6994 H   0  0  0  0  0  0  0  0  0  0  0  0
  147.5357  135.6939  151.6825 H   0  0  0  0  0  0  0  0  0  0  0  0
  143.9178  135.3336  150.7163 H   0  0  0  0  0  0  0  0  0  0  0  0
  142.9449  133.0899  150.3212 H   0  0  0  0  0  0  0  0  0  0  0  0
  144.3265  131.0595  150.8191 H   0  0  0  0  0  0  0  0  0  0  0  0
  147.5366  133.3464  152.0433 H   0  0  0  0  0  0  0  0  0  0  0  0
  1  2  2  0  0  0  0
  2  3  1  0  0  0  0
  2 17  1  0  0  0  0
  3  4  1  0  0  0  0
  3 24  1  0  0  0  0
  4  5  1  0  0  0  0
  4 25  1  0  0  0  0
  4 26  1  0  0  0  0
  5  6  1  0  0  0  0
  5 11  1  0  0  0  0
  5 27  1  0  0  0  0
  6 10  1  0  0  0  0
  6  7  1  0  0  0  0
  6 28  1  0  0  0  0
  7  8  1  0  0  0  0
  7 29  1  0  0  0  0
  7 30  1  0  0  0  0
  8  9  1  0  0  0  0
  8 31  1  0  0  0  0
  8 32  1  0  0  0  0
  9 10  1  0  0  0  0
 10 33  1  0  0  0  0
 10 34  1  0  0  0  0
 11 16  1  0  0  0  0
 11 12  1  0  0  0  0
 12 13  1  0  0  0  0
 12 35  1  0  0  0  0
 12 36  1  0  0  0  0
 13 14  1  0  0  0  0
 13 37  1  0  0  0  0
 13 38  1  0  0  0  0
 14 15  1  0  0  0  0
 15 16  1  0  0  0  0
 15 39  1  0  0  0  0
 15 40  1  0  0  0  0
 16 41  1  0  0  0  0
 16 42  1  0  0  0  0
 17 18  1  0  0  0  0
 17 43  1  0  0  0  0
 18 23  1  0  0  0  0
 18 19  2  0  0  0  0
 19 20  1  0  0  0  0
 19 44  1  0  0  0  0
 20 21  2  0  0  0  0
 20 45  1  0  0  0  0
 21 22  1  0  0  0  0
 21 46  1  0  0  0  0
 22 23  2  0  0  0  0
 23 47  1  0  0  0  0
M  END
> <s_m_source_file>
AV-unprocessed.smi

> <i_m_source_file_index>
2119

> <i_lp_mmshare_version>
43012

> <i_f3d_flags>
0

> <s_epik_input>
W2NIXTFuW2NIXVtjSF1bY0hdYzFbTkhdQyg9TylbTkhdW0NIMl1bQ0BIXShbQ0BASF0yW0NIMl1bQ0gyXU9bQ0gyXTIpTjNbQ0gyXVtDSDJdT1tDSDJdW0NIMl0z

> <s_epik_cmdline>
J2VwaWtfcHl0aG9uJywgJy1waCcsICc3LjAnLCAnLXRuJywgJzgnLCAnLW1hJywgJzIwMCcsICctbWV0YWxfYmluZGluZycsICctaW1hZScsICc8aW5maWxlLm1hZT4nLCAnLW9tYWUnLCAnPG91dGZpbGUubWFlPic=

> <r_epik_Ionization_Penalty>
0.129787

> <r_epik_Ionization_Penalty_Charging>
0

> <r_epik_Ionization_Penalty_Neutral>
0.129787

> <r_epik_State_Penalty>
0.121311

> <r_epik_Charging_Adjusted_Penalty>
0.121311

> <i_epik_Tot_Q>
0

> <i_epik_Tot_abs_Q>
0

> <r_epik_Metal_State_Penalty>
0.117931

> <b_epik_Metal_Only>
0

> <s_lp_Force_Field>
OPLS_2005

> <r_lp_Energy>
56.2921

> <b_lp_Chiralities_Consistent>
1

> <s_lp_Variant>
AV-unprocessed.smi:2119-2

> <Gold.Version>
5.8.1

> <Gold.Id.Protein>
6NUR|6NUR_protein|mol2

> <Gold.PLP.Fitness>
41.7843

> <Gold.PLP.PLP>
-35.6663

> <Gold.PLP.part.hbond>
-3.0000

> <Gold.PLP.part.metal>
0.0000

> <Gold.PLP.part.buried>
-2.5041

> <Gold.PLP.part.nonpolar>
-31.8515

> <Gold.PLP.part.repulsive>
1.7167

> <Gold.PLP.ligand.clash>
0.0000

> <Gold.PLP.ligand.torsion>
1.5414

> <Gold.PLP.Chemscore.Hbond>
2.9440

> <Gold.PLP.Chemscore.CHOScore>
0.0000

> <Gold.PLP.Chemscore.Metal>
0.0000

> <Gold.Chemscore.Hbonds>
donor molecule, donor type, donor heavy atom, donor atom, acceptor molecule, acceptor atom, score
      L1  H     3    24       P1  7948  0.90
      L1  H    17    43       P1  7948  0.89
      P1  H  7989  7998       L1     9  0.65

> <Gold.PLP.Chemscore.Internal.Correction>
0.3688

> <Gold.Rescore>
     Score         DG    S(hbond)    S(metal)    S(lipo)     H(rot)  DE(clash)    DE(int)     intcor
     16.57     -20.28       2.60        0.00      88.50       1.65       2.33       1.38       ----

> <Gold.Chemscore.Fitness>
16.5711

> <Gold.Chemscore.DG>
-20.2805

> <Gold.Chemscore.ZeroCoef>
-5.4800

> <Gold.Chemscore.Hbond>
2.5966

> <Gold.Chemscore.Metal>
0.0000

> <Gold.Chemscore.Lipo>
88.4963

> <Gold.Chemscore.Internal_Hbond>
0.0000

> <Gold.Chemscore.DEClash>
2.3259

> <Gold.Chemscore.DEInternal>
1.3835

> <Gold.Chemscore.Rot>
1.6508

> <Gold.Chemscore.Internal.Correction>
   9.000000E+99

> <Gold.Chemscore.Hbonds>
donor molecule, donor type, donor heavy atom, donor atom, acceptor molecule, acceptor atom, score
      L1  H     3    24       P1  7948  0.88
      L1  H    17    43       P1  7948  0.84
      P1  H  7989  7998       L1     9  0.05

> <Gold.Chemscore.Hbond.Weighted>
-8.6726

> <Gold.Chemscore.Metal.Weighted>
-0.0000

> <Gold.Chemscore.Lipo.Weighted>
-10.3541

> <Gold.Chemscore.Internal_Hbond.Weighted>
0.0000

> <Gold.Chemscore.DEClash.Weighted>
2.3259

> <Gold.Chemscore.DEInternal.Weighted>
1.3835

> <Gold.Chemscore.Rot.Weighted>
4.2262

> <Gold.Chemscore.Internal.Correction.Weighted>
   9.000000E+99

> <Gold.Protein.RotatedTorsions>
[ 6907 6896 6895 6894 ] final    3.90 input  -60.11 | X-H torsion
[ 7974 7965 7964 7962 ] final   -0.94 input  175.53 | X-H torsion
[ 8008 7997 7996 7995 ] final  169.86 input   59.86 | X-H torsion
[ 10167 10162 10161 10158 ] final  136.49 input  -65.29 | X-H torsion
[ 10718 10713 10712 10709 ] final -132.20 input   66.30 | X-H torsion
[ 10763 10752 10751 10750 ] final -173.21 input  -60.55 | X-H torsion
[ 11005 11000 10999 10996 ] final -129.17 input  -57.11 | X-H torsion

> <Gold.Protein.ActiveResidues>
 VAL166  LYS551  ARG553  GLY616  TRP617  ASP618  TYR619  PRO620  LYS621  CYS622 
 ASP623  PHE694  ASN695  SER759  ASP760  ASP761  ALA762  ILE779  LEU786  VAL792 
 PHE793  MET794  SER795  GLU796  ALA797  LYS798  CYS799  TRP800  GLU811  SER814 

> <Gold.Protein.RotatedAtoms>
  151.6325  135.1021  160.0124 H   0  0  0  0  0  0  0  0  0  0  0  0  # atno 6907 bound_to 6896
  152.4098  133.6942  159.6397 H   0  0  0  0  0  0  0  0  0  0  0  0  # atno 6908 bound_to 6896
  150.7990  133.8561  159.3259 H   0  0  0  0  0  0  0  0  0  0  0  0  # atno 6909 bound_to 6896
  146.2422  140.1345  142.8337 H   0  0  0  0  0  0  0  0  0  0  0  0  # atno 7974 bound_to 7965
  156.1418  140.1553  156.8908 H   0  0  0  0  0  0  0  0  0  0  0  0  # atno 8008 bound_to 7997
  154.4994  140.0829  156.7804 H   0  0  0  0  0  0  0  0  0  0  0  0  # atno 8009 bound_to 7997
  155.4063  140.3417  155.4262 H   0  0  0  0  0  0  0  0  0  0  0  0  # atno 8010 bound_to 7997
  139.5178  144.6461  151.5434 H   0  0  0  0  0  0  0  0  0  0  0  0  # atno 10167 bound_to 10162
  156.2322  130.7044  151.0870 H   0  0  0  0  0  0  0  0  0  0  0  0  # atno 10718 bound_to 10713
  154.6104  135.2864  155.0438 H   0  0  0  0  0  0  0  0  0  0  0  0  # atno 10763 bound_to 10752
  154.1670  135.6479  153.5004 H   0  0  0  0  0  0  0  0  0  0  0  0  # atno 10764 bound_to 10752
  153.0193  135.5392  154.6856 H   0  0  0  0  0  0  0  0  0  0  0  0  # atno 10765 bound_to 10752
  140.9454  134.1137  157.4112 H   0  0  0  0  0  0  0  0  0  0  0  0  # atno 11005 bound_to 11000
  145.0298  140.8861  143.5116 LP  0  0  0  0  0  0  0  0  0  0  0  0  # atno 17320 bound_to 7965
  145.1408  139.2574  143.5491 LP  0  0  0  0  0  0  0  0  0  0  0  0  # atno 17321 bound_to 7965
  140.6247  143.9191  150.6555 LP  0  0  0  0  0  0  0  0  0  0  0  0  # atno 17342 bound_to 10162
  140.2476  143.3617  152.1433 LP  0  0  0  0  0  0  0  0  0  0  0  0  # atno 17343 bound_to 10162
  157.7138  131.0720  150.6403 LP  0  0  0  0  0  0  0  0  0  0  0  0  # atno 17370 bound_to 10713
  156.6472  130.4475  149.5732 LP  0  0  0  0  0  0  0  0  0  0  0  0  # atno 17371 bound_to 10713
  139.8832  135.0050  156.6283 LP  0  0  0  0  0  0  0  0  0  0  0  0  # atno 17394 bound_to 11000
  140.7676  133.8765  155.8467 LP  0  0  0  0  0  0  0  0  0  0  0  0  # atno 17395 bound_to 11000

$$$$
