AV-unprocessed.smi:352|AV-procd|sdf|2401|dock2
  -GOLD-   2262022333D 1   1.00000     0.00000
 Structure written by MMmdl.
 45 46  0  0  0  0  0  0  0  0  2 V2000
  143.6663  132.5878  149.4024 C   0  0  0  0  0  0  0  0  0  0  0  0
  144.2167  133.5373  150.4104 C   0  0  0  0  0  0  0  0  0  0  0  0
  145.4424  134.1210  150.5651 C   0  0  0  0  0  0  0  0  0  0  0  0
  145.2730  134.9124  151.7384 C   0  0  0  0  0  0  0  0  0  0  0  0
  146.2544  135.7376  152.3459 N   0  0  0  0  0  0  0  0  0  0  0  0
  146.1182  136.5572  153.4018 C   0  0  0  0  0  0  0  0  0  0  0  0
  145.0734  136.7564  154.0198 O   0  0  0  0  0  0  0  0  0  0  0  0
  147.2843  137.1413  153.7136 N   0  0  0  0  0  0  0  0  0  0  0  0
  147.4996  138.0896  154.8077 C   0  0  0  0  0  0  0  0  0  0  0  0
  148.9759  138.5963  154.9217 C   0  0  0  0  0  0  0  0  0  0  0  0
  149.8982  137.5027  154.4321 N   0  3  0  0  0  0  0  0  0  0  0  0
  149.7760  136.1807  155.1001 C   0  0  0  0  0  0  0  0  0  0  0  0
  151.3297  137.8865  154.3122 C   0  0  0  0  0  0  0  0  0  0  0  0
  149.1473  139.8932  154.0739 C   0  0  0  0  0  0  0  0  0  0  0  0
  148.3442  141.0955  154.6071 C   0  0  0  0  0  0  0  0  0  0  0  0
  148.6779  141.3962  156.0740 C   0  0  0  0  0  0  0  0  0  0  0  0
  148.4831  140.1549  156.9541 C   0  0  0  0  0  0  0  0  0  0  0  0
  149.2926  138.9634  156.4095 C   0  0  0  0  0  0  0  0  0  0  0  0
  144.0580  134.8169  152.2457 N   0  0  0  0  0  0  0  0  0  0  0  0
  143.3736  133.9358  151.4006 O   0  0  0  0  0  0  0  0  0  0  0  0
  144.3222  132.5188  148.5344 H   0  0  0  0  0  0  0  0  0  0  0  0
  142.6845  132.9135  149.0581 H   0  0  0  0  0  0  0  0  0  0  0  0
  143.5629  131.5900  149.8287 H   0  0  0  0  0  0  0  0  0  0  0  0
  146.3068  133.9899  149.9317 H   0  0  0  0  0  0  0  0  0  0  0  0
  147.1735  135.6843  151.9324 H   0  0  0  0  0  0  0  0  0  0  0  0
  148.0841  136.9293  153.1351 H   0  0  0  0  0  0  0  0  0  0  0  0
  146.8278  138.9283  154.6295 H   0  0  0  0  0  0  0  0  0  0  0  0
  147.1370  137.6653  155.7427 H   0  0  0  0  0  0  0  0  0  0  0  0
  149.9117  136.2585  156.1787 H   0  0  0  0  0  0  0  0  0  0  0  0
  150.5283  135.4865  154.7235 H   0  0  0  0  0  0  0  0  0  0  0  0
  148.8133  135.7129  154.8964 H   0  0  0  0  0  0  0  0  0  0  0  0
  151.7938  138.0096  155.2910 H   0  0  0  0  0  0  0  0  0  0  0  0
  151.4726  138.8043  153.7449 H   0  0  0  0  0  0  0  0  0  0  0  0
  151.8844  137.1096  153.7853 H   0  0  0  0  0  0  0  0  0  0  0  0
  150.1989  140.1779  154.0386 H   0  0  0  0  0  0  0  0  0  0  0  0
  148.8483  139.7207  153.0400 H   0  0  0  0  0  0  0  0  0  0  0  0
  148.5566  141.9747  153.9982 H   0  0  0  0  0  0  0  0  0  0  0  0
  147.2749  140.9114  154.5029 H   0  0  0  0  0  0  0  0  0  0  0  0
  149.7114  141.7370  156.1486 H   0  0  0  0  0  0  0  0  0  0  0  0
  148.0561  142.2142  156.4389 H   0  0  0  0  0  0  0  0  0  0  0  0
  148.8060  140.3788  157.9712 H   0  0  0  0  0  0  0  0  0  0  0  0
  147.4247  139.9102  157.0306 H   0  0  0  0  0  0  0  0  0  0  0  0
  149.1626  138.0985  157.0598 H   0  0  0  0  0  0  0  0  0  0  0  0
  150.3351  139.2607  156.5158 H   0  0  0  0  0  0  0  0  0  0  0  0
  149.5965  137.3300  153.4838 H   0  0  0  0  0  0  0  0  0  0  0  0
  1  2  1  0  0  0  0
  1 21  1  0  0  0  0
  1 22  1  0  0  0  0
  1 23  1  0  0  0  0
  2 20  1  0  0  0  0
  2  3  2  0  0  0  0
  3  4  1  0  0  0  0
  3 24  1  0  0  0  0
  4  5  1  0  0  0  0
  4 19  2  0  0  0  0
  5  6  1  0  0  0  0
  5 25  1  0  0  0  0
  6  7  2  0  0  0  0
  6  8  1  0  0  0  0
  8  9  1  0  0  0  0
  8 26  1  0  0  0  0
  9 10  1  0  0  0  0
  9 27  1  0  0  0  0
  9 28  1  0  0  0  0
 10 18  1  0  0  0  0
 10 11  1  0  0  0  0
 10 14  1  0  0  0  0
 11 12  1  0  0  0  0
 11 13  1  0  0  0  0
 11 45  1  0  0  0  0
 12 29  1  0  0  0  0
 12 30  1  0  0  0  0
 12 31  1  0  0  0  0
 13 32  1  0  0  0  0
 13 33  1  0  0  0  0
 13 34  1  0  0  0  0
 14 15  1  0  0  0  0
 14 35  1  0  0  0  0
 14 36  1  0  0  0  0
 15 16  1  0  0  0  0
 15 37  1  0  0  0  0
 15 38  1  0  0  0  0
 16 17  1  0  0  0  0
 16 39  1  0  0  0  0
 16 40  1  0  0  0  0
 17 18  1  0  0  0  0
 17 41  1  0  0  0  0
 17 42  1  0  0  0  0
 18 43  1  0  0  0  0
 18 44  1  0  0  0  0
 19 20  1  0  0  0  0
M  CHG  1  11   1
M  END
> <s_m_source_file>
AV-unprocessed.smi

> <i_m_source_file_index>
352

> <i_lp_mmshare_version>
43012

> <i_f3d_flags>
0

> <s_epik_input>
W0NIM11jMVtjSF1jKG5vMSlbTkhdQyg9TylbTkhdW0NIMl1DMihOKFtDSDNdKVtDSDNdKVtDSDJdW0NIMl1bQ0gyXVtDSDJdW0NIMl0y

> <s_epik_cmdline>
J2VwaWtfcHl0aG9uJywgJy1waCcsICc3LjAnLCAnLXRuJywgJzgnLCAnLW1hJywgJzIwMCcsICctbWV0YWxfYmluZGluZycsICctaW1hZScsICc8aW5maWxlLm1hZT4nLCAnLW9tYWUnLCAnPG91dGZpbGUubWFlPic=

> <r_epik_Ionization_Penalty>
0.00254175

> <r_epik_Ionization_Penalty_Charging>
0.00251809

> <r_epik_Ionization_Penalty_Neutral>
2.36624e-05

> <r_epik_State_Penalty>
0.00174714

> <r_epik_Charging_Adjusted_Penalty>
0.00426523

> <i_epik_Tot_Q>
1

> <i_epik_Tot_abs_Q>
1

> <r_epik_Metal_State_Penalty>
-0

> <b_epik_Metal_Only>
0

> <s_lp_Force_Field>
OPLS_2005

> <r_lp_Energy>
33.762

> <b_lp_Chiralities_Consistent>
1

> <s_lp_Variant>
AV-unprocessed.smi:352-1

> <Gold.Version>
5.8.1

> <Gold.Id.Protein>
6NUR|6NUR_protein|mol2

> <Gold.PLP.Fitness>
37.3953

> <Gold.PLP.PLP>
-26.5179

> <Gold.PLP.part.hbond>
-3.0000

> <Gold.PLP.part.metal>
0.0000

> <Gold.PLP.part.buried>
-2.7143

> <Gold.PLP.part.nonpolar>
-21.1180

> <Gold.PLP.part.repulsive>
0.3852

> <Gold.PLP.ligand.clash>
0.0000

> <Gold.PLP.ligand.torsion>
0.6151

> <Gold.PLP.Chemscore.Hbond>
4.0000

> <Gold.PLP.Chemscore.CHOScore>
0.0000

> <Gold.PLP.Chemscore.Metal>
0.0000

> <Gold.Chemscore.Hbonds>
donor molecule, donor type, donor heavy atom, donor atom, acceptor molecule, acceptor atom, score
      L1  H     5    25       P1  7948  1.00
      L1  H     8    26       P1  7948  1.00
      L1  H    11    45       P1  7948  2.00

> <Gold.PLP.Chemscore.Internal.Correction>
0.1076

> <Gold.Rescore>
     Score         DG    S(hbond)    S(metal)    S(lipo)     H(rot)  DE(clash)    DE(int)     intcor
     16.38     -18.58       2.87        0.00      63.95       1.55       0.17       2.02       ----

> <Gold.Chemscore.Fitness>
16.3841

> <Gold.Chemscore.DG>
-18.5807

> <Gold.Chemscore.ZeroCoef>
-5.4800

> <Gold.Chemscore.Hbond>
2.8675

> <Gold.Chemscore.Metal>
0.0000

> <Gold.Chemscore.Lipo>
63.9499

> <Gold.Chemscore.Internal_Hbond>
0.0000

> <Gold.Chemscore.DEClash>
0.1719

> <Gold.Chemscore.DEInternal>
2.0247

> <Gold.Chemscore.Rot>
1.5464

> <Gold.Chemscore.Internal.Correction>
   9.000000E+99

> <Gold.Chemscore.Hbonds>
donor molecule, donor type, donor heavy atom, donor atom, acceptor molecule, acceptor atom, score
      L1  H     5    25       P1  7948  0.96
      L1  H     8    26       P1  7948  0.99
      L1  H    11    45       P1  7948  0.79

> <Gold.Chemscore.Hbond.Weighted>
-9.5774

> <Gold.Chemscore.Metal.Weighted>
-0.0000

> <Gold.Chemscore.Lipo.Weighted>
-7.4821

> <Gold.Chemscore.Internal_Hbond.Weighted>
0.0000

> <Gold.Chemscore.DEClash.Weighted>
0.1719

> <Gold.Chemscore.DEInternal.Weighted>
2.0247

> <Gold.Chemscore.Rot.Weighted>
3.9588

> <Gold.Chemscore.Internal.Correction.Weighted>
   9.000000E+99

> <Gold.Protein.RotatedTorsions>
[ 6907 6896 6895 6894 ] final  101.65 input  -60.11 | X-H torsion
[ 7974 7965 7964 7962 ] final  105.12 input  175.53 | X-H torsion
[ 8008 7997 7996 7995 ] final  138.53 input   59.86 | X-H torsion
[ 10167 10162 10161 10158 ] final   47.49 input  -65.29 | X-H torsion
[ 10718 10713 10712 10709 ] final  -53.85 input   66.30 | X-H torsion
[ 10763 10752 10751 10750 ] final -135.65 input  -60.55 | X-H torsion
[ 11005 11000 10999 10996 ] final  173.56 input  -57.11 | X-H torsion

> <Gold.Protein.ActiveResidues>
 VAL166  LYS551  ARG553  GLY616  TRP617  ASP618  TYR619  PRO620  LYS621  CYS622 
 ASP623  PHE694  ASN695  SER759  ASP760  ASP761  ALA762  ILE779  LEU786  VAL792 
 PHE793  MET794  SER795  GLU796  ALA797  LYS798  CYS799  TRP800  GLU811  SER814 

> <Gold.Protein.RotatedAtoms>
  152.5344  134.0093  159.7930 H   0  0  0  0  0  0  0  0  0  0  0  0  # atno 6907 bound_to 6896
  151.0298  133.5792  159.2669 H   0  0  0  0  0  0  0  0  0  0  0  0  # atno 6908 bound_to 6896
  151.2801  135.0718  159.9220 H   0  0  0  0  0  0  0  0  0  0  0  0  # atno 6909 bound_to 6896
  145.3238  139.2505  143.3697 H   0  0  0  0  0  0  0  0  0  0  0  0  # atno 7974 bound_to 7965
  156.2996  140.2391  156.4089 H   0  0  0  0  0  0  0  0  0  0  0  0  # atno 8008 bound_to 7997
  154.8459  140.0426  157.1592 H   0  0  0  0  0  0  0  0  0  0  0  0  # atno 8009 bound_to 7997
  154.9052  140.2982  155.5300 H   0  0  0  0  0  0  0  0  0  0  0  0  # atno 8010 bound_to 7997
  140.3031  144.2910  150.6215 H   0  0  0  0  0  0  0  0  0  0  0  0  # atno 10167 bound_to 10162
  156.1500  130.4151  149.9960 H   0  0  0  0  0  0  0  0  0  0  0  0  # atno 10718 bound_to 10713
  154.8699  135.3697  154.4933 H   0  0  0  0  0  0  0  0  0  0  0  0  # atno 10763 bound_to 10752
  153.5579  135.7023  153.5566 H   0  0  0  0  0  0  0  0  0  0  0  0  # atno 10764 bound_to 10752
  153.3655  135.4035  155.1714 H   0  0  0  0  0  0  0  0  0  0  0  0  # atno 10765 bound_to 10752
  140.3418  134.7270  157.4207 H   0  0  0  0  0  0  0  0  0  0  0  0  # atno 11005 bound_to 11000
  146.3072  140.3801  142.8683 LP  0  0  0  0  0  0  0  0  0  0  0  0  # atno 17320 bound_to 7965
  144.8918  140.7533  143.5922 LP  0  0  0  0  0  0  0  0  0  0  0  0  # atno 17321 bound_to 7965
  140.5633  143.2189  151.7727 LP  0  0  0  0  0  0  0  0  0  0  0  0  # atno 17342 bound_to 10162
  139.4910  144.4318  151.9864 LP  0  0  0  0  0  0  0  0  0  0  0  0  # atno 17343 bound_to 10162
  156.7820  130.9225  151.3646 LP  0  0  0  0  0  0  0  0  0  0  0  0  # atno 17370 bound_to 10713
  157.6649  130.8999  149.9910 LP  0  0  0  0  0  0  0  0  0  0  0  0  # atno 17371 bound_to 10713
  140.0775  134.5777  155.8576 LP  0  0  0  0  0  0  0  0  0  0  0  0  # atno 17394 bound_to 11000
  141.2036  133.6633  156.6074 LP  0  0  0  0  0  0  0  0  0  0  0  0  # atno 17395 bound_to 11000

$$$$
