AV-unprocessed.smi:1049|AV-procd|sdf|4609|dock9
  -GOLD-   22720 3103D 1   1.00000     0.00000
 Structure written by MMmdl.
 40 41  0  0  0  0  0  0  0  0  1 V2000
  153.3736  142.4993  161.9864 C   0  0  0  0  0  0  0  0  0  0  0  0
  152.4044  142.9436  160.8823 C   0  0  1  0  0  0  0  0  0  0  0  0
  152.0512  144.4420  161.0071 C   0  0  0  0  0  0  0  0  0  0  0  0
  151.1780  144.9285  159.8351 C   0  0  0  0  0  0  0  0  0  0  0  0
  151.7986  144.5275  158.4850 C   0  0  0  0  0  0  0  0  0  0  0  0
  151.9862  143.0663  158.4675 N   0  0  0  0  0  0  0  0  0  0  0  0
  151.2219  142.1685  157.7951 C   0  0  0  0  0  0  0  0  0  0  0  0
  151.5991  141.0274  157.5235 O   0  0  0  0  0  0  0  0  0  0  0  0
  150.0123  142.6242  157.4291 N   0  0  0  0  0  0  0  0  0  0  0  0
  148.9780  141.8365  156.7663 C   0  0  0  0  0  0  0  0  0  0  0  0
  149.2374  141.6628  155.2560 C   0  0  0  0  0  0  0  0  0  0  0  0
  149.6936  140.2873  154.8692 C   0  0  0  0  0  0  0  0  0  0  0  0
  150.9717  139.9337  154.7655 N   0  0  0  0  0  0  0  0  0  0  0  0
  150.9413  138.5913  154.4065 C   0  0  0  0  0  0  0  0  0  0  0  0
  149.6354  138.1770  154.3058 C   0  0  0  0  0  0  0  0  0  0  0  0
  148.8419  139.2730  154.6244 N   0  0  0  0  0  0  0  0  0  0  0  0
  147.3897  139.3107  154.6364 C   0  0  0  0  0  0  0  0  0  0  0  0
  146.9583  139.6991  155.8358 F   0  0  0  0  0  0  0  0  0  0  0  0
  146.9372  140.1474  153.7021 F   0  0  0  0  0  0  0  0  0  0  0  0
  152.9676  142.6456  159.4761 C   0  0  0  0  0  0  0  0  0  0  0  0
  154.3205  143.0368  161.9237 H   0  0  0  0  0  0  0  0  0  0  0  0
  153.5900  141.4332  161.9118 H   0  0  0  0  0  0  0  0  0  0  0  0
  152.9513  142.6816  162.9750 H   0  0  0  0  0  0  0  0  0  0  0  0
  151.4839  142.3700  161.0028 H   0  0  0  0  0  0  0  0  0  0  0  0
  151.5435  144.6340  161.9529 H   0  0  0  0  0  0  0  0  0  0  0  0
  152.9710  145.0281  161.0273 H   0  0  0  0  0  0  0  0  0  0  0  0
  150.1794  144.4982  159.9198 H   0  0  0  0  0  0  0  0  0  0  0  0
  151.0537  146.0103  159.8867 H   0  0  0  0  0  0  0  0  0  0  0  0
  151.1837  144.9072  157.6691 H   0  0  0  0  0  0  0  0  0  0  0  0
  152.7680  145.0132  158.3635 H   0  0  0  0  0  0  0  0  0  0  0  0
  149.7745  143.5738  157.6758 H   0  0  0  0  0  0  0  0  0  0  0  0
  148.9598  140.8591  157.2481 H   0  0  0  0  0  0  0  0  0  0  0  0
  147.9959  142.2803  156.9358 H   0  0  0  0  0  0  0  0  0  0  0  0
  148.3404  141.9192  154.6919 H   0  0  0  0  0  0  0  0  0  0  0  0
  149.9996  142.3739  154.9350 H   0  0  0  0  0  0  0  0  0  0  0  0
  151.8526  138.0347  154.2445 H   0  0  0  0  0  0  0  0  0  0  0  0
  149.2168  137.2160  154.0450 H   0  0  0  0  0  0  0  0  0  0  0  0
  146.9775  138.3247  154.4228 H   0  0  0  0  0  0  0  0  0  0  0  0
  153.9015  143.1879  159.3199 H   0  0  0  0  0  0  0  0  0  0  0  0
  153.2256  141.5890  159.3888 H   0  0  0  0  0  0  0  0  0  0  0  0
  1  2  1  0  0  0  0
  1 21  1  0  0  0  0
  1 22  1  0  0  0  0
  1 23  1  0  0  0  0
  2 20  1  0  0  0  0
  2  3  1  0  0  0  0
  2 24  1  0  0  0  0
  3  4  1  0  0  0  0
  3 25  1  0  0  0  0
  3 26  1  0  0  0  0
  4  5  1  0  0  0  0
  4 27  1  0  0  0  0
  4 28  1  0  0  0  0
  5  6  1  0  0  0  0
  5 29  1  0  0  0  0
  5 30  1  0  0  0  0
  6  7  1  0  0  0  0
  6 20  1  0  0  0  0
  7  8  2  0  0  0  0
  7  9  1  0  0  0  0
  9 10  1  0  0  0  0
  9 31  1  0  0  0  0
 10 11  1  0  0  0  0
 10 32  1  0  0  0  0
 10 33  1  0  0  0  0
 11 12  1  0  0  0  0
 11 34  1  0  0  0  0
 11 35  1  0  0  0  0
 12 16  1  0  0  0  0
 12 13  2  0  0  0  0
 13 14  1  0  0  0  0
 14 15  2  0  0  0  0
 14 36  1  0  0  0  0
 15 16  1  0  0  0  0
 15 37  1  0  0  0  0
 16 17  1  0  0  0  0
 17 18  1  0  0  0  0
 17 19  1  0  0  0  0
 17 38  1  0  0  0  0
 20 39  1  0  0  0  0
 20 40  1  0  0  0  0
M  END
> <s_m_source_file>
AV-unprocessed.smi

> <i_m_source_file_index>
1049

> <i_lp_mmshare_version>
43012

> <i_f3d_flags>
0

> <s_epik_input>
W0NIM11bQ0BASF0xW0NIMl1bQ0gyXVtDSDJdTihbQ0gyXTEpQyg9TylbTkhdW0NIMl1bQ0gyXWMybltjSF1bY0hdbjJbQ0hdKEYpRg==

> <s_epik_cmdline>
J2VwaWtfcHl0aG9uJywgJy1waCcsICc3LjAnLCAnLXRuJywgJzgnLCAnLW1hJywgJzIwMCcsICctbWV0YWxfYmluZGluZycsICctaW1hZScsICc8aW5maWxlLm1hZT4nLCAnLW9tYWUnLCAnPG91dGZpbGUubWFlPic=

> <r_lp_tautomer_probability>
1

> <r_epik_Ionization_Penalty>
0.101141

> <r_epik_Ionization_Penalty_Charging>
0.101077

> <r_epik_Ionization_Penalty_Neutral>
6.38597e-05

> <r_epik_State_Penalty>
0.091079

> <r_epik_Charging_Adjusted_Penalty>
0.192156

> <i_epik_Tot_Q>
0

> <i_epik_Tot_abs_Q>
0

> <r_epik_Metal_State_Penalty>
0.0777008

> <b_epik_Metal_Only>
0

> <s_lp_Force_Field>
OPLS_2005

> <r_lp_Energy>
32.9855

> <b_lp_Chiralities_Consistent>
1

> <s_lp_Variant>
AV-unprocessed.smi:1049-2

> <Gold.Version>
5.8.1

> <Gold.Id.Protein>
6NUR|6NUR_protein|mol2

> <Gold.PLP.Fitness>
50.2496

> <Gold.PLP.PLP>
-46.1722

> <Gold.PLP.part.hbond>
-2.0000

> <Gold.PLP.part.metal>
0.0000

> <Gold.PLP.part.buried>
-0.9577

> <Gold.PLP.part.nonpolar>
-43.9071

> <Gold.PLP.part.repulsive>
0.0904

> <Gold.PLP.ligand.clash>
0.0000

> <Gold.PLP.ligand.torsion>
1.1156

> <Gold.PLP.Chemscore.Hbond>
1.0874

> <Gold.PLP.Chemscore.CHOScore>
1.0000

> <Gold.PLP.Chemscore.Metal>
0.0000

> <Gold.Chemscore.Hbonds>
donor molecule, donor type, donor heavy atom, donor atom, acceptor molecule, acceptor atom, score
      P1  H  7989  7998       L1    13  1.00
      L1  C    15    37       P1  7948  0.96

> <Gold.PLP.Chemscore.Internal.Correction>
0.0465

> <Gold.Rescore>
     Score         DG    S(hbond)    S(metal)    S(lipo)     H(rot)  DE(clash)    DE(int)     intcor
     11.83     -15.63       0.64        0.00     102.67       1.56       0.89       2.92       ----

> <Gold.Chemscore.Fitness>
11.8283

> <Gold.Chemscore.DG>
-15.6308

> <Gold.Chemscore.ZeroCoef>
-5.4800

> <Gold.Chemscore.Hbond>
0.6405

> <Gold.Chemscore.Metal>
0.0000

> <Gold.Chemscore.Lipo>
102.6671

> <Gold.Chemscore.Internal_Hbond>
0.0000

> <Gold.Chemscore.DEClash>
0.8871

> <Gold.Chemscore.DEInternal>
2.9155

> <Gold.Chemscore.Rot>
1.5626

> <Gold.Chemscore.Internal.Correction>
   9.000000E+99

> <Gold.Chemscore.Hbonds>
donor molecule, donor type, donor heavy atom, donor atom, acceptor molecule, acceptor atom, score
      P1  H  7989  7998       L1    13  0.45

> <Gold.Chemscore.Hbond.Weighted>
-2.1391

> <Gold.Chemscore.Metal.Weighted>
-0.0000

> <Gold.Chemscore.Lipo.Weighted>
-12.0121

> <Gold.Chemscore.Internal_Hbond.Weighted>
0.0000

> <Gold.Chemscore.DEClash.Weighted>
0.8871

> <Gold.Chemscore.DEInternal.Weighted>
2.9155

> <Gold.Chemscore.Rot.Weighted>
4.0004

> <Gold.Chemscore.Internal.Correction.Weighted>
   9.000000E+99

> <Gold.Protein.RotatedTorsions>
[ 6907 6896 6895 6894 ] final  -84.85 input  -60.11 | X-H torsion
[ 7974 7965 7964 7962 ] final -106.62 input  175.53 | X-H torsion
[ 8008 7997 7996 7995 ] final   68.32 input   59.86 | X-H torsion
[ 10167 10162 10161 10158 ] final  -97.14 input  -65.29 | X-H torsion
[ 10718 10713 10712 10709 ] final   58.58 input   66.30 | X-H torsion
[ 10763 10752 10751 10750 ] final   56.93 input  -60.55 | X-H torsion
[ 11005 11000 10999 10996 ] final  165.09 input  -57.11 | X-H torsion

> <Gold.Protein.ActiveResidues>
 VAL166  LYS551  ARG553  GLY616  TRP617  ASP618  TYR619  PRO620  LYS621  CYS622 
 ASP623  PHE694  ASN695  SER759  ASP760  ASP761  ALA762  ILE779  LEU786  VAL792 
 PHE793  MET794  SER795  GLU796  ALA797  LYS798  CYS799  TRP800  GLU811  SER814 

> <Gold.Protein.RotatedAtoms>
  150.6874  134.3296  159.4821 H   0  0  0  0  0  0  0  0  0  0  0  0  # atno 6907 bound_to 6896
  152.1162  134.9236  160.0574 H   0  0  0  0  0  0  0  0  0  0  0  0  # atno 6908 bound_to 6896
  152.0460  133.3963  159.4394 H   0  0  0  0  0  0  0  0  0  0  0  0  # atno 6909 bound_to 6896
  145.2156  140.9114  143.3289 H   0  0  0  0  0  0  0  0  0  0  0  0  # atno 7974 bound_to 7965
  155.7065  140.3495  155.4955 H   0  0  0  0  0  0  0  0  0  0  0  0  # atno 8008 bound_to 7997
  155.9394  140.1098  157.1090 H   0  0  0  0  0  0  0  0  0  0  0  0  # atno 8009 bound_to 7997
  154.4100  140.1216  156.4893 H   0  0  0  0  0  0  0  0  0  0  0  0  # atno 8010 bound_to 7997
  140.2865  143.3248  152.0389 H   0  0  0  0  0  0  0  0  0  0  0  0  # atno 10167 bound_to 10162
  157.5608  130.8834  149.9108 H   0  0  0  0  0  0  0  0  0  0  0  0  # atno 10718 bound_to 10713
  152.9840  135.5659  154.5308 H   0  0  0  0  0  0  0  0  0  0  0  0  # atno 10763 bound_to 10752
  154.4780  135.2787  155.1594 H   0  0  0  0  0  0  0  0  0  0  0  0  # atno 10764 bound_to 10752
  154.3115  135.6287  153.5521 H   0  0  0  0  0  0  0  0  0  0  0  0  # atno 10765 bound_to 10752
  140.2525  134.7965  157.3515 H   0  0  0  0  0  0  0  0  0  0  0  0  # atno 11005 bound_to 11000
  144.9814  139.3779  143.6260 LP  0  0  0  0  0  0  0  0  0  0  0  0  # atno 17320 bound_to 7965
  146.3388  139.8957  142.8802 LP  0  0  0  0  0  0  0  0  0  0  0  0  # atno 17321 bound_to 7965
  139.4949  144.6555  151.6582 LP  0  0  0  0  0  0  0  0  0  0  0  0  # atno 17342 bound_to 10162
  140.5768  144.0015  150.6246 LP  0  0  0  0  0  0  0  0  0  0  0  0  # atno 17343 bound_to 10162
  156.0661  130.3692  150.0876 LP  0  0  0  0  0  0  0  0  0  0  0  0  # atno 17370 bound_to 10713
  156.9040  130.9630  151.3572 LP  0  0  0  0  0  0  0  0  0  0  0  0  # atno 17371 bound_to 10713
  140.1543  134.4809  155.7939 LP  0  0  0  0  0  0  0  0  0  0  0  0  # atno 17394 bound_to 11000
  141.2200  133.6875  156.7434 LP  0  0  0  0  0  0  0  0  0  0  0  0  # atno 17395 bound_to 11000

$$$$
