AV-unprocessed.smi:2245|AV-procd|sdf|9076|dock8
  -GOLD-   2272012283D 1   1.00000     0.00000
 Structure written by MMmdl.
 44 45  0  0  0  0  0  0  0  0  1 V2000
  151.9703  145.8655  160.3242 C   0  0  0  0  0  0  0  0  0  0  0  0
  152.0028  144.5252  159.6198 C   0  0  0  0  0  0  0  0  0  0  0  0
  152.8584  143.4971  160.0593 C   0  0  0  0  0  0  0  0  0  0  0  0
  152.8434  142.2749  159.3592 C   0  0  0  0  0  0  0  0  0  0  0  0
  153.7437  141.1301  159.7734 C   0  0  0  0  0  0  0  0  0  0  0  0
  152.0506  142.0478  158.2902 N   0  0  0  0  0  0  0  0  0  0  0  0
  151.2224  143.0309  157.8581 C   0  0  0  0  0  0  0  0  0  0  0  0
  150.3619  142.8991  156.7366 N   0  0  0  0  0  0  0  0  0  0  0  0
  149.6701  141.8152  156.3437 C   0  0  0  0  0  0  0  0  0  0  0  0
  149.5950  140.7531  156.9625 O   0  0  0  0  0  0  0  0  0  0  0  0
  149.0574  142.0318  155.1721 N   0  0  0  0  0  0  0  0  0  0  0  0
  148.2698  141.0405  154.4501 C   0  0  0  0  0  0  0  0  0  0  0  0
  146.8203  141.5210  154.2761 C   0  0  2  0  0  0  0  0  0  0  0  0
  146.5837  142.4280  153.0663 C   0  0  0  0  0  0  0  0  0  0  0  0
  145.6830  143.5525  153.5891 C   0  0  0  0  0  0  0  0  0  0  0  0
  145.1693  143.0528  154.8599 N   0  0  0  0  0  0  0  0  0  0  0  0
  144.6748  144.1033  155.7472 C   0  0  0  0  0  0  0  0  0  0  0  0
  143.2547  144.5800  155.3855 C   0  0  0  0  0  0  0  0  0  0  0  0
  142.8449  145.4411  156.3161 F   0  0  0  0  0  0  0  0  0  0  0  0
  143.2329  145.2002  154.2062 F   0  0  0  0  0  0  0  0  0  0  0  0
  142.4085  143.5498  155.3593 F   0  0  0  0  0  0  0  0  0  0  0  0
  146.3054  142.3570  155.4457 C   0  0  0  0  0  0  0  0  0  0  0  0
  151.1742  144.2860  158.5051 C   0  0  0  0  0  0  0  0  0  0  0  0
  152.7045  145.9087  161.1292 H   0  0  0  0  0  0  0  0  0  0  0  0
  150.9833  146.0433  160.7515 H   0  0  0  0  0  0  0  0  0  0  0  0
  152.1901  146.6680  159.6197 H   0  0  0  0  0  0  0  0  0  0  0  0
  153.5103  143.6413  160.9085 H   0  0  0  0  0  0  0  0  0  0  0  0
  154.1471  141.2887  160.7738 H   0  0  0  0  0  0  0  0  0  0  0  0
  154.5783  141.0375  159.0782 H   0  0  0  0  0  0  0  0  0  0  0  0
  153.1923  140.1891  159.7760 H   0  0  0  0  0  0  0  0  0  0  0  0
  150.3001  143.7110  156.1407 H   0  0  0  0  0  0  0  0  0  0  0  0
  149.1655  142.9350  154.7346 H   0  0  0  0  0  0  0  0  0  0  0  0
  148.7097  140.8584  153.4679 H   0  0  0  0  0  0  0  0  0  0  0  0
  148.2993  140.0950  154.9933 H   0  0  0  0  0  0  0  0  0  0  0  0
  146.1707  140.6486  154.1822 H   0  0  0  0  0  0  0  0  0  0  0  0
  147.5121  142.8435  152.6724 H   0  0  0  0  0  0  0  0  0  0  0  0
  146.1017  141.8740  152.2603 H   0  0  0  0  0  0  0  0  0  0  0  0
  146.2773  144.4529  153.7536 H   0  0  0  0  0  0  0  0  0  0  0  0
  144.8812  143.7937  152.8911 H   0  0  0  0  0  0  0  0  0  0  0  0
  144.6481  143.6976  156.7596 H   0  0  0  0  0  0  0  0  0  0  0  0
  145.3687  144.9446  155.7676 H   0  0  0  0  0  0  0  0  0  0  0  0
  146.0131  141.7454  156.3002 H   0  0  0  0  0  0  0  0  0  0  0  0
  147.0621  143.0727  155.7728 H   0  0  0  0  0  0  0  0  0  0  0  0
  150.5114  145.0619  158.1496 H   0  0  0  0  0  0  0  0  0  0  0  0
  1  2  1  0  0  0  0
  1 24  1  0  0  0  0
  1 25  1  0  0  0  0
  1 26  1  0  0  0  0
  2 23  1  0  0  0  0
  2  3  2  0  0  0  0
  3  4  1  0  0  0  0
  3 27  1  0  0  0  0
  4  5  1  0  0  0  0
  4  6  2  0  0  0  0
  5 28  1  0  0  0  0
  5 29  1  0  0  0  0
  5 30  1  0  0  0  0
  6  7  1  0  0  0  0
  7  8  1  0  0  0  0
  7 23  2  0  0  0  0
  8  9  1  0  0  0  0
  8 31  1  0  0  0  0
  9 10  2  0  0  0  0
  9 11  1  0  0  0  0
 11 12  1  0  0  0  0
 11 32  1  0  0  0  0
 12 13  1  0  0  0  0
 12 33  1  0  0  0  0
 12 34  1  0  0  0  0
 13 22  1  0  0  0  0
 13 14  1  0  0  0  0
 13 35  1  0  0  0  0
 14 15  1  0  0  0  0
 14 36  1  0  0  0  0
 14 37  1  0  0  0  0
 15 16  1  0  0  0  0
 15 38  1  0  0  0  0
 15 39  1  0  0  0  0
 16 17  1  0  0  0  0
 16 22  1  0  0  0  0
 17 18  1  0  0  0  0
 17 40  1  0  0  0  0
 17 41  1  0  0  0  0
 18 19  1  0  0  0  0
 18 20  1  0  0  0  0
 18 21  1  0  0  0  0
 22 42  1  0  0  0  0
 22 43  1  0  0  0  0
 23 44  1  0  0  0  0
M  END
> <s_m_source_file>
AV-unprocessed.smi

> <i_m_source_file_index>
2245

> <i_lp_mmshare_version>
43012

> <i_f3d_flags>
0

> <s_epik_input>
W0NIM11jMVtjSF1jKFtDSDNdKW5jKFtjSF0xKVtOSF1DKD1PKVtOSF1bQ0gyXVtDQEBIXTJbQ0gyXVtDSDJdTihbQ0gyXTIpW0NIMl1DKEYpKEYpRg==

> <s_epik_cmdline>
J2VwaWtfcHl0aG9uJywgJy1waCcsICc3LjAnLCAnLXRuJywgJzgnLCAnLW1hJywgJzIwMCcsICctbWV0YWxfYmluZGluZycsICctaW1hZScsICc8aW5maWxlLm1hZT4nLCAnLW9tYWUnLCAnPG91dGZpbGUubWFlPic=

> <r_epik_Ionization_Penalty>
0.252219

> <r_epik_Ionization_Penalty_Charging>
0

> <r_epik_Ionization_Penalty_Neutral>
0.252219

> <r_epik_State_Penalty>
0.24335

> <r_epik_Charging_Adjusted_Penalty>
0.24335

> <i_epik_Tot_Q>
0

> <i_epik_Tot_abs_Q>
0

> <r_epik_Metal_State_Penalty>
0.243337

> <b_epik_Metal_Only>
0

> <s_lp_Force_Field>
OPLS_2005

> <r_lp_Energy>
29.2312

> <b_lp_Chiralities_Consistent>
1

> <s_lp_Variant>
AV-unprocessed.smi:2245-1

> <Gold.Version>
5.8.1

> <Gold.Id.Protein>
6NUR|6NUR_protein|mol2

> <Gold.PLP.Fitness>
48.1463

> <Gold.PLP.PLP>
-45.9557

> <Gold.PLP.part.hbond>
-2.0000

> <Gold.PLP.part.metal>
0.0000

> <Gold.PLP.part.buried>
-8.3704

> <Gold.PLP.part.nonpolar>
-37.5406

> <Gold.PLP.part.repulsive>
0.4728

> <Gold.PLP.ligand.clash>
0.0000

> <Gold.PLP.ligand.torsion>
0.7498

> <Gold.PLP.Chemscore.Hbond>
1.1040

> <Gold.PLP.Chemscore.CHOScore>
0.0000

> <Gold.PLP.Chemscore.Metal>
0.0000

> <Gold.Chemscore.Hbonds>
donor molecule, donor type, donor heavy atom, donor atom, acceptor molecule, acceptor atom, score
      L1  H     8    31       P1  8028  0.64
      L1  H    11    32       P1  8028  0.53

> <Gold.PLP.Chemscore.Internal.Correction>
0.3782

> <Gold.Rescore>
     Score         DG    S(hbond)    S(metal)    S(lipo)     H(rot)  DE(clash)    DE(int)     intcor
     15.49     -18.25       1.23        0.00     108.61       1.58       1.65       1.11       ----

> <Gold.Chemscore.Fitness>
15.4878

> <Gold.Chemscore.DG>
-18.2504

> <Gold.Chemscore.ZeroCoef>
-5.4800

> <Gold.Chemscore.Hbond>
1.2318

> <Gold.Chemscore.Metal>
0.0000

> <Gold.Chemscore.Lipo>
108.6114

> <Gold.Chemscore.Internal_Hbond>
0.0000

> <Gold.Chemscore.DEClash>
1.6533

> <Gold.Chemscore.DEInternal>
1.1092

> <Gold.Chemscore.Rot>
1.5826

> <Gold.Chemscore.Internal.Correction>
   9.000000E+99

> <Gold.Chemscore.Hbonds>
donor molecule, donor type, donor heavy atom, donor atom, acceptor molecule, acceptor atom, score
      L1  H     8    31       P1  8028  0.64
      L1  H    11    32       P1  8028  0.50

> <Gold.Chemscore.Hbond.Weighted>
-4.1143

> <Gold.Chemscore.Metal.Weighted>
-0.0000

> <Gold.Chemscore.Lipo.Weighted>
-12.7075

> <Gold.Chemscore.Internal_Hbond.Weighted>
0.0000

> <Gold.Chemscore.DEClash.Weighted>
1.6533

> <Gold.Chemscore.DEInternal.Weighted>
1.1092

> <Gold.Chemscore.Rot.Weighted>
4.0515

> <Gold.Chemscore.Internal.Correction.Weighted>
   9.000000E+99

> <Gold.Protein.RotatedTorsions>
[ 6907 6896 6895 6894 ] final  -79.74 input  -60.11 | X-H torsion
[ 7974 7965 7964 7962 ] final   90.64 input  175.53 | X-H torsion
[ 8008 7997 7996 7995 ] final   16.19 input   59.86 | X-H torsion
[ 10167 10162 10161 10158 ] final -175.59 input  -65.29 | X-H torsion
[ 10718 10713 10712 10709 ] final   33.77 input   66.30 | X-H torsion
[ 10763 10752 10751 10750 ] final   40.95 input  -60.55 | X-H torsion
[ 11005 11000 10999 10996 ] final   16.98 input  -57.11 | X-H torsion

> <Gold.Protein.ActiveResidues>
 VAL166  LYS551  ARG553  GLY616  TRP617  ASP618  TYR619  PRO620  LYS621  CYS622 
 ASP623  PHE694  ASN695  SER759  ASP760  ASP761  ALA762  ILE779  LEU786  VAL792 
 PHE793  MET794  SER795  GLU796  ALA797  LYS798  CYS799  TRP800  GLU811  SER814 

> <Gold.Protein.RotatedAtoms>
  150.6943  134.4075  159.5146 H   0  0  0  0  0  0  0  0  0  0  0  0  # atno 6907 bound_to 6896
  152.1838  134.8728  160.0533 H   0  0  0  0  0  0  0  0  0  0  0  0  # atno 6908 bound_to 6896
  151.9709  133.3690  159.4107 H   0  0  0  0  0  0  0  0  0  0  0  0  # atno 6909 bound_to 6896
  145.5163  139.2278  143.2697 H   0  0  0  0  0  0  0  0  0  0  0  0  # atno 7974 bound_to 7965
  154.8734  140.2962  155.5467 H   0  0  0  0  0  0  0  0  0  0  0  0  # atno 8008 bound_to 7997
  156.3021  140.2456  156.3660 H   0  0  0  0  0  0  0  0  0  0  0  0  # atno 8009 bound_to 7997
  154.8793  140.0398  157.1761 H   0  0  0  0  0  0  0  0  0  0  0  0  # atno 8010 bound_to 7997
  139.5573  144.1957  152.1181 H   0  0  0  0  0  0  0  0  0  0  0  0  # atno 10167 bound_to 10162
  157.3019  130.7355  149.6672 H   0  0  0  0  0  0  0  0  0  0  0  0  # atno 10718 bound_to 10713
  152.9921  135.6176  154.2709 H   0  0  0  0  0  0  0  0  0  0  0  0  # atno 10763 bound_to 10752
  154.2442  135.2787  155.2843 H   0  0  0  0  0  0  0  0  0  0  0  0  # atno 10764 bound_to 10752
  154.5343  135.5779  153.6843 H   0  0  0  0  0  0  0  0  0  0  0  0  # atno 10765 bound_to 10752
  140.4410  134.1321  155.7690 H   0  0  0  0  0  0  0  0  0  0  0  0  # atno 11005 bound_to 11000
  146.2135  140.5972  142.9049 LP  0  0  0  0  0  0  0  0  0  0  0  0  # atno 17320 bound_to 7965
  144.7700  140.5617  143.6676 LP  0  0  0  0  0  0  0  0  0  0  0  0  # atno 17321 bound_to 7965
  140.1463  144.5155  150.6713 LP  0  0  0  0  0  0  0  0  0  0  0  0  # atno 17342 bound_to 10162
  140.6848  143.2344  151.5289 LP  0  0  0  0  0  0  0  0  0  0  0  0  # atno 17343 bound_to 10162
  155.9672  130.4277  150.4756 LP  0  0  0  0  0  0  0  0  0  0  0  0  # atno 17370 bound_to 10713
  157.2739  131.0593  151.2242 LP  0  0  0  0  0  0  0  0  0  0  0  0  # atno 17371 bound_to 10713
  141.1705  133.8618  157.1584 LP  0  0  0  0  0  0  0  0  0  0  0  0  # atno 17394 bound_to 11000
  140.0070  135.0004  157.0313 LP  0  0  0  0  0  0  0  0  0  0  0  0  # atno 17395 bound_to 11000

$$$$
