AV-unprocessed.smi:1308|AV-procd|sdf|5438|dock3
  -GOLD-   22720 5 03D 1   1.00000     0.00000
 Structure written by MMmdl.
 45 45  0  0  0  0  0  0  0  0  1 V2000
  146.5466  138.4334  151.7221 C   0  0  0  0  0  0  0  0  0  0  0  0
  146.6141  139.2155  153.0162 C   0  0  0  0  0  0  0  0  0  0  0  0
  145.8195  139.0234  154.0167 N   0  0  0  0  0  0  0  0  0  0  0  0
  145.9861  139.8032  155.1692 C   0  0  0  0  0  0  0  0  0  0  0  0
  145.0364  139.4882  156.3116 C   0  0  0  0  0  0  0  0  0  0  0  0
  146.9585  140.7587  155.2538 C   0  0  0  0  0  0  0  0  0  0  0  0
  147.2012  141.5882  156.5161 C   0  0  0  0  0  0  0  0  0  0  0  0
  148.5098  141.2664  157.2384 C   0  0  0  0  0  0  0  0  0  0  0  0
  148.5819  140.2911  157.9850 O   0  0  0  0  0  0  0  0  0  0  0  0
  149.5459  142.0709  156.9546 N   0  0  0  0  0  0  0  0  0  0  0  0
  150.9487  141.8029  157.2569 C   0  0  2  0  0  0  0  0  0  0  0  0
  151.4050  140.5461  156.5038 C   0  0  0  0  0  0  0  0  0  0  0  0
  151.1245  141.6567  158.7824 C   0  0  0  0  0  0  0  0  0  0  0  0
  152.5491  141.9892  159.2746 C   0  0  0  0  0  0  0  0  0  0  0  0
  152.8925  141.4325  160.6698 C   0  0  0  0  0  0  0  0  0  0  0  0
  152.7244  142.4865  161.7778 C   0  0  0  0  0  0  0  0  0  0  0  0
  154.3230  140.8723  160.6856 C   0  0  0  0  0  0  0  0  0  0  0  0
  147.8542  140.9751  154.1007 C   0  0  0  0  0  0  0  0  0  0  0  0
  148.7654  141.8004  154.0716 O   0  0  0  0  0  0  0  0  0  0  0  0
  147.6245  140.1749  153.0358 N   0  0  0  0  0  0  0  0  0  0  0  0
  148.2145  140.2806  152.2234 H   0  0  0  0  0  0  0  0  0  0  0  0
  146.7305  137.3761  151.9140 H   0  0  0  0  0  0  0  0  0  0  0  0
  147.2858  138.7840  151.0006 H   0  0  0  0  0  0  0  0  0  0  0  0
  145.5579  138.5342  151.2739 H   0  0  0  0  0  0  0  0  0  0  0  0
  144.4852  140.3785  156.6138 H   0  0  0  0  0  0  0  0  0  0  0  0
  145.5868  139.1087  157.1725 H   0  0  0  0  0  0  0  0  0  0  0  0
  144.3081  138.7296  156.0223 H   0  0  0  0  0  0  0  0  0  0  0  0
  147.1802  142.6553  156.2924 H   0  0  0  0  0  0  0  0  0  0  0  0
  146.3728  141.4319  157.2072 H   0  0  0  0  0  0  0  0  0  0  0  0
  149.3644  142.8628  156.3545 H   0  0  0  0  0  0  0  0  0  0  0  0
  151.5728  142.6337  156.9234 H   0  0  0  0  0  0  0  0  0  0  0  0
  152.4561  140.3323  156.6992 H   0  0  0  0  0  0  0  0  0  0  0  0
  151.2897  140.6705  155.4265 H   0  0  0  0  0  0  0  0  0  0  0  0
  150.8263  139.6711  156.8021 H   0  0  0  0  0  0  0  0  0  0  0  0
  150.3998  142.2996  159.2824 H   0  0  0  0  0  0  0  0  0  0  0  0
  150.8775  140.6354  159.0745 H   0  0  0  0  0  0  0  0  0  0  0  0
  153.2596  141.5946  158.5470 H   0  0  0  0  0  0  0  0  0  0  0  0
  152.7041  143.0675  159.2870 H   0  0  0  0  0  0  0  0  0  0  0  0
  152.2149  140.6048  160.8834 H   0  0  0  0  0  0  0  0  0  0  0  0
  153.3482  143.3610  161.5903 H   0  0  0  0  0  0  0  0  0  0  0  0
  153.0075  142.0806  162.7493 H   0  0  0  0  0  0  0  0  0  0  0  0
  151.6922  142.8243  161.8621 H   0  0  0  0  0  0  0  0  0  0  0  0
  155.0553  141.6520  160.4715 H   0  0  0  0  0  0  0  0  0  0  0  0
  154.4472  140.0861  159.9405 H   0  0  0  0  0  0  0  0  0  0  0  0
  154.5679  140.4433  161.6576 H   0  0  0  0  0  0  0  0  0  0  0  0
  1  2  1  0  0  0  0
  1 22  1  0  0  0  0
  1 23  1  0  0  0  0
  1 24  1  0  0  0  0
  2 20  1  0  0  0  0
  2  3  2  0  0  0  0
  3  4  1  0  0  0  0
  4  5  1  0  0  0  0
  4  6  2  0  0  0  0
  5 25  1  0  0  0  0
  5 26  1  0  0  0  0
  5 27  1  0  0  0  0
  6  7  1  0  0  0  0
  6 18  1  0  0  0  0
  7  8  1  0  0  0  0
  7 28  1  0  0  0  0
  7 29  1  0  0  0  0
  8  9  2  0  0  0  0
  8 10  1  0  0  0  0
 10 11  1  0  0  0  0
 10 30  1  0  0  0  0
 11 12  1  0  0  0  0
 11 13  1  0  0  0  0
 11 31  1  0  0  0  0
 12 32  1  0  0  0  0
 12 33  1  0  0  0  0
 12 34  1  0  0  0  0
 13 14  1  0  0  0  0
 13 35  1  0  0  0  0
 13 36  1  0  0  0  0
 14 15  1  0  0  0  0
 14 37  1  0  0  0  0
 14 38  1  0  0  0  0
 15 16  1  0  0  0  0
 15 17  1  0  0  0  0
 15 39  1  0  0  0  0
 16 40  1  0  0  0  0
 16 41  1  0  0  0  0
 16 42  1  0  0  0  0
 17 43  1  0  0  0  0
 17 44  1  0  0  0  0
 17 45  1  0  0  0  0
 18 19  2  0  0  0  0
 18 20  1  0  0  0  0
 20 21  1  0  0  0  0
M  END
> <s_m_source_file>
AV-unprocessed.smi

> <i_m_source_file_index>
1308

> <i_lp_mmshare_version>
43012

> <i_f3d_flags>
0

> <s_epik_input>
W0NIM11jMW5jKFtDSDNdKWMoYyg9TylbbkhdMSlbQ0gyXUMoPU8pW05IXVtDQEhdKFtDSDNdKVtDSDJdW0NIMl1bQ0hdKFtDSDNdKVtDSDNd

> <s_epik_cmdline>
J2VwaWtfcHl0aG9uJywgJy1waCcsICc3LjAnLCAnLXRuJywgJzgnLCAnLW1hJywgJzIwMCcsICctbWV0YWxfYmluZGluZycsICctaW1hZScsICc8aW5maWxlLm1hZT4nLCAnLW9tYWUnLCAnPG91dGZpbGUubWFlPic=

> <r_lp_tautomer_probability>
0.839158

> <r_epik_Ionization_Penalty>
0.000390633

> <r_epik_Ionization_Penalty_Charging>
0.00035831

> <r_epik_Ionization_Penalty_Neutral>
3.23235e-05

> <r_epik_State_Penalty>
0.0470222

> <r_epik_Charging_Adjusted_Penalty>
0.0473805

> <i_epik_Tot_Q>
0

> <i_epik_Tot_abs_Q>
0

> <r_epik_Metal_State_Penalty>
0.223807

> <b_epik_Metal_Only>
0

> <s_lp_Force_Field>
OPLS_2005

> <r_lp_Energy>
5.21456

> <b_lp_Chiralities_Consistent>
1

> <s_lp_Variant>
AV-unprocessed.smi:1308-1

> <Gold.Version>
5.8.1

> <Gold.Id.Protein>
6NUR|6NUR_protein|mol2

> <Gold.PLP.Fitness>
43.3994

> <Gold.PLP.PLP>
-38.5439

> <Gold.PLP.part.hbond>
-3.0000

> <Gold.PLP.part.metal>
0.0000

> <Gold.PLP.part.buried>
-4.4189

> <Gold.PLP.part.nonpolar>
-31.8863

> <Gold.PLP.part.repulsive>
1.1696

> <Gold.PLP.ligand.clash>
0.0000

> <Gold.PLP.ligand.torsion>
1.2945

> <Gold.PLP.Chemscore.Hbond>
2.4320

> <Gold.PLP.Chemscore.CHOScore>
0.0000

> <Gold.PLP.Chemscore.Metal>
0.0000

> <Gold.Chemscore.Hbonds>
donor molecule, donor type, donor heavy atom, donor atom, acceptor molecule, acceptor atom, score
      L1  H    10    30       P1  8028  0.98
      L1  H    20    21       P1  7957  1.00
      P1  H  8011  8017       L1    19  0.42

> <Gold.PLP.Chemscore.Internal.Correction>
0.1485

> <Gold.Rescore>
     Score         DG    S(hbond)    S(metal)    S(lipo)     H(rot)  DE(clash)    DE(int)     intcor
     16.09     -18.52       2.55        0.00      81.95       1.98       0.21       2.23       ----

> <Gold.Chemscore.Fitness>
16.0860

> <Gold.Chemscore.DG>
-18.5208

> <Gold.Chemscore.ZeroCoef>
-5.4800

> <Gold.Chemscore.Hbond>
2.5541

> <Gold.Chemscore.Metal>
0.0000

> <Gold.Chemscore.Lipo>
81.9471

> <Gold.Chemscore.Internal_Hbond>
0.0000

> <Gold.Chemscore.DEClash>
0.2076

> <Gold.Chemscore.DEInternal>
2.2272

> <Gold.Chemscore.Rot>
1.9835

> <Gold.Chemscore.Internal.Correction>
   9.000000E+99

> <Gold.Chemscore.Hbonds>
donor molecule, donor type, donor heavy atom, donor atom, acceptor molecule, acceptor atom, score
      L1  H    10    30       P1  8028  0.92
      L1  H    20    21       P1  7957  1.00
      P1  H  8011  8017       L1    19  0.42

> <Gold.Chemscore.Hbond.Weighted>
-8.5307

> <Gold.Chemscore.Metal.Weighted>
-0.0000

> <Gold.Chemscore.Lipo.Weighted>
-9.5878

> <Gold.Chemscore.Internal_Hbond.Weighted>
0.0000

> <Gold.Chemscore.DEClash.Weighted>
0.2076

> <Gold.Chemscore.DEInternal.Weighted>
2.2272

> <Gold.Chemscore.Rot.Weighted>
5.0778

> <Gold.Chemscore.Internal.Correction.Weighted>
   9.000000E+99

> <Gold.Protein.RotatedTorsions>
[ 6907 6896 6895 6894 ] final -159.57 input  -60.11 | X-H torsion
[ 7974 7965 7964 7962 ] final   98.43 input  175.53 | X-H torsion
[ 8008 7997 7996 7995 ] final    5.62 input   59.86 | X-H torsion
[ 10167 10162 10161 10158 ] final -143.21 input  -65.29 | X-H torsion
[ 10718 10713 10712 10709 ] final  145.29 input   66.30 | X-H torsion
[ 10763 10752 10751 10750 ] final  101.95 input  -60.55 | X-H torsion
[ 11005 11000 10999 10996 ] final  -25.14 input  -57.11 | X-H torsion

> <Gold.Protein.ActiveResidues>
 VAL166  LYS551  ARG553  GLY616  TRP617  ASP618  TYR619  PRO620  LYS621  CYS622 
 ASP623  PHE694  ASN695  SER759  ASP760  ASP761  ALA762  ILE779  LEU786  VAL792 
 PHE793  MET794  SER795  GLU796  ALA797  LYS798  CYS799  TRP800  GLU811  SER814 

> <Gold.Protein.RotatedAtoms>
  151.3357  133.3982  159.2666 H   0  0  0  0  0  0  0  0  0  0  0  0  # atno 6907 bound_to 6896
  150.9919  134.9252  159.7915 H   0  0  0  0  0  0  0  0  0  0  0  0  # atno 6908 bound_to 6896
  152.5249  134.3322  159.9239 H   0  0  0  0  0  0  0  0  0  0  0  0  # atno 6909 bound_to 6896
  145.4123  139.2332  143.3241 H   0  0  0  0  0  0  0  0  0  0  0  0  # atno 7974 bound_to 7965
  154.7306  140.2730  155.6459 H   0  0  0  0  0  0  0  0  0  0  0  0  # atno 8008 bound_to 7997
  156.2848  140.2716  156.1930 H   0  0  0  0  0  0  0  0  0  0  0  0  # atno 8009 bound_to 7997
  155.0386  140.0371  157.2491 H   0  0  0  0  0  0  0  0  0  0  0  0  # atno 8010 bound_to 7997
  139.8015  143.7827  152.2658 H   0  0  0  0  0  0  0  0  0  0  0  0  # atno 10167 bound_to 10162
  157.3470  131.0945  151.1033 H   0  0  0  0  0  0  0  0  0  0  0  0  # atno 10718 bound_to 10713
  153.3332  135.4027  155.1512 H   0  0  0  0  0  0  0  0  0  0  0  0  # atno 10763 bound_to 10752
  154.8627  135.3615  154.5443 H   0  0  0  0  0  0  0  0  0  0  0  0  # atno 10764 bound_to 10752
  153.5883  135.7074  153.5493 H   0  0  0  0  0  0  0  0  0  0  0  0  # atno 10765 bound_to 10752
  140.8910  133.7588  156.0421 H   0  0  0  0  0  0  0  0  0  0  0  0  # atno 11005 bound_to 11000
  146.2699  140.4836  142.8819 LP  0  0  0  0  0  0  0  0  0  0  0  0  # atno 17320 bound_to 7965
  144.8301  140.6692  143.6297 LP  0  0  0  0  0  0  0  0  0  0  0  0  # atno 17321 bound_to 7965
  139.7948  144.7396  150.9905 LP  0  0  0  0  0  0  0  0  0  0  0  0  # atno 17342 bound_to 10162
  140.7820  143.4405  151.0559 LP  0  0  0  0  0  0  0  0  0  0  0  0  # atno 17343 bound_to 10162
  157.2224  130.6487  149.5816 LP  0  0  0  0  0  0  0  0  0  0  0  0  # atno 17370 bound_to 10713
  155.9716  130.4625  150.6148 LP  0  0  0  0  0  0  0  0  0  0  0  0  # atno 17371 bound_to 10713
  140.8346  134.3138  157.5336 LP  0  0  0  0  0  0  0  0  0  0  0  0  # atno 17394 bound_to 11000
  139.8730  134.9382  156.3709 LP  0  0  0  0  0  0  0  0  0  0  0  0  # atno 17395 bound_to 11000

$$$$
