AV-unprocessed.smi:1126|AV-procd|sdf|4837|dock8
  -GOLD-   22720 3403D 1   1.00000     0.00000
 Structure written by MMmdl.
 48 49  0  0  0  0  0  0  0  0  2 V2000
  144.4045  132.3451  149.5044 C   0  0  0  0  0  0  0  0  0  0  0  0
  145.0807  131.6590  150.5440 O   0  0  0  0  0  0  0  0  0  0  0  0
  145.3917  132.5031  151.6401 C   0  0  0  0  0  0  0  0  0  0  0  0
  146.4126  133.5578  151.1848 C   0  0  0  0  0  0  0  0  0  0  0  0
  147.2679  134.0457  152.2970 N   0  3  2  0  0  0  0  0  0  0  0  0
  148.2078  133.0017  152.7793 C   0  0  0  0  0  0  0  0  0  0  0  0
  149.1820  133.5675  153.8260 C   0  0  0  0  0  0  0  0  0  0  0  0
  148.4291  134.1974  155.0143 C   0  0  1  0  0  0  0  0  0  0  0  0
  149.3787  134.8156  156.0573 C   0  0  0  0  0  0  0  0  0  0  0  0
  148.6745  135.7313  156.9448 N   0  0  0  0  0  0  0  0  0  0  0  0
  149.2277  136.3337  158.0073 C   0  0  0  0  0  0  0  0  0  0  0  0
  150.3971  136.1628  158.3506 O   0  0  0  0  0  0  0  0  0  0  0  0
  148.3241  137.2743  158.8051 C   0  0  0  0  0  0  0  0  0  0  0  0
  147.8650  136.6431  160.0293 N   0  0  0  0  0  0  0  0  0  0  0  0
  147.9398  135.3132  160.3868 C   0  0  0  0  0  0  0  0  0  0  0  0
  147.3864  135.1897  161.6297 C   0  0  0  0  0  0  0  0  0  0  0  0
  147.2231  133.9522  162.4645 C   0  0  0  0  0  0  0  0  0  0  0  0
  146.9974  136.5209  161.9524 C   0  0  0  0  0  0  0  0  0  0  0  0
  147.2853  137.3881  160.9952 N   0  0  0  0  0  0  0  0  0  0  0  0
  147.4382  135.2442  154.4771 C   0  0  0  0  0  0  0  0  0  0  0  0
  146.4977  134.6408  153.4207 C   0  0  0  0  0  0  0  0  0  0  0  0
  144.1986  131.6569  148.6846 H   0  0  0  0  0  0  0  0  0  0  0  0
  145.0097  133.1633  149.1120 H   0  0  0  0  0  0  0  0  0  0  0  0
  143.4525  132.7484  149.8520 H   0  0  0  0  0  0  0  0  0  0  0  0
  144.4889  132.9640  152.0411 H   0  0  0  0  0  0  0  0  0  0  0  0
  145.8265  131.9069  152.4440 H   0  0  0  0  0  0  0  0  0  0  0  0
  147.0410  133.1608  150.3863 H   0  0  0  0  0  0  0  0  0  0  0  0
  145.8601  134.3939  150.7536 H   0  0  0  0  0  0  0  0  0  0  0  0
  147.6431  132.1685  153.2009 H   0  0  0  0  0  0  0  0  0  0  0  0
  148.7800  132.6046  151.9401 H   0  0  0  0  0  0  0  0  0  0  0  0
  149.8397  132.7689  154.1707 H   0  0  0  0  0  0  0  0  0  0  0  0
  149.8250  134.3147  153.3582 H   0  0  0  0  0  0  0  0  0  0  0  0
  147.8527  133.4129  155.5077 H   0  0  0  0  0  0  0  0  0  0  0  0
  149.8532  134.0286  156.6460 H   0  0  0  0  0  0  0  0  0  0  0  0
  150.1779  135.3636  155.5554 H   0  0  0  0  0  0  0  0  0  0  0  0
  147.7089  135.9350  156.7302 H   0  0  0  0  0  0  0  0  0  0  0  0
  148.8586  138.1953  159.0443 H   0  0  0  0  0  0  0  0  0  0  0  0
  147.4550  137.5532  158.2078 H   0  0  0  0  0  0  0  0  0  0  0  0
  148.3786  134.5734  159.7333 H   0  0  0  0  0  0  0  0  0  0  0  0
  146.5679  134.1227  163.3190 H   0  0  0  0  0  0  0  0  0  0  0  0
  148.1786  133.6038  162.8569 H   0  0  0  0  0  0  0  0  0  0  0  0
  146.7929  133.1323  161.8892 H   0  0  0  0  0  0  0  0  0  0  0  0
  146.5171  136.8806  162.8504 H   0  0  0  0  0  0  0  0  0  0  0  0
  146.8483  135.6542  155.2977 H   0  0  0  0  0  0  0  0  0  0  0  0
  147.9840  136.0827  154.0417 H   0  0  0  0  0  0  0  0  0  0  0  0
  145.8345  135.4243  153.0567 H   0  0  0  0  0  0  0  0  0  0  0  0
  145.8637  133.8774  153.8749 H   0  0  0  0  0  0  0  0  0  0  0  0
  147.8412  134.7817  151.9094 H   0  0  0  0  0  0  0  0  0  0  0  0
  1  2  1  0  0  0  0
  1 22  1  0  0  0  0
  1 23  1  0  0  0  0
  1 24  1  0  0  0  0
  2  3  1  0  0  0  0
  3  4  1  0  0  0  0
  3 25  1  0  0  0  0
  3 26  1  0  0  0  0
  4  5  1  0  0  0  0
  4 27  1  0  0  0  0
  4 28  1  0  0  0  0
  5 21  1  0  0  0  0
  5  6  1  0  0  0  0
  5 48  1  0  0  0  0
  6  7  1  0  0  0  0
  6 29  1  0  0  0  0
  6 30  1  0  0  0  0
  7  8  1  0  0  0  0
  7 31  1  0  0  0  0
  7 32  1  0  0  0  0
  8  9  1  0  0  0  0
  8 20  1  0  0  0  0
  8 33  1  0  0  0  0
  9 10  1  0  0  0  0
  9 34  1  0  0  0  0
  9 35  1  0  0  0  0
 10 11  1  0  0  0  0
 10 36  1  0  0  0  0
 11 12  2  0  0  0  0
 11 13  1  0  0  0  0
 13 14  1  0  0  0  0
 13 37  1  0  0  0  0
 13 38  1  0  0  0  0
 14 19  1  0  0  0  0
 14 15  1  0  0  0  0
 15 16  2  0  0  0  0
 15 39  1  0  0  0  0
 16 17  1  0  0  0  0
 16 18  1  0  0  0  0
 17 40  1  0  0  0  0
 17 41  1  0  0  0  0
 17 42  1  0  0  0  0
 18 19  2  0  0  0  0
 18 43  1  0  0  0  0
 20 21  1  0  0  0  0
 20 44  1  0  0  0  0
 20 45  1  0  0  0  0
 21 46  1  0  0  0  0
 21 47  1  0  0  0  0
M  CHG  1   5   1
M  END
> <s_m_source_file>
AV-unprocessed.smi

> <i_m_source_file_index>
1126

> <i_lp_mmshare_version>
43012

> <i_f3d_flags>
0

> <s_epik_input>
W0NIM11PW0NIMl1bQ0gyXU4xW0NIMl1bQ0gyXVtDSF0oW0NIMl1bQ0gyXTEpW0NIMl1bTkhdQyg9TylbQ0gyXW4yW2NIXWMoW0NIM10pW2NIXW4y

> <s_epik_cmdline>
J2VwaWtfcHl0aG9uJywgJy1waCcsICc3LjAnLCAnLXRuJywgJzgnLCAnLW1hJywgJzIwMCcsICctbWV0YWxfYmluZGluZycsICctaW1hZScsICc8aW5maWxlLm1hZT4nLCAnLW9tYWUnLCAnPG91dGZpbGUubWFlPic=

> <r_lp_tautomer_probability>
1

> <r_epik_Ionization_Penalty>
0.00992859

> <r_epik_Ionization_Penalty_Charging>
0.00990284

> <r_epik_Ionization_Penalty_Neutral>
2.57527e-05

> <r_epik_State_Penalty>
0.00754525

> <r_epik_Charging_Adjusted_Penalty>
0.0174481

> <i_epik_Tot_Q>
1

> <i_epik_Tot_abs_Q>
1

> <r_epik_Metal_State_Penalty>
0.00754529

> <b_epik_Metal_Only>
0

> <s_lp_Force_Field>
OPLS_2005

> <r_lp_Energy>
19.6202

> <b_lp_Chiralities_Consistent>
1

> <s_lp_Variant>
AV-unprocessed.smi:1126-1

> <Gold.Version>
5.8.1

> <Gold.Id.Protein>
6NUR|6NUR_protein|mol2

> <Gold.PLP.Fitness>
49.5223

> <Gold.PLP.PLP>
-37.6948

> <Gold.PLP.part.hbond>
-4.0000

> <Gold.PLP.part.metal>
0.0000

> <Gold.PLP.part.buried>
-4.8417

> <Gold.PLP.part.nonpolar>
-29.3529

> <Gold.PLP.part.repulsive>
0.1653

> <Gold.PLP.ligand.clash>
0.0000

> <Gold.PLP.ligand.torsion>
0.7523

> <Gold.PLP.Chemscore.Hbond>
4.4320

> <Gold.PLP.Chemscore.CHOScore>
0.0000

> <Gold.PLP.Chemscore.Metal>
0.0000

> <Gold.Chemscore.Hbonds>
donor molecule, donor type, donor heavy atom, donor atom, acceptor molecule, acceptor atom, score
      L1  H     5    48       P1  7948  2.00
      P1  H  6896  6908       L1    12  0.64
      P1  H  6931  6943       L1    19  0.46
      P1  H  6934  6947       L1    19  1.00

> <Gold.PLP.Chemscore.Internal.Correction>
0.0362

> <Gold.Rescore>
     Score         DG    S(hbond)    S(metal)    S(lipo)     H(rot)  DE(clash)    DE(int)     intcor
     18.41     -19.19       2.91        0.00      79.98       2.10       0.00       0.78       ----

> <Gold.Chemscore.Fitness>
18.4140

> <Gold.Chemscore.DG>
-19.1929

> <Gold.Chemscore.ZeroCoef>
-5.4800

> <Gold.Chemscore.Hbond>
2.9140

> <Gold.Chemscore.Metal>
0.0000

> <Gold.Chemscore.Lipo>
79.9804

> <Gold.Chemscore.Internal_Hbond>
0.0000

> <Gold.Chemscore.DEClash>
0.0009

> <Gold.Chemscore.DEInternal>
0.7780

> <Gold.Chemscore.Rot>
2.1006

> <Gold.Chemscore.Internal.Correction>
   9.000000E+99

> <Gold.Chemscore.Hbonds>
donor molecule, donor type, donor heavy atom, donor atom, acceptor molecule, acceptor atom, score
      L1  H     5    48       P1  7948  0.40
      P1  H  6896  6908       L1    12  0.53
      P1  H  6931  6943       L1    19  0.02
      P1  H  6934  6947       L1    19  0.97

> <Gold.Chemscore.Hbond.Weighted>
-9.7328

> <Gold.Chemscore.Metal.Weighted>
-0.0000

> <Gold.Chemscore.Lipo.Weighted>
-9.3577

> <Gold.Chemscore.Internal_Hbond.Weighted>
0.0000

> <Gold.Chemscore.DEClash.Weighted>
0.0009

> <Gold.Chemscore.DEInternal.Weighted>
0.7780

> <Gold.Chemscore.Rot.Weighted>
5.3775

> <Gold.Chemscore.Internal.Correction.Weighted>
   9.000000E+99

> <Gold.Protein.RotatedTorsions>
[ 6907 6896 6895 6894 ] final  165.14 input  -60.11 | X-H torsion
[ 7974 7965 7964 7962 ] final  -63.00 input  175.53 | X-H torsion
[ 8008 7997 7996 7995 ] final  157.44 input   59.86 | X-H torsion
[ 10167 10162 10161 10158 ] final  -25.38 input  -65.29 | X-H torsion
[ 10718 10713 10712 10709 ] final  -69.09 input   66.30 | X-H torsion
[ 10763 10752 10751 10750 ] final  -31.36 input  -60.55 | X-H torsion
[ 11005 11000 10999 10996 ] final   -3.06 input  -57.11 | X-H torsion

> <Gold.Protein.ActiveResidues>
 VAL166  LYS551  ARG553  GLY616  TRP617  ASP618  TYR619  PRO620  LYS621  CYS622 
 ASP623  PHE694  ASN695  SER759  ASP760  ASP761  ALA762  ILE779  LEU786  VAL792 
 PHE793  MET794  SER795  GLU796  ALA797  LYS798  CYS799  TRP800  GLU811  SER814 

> <Gold.Protein.RotatedAtoms>
  151.8991  133.3534  159.3824 H   0  0  0  0  0  0  0  0  0  0  0  0  # atno 6907 bound_to 6896
  150.7084  134.4847  159.5496 H   0  0  0  0  0  0  0  0  0  0  0  0  # atno 6908 bound_to 6896
  152.2431  134.8208  160.0508 H   0  0  0  0  0  0  0  0  0  0  0  0  # atno 6909 bound_to 6896
  145.7845  140.8744  143.0313 H   0  0  0  0  0  0  0  0  0  0  0  0  # atno 7974 bound_to 7965
  156.2364  140.1885  156.7108 H   0  0  0  0  0  0  0  0  0  0  0  0  # atno 8008 bound_to 7997
  154.6114  140.0621  156.9526 H   0  0  0  0  0  0  0  0  0  0  0  0  # atno 8009 bound_to 7997
  155.2010  140.3292  155.4346 H   0  0  0  0  0  0  0  0  0  0  0  0  # atno 8010 bound_to 7997
  140.7286  143.4269  151.0862 H   0  0  0  0  0  0  0  0  0  0  0  0  # atno 10167 bound_to 10162
  156.0472  130.4306  150.2097 H   0  0  0  0  0  0  0  0  0  0  0  0  # atno 10718 bound_to 10713
  153.7961  135.6894  153.4863 H   0  0  0  0  0  0  0  0  0  0  0  0  # atno 10763 bound_to 10752
  153.1718  135.4540  154.9911 H   0  0  0  0  0  0  0  0  0  0  0  0  # atno 10764 bound_to 10752
  154.8025  135.3343  154.7453 H   0  0  0  0  0  0  0  0  0  0  0  0  # atno 10765 bound_to 10752
  140.6652  133.9285  155.8460 H   0  0  0  0  0  0  0  0  0  0  0  0  # atno 11005 bound_to 11000
  144.6791  140.0035  143.7484 LP  0  0  0  0  0  0  0  0  0  0  0  0  # atno 17320 bound_to 7965
  146.0040  139.3115  143.0910 LP  0  0  0  0  0  0  0  0  0  0  0  0  # atno 17321 bound_to 7965
  139.7922  143.8202  152.3153 LP  0  0  0  0  0  0  0  0  0  0  0  0  # atno 17342 bound_to 10162
  139.8190  144.7304  150.9597 LP  0  0  0  0  0  0  0  0  0  0  0  0  # atno 17343 bound_to 10162
  157.0185  130.9972  151.3346 LP  0  0  0  0  0  0  0  0  0  0  0  0  # atno 17370 bound_to 10713
  157.5361  130.8089  149.7973 LP  0  0  0  0  0  0  0  0  0  0  0  0  # atno 17371 bound_to 10713
  141.0434  134.0588  157.3873 LP  0  0  0  0  0  0  0  0  0  0  0  0  # atno 17394 bound_to 11000
  139.8999  135.0160  156.7219 LP  0  0  0  0  0  0  0  0  0  0  0  0  # atno 17395 bound_to 11000

$$$$
