AV-unprocessed.smi:2502|AV-procd|sdf|9846|dock1
  -GOLD-   2272013473D 1   1.00000     0.00000
 Structure written by MMmdl.
 39 41  0  0  0  0  0  0  0  0  1 V2000
  153.0741  136.9128  160.2572 O   0  0  0  0  0  0  0  0  0  0  0  0
  153.2885  137.7232  161.3971 C   0  0  1  0  0  0  0  0  0  0  0  0
  153.7874  136.8303  162.5441 C   0  0  0  0  0  0  0  0  0  0  0  0
  153.5180  137.4773  163.7796 O   0  0  0  0  0  0  0  0  0  0  0  0
  154.0563  136.8225  164.9210 C   0  0  0  0  0  0  0  0  0  0  0  0
  155.5921  136.9098  164.9524 C   0  0  0  0  0  0  0  0  0  0  0  0
  156.1577  136.0289  166.0786 C   0  0  0  0  0  0  0  0  0  0  0  0
  155.7188  134.6840  165.9161 O   0  0  0  0  0  0  0  0  0  0  0  0
  154.3032  134.5479  165.9893 C   0  0  0  0  0  0  0  0  0  0  0  0
  153.6413  135.3470  164.8553 C   0  0  0  0  0  0  0  0  0  0  0  0
  154.3059  138.8257  161.0427 C   0  0  0  0  0  0  0  0  0  0  0  0
  153.7522  139.8318  160.1531 N   0  0  0  0  0  0  0  0  0  0  0  0
  153.6672  139.5686  158.8183 N   0  0  0  0  0  0  0  0  0  0  0  0
  153.1484  140.6005  158.2228 N   0  0  0  0  0  0  0  0  0  0  0  0
  152.8867  141.5631  159.1835 C   0  0  0  0  0  0  0  0  0  0  0  0
  152.3321  142.8590  159.0919 C   0  0  0  0  0  0  0  0  0  0  0  0
  152.1731  143.6513  160.2500 C   0  0  0  0  0  0  0  0  0  0  0  0
  151.4917  145.2316  160.0966 Cl  0  0  0  0  0  0  0  0  0  0  0  0
  152.5687  143.1544  161.5155 C   0  0  0  0  0  0  0  0  0  0  0  0
  152.3831  144.1115  162.9418 Cl  0  0  0  0  0  0  0  0  0  0  0  0
  153.1225  141.8629  161.6220 C   0  0  0  0  0  0  0  0  0  0  0  0
  153.2711  141.0906  160.4572 C   0  0  0  0  0  0  0  0  0  0  0  0
  153.8422  136.9557  159.7084 H   0  0  0  0  0  0  0  0  0  0  0  0
  152.3445  138.1888  161.6840 H   0  0  0  0  0  0  0  0  0  0  0  0
  153.3358  135.8392  162.4905 H   0  0  0  0  0  0  0  0  0  0  0  0
  154.8670  136.6971  162.4587 H   0  0  0  0  0  0  0  0  0  0  0  0
  153.6408  137.2568  165.8323 H   0  0  0  0  0  0  0  0  0  0  0  0
  155.9992  136.5807  163.9957 H   0  0  0  0  0  0  0  0  0  0  0  0
  155.9214  137.9386  165.0959 H   0  0  0  0  0  0  0  0  0  0  0  0
  157.2474  136.0477  166.0572 H   0  0  0  0  0  0  0  0  0  0  0  0
  155.8529  136.4055  167.0563 H   0  0  0  0  0  0  0  0  0  0  0  0
  154.0464  133.4919  165.9029 H   0  0  0  0  0  0  0  0  0  0  0  0
  153.9447  134.8839  166.9634 H   0  0  0  0  0  0  0  0  0  0  0  0
  152.5563  135.2578  164.9160 H   0  0  0  0  0  0  0  0  0  0  0  0
  153.9368  134.9230  163.8945 H   0  0  0  0  0  0  0  0  0  0  0  0
  154.6524  139.3249  161.9489 H   0  0  0  0  0  0  0  0  0  0  0  0
  155.1895  138.3924  160.5718 H   0  0  0  0  0  0  0  0  0  0  0  0
  152.0294  143.2443  158.1292 H   0  0  0  0  0  0  0  0  0  0  0  0
  153.4295  141.4729  162.5812 H   0  0  0  0  0  0  0  0  0  0  0  0
  1  2  1  0  0  0  0
  1 23  1  0  0  0  0
  2  3  1  0  0  0  0
  2 11  1  0  0  0  0
  2 24  1  0  0  0  0
  3  4  1  0  0  0  0
  3 25  1  0  0  0  0
  3 26  1  0  0  0  0
  4  5  1  0  0  0  0
  5 10  1  0  0  0  0
  5  6  1  0  0  0  0
  5 27  1  0  0  0  0
  6  7  1  0  0  0  0
  6 28  1  0  0  0  0
  6 29  1  0  0  0  0
  7  8  1  0  0  0  0
  7 30  1  0  0  0  0
  7 31  1  0  0  0  0
  8  9  1  0  0  0  0
  9 10  1  0  0  0  0
  9 32  1  0  0  0  0
  9 33  1  0  0  0  0
 10 34  1  0  0  0  0
 10 35  1  0  0  0  0
 11 12  1  0  0  0  0
 11 36  1  0  0  0  0
 11 37  1  0  0  0  0
 12 22  1  0  0  0  0
 12 13  1  0  0  0  0
 13 14  2  0  0  0  0
 14 15  1  0  0  0  0
 15 22  2  0  0  0  0
 15 16  1  0  0  0  0
 16 17  2  0  0  0  0
 16 38  1  0  0  0  0
 17 18  1  0  0  0  0
 17 19  1  0  0  0  0
 19 20  1  0  0  0  0
 19 21  2  0  0  0  0
 21 22  1  0  0  0  0
 21 39  1  0  0  0  0
M  END
> <s_m_source_file>
AV-unprocessed.smi

> <i_m_source_file_index>
2502

> <i_lp_mmshare_version>
43012

> <i_f3d_flags>
0

> <s_epik_input>
W2NIXTFjKENsKWMoQ2wpW2NIXWMoYzEyKW4obm4yKVtDSDJdW0NASF0oW09IXSlbQ0gyXU9bQ0hdM1tDSDJdW0NIMl1PW0NIMl1bQ0gyXTM=

> <s_epik_cmdline>
J2VwaWtfcHl0aG9uJywgJy1waCcsICc3LjAnLCAnLXRuJywgJzgnLCAnLW1hJywgJzIwMCcsICctbWV0YWxfYmluZGluZycsICctaW1hZScsICc8aW5maWxlLm1hZT4nLCAnLW9tYWUnLCAnPG91dGZpbGUubWFlPic=

> <r_lp_tautomer_probability>
1

> <r_epik_Ionization_Penalty>
2.65748e-06

> <r_epik_Ionization_Penalty_Charging>
0

> <r_epik_Ionization_Penalty_Neutral>
2.65748e-06

> <r_epik_State_Penalty>
-0

> <r_epik_Charging_Adjusted_Penalty>
0

> <i_epik_Tot_Q>
0

> <i_epik_Tot_abs_Q>
0

> <r_epik_Metal_State_Penalty>
-0

> <b_epik_Metal_Only>
0

> <s_lp_Force_Field>
OPLS_2005

> <r_lp_Energy>
14.648

> <b_lp_Chiralities_Consistent>
1

> <s_lp_Variant>
AV-unprocessed.smi:2502-2

> <Gold.Version>
5.8.1

> <Gold.Id.Protein>
6NUR|6NUR_protein|mol2

> <Gold.PLP.Fitness>
47.0727

> <Gold.PLP.PLP>
-43.2863

> <Gold.PLP.part.hbond>
-2.7361

> <Gold.PLP.part.metal>
0.0000

> <Gold.PLP.part.buried>
-4.6336

> <Gold.PLP.part.nonpolar>
-35.9364

> <Gold.PLP.part.repulsive>
0.0348

> <Gold.PLP.ligand.clash>
0.0000

> <Gold.PLP.ligand.torsion>
0.6178

> <Gold.PLP.Chemscore.Hbond>
1.6500

> <Gold.PLP.Chemscore.CHOScore>
0.0000

> <Gold.PLP.Chemscore.Metal>
0.0000

> <Gold.Chemscore.Hbonds>
donor molecule, donor type, donor heavy atom, donor atom, acceptor molecule, acceptor atom, score
      P1  H  6896  6908       L1     1  0.68

> <Gold.PLP.Chemscore.Internal.Correction>
0.0720

> <Gold.Rescore>
     Score         DG    S(hbond)    S(metal)    S(lipo)     H(rot)  DE(clash)    DE(int)     intcor
     18.12     -18.84       0.97        0.00     134.86       2.21       0.19       0.52       ----

> <Gold.Chemscore.Fitness>
18.1215

> <Gold.Chemscore.DG>
-18.8370

> <Gold.Chemscore.ZeroCoef>
-5.4800

> <Gold.Chemscore.Hbond>
0.9663

> <Gold.Chemscore.Metal>
0.0000

> <Gold.Chemscore.Lipo>
134.8559

> <Gold.Chemscore.Internal_Hbond>
0.0000

> <Gold.Chemscore.DEClash>
0.1931

> <Gold.Chemscore.DEInternal>
0.5224

> <Gold.Chemscore.Rot>
2.2065

> <Gold.Chemscore.Internal.Correction>
   9.000000E+99

> <Gold.Chemscore.Hbonds>
donor molecule, donor type, donor heavy atom, donor atom, acceptor molecule, acceptor atom, score
      P1  H  6896  6908       L1     1  0.62

> <Gold.Chemscore.Hbond.Weighted>
-3.2274

> <Gold.Chemscore.Metal.Weighted>
-0.0000

> <Gold.Chemscore.Lipo.Weighted>
-15.7781

> <Gold.Chemscore.Internal_Hbond.Weighted>
0.0000

> <Gold.Chemscore.DEClash.Weighted>
0.1931

> <Gold.Chemscore.DEInternal.Weighted>
0.5224

> <Gold.Chemscore.Rot.Weighted>
5.6485

> <Gold.Chemscore.Internal.Correction.Weighted>
   9.000000E+99

> <Gold.Protein.RotatedTorsions>
[ 6907 6896 6895 6894 ] final -101.42 input  -60.11 | X-H torsion
[ 7974 7965 7964 7962 ] final -125.28 input  175.53 | X-H torsion
[ 8008 7997 7996 7995 ] final   24.38 input   59.86 | X-H torsion
[ 10167 10162 10161 10158 ] final   88.44 input  -65.29 | X-H torsion
[ 10718 10713 10712 10709 ] final   -0.05 input   66.30 | X-H torsion
[ 10763 10752 10751 10750 ] final  157.41 input  -60.55 | X-H torsion
[ 11005 11000 10999 10996 ] final -136.58 input  -57.11 | X-H torsion

> <Gold.Protein.ActiveResidues>
 VAL166  LYS551  ARG553  GLY616  TRP617  ASP618  TYR619  PRO620  LYS621  CYS622 
 ASP623  PHE694  ASN695  SER759  ASP760  ASP761  ALA762  ILE779  LEU786  VAL792 
 PHE793  MET794  SER795  GLU796  ALA797  LYS798  CYS799  TRP800  GLU811  SER814 

> <Gold.Protein.RotatedAtoms>
  150.7154  134.0736  159.3872 H   0  0  0  0  0  0  0  0  0  0  0  0  # atno 6907 bound_to 6896
  151.8719  135.0484  160.0489 H   0  0  0  0  0  0  0  0  0  0  0  0  # atno 6908 bound_to 6896
  152.2636  133.5284  159.5433 H   0  0  0  0  0  0  0  0  0  0  0  0  # atno 6909 bound_to 6896
  144.9992  140.7804  143.4507 H   0  0  0  0  0  0  0  0  0  0  0  0  # atno 7974 bound_to 7965
  154.9955  140.3119  155.4889 H   0  0  0  0  0  0  0  0  0  0  0  0  # atno 8008 bound_to 7997
  156.2933  140.2241  156.5002 H   0  0  0  0  0  0  0  0  0  0  0  0  # atno 8009 bound_to 7997
  154.7665  140.0455  157.1005 H   0  0  0  0  0  0  0  0  0  0  0  0  # atno 8010 bound_to 7997
  139.8672  144.6512  150.8990 H   0  0  0  0  0  0  0  0  0  0  0  0  # atno 10167 bound_to 10162
  156.8262  130.5473  149.5692 H   0  0  0  0  0  0  0  0  0  0  0  0  # atno 10718 bound_to 10713
  154.1998  135.2791  155.2994 H   0  0  0  0  0  0  0  0  0  0  0  0  # atno 10763 bound_to 10752
  154.5863  135.5574  153.7238 H   0  0  0  0  0  0  0  0  0  0  0  0  # atno 10764 bound_to 10752
  153.0091  135.6357  154.2136 H   0  0  0  0  0  0  0  0  0  0  0  0  # atno 10765 bound_to 10752
  140.8792  134.1954  157.4602 H   0  0  0  0  0  0  0  0  0  0  0  0  # atno 11005 bound_to 11000
  145.2177  139.2174  143.5109 LP  0  0  0  0  0  0  0  0  0  0  0  0  # atno 17320 bound_to 7965
  146.3448  140.2028  142.8589 LP  0  0  0  0  0  0  0  0  0  0  0  0  # atno 17321 bound_to 7965
  140.7766  143.3694  151.1678 LP  0  0  0  0  0  0  0  0  0  0  0  0  # atno 17342 bound_to 10162
  139.7318  143.9061  152.3022 LP  0  0  0  0  0  0  0  0  0  0  0  0  # atno 17343 bound_to 10162
  156.0960  130.5933  150.9815 LP  0  0  0  0  0  0  0  0  0  0  0  0  # atno 17370 bound_to 10713
  157.6431  131.0907  150.8210 LP  0  0  0  0  0  0  0  0  0  0  0  0  # atno 17371 bound_to 10713
  139.8718  134.9809  156.5096 LP  0  0  0  0  0  0  0  0  0  0  0  0  # atno 17394 bound_to 11000
  140.8482  133.8152  155.9142 LP  0  0  0  0  0  0  0  0  0  0  0  0  # atno 17395 bound_to 11000

$$$$
