AV-unprocessed.smi:79|AV-procd|sdf|782|dock7
  -GOLD-   2262017143D 1   1.00000     0.00000
 Structure written by MMmdl.
 56 59  0  0  0  0  0  0  0  0  2 V2000
  144.6398  132.3441  149.4417 C   0  0  0  0  0  0  0  0  0  0  0  0
  144.7370  133.3233  150.6185 C   0  0  1  0  0  0  0  0  0  0  0  0
  144.3692  134.6071  150.1563 O   0  0  0  0  0  0  0  0  0  0  0  0
  143.8121  132.9220  151.7843 C   0  0  0  0  0  0  0  0  0  0  0  0
  144.1064  133.6733  153.0316 N   0  3  2  0  0  0  0  0  0  0  0  0
  143.5780  135.0646  153.0219 C   0  0  0  0  0  0  0  0  0  0  0  0
  143.8612  135.7809  154.3558 C   0  0  0  0  0  0  0  0  0  0  0  0
  145.2842  135.7393  154.6759 N   0  0  0  0  0  0  0  0  0  0  0  0
  145.9788  136.7611  154.1116 C   0  0  0  0  0  0  0  0  0  0  0  0
  145.6754  137.2012  152.8622 N   0  0  0  0  0  0  0  0  0  0  0  0
  146.3463  138.2256  152.3271 C   0  0  0  0  0  0  0  0  0  0  0  0
  147.3333  138.9464  152.8623 N   0  0  0  0  0  0  0  0  0  0  0  0
  147.6356  138.5149  154.1202 C   0  0  0  0  0  0  0  0  0  0  0  0
  147.0112  137.4409  154.8136 C   0  0  0  0  0  0  0  0  0  0  0  0
  147.5779  137.2948  156.0732 N   0  0  0  0  0  0  0  0  0  0  0  0
  148.4876  138.2297  156.1220 C   0  0  0  0  0  0  0  0  0  0  0  0
  148.5961  139.0047  154.9886 N   0  0  0  0  0  0  0  0  0  0  0  0
  149.5158  140.1112  154.7714 C   0  0  0  0  0  0  0  0  0  0  0  0
  150.3822  140.4524  155.9981 C   0  0  0  0  0  0  0  0  0  0  0  0
  151.5273  139.4238  156.0936 C   0  0  0  0  0  0  0  0  0  0  0  0
  152.6171  139.7470  155.2528 O   0  0  0  0  0  0  0  0  0  0  0  0
  150.7847  141.9298  156.1138 C   0  0  0  0  0  0  0  0  0  0  0  0
  150.2674  142.0271  157.4592 O   0  0  0  0  0  0  0  0  0  0  0  0
  149.6256  140.7424  157.3022 C   0  0  0  0  0  0  0  0  0  0  0  0
  145.8282  134.3762  154.7098 C   0  0  2  0  0  0  0  0  0  0  0  0
  147.2990  134.2967  155.1621 C   0  0  0  0  0  0  0  0  0  0  0  0
  145.5479  133.6189  153.3927 C   0  0  0  0  0  0  0  0  0  0  0  0
  144.9275  131.3375  149.7467 H   0  0  0  0  0  0  0  0  0  0  0  0
  145.3019  132.6411  148.6275 H   0  0  0  0  0  0  0  0  0  0  0  0
  143.6250  132.2936  149.0453 H   0  0  0  0  0  0  0  0  0  0  0  0
  145.7758  133.3622  150.9445 H   0  0  0  0  0  0  0  0  0  0  0  0
  144.8912  134.8176  149.3966 H   0  0  0  0  0  0  0  0  0  0  0  0
  142.7783  133.0977  151.4819 H   0  0  0  0  0  0  0  0  0  0  0  0
  143.8896  131.8520  151.9845 H   0  0  0  0  0  0  0  0  0  0  0  0
  144.0320  135.6185  152.1985 H   0  0  0  0  0  0  0  0  0  0  0  0
  142.5035  135.0640  152.8440 H   0  0  0  0  0  0  0  0  0  0  0  0
  143.4957  136.8078  154.3139 H   0  0  0  0  0  0  0  0  0  0  0  0
  143.3110  135.2952  155.1625 H   0  0  0  0  0  0  0  0  0  0  0  0
  146.0480  138.5101  151.3287 H   0  0  0  0  0  0  0  0  0  0  0  0
  149.1071  138.3794  156.9938 H   0  0  0  0  0  0  0  0  0  0  0  0
  150.1463  139.8741  153.9136 H   0  0  0  0  0  0  0  0  0  0  0  0
  148.9235  140.9758  154.4694 H   0  0  0  0  0  0  0  0  0  0  0  0
  151.9148  139.3589  157.1103 H   0  0  0  0  0  0  0  0  0  0  0  0
  151.1767  138.4271  155.8242 H   0  0  0  0  0  0  0  0  0  0  0  0
  152.8722  138.9701  154.7789 H   0  0  0  0  0  0  0  0  0  0  0  0
  151.8588  142.1113  156.0621 H   0  0  0  0  0  0  0  0  0  0  0  0
  150.2506  142.5900  155.4289 H   0  0  0  0  0  0  0  0  0  0  0  0
  148.5473  140.8489  157.1791 H   0  0  0  0  0  0  0  0  0  0  0  0
  149.8561  140.0548  158.1164 H   0  0  0  0  0  0  0  0  0  0  0  0
  145.2569  133.8678  155.4880 H   0  0  0  0  0  0  0  0  0  0  0  0
  147.5928  133.2605  155.3312 H   0  0  0  0  0  0  0  0  0  0  0  0
  147.4502  134.8351  156.0982 H   0  0  0  0  0  0  0  0  0  0  0  0
  147.9878  134.7070  154.4246 H   0  0  0  0  0  0  0  0  0  0  0  0
  145.8483  132.5766  153.5077 H   0  0  0  0  0  0  0  0  0  0  0  0
  146.1419  134.0234  152.5730 H   0  0  0  0  0  0  0  0  0  0  0  0
  143.6209  133.1874  153.7724 H   0  0  0  0  0  0  0  0  0  0  0  0
  1  2  1  0  0  0  0
  1 28  1  0  0  0  0
  1 29  1  0  0  0  0
  1 30  1  0  0  0  0
  2  3  1  0  0  0  0
  2  4  1  0  0  0  0
  2 31  1  0  0  0  0
  3 32  1  0  0  0  0
  4  5  1  0  0  0  0
  4 33  1  0  0  0  0
  4 34  1  0  0  0  0
  5 27  1  0  0  0  0
  5  6  1  0  0  0  0
  5 56  1  0  0  0  0
  6  7  1  0  0  0  0
  6 35  1  0  0  0  0
  6 36  1  0  0  0  0
  7  8  1  0  0  0  0
  7 37  1  0  0  0  0
  7 38  1  0  0  0  0
  8  9  1  0  0  0  0
  8 25  1  0  0  0  0
  9 14  1  0  0  0  0
  9 10  2  0  0  0  0
 10 11  1  0  0  0  0
 11 12  2  0  0  0  0
 11 39  1  0  0  0  0
 12 13  1  0  0  0  0
 13 17  1  0  0  0  0
 13 14  2  0  0  0  0
 14 15  1  0  0  0  0
 15 16  2  0  0  0  0
 16 17  1  0  0  0  0
 16 40  1  0  0  0  0
 17 18  1  0  0  0  0
 18 19  1  0  0  0  0
 18 41  1  0  0  0  0
 18 42  1  0  0  0  0
 19 24  1  0  0  0  0
 19 20  1  0  0  0  0
 19 22  1  0  0  0  0
 20 21  1  0  0  0  0
 20 43  1  0  0  0  0
 20 44  1  0  0  0  0
 21 45  1  0  0  0  0
 22 23  1  0  0  0  0
 22 46  1  0  0  0  0
 22 47  1  0  0  0  0
 23 24  1  0  0  0  0
 24 48  1  0  0  0  0
 24 49  1  0  0  0  0
 25 26  1  0  0  0  0
 25 27  1  0  0  0  0
 25 50  1  0  0  0  0
 26 51  1  0  0  0  0
 26 52  1  0  0  0  0
 26 53  1  0  0  0  0
 27 54  1  0  0  0  0
 27 55  1  0  0  0  0
M  CHG  1   5   1
M  END
> <s_m_source_file>
AV-unprocessed.smi

> <i_m_source_file_index>
79

> <i_lp_mmshare_version>
43012

> <i_f3d_flags>
0

> <s_epik_input>
W0NIM11bQ0BIXShbT0hdKVtDSDJdTjFbQ0gyXVtDSDJdTihbQ0BASF0oW0NIM10pW0NIMl0xKWMobltjSF1uMiljKGMyMyluW2NIXW4zW0NIMl1DNChbQ0gyXVtPSF0pW0NIMl1PW0NIMl00

> <s_epik_cmdline>
J2VwaWtfcHl0aG9uJywgJy1waCcsICc3LjAnLCAnLXRuJywgJzgnLCAnLW1hJywgJzIwMCcsICctbWV0YWxfYmluZGluZycsICctaW1hZScsICc8aW5maWxlLm1hZT4nLCAnLW9tYWUnLCAnPG91dGZpbGUubWFlPic=

> <r_lp_tautomer_probability>
1

> <r_epik_Ionization_Penalty>
0.00515943

> <r_epik_Ionization_Penalty_Charging>
0.00509693

> <r_epik_Ionization_Penalty_Neutral>
6.25007e-05

> <r_epik_State_Penalty>
-0

> <r_epik_Charging_Adjusted_Penalty>
0.00509693

> <i_epik_Tot_Q>
1

> <i_epik_Tot_abs_Q>
1

> <r_epik_Metal_State_Penalty>
-0

> <b_epik_Metal_Only>
0

> <s_lp_Force_Field>
OPLS_2005

> <r_lp_Energy>
48.9332

> <b_lp_Chiralities_Consistent>
1

> <s_lp_Variant>
AV-unprocessed.smi:79-6

> <Gold.Version>
5.8.1

> <Gold.Id.Protein>
6NUR|6NUR_protein|mol2

> <Gold.PLP.Fitness>
46.0176

> <Gold.PLP.PLP>
-33.5051

> <Gold.PLP.part.hbond>
-3.6890

> <Gold.PLP.part.metal>
0.0000

> <Gold.PLP.part.buried>
-8.6221

> <Gold.PLP.part.nonpolar>
-24.4723

> <Gold.PLP.part.repulsive>
1.3977

> <Gold.PLP.ligand.clash>
0.0000

> <Gold.PLP.ligand.torsion>
1.4323

> <Gold.PLP.Chemscore.Hbond>
3.8697

> <Gold.PLP.Chemscore.CHOScore>
1.0000

> <Gold.PLP.Chemscore.Metal>
0.0000

> <Gold.Chemscore.Hbonds>
donor molecule, donor type, donor heavy atom, donor atom, acceptor molecule, acceptor atom, score
      L1  H     3    32       P1  7921  0.68
      L1  H     5    56       P1 10957  2.00
      P1  H  7989  7998       L1    21  0.20
      P1  H  7997  8010       L1    21  0.75
      L1  C    11    39       P1 10171  0.72

> <Gold.PLP.Chemscore.Internal.Correction>
0.7679

> <Gold.Rescore>
     Score         DG    S(hbond)    S(metal)    S(lipo)     H(rot)  DE(clash)    DE(int)     intcor
      9.17     -12.71       2.57        0.00      69.86       3.72       0.03       3.51       ----

> <Gold.Chemscore.Fitness>
9.1655

> <Gold.Chemscore.DG>
-12.7117

> <Gold.Chemscore.ZeroCoef>
-5.4800

> <Gold.Chemscore.Hbond>
2.5714

> <Gold.Chemscore.Metal>
0.0000

> <Gold.Chemscore.Lipo>
69.8558

> <Gold.Chemscore.Internal_Hbond>
0.0000

> <Gold.Chemscore.DEClash>
0.0347

> <Gold.Chemscore.DEInternal>
3.5114

> <Gold.Chemscore.Rot>
3.7226

> <Gold.Chemscore.Internal.Correction>
   9.000000E+99

> <Gold.Chemscore.Hbonds>
donor molecule, donor type, donor heavy atom, donor atom, acceptor molecule, acceptor atom, score
      L1  H     3    32       P1  7921  0.69
      L1  H     5    56       P1 10957  0.96
      P1  H  7989  7998       L1    21  0.02
      P1  H  7997  8010       L1    21  0.09

> <Gold.Chemscore.Hbond.Weighted>
-8.5883

> <Gold.Chemscore.Metal.Weighted>
-0.0000

> <Gold.Chemscore.Lipo.Weighted>
-8.1731

> <Gold.Chemscore.Internal_Hbond.Weighted>
0.0000

> <Gold.Chemscore.DEClash.Weighted>
0.0347

> <Gold.Chemscore.DEInternal.Weighted>
3.5114

> <Gold.Chemscore.Rot.Weighted>
9.5298

> <Gold.Chemscore.Internal.Correction.Weighted>
   9.000000E+99

> <Gold.Protein.RotatedTorsions>
[ 6907 6896 6895 6894 ] final -134.56 input  -60.11 | X-H torsion
[ 7974 7965 7964 7962 ] final -148.22 input  175.53 | X-H torsion
[ 8008 7997 7996 7995 ] final  106.07 input   59.86 | X-H torsion
[ 10167 10162 10161 10158 ] final -146.81 input  -65.29 | X-H torsion
[ 10718 10713 10712 10709 ] final  128.28 input   66.30 | X-H torsion
[ 10763 10752 10751 10750 ] final   75.58 input  -60.55 | X-H torsion
[ 11005 11000 10999 10996 ] final   63.25 input  -57.11 | X-H torsion

> <Gold.Protein.ActiveResidues>
 VAL166  LYS551  ARG553  GLY616  TRP617  ASP618  TYR619  PRO620  LYS621  CYS622 
 ASP623  PHE694  ASN695  SER759  ASP760  ASP761  ALA762  ILE779  LEU786  VAL792 
 PHE793  MET794  SER795  GLU796  ALA797  LYS798  CYS799  TRP800  GLU811  SER814 

> <Gold.Protein.RotatedAtoms>
  150.9873  133.6185  159.2713 H   0  0  0  0  0  0  0  0  0  0  0  0  # atno 6907 bound_to 6896
  151.3419  135.0864  159.9383 H   0  0  0  0  0  0  0  0  0  0  0  0  # atno 6908 bound_to 6896
  152.5235  133.9482  159.7713 H   0  0  0  0  0  0  0  0  0  0  0  0  # atno 6909 bound_to 6896
  144.8043  140.5225  143.5686 H   0  0  0  0  0  0  0  0  0  0  0  0  # atno 7974 bound_to 7965
  156.1713  140.3119  155.8978 H   0  0  0  0  0  0  0  0  0  0  0  0  # atno 8008 bound_to 7997
  155.3581  140.0475  157.3063 H   0  0  0  0  0  0  0  0  0  0  0  0  # atno 8009 bound_to 7997
  154.5243  140.2209  155.8928 H   0  0  0  0  0  0  0  0  0  0  0  0  # atno 8010 bound_to 7997
  139.7679  143.8280  152.2619 H   0  0  0  0  0  0  0  0  0  0  0  0  # atno 10167 bound_to 10162
  157.5259  131.1098  150.9084 H   0  0  0  0  0  0  0  0  0  0  0  0  # atno 10718 bound_to 10713
  153.0665  135.4983  154.8210 H   0  0  0  0  0  0  0  0  0  0  0  0  # atno 10763 bound_to 10752
  154.6960  135.2993  154.9412 H   0  0  0  0  0  0  0  0  0  0  0  0  # atno 10764 bound_to 10752
  154.0152  135.6749  153.4821 H   0  0  0  0  0  0  0  0  0  0  0  0  # atno 10765 bound_to 10752
  140.0037  134.6403  155.9889 H   0  0  0  0  0  0  0  0  0  0  0  0  # atno 11005 bound_to 11000
  145.5476  139.1476  143.3412 LP  0  0  0  0  0  0  0  0  0  0  0  0  # atno 17320 bound_to 7965
  146.2331  140.5615  142.8966 LP  0  0  0  0  0  0  0  0  0  0  0  0  # atno 17321 bound_to 7965
  139.8306  144.7255  150.9455 LP  0  0  0  0  0  0  0  0  0  0  0  0  # atno 17342 bound_to 10162
  140.7812  143.4073  151.1049 LP  0  0  0  0  0  0  0  0  0  0  0  0  # atno 17343 bound_to 10162
  156.9680  130.5480  149.5289 LP  0  0  0  0  0  0  0  0  0  0  0  0  # atno 17370 bound_to 10713
  156.0386  130.5471  150.8716 LP  0  0  0  0  0  0  0  0  0  0  0  0  # atno 17371 bound_to 10713
  141.1661  133.6537  156.4484 LP  0  0  0  0  0  0  0  0  0  0  0  0  # atno 17394 bound_to 11000
  140.4681  134.6779  157.5116 LP  0  0  0  0  0  0  0  0  0  0  0  0  # atno 17395 bound_to 11000

$$$$
