AV-unprocessed.smi:2189|AV-procd|sdf|8884|dock2
  -GOLD-   2272012 83D 1   1.00000     0.00000
 Structure written by MMmdl.
 39 41  0  0  0  0  0  0  0  0  1 V2000
  151.1424  143.4494  157.4869 O   0  0  0  0  0  0  0  0  0  0  0  0
  151.6027  142.4219  157.9877 C   0  0  0  0  0  0  0  0  0  0  0  0
  151.5404  141.2384  157.3471 N   0  0  0  0  0  0  0  0  0  0  0  0
  150.9282  140.9981  156.0425 C   0  0  0  0  0  0  0  0  0  0  0  0
  149.4506  141.4333  156.0004 C   0  0  0  0  0  0  0  0  0  0  0  0
  148.6513  140.7739  154.8893 C   0  0  0  0  0  0  0  0  0  0  0  0
  147.8453  141.5440  154.0230 C   0  0  0  0  0  0  0  0  0  0  0  0
  147.1458  140.8837  152.9945 C   0  0  0  0  0  0  0  0  0  0  0  0
  147.2748  139.4866  152.8747 C   0  0  0  0  0  0  0  0  0  0  0  0
  148.1023  138.8090  153.7923 C   0  0  0  0  0  0  0  0  0  0  0  0
  148.7779  139.4322  154.7815 N   0  0  0  0  0  0  0  0  0  0  0  0
  152.2534  142.3436  159.3080 C   0  0  0  0  0  0  0  0  0  0  0  0
  152.0580  143.3501  160.2009 C   0  0  0  0  0  0  0  0  0  0  0  0
  152.6505  143.3250  161.5153 C   0  0  0  0  0  0  0  0  0  0  0  0
  153.4409  142.2929  161.8287 C   0  0  0  0  0  0  0  0  0  0  0  0
  153.7180  141.2485  160.9483 N   0  0  0  0  0  0  0  0  0  0  0  0
  154.6887  140.2521  161.3885 C   0  0  0  0  0  0  0  0  0  0  0  0
  154.2396  138.8604  160.9827 C   0  0  0  0  0  0  0  0  0  0  0  0
  154.2200  138.8547  159.1543 S   0  0  0  0  0  0  0  0  0  0  0  0
  155.5823  139.1488  158.6827 O   0  0  0  0  0  0  0  0  0  0  0  0
  153.5518  137.6227  158.7089 O   0  0  0  0  0  0  0  0  0  0  0  0
  153.2359  140.1771  158.8559 N   0  0  0  0  0  0  0  0  0  0  0  0
  153.1025  141.1889  159.6662 C   0  0  0  0  0  0  0  0  0  0  0  0
  151.9438  140.4365  157.8093 H   0  0  0  0  0  0  0  0  0  0  0  0
  151.4926  141.4909  155.2491 H   0  0  0  0  0  0  0  0  0  0  0  0
  150.9938  139.9291  155.8396 H   0  0  0  0  0  0  0  0  0  0  0  0
  148.9770  141.2010  156.9552 H   0  0  0  0  0  0  0  0  0  0  0  0
  149.3885  142.5169  155.8917 H   0  0  0  0  0  0  0  0  0  0  0  0
  147.7731  142.6159  154.1353 H   0  0  0  0  0  0  0  0  0  0  0  0
  146.5232  141.4391  152.3089 H   0  0  0  0  0  0  0  0  0  0  0  0
  146.7537  138.9467  152.0982 H   0  0  0  0  0  0  0  0  0  0  0  0
  148.2244  137.7376  153.7304 H   0  0  0  0  0  0  0  0  0  0  0  0
  151.4556  144.2122  159.9517 H   0  0  0  0  0  0  0  0  0  0  0  0
  152.4591  144.1149  162.2267 H   0  0  0  0  0  0  0  0  0  0  0  0
  153.9123  142.2175  162.7981 H   0  0  0  0  0  0  0  0  0  0  0  0
  155.6647  140.4867  160.9628 H   0  0  0  0  0  0  0  0  0  0  0  0
  154.8066  140.2805  162.4722 H   0  0  0  0  0  0  0  0  0  0  0  0
  154.9329  138.0938  161.3281 H   0  0  0  0  0  0  0  0  0  0  0  0
  153.2435  138.6231  161.3579 H   0  0  0  0  0  0  0  0  0  0  0  0
  1  2  2  0  0  0  0
  2  3  1  0  0  0  0
  2 12  1  0  0  0  0
  3  4  1  0  0  0  0
  3 24  1  0  0  0  0
  4  5  1  0  0  0  0
  4 25  1  0  0  0  0
  4 26  1  0  0  0  0
  5  6  1  0  0  0  0
  5 27  1  0  0  0  0
  5 28  1  0  0  0  0
  6 11  1  0  0  0  0
  6  7  2  0  0  0  0
  7  8  1  0  0  0  0
  7 29  1  0  0  0  0
  8  9  2  0  0  0  0
  8 30  1  0  0  0  0
  9 10  1  0  0  0  0
  9 31  1  0  0  0  0
 10 11  2  0  0  0  0
 10 32  1  0  0  0  0
 12 23  1  0  0  0  0
 12 13  2  0  0  0  0
 13 14  1  0  0  0  0
 13 33  1  0  0  0  0
 14 15  2  0  0  0  0
 14 34  1  0  0  0  0
 15 16  1  0  0  0  0
 15 35  1  0  0  0  0
 16 23  1  0  0  0  0
 16 17  1  0  0  0  0
 17 18  1  0  0  0  0
 17 36  1  0  0  0  0
 17 37  1  0  0  0  0
 18 19  1  0  0  0  0
 18 38  1  0  0  0  0
 18 39  1  0  0  0  0
 19 20  2  0  0  0  0
 19 21  2  0  0  0  0
 19 22  1  0  0  0  0
 22 23  2  0  0  0  0
M  END
> <s_m_source_file>
AV-unprocessed.smi

> <i_m_source_file_index>
2189

> <i_lp_mmshare_version>
43012

> <i_f3d_flags>
0

> <s_epik_input>
W0NIMl0xW0NIMl1TKD1PKSg9TylOPUMoTjEyKUMoPVtDSF1bQ0hdPVtDSF0yKUMoPU8pW05IXVtDSDJdW0NIMl1jM1tjSF1bY0hdW2NIXVtjSF1uMw==

> <s_epik_cmdline>
J2VwaWtfcHl0aG9uJywgJy1waCcsICc3LjAnLCAnLXRuJywgJzgnLCAnLW1hJywgJzIwMCcsICctbWV0YWxfYmluZGluZycsICctaW1hZScsICc8aW5maWxlLm1hZT4nLCAnLW9tYWUnLCAnPG91dGZpbGUubWFlPic=

> <r_epik_Ionization_Penalty>
0.0177355

> <r_epik_Ionization_Penalty_Charging>
8.06468e-09

> <r_epik_Ionization_Penalty_Neutral>
0.0177355

> <r_epik_State_Penalty>
0.0140338

> <r_epik_Charging_Adjusted_Penalty>
0.0140338

> <i_epik_Tot_Q>
0

> <i_epik_Tot_abs_Q>
0

> <r_epik_Metal_State_Penalty>
0.0535636

> <b_epik_Metal_Only>
0

> <s_lp_Force_Field>
OPLS_2005

> <r_lp_Energy>
27.3768

> <b_lp_Chiralities_Consistent>
1

> <s_lp_Variant>
AV-unprocessed.smi:2189-1

> <Gold.Version>
5.8.1

> <Gold.Id.Protein>
6NUR|6NUR_protein|mol2

> <Gold.PLP.Fitness>
49.8856

> <Gold.PLP.PLP>
-44.4315

> <Gold.PLP.part.hbond>
-1.4717

> <Gold.PLP.part.metal>
0.0000

> <Gold.PLP.part.buried>
-4.5575

> <Gold.PLP.part.nonpolar>
-38.7593

> <Gold.PLP.part.repulsive>
0.3322

> <Gold.PLP.ligand.clash>
0.0000

> <Gold.PLP.ligand.torsion>
0.3580

> <Gold.PLP.Chemscore.Hbond>
1.0000

> <Gold.PLP.Chemscore.CHOScore>
0.9966

> <Gold.PLP.Chemscore.Metal>
0.0000

> <Gold.Chemscore.Hbonds>
donor molecule, donor type, donor heavy atom, donor atom, acceptor molecule, acceptor atom, score
      P1  H  7997  8010       L1    20  1.00
      L1  C    10    32       P1  7948  1.00

> <Gold.PLP.Chemscore.Internal.Correction>
0.1803

> <Gold.Rescore>
     Score         DG    S(hbond)    S(metal)    S(lipo)     H(rot)  DE(clash)    DE(int)     intcor
     15.06     -17.16       0.93        0.00     105.27       1.47       0.10       2.00       ----

> <Gold.Chemscore.Fitness>
15.0556

> <Gold.Chemscore.DG>
-17.1586

> <Gold.Chemscore.ZeroCoef>
-5.4800

> <Gold.Chemscore.Hbond>
0.9342

> <Gold.Chemscore.Metal>
0.0000

> <Gold.Chemscore.Lipo>
105.2680

> <Gold.Chemscore.Internal_Hbond>
0.0000

> <Gold.Chemscore.DEClash>
0.1000

> <Gold.Chemscore.DEInternal>
2.0031

> <Gold.Chemscore.Rot>
1.4679

> <Gold.Chemscore.Internal.Correction>
   9.000000E+99

> <Gold.Chemscore.Hbonds>
donor molecule, donor type, donor heavy atom, donor atom, acceptor molecule, acceptor atom, score
      P1  H  7997  8010       L1    20  0.54

> <Gold.Chemscore.Hbond.Weighted>
-3.1201

> <Gold.Chemscore.Metal.Weighted>
-0.0000

> <Gold.Chemscore.Lipo.Weighted>
-12.3164

> <Gold.Chemscore.Internal_Hbond.Weighted>
0.0000

> <Gold.Chemscore.DEClash.Weighted>
0.1000

> <Gold.Chemscore.DEInternal.Weighted>
2.0031

> <Gold.Chemscore.Rot.Weighted>
3.7578

> <Gold.Chemscore.Internal.Correction.Weighted>
   9.000000E+99

> <Gold.Protein.RotatedTorsions>
[ 6907 6896 6895 6894 ] final   30.19 input  -60.11 | X-H torsion
[ 7974 7965 7964 7962 ] final -168.53 input  175.53 | X-H torsion
[ 8008 7997 7996 7995 ] final  -17.41 input   59.86 | X-H torsion
[ 10167 10162 10161 10158 ] final  126.26 input  -65.29 | X-H torsion
[ 10718 10713 10712 10709 ] final  -37.72 input   66.30 | X-H torsion
[ 10763 10752 10751 10750 ] final -151.55 input  -60.55 | X-H torsion
[ 11005 11000 10999 10996 ] final  -96.38 input  -57.11 | X-H torsion

> <Gold.Protein.ActiveResidues>
 VAL166  LYS551  ARG553  GLY616  TRP617  ASP618  TYR619  PRO620  LYS621  CYS622 
 ASP623  PHE694  ASN695  SER759  ASP760  ASP761  ALA762  ILE779  LEU786  VAL792 
 PHE793  MET794  SER795  GLU796  ALA797  LYS798  CYS799  TRP800  GLU811  SER814 

> <Gold.Protein.RotatedAtoms>
  152.0424  134.9703  160.0573 H   0  0  0  0  0  0  0  0  0  0  0  0  # atno 6907 bound_to 6896
  152.1137  133.4310  159.4651 H   0  0  0  0  0  0  0  0  0  0  0  0  # atno 6908 bound_to 6896
  150.6845  134.2536  159.4564 H   0  0  0  0  0  0  0  0  0  0  0  0  # atno 6909 bound_to 6896
  144.7201  140.2356  143.6298 H   0  0  0  0  0  0  0  0  0  0  0  0  # atno 7974 bound_to 7965
  154.4980  140.2143  155.9405 H   0  0  0  0  0  0  0  0  0  0  0  0  # atno 8008 bound_to 7997
  156.1397  140.3182  155.8443 H   0  0  0  0  0  0  0  0  0  0  0  0  # atno 8009 bound_to 7997
  155.4144  140.0492  157.3020 H   0  0  0  0  0  0  0  0  0  0  0  0  # atno 8010 bound_to 7997
  139.5641  144.6900  151.3960 H   0  0  0  0  0  0  0  0  0  0  0  0  # atno 10167 bound_to 10162
  156.3120  130.4254  149.8041 H   0  0  0  0  0  0  0  0  0  0  0  0  # atno 10718 bound_to 10713
  154.8050  135.3257  154.7453 H   0  0  0  0  0  0  0  0  0  0  0  0  # atno 10763 bound_to 10752
  153.8113  135.6895  153.4845 H   0  0  0  0  0  0  0  0  0  0  0  0  # atno 10764 bound_to 10752
  153.1790  135.4594  154.9948 H   0  0  0  0  0  0  0  0  0  0  0  0  # atno 10765 bound_to 10752
  141.1413  133.8094  157.0564 H   0  0  0  0  0  0  0  0  0  0  0  0  # atno 11005 bound_to 11000
  145.8369  139.2112  143.1850 LP  0  0  0  0  0  0  0  0  0  0  0  0  # atno 17320 bound_to 7965
  146.0381  140.8192  142.9842 LP  0  0  0  0  0  0  0  0  0  0  0  0  # atno 17321 bound_to 7965
  140.6923  143.7832  150.7274 LP  0  0  0  0  0  0  0  0  0  0  0  0  # atno 17342 bound_to 10162
  140.1318  143.4519  152.2249 LP  0  0  0  0  0  0  0  0  0  0  0  0  # atno 17343 bound_to 10162
  156.5381  130.8287  151.3260 LP  0  0  0  0  0  0  0  0  0  0  0  0  # atno 17370 bound_to 10713
  157.7393  130.9829  150.2305 LP  0  0  0  0  0  0  0  0  0  0  0  0  # atno 17371 bound_to 10713
  140.0599  134.9760  157.1286 LP  0  0  0  0  0  0  0  0  0  0  0  0  # atno 17394 bound_to 11000
  140.3864  134.2232  155.7168 LP  0  0  0  0  0  0  0  0  0  0  0  0  # atno 17395 bound_to 11000

$$$$
