AV-unprocessed.smi:3181|AV-procd|sdf|12149|dock10
  -GOLD-   2272017583D 1   1.00000     0.00000
 Structure written by MMmdl.
 42 43  0  0  0  0  0  0  0  0  2 V2000
  145.8766  129.1991  152.0937 C   0  0  0  0  0  0  0  0  0  0  0  0
  145.5883  130.7097  152.1224 C   0  0  2  0  0  0  0  0  0  0  0  0
  144.5682  131.1508  151.0539 C   0  0  0  0  0  0  0  0  0  0  0  0
  144.4087  132.5918  150.9869 N   0  0  0  0  0  0  0  0  0  0  0  0
  143.9310  133.4533  151.8863 C   0  0  0  0  0  0  0  0  0  0  0  0
  143.9345  134.7132  151.4748 N   0  0  0  0  0  0  0  0  0  0  0  0
  144.4689  134.5451  150.2285 C   0  0  0  0  0  0  0  0  0  0  0  0
  144.7717  133.2923  149.8872 N   0  0  0  0  0  0  0  0  0  0  0  0
  146.8483  131.4658  151.9402 N   0  3  0  0  0  0  0  0  0  0  0  0
  147.5720  131.8239  153.1806 C   0  0  1  0  0  0  0  0  0  0  0  0
  148.3775  130.6289  153.7295 C   0  0  0  0  0  0  0  0  0  0  0  0
  149.1787  131.0159  154.9829 C   0  0  0  0  0  0  0  0  0  0  0  0
  150.1025  132.2212  154.7171 C   0  0  2  0  0  0  0  0  0  0  0  0
  150.9624  132.5631  155.9450 C   0  0  0  0  0  0  0  0  0  0  0  0
  149.3129  133.4347  154.1626 C   0  0  2  0  0  0  0  0  0  0  0  0
  148.4228  134.1408  155.2057 C   0  0  0  0  0  0  0  0  0  0  0  0
  148.5078  133.0190  152.9131 C   0  0  0  0  0  0  0  0  0  0  0  0
  144.9802  128.6160  152.3053 H   0  0  0  0  0  0  0  0  0  0  0  0
  146.6210  128.9253  152.8417 H   0  0  0  0  0  0  0  0  0  0  0  0
  146.2539  128.8862  151.1196 H   0  0  0  0  0  0  0  0  0  0  0  0
  145.1641  130.9458  153.0997 H   0  0  0  0  0  0  0  0  0  0  0  0
  144.8834  130.8030  150.0692 H   0  0  0  0  0  0  0  0  0  0  0  0
  143.5941  130.6976  151.2466 H   0  0  0  0  0  0  0  0  0  0  0  0
  143.5715  133.1532  152.8598 H   0  0  0  0  0  0  0  0  0  0  0  0
  144.6392  135.3702  149.5525 H   0  0  0  0  0  0  0  0  0  0  0  0
  147.4662  130.9395  151.3390 H   0  0  0  0  0  0  0  0  0  0  0  0
  146.8313  132.1303  153.9204 H   0  0  0  0  0  0  0  0  0  0  0  0
  147.7151  129.7976  153.9720 H   0  0  0  0  0  0  0  0  0  0  0  0
  149.0619  130.2622  152.9629 H   0  0  0  0  0  0  0  0  0  0  0  0
  148.4945  131.2392  155.8019 H   0  0  0  0  0  0  0  0  0  0  0  0
  149.7716  130.1605  155.3085 H   0  0  0  0  0  0  0  0  0  0  0  0
  150.7997  131.9179  153.9342 H   0  0  0  0  0  0  0  0  0  0  0  0
  150.3503  132.7935  156.8172 H   0  0  0  0  0  0  0  0  0  0  0  0
  151.6053  133.4216  155.7490 H   0  0  0  0  0  0  0  0  0  0  0  0
  151.6068  131.7256  156.2133 H   0  0  0  0  0  0  0  0  0  0  0  0
  150.0434  134.1759  153.8351 H   0  0  0  0  0  0  0  0  0  0  0  0
  147.6961  133.4647  155.6551 H   0  0  0  0  0  0  0  0  0  0  0  0
  147.8682  134.9618  154.7508 H   0  0  0  0  0  0  0  0  0  0  0  0
  149.0167  134.5698  156.0124 H   0  0  0  0  0  0  0  0  0  0  0  0
  149.2044  132.7575  152.1149 H   0  0  0  0  0  0  0  0  0  0  0  0
  147.9335  133.8692  152.5427 H   0  0  0  0  0  0  0  0  0  0  0  0
  146.6119  132.3279  151.4702 H   0  0  0  0  0  0  0  0  0  0  0  0
  1  2  1  0  0  0  0
  1 18  1  0  0  0  0
  1 19  1  0  0  0  0
  1 20  1  0  0  0  0
  2  3  1  0  0  0  0
  2  9  1  0  0  0  0
  2 21  1  0  0  0  0
  3  4  1  0  0  0  0
  3 22  1  0  0  0  0
  3 23  1  0  0  0  0
  4  8  1  0  0  0  0
  4  5  1  0  0  0  0
  5  6  2  0  0  0  0
  5 24  1  0  0  0  0
  6  7  1  0  0  0  0
  7  8  2  0  0  0  0
  7 25  1  0  0  0  0
  9 10  1  0  0  0  0
  9 26  1  0  0  0  0
  9 42  1  0  0  0  0
 10 17  1  0  0  0  0
 10 11  1  0  0  0  0
 10 27  1  0  0  0  0
 11 12  1  0  0  0  0
 11 28  1  0  0  0  0
 11 29  1  0  0  0  0
 12 13  1  0  0  0  0
 12 30  1  0  0  0  0
 12 31  1  0  0  0  0
 13 14  1  0  0  0  0
 13 15  1  0  0  0  0
 13 32  1  0  0  0  0
 14 33  1  0  0  0  0
 14 34  1  0  0  0  0
 14 35  1  0  0  0  0
 15 16  1  0  0  0  0
 15 17  1  0  0  0  0
 15 36  1  0  0  0  0
 16 37  1  0  0  0  0
 16 38  1  0  0  0  0
 16 39  1  0  0  0  0
 17 40  1  0  0  0  0
 17 41  1  0  0  0  0
M  CHG  1   9   1
M  END
> <s_m_source_file>
AV-unprocessed.smi

> <i_m_source_file_index>
3181

> <i_lp_mmshare_version>
43012

> <i_f3d_flags>
0

> <s_epik_input>
bjFbY0hdbltjSF1uMVtDSDJdW0NAQEhdKFtDSDNdKVtOSF1bQ0BASF0yW0NIMl1bQ0gyXVtDQEBIXShbQ0gzXSlbQ0BASF0oW0NIM10pW0NIMl0y

> <s_epik_cmdline>
J2VwaWtfcHl0aG9uJywgJy1waCcsICc3LjAnLCAnLXRuJywgJzgnLCAnLW1hJywgJzIwMCcsICctbWV0YWxfYmluZGluZycsICctaW1hZScsICc8aW5maWxlLm1hZT4nLCAnLW9tYWUnLCAnPG91dGZpbGUubWFlPic=

> <r_lp_tautomer_probability>
1

> <r_epik_Ionization_Penalty>
0.000617007

> <r_epik_Ionization_Penalty_Charging>
0.000616215

> <r_epik_Ionization_Penalty_Neutral>
7.92544e-07

> <r_epik_State_Penalty>
0.000388807

> <r_epik_Charging_Adjusted_Penalty>
0.00100502

> <i_epik_Tot_Q>
1

> <i_epik_Tot_abs_Q>
1

> <r_epik_Metal_State_Penalty>
-0

> <b_epik_Metal_Only>
0

> <s_lp_Force_Field>
OPLS_2005

> <r_lp_Energy>
22.4909

> <b_lp_Chiralities_Consistent>
1

> <s_lp_Variant>
AV-unprocessed.smi:3181-15

> <Gold.Version>
5.8.1

> <Gold.Id.Protein>
6NUR|6NUR_protein|mol2

> <Gold.PLP.Fitness>
39.9293

> <Gold.PLP.PLP>
-33.2376

> <Gold.PLP.part.hbond>
-1.0000

> <Gold.PLP.part.metal>
0.0000

> <Gold.PLP.part.buried>
-4.6463

> <Gold.PLP.part.nonpolar>
-28.2748

> <Gold.PLP.part.repulsive>
0.7590

> <Gold.PLP.ligand.clash>
0.0000

> <Gold.PLP.ligand.torsion>
0.6919

> <Gold.PLP.Chemscore.Hbond>
1.0000

> <Gold.PLP.Chemscore.CHOScore>
1.6863

> <Gold.PLP.Chemscore.Metal>
0.0000

> <Gold.Chemscore.Hbonds>
donor molecule, donor type, donor heavy atom, donor atom, acceptor molecule, acceptor atom, score
      L1  H     9    26       P1 10747  1.00
      L1  C     5    24       P1 10957  1.00
      L1  C     7    25       P1  7921  0.69

> <Gold.PLP.Chemscore.Internal.Correction>
0.0165

> <Gold.Rescore>
     Score         DG    S(hbond)    S(metal)    S(lipo)     H(rot)  DE(clash)    DE(int)     intcor
     11.16     -11.76       1.00        0.00      71.39       2.11       0.00       0.60       ----

> <Gold.Chemscore.Fitness>
11.1616

> <Gold.Chemscore.DG>
-11.7619

> <Gold.Chemscore.ZeroCoef>
-5.4800

> <Gold.Chemscore.Hbond>
0.9968

> <Gold.Chemscore.Metal>
0.0000

> <Gold.Chemscore.Lipo>
71.3914

> <Gold.Chemscore.Internal_Hbond>
0.0000

> <Gold.Chemscore.DEClash>
0.0033

> <Gold.Chemscore.DEInternal>
0.5970

> <Gold.Chemscore.Rot>
2.1095

> <Gold.Chemscore.Internal.Correction>
   9.000000E+99

> <Gold.Chemscore.Hbonds>
donor molecule, donor type, donor heavy atom, donor atom, acceptor molecule, acceptor atom, score
      L1  H     9    26       P1 10747  0.95

> <Gold.Chemscore.Hbond.Weighted>
-3.3294

> <Gold.Chemscore.Metal.Weighted>
-0.0000

> <Gold.Chemscore.Lipo.Weighted>
-8.3528

> <Gold.Chemscore.Internal_Hbond.Weighted>
0.0000

> <Gold.Chemscore.DEClash.Weighted>
0.0033

> <Gold.Chemscore.DEInternal.Weighted>
0.5970

> <Gold.Chemscore.Rot.Weighted>
5.4003

> <Gold.Chemscore.Internal.Correction.Weighted>
   9.000000E+99

> <Gold.Protein.RotatedTorsions>
[ 6907 6896 6895 6894 ] final   11.89 input  -60.11 | X-H torsion
[ 7974 7965 7964 7962 ] final   29.06 input  175.53 | X-H torsion
[ 8008 7997 7996 7995 ] final -178.62 input   59.86 | X-H torsion
[ 10167 10162 10161 10158 ] final  112.60 input  -65.29 | X-H torsion
[ 10718 10713 10712 10709 ] final -150.81 input   66.30 | X-H torsion
[ 10763 10752 10751 10750 ] final   -0.89 input  -60.55 | X-H torsion
[ 11005 11000 10999 10996 ] final  104.62 input  -57.11 | X-H torsion

> <Gold.Protein.ActiveResidues>
 VAL166  LYS551  ARG553  GLY616  TRP617  ASP618  TYR619  PRO620  LYS621  CYS622 
 ASP623  PHE694  ASN695  SER759  ASP760  ASP761  ALA762  ILE779  LEU786  VAL792 
 PHE793  MET794  SER795  GLU796  ALA797  LYS798  CYS799  TRP800  GLU811  SER814 

> <Gold.Protein.RotatedAtoms>
  151.7616  135.0808  160.0346 H   0  0  0  0  0  0  0  0  0  0  0  0  # atno 6907 bound_to 6896
  152.3349  133.5996  159.5844 H   0  0  0  0  0  0  0  0  0  0  0  0  # atno 6908 bound_to 6896
  150.7444  133.9727  159.3592 H   0  0  0  0  0  0  0  0  0  0  0  0  # atno 6909 bound_to 6896
  146.1693  139.6972  142.8979 H   0  0  0  0  0  0  0  0  0  0  0  0  # atno 7974 bound_to 7965
  156.0209  140.1261  157.0358 H   0  0  0  0  0  0  0  0  0  0  0  0  # atno 8008 bound_to 7997
  154.4311  140.1069  156.6033 H   0  0  0  0  0  0  0  0  0  0  0  0  # atno 8009 bound_to 7997
  155.5945  140.3470  155.4578 H   0  0  0  0  0  0  0  0  0  0  0  0  # atno 8010 bound_to 7997
  139.6523  144.7128  151.2024 H   0  0  0  0  0  0  0  0  0  0  0  0  # atno 10167 bound_to 10162
  156.4510  130.8167  151.2398 H   0  0  0  0  0  0  0  0  0  0  0  0  # atno 10718 bound_to 10713
  153.3378  135.6979  153.6893 H   0  0  0  0  0  0  0  0  0  0  0  0  # atno 10763 bound_to 10752
  153.5670  135.3524  155.2823 H   0  0  0  0  0  0  0  0  0  0  0  0  # atno 10764 bound_to 10752
  154.8631  135.4263  154.2583 H   0  0  0  0  0  0  0  0  0  0  0  0  # atno 10765 bound_to 10752
  139.8793  134.9307  156.5389 H   0  0  0  0  0  0  0  0  0  0  0  0  # atno 11005 bound_to 11000
  145.4383  141.0420  143.2872 LP  0  0  0  0  0  0  0  0  0  0  0  0  # atno 17320 bound_to 7965
  144.8139  139.5912  143.7017 LP  0  0  0  0  0  0  0  0  0  0  0  0  # atno 17321 bound_to 7965
  140.7543  143.6129  150.8588 LP  0  0  0  0  0  0  0  0  0  0  0  0  # atno 17342 bound_to 10162
  139.9778  143.5984  152.2953 LP  0  0  0  0  0  0  0  0  0  0  0  0  # atno 17343 bound_to 10162
  157.7503  131.0138  150.3438 LP  0  0  0  0  0  0  0  0  0  0  0  0  # atno 17370 bound_to 10713
  156.3817  130.3881  149.7097 LP  0  0  0  0  0  0  0  0  0  0  0  0  # atno 17371 bound_to 10713
  140.8325  133.8267  155.8998 LP  0  0  0  0  0  0  0  0  0  0  0  0  # atno 17394 bound_to 11000
  140.9315  134.2016  157.4861 LP  0  0  0  0  0  0  0  0  0  0  0  0  # atno 17395 bound_to 11000

$$$$
