AV-unprocessed.smi:91|AV-procd|sdf|838|dock5
  -GOLD-   2262017273D 1   1.00000     0.00000
 Structure written by MMmdl.
 60 63  0  0  0  0  0  0  0  0  1 V2000
  152.8689  131.5247  157.9973 C   0  0  0  0  0  0  0  0  0  0  0  0
  152.0036  132.5751  157.5961 O   0  0  0  0  0  0  0  0  0  0  0  0
  150.8657  132.1463  156.8589 C   0  0  0  0  0  0  0  0  0  0  0  0
  150.0304  133.3220  156.3222 C   0  0  1  0  0  0  0  0  0  0  0  0
  150.8987  134.5595  156.0316 C   0  0  0  0  0  0  0  0  0  0  0  0
  150.1006  135.5818  155.3745 N   0  0  0  0  0  0  0  0  0  0  0  0
  150.7075  136.7869  155.3246 C   0  0  0  0  0  0  0  0  0  0  0  0
  151.6479  136.9554  154.3625 N   0  0  0  0  0  0  0  0  0  0  0  0
  152.2821  138.1255  154.2435 C   0  0  0  0  0  0  0  0  0  0  0  0
  152.1222  139.2384  154.9623 N   0  0  0  0  0  0  0  0  0  0  0  0
  151.1657  139.0772  155.9209 C   0  0  0  0  0  0  0  0  0  0  0  0
  150.4147  137.8937  156.1724 C   0  0  0  0  0  0  0  0  0  0  0  0
  149.5258  138.1140  157.2183 N   0  0  0  0  0  0  0  0  0  0  0  0
  149.7405  139.3531  157.5665 C   0  0  0  0  0  0  0  0  0  0  0  0
  150.7035  140.0083  156.8346 N   0  0  0  0  0  0  0  0  0  0  0  0
  151.1276  141.3875  157.0027 C   0  0  0  0  0  0  0  0  0  0  0  0
  150.2722  142.1643  158.0345 C   0  0  2  0  0  0  0  0  0  0  0  0
  148.8081  142.3601  157.5702 C   0  0  0  0  0  0  0  0  0  0  0  0
  148.7152  142.4111  156.1615 O   0  0  0  0  0  0  0  0  0  0  0  0
  150.9458  143.4995  158.4410 C   0  0  1  0  0  0  0  0  0  0  0  0
  150.1677  144.3306  159.4459 C   0  0  0  0  0  0  0  0  0  0  0  0
  151.2404  145.2724  159.9803 C   0  0  0  0  0  0  0  0  0  0  0  0
  152.4488  144.5219  159.9628 O   0  0  0  0  0  0  0  0  0  0  0  0
  152.2787  143.3429  159.1818 C   0  0  0  0  0  0  0  0  0  0  0  0
  149.4717  135.1079  154.1492 C   0  0  0  0  0  0  0  0  0  0  0  0
  148.6040  133.8621  154.4322 C   0  0  0  0  0  0  0  0  0  0  0  0
  147.3352  134.2097  155.2402 C   0  0  0  0  0  0  0  0  0  0  0  0
  148.1925  133.2028  153.1067 C   0  0  0  0  0  0  0  0  0  0  0  0
  149.4025  132.8864  155.1139 O   0  0  0  0  0  0  0  0  0  0  0  0
  153.7409  131.9467  158.4970 H   0  0  0  0  0  0  0  0  0  0  0  0
  153.2216  130.9517  157.1388 H   0  0  0  0  0  0  0  0  0  0  0  0
  152.3857  130.8450  158.6987 H   0  0  0  0  0  0  0  0  0  0  0  0
  151.2242  131.5514  156.0183 H   0  0  0  0  0  0  0  0  0  0  0  0
  150.2508  131.4787  157.4645 H   0  0  0  0  0  0  0  0  0  0  0  0
  149.2608  133.5736  157.0501 H   0  0  0  0  0  0  0  0  0  0  0  0
  151.3179  134.9480  156.9609 H   0  0  0  0  0  0  0  0  0  0  0  0
  151.7374  134.2912  155.3871 H   0  0  0  0  0  0  0  0  0  0  0  0
  153.0222  138.1783  153.4588 H   0  0  0  0  0  0  0  0  0  0  0  0
  149.1928  139.8297  158.3665 H   0  0  0  0  0  0  0  0  0  0  0  0
  152.1747  141.3728  157.3052 H   0  0  0  0  0  0  0  0  0  0  0  0
  151.0962  141.8849  156.0327 H   0  0  0  0  0  0  0  0  0  0  0  0
  150.2257  141.5447  158.9314 H   0  0  0  0  0  0  0  0  0  0  0  0
  148.1702  141.5546  157.9337 H   0  0  0  0  0  0  0  0  0  0  0  0
  148.3893  143.2784  157.9811 H   0  0  0  0  0  0  0  0  0  0  0  0
  148.5814  143.3096  155.9005 H   0  0  0  0  0  0  0  0  0  0  0  0
  151.1172  144.1082  157.5515 H   0  0  0  0  0  0  0  0  0  0  0  0
  149.3274  144.8670  159.0042 H   0  0  0  0  0  0  0  0  0  0  0  0
  149.7873  143.7005  160.2514 H   0  0  0  0  0  0  0  0  0  0  0  0
  151.3557  146.1314  159.3182 H   0  0  0  0  0  0  0  0  0  0  0  0
  151.0126  145.6424  160.9802 H   0  0  0  0  0  0  0  0  0  0  0  0
  152.2478  142.4890  159.8597 H   0  0  0  0  0  0  0  0  0  0  0  0
  153.1187  143.2013  158.5012 H   0  0  0  0  0  0  0  0  0  0  0  0
  148.8708  135.9017  153.7029 H   0  0  0  0  0  0  0  0  0  0  0  0
  150.2457  134.8454  153.4279 H   0  0  0  0  0  0  0  0  0  0  0  0
  146.6731  134.8575  154.6652 H   0  0  0  0  0  0  0  0  0  0  0  0
  147.5606  134.7342  156.1683 H   0  0  0  0  0  0  0  0  0  0  0  0
  146.7747  133.3103  155.4963 H   0  0  0  0  0  0  0  0  0  0  0  0
  147.5928  133.8787  152.4962 H   0  0  0  0  0  0  0  0  0  0  0  0
  147.6032  132.3018  153.2806 H   0  0  0  0  0  0  0  0  0  0  0  0
  149.0659  132.9146  152.5207 H   0  0  0  0  0  0  0  0  0  0  0  0
  1  2  1  0  0  0  0
  1 30  1  0  0  0  0
  1 31  1  0  0  0  0
  1 32  1  0  0  0  0
  2  3  1  0  0  0  0
  3  4  1  0  0  0  0
  3 33  1  0  0  0  0
  3 34  1  0  0  0  0
  4 29  1  0  0  0  0
  4  5  1  0  0  0  0
  4 35  1  0  0  0  0
  5  6  1  0  0  0  0
  5 36  1  0  0  0  0
  5 37  1  0  0  0  0
  6  7  1  0  0  0  0
  6 25  1  0  0  0  0
  7 12  1  0  0  0  0
  7  8  2  0  0  0  0
  8  9  1  0  0  0  0
  9 10  2  0  0  0  0
  9 38  1  0  0  0  0
 10 11  1  0  0  0  0
 11 15  1  0  0  0  0
 11 12  2  0  0  0  0
 12 13  1  0  0  0  0
 13 14  2  0  0  0  0
 14 15  1  0  0  0  0
 14 39  1  0  0  0  0
 15 16  1  0  0  0  0
 16 17  1  0  0  0  0
 16 40  1  0  0  0  0
 16 41  1  0  0  0  0
 17 18  1  0  0  0  0
 17 20  1  0  0  0  0
 17 42  1  0  0  0  0
 18 19  1  0  0  0  0
 18 43  1  0  0  0  0
 18 44  1  0  0  0  0
 19 45  1  0  0  0  0
 20 24  1  0  0  0  0
 20 21  1  0  0  0  0
 20 46  1  0  0  0  0
 21 22  1  0  0  0  0
 21 47  1  0  0  0  0
 21 48  1  0  0  0  0
 22 23  1  0  0  0  0
 22 49  1  0  0  0  0
 22 50  1  0  0  0  0
 23 24  1  0  0  0  0
 24 51  1  0  0  0  0
 24 52  1  0  0  0  0
 25 26  1  0  0  0  0
 25 53  1  0  0  0  0
 25 54  1  0  0  0  0
 26 27  1  0  0  0  0
 26 28  1  0  0  0  0
 26 29  1  0  0  0  0
 27 55  1  0  0  0  0
 27 56  1  0  0  0  0
 27 57  1  0  0  0  0
 28 58  1  0  0  0  0
 28 59  1  0  0  0  0
 28 60  1  0  0  0  0
M  END
> <s_m_source_file>
AV-unprocessed.smi

> <i_m_source_file_index>
91

> <i_lp_mmshare_version>
43012

> <i_f3d_flags>
0

> <s_epik_input>
W0NIM11PW0NIMl1bQ0BASF0oTzEpW0NIMl1OKFtDSDJdQzEoW0NIM10pW0NIM10pYyhuW2NIXW4yKWMoYzIzKW5bY0hdbjNbQ0gyXVtDQEhdKFtDSDJdW09IXSlbQ0BASF00W0NIMl1bQ0gyXU9bQ0gyXTQ=

> <s_epik_cmdline>
J2VwaWtfcHl0aG9uJywgJy1waCcsICc3LjAnLCAnLXRuJywgJzgnLCAnLW1hJywgJzIwMCcsICctbWV0YWxfYmluZGluZycsICctaW1hZScsICc8aW5maWxlLm1hZT4nLCAnLW9tYWUnLCAnPG91dGZpbGUubWFlPic=

> <r_lp_tautomer_probability>
1

> <r_epik_Ionization_Penalty>
8.63591e-05

> <r_epik_Ionization_Penalty_Charging>
0

> <r_epik_Ionization_Penalty_Neutral>
8.63591e-05

> <r_epik_State_Penalty>
-0

> <r_epik_Charging_Adjusted_Penalty>
0

> <i_epik_Tot_Q>
0

> <i_epik_Tot_abs_Q>
0

> <r_epik_Metal_State_Penalty>
-0

> <b_epik_Metal_Only>
0

> <s_lp_Force_Field>
OPLS_2005

> <r_lp_Energy>
49.535

> <b_lp_Chiralities_Consistent>
1

> <s_lp_Variant>
AV-unprocessed.smi:91-6

> <Gold.Version>
5.8.1

> <Gold.Id.Protein>
6NUR|6NUR_protein|mol2

> <Gold.PLP.Fitness>
49.8375

> <Gold.PLP.PLP>
-41.0170

> <Gold.PLP.part.hbond>
-3.9372

> <Gold.PLP.part.metal>
0.0000

> <Gold.PLP.part.buried>
-4.5785

> <Gold.PLP.part.nonpolar>
-32.3175

> <Gold.PLP.part.repulsive>
0.5513

> <Gold.PLP.ligand.clash>
0.0000

> <Gold.PLP.ligand.torsion>
1.2657

> <Gold.PLP.Chemscore.Hbond>
3.6334

> <Gold.PLP.Chemscore.CHOScore>
0.0000

> <Gold.PLP.Chemscore.Metal>
0.0000

> <Gold.Chemscore.Hbonds>
donor molecule, donor type, donor heavy atom, donor atom, acceptor molecule, acceptor atom, score
      L1  H    19    45       P1  8028  0.81
      P1  H  6896  6908       L1     2  0.80
      P1  H  7989  7998       L1    10  0.44
      P1  H 10752 10765       L1     8  1.00

> <Gold.PLP.Chemscore.Internal.Correction>
0.4519

> <Gold.Rescore>
     Score         DG    S(hbond)    S(metal)    S(lipo)     H(rot)  DE(clash)    DE(int)     intcor
     12.51     -14.83       2.06        0.00      87.44       3.03       0.95       1.37       ----

> <Gold.Chemscore.Fitness>
12.5098

> <Gold.Chemscore.DG>
-14.8290

> <Gold.Chemscore.ZeroCoef>
-5.4800

> <Gold.Chemscore.Hbond>
2.0574

> <Gold.Chemscore.Metal>
0.0000

> <Gold.Chemscore.Lipo>
87.4357

> <Gold.Chemscore.Internal_Hbond>
0.0000

> <Gold.Chemscore.DEClash>
0.9457

> <Gold.Chemscore.DEInternal>
1.3734

> <Gold.Chemscore.Rot>
3.0284

> <Gold.Chemscore.Internal.Correction>
   9.000000E+99

> <Gold.Chemscore.Hbonds>
donor molecule, donor type, donor heavy atom, donor atom, acceptor molecule, acceptor atom, score
      L1  H    19    45       P1  8028  0.78
      P1  H  6896  6908       L1     2  0.11
      P1  H  7989  7998       L1    10  0.21
      P1  H 10752 10765       L1     8  0.48

> <Gold.Chemscore.Hbond.Weighted>
-6.8718

> <Gold.Chemscore.Metal.Weighted>
-0.0000

> <Gold.Chemscore.Lipo.Weighted>
-10.2300

> <Gold.Chemscore.Internal_Hbond.Weighted>
0.0000

> <Gold.Chemscore.DEClash.Weighted>
0.9457

> <Gold.Chemscore.DEInternal.Weighted>
1.3734

> <Gold.Chemscore.Rot.Weighted>
7.7528

> <Gold.Chemscore.Internal.Correction.Weighted>
   9.000000E+99

> <Gold.Protein.RotatedTorsions>
[ 6907 6896 6895 6894 ] final   52.93 input  -60.11 | X-H torsion
[ 7974 7965 7964 7962 ] final -123.44 input  175.53 | X-H torsion
[ 8008 7997 7996 7995 ] final  121.03 input   59.86 | X-H torsion
[ 10167 10162 10161 10158 ] final  -28.26 input  -65.29 | X-H torsion
[ 10718 10713 10712 10709 ] final -117.85 input   66.30 | X-H torsion
[ 10763 10752 10751 10750 ] final  155.03 input  -60.55 | X-H torsion
[ 11005 11000 10999 10996 ] final   16.02 input  -57.11 | X-H torsion

> <Gold.Protein.ActiveResidues>
 VAL166  LYS551  ARG553  GLY616  TRP617  ASP618  TYR619  PRO620  LYS621  CYS622 
 ASP623  PHE694  ASN695  SER759  ASP760  ASP761  ALA762  ILE779  LEU786  VAL792 
 PHE793  MET794  SER795  GLU796  ALA797  LYS798  CYS799  TRP800  GLU811  SER814 

> <Gold.Protein.RotatedAtoms>
  152.3285  134.7290  160.0295 H   0  0  0  0  0  0  0  0  0  0  0  0  # atno 6907 bound_to 6896
  151.7715  133.3336  159.3454 H   0  0  0  0  0  0  0  0  0  0  0  0  # atno 6908 bound_to 6896
  150.7409  134.5946  159.6049 H   0  0  0  0  0  0  0  0  0  0  0  0  # atno 6909 bound_to 6896
  145.0187  140.7969  143.4394 H   0  0  0  0  0  0  0  0  0  0  0  0  # atno 7974 bound_to 7965
  156.2669  140.2817  156.1244 H   0  0  0  0  0  0  0  0  0  0  0  0  # atno 8008 bound_to 7997
  155.1121  140.0391  157.2744 H   0  0  0  0  0  0  0  0  0  0  0  0  # atno 8009 bound_to 7997
  154.6734  140.2593  155.6989 H   0  0  0  0  0  0  0  0  0  0  0  0  # atno 8010 bound_to 7997
  140.7271  143.4025  151.1241 H   0  0  0  0  0  0  0  0  0  0  0  0  # atno 10167 bound_to 10162
  156.1063  130.6213  150.9216 H   0  0  0  0  0  0  0  0  0  0  0  0  # atno 10718 bound_to 10713
  154.1618  135.2809  155.3106 H   0  0  0  0  0  0  0  0  0  0  0  0  # atno 10763 bound_to 10752
  154.6141  135.5489  153.7508 H   0  0  0  0  0  0  0  0  0  0  0  0  # atno 10764 bound_to 10752
  153.0190  135.6422  154.1760 H   0  0  0  0  0  0  0  0  0  0  0  0  # atno 10765 bound_to 10752
  140.4518  134.1216  155.7703 H   0  0  0  0  0  0  0  0  0  0  0  0  # atno 11005 bound_to 11000
  145.1925  139.2293  143.5235 LP  0  0  0  0  0  0  0  0  0  0  0  0  # atno 17320 bound_to 7965
  146.3482  140.1725  142.8589 LP  0  0  0  0  0  0  0  0  0  0  0  0  # atno 17321 bound_to 7965
  139.7647  143.8583  152.3108 LP  0  0  0  0  0  0  0  0  0  0  0  0  # atno 17342 bound_to 10162
  139.8481  144.7178  150.9248 LP  0  0  0  0  0  0  0  0  0  0  0  0  # atno 17343 bound_to 10162
  157.6240  131.0927  150.8568 LP  0  0  0  0  0  0  0  0  0  0  0  0  # atno 17370 bound_to 10713
  156.8687  130.5138  149.5298 LP  0  0  0  0  0  0  0  0  0  0  0  0  # atno 17371 bound_to 10713
  141.1660  133.8701  157.1712 LP  0  0  0  0  0  0  0  0  0  0  0  0  # atno 17394 bound_to 11000
  140.0002  135.0031  157.0172 LP  0  0  0  0  0  0  0  0  0  0  0  0  # atno 17395 bound_to 11000

$$$$
