AV-unprocessed.smi:861|AV-procd|sdf|3973|dock4
  -GOLD-   22720 1453D 1   1.00000     0.00000
 Structure written by MMmdl.
 45 46  0  0  0  0  0  0  0  0  3 V2000
  145.8518  131.5133  150.3839 C   0  0  0  0  0  0  0  0  0  0  0  0
  144.5085  132.2330  150.5923 C   0  0  0  0  0  0  0  0  0  0  0  0
  144.0932  132.9685  149.3089 C   0  0  0  0  0  0  0  0  0  0  0  0
  144.5313  133.2035  151.7914 C   0  0  0  0  0  0  0  0  0  0  0  0
  143.2205  133.9892  151.9879 C   0  0  0  0  0  0  0  0  0  0  0  0
  143.0077  134.3821  153.4068 N   0  3  2  0  0  0  0  0  0  0  0  0
  141.7248  135.0878  153.6447 C   0  0  0  0  0  0  0  0  0  0  0  0
  141.8073  136.5578  153.1971 C   0  0  0  0  0  0  0  0  0  0  0  0
  142.8835  137.1969  153.8735 O   0  0  0  0  0  0  0  0  0  0  0  0
  144.1462  136.6144  153.5656 C   0  0  1  0  0  0  0  0  0  0  0  0
  145.2369  137.4187  154.2953 C   0  0  0  0  0  0  0  0  0  0  0  0
  145.2488  138.8245  153.9115 N   0  0  0  0  0  0  0  0  0  0  0  0
  146.3196  139.6715  154.2332 C   0  0  0  0  0  0  0  0  0  0  0  0
  147.4739  139.2682  154.9452 C   0  0  0  0  0  0  0  0  0  0  0  0
  148.4723  140.2252  155.1944 C   0  0  0  0  0  0  0  0  0  0  0  0
  148.2569  141.5307  154.7187 C   0  0  0  0  0  0  0  0  0  0  0  0
  147.1462  141.8972  154.0414 N   0  0  0  0  0  0  0  0  0  0  0  0
  146.2093  140.9586  153.8188 N   0  3  0  0  0  0  0  0  0  0  0  0
  144.1326  135.1369  154.0184 C   0  0  0  0  0  0  0  0  0  0  0  0
  146.6648  132.2249  150.2367 H   0  0  0  0  0  0  0  0  0  0  0  0
  145.8158  130.8674  149.5060 H   0  0  0  0  0  0  0  0  0  0  0  0
  146.1090  130.8805  151.2325 H   0  0  0  0  0  0  0  0  0  0  0  0
  143.7502  131.4733  150.7867 H   0  0  0  0  0  0  0  0  0  0  0  0
  144.8092  133.7496  149.0504 H   0  0  0  0  0  0  0  0  0  0  0  0
  143.1150  133.4373  149.4195 H   0  0  0  0  0  0  0  0  0  0  0  0
  144.0313  132.2820  148.4640 H   0  0  0  0  0  0  0  0  0  0  0  0
  144.7675  132.6539  152.7037 H   0  0  0  0  0  0  0  0  0  0  0  0
  145.3536  133.9026  151.6431 H   0  0  0  0  0  0  0  0  0  0  0  0
  143.1941  134.8620  151.3360 H   0  0  0  0  0  0  0  0  0  0  0  0
  142.3924  133.3529  151.6765 H   0  0  0  0  0  0  0  0  0  0  0  0
  140.9006  134.5744  153.1481 H   0  0  0  0  0  0  0  0  0  0  0  0
  141.5063  135.0503  154.7129 H   0  0  0  0  0  0  0  0  0  0  0  0
  141.9368  136.6374  152.1168 H   0  0  0  0  0  0  0  0  0  0  0  0
  140.8808  137.0763  153.4442 H   0  0  0  0  0  0  0  0  0  0  0  0
  144.3193  136.6705  152.4904 H   0  0  0  0  0  0  0  0  0  0  0  0
  145.0781  137.3603  155.3725 H   0  0  0  0  0  0  0  0  0  0  0  0
  146.2204  136.9847  154.1142 H   0  0  0  0  0  0  0  0  0  0  0  0
  144.5344  139.1511  153.2760 H   0  0  0  0  0  0  0  0  0  0  0  0
  147.6069  138.2564  155.2975 H   0  0  0  0  0  0  0  0  0  0  0  0
  149.3727  139.9700  155.7335 H   0  0  0  0  0  0  0  0  0  0  0  0
  148.9938  142.3028  154.8852 H   0  0  0  0  0  0  0  0  0  0  0  0
  144.0142  135.0933  155.1021 H   0  0  0  0  0  0  0  0  0  0  0  0
  145.0880  134.6610  153.8007 H   0  0  0  0  0  0  0  0  0  0  0  0
  142.9353  133.5092  153.9106 H   0  0  0  0  0  0  0  0  0  0  0  0
  145.3681  141.2296  153.3090 H   0  0  0  0  0  0  0  0  0  0  0  0
  1  2  1  0  0  0  0
  1 20  1  0  0  0  0
  1 21  1  0  0  0  0
  1 22  1  0  0  0  0
  2  3  1  0  0  0  0
  2  4  1  0  0  0  0
  2 23  1  0  0  0  0
  3 24  1  0  0  0  0
  3 25  1  0  0  0  0
  3 26  1  0  0  0  0
  4  5  1  0  0  0  0
  4 27  1  0  0  0  0
  4 28  1  0  0  0  0
  5  6  1  0  0  0  0
  5 29  1  0  0  0  0
  5 30  1  0  0  0  0
  6 19  1  0  0  0  0
  6  7  1  0  0  0  0
  6 44  1  0  0  0  0
  7  8  1  0  0  0  0
  7 31  1  0  0  0  0
  7 32  1  0  0  0  0
  8  9  1  0  0  0  0
  8 33  1  0  0  0  0
  8 34  1  0  0  0  0
  9 10  1  0  0  0  0
 10 11  1  0  0  0  0
 10 19  1  0  0  0  0
 10 35  1  0  0  0  0
 11 12  1  0  0  0  0
 11 36  1  0  0  0  0
 11 37  1  0  0  0  0
 12 13  1  0  0  0  0
 12 38  1  0  0  0  0
 13 18  1  0  0  0  0
 13 14  2  0  0  0  0
 14 15  1  0  0  0  0
 14 39  1  0  0  0  0
 15 16  2  0  0  0  0
 15 40  1  0  0  0  0
 16 17  1  0  0  0  0
 16 41  1  0  0  0  0
 17 18  2  0  0  0  0
 18 45  1  0  0  0  0
 19 42  1  0  0  0  0
 19 43  1  0  0  0  0
M  CHG  1   6   1
M  CHG  1  18   1
M  END
> <s_m_source_file>
AV-unprocessed.smi

> <i_m_source_file_index>
861

> <i_lp_mmshare_version>
43012

> <i_f3d_flags>
0

> <s_epik_input>
W0NIM11bQ0hdKFtDSDNdKVtDSDJdW0NIMl1OMVtDSDJdW0NIMl1PW0NASF0oW0NIMl0xKVtDSDJdW05IXWMyW2NIXVtjSF1bY0hdbm4y

> <s_epik_cmdline>
J2VwaWtfcHl0aG9uJywgJy1waCcsICc3LjAnLCAnLXRuJywgJzgnLCAnLW1hJywgJzIwMCcsICctbWV0YWxfYmluZGluZycsICctaW1hZScsICc8aW5maWxlLm1hZT4nLCAnLW9tYWUnLCAnPG91dGZpbGUubWFlPic=

> <r_lp_tautomer_probability>
0.966961

> <r_epik_Ionization_Penalty>
2.478

> <r_epik_Ionization_Penalty_Charging>
2.47799

> <r_epik_Ionization_Penalty_Neutral>
3.15286e-06

> <r_epik_State_Penalty>
2.10794

> <r_epik_Charging_Adjusted_Penalty>
4.58594

> <i_epik_Tot_Q>
2

> <i_epik_Tot_abs_Q>
2

> <r_epik_Metal_State_Penalty>
2.11378

> <b_epik_Metal_Only>
0

> <s_lp_Force_Field>
OPLS_2005

> <r_lp_Energy>
36.5784

> <b_lp_Chiralities_Consistent>
1

> <s_lp_Variant>
AV-unprocessed.smi:861-8

> <Gold.Version>
5.8.1

> <Gold.Id.Protein>
6NUR|6NUR_protein|mol2

> <Gold.PLP.Fitness>
47.8549

> <Gold.PLP.PLP>
-28.0674

> <Gold.PLP.part.hbond>
-3.0000

> <Gold.PLP.part.metal>
0.0000

> <Gold.PLP.part.buried>
-5.6986

> <Gold.PLP.part.nonpolar>
-19.8942

> <Gold.PLP.part.repulsive>
0.2792

> <Gold.PLP.ligand.clash>
0.0000

> <Gold.PLP.ligand.torsion>
0.2632

> <Gold.PLP.Chemscore.Hbond>
5.7600

> <Gold.PLP.Chemscore.CHOScore>
1.0000

> <Gold.PLP.Chemscore.Metal>
0.0000

> <Gold.Chemscore.Hbonds>
donor molecule, donor type, donor heavy atom, donor atom, acceptor molecule, acceptor atom, score
      L1  H     6    44       P1 10957  2.00
      L1  H    12    38       P1 10175  2.00
      L1  H    18    45       P1 10175  1.76
      L1  C    16    41       P1  8028  1.00

> <Gold.PLP.Chemscore.Internal.Correction>
0.0338

> <Gold.Rescore>
     Score         DG    S(hbond)    S(metal)    S(lipo)     H(rot)  DE(clash)    DE(int)     intcor
     17.22     -17.61       2.29        0.00      77.09       1.78       0.05       0.34       ----

> <Gold.Chemscore.Fitness>
17.2246

> <Gold.Chemscore.DG>
-17.6121

> <Gold.Chemscore.ZeroCoef>
-5.4800

> <Gold.Chemscore.Hbond>
2.2930

> <Gold.Chemscore.Metal>
0.0000

> <Gold.Chemscore.Lipo>
77.0905

> <Gold.Chemscore.Internal_Hbond>
0.0000

> <Gold.Chemscore.DEClash>
0.0521

> <Gold.Chemscore.DEInternal>
0.3355

> <Gold.Chemscore.Rot>
1.7759

> <Gold.Chemscore.Internal.Correction>
   9.000000E+99

> <Gold.Chemscore.Hbonds>
donor molecule, donor type, donor heavy atom, donor atom, acceptor molecule, acceptor atom, score
      L1  H     6    44       P1 10957  0.98
      L1  H    12    38       P1 10175  0.95
      L1  H    18    45       P1 10175  0.21

> <Gold.Chemscore.Hbond.Weighted>
-7.6587

> <Gold.Chemscore.Metal.Weighted>
-0.0000

> <Gold.Chemscore.Lipo.Weighted>
-9.0196

> <Gold.Chemscore.Internal_Hbond.Weighted>
0.0000

> <Gold.Chemscore.DEClash.Weighted>
0.0521

> <Gold.Chemscore.DEInternal.Weighted>
0.3355

> <Gold.Chemscore.Rot.Weighted>
4.5462

> <Gold.Chemscore.Internal.Correction.Weighted>
   9.000000E+99

> <Gold.Protein.RotatedTorsions>
[ 6907 6896 6895 6894 ] final -101.01 input  -60.11 | X-H torsion
[ 7974 7965 7964 7962 ] final  -73.33 input  175.53 | X-H torsion
[ 8008 7997 7996 7995 ] final  158.86 input   59.86 | X-H torsion
[ 10167 10162 10161 10158 ] final -105.83 input  -65.29 | X-H torsion
[ 10718 10713 10712 10709 ] final   82.02 input   66.30 | X-H torsion
[ 10763 10752 10751 10750 ] final  174.01 input  -60.55 | X-H torsion
[ 11005 11000 10999 10996 ] final  103.00 input  -57.11 | X-H torsion

> <Gold.Protein.ActiveResidues>
 VAL166  LYS551  ARG553  GLY616  TRP617  ASP618  TYR619  PRO620  LYS621  CYS622 
 ASP623  PHE694  ASN695  SER759  ASP760  ASP761  ALA762  ILE779  LEU786  VAL792 
 PHE793  MET794  SER795  GLU796  ALA797  LYS798  CYS799  TRP800  GLU811  SER814 

> <Gold.Protein.RotatedAtoms>
  150.7138  134.0800  159.3894 H   0  0  0  0  0  0  0  0  0  0  0  0  # atno 6907 bound_to 6896
  151.8784  135.0461  160.0495 H   0  0  0  0  0  0  0  0  0  0  0  0  # atno 6908 bound_to 6896
  152.2587  133.5243  159.5405 H   0  0  0  0  0  0  0  0  0  0  0  0  # atno 6909 bound_to 6896
  145.6535  140.9275  143.0972 H   0  0  0  0  0  0  0  0  0  0  0  0  # atno 7974 bound_to 7965
  156.2276  140.1847  156.7325 H   0  0  0  0  0  0  0  0  0  0  0  0  # atno 8008 bound_to 7997
  154.5967  140.0642  156.9341 H   0  0  0  0  0  0  0  0  0  0  0  0  # atno 8009 bound_to 7997
  155.2244  140.3310  155.4314 H   0  0  0  0  0  0  0  0  0  0  0  0  # atno 8010 bound_to 7997
  140.1943  143.3867  152.1181 H   0  0  0  0  0  0  0  0  0  0  0  0  # atno 10167 bound_to 10162
  157.6847  131.0029  150.2313 H   0  0  0  0  0  0  0  0  0  0  0  0  # atno 10718 bound_to 10713
  154.4480  135.2764  155.1801 H   0  0  0  0  0  0  0  0  0  0  0  0  # atno 10763 bound_to 10752
  154.3640  135.6123  153.5709 H   0  0  0  0  0  0  0  0  0  0  0  0  # atno 10764 bound_to 10752
  152.9845  135.5841  154.4819 H   0  0  0  0  0  0  0  0  0  0  0  0  # atno 10765 bound_to 10752
  139.8781  134.9246  156.5143 H   0  0  0  0  0  0  0  0  0  0  0  0  # atno 11005 bound_to 11000
  144.7114  139.8357  143.7413 LP  0  0  0  0  0  0  0  0  0  0  0  0  # atno 17320 bound_to 7965
  146.1184  139.4198  143.0244 LP  0  0  0  0  0  0  0  0  0  0  0  0  # atno 17321 bound_to 7965
  139.5243  144.7082  151.5289 LP  0  0  0  0  0  0  0  0  0  0  0  0  # atno 17342 bound_to 10162
  140.6434  143.8843  150.6714 LP  0  0  0  0  0  0  0  0  0  0  0  0  # atno 17343 bound_to 10162
  156.2945  130.3750  149.7809 LP  0  0  0  0  0  0  0  0  0  0  0  0  # atno 17370 bound_to 10713
  156.5459  130.8320  151.3284 LP  0  0  0  0  0  0  0  0  0  0  0  0  # atno 17371 bound_to 10713
  140.8497  133.8141  155.9156 LP  0  0  0  0  0  0  0  0  0  0  0  0  # atno 17394 bound_to 11000
  140.9156  134.2205  157.4958 LP  0  0  0  0  0  0  0  0  0  0  0  0  # atno 17395 bound_to 11000

$$$$
