AV-unprocessed.smi:2265|AV-procd|sdf|9143|dock6
  -GOLD-   2272012353D 1   1.00000     0.00000
 Structure written by MMmdl.
 36 37  0  0  0  0  0  0  0  0  1 V2000
  145.0237  131.1808  151.1913 C   0  0  0  0  0  0  0  0  0  0  0  0
  144.0011  132.2785  150.8782 C   0  0  0  0  0  0  0  0  0  0  0  0
  144.6498  133.5320  150.2755 C   0  0  0  0  0  0  0  0  0  0  0  0
  145.2532  134.4366  151.3312 C   0  0  2  0  0  0  0  0  0  0  0  0
  144.3668  135.2809  152.2078 C   0  0  0  0  0  0  0  0  0  0  0  0
  145.2430  135.9404  151.1627 C   0  0  1  0  0  0  0  0  0  0  0  0
  146.3616  136.6911  151.6473 N   0  0  0  0  0  0  0  0  0  0  0  0
  146.3376  137.8403  152.3459 C   0  0  0  0  0  0  0  0  0  0  0  0
  145.2688  138.3536  152.6765 O   0  0  0  0  0  0  0  0  0  0  0  0
  147.5633  138.3129  152.6641 N   0  0  0  0  0  0  0  0  0  0  0  0
  147.8890  139.4589  153.3996 C   0  0  0  0  0  0  0  0  0  0  0  0
  147.1432  140.5280  153.4260 N   0  0  0  0  0  0  0  0  0  0  0  0
  147.5023  141.6547  154.1660 C   0  0  0  0  0  0  0  0  0  0  0  0
  148.6418  141.6767  154.8806 C   0  0  0  0  0  0  0  0  0  0  0  0
  149.4971  140.5658  154.8981 N   0  0  0  0  0  0  0  0  0  0  0  0
  150.7234  140.6413  155.6926 C   0  0  0  0  0  0  0  0  0  0  0  0
  149.1960  139.4388  154.1973 C   0  0  0  0  0  0  0  0  0  0  0  0
  149.9139  138.4368  154.1846 O   0  0  0  0  0  0  0  0  0  0  0  0
  144.5352  130.3051  151.6190 H   0  0  0  0  0  0  0  0  0  0  0  0
  145.7692  131.5291  151.9068 H   0  0  0  0  0  0  0  0  0  0  0  0
  145.5473  130.8622  150.2893 H   0  0  0  0  0  0  0  0  0  0  0  0
  143.2530  131.8859  150.1885 H   0  0  0  0  0  0  0  0  0  0  0  0
  143.4690  132.5454  151.7919 H   0  0  0  0  0  0  0  0  0  0  0  0
  145.4371  133.2449  149.5778 H   0  0  0  0  0  0  0  0  0  0  0  0
  143.9119  134.0933  149.7009 H   0  0  0  0  0  0  0  0  0  0  0  0
  146.1366  134.0173  151.8099 H   0  0  0  0  0  0  0  0  0  0  0  0
  143.2951  135.2558  152.0192 H   0  0  0  0  0  0  0  0  0  0  0  0
  144.6511  135.3828  153.2534 H   0  0  0  0  0  0  0  0  0  0  0  0
  144.7047  136.3406  150.3045 H   0  0  0  0  0  0  0  0  0  0  0  0
  147.2669  136.2630  151.5179 H   0  0  0  0  0  0  0  0  0  0  0  0
  148.3388  137.7504  152.3453 H   0  0  0  0  0  0  0  0  0  0  0  0
  146.8238  142.4944  154.1326 H   0  0  0  0  0  0  0  0  0  0  0  0
  148.9610  142.5246  155.4687 H   0  0  0  0  0  0  0  0  0  0  0  0
  151.5982  140.4499  155.0693 H   0  0  0  0  0  0  0  0  0  0  0  0
  150.7056  139.8987  156.4914 H   0  0  0  0  0  0  0  0  0  0  0  0
  150.8614  141.6188  156.1555 H   0  0  0  0  0  0  0  0  0  0  0  0
  1  2  1  0  0  0  0
  1 19  1  0  0  0  0
  1 20  1  0  0  0  0
  1 21  1  0  0  0  0
  2  3  1  0  0  0  0
  2 22  1  0  0  0  0
  2 23  1  0  0  0  0
  3  4  1  0  0  0  0
  3 24  1  0  0  0  0
  3 25  1  0  0  0  0
  4  6  1  0  0  0  0
  4  5  1  0  0  0  0
  4 26  1  0  0  0  0
  5  6  1  0  0  0  0
  5 27  1  0  0  0  0
  5 28  1  0  0  0  0
  6  7  1  0  0  0  0
  6 29  1  0  0  0  0
  7  8  1  0  0  0  0
  7 30  1  0  0  0  0
  8  9  2  0  0  0  0
  8 10  1  0  0  0  0
 10 11  1  0  0  0  0
 10 31  1  0  0  0  0
 11 17  1  0  0  0  0
 11 12  2  0  0  0  0
 12 13  1  0  0  0  0
 13 14  2  0  0  0  0
 13 32  1  0  0  0  0
 14 15  1  0  0  0  0
 14 33  1  0  0  0  0
 15 16  1  0  0  0  0
 15 17  1  0  0  0  0
 16 34  1  0  0  0  0
 16 35  1  0  0  0  0
 16 36  1  0  0  0  0
 17 18  2  0  0  0  0
M  END
> <s_m_source_file>
AV-unprocessed.smi

> <i_m_source_file_index>
2265

> <i_lp_mmshare_version>
43012

> <i_f3d_flags>
0

> <s_epik_input>
W0NIM11bQ0gyXVtDSDJdW0NAQEhdMVtDSDJdW0NASF0xW05IXUMoPU8pW05IXWMybltjSF1bY0hdbihbQ0gzXSljMj1P

> <s_epik_cmdline>
J2VwaWtfcHl0aG9uJywgJy1waCcsICc3LjAnLCAnLXRuJywgJzgnLCAnLW1hJywgJzIwMCcsICctbWV0YWxfYmluZGluZycsICctaW1hZScsICc8aW5maWxlLm1hZT4nLCAnLW9tYWUnLCAnPG91dGZpbGUubWFlPic=

> <r_lp_tautomer_probability>
1

> <r_epik_Ionization_Penalty>
0.000728552

> <r_epik_Ionization_Penalty_Charging>
1.67739e-07

> <r_epik_Ionization_Penalty_Neutral>
0.000728385

> <r_epik_State_Penalty>
-0

> <r_epik_Charging_Adjusted_Penalty>
1.67739e-07

> <i_epik_Tot_Q>
0

> <i_epik_Tot_abs_Q>
0

> <r_epik_Metal_State_Penalty>
-0

> <b_epik_Metal_Only>
0

> <s_lp_Force_Field>
OPLS_2005

> <r_lp_Energy>
43.0048

> <b_lp_Chiralities_Consistent>
1

> <s_lp_Variant>
AV-unprocessed.smi:2265-1

> <Gold.Version>
5.8.1

> <Gold.Id.Protein>
6NUR|6NUR_protein|mol2

> <Gold.PLP.Fitness>
40.2337

> <Gold.PLP.PLP>
-32.0535

> <Gold.PLP.part.hbond>
-3.0000

> <Gold.PLP.part.metal>
0.0000

> <Gold.PLP.part.buried>
0.0221

> <Gold.PLP.part.nonpolar>
-32.4881

> <Gold.PLP.part.repulsive>
4.0242

> <Gold.PLP.ligand.clash>
0.0000

> <Gold.PLP.ligand.torsion>
0.6991

> <Gold.PLP.Chemscore.Hbond>
2.0000

> <Gold.PLP.Chemscore.CHOScore>
1.0000

> <Gold.PLP.Chemscore.Metal>
0.0000

> <Gold.Chemscore.Hbonds>
donor molecule, donor type, donor heavy atom, donor atom, acceptor molecule, acceptor atom, score
      L1  H     7    30       P1  7948  1.00
      L1  H    10    31       P1  7948  1.00
      L1  C    14    33       P1  8028  1.00

> <Gold.PLP.Chemscore.Internal.Correction>
0.5785

> <Gold.Rescore>
     Score         DG    S(hbond)    S(metal)    S(lipo)     H(rot)  DE(clash)    DE(int)     intcor
     12.00     -15.33       1.95        0.00      60.52       1.46       1.40       1.93       ----

> <Gold.Chemscore.Fitness>
12.0033

> <Gold.Chemscore.DG>
-15.3346

> <Gold.Chemscore.ZeroCoef>
-5.4800

> <Gold.Chemscore.Hbond>
1.9500

> <Gold.Chemscore.Metal>
0.0000

> <Gold.Chemscore.Lipo>
60.5173

> <Gold.Chemscore.Internal_Hbond>
0.0000

> <Gold.Chemscore.DEClash>
1.3974

> <Gold.Chemscore.DEInternal>
1.9339

> <Gold.Chemscore.Rot>
1.4604

> <Gold.Chemscore.Internal.Correction>
   9.000000E+99

> <Gold.Chemscore.Hbonds>
donor molecule, donor type, donor heavy atom, donor atom, acceptor molecule, acceptor atom, score
      L1  H     7    30       P1  7948  0.95
      L1  H    10    31       P1  7948  0.95

> <Gold.Chemscore.Hbond.Weighted>
-6.5128

> <Gold.Chemscore.Metal.Weighted>
-0.0000

> <Gold.Chemscore.Lipo.Weighted>
-7.0805

> <Gold.Chemscore.Internal_Hbond.Weighted>
0.0000

> <Gold.Chemscore.DEClash.Weighted>
1.3974

> <Gold.Chemscore.DEInternal.Weighted>
1.9339

> <Gold.Chemscore.Rot.Weighted>
3.7387

> <Gold.Chemscore.Internal.Correction.Weighted>
   9.000000E+99

> <Gold.Protein.RotatedTorsions>
[ 6907 6896 6895 6894 ] final  -50.72 input  -60.11 | X-H torsion
[ 7974 7965 7964 7962 ] final -109.84 input  175.53 | X-H torsion
[ 8008 7997 7996 7995 ] final   18.68 input   59.86 | X-H torsion
[ 10167 10162 10161 10158 ] final  -96.52 input  -65.29 | X-H torsion
[ 10718 10713 10712 10709 ] final -176.00 input   66.30 | X-H torsion
[ 10763 10752 10751 10750 ] final  170.70 input  -60.55 | X-H torsion
[ 11005 11000 10999 10996 ] final  -50.50 input  -57.11 | X-H torsion

> <Gold.Protein.ActiveResidues>
 VAL166  LYS551  ARG553  GLY616  TRP617  ASP618  TYR619  PRO620  LYS621  CYS622 
 ASP623  PHE694  ASN695  SER759  ASP760  ASP761  ALA762  ILE779  LEU786  VAL792 
 PHE793  MET794  SER795  GLU796  ALA797  LYS798  CYS799  TRP800  GLU811  SER814 

> <Gold.Protein.RotatedAtoms>
  150.8680  134.8047  159.7132 H   0  0  0  0  0  0  0  0  0  0  0  0  # atno 6907 bound_to 6896
  152.4694  134.4993  159.9729 H   0  0  0  0  0  0  0  0  0  0  0  0  # atno 6908 bound_to 6896
  151.5086  133.3451  159.2916 H   0  0  0  0  0  0  0  0  0  0  0  0  # atno 6909 bound_to 6896
  145.1755  140.8946  143.3510 H   0  0  0  0  0  0  0  0  0  0  0  0  # atno 7974 bound_to 7965
  154.9096  140.3012  155.5273 H   0  0  0  0  0  0  0  0  0  0  0  0  # atno 8008 bound_to 7997
  156.3015  140.2391  156.4069 H   0  0  0  0  0  0  0  0  0  0  0  0  # atno 8009 bound_to 7997
  154.8439  140.0412  157.1548 H   0  0  0  0  0  0  0  0  0  0  0  0  # atno 8010 bound_to 7997
  140.2930  143.3210  152.0327 H   0  0  0  0  0  0  0  0  0  0  0  0  # atno 10167 bound_to 10162
  156.8083  130.9577  151.3116 H   0  0  0  0  0  0  0  0  0  0  0  0  # atno 10718 bound_to 10713
  154.4013  135.2755  155.2094 H   0  0  0  0  0  0  0  0  0  0  0  0  # atno 10763 bound_to 10752
  154.4119  135.6020  153.5961 H   0  0  0  0  0  0  0  0  0  0  0  0  # atno 10764 bound_to 10752
  152.9831  135.5951  154.4281 H   0  0  0  0  0  0  0  0  0  0  0  0  # atno 10765 bound_to 10752
  141.0819  133.6651  156.3740 H   0  0  0  0  0  0  0  0  0  0  0  0  # atno 11005 bound_to 11000
  145.0189  139.3442  143.6082 LP  0  0  0  0  0  0  0  0  0  0  0  0  # atno 17320 bound_to 7965
  146.3462  139.9481  142.8732 LP  0  0  0  0  0  0  0  0  0  0  0  0  # atno 17321 bound_to 7965
  139.4933  144.6511  151.6673 LP  0  0  0  0  0  0  0  0  0  0  0  0  # atno 17342 bound_to 10162
  140.5716  144.0099  150.6220 LP  0  0  0  0  0  0  0  0  0  0  0  0  # atno 17343 bound_to 10162
  157.6519  130.8891  149.9650 LP  0  0  0  0  0  0  0  0  0  0  0  0  # atno 17370 bound_to 10713
  156.1060  130.3652  150.0133 LP  0  0  0  0  0  0  0  0  0  0  0  0  # atno 17371 bound_to 10713
  140.5449  134.6084  157.5391 LP  0  0  0  0  0  0  0  0  0  0  0  0  # atno 17394 bound_to 11000
  139.9634  134.7414  156.0189 LP  0  0  0  0  0  0  0  0  0  0  0  0  # atno 17395 bound_to 11000

$$$$
