AV-unprocessed.smi:3036|AV-procd|sdf|11583|dock7
  -GOLD-   2272016553D 1   1.00000     0.00000
 Structure written by MMmdl.
 42 43  0  0  0  0  0  0  0  0  2 V2000
  145.3075  133.9196  154.2876 C   0  0  0  0  0  0  0  0  0  0  0  0
  146.2732  134.4511  153.2199 C   0  0  1  0  0  0  0  0  0  0  0  0
  145.5075  134.9676  151.9870 C   0  0  0  0  0  0  0  0  0  0  0  0
  145.2307  133.9131  151.0287 N   0  0  0  0  0  0  0  0  0  0  0  0
  144.0619  133.6626  150.3412 C   0  0  0  0  0  0  0  0  0  0  0  0
  144.2749  132.5574  149.5684 C   0  0  0  0  0  0  0  0  0  0  0  0
  145.6239  132.2025  149.8499 C   0  0  0  0  0  0  0  0  0  0  0  0
  146.1933  133.0178  150.7231 N   0  0  0  0  0  0  0  0  0  0  0  0
  147.1195  135.5179  153.8020 N   0  3  0  0  0  0  0  0  0  0  0  0
  147.8099  135.1442  155.0562 C   0  0  0  0  0  0  0  0  0  0  0  0
  148.6389  136.3078  155.6377 C   0  0  0  0  0  0  0  0  0  0  0  0
  150.1052  136.3630  155.1684 C   0  0  0  0  0  0  0  0  0  0  0  0
  150.7965  135.3480  155.2538 O   0  0  0  0  0  0  0  0  0  0  0  0
  150.5950  137.5268  154.6776 N   0  0  0  0  0  0  0  0  0  0  0  0
  149.8089  138.7626  154.6085 C   0  0  0  0  0  0  0  0  0  0  0  0
  150.4596  139.8070  155.5331 C   0  0  0  0  0  0  0  0  0  0  0  0
  151.8139  140.0168  155.1413 O   0  0  0  0  0  0  0  0  0  0  0  0
  152.5971  138.8263  155.1744 C   0  0  0  0  0  0  0  0  0  0  0  0
  151.9746  137.7703  154.2434 C   0  0  0  0  0  0  0  0  0  0  0  0
  144.6908  133.1122  153.8914 H   0  0  0  0  0  0  0  0  0  0  0  0
  144.6384  134.7033  154.6448 H   0  0  0  0  0  0  0  0  0  0  0  0
  145.8500  133.5257  155.1479 H   0  0  0  0  0  0  0  0  0  0  0  0
  146.9037  133.6173  152.9053 H   0  0  0  0  0  0  0  0  0  0  0  0
  144.5533  135.3990  152.2920 H   0  0  0  0  0  0  0  0  0  0  0  0
  146.0650  135.7657  151.4933 H   0  0  0  0  0  0  0  0  0  0  0  0
  143.1847  134.2815  150.4609 H   0  0  0  0  0  0  0  0  0  0  0  0
  143.5744  132.0763  148.9018 H   0  0  0  0  0  0  0  0  0  0  0  0
  146.2019  131.3824  149.4499 H   0  0  0  0  0  0  0  0  0  0  0  0
  147.8186  135.7778  153.1195 H   0  0  0  0  0  0  0  0  0  0  0  0
  147.0599  134.8442  155.7892 H   0  0  0  0  0  0  0  0  0  0  0  0
  148.4418  134.2722  154.8797 H   0  0  0  0  0  0  0  0  0  0  0  0
  148.1476  137.2509  155.3948 H   0  0  0  0  0  0  0  0  0  0  0  0
  148.6381  136.2185  156.7247 H   0  0  0  0  0  0  0  0  0  0  0  0
  149.7968  139.1260  153.5800 H   0  0  0  0  0  0  0  0  0  0  0  0
  148.7649  138.6220  154.8914 H   0  0  0  0  0  0  0  0  0  0  0  0
  149.9235  140.7542  155.4699 H   0  0  0  0  0  0  0  0  0  0  0  0
  150.4182  139.4845  156.5747 H   0  0  0  0  0  0  0  0  0  0  0  0
  153.6112  139.0632  154.8527 H   0  0  0  0  0  0  0  0  0  0  0  0
  152.6650  138.4525  156.1972 H   0  0  0  0  0  0  0  0  0  0  0  0
  152.5994  136.8790  154.2331 H   0  0  0  0  0  0  0  0  0  0  0  0
  151.9658  138.1373  153.2162 H   0  0  0  0  0  0  0  0  0  0  0  0
  146.5356  136.3213  153.9855 H   0  0  0  0  0  0  0  0  0  0  0  0
  1  2  1  0  0  0  0
  1 20  1  0  0  0  0
  1 21  1  0  0  0  0
  1 22  1  0  0  0  0
  2  3  1  0  0  0  0
  2  9  1  0  0  0  0
  2 23  1  0  0  0  0
  3  4  1  0  0  0  0
  3 24  1  0  0  0  0
  3 25  1  0  0  0  0
  4  8  1  0  0  0  0
  4  5  1  0  0  0  0
  5  6  2  0  0  0  0
  5 26  1  0  0  0  0
  6  7  1  0  0  0  0
  6 27  1  0  0  0  0
  7  8  2  0  0  0  0
  7 28  1  0  0  0  0
  9 10  1  0  0  0  0
  9 29  1  0  0  0  0
  9 42  1  0  0  0  0
 10 11  1  0  0  0  0
 10 30  1  0  0  0  0
 10 31  1  0  0  0  0
 11 12  1  0  0  0  0
 11 32  1  0  0  0  0
 11 33  1  0  0  0  0
 12 13  2  0  0  0  0
 12 14  1  0  0  0  0
 14 19  1  0  0  0  0
 14 15  1  0  0  0  0
 15 16  1  0  0  0  0
 15 34  1  0  0  0  0
 15 35  1  0  0  0  0
 16 17  1  0  0  0  0
 16 36  1  0  0  0  0
 16 37  1  0  0  0  0
 17 18  1  0  0  0  0
 18 19  1  0  0  0  0
 18 38  1  0  0  0  0
 18 39  1  0  0  0  0
 19 40  1  0  0  0  0
 19 41  1  0  0  0  0
M  CHG  1   9   1
M  END
> <s_m_source_file>
AV-unprocessed.smi

> <i_m_source_file_index>
3036

> <i_lp_mmshare_version>
43012

> <i_f3d_flags>
0

> <s_epik_input>
bjFbY0hdW2NIXVtjSF1uMVtDSDJdW0NAQEhdKFtDSDNdKVtOSF1bQ0gyXVtDSDJdQyg9TylOMltDSDJdW0NIMl1PW0NIMl1bQ0gyXTI=

> <s_epik_cmdline>
J2VwaWtfcHl0aG9uJywgJy1waCcsICc3LjAnLCAnLXRuJywgJzgnLCAnLW1hJywgJzIwMCcsICctbWV0YWxfYmluZGluZycsICctaW1hZScsICc8aW5maWxlLm1hZT4nLCAnLW9tYWUnLCAnPG91dGZpbGUubWFlPic=

> <r_lp_tautomer_probability>
1

> <r_epik_Ionization_Penalty>
0.00797109

> <r_epik_Ionization_Penalty_Charging>
0.0079672

> <r_epik_Ionization_Penalty_Neutral>
3.88864e-06

> <r_epik_State_Penalty>
0.00597998

> <r_epik_Charging_Adjusted_Penalty>
0.0139472

> <i_epik_Tot_Q>
1

> <i_epik_Tot_abs_Q>
1

> <r_epik_Metal_State_Penalty>
0.00598029

> <b_epik_Metal_Only>
0

> <s_lp_Force_Field>
OPLS_2005

> <r_lp_Energy>
23.754

> <b_lp_Chiralities_Consistent>
1

> <s_lp_Variant>
AV-unprocessed.smi:3036-2

> <Gold.Version>
5.8.1

> <Gold.Id.Protein>
6NUR|6NUR_protein|mol2

> <Gold.PLP.Fitness>
50.4882

> <Gold.PLP.PLP>
-35.5096

> <Gold.PLP.part.hbond>
-3.0000

> <Gold.PLP.part.metal>
0.0000

> <Gold.PLP.part.buried>
-5.9524

> <Gold.PLP.part.nonpolar>
-27.6789

> <Gold.PLP.part.repulsive>
0.3909

> <Gold.PLP.ligand.clash>
0.0000

> <Gold.PLP.ligand.torsion>
0.8477

> <Gold.PLP.Chemscore.Hbond>
3.9120

> <Gold.PLP.Chemscore.CHOScore>
1.6132

> <Gold.PLP.Chemscore.Metal>
0.0000

> <Gold.Chemscore.Hbonds>
donor molecule, donor type, donor heavy atom, donor atom, acceptor molecule, acceptor atom, score
      L1  H     9    29       P1  7948  2.00
      P1  H  7989  7998       L1    17  0.93
      P1  H 10752 10763       L1    13  0.50
      L1  C     5    26       P1 10186  1.00
      L1  C     7    28       P1 10747  0.02

> <Gold.PLP.Chemscore.Internal.Correction>
0.0986

> <Gold.Rescore>
     Score         DG    S(hbond)    S(metal)    S(lipo)     H(rot)  DE(clash)    DE(int)     intcor
     16.84     -17.55       2.49        0.00      77.26       2.07       0.04       0.66       ----

> <Gold.Chemscore.Fitness>
16.8418

> <Gold.Chemscore.DG>
-17.5475

> <Gold.Chemscore.ZeroCoef>
-5.4800

> <Gold.Chemscore.Hbond>
2.4916

> <Gold.Chemscore.Metal>
0.0000

> <Gold.Chemscore.Lipo>
77.2614

> <Gold.Chemscore.Internal_Hbond>
0.0000

> <Gold.Chemscore.DEClash>
0.0407

> <Gold.Chemscore.DEInternal>
0.6650

> <Gold.Chemscore.Rot>
2.0680

> <Gold.Chemscore.Internal.Correction>
   9.000000E+99

> <Gold.Chemscore.Hbonds>
donor molecule, donor type, donor heavy atom, donor atom, acceptor molecule, acceptor atom, score
      L1  H     9    29       P1  7948  1.00
      P1  H  7989  7998       L1    17  0.38
      P1  H 10752 10763       L1    13  0.45

> <Gold.Chemscore.Hbond.Weighted>
-8.3220

> <Gold.Chemscore.Metal.Weighted>
-0.0000

> <Gold.Chemscore.Lipo.Weighted>
-9.0396

> <Gold.Chemscore.Internal_Hbond.Weighted>
0.0000

> <Gold.Chemscore.DEClash.Weighted>
0.0407

> <Gold.Chemscore.DEInternal.Weighted>
0.6650

> <Gold.Chemscore.Rot.Weighted>
5.2941

> <Gold.Chemscore.Internal.Correction.Weighted>
   9.000000E+99

> <Gold.Protein.RotatedTorsions>
[ 6907 6896 6895 6894 ] final  -35.09 input  -60.11 | X-H torsion
[ 7974 7965 7964 7962 ] final  -39.45 input  175.53 | X-H torsion
[ 8008 7997 7996 7995 ] final -104.72 input   59.86 | X-H torsion
[ 10167 10162 10161 10158 ] final   52.60 input  -65.29 | X-H torsion
[ 10718 10713 10712 10709 ] final  -77.11 input   66.30 | X-H torsion
[ 10763 10752 10751 10750 ] final   62.02 input  -60.55 | X-H torsion
[ 11005 11000 10999 10996 ] final  -93.15 input  -57.11 | X-H torsion

> <Gold.Protein.ActiveResidues>
 VAL166  LYS551  ARG553  GLY616  TRP617  ASP618  TYR619  PRO620  LYS621  CYS622 
 ASP623  PHE694  ASN695  SER759  ASP760  ASP761  ALA762  ILE779  LEU786  VAL792 
 PHE793  MET794  SER795  GLU796  ALA797  LYS798  CYS799  TRP800  GLU811  SER814 

> <Gold.Protein.RotatedAtoms>
  151.0442  134.9628  159.8177 H   0  0  0  0  0  0  0  0  0  0  0  0  # atno 6907 bound_to 6896
  152.5369  134.2619  159.8948 H   0  0  0  0  0  0  0  0  0  0  0  0  # atno 6908 bound_to 6896
  151.2632  133.4249  159.2651 H   0  0  0  0  0  0  0  0  0  0  0  0  # atno 6909 bound_to 6896
  146.0395  140.6627  142.9094 H   0  0  0  0  0  0  0  0  0  0  0  0  # atno 7974 bound_to 7965
  154.8895  140.0416  157.1830 H   0  0  0  0  0  0  0  0  0  0  0  0  # atno 8008 bound_to 7997
  154.8556  140.2936  155.5550 H   0  0  0  0  0  0  0  0  0  0  0  0  # atno 8009 bound_to 7997
  156.2997  140.2456  156.3522 H   0  0  0  0  0  0  0  0  0  0  0  0  # atno 8010 bound_to 7997
  140.2496  144.3494  150.6352 H   0  0  0  0  0  0  0  0  0  0  0  0  # atno 10167 bound_to 10162
  156.0154  130.4483  150.3296 H   0  0  0  0  0  0  0  0  0  0  0  0  # atno 10718 bound_to 10713
  152.9969  135.5480  154.6127 H   0  0  0  0  0  0  0  0  0  0  0  0  # atno 10763 bound_to 10752
  154.5444  135.2822  155.1068 H   0  0  0  0  0  0  0  0  0  0  0  0  # atno 10764 bound_to 10752
  154.2333  135.6429  153.5235 H   0  0  0  0  0  0  0  0  0  0  0  0  # atno 10765 bound_to 10752
  141.1504  133.7868  157.0119 H   0  0  0  0  0  0  0  0  0  0  0  0  # atno 11005 bound_to 11000
  144.7068  140.3882  143.7112 LP  0  0  0  0  0  0  0  0  0  0  0  0  # atno 17320 bound_to 7965
  145.6907  139.1638  143.2648 LP  0  0  0  0  0  0  0  0  0  0  0  0  # atno 17321 bound_to 7965
  140.6051  143.2167  151.6997 LP  0  0  0  0  0  0  0  0  0  0  0  0  # atno 17342 bound_to 10162
  139.5050  144.3732  152.0450 LP  0  0  0  0  0  0  0  0  0  0  0  0  # atno 17343 bound_to 10162
  157.1394  131.0292  151.2934 LP  0  0  0  0  0  0  0  0  0  0  0  0  # atno 17370 bound_to 10713
  157.4484  130.7584  149.7130 LP  0  0  0  0  0  0  0  0  0  0  0  0  # atno 17371 bound_to 10713
  140.0872  134.9614  157.1719 LP  0  0  0  0  0  0  0  0  0  0  0  0  # atno 17394 bound_to 11000
  140.3495  134.2614  155.7200 LP  0  0  0  0  0  0  0  0  0  0  0  0  # atno 17395 bound_to 11000

$$$$
