AV-unprocessed.smi:2168|AV-procd|sdf|8821|dock8
  -GOLD-   2272012 13D 1   1.00000     0.00000
 Structure written by MMmdl.
 46 47  0  0  0  0  0  0  0  0  3 V2000
  153.1564  142.5694  161.1929 C   0  0  0  0  0  0  0  0  0  0  0  0
  153.3600  142.0549  159.7586 C   0  0  0  0  0  0  0  0  0  0  0  0
  152.0934  141.8960  159.0152 N   0  0  0  0  0  0  0  0  0  0  0  0
  151.3679  143.1323  158.6598 C   0  0  0  0  0  0  0  0  0  0  0  0
  152.2881  144.2337  158.1118 C   0  0  0  0  0  0  0  0  0  0  0  0
  151.7045  140.3907  158.2298 S   0  0  0  0  0  0  0  0  0  0  0  0
  152.9499  139.9166  157.6036 O   0  0  0  0  0  0  0  0  0  0  0  0
  151.0824  139.5373  159.2554 O   0  0  0  0  0  0  0  0  0  0  0  0
  150.6349  140.9826  157.1664 N   0  5  0  0  0  0  0  0  0  0  0  0
  150.7326  140.5938  155.7745 C   0  0  0  0  0  0  0  0  0  0  0  0
  150.4091  139.1186  155.6013 C   0  0  0  0  0  0  0  0  0  0  0  0
  150.0025  138.3305  156.7012 C   0  0  0  0  0  0  0  0  0  0  0  0
  149.6907  136.9689  156.5045 C   0  0  0  0  0  0  0  0  0  0  0  0
  149.7871  136.3991  155.2093 C   0  0  0  0  0  0  0  0  0  0  0  0
  149.4818  135.0503  154.9172 N   0  0  0  0  0  0  0  0  0  0  0  0
  148.0765  134.6547  154.8703 C   0  0  0  0  0  0  0  0  0  0  0  0
  147.9251  133.2622  154.2351 C   0  0  0  0  0  0  0  0  0  0  0  0
  148.7492  132.3281  154.9218 O   0  0  0  0  0  0  0  0  0  0  0  0
  150.1263  132.6695  154.8194 C   0  0  0  0  0  0  0  0  0  0  0  0
  150.3726  134.0358  155.4806 C   0  0  0  0  0  0  0  0  0  0  0  0
  150.1829  137.2000  154.1897 N   0  3  0  0  0  0  0  0  0  0  0  0
  150.4895  138.5084  154.3313 C   0  0  0  0  0  0  0  0  0  0  0  0
  154.1064  142.6001  161.7261 H   0  0  0  0  0  0  0  0  0  0  0  0
  152.4794  141.9344  161.7627 H   0  0  0  0  0  0  0  0  0  0  0  0
  152.7499  143.5806  161.2005 H   0  0  0  0  0  0  0  0  0  0  0  0
  154.0000  142.7479  159.2124 H   0  0  0  0  0  0  0  0  0  0  0  0
  153.8937  141.1044  159.7792 H   0  0  0  0  0  0  0  0  0  0  0  0
  150.5991  142.9035  157.9224 H   0  0  0  0  0  0  0  0  0  0  0  0
  150.8417  143.4983  159.5418 H   0  0  0  0  0  0  0  0  0  0  0  0
  151.7027  145.1005  157.8055 H   0  0  0  0  0  0  0  0  0  0  0  0
  152.8488  143.8940  157.2414 H   0  0  0  0  0  0  0  0  0  0  0  0
  152.9999  144.5747  158.8629 H   0  0  0  0  0  0  0  0  0  0  0  0
  150.0525  141.1674  155.1437 H   0  0  0  0  0  0  0  0  0  0  0  0
  151.7303  140.7731  155.3727 H   0  0  0  0  0  0  0  0  0  0  0  0
  149.9187  138.7526  157.6936 H   0  0  0  0  0  0  0  0  0  0  0  0
  149.3859  136.3880  157.3612 H   0  0  0  0  0  0  0  0  0  0  0  0
  147.6691  134.6541  155.8821 H   0  0  0  0  0  0  0  0  0  0  0  0
  147.4988  135.3667  154.2807 H   0  0  0  0  0  0  0  0  0  0  0  0
  146.8877  132.9333  154.2963 H   0  0  0  0  0  0  0  0  0  0  0  0
  148.1883  133.2866  153.1763 H   0  0  0  0  0  0  0  0  0  0  0  0
  150.7204  131.9014  155.3143 H   0  0  0  0  0  0  0  0  0  0  0  0
  150.4333  132.6826  153.7723 H   0  0  0  0  0  0  0  0  0  0  0  0
  151.4210  134.3012  155.3454 H   0  0  0  0  0  0  0  0  0  0  0  0
  150.1947  133.9689  156.5545 H   0  0  0  0  0  0  0  0  0  0  0  0
  150.7785  139.0178  153.4221 H   0  0  0  0  0  0  0  0  0  0  0  0
  150.2453  136.7950  153.2560 H   0  0  0  0  0  0  0  0  0  0  0  0
  1  2  1  0  0  0  0
  1 23  1  0  0  0  0
  1 24  1  0  0  0  0
  1 25  1  0  0  0  0
  2  3  1  0  0  0  0
  2 26  1  0  0  0  0
  2 27  1  0  0  0  0
  3  4  1  0  0  0  0
  3  6  1  0  0  0  0
  4  5  1  0  0  0  0
  4 28  1  0  0  0  0
  4 29  1  0  0  0  0
  5 30  1  0  0  0  0
  5 31  1  0  0  0  0
  5 32  1  0  0  0  0
  6  7  2  0  0  0  0
  6  8  2  0  0  0  0
  6  9  1  0  0  0  0
  9 10  1  0  0  0  0
 10 11  1  0  0  0  0
 10 33  1  0  0  0  0
 10 34  1  0  0  0  0
 11 22  1  0  0  0  0
 11 12  2  0  0  0  0
 12 13  1  0  0  0  0
 12 35  1  0  0  0  0
 13 14  2  0  0  0  0
 13 36  1  0  0  0  0
 14 15  1  0  0  0  0
 14 21  1  0  0  0  0
 15 20  1  0  0  0  0
 15 16  1  0  0  0  0
 16 17  1  0  0  0  0
 16 37  1  0  0  0  0
 16 38  1  0  0  0  0
 17 18  1  0  0  0  0
 17 39  1  0  0  0  0
 17 40  1  0  0  0  0
 18 19  1  0  0  0  0
 19 20  1  0  0  0  0
 19 41  1  0  0  0  0
 19 42  1  0  0  0  0
 20 43  1  0  0  0  0
 20 44  1  0  0  0  0
 21 22  2  0  0  0  0
 21 46  1  0  0  0  0
 22 45  1  0  0  0  0
M  CHG  1   9  -1
M  CHG  1  21   1
M  END
> <s_m_source_file>
AV-unprocessed.smi

> <i_m_source_file_index>
2168

> <i_lp_mmshare_version>
43012

> <i_f3d_flags>
0

> <s_epik_input>
W0NIM11bQ0gyXU4oW0NIMl1bQ0gzXSlTKD1PKSg9TylbTkhdW0NIMl1jMVtjSF1bY0hdYyhuW2NIXTEpTjJbQ0gyXVtDSDJdT1tDSDJdW0NIMl0y

> <s_epik_cmdline>
J2VwaWtfcHl0aG9uJywgJy1waCcsICc3LjAnLCAnLXRuJywgJzgnLCAnLW1hJywgJzIwMCcsICctbWV0YWxfYmluZGluZycsICctaW1hZScsICc8aW5maWxlLm1hZT4nLCAnLW9tYWUnLCAnPG91dGZpbGUubWFlPic=

> <r_lp_tautomer_probability>
0.999994

> <r_epik_Ionization_Penalty>
2.67026

> <r_epik_Ionization_Penalty_Charging>
2.67026

> <r_epik_Ionization_Penalty_Neutral>
4.07977e-08

> <r_epik_State_Penalty>
4.05768

> <r_epik_Charging_Adjusted_Penalty>
6.72795

> <i_epik_Tot_Q>
0

> <i_epik_Tot_abs_Q>
2

> <r_epik_Metal_State_Penalty>
2.91237

> <b_epik_Metal_Only>
1

> <s_lp_Force_Field>
OPLS_2005

> <r_lp_Energy>
13.0843

> <b_lp_Chiralities_Consistent>
1

> <s_lp_Variant>
AV-unprocessed.smi:2168-4

> <Gold.Version>
5.8.1

> <Gold.Id.Protein>
6NUR|6NUR_protein|mol2

> <Gold.PLP.Fitness>
42.6566

> <Gold.PLP.PLP>
-35.3606

> <Gold.PLP.part.hbond>
-2.8852

> <Gold.PLP.part.metal>
0.0000

> <Gold.PLP.part.buried>
-4.7943

> <Gold.PLP.part.nonpolar>
-29.3693

> <Gold.PLP.part.repulsive>
0.9420

> <Gold.PLP.ligand.clash>
1.1470

> <Gold.PLP.ligand.torsion>
2.1818

> <Gold.PLP.Chemscore.Hbond>
2.9840

> <Gold.PLP.Chemscore.CHOScore>
0.0000

> <Gold.PLP.Chemscore.Metal>
0.0000

> <Gold.Chemscore.Hbonds>
donor molecule, donor type, donor heavy atom, donor atom, acceptor molecule, acceptor atom, score
      L1  H    21    46       P1  7948  0.75
      P1  H  7997  8008       L1     7  1.00

> <Gold.PLP.Chemscore.Internal.Correction>
3.8545

> <Gold.Rescore>
     Score         DG    S(hbond)    S(metal)    S(lipo)     H(rot)  DE(clash)    DE(int)     intcor
     15.17     -17.41       1.97        0.00      83.28       1.72       0.02       2.22       ----

> <Gold.Chemscore.Fitness>
15.1717

> <Gold.Chemscore.DG>
-17.4101

> <Gold.Chemscore.ZeroCoef>
-5.4800

> <Gold.Chemscore.Hbond>
1.9699

> <Gold.Chemscore.Metal>
0.0000

> <Gold.Chemscore.Lipo>
83.2758

> <Gold.Chemscore.Internal_Hbond>
0.0000

> <Gold.Chemscore.DEClash>
0.0222

> <Gold.Chemscore.DEInternal>
2.2161

> <Gold.Chemscore.Rot>
1.7159

> <Gold.Chemscore.Internal.Correction>
   9.000000E+99

> <Gold.Chemscore.Hbonds>
donor molecule, donor type, donor heavy atom, donor atom, acceptor molecule, acceptor atom, score
      L1  H    21    46       P1  7948  0.02
      P1  H  7997  8008       L1     7  0.98

> <Gold.Chemscore.Hbond.Weighted>
-6.5794

> <Gold.Chemscore.Metal.Weighted>
-0.0000

> <Gold.Chemscore.Lipo.Weighted>
-9.7433

> <Gold.Chemscore.Internal_Hbond.Weighted>
0.0000

> <Gold.Chemscore.DEClash.Weighted>
0.0222

> <Gold.Chemscore.DEInternal.Weighted>
2.2161

> <Gold.Chemscore.Rot.Weighted>
4.3926

> <Gold.Chemscore.Internal.Correction.Weighted>
   9.000000E+99

> <Gold.Protein.RotatedTorsions>
[ 6907 6896 6895 6894 ] final  -82.58 input  -60.11 | X-H torsion
[ 7974 7965 7964 7962 ] final -140.89 input  175.53 | X-H torsion
[ 8008 7997 7996 7995 ] final  -61.22 input   59.86 | X-H torsion
[ 10167 10162 10161 10158 ] final  -58.22 input  -65.29 | X-H torsion
[ 10718 10713 10712 10709 ] final   42.98 input   66.30 | X-H torsion
[ 10763 10752 10751 10750 ] final  132.97 input  -60.55 | X-H torsion
[ 11005 11000 10999 10996 ] final  175.11 input  -57.11 | X-H torsion

> <Gold.Protein.ActiveResidues>
 VAL166  LYS551  ARG553  GLY616  TRP617  ASP618  TYR619  PRO620  LYS621  CYS622 
 ASP623  PHE694  ASN695  SER759  ASP760  ASP761  ALA762  ILE779  LEU786  VAL792 
 PHE793  MET794  SER795  GLU796  ALA797  LYS798  CYS799  TRP800  GLU811  SER814 

> <Gold.Protein.RotatedAtoms>
  150.6895  134.3643  159.4964 H   0  0  0  0  0  0  0  0  0  0  0  0  # atno 6907 bound_to 6896
  152.1468  134.9017  160.0559 H   0  0  0  0  0  0  0  0  0  0  0  0  # atno 6908 bound_to 6896
  152.0130  133.3834  159.4264 H   0  0  0  0  0  0  0  0  0  0  0  0  # atno 6909 bound_to 6896
  144.8562  140.6145  143.5358 H   0  0  0  0  0  0  0  0  0  0  0  0  # atno 7974 bound_to 7965
  154.4437  140.1022  156.6396 H   0  0  0  0  0  0  0  0  0  0  0  0  # atno 8008 bound_to 7997
  155.5516  140.3485  155.4451 H   0  0  0  0  0  0  0  0  0  0  0  0  # atno 8009 bound_to 7997
  156.0525  140.1307  157.0023 H   0  0  0  0  0  0  0  0  0  0  0  0  # atno 8010 bound_to 7997
  140.6210  143.2420  151.5480 H   0  0  0  0  0  0  0  0  0  0  0  0  # atno 10167 bound_to 10162
  157.4109  130.7913  149.7429 H   0  0  0  0  0  0  0  0  0  0  0  0  # atno 10718 bound_to 10713
  153.7994  135.3144  155.3388 H   0  0  0  0  0  0  0  0  0  0  0  0  # atno 10763 bound_to 10752
  154.8095  135.4676  154.0482 H   0  0  0  0  0  0  0  0  0  0  0  0  # atno 10764 bound_to 10752
  153.1825  135.6896  153.8547 H   0  0  0  0  0  0  0  0  0  0  0  0  # atno 10765 bound_to 10752
  140.3586  134.7132  157.4316 H   0  0  0  0  0  0  0  0  0  0  0  0  # atno 11005 bound_to 11000
  145.4402  139.1536  143.3974 LP  0  0  0  0  0  0  0  0  0  0  0  0  # atno 17320 bound_to 7965
  146.2824  140.4523  142.8771 LP  0  0  0  0  0  0  0  0  0  0  0  0  # atno 17321 bound_to 7965
  139.5439  144.2574  152.1404 LP  0  0  0  0  0  0  0  0  0  0  0  0  # atno 17342 bound_to 10162
  140.1794  144.4859  150.6536 LP  0  0  0  0  0  0  0  0  0  0  0  0  # atno 17343 bound_to 10162
  155.9850  130.3986  150.3282 LP  0  0  0  0  0  0  0  0  0  0  0  0  # atno 17370 bound_to 10713
  157.1420  131.0299  151.2923 LP  0  0  0  0  0  0  0  0  0  0  0  0  # atno 17371 bound_to 10713
  140.0645  134.5949  155.8711 LP  0  0  0  0  0  0  0  0  0  0  0  0  # atno 17394 bound_to 11000
  141.1991  133.6605  156.5825 LP  0  0  0  0  0  0  0  0  0  0  0  0  # atno 17395 bound_to 11000

$$$$
