AV-unprocessed.smi:2915|AV-procd|sdf|11187|dock1
  -GOLD-   2272016 73D 1   1.00000     0.00000
 Structure written by MMmdl.
 41 42  0  0  0  0  0  0  0  0  1 V2000
  152.8929  142.6899  162.0394 C   0  0  0  0  0  0  0  0  0  0  0  0
  152.4464  143.3025  160.7565 C   0  0  0  0  0  0  0  0  0  0  0  0
  152.2168  142.6019  159.6429 N   0  0  0  0  0  0  0  0  0  0  0  0
  151.8000  143.4062  158.5768 C   0  0  0  0  0  0  0  0  0  0  0  0
  151.4897  142.7855  157.2432 C   0  0  0  0  0  0  0  0  0  0  0  0
  150.3549  141.7562  157.3292 C   0  0  0  0  0  0  0  0  0  0  0  0
  149.7640  141.5402  158.3887 O   0  0  0  0  0  0  0  0  0  0  0  0
  150.0656  141.1203  156.1835 N   0  0  0  0  0  0  0  0  0  0  0  0
  149.0510  140.0803  156.0067 C   0  0  0  0  0  0  0  0  0  0  0  0
  148.8758  139.6268  154.5295 C   0  0  0  0  0  0  0  0  0  0  0  0
  150.1980  138.9287  154.1000 C   0  0  0  0  0  0  0  0  0  0  0  0
  150.5959  137.6511  154.8697 C   0  0  0  0  0  0  0  0  0  0  0  0
  151.5568  136.9338  154.1260 O   0  0  0  0  0  0  0  0  0  0  0  0
  147.6552  138.6763  154.3827 C   0  0  0  0  0  0  0  0  0  0  0  0
  146.8663  139.1724  153.1704 C   0  0  0  0  0  0  0  0  0  0  0  0
  147.0950  140.6793  153.1744 C   0  0  0  0  0  0  0  0  0  0  0  0
  148.5526  140.8378  153.6108 C   0  0  0  0  0  0  0  0  0  0  0  0
  151.7308  144.7390  158.9008 C   0  0  0  0  0  0  0  0  0  0  0  0
  152.1715  145.0290  160.5607 S   0  0  0  0  0  0  0  0  0  0  0  0
  152.8721  141.6016  161.9740 H   0  0  0  0  0  0  0  0  0  0  0  0
  152.2353  143.0035  162.8502 H   0  0  0  0  0  0  0  0  0  0  0  0
  153.9098  143.0081  162.2692 H   0  0  0  0  0  0  0  0  0  0  0  0
  151.2065  143.5554  156.5248 H   0  0  0  0  0  0  0  0  0  0  0  0
  152.3763  142.2964  156.8371 H   0  0  0  0  0  0  0  0  0  0  0  0
  150.6039  141.3650  155.3651 H   0  0  0  0  0  0  0  0  0  0  0  0
  149.2717  139.2164  156.6359 H   0  0  0  0  0  0  0  0  0  0  0  0
  148.1095  140.4835  156.3810 H   0  0  0  0  0  0  0  0  0  0  0  0
  150.1369  138.6900  153.0369 H   0  0  0  0  0  0  0  0  0  0  0  0
  151.0175  139.6431  154.1929 H   0  0  0  0  0  0  0  0  0  0  0  0
  151.0290  137.8877  155.8407 H   0  0  0  0  0  0  0  0  0  0  0  0
  149.7441  136.9965  155.0474 H   0  0  0  0  0  0  0  0  0  0  0  0
  151.2874  136.9193  153.2202 H   0  0  0  0  0  0  0  0  0  0  0  0
  147.9331  137.6264  154.2903 H   0  0  0  0  0  0  0  0  0  0  0  0
  147.0046  138.7288  155.2555 H   0  0  0  0  0  0  0  0  0  0  0  0
  147.2742  138.7395  152.2562 H   0  0  0  0  0  0  0  0  0  0  0  0
  145.8095  138.9088  153.2213 H   0  0  0  0  0  0  0  0  0  0  0  0
  146.8954  141.1378  152.2055 H   0  0  0  0  0  0  0  0  0  0  0  0
  146.4374  141.1492  153.9073 H   0  0  0  0  0  0  0  0  0  0  0  0
  148.7222  141.8007  154.0929 H   0  0  0  0  0  0  0  0  0  0  0  0
  149.1850  140.8443  152.7245 H   0  0  0  0  0  0  0  0  0  0  0  0
  151.4415  145.5638  158.2666 H   0  0  0  0  0  0  0  0  0  0  0  0
  1  2  1  0  0  0  0
  1 20  1  0  0  0  0
  1 21  1  0  0  0  0
  1 22  1  0  0  0  0
  2 19  1  0  0  0  0
  2  3  2  0  0  0  0
  3  4  1  0  0  0  0
  4  5  1  0  0  0  0
  4 18  2  0  0  0  0
  5  6  1  0  0  0  0
  5 23  1  0  0  0  0
  5 24  1  0  0  0  0
  6  7  2  0  0  0  0
  6  8  1  0  0  0  0
  8  9  1  0  0  0  0
  8 25  1  0  0  0  0
  9 10  1  0  0  0  0
  9 26  1  0  0  0  0
  9 27  1  0  0  0  0
 10 17  1  0  0  0  0
 10 11  1  0  0  0  0
 10 14  1  0  0  0  0
 11 12  1  0  0  0  0
 11 28  1  0  0  0  0
 11 29  1  0  0  0  0
 12 13  1  0  0  0  0
 12 30  1  0  0  0  0
 12 31  1  0  0  0  0
 13 32  1  0  0  0  0
 14 15  1  0  0  0  0
 14 33  1  0  0  0  0
 14 34  1  0  0  0  0
 15 16  1  0  0  0  0
 15 35  1  0  0  0  0
 15 36  1  0  0  0  0
 16 17  1  0  0  0  0
 16 37  1  0  0  0  0
 16 38  1  0  0  0  0
 17 39  1  0  0  0  0
 17 40  1  0  0  0  0
 18 19  1  0  0  0  0
 18 41  1  0  0  0  0
M  END
> <s_m_source_file>
AV-unprocessed.smi

> <i_m_source_file_index>
2915

> <i_lp_mmshare_version>
43012

> <i_f3d_flags>
0

> <s_epik_input>
W0NIM11jMW5jKFtjSF1zMSlbQ0gyXUMoPU8pW05IXVtDSDJdQzIoW0NIMl1bQ0gyXVtPSF0pW0NIMl1bQ0gyXVtDSDJdW0NIMl0y

> <s_epik_cmdline>
J2VwaWtfcHl0aG9uJywgJy1waCcsICc3LjAnLCAnLXRuJywgJzgnLCAnLW1hJywgJzIwMCcsICctbWV0YWxfYmluZGluZycsICctaW1hZScsICc8aW5maWxlLm1hZT4nLCAnLW9tYWUnLCAnPG91dGZpbGUubWFlPic=

> <r_lp_tautomer_probability>
1

> <r_epik_Ionization_Penalty>
5.95244e-05

> <r_epik_Ionization_Penalty_Charging>
0

> <r_epik_Ionization_Penalty_Neutral>
5.95244e-05

> <r_epik_State_Penalty>
-0

> <r_epik_Charging_Adjusted_Penalty>
0

> <i_epik_Tot_Q>
0

> <i_epik_Tot_abs_Q>
0

> <r_epik_Metal_State_Penalty>
-0

> <b_epik_Metal_Only>
0

> <s_lp_Force_Field>
OPLS_2005

> <r_lp_Energy>
27.9647

> <b_lp_Chiralities_Consistent>
1

> <s_lp_Variant>
AV-unprocessed.smi:2915-1

> <Gold.Version>
5.8.1

> <Gold.Id.Protein>
6NUR|6NUR_protein|mol2

> <Gold.PLP.Fitness>
47.0371

> <Gold.PLP.PLP>
-41.1306

> <Gold.PLP.part.hbond>
-2.0000

> <Gold.PLP.part.metal>
0.0000

> <Gold.PLP.part.buried>
-4.0682

> <Gold.PLP.part.nonpolar>
-35.8736

> <Gold.PLP.part.repulsive>
0.1047

> <Gold.PLP.ligand.clash>
0.0000

> <Gold.PLP.ligand.torsion>
0.1284

> <Gold.PLP.Chemscore.Hbond>
1.9920

> <Gold.PLP.Chemscore.CHOScore>
0.0000

> <Gold.PLP.Chemscore.Metal>
0.0000

> <Gold.Chemscore.Hbonds>
donor molecule, donor type, donor heavy atom, donor atom, acceptor molecule, acceptor atom, score
      L1  H    13    32       P1  7949  1.00
      P1  H 10752 10763       L1    13  1.00

> <Gold.PLP.Chemscore.Internal.Correction>
0.1874

> <Gold.Rescore>
     Score         DG    S(hbond)    S(metal)    S(lipo)     H(rot)  DE(clash)    DE(int)     intcor
     16.99     -18.67       1.62        0.00     120.09       2.45       1.39       0.29       ----

> <Gold.Chemscore.Fitness>
16.9920

> <Gold.Chemscore.DG>
-18.6747

> <Gold.Chemscore.ZeroCoef>
-5.4800

> <Gold.Chemscore.Hbond>
1.6193

> <Gold.Chemscore.Metal>
0.0000

> <Gold.Chemscore.Lipo>
120.0879

> <Gold.Chemscore.Internal_Hbond>
0.0000

> <Gold.Chemscore.DEClash>
1.3899

> <Gold.Chemscore.DEInternal>
0.2929

> <Gold.Chemscore.Rot>
2.4469

> <Gold.Chemscore.Internal.Correction>
   9.000000E+99

> <Gold.Chemscore.Hbonds>
donor molecule, donor type, donor heavy atom, donor atom, acceptor molecule, acceptor atom, score
      L1  H    13    32       P1  7949  0.65
      P1  H 10752 10763       L1    13  0.40

> <Gold.Chemscore.Hbond.Weighted>
-5.4085

> <Gold.Chemscore.Metal.Weighted>
-0.0000

> <Gold.Chemscore.Lipo.Weighted>
-14.0503

> <Gold.Chemscore.Internal_Hbond.Weighted>
0.0000

> <Gold.Chemscore.DEClash.Weighted>
1.3899

> <Gold.Chemscore.DEInternal.Weighted>
0.2929

> <Gold.Chemscore.Rot.Weighted>
6.2640

> <Gold.Chemscore.Internal.Correction.Weighted>
   9.000000E+99

> <Gold.Protein.RotatedTorsions>
[ 6907 6896 6895 6894 ] final -131.51 input  -60.11 | X-H torsion
[ 7974 7965 7964 7962 ] final -135.63 input  175.53 | X-H torsion
[ 8008 7997 7996 7995 ] final  -55.33 input   59.86 | X-H torsion
[ 10167 10162 10161 10158 ] final  102.16 input  -65.29 | X-H torsion
[ 10718 10713 10712 10709 ] final  125.28 input   66.30 | X-H torsion
[ 10763 10752 10751 10750 ] final   34.86 input  -60.55 | X-H torsion
[ 11005 11000 10999 10996 ] final -134.79 input  -57.11 | X-H torsion

> <Gold.Protein.ActiveResidues>
 VAL166  LYS551  ARG553  GLY616  TRP617  ASP618  TYR619  PRO620  LYS621  CYS622 
 ASP623  PHE694  ASN695  SER759  ASP760  ASP761  ALA762  ILE779  LEU786  VAL792 
 PHE793  MET794  SER795  GLU796  ALA797  LYS798  CYS799  TRP800  GLU811  SER814 

> <Gold.Protein.RotatedAtoms>
  150.9518  133.6541  159.2770 H   0  0  0  0  0  0  0  0  0  0  0  0  # atno 6907 bound_to 6896
  151.3894  135.0952  159.9531 H   0  0  0  0  0  0  0  0  0  0  0  0  # atno 6908 bound_to 6896
  152.5113  133.9035  159.7507 H   0  0  0  0  0  0  0  0  0  0  0  0  # atno 6909 bound_to 6896
  144.8997  140.6754  143.5093 H   0  0  0  0  0  0  0  0  0  0  0  0  # atno 7974 bound_to 7965
  154.4191  140.1155  156.5459 H   0  0  0  0  0  0  0  0  0  0  0  0  # atno 8008 bound_to 7997
  155.6460  140.3496  155.4712 H   0  0  0  0  0  0  0  0  0  0  0  0  # atno 8009 bound_to 7997
  155.9832  140.1164  157.0697 H   0  0  0  0  0  0  0  0  0  0  0  0  # atno 8010 bound_to 7997
  139.7374  144.7020  151.0628 H   0  0  0  0  0  0  0  0  0  0  0  0  # atno 10167 bound_to 10162
  157.5516  131.1094  150.8693 H   0  0  0  0  0  0  0  0  0  0  0  0  # atno 10718 bound_to 10713
  153.0145  135.6349  154.1735 H   0  0  0  0  0  0  0  0  0  0  0  0  # atno 10763 bound_to 10752
  154.1475  135.2831  155.3146 H   0  0  0  0  0  0  0  0  0  0  0  0  # atno 10764 bound_to 10752
  154.6078  135.5566  153.7503 H   0  0  0  0  0  0  0  0  0  0  0  0  # atno 10765 bound_to 10752
  140.8957  134.1754  157.4496 H   0  0  0  0  0  0  0  0  0  0  0  0  # atno 11005 bound_to 11000
  145.3638  139.1675  143.4369 LP  0  0  0  0  0  0  0  0  0  0  0  0  # atno 17320 bound_to 7965
  146.3101  140.3703  142.8673 LP  0  0  0  0  0  0  0  0  0  0  0  0  # atno 17321 bound_to 7965
  140.7781  143.4967  150.9824 LP  0  0  0  0  0  0  0  0  0  0  0  0  # atno 17342 bound_to 10162
  139.8655  143.7259  152.3170 LP  0  0  0  0  0  0  0  0  0  0  0  0  # atno 17343 bound_to 10162
  156.9216  130.5317  149.5279 LP  0  0  0  0  0  0  0  0  0  0  0  0  # atno 17370 bound_to 10713
  156.0581  130.5639  150.9135 LP  0  0  0  0  0  0  0  0  0  0  0  0  # atno 17371 bound_to 10713
  139.8735  134.9877  156.5381 LP  0  0  0  0  0  0  0  0  0  0  0  0  # atno 17394 bound_to 11000
  140.8292  133.8292  155.8968 LP  0  0  0  0  0  0  0  0  0  0  0  0  # atno 17395 bound_to 11000

$$$$
