AV-unprocessed.smi:2886|AV-procd|sdf|11091|dock9
  -GOLD-   2272015563D 1   1.00000     0.00000
 Structure written by MMmdl.
 28 30  0  0  0  0  0  0  0  0  3 V2000
  150.7008  138.8849  155.0565 O   0  0  0  0  0  0  0  0  0  0  0  0
  150.7858  139.9869  155.5948 C   0  0  0  0  0  0  0  0  0  0  0  0
  150.1317  141.0960  155.1375 N   0  5  0  0  0  0  0  0  0  0  0  0
  150.2407  142.2625  155.7335 N   0  3  0  0  0  0  0  0  0  0  0  0
  150.9833  142.4693  156.8164 C   0  0  0  0  0  0  0  0  0  0  0  0
  151.7119  141.3947  157.3987 C   0  0  0  0  0  0  0  0  0  0  0  0
  152.5031  141.5634  158.5282 N   0  0  0  0  0  0  0  0  0  0  0  0
  152.7406  142.7756  159.3000 C   0  0  2  0  0  0  0  0  0  0  0  0
  153.3203  142.4873  160.6871 C   0  0  0  0  0  0  0  0  0  0  0  0
  152.3039  143.1841  161.6008 C   0  0  1  0  0  0  0  0  0  0  0  0
  152.3568  144.7133  161.4723 C   0  0  0  0  0  0  0  0  0  0  0  0
  151.6992  144.9362  160.1104 C   0  0  0  0  0  0  0  0  0  0  0  0
  151.4293  143.4971  159.6512 C   0  0  2  0  0  0  0  0  0  0  0  0
  151.1067  142.9021  160.8981 O   0  0  0  0  0  0  0  0  0  0  0  0
  151.6205  140.1742  156.7960 C   0  0  0  0  0  0  0  0  0  0  0  0
  152.4760  138.8060  157.4274 Cl  0  0  0  0  0  0  0  0  0  0  0  0
  149.7417  143.0880  155.3664 H   0  0  0  0  0  0  0  0  0  0  0  0
  151.0031  143.4759  157.2142 H   0  0  0  0  0  0  0  0  0  0  0  0
  152.8481  140.7194  158.9639 H   0  0  0  0  0  0  0  0  0  0  0  0
  153.3818  143.4540  158.7372 H   0  0  0  0  0  0  0  0  0  0  0  0
  153.3442  141.4167  160.8966 H   0  0  0  0  0  0  0  0  0  0  0  0
  154.3304  142.8789  160.8107 H   0  0  0  0  0  0  0  0  0  0  0  0
  152.3162  142.8247  162.6301 H   0  0  0  0  0  0  0  0  0  0  0  0
  151.7748  145.1920  162.2608 H   0  0  0  0  0  0  0  0  0  0  0  0
  153.3767  145.0967  161.5182 H   0  0  0  0  0  0  0  0  0  0  0  0
  150.7638  145.4851  160.2239 H   0  0  0  0  0  0  0  0  0  0  0  0
  152.3348  145.4857  159.4155 H   0  0  0  0  0  0  0  0  0  0  0  0
  150.6501  143.4184  158.8919 H   0  0  0  0  0  0  0  0  0  0  0  0
  1  2  2  0  0  0  0
  2  3  1  0  0  0  0
  2 15  1  0  0  0  0
  3  4  1  0  0  0  0
  4  5  2  0  0  0  0
  4 17  1  0  0  0  0
  5  6  1  0  0  0  0
  5 18  1  0  0  0  0
  6 15  2  0  0  0  0
  6  7  1  0  0  0  0
  7  8  1  0  0  0  0
  7 19  1  0  0  0  0
  8 13  1  0  0  0  0
  8  9  1  0  0  0  0
  8 20  1  0  0  0  0
  9 10  1  0  0  0  0
  9 21  1  0  0  0  0
  9 22  1  0  0  0  0
 10 14  1  0  0  0  0
 10 11  1  0  0  0  0
 10 23  1  0  0  0  0
 11 12  1  0  0  0  0
 11 24  1  0  0  0  0
 11 25  1  0  0  0  0
 12 13  1  0  0  0  0
 12 26  1  0  0  0  0
 12 27  1  0  0  0  0
 13 14  1  0  0  0  0
 13 28  1  0  0  0  0
 15 16  1  0  0  0  0
M  CHG  1   3  -1
M  CHG  1   4   1
M  END
> <s_m_source_file>
AV-unprocessed.smi

> <i_m_source_file_index>
2886

> <i_lp_mmshare_version>
43012

> <i_f3d_flags>
0

> <s_epik_input>
Tz1jMVtuSF1uW2NIXWMoYzFDbClbTkhdW0NASF0oW0NIMl1bQ0BASF0yMylbQ0BASF0oTzMpW0NIMl1bQ0gyXTI=

> <s_epik_cmdline>
J2VwaWtfcHl0aG9uJywgJy1waCcsICc3LjAnLCAnLXRuJywgJzgnLCAnLW1hJywgJzIwMCcsICctbWV0YWxfYmluZGluZycsICctaW1hZScsICc8aW5maWxlLm1hZT4nLCAnLW9tYWUnLCAnPG91dGZpbGUubWFlPic=

> <r_lp_tautomer_probability>
0.0138196

> <r_epik_Ionization_Penalty>
2.43027

> <r_epik_Ionization_Penalty_Charging>
2.43027

> <r_epik_Ionization_Penalty_Neutral>
1.33267e-06

> <r_epik_State_Penalty>
2.7044

> <r_epik_Charging_Adjusted_Penalty>
5.13467

> <i_epik_Tot_Q>
0

> <i_epik_Tot_abs_Q>
2

> <r_epik_Metal_State_Penalty>
2.98589

> <b_epik_Metal_Only>
0

> <s_lp_Force_Field>
OPLS_2005

> <r_lp_Energy>
57.4961

> <b_lp_Chiralities_Consistent>
1

> <s_lp_Variant>
AV-unprocessed.smi:2886-5

> <Gold.Version>
5.8.1

> <Gold.Id.Protein>
6NUR|6NUR_protein|mol2

> <Gold.PLP.Fitness>
37.8244

> <Gold.PLP.PLP>
-31.6648

> <Gold.PLP.part.hbond>
-2.9319

> <Gold.PLP.part.metal>
0.0000

> <Gold.PLP.part.buried>
-2.9575

> <Gold.PLP.part.nonpolar>
-25.7081

> <Gold.PLP.part.repulsive>
0.5409

> <Gold.PLP.ligand.clash>
0.0000

> <Gold.PLP.ligand.torsion>
0.1691

> <Gold.PLP.Chemscore.Hbond>
2.1597

> <Gold.PLP.Chemscore.CHOScore>
0.0000

> <Gold.PLP.Chemscore.Metal>
0.0000

> <Gold.Chemscore.Hbonds>
donor molecule, donor type, donor heavy atom, donor atom, acceptor molecule, acceptor atom, score
      L1  H     4    17       P1  8028  2.00
      P1  H  6933  6945       L1    14  0.12
      P1  H  7989  7998       L1     3  0.03

> <Gold.PLP.Chemscore.Internal.Correction>
0.0187

> <Gold.Rescore>
     Score         DG    S(hbond)    S(metal)    S(lipo)     H(rot)  DE(clash)    DE(int)     intcor
     15.60     -17.82       1.05        0.00      97.41       1.00       1.56       0.66       ----

> <Gold.Chemscore.Fitness>
15.5991

> <Gold.Chemscore.DG>
-17.8198

> <Gold.Chemscore.ZeroCoef>
-5.4800

> <Gold.Chemscore.Hbond>
1.0488

> <Gold.Chemscore.Metal>
0.0000

> <Gold.Chemscore.Lipo>
97.4080

> <Gold.Chemscore.Internal_Hbond>
0.0000

> <Gold.Chemscore.DEClash>
1.5597

> <Gold.Chemscore.DEInternal>
0.6610

> <Gold.Chemscore.Rot>
1.0000

> <Gold.Chemscore.Internal.Correction>
   9.000000E+99

> <Gold.Chemscore.Hbonds>
donor molecule, donor type, donor heavy atom, donor atom, acceptor molecule, acceptor atom, score
      L1  H     4    17       P1  8028  0.95
      P1  H  6933  6945       L1    14  0.06

> <Gold.Chemscore.Hbond.Weighted>
-3.5030

> <Gold.Chemscore.Metal.Weighted>
-0.0000

> <Gold.Chemscore.Lipo.Weighted>
-11.3967

> <Gold.Chemscore.Internal_Hbond.Weighted>
0.0000

> <Gold.Chemscore.DEClash.Weighted>
1.5597

> <Gold.Chemscore.DEInternal.Weighted>
0.6610

> <Gold.Chemscore.Rot.Weighted>
2.5600

> <Gold.Chemscore.Internal.Correction.Weighted>
   9.000000E+99

> <Gold.Protein.RotatedTorsions>
[ 6907 6896 6895 6894 ] final   57.20 input  -60.11 | X-H torsion
[ 7974 7965 7964 7962 ] final -100.72 input  175.53 | X-H torsion
[ 8008 7997 7996 7995 ] final   91.06 input   59.86 | X-H torsion
[ 10167 10162 10161 10158 ] final   -5.48 input  -65.29 | X-H torsion
[ 10718 10713 10712 10709 ] final  -58.37 input   66.30 | X-H torsion
[ 10763 10752 10751 10750 ] final   -8.04 input  -60.55 | X-H torsion
[ 11005 11000 10999 10996 ] final   98.19 input  -57.11 | X-H torsion

> <Gold.Protein.ActiveResidues>
 VAL166  LYS551  ARG553  GLY616  TRP617  ASP618  TYR619  PRO620  LYS621  CYS622 
 ASP623  PHE694  ASN695  SER759  ASP760  ASP761  ALA762  ILE779  LEU786  VAL792 
 PHE793  MET794  SER795  GLU796  ALA797  LYS798  CYS799  TRP800  GLU811  SER814 

> <Gold.Protein.RotatedAtoms>
  152.3708  134.6736  160.0176 H   0  0  0  0  0  0  0  0  0  0  0  0  # atno 6907 bound_to 6896
  151.7029  133.3306  159.3279 H   0  0  0  0  0  0  0  0  0  0  0  0  # atno 6908 bound_to 6896
  150.7673  134.6535  159.6345 H   0  0  0  0  0  0  0  0  0  0  0  0  # atno 6909 bound_to 6896
  145.2908  140.9352  143.2878 H   0  0  0  0  0  0  0  0  0  0  0  0  # atno 7974 bound_to 7965
  156.0194  140.3342  155.7023 H   0  0  0  0  0  0  0  0  0  0  0  0  # atno 8008 bound_to 7997
  155.6044  140.0659  157.2741 H   0  0  0  0  0  0  0  0  0  0  0  0  # atno 8009 bound_to 7997
  154.4310  140.1804  156.1195 H   0  0  0  0  0  0  0  0  0  0  0  0  # atno 8010 bound_to 7997
  140.6964  143.6304  150.8528 H   0  0  0  0  0  0  0  0  0  0  0  0  # atno 10167 bound_to 10162
  156.1140  130.4172  150.0568 H   0  0  0  0  0  0  0  0  0  0  0  0  # atno 10718 bound_to 10713
  153.4349  135.7012  153.6207 H   0  0  0  0  0  0  0  0  0  0  0  0  # atno 10763 bound_to 10752
  153.4606  135.3737  155.2336 H   0  0  0  0  0  0  0  0  0  0  0  0  # atno 10764 bound_to 10752
  154.8726  135.4019  154.3738 H   0  0  0  0  0  0  0  0  0  0  0  0  # atno 10765 bound_to 10752
  139.8773  134.9037  156.4419 H   0  0  0  0  0  0  0  0  0  0  0  0  # atno 11005 bound_to 11000
  144.9174  139.4453  143.6557 LP  0  0  0  0  0  0  0  0  0  0  0  0  # atno 17320 bound_to 7965
  146.3185  139.8016  142.8964 LP  0  0  0  0  0  0  0  0  0  0  0  0  # atno 17321 bound_to 7965
  140.0022  143.5732  152.2871 LP  0  0  0  0  0  0  0  0  0  0  0  0  # atno 17342 bound_to 10162
  139.6425  144.7656  151.2309 LP  0  0  0  0  0  0  0  0  0  0  0  0  # atno 17343 bound_to 10162
  156.8524  130.9463  151.3624 LP  0  0  0  0  0  0  0  0  0  0  0  0  # atno 17370 bound_to 10713
  157.6323  130.8739  149.9296 LP  0  0  0  0  0  0  0  0  0  0  0  0  # atno 17371 bound_to 10713
  140.8993  133.7791  155.9662 LP  0  0  0  0  0  0  0  0  0  0  0  0  # atno 17394 bound_to 11000
  140.8668  134.2774  157.5209 LP  0  0  0  0  0  0  0  0  0  0  0  0  # atno 17395 bound_to 11000

$$$$
