AV-unprocessed.smi:2066|AV-procd|sdf|8420|dock3
  -GOLD-   2272011113D 1   1.00000     0.00000
 Structure written by MMmdl.
 40 41  0  0  0  0  0  0  0  0  2 V2000
  148.3283  139.5315  153.7670 C   0  0  0  0  0  0  0  0  0  0  0  0
  146.8492  139.5784  153.3105 C   0  0  0  0  0  0  0  0  0  0  0  0
  146.8342  139.6362  151.7597 C   0  0  0  0  0  0  0  0  0  0  0  0
  146.0915  138.2842  153.7413 C   0  0  0  0  0  0  0  0  0  0  0  0
  146.5049  137.0770  153.0249 N   0  0  0  0  0  0  0  0  0  0  0  0
  145.6790  136.1622  152.4961 C   0  0  0  0  0  0  0  0  0  0  0  0
  144.4519  136.2333  152.5697 O   0  0  0  0  0  0  0  0  0  0  0  0
  146.3665  135.1774  151.8923 N   0  0  0  0  0  0  0  0  0  0  0  0
  145.8564  134.0274  151.2350 C   0  0  0  0  0  0  0  0  0  0  0  0
  144.5784  133.8713  150.8705 N   0  0  0  0  0  0  0  0  0  0  0  0
  144.3586  132.6425  150.2429 C   0  0  0  0  0  0  0  0  0  0  0  0
  145.4881  131.8697  150.1381 C   0  0  0  0  0  0  0  0  0  0  0  0
  146.8811  132.6585  150.8291 S   0  0  0  0  0  0  0  0  0  0  0  0
  146.1356  140.7687  153.9069 N   0  3  0  0  0  0  0  0  0  0  0  0
  145.8728  140.6854  155.3732 C   0  0  0  0  0  0  0  0  0  0  0  0
  144.9749  141.8440  155.8326 C   0  0  0  0  0  0  0  0  0  0  0  0
  145.6094  143.0767  155.5268 O   0  0  0  0  0  0  0  0  0  0  0  0
  145.7988  143.2327  154.1283 C   0  0  0  0  0  0  0  0  0  0  0  0
  146.7017  142.1107  153.5847 C   0  0  0  0  0  0  0  0  0  0  0  0
  148.8857  138.7588  153.2371 H   0  0  0  0  0  0  0  0  0  0  0  0
  148.4222  139.3110  154.8305 H   0  0  0  0  0  0  0  0  0  0  0  0
  148.8410  140.4741  153.5755 H   0  0  0  0  0  0  0  0  0  0  0  0
  147.2604  138.7385  151.3118 H   0  0  0  0  0  0  0  0  0  0  0  0
  147.4314  140.4614  151.3717 H   0  0  0  0  0  0  0  0  0  0  0  0
  145.8194  139.7390  151.3734 H   0  0  0  0  0  0  0  0  0  0  0  0
  146.1820  138.0975  154.8103 H   0  0  0  0  0  0  0  0  0  0  0  0
  145.0238  138.4130  153.5604 H   0  0  0  0  0  0  0  0  0  0  0  0
  147.4984  136.9340  152.9153 H   0  0  0  0  0  0  0  0  0  0  0  0
  147.3726  135.2574  151.9049 H   0  0  0  0  0  0  0  0  0  0  0  0
  143.3639  132.3989  149.9006 H   0  0  0  0  0  0  0  0  0  0  0  0
  145.5844  130.8881  149.6985 H   0  0  0  0  0  0  0  0  0  0  0  0
  145.3886  139.7505  155.6457 H   0  0  0  0  0  0  0  0  0  0  0  0
  146.8116  140.7297  155.9268 H   0  0  0  0  0  0  0  0  0  0  0  0
  143.9926  141.7922  155.3599 H   0  0  0  0  0  0  0  0  0  0  0  0
  144.8144  141.7893  156.9095 H   0  0  0  0  0  0  0  0  0  0  0  0
  144.8342  143.2348  153.6184 H   0  0  0  0  0  0  0  0  0  0  0  0
  146.2561  144.2048  153.9422 H   0  0  0  0  0  0  0  0  0  0  0  0
  147.7047  142.2032  154.0029 H   0  0  0  0  0  0  0  0  0  0  0  0
  146.7808  142.2670  152.5102 H   0  0  0  0  0  0  0  0  0  0  0  0
  145.2258  140.7645  153.4684 H   0  0  0  0  0  0  0  0  0  0  0  0
  1  2  1  0  0  0  0
  1 20  1  0  0  0  0
  1 21  1  0  0  0  0
  1 22  1  0  0  0  0
  2  3  1  0  0  0  0
  2  4  1  0  0  0  0
  2 14  1  0  0  0  0
  3 23  1  0  0  0  0
  3 24  1  0  0  0  0
  3 25  1  0  0  0  0
  4  5  1  0  0  0  0
  4 26  1  0  0  0  0
  4 27  1  0  0  0  0
  5  6  1  0  0  0  0
  5 28  1  0  0  0  0
  6  7  2  0  0  0  0
  6  8  1  0  0  0  0
  8  9  1  0  0  0  0
  8 29  1  0  0  0  0
  9 13  1  0  0  0  0
  9 10  2  0  0  0  0
 10 11  1  0  0  0  0
 11 12  2  0  0  0  0
 11 30  1  0  0  0  0
 12 13  1  0  0  0  0
 12 31  1  0  0  0  0
 14 19  1  0  0  0  0
 14 15  1  0  0  0  0
 14 40  1  0  0  0  0
 15 16  1  0  0  0  0
 15 32  1  0  0  0  0
 15 33  1  0  0  0  0
 16 17  1  0  0  0  0
 16 34  1  0  0  0  0
 16 35  1  0  0  0  0
 17 18  1  0  0  0  0
 18 19  1  0  0  0  0
 18 36  1  0  0  0  0
 18 37  1  0  0  0  0
 19 38  1  0  0  0  0
 19 39  1  0  0  0  0
M  CHG  1  14   1
M  END
> <s_m_source_file>
AV-unprocessed.smi

> <i_m_source_file_index>
2066

> <i_lp_mmshare_version>
43012

> <i_f3d_flags>
0

> <s_epik_input>
W0NIMl0xW0NIMl1PW0NIMl1bQ0gyXU4xQyhbQ0gzXSkoW0NIM10pW0NIMl1bTkhdQyg9TylbTkhdYzJuW2NIXVtjSF1zMg==

> <s_epik_cmdline>
J2VwaWtfcHl0aG9uJywgJy1waCcsICc3LjAnLCAnLXRuJywgJzgnLCAnLW1hJywgJzIwMCcsICctbWV0YWxfYmluZGluZycsICctaW1hZScsICc8aW5maWxlLm1hZT4nLCAnLW9tYWUnLCAnPG91dGZpbGUubWFlPic=

> <r_lp_tautomer_probability>
0.999

> <r_epik_Ionization_Penalty>
0.695839

> <r_epik_Ionization_Penalty_Charging>
0.695697

> <r_epik_Ionization_Penalty_Neutral>
0.000141498

> <r_epik_State_Penalty>
0.717972

> <r_epik_Charging_Adjusted_Penalty>
1.41367

> <i_epik_Tot_Q>
1

> <i_epik_Tot_abs_Q>
1

> <r_epik_Metal_State_Penalty>
0.756569

> <b_epik_Metal_Only>
0

> <s_lp_Force_Field>
OPLS_2005

> <r_lp_Energy>
24.1099

> <b_lp_Chiralities_Consistent>
1

> <s_lp_Variant>
AV-unprocessed.smi:2066-2

> <Gold.Version>
5.8.1

> <Gold.Id.Protein>
6NUR|6NUR_protein|mol2

> <Gold.PLP.Fitness>
44.9976

> <Gold.PLP.PLP>
-30.6567

> <Gold.PLP.part.hbond>
-3.0000

> <Gold.PLP.part.metal>
0.0000

> <Gold.PLP.part.buried>
-1.4833

> <Gold.PLP.part.nonpolar>
-27.6723

> <Gold.PLP.part.repulsive>
0.6147

> <Gold.PLP.ligand.clash>
0.0000

> <Gold.PLP.ligand.torsion>
0.3071

> <Gold.PLP.Chemscore.Hbond>
4.0000

> <Gold.PLP.Chemscore.CHOScore>
0.9553

> <Gold.PLP.Chemscore.Metal>
0.0000

> <Gold.Chemscore.Hbonds>
donor molecule, donor type, donor heavy atom, donor atom, acceptor molecule, acceptor atom, score
      L1  H     5    28       P1  7948  0.96
      L1  H     8    29       P1  7948  1.00
      L1  H    14    40       P1 10175  2.00

> <Gold.PLP.Chemscore.Internal.Correction>
0.0893

> <Gold.Rescore>
     Score         DG    S(hbond)    S(metal)    S(lipo)     H(rot)  DE(clash)    DE(int)     intcor
     18.11     -19.18       2.84        0.00      71.46       1.62       0.26       0.81       ----

> <Gold.Chemscore.Fitness>
18.1065

> <Gold.Chemscore.DG>
-19.1757

> <Gold.Chemscore.ZeroCoef>
-5.4800

> <Gold.Chemscore.Hbond>
2.8418

> <Gold.Chemscore.Metal>
0.0000

> <Gold.Chemscore.Lipo>
71.4619

> <Gold.Chemscore.Internal_Hbond>
0.0000

> <Gold.Chemscore.DEClash>
0.2606

> <Gold.Chemscore.DEInternal>
0.8086

> <Gold.Chemscore.Rot>
1.6238

> <Gold.Chemscore.Internal.Correction>
   9.000000E+99

> <Gold.Chemscore.Hbonds>
donor molecule, donor type, donor heavy atom, donor atom, acceptor molecule, acceptor atom, score
      L1  H     5    28       P1  7948  0.92
      L1  H     8    29       P1  7948  0.95
      L1  H    14    40       P1 10175  0.88

> <Gold.Chemscore.Hbond.Weighted>
-9.4916

> <Gold.Chemscore.Metal.Weighted>
-0.0000

> <Gold.Chemscore.Lipo.Weighted>
-8.3610

> <Gold.Chemscore.Internal_Hbond.Weighted>
0.0000

> <Gold.Chemscore.DEClash.Weighted>
0.2606

> <Gold.Chemscore.DEInternal.Weighted>
0.8086

> <Gold.Chemscore.Rot.Weighted>
4.1570

> <Gold.Chemscore.Internal.Correction.Weighted>
   9.000000E+99

> <Gold.Protein.RotatedTorsions>
[ 6907 6896 6895 6894 ] final -164.36 input  -60.11 | X-H torsion
[ 7974 7965 7964 7962 ] final   83.90 input  175.53 | X-H torsion
[ 8008 7997 7996 7995 ] final  100.93 input   59.86 | X-H torsion
[ 10167 10162 10161 10158 ] final   28.90 input  -65.29 | X-H torsion
[ 10718 10713 10712 10709 ] final  104.51 input   66.30 | X-H torsion
[ 10763 10752 10751 10750 ] final  122.04 input  -60.55 | X-H torsion
[ 11005 11000 10999 10996 ] final  110.14 input  -57.11 | X-H torsion

> <Gold.Protein.ActiveResidues>
 VAL166  LYS551  ARG553  GLY616  TRP617  ASP618  TYR619  PRO620  LYS621  CYS622 
 ASP623  PHE694  ASN695  SER759  ASP760  ASP761  ALA762  ILE779  LEU786  VAL792 
 PHE793  MET794  SER795  GLU796  ALA797  LYS798  CYS799  TRP800  GLU811  SER814 

> <Gold.Protein.RotatedAtoms>
  151.4106  133.3728  159.2743 H   0  0  0  0  0  0  0  0  0  0  0  0  # atno 6907 bound_to 6896
  150.9366  134.8779  159.7596 H   0  0  0  0  0  0  0  0  0  0  0  0  # atno 6908 bound_to 6896
  152.5052  134.4054  159.9483 H   0  0  0  0  0  0  0  0  0  0  0  0  # atno 6909 bound_to 6896
  145.6059  139.2360  143.2219 H   0  0  0  0  0  0  0  0  0  0  0  0  # atno 7974 bound_to 7965
  156.1251  140.3205  155.8265 H   0  0  0  0  0  0  0  0  0  0  0  0  # atno 8008 bound_to 7997
  155.4434  140.0527  157.3025 H   0  0  0  0  0  0  0  0  0  0  0  0  # atno 8009 bound_to 7997
  154.4856  140.2071  155.9676 H   0  0  0  0  0  0  0  0  0  0  0  0  # atno 8010 bound_to 7997
  140.4813  144.0612  150.6266 H   0  0  0  0  0  0  0  0  0  0  0  0  # atno 10167 bound_to 10162
  157.6738  131.0805  150.5716 H   0  0  0  0  0  0  0  0  0  0  0  0  # atno 10718 bound_to 10713
  153.6235  135.3409  155.3018 H   0  0  0  0  0  0  0  0  0  0  0  0  # atno 10763 bound_to 10752
  154.8595  135.4278  154.2182 H   0  0  0  0  0  0  0  0  0  0  0  0  # atno 10764 bound_to 10752
  153.3060  135.7028  153.7232 H   0  0  0  0  0  0  0  0  0  0  0  0  # atno 10765 bound_to 10752
  139.8876  134.9476  156.6233 H   0  0  0  0  0  0  0  0  0  0  0  0  # atno 11005 bound_to 11000
  146.1541  140.6883  142.9308 LP  0  0  0  0  0  0  0  0  0  0  0  0  # atno 17320 bound_to 7965
  144.7290  140.4614  143.6952 LP  0  0  0  0  0  0  0  0  0  0  0  0  # atno 17321 bound_to 7965
  140.3855  143.2780  152.0121 LP  0  0  0  0  0  0  0  0  0  0  0  0  # atno 17342 bound_to 10162
  139.4834  144.6120  151.7415 LP  0  0  0  0  0  0  0  0  0  0  0  0  # atno 17343 bound_to 10162
  156.6018  130.4356  149.5894 LP  0  0  0  0  0  0  0  0  0  0  0  0  # atno 17370 bound_to 10713
  156.2500  130.6902  151.1636 LP  0  0  0  0  0  0  0  0  0  0  0  0  # atno 17371 bound_to 10713
  140.7723  133.8728  155.8501 LP  0  0  0  0  0  0  0  0  0  0  0  0  # atno 17394 bound_to 11000
  140.9832  134.1378  157.4476 LP  0  0  0  0  0  0  0  0  0  0  0  0  # atno 17395 bound_to 11000

$$$$
