AV-unprocessed.smi:1264|AV-procd|sdf|5313|dock7
  -GOLD-   22720 4433D 1   1.00000     0.00000
 Structure written by MMmdl.
 43 43  0  0  0  0  0  0  0  0  1 V2000
  150.8015  138.1965  157.2606 C   0  0  0  0  0  0  0  0  0  0  0  0
  150.4968  139.6140  157.1417 N   0  0  0  0  0  0  0  0  0  0  0  0
  151.2379  140.4881  156.4461 C   0  0  0  0  0  0  0  0  0  0  0  0
  152.2547  140.1650  155.8289 O   0  0  0  0  0  0  0  0  0  0  0  0
  150.7392  141.9433  156.4311 C   0  0  2  0  0  0  0  0  0  0  0  0
  150.8050  142.4788  157.8815 C   0  0  0  0  0  0  0  0  0  0  0  0
  152.1920  142.9904  158.3339 C   0  0  0  0  0  0  0  0  0  0  0  0
  152.4686  142.7096  159.8206 C   0  0  0  0  0  0  0  0  0  0  0  0
  152.3348  144.4912  158.0374 C   0  0  0  0  0  0  0  0  0  0  0  0
  149.3498  141.9816  155.9772 N   0  0  0  0  0  0  0  0  0  0  0  0
  148.9110  141.5521  154.7840 C   0  0  0  0  0  0  0  0  0  0  0  0
  149.6517  141.1094  153.9061 O   0  0  0  0  0  0  0  0  0  0  0  0
  147.4023  141.6158  154.5520 C   0  0  0  0  0  0  0  0  0  0  0  0
  146.8044  140.2520  154.7834 C   0  0  0  0  0  0  0  0  0  0  0  0
  146.5503  139.2227  153.8302 C   0  0  0  0  0  0  0  0  0  0  0  0
  146.8062  139.2214  152.3503 C   0  0  0  0  0  0  0  0  0  0  0  0
  146.0105  138.1538  154.3911 N   0  0  0  0  0  0  0  0  0  0  0  0
  145.8888  138.4535  155.7511 O   0  0  0  0  0  0  0  0  0  0  0  0
  146.3639  139.7075  155.9581 C   0  0  0  0  0  0  0  0  0  0  0  0
  146.3128  140.2198  157.3575 C   0  0  0  0  0  0  0  0  0  0  0  0
  150.0699  137.7121  157.9070 H   0  0  0  0  0  0  0  0  0  0  0  0
  151.7913  138.0461  157.6933 H   0  0  0  0  0  0  0  0  0  0  0  0
  150.7704  137.7105  156.2847 H   0  0  0  0  0  0  0  0  0  0  0  0
  149.6748  139.9533  157.6201 H   0  0  0  0  0  0  0  0  0  0  0  0
  151.3748  142.5393  155.7741 H   0  0  0  0  0  0  0  0  0  0  0  0
  150.0821  143.2889  157.9951 H   0  0  0  0  0  0  0  0  0  0  0  0
  150.4824  141.6968  158.5713 H   0  0  0  0  0  0  0  0  0  0  0  0
  152.9596  142.4798  157.7516 H   0  0  0  0  0  0  0  0  0  0  0  0
  151.7043  143.1552  160.4578 H   0  0  0  0  0  0  0  0  0  0  0  0
  153.4327  143.1193  160.1231 H   0  0  0  0  0  0  0  0  0  0  0  0
  152.4984  141.6403  160.0295 H   0  0  0  0  0  0  0  0  0  0  0  0
  151.6001  145.0766  158.5914 H   0  0  0  0  0  0  0  0  0  0  0  0
  152.1941  144.6986  156.9763 H   0  0  0  0  0  0  0  0  0  0  0  0
  153.3254  144.8548  158.3124 H   0  0  0  0  0  0  0  0  0  0  0  0
  148.6670  142.3217  156.6385 H   0  0  0  0  0  0  0  0  0  0  0  0
  146.9561  142.3644  155.2078 H   0  0  0  0  0  0  0  0  0  0  0  0
  147.2208  141.9629  153.5341 H   0  0  0  0  0  0  0  0  0  0  0  0
  147.4342  140.0604  152.0518 H   0  0  0  0  0  0  0  0  0  0  0  0
  145.8721  139.2936  151.7929 H   0  0  0  0  0  0  0  0  0  0  0  0
  147.3100  138.3061  152.0381 H   0  0  0  0  0  0  0  0  0  0  0  0
  146.1363  141.2956  157.3712 H   0  0  0  0  0  0  0  0  0  0  0  0
  147.2530  140.0241  157.8733 H   0  0  0  0  0  0  0  0  0  0  0  0
  145.5108  139.7414  157.9201 H   0  0  0  0  0  0  0  0  0  0  0  0
  1  2  1  0  0  0  0
  1 21  1  0  0  0  0
  1 22  1  0  0  0  0
  1 23  1  0  0  0  0
  2  3  1  0  0  0  0
  2 24  1  0  0  0  0
  3  4  2  0  0  0  0
  3  5  1  0  0  0  0
  5  6  1  0  0  0  0
  5 10  1  0  0  0  0
  5 25  1  0  0  0  0
  6  7  1  0  0  0  0
  6 26  1  0  0  0  0
  6 27  1  0  0  0  0
  7  8  1  0  0  0  0
  7  9  1  0  0  0  0
  7 28  1  0  0  0  0
  8 29  1  0  0  0  0
  8 30  1  0  0  0  0
  8 31  1  0  0  0  0
  9 32  1  0  0  0  0
  9 33  1  0  0  0  0
  9 34  1  0  0  0  0
 10 11  1  0  0  0  0
 10 35  1  0  0  0  0
 11 12  2  0  0  0  0
 11 13  1  0  0  0  0
 13 14  1  0  0  0  0
 13 36  1  0  0  0  0
 13 37  1  0  0  0  0
 14 19  2  0  0  0  0
 14 15  1  0  0  0  0
 15 16  1  0  0  0  0
 15 17  2  0  0  0  0
 16 38  1  0  0  0  0
 16 39  1  0  0  0  0
 16 40  1  0  0  0  0
 17 18  1  0  0  0  0
 18 19  1  0  0  0  0
 19 20  1  0  0  0  0
 20 41  1  0  0  0  0
 20 42  1  0  0  0  0
 20 43  1  0  0  0  0
M  END
> <s_m_source_file>
AV-unprocessed.smi

> <i_m_source_file_index>
1264

> <i_lp_mmshare_version>
43012

> <i_f3d_flags>
0

> <s_epik_input>
W0NIM11bTkhdQyg9TylbQ0BIXShbQ0gyXVtDSF0oW0NIM10pW0NIM10pW05IXUMoPU8pW0NIMl1jMWMoW0NIM10pbm9jMVtDSDNd

> <s_epik_cmdline>
J2VwaWtfcHl0aG9uJywgJy1waCcsICc3LjAnLCAnLXRuJywgJzgnLCAnLW1hJywgJzIwMCcsICctbWV0YWxfYmluZGluZycsICctaW1hZScsICc8aW5maWxlLm1hZT4nLCAnLW9tYWUnLCAnPG91dGZpbGUubWFlPic=

> <r_lp_tautomer_probability>
1

> <r_epik_Ionization_Penalty>
6.00781e-08

> <r_epik_Ionization_Penalty_Charging>
0

> <r_epik_Ionization_Penalty_Neutral>
6.00781e-08

> <r_epik_State_Penalty>
-0

> <r_epik_Charging_Adjusted_Penalty>
0

> <i_epik_Tot_Q>
0

> <i_epik_Tot_abs_Q>
0

> <r_epik_Metal_State_Penalty>
-0

> <b_epik_Metal_Only>
0

> <s_lp_Force_Field>
OPLS_2005

> <r_lp_Energy>
-0.565017

> <b_lp_Chiralities_Consistent>
1

> <s_lp_Variant>
AV-unprocessed.smi:1264-1

> <Gold.Version>
5.8.1

> <Gold.Id.Protein>
6NUR|6NUR_protein|mol2

> <Gold.PLP.Fitness>
36.0149

> <Gold.PLP.PLP>
-32.5572

> <Gold.PLP.part.hbond>
-4.2076

> <Gold.PLP.part.metal>
0.0000

> <Gold.PLP.part.buried>
-1.8251

> <Gold.PLP.part.nonpolar>
-28.0764

> <Gold.PLP.part.repulsive>
1.6186

> <Gold.PLP.ligand.clash>
0.0000

> <Gold.PLP.ligand.torsion>
1.3452

> <Gold.PLP.Chemscore.Hbond>
2.0209

> <Gold.PLP.Chemscore.CHOScore>
0.0000

> <Gold.PLP.Chemscore.Metal>
0.0000

> <Gold.Chemscore.Hbonds>
donor molecule, donor type, donor heavy atom, donor atom, acceptor molecule, acceptor atom, score
      P1  H  7989  7998       L1    12  0.37
      P1  H  7997  8009       L1     4  0.76
      P1  H  8011  8017       L1    12  0.83

> <Gold.PLP.Chemscore.Internal.Correction>
0.0853

> <Gold.Rescore>
     Score         DG    S(hbond)    S(metal)    S(lipo)     H(rot)  DE(clash)    DE(int)     intcor
     12.87     -15.49       1.87        0.00      77.98       2.09       0.67       1.95       ----

> <Gold.Chemscore.Fitness>
12.8655

> <Gold.Chemscore.DG>
-15.4945

> <Gold.Chemscore.ZeroCoef>
-5.4800

> <Gold.Chemscore.Hbond>
1.8710

> <Gold.Chemscore.Metal>
0.0000

> <Gold.Chemscore.Lipo>
77.9795

> <Gold.Chemscore.Internal_Hbond>
0.0000

> <Gold.Chemscore.DEClash>
0.6744

> <Gold.Chemscore.DEInternal>
1.9546

> <Gold.Chemscore.Rot>
2.0931

> <Gold.Chemscore.Internal.Correction>
   9.000000E+99

> <Gold.Chemscore.Hbonds>
donor molecule, donor type, donor heavy atom, donor atom, acceptor molecule, acceptor atom, score
      P1  H  7989  7998       L1    12  0.35
      P1  H  7997  8009       L1     4  0.76
      P1  H  8011  8017       L1    12  0.61

> <Gold.Chemscore.Hbond.Weighted>
-6.2493

> <Gold.Chemscore.Metal.Weighted>
-0.0000

> <Gold.Chemscore.Lipo.Weighted>
-9.1236

> <Gold.Chemscore.Internal_Hbond.Weighted>
0.0000

> <Gold.Chemscore.DEClash.Weighted>
0.6744

> <Gold.Chemscore.DEInternal.Weighted>
1.9546

> <Gold.Chemscore.Rot.Weighted>
5.3584

> <Gold.Chemscore.Internal.Correction.Weighted>
   9.000000E+99

> <Gold.Protein.RotatedTorsions>
[ 6907 6896 6895 6894 ] final   -8.88 input  -60.11 | X-H torsion
[ 7974 7965 7964 7962 ] final   96.46 input  175.53 | X-H torsion
[ 8008 7997 7996 7995 ] final -158.34 input   59.86 | X-H torsion
[ 10167 10162 10161 10158 ] final  -14.44 input  -65.29 | X-H torsion
[ 10718 10713 10712 10709 ] final    9.83 input   66.30 | X-H torsion
[ 10763 10752 10751 10750 ] final   54.07 input  -60.55 | X-H torsion
[ 11005 11000 10999 10996 ] final -179.88 input  -57.11 | X-H torsion

> <Gold.Protein.ActiveResidues>
 VAL166  LYS551  ARG553  GLY616  TRP617  ASP618  TYR619  PRO620  LYS621  CYS622 
 ASP623  PHE694  ASN695  SER759  ASP760  ASP761  ALA762  ILE779  LEU786  VAL792 
 PHE793  MET794  SER795  GLU796  ALA797  LYS798  CYS799  TRP800  GLU811  SER814 

> <Gold.Protein.RotatedAtoms>
  151.4266  135.1004  159.9629 H   0  0  0  0  0  0  0  0  0  0  0  0  # atno 6907 bound_to 6896
  152.4970  133.8657  159.7283 H   0  0  0  0  0  0  0  0  0  0  0  0  # atno 6908 bound_to 6896
  150.9185  133.6851  159.2865 H   0  0  0  0  0  0  0  0  0  0  0  0  # atno 6909 bound_to 6896
  145.4385  139.2303  143.3105 H   0  0  0  0  0  0  0  0  0  0  0  0  # atno 7974 bound_to 7965
  155.7460  140.0820  157.2223 H   0  0  0  0  0  0  0  0  0  0  0  0  # atno 8008 bound_to 7997
  154.4017  140.1569  156.2726 H   0  0  0  0  0  0  0  0  0  0  0  0  # atno 8009 bound_to 7997
  155.8975  140.3411  155.6004 H   0  0  0  0  0  0  0  0  0  0  0  0  # atno 8010 bound_to 7997
  140.7201  143.5321  150.9508 H   0  0  0  0  0  0  0  0  0  0  0  0  # atno 10167 bound_to 10162
  156.9721  130.5973  149.5669 H   0  0  0  0  0  0  0  0  0  0  0  0  # atno 10718 bound_to 10713
  152.9801  135.5757  154.4845 H   0  0  0  0  0  0  0  0  0  0  0  0  # atno 10763 bound_to 10752
  154.4388  135.2775  155.1864 H   0  0  0  0  0  0  0  0  0  0  0  0  # atno 10764 bound_to 10752
  154.3540  135.6203  153.5711 H   0  0  0  0  0  0  0  0  0  0  0  0  # atno 10765 bound_to 10752
  140.4137  134.6668  157.4628 H   0  0  0  0  0  0  0  0  0  0  0  0  # atno 11005 bound_to 11000
  146.2569  140.5131  142.8870 LP  0  0  0  0  0  0  0  0  0  0  0  0  # atno 17320 bound_to 7965
  144.8136  140.6430  143.6399 LP  0  0  0  0  0  0  0  0  0  0  0  0  # atno 17321 bound_to 7965
  139.9042  143.6799  152.3126 LP  0  0  0  0  0  0  0  0  0  0  0  0  # atno 17342 bound_to 10162
  139.7159  144.7612  151.1034 LP  0  0  0  0  0  0  0  0  0  0  0  0  # atno 17343 bound_to 10162
  156.0278  130.5371  150.8454 LP  0  0  0  0  0  0  0  0  0  0  0  0  # atno 17370 bound_to 10713
  157.5585  131.0945  150.9593 LP  0  0  0  0  0  0  0  0  0  0  0  0  # atno 17371 bound_to 10713
  140.0249  134.6492  155.9187 LP  0  0  0  0  0  0  0  0  0  0  0  0  # atno 17394 bound_to 11000
  141.1811  133.6547  156.5024 LP  0  0  0  0  0  0  0  0  0  0  0  0  # atno 17395 bound_to 11000

$$$$
