AV-unprocessed.smi:2305|AV-procd|sdf|9246|dock4
  -GOLD-   2272012463D 1   1.00000     0.00000
 Structure written by MMmdl.
 40 41  0  0  0  0  0  0  0  0  1 V2000
  152.4069  143.6580  161.3053 C   0  0  0  0  0  0  0  0  0  0  0  0
  152.0261  143.1061  159.9428 C   0  0  0  0  0  0  0  0  0  0  0  0
  151.0209  143.8046  159.2680 N   0  0  0  0  0  0  0  0  0  0  0  0
  150.6324  143.4082  158.1002 C   0  0  0  0  0  0  0  0  0  0  0  0
  151.1906  142.2775  157.4816 N   0  0  0  0  0  0  0  0  0  0  0  0
  150.6594  141.9312  156.1524 C   0  0  0  0  0  0  0  0  0  0  0  0
  149.8632  140.6070  156.1709 C   0  0  2  0  0  0  0  0  0  0  0  0
  150.7822  139.5332  156.1229 O   0  0  0  0  0  0  0  0  0  0  0  0
  148.9302  140.4823  154.9511 C   0  0  0  0  0  0  0  0  0  0  0  0
  147.6380  141.2620  155.1187 C   0  0  0  0  0  0  0  0  0  0  0  0
  147.0067  141.3211  156.3778 C   0  0  0  0  0  0  0  0  0  0  0  0
  145.8064  142.0406  156.5351 C   0  0  0  0  0  0  0  0  0  0  0  0
  145.2262  142.7106  155.4366 C   0  0  0  0  0  0  0  0  0  0  0  0
  143.9244  143.4775  155.6170 C   0  0  0  0  0  0  0  0  0  0  0  0
  143.6574  144.2405  154.5564 F   0  0  0  0  0  0  0  0  0  0  0  0
  142.9247  142.6127  155.7846 F   0  0  0  0  0  0  0  0  0  0  0  0
  143.9955  144.2654  156.6903 F   0  0  0  0  0  0  0  0  0  0  0  0
  145.8582  142.6447  154.1752 C   0  0  0  0  0  0  0  0  0  0  0  0
  147.0594  141.9262  154.0177 C   0  0  0  0  0  0  0  0  0  0  0  0
  152.1807  141.5433  158.0670 C   0  0  0  0  0  0  0  0  0  0  0  0
  152.6735  140.5610  157.5083 O   0  0  0  0  0  0  0  0  0  0  0  0
  152.6140  142.0077  159.3947 C   0  0  0  0  0  0  0  0  0  0  0  0
  153.7167  141.2104  160.0801 C   0  0  0  0  0  0  0  0  0  0  0  0
  152.2527  142.9061  162.0796 H   0  0  0  0  0  0  0  0  0  0  0  0
  151.8051  144.5306  161.5629 H   0  0  0  0  0  0  0  0  0  0  0  0
  153.4544  143.9603  161.3153 H   0  0  0  0  0  0  0  0  0  0  0  0
  149.8583  143.9231  157.5286 H   0  0  0  0  0  0  0  0  0  0  0  0
  150.0087  142.7451  155.8277 H   0  0  0  0  0  0  0  0  0  0  0  0
  151.4410  141.8970  155.3901 H   0  0  0  0  0  0  0  0  0  0  0  0
  149.2704  140.5393  157.0841 H   0  0  0  0  0  0  0  0  0  0  0  0
  150.3281  138.7405  156.3659 H   0  0  0  0  0  0  0  0  0  0  0  0
  149.4301  140.8769  154.0656 H   0  0  0  0  0  0  0  0  0  0  0  0
  148.7144  139.4354  154.7315 H   0  0  0  0  0  0  0  0  0  0  0  0
  147.4404  140.8119  157.2263 H   0  0  0  0  0  0  0  0  0  0  0  0
  145.3296  142.0752  157.5036 H   0  0  0  0  0  0  0  0  0  0  0  0
  145.4255  143.1423  153.3201 H   0  0  0  0  0  0  0  0  0  0  0  0
  147.5332  141.8840  153.0477 H   0  0  0  0  0  0  0  0  0  0  0  0
  154.6145  141.2019  159.4609 H   0  0  0  0  0  0  0  0  0  0  0  0
  153.3981  140.1780  160.2278 H   0  0  0  0  0  0  0  0  0  0  0  0
  153.9951  141.6110  161.0534 H   0  0  0  0  0  0  0  0  0  0  0  0
  1  2  1  0  0  0  0
  1 24  1  0  0  0  0
  1 25  1  0  0  0  0
  1 26  1  0  0  0  0
  2 22  2  0  0  0  0
  2  3  1  0  0  0  0
  3  4  2  0  0  0  0
  4  5  1  0  0  0  0
  4 27  1  0  0  0  0
  5  6  1  0  0  0  0
  5 20  1  0  0  0  0
  6  7  1  0  0  0  0
  6 28  1  0  0  0  0
  6 29  1  0  0  0  0
  7  8  1  0  0  0  0
  7  9  1  0  0  0  0
  7 30  1  0  0  0  0
  8 31  1  0  0  0  0
  9 10  1  0  0  0  0
  9 32  1  0  0  0  0
  9 33  1  0  0  0  0
 10 19  1  0  0  0  0
 10 11  2  0  0  0  0
 11 12  1  0  0  0  0
 11 34  1  0  0  0  0
 12 13  2  0  0  0  0
 12 35  1  0  0  0  0
 13 14  1  0  0  0  0
 13 18  1  0  0  0  0
 14 15  1  0  0  0  0
 14 16  1  0  0  0  0
 14 17  1  0  0  0  0
 18 19  2  0  0  0  0
 18 36  1  0  0  0  0
 19 37  1  0  0  0  0
 20 21  2  0  0  0  0
 20 22  1  0  0  0  0
 22 23  1  0  0  0  0
 23 38  1  0  0  0  0
 23 39  1  0  0  0  0
 23 40  1  0  0  0  0
M  END
> <s_m_source_file>
AV-unprocessed.smi

> <i_m_source_file_index>
2305

> <i_lp_mmshare_version>
43012

> <i_f3d_flags>
0

> <s_epik_input>
W0NIM11jMW5bY0hdbihjKD1PKWMxW0NIM10pW0NIMl1bQ0BIXShbT0hdKVtDSDJdYzJbY0hdW2NIXWMoQyhGKShGKUYpW2NIXVtjSF0y

> <s_epik_cmdline>
J2VwaWtfcHl0aG9uJywgJy1waCcsICc3LjAnLCAnLXRuJywgJzgnLCAnLW1hJywgJzIwMCcsICctbWV0YWxfYmluZGluZycsICctaW1hZScsICc8aW5maWxlLm1hZT4nLCAnLW9tYWUnLCAnPG91dGZpbGUubWFlPic=

> <r_lp_tautomer_probability>
1

> <r_epik_Ionization_Penalty>
8.92636e-05

> <r_epik_Ionization_Penalty_Charging>
8.63033e-08

> <r_epik_Ionization_Penalty_Neutral>
8.91773e-05

> <r_epik_State_Penalty>
-0

> <r_epik_Charging_Adjusted_Penalty>
8.63033e-08

> <i_epik_Tot_Q>
0

> <i_epik_Tot_abs_Q>
0

> <r_epik_Metal_State_Penalty>
-0

> <b_epik_Metal_Only>
0

> <s_lp_Force_Field>
OPLS_2005

> <r_lp_Energy>
20.2426

> <b_lp_Chiralities_Consistent>
1

> <s_lp_Variant>
AV-unprocessed.smi:2305-1

> <Gold.Version>
5.8.1

> <Gold.Id.Protein>
6NUR|6NUR_protein|mol2

> <Gold.PLP.Fitness>
50.4299

> <Gold.PLP.PLP>
-46.4136

> <Gold.PLP.part.hbond>
-1.0000

> <Gold.PLP.part.metal>
0.0000

> <Gold.PLP.part.buried>
-7.8433

> <Gold.PLP.part.nonpolar>
-37.8001

> <Gold.PLP.part.repulsive>
0.0616

> <Gold.PLP.ligand.clash>
0.1788

> <Gold.PLP.ligand.torsion>
1.1416

> <Gold.PLP.Chemscore.Hbond>
0.9199

> <Gold.PLP.Chemscore.CHOScore>
1.0000

> <Gold.PLP.Chemscore.Metal>
0.0000

> <Gold.Chemscore.Hbonds>
donor molecule, donor type, donor heavy atom, donor atom, acceptor molecule, acceptor atom, score
      P1  H  7997  8010       L1    21  0.80
      L1  C     4    27       P1  8028  1.00

> <Gold.PLP.Chemscore.Internal.Correction>
0.7187

> <Gold.Rescore>
     Score         DG    S(hbond)    S(metal)    S(lipo)     H(rot)  DE(clash)    DE(int)     intcor
     10.81     -13.61       0.88        0.00      96.29       2.37       0.21       2.59       ----

> <Gold.Chemscore.Fitness>
10.8110

> <Gold.Chemscore.DG>
-13.6114

> <Gold.Chemscore.ZeroCoef>
-5.4800

> <Gold.Chemscore.Hbond>
0.8765

> <Gold.Chemscore.Metal>
0.0000

> <Gold.Chemscore.Lipo>
96.2934

> <Gold.Chemscore.Internal_Hbond>
0.0000

> <Gold.Chemscore.DEClash>
0.2123

> <Gold.Chemscore.DEInternal>
2.5882

> <Gold.Chemscore.Rot>
2.3681

> <Gold.Chemscore.Internal.Correction>
   9.000000E+99

> <Gold.Chemscore.Hbonds>
donor molecule, donor type, donor heavy atom, donor atom, acceptor molecule, acceptor atom, score
      P1  H  7997  8010       L1    21  0.78

> <Gold.Chemscore.Hbond.Weighted>
-2.9275

> <Gold.Chemscore.Metal.Weighted>
-0.0000

> <Gold.Chemscore.Lipo.Weighted>
-11.2663

> <Gold.Chemscore.Internal_Hbond.Weighted>
0.0000

> <Gold.Chemscore.DEClash.Weighted>
0.2123

> <Gold.Chemscore.DEInternal.Weighted>
2.5882

> <Gold.Chemscore.Rot.Weighted>
6.0624

> <Gold.Chemscore.Internal.Correction.Weighted>
   9.000000E+99

> <Gold.Protein.RotatedTorsions>
[ 6907 6896 6895 6894 ] final  -23.65 input  -60.11 | X-H torsion
[ 7974 7965 7964 7962 ] final   11.48 input  175.53 | X-H torsion
[ 8008 7997 7996 7995 ] final   50.25 input   59.86 | X-H torsion
[ 10167 10162 10161 10158 ] final  115.19 input  -65.29 | X-H torsion
[ 10718 10713 10712 10709 ] final  169.53 input   66.30 | X-H torsion
[ 10763 10752 10751 10750 ] final  -68.81 input  -60.55 | X-H torsion
[ 11005 11000 10999 10996 ] final -163.77 input  -57.11 | X-H torsion

> <Gold.Protein.ActiveResidues>
 VAL166  LYS551  ARG553  GLY616  TRP617  ASP618  TYR619  PRO620  LYS621  CYS622 
 ASP623  PHE694  ASN695  SER759  ASP760  ASP761  ALA762  ILE779  LEU786  VAL792 
 PHE793  MET794  SER795  GLU796  ALA797  LYS798  CYS799  TRP800  GLU811  SER814 

> <Gold.Protein.RotatedAtoms>
  151.2009  135.0442  159.8871 H   0  0  0  0  0  0  0  0  0  0  0  0  # atno 6907 bound_to 6896
  152.5432  134.0851  159.8262 H   0  0  0  0  0  0  0  0  0  0  0  0  # atno 6908 bound_to 6896
  151.0991  133.5209  159.2643 H   0  0  0  0  0  0  0  0  0  0  0  0  # atno 6909 bound_to 6896
  146.2370  139.9479  142.8474 H   0  0  0  0  0  0  0  0  0  0  0  0  # atno 7974 bound_to 7965
  155.4156  140.3444  155.4267 H   0  0  0  0  0  0  0  0  0  0  0  0  # atno 8008 bound_to 7997
  156.1423  140.1546  156.8933 H   0  0  0  0  0  0  0  0  0  0  0  0  # atno 8009 bound_to 7997
  154.4981  140.0822  156.7721 H   0  0  0  0  0  0  0  0  0  0  0  0  # atno 8010 bound_to 7997
  139.6335  144.7117  151.2383 H   0  0  0  0  0  0  0  0  0  0  0  0  # atno 10167 bound_to 10162
  157.0213  131.0232  151.2774 H   0  0  0  0  0  0  0  0  0  0  0  0  # atno 10718 bound_to 10713
  154.3944  135.6045  153.5861 H   0  0  0  0  0  0  0  0  0  0  0  0  # atno 10763 bound_to 10752
  152.9787  135.5891  154.4259 H   0  0  0  0  0  0  0  0  0  0  0  0  # atno 10764 bound_to 10752
  154.4048  135.2843  155.2052 H   0  0  0  0  0  0  0  0  0  0  0  0  # atno 10765 bound_to 10752
  140.5944  134.5012  157.5197 H   0  0  0  0  0  0  0  0  0  0  0  0  # atno 11005 bound_to 11000
  145.1890  140.9803  143.4222 LP  0  0  0  0  0  0  0  0  0  0  0  0  # atno 17320 bound_to 7965
  144.9874  139.3723  143.6232 LP  0  0  0  0  0  0  0  0  0  0  0  0  # atno 17321 bound_to 7965
  140.7452  143.6438  150.8311 LP  0  0  0  0  0  0  0  0  0  0  0  0  # atno 17342 bound_to 10162
  140.0066  143.5687  152.2855 LP  0  0  0  0  0  0  0  0  0  0  0  0  # atno 17343 bound_to 10162
  157.5248  130.8020  149.7849 LP  0  0  0  0  0  0  0  0  0  0  0  0  # atno 17370 bound_to 10713
  156.0101  130.3837  150.2293 LP  0  0  0  0  0  0  0  0  0  0  0  0  # atno 17371 bound_to 10713
  139.9260  134.8056  156.1068 LP  0  0  0  0  0  0  0  0  0  0  0  0  # atno 17394 bound_to 11000
  141.0914  133.6713  156.2548 LP  0  0  0  0  0  0  0  0  0  0  0  0  # atno 17395 bound_to 11000

$$$$
