AV-unprocessed.smi:2798|AV-procd|sdf|10785|dock2
  -GOLD-   2272015223D 1   1.00000     0.00000
 Structure written by MMmdl.
 29 31  0  0  0  0  0  0  0  0  1 V2000
  151.7689  137.3169  154.2966 N   0  0  0  0  0  0  0  0  0  0  0  0
  151.5368  138.2876  154.8825 C   0  0  0  0  0  0  0  0  0  0  0  0
  151.2457  139.5061  155.6187 C   0  0  0  0  0  0  0  0  0  0  0  0
  151.8016  139.6937  156.9015 C   0  0  0  0  0  0  0  0  0  0  0  0
  151.5066  140.8806  157.5994 C   0  0  0  0  0  0  0  0  0  0  0  0
  150.6652  141.8426  156.9935 C   0  0  0  0  0  0  0  0  0  0  0  0
  150.3088  143.0545  157.6040 N   0  0  0  0  0  0  0  0  0  0  0  0
  150.6678  143.3465  158.9867 C   0  0  2  0  0  0  0  0  0  0  0  0
  150.2525  144.7546  159.4341 C   0  0  0  0  0  0  0  0  0  0  0  0
  151.5869  145.3453  159.9058 C   0  0  1  0  0  0  0  0  0  0  0  0
  152.0984  144.6784  161.1899 C   0  0  0  0  0  0  0  0  0  0  0  0
  152.5591  143.3163  160.6717 C   0  0  0  0  0  0  0  0  0  0  0  0
  152.1928  143.4034  159.1838 C   0  0  2  0  0  0  0  0  0  0  0  0
  152.4605  144.7764  158.9473 O   0  0  0  0  0  0  0  0  0  0  0  0
  150.1655  141.5551  155.7058 C   0  0  0  0  0  0  0  0  0  0  0  0
  150.4427  140.4192  155.0308 N   0  0  0  0  0  0  0  0  0  0  0  0
  152.4423  138.9463  157.3470 H   0  0  0  0  0  0  0  0  0  0  0  0
  151.9282  141.0322  158.5815 H   0  0  0  0  0  0  0  0  0  0  0  0
  149.6257  143.6486  157.1557 H   0  0  0  0  0  0  0  0  0  0  0  0
  150.2465  142.5770  159.6344 H   0  0  0  0  0  0  0  0  0  0  0  0
  149.8573  145.3419  158.6035 H   0  0  0  0  0  0  0  0  0  0  0  0
  149.5013  144.7401  160.2241 H   0  0  0  0  0  0  0  0  0  0  0  0
  151.6012  146.4351  159.9360 H   0  0  0  0  0  0  0  0  0  0  0  0
  152.9395  145.2321  161.6088 H   0  0  0  0  0  0  0  0  0  0  0  0
  151.3236  144.6028  161.9535 H   0  0  0  0  0  0  0  0  0  0  0  0
  153.6367  143.2052  160.7972 H   0  0  0  0  0  0  0  0  0  0  0  0
  152.0697  142.4821  161.1753 H   0  0  0  0  0  0  0  0  0  0  0  0
  152.7586  142.7144  158.5555 H   0  0  0  0  0  0  0  0  0  0  0  0
  149.5195  142.2572  155.1992 H   0  0  0  0  0  0  0  0  0  0  0  0
  1  2  3  0  0  0  0
  2  3  1  0  0  0  0
  3 16  1  0  0  0  0
  3  4  2  0  0  0  0
  4  5  1  0  0  0  0
  4 17  1  0  0  0  0
  5  6  2  0  0  0  0
  5 18  1  0  0  0  0
  6  7  1  0  0  0  0
  6 15  1  0  0  0  0
  7  8  1  0  0  0  0
  7 19  1  0  0  0  0
  8 13  1  0  0  0  0
  8  9  1  0  0  0  0
  8 20  1  0  0  0  0
  9 10  1  0  0  0  0
  9 21  1  0  0  0  0
  9 22  1  0  0  0  0
 10 14  1  0  0  0  0
 10 11  1  0  0  0  0
 10 23  1  0  0  0  0
 11 12  1  0  0  0  0
 11 24  1  0  0  0  0
 11 25  1  0  0  0  0
 12 13  1  0  0  0  0
 12 26  1  0  0  0  0
 12 27  1  0  0  0  0
 13 14  1  0  0  0  0
 13 28  1  0  0  0  0
 15 16  2  0  0  0  0
 15 29  1  0  0  0  0
M  END
> <s_m_source_file>
AV-unprocessed.smi

> <i_m_source_file_index>
2798

> <i_lp_mmshare_version>
43012

> <i_f3d_flags>
0

> <s_epik_input>
TiNDYzFbY0hdW2NIXWMoW2NIXW4xKVtOSF1bQ0BIXShbQ0gyXVtDQEBIXTIzKVtDQEBIXShPMylbQ0gyXVtDSDJdMg==

> <s_epik_cmdline>
J2VwaWtfcHl0aG9uJywgJy1waCcsICc3LjAnLCAnLXRuJywgJzgnLCAnLW1hJywgJzIwMCcsICctbWV0YWxfYmluZGluZycsICctaW1hZScsICc8aW5maWxlLm1hZT4nLCAnLW9tYWUnLCAnPG91dGZpbGUubWFlPic=

> <r_lp_tautomer_probability>
1

> <r_epik_Ionization_Penalty>
2.201e-07

> <r_epik_Ionization_Penalty_Charging>
0

> <r_epik_Ionization_Penalty_Neutral>
2.201e-07

> <r_epik_State_Penalty>
-0

> <r_epik_Charging_Adjusted_Penalty>
0

> <i_epik_Tot_Q>
0

> <i_epik_Tot_abs_Q>
0

> <r_epik_Metal_State_Penalty>
-0

> <b_epik_Metal_Only>
0

> <s_lp_Force_Field>
OPLS_2005

> <r_lp_Energy>
43.4695

> <b_lp_Chiralities_Consistent>
1

> <s_lp_Variant>
AV-unprocessed.smi:2798-1

> <Gold.Version>
5.8.1

> <Gold.Id.Protein>
6NUR|6NUR_protein|mol2

> <Gold.PLP.Fitness>
50.4024

> <Gold.PLP.PLP>
-38.9808

> <Gold.PLP.part.hbond>
-3.0000

> <Gold.PLP.part.metal>
0.0000

> <Gold.PLP.part.buried>
-5.0695

> <Gold.PLP.part.nonpolar>
-30.7779

> <Gold.PLP.part.repulsive>
0.2684

> <Gold.PLP.ligand.clash>
0.0000

> <Gold.PLP.ligand.torsion>
0.0207

> <Gold.PLP.Chemscore.Hbond>
2.8960

> <Gold.PLP.Chemscore.CHOScore>
0.9184

> <Gold.PLP.Chemscore.Metal>
0.0000

> <Gold.Chemscore.Hbonds>
donor molecule, donor type, donor heavy atom, donor atom, acceptor molecule, acceptor atom, score
      L1  H     7    19       P1  8028  1.00
      P1  H  7989  7998       L1    16  0.90
      P1  H 10752 10763       L1     1  1.00
      L1  C    15    29       P1  8028  0.88

> <Gold.PLP.Chemscore.Internal.Correction>
0.0198

> <Gold.Rescore>
     Score         DG    S(hbond)    S(metal)    S(lipo)     H(rot)  DE(clash)    DE(int)     intcor
     20.64     -21.37       2.02        0.00      99.99       1.00       0.01       0.72       ----

> <Gold.Chemscore.Fitness>
20.6358

> <Gold.Chemscore.DG>
-21.3682

> <Gold.Chemscore.ZeroCoef>
-5.4800

> <Gold.Chemscore.Hbond>
2.0208

> <Gold.Chemscore.Metal>
0.0000

> <Gold.Chemscore.Lipo>
99.9895

> <Gold.Chemscore.Internal_Hbond>
0.0000

> <Gold.Chemscore.DEClash>
0.0093

> <Gold.Chemscore.DEInternal>
0.7231

> <Gold.Chemscore.Rot>
1.0000

> <Gold.Chemscore.Internal.Correction>
   9.000000E+99

> <Gold.Chemscore.Hbonds>
donor molecule, donor type, donor heavy atom, donor atom, acceptor molecule, acceptor atom, score
      L1  H     7    19       P1  8028  0.85
      P1  H  7989  7998       L1    16  0.11
      P1  H 10752 10763       L1     1  0.90

> <Gold.Chemscore.Hbond.Weighted>
-6.7494

> <Gold.Chemscore.Metal.Weighted>
-0.0000

> <Gold.Chemscore.Lipo.Weighted>
-11.6988

> <Gold.Chemscore.Internal_Hbond.Weighted>
0.0000

> <Gold.Chemscore.DEClash.Weighted>
0.0093

> <Gold.Chemscore.DEInternal.Weighted>
0.7231

> <Gold.Chemscore.Rot.Weighted>
2.5600

> <Gold.Chemscore.Internal.Correction.Weighted>
   9.000000E+99

> <Gold.Protein.RotatedTorsions>
[ 6907 6896 6895 6894 ] final -171.27 input  -60.11 | X-H torsion
[ 7974 7965 7964 7962 ] final  130.04 input  175.53 | X-H torsion
[ 8008 7997 7996 7995 ] final  147.85 input   59.86 | X-H torsion
[ 10167 10162 10161 10158 ] final  130.38 input  -65.29 | X-H torsion
[ 10718 10713 10712 10709 ] final   -7.13 input   66.30 | X-H torsion
[ 10763 10752 10751 10750 ] final   34.46 input  -60.55 | X-H torsion
[ 11005 11000 10999 10996 ] final  143.55 input  -57.11 | X-H torsion

> <Gold.Protein.ActiveResidues>
 VAL166  LYS551  ARG553  GLY616  TRP617  ASP618  TYR619  PRO620  LYS621  CYS622 
 ASP623  PHE694  ASN695  SER759  ASP760  ASP761  ALA762  ILE779  LEU786  VAL792 
 PHE793  MET794  SER795  GLU796  ALA797  LYS798  CYS799  TRP800  GLU811  SER814 

> <Gold.Protein.RotatedAtoms>
  151.5212  133.3466  159.2901 H   0  0  0  0  0  0  0  0  0  0  0  0  # atno 6907 bound_to 6896
  150.8651  134.8015  159.7124 H   0  0  0  0  0  0  0  0  0  0  0  0  # atno 6908 bound_to 6896
  152.4658  134.5087  159.9799 H   0  0  0  0  0  0  0  0  0  0  0  0  # atno 6909 bound_to 6896
  145.0222  139.4121  143.5191 H   0  0  0  0  0  0  0  0  0  0  0  0  # atno 7974 bound_to 7965
  156.2811  140.2144  156.5603 H   0  0  0  0  0  0  0  0  0  0  0  0  # atno 8008 bound_to 7997
  154.7218  140.0503  157.0669 H   0  0  0  0  0  0  0  0  0  0  0  0  # atno 8009 bound_to 7997
  155.0468  140.3152  155.4708 H   0  0  0  0  0  0  0  0  0  0  0  0  # atno 8010 bound_to 7997
  139.5433  144.6750  151.4555 H   0  0  0  0  0  0  0  0  0  0  0  0  # atno 10167 bound_to 10162
  156.7217  130.5153  149.5866 H   0  0  0  0  0  0  0  0  0  0  0  0  # atno 10718 bound_to 10713
  153.0163  135.6360  154.1672 H   0  0  0  0  0  0  0  0  0  0  0  0  # atno 10763 bound_to 10752
  154.1410  135.2834  155.3162 H   0  0  0  0  0  0  0  0  0  0  0  0  # atno 10764 bound_to 10752
  154.6124  135.5552  153.7549 H   0  0  0  0  0  0  0  0  0  0  0  0  # atno 10765 bound_to 10752
  140.0563  134.9229  157.1105 H   0  0  0  0  0  0  0  0  0  0  0  0  # atno 11005 bound_to 11000
  146.3487  139.9726  142.8704 LP  0  0  0  0  0  0  0  0  0  0  0  0  # atno 17320 bound_to 7965
  145.1880  140.9798  143.4227 LP  0  0  0  0  0  0  0  0  0  0  0  0  # atno 17321 bound_to 7965
  140.6671  143.8374  150.6955 LP  0  0  0  0  0  0  0  0  0  0  0  0  # atno 17342 bound_to 10162
  140.1786  143.4133  152.1949 LP  0  0  0  0  0  0  0  0  0  0  0  0  # atno 17343 bound_to 10162
  156.1590  130.6361  151.0694 LP  0  0  0  0  0  0  0  0  0  0  0  0  # atno 17370 bound_to 10713
  157.6895  131.0814  150.7148 LP  0  0  0  0  0  0  0  0  0  0  0  0  # atno 17371 bound_to 10713
  140.3839  134.2257  155.7169 LP  0  0  0  0  0  0  0  0  0  0  0  0  # atno 17394 bound_to 11000
  141.1953  133.8108  157.0720 LP  0  0  0  0  0  0  0  0  0  0  0  0  # atno 17395 bound_to 11000

$$$$
