AV-unprocessed.smi:1256|AV-procd|sdf|5283|dock5
  -GOLD-   22720 4403D 1   1.00000     0.00000
 Structure written by MMmdl.
 41 42  0  0  0  0  0  0  0  0  1 V2000
  143.7801  132.5992  148.9001 C   0  0  0  0  0  0  0  0  0  0  0  0
  144.5932  133.3591  149.9061 C   0  0  0  0  0  0  0  0  0  0  0  0
  145.8373  132.9852  150.4923 C   0  0  0  0  0  0  0  0  0  0  0  0
  146.1071  134.0379  151.3235 C   0  0  0  0  0  0  0  0  0  0  0  0
  147.1719  134.2260  152.1476 N   0  0  0  0  0  0  0  0  0  0  0  0
  147.6345  133.4219  153.1207 C   0  0  0  0  0  0  0  0  0  0  0  0
  147.1499  132.3364  153.4417 O   0  0  0  0  0  0  0  0  0  0  0  0
  148.7141  133.9520  153.7130 N   0  0  0  0  0  0  0  0  0  0  0  0
  149.4608  133.3309  154.8005 C   0  0  0  0  0  0  0  0  0  0  0  0
  149.7551  131.8493  154.5067 C   0  0  0  0  0  0  0  0  0  0  0  0
  151.0372  131.3619  155.1608 C   0  0  0  0  0  0  0  0  0  0  0  0
  151.6993  132.1060  156.0681 C   0  0  0  0  0  0  0  0  0  0  0  0
  153.0062  131.6926  156.7216 C   0  0  0  0  0  0  0  0  0  0  0  0
  153.6848  130.5253  155.9858 C   0  0  0  0  0  0  0  0  0  0  0  0
  152.6661  129.4436  155.6061 C   0  0  0  0  0  0  0  0  0  0  0  0
  151.5578  130.0052  154.6971 C   0  0  0  0  0  0  0  0  0  0  0  0
  145.0871  134.9578  151.2218 N   0  0  0  0  0  0  0  0  0  0  0  0
  144.9201  136.2280  151.9011 C   0  0  0  0  0  0  0  0  0  0  0  0
  144.1522  134.5329  150.3445 N   0  0  0  0  0  0  0  0  0  0  0  0
  144.2602  131.6564  148.6367 H   0  0  0  0  0  0  0  0  0  0  0  0
  143.6535  133.1744  147.9826 H   0  0  0  0  0  0  0  0  0  0  0  0
  142.7883  132.3683  149.2901 H   0  0  0  0  0  0  0  0  0  0  0  0
  146.4154  132.0903  150.3183 H   0  0  0  0  0  0  0  0  0  0  0  0
  147.6836  135.0831  151.9990 H   0  0  0  0  0  0  0  0  0  0  0  0
  149.0462  134.8482  153.3874 H   0  0  0  0  0  0  0  0  0  0  0  0
  150.3972  133.8768  154.9191 H   0  0  0  0  0  0  0  0  0  0  0  0
  148.9135  133.4475  155.7368 H   0  0  0  0  0  0  0  0  0  0  0  0
  148.9316  131.2193  154.8451 H   0  0  0  0  0  0  0  0  0  0  0  0
  149.8267  131.7045  153.4276 H   0  0  0  0  0  0  0  0  0  0  0  0
  151.2971  133.0600  156.3772 H   0  0  0  0  0  0  0  0  0  0  0  0
  153.6785  132.5504  156.7541 H   0  0  0  0  0  0  0  0  0  0  0  0
  152.7942  131.4154  157.7546 H   0  0  0  0  0  0  0  0  0  0  0  0
  154.1678  130.8956  155.0805 H   0  0  0  0  0  0  0  0  0  0  0  0
  154.4751  130.1024  156.6067 H   0  0  0  0  0  0  0  0  0  0  0  0
  153.1648  128.6100  155.1113 H   0  0  0  0  0  0  0  0  0  0  0  0
  152.2196  129.0398  156.5157 H   0  0  0  0  0  0  0  0  0  0  0  0
  150.7417  129.2854  154.6446 H   0  0  0  0  0  0  0  0  0  0  0  0
  151.9353  130.1233  153.6808 H   0  0  0  0  0  0  0  0  0  0  0  0
  145.8304  136.8198  151.8032 H   0  0  0  0  0  0  0  0  0  0  0  0
  144.7190  136.0535  152.9582 H   0  0  0  0  0  0  0  0  0  0  0  0
  144.0894  136.7878  151.4696 H   0  0  0  0  0  0  0  0  0  0  0  0
  1  2  1  0  0  0  0
  1 20  1  0  0  0  0
  1 21  1  0  0  0  0
  1 22  1  0  0  0  0
  2 19  2  0  0  0  0
  2  3  1  0  0  0  0
  3  4  2  0  0  0  0
  3 23  1  0  0  0  0
  4  5  1  0  0  0  0
  4 17  1  0  0  0  0
  5  6  1  0  0  0  0
  5 24  1  0  0  0  0
  6  7  2  0  0  0  0
  6  8  1  0  0  0  0
  8  9  1  0  0  0  0
  8 25  1  0  0  0  0
  9 10  1  0  0  0  0
  9 26  1  0  0  0  0
  9 27  1  0  0  0  0
 10 11  1  0  0  0  0
 10 28  1  0  0  0  0
 10 29  1  0  0  0  0
 11 16  1  0  0  0  0
 11 12  2  0  0  0  0
 12 13  1  0  0  0  0
 12 30  1  0  0  0  0
 13 14  1  0  0  0  0
 13 31  1  0  0  0  0
 13 32  1  0  0  0  0
 14 15  1  0  0  0  0
 14 33  1  0  0  0  0
 14 34  1  0  0  0  0
 15 16  1  0  0  0  0
 15 35  1  0  0  0  0
 15 36  1  0  0  0  0
 16 37  1  0  0  0  0
 16 38  1  0  0  0  0
 17 18  1  0  0  0  0
 17 19  1  0  0  0  0
 18 39  1  0  0  0  0
 18 40  1  0  0  0  0
 18 41  1  0  0  0  0
M  END
> <s_m_source_file>
AV-unprocessed.smi

> <i_m_source_file_index>
1256

> <i_lp_mmshare_version>
43012

> <i_f3d_flags>
0

> <s_epik_input>
W0NIM11jMVtjSF1jKG4objEpW0NIM10pW05IXUMoPU8pW05IXVtDSDJdW0NIMl1DMj1bQ0hdW0NIMl1bQ0gyXVtDSDJdW0NIMl0y

> <s_epik_cmdline>
J2VwaWtfcHl0aG9uJywgJy1waCcsICc3LjAnLCAnLXRuJywgJzgnLCAnLW1hJywgJzIwMCcsICctbWV0YWxfYmluZGluZycsICctaW1hZScsICc8aW5maWxlLm1hZT4nLCAnLW9tYWUnLCAnPG91dGZpbGUubWFlPic=

> <r_lp_tautomer_probability>
1

> <r_epik_Ionization_Penalty>
9.50632e-05

> <r_epik_Ionization_Penalty_Charging>
0

> <r_epik_Ionization_Penalty_Neutral>
9.50632e-05

> <r_epik_State_Penalty>
-0

> <r_epik_Charging_Adjusted_Penalty>
0

> <i_epik_Tot_Q>
0

> <i_epik_Tot_abs_Q>
0

> <r_epik_Metal_State_Penalty>
-0

> <b_epik_Metal_Only>
0

> <s_lp_Force_Field>
OPLS_2005

> <r_lp_Energy>
8.63058

> <b_lp_Chiralities_Consistent>
1

> <s_lp_Variant>
AV-unprocessed.smi:1256-1

> <Gold.Version>
5.8.1

> <Gold.Id.Protein>
6NUR|6NUR_protein|mol2

> <Gold.PLP.Fitness>
38.2992

> <Gold.PLP.PLP>
-34.3484

> <Gold.PLP.part.hbond>
-2.0000

> <Gold.PLP.part.metal>
0.0000

> <Gold.PLP.part.buried>
-3.6410

> <Gold.PLP.part.nonpolar>
-29.2130

> <Gold.PLP.part.repulsive>
0.3503

> <Gold.PLP.ligand.clash>
0.0000

> <Gold.PLP.ligand.torsion>
0.8772

> <Gold.PLP.Chemscore.Hbond>
1.8960

> <Gold.PLP.Chemscore.CHOScore>
0.0000

> <Gold.PLP.Chemscore.Metal>
0.0000

> <Gold.Chemscore.Hbonds>
donor molecule, donor type, donor heavy atom, donor atom, acceptor molecule, acceptor atom, score
      L1  H     5    24       P1  7948  1.00
      L1  H     8    25       P1  7948  0.81

> <Gold.PLP.Chemscore.Internal.Correction>
0.0172

> <Gold.Rescore>
     Score         DG    S(hbond)    S(metal)    S(lipo)     H(rot)  DE(clash)    DE(int)     intcor
     13.28     -15.40       1.37        0.00      76.19       1.40       0.07       2.04       ----

> <Gold.Chemscore.Fitness>
13.2788

> <Gold.Chemscore.DG>
-15.3957

> <Gold.Chemscore.ZeroCoef>
-5.4800

> <Gold.Chemscore.Hbond>
1.3699

> <Gold.Chemscore.Metal>
0.0000

> <Gold.Chemscore.Lipo>
76.1854

> <Gold.Chemscore.Internal_Hbond>
0.0000

> <Gold.Chemscore.DEClash>
0.0723

> <Gold.Chemscore.DEInternal>
2.0446

> <Gold.Chemscore.Rot>
1.3958

> <Gold.Chemscore.Internal.Correction>
   9.000000E+99

> <Gold.Chemscore.Hbonds>
donor molecule, donor type, donor heavy atom, donor atom, acceptor molecule, acceptor atom, score
      L1  H     5    24       P1  7948  0.88
      L1  H     8    25       P1  7948  0.15

> <Gold.Chemscore.Hbond.Weighted>
-4.5753

> <Gold.Chemscore.Metal.Weighted>
-0.0000

> <Gold.Chemscore.Lipo.Weighted>
-8.9137

> <Gold.Chemscore.Internal_Hbond.Weighted>
0.0000

> <Gold.Chemscore.DEClash.Weighted>
0.0723

> <Gold.Chemscore.DEInternal.Weighted>
2.0446

> <Gold.Chemscore.Rot.Weighted>
3.5733

> <Gold.Chemscore.Internal.Correction.Weighted>
   9.000000E+99

> <Gold.Protein.RotatedTorsions>
[ 6907 6896 6895 6894 ] final   29.26 input  -60.11 | X-H torsion
[ 7974 7965 7964 7962 ] final  -57.55 input  175.53 | X-H torsion
[ 8008 7997 7996 7995 ] final  -67.78 input   59.86 | X-H torsion
[ 10167 10162 10161 10158 ] final -121.11 input  -65.29 | X-H torsion
[ 10718 10713 10712 10709 ] final -123.50 input   66.30 | X-H torsion
[ 10763 10752 10751 10750 ] final   11.72 input  -60.55 | X-H torsion
[ 11005 11000 10999 10996 ] final -163.61 input  -57.11 | X-H torsion

> <Gold.Protein.ActiveResidues>
 VAL166  LYS551  ARG553  GLY616  TRP617  ASP618  TYR619  PRO620  LYS621  CYS622 
 ASP623  PHE694  ASN695  SER759  ASP760  ASP761  ALA762  ILE779  LEU786  VAL792 
 PHE793  MET794  SER795  GLU796  ALA797  LYS798  CYS799  TRP800  GLU811  SER814 

> <Gold.Protein.RotatedAtoms>
  152.0289  134.9779  160.0571 H   0  0  0  0  0  0  0  0  0  0  0  0  # atno 6907 bound_to 6896
  152.1263  133.4377  159.4708 H   0  0  0  0  0  0  0  0  0  0  0  0  # atno 6908 bound_to 6896
  150.6853  134.2392  159.4509 H   0  0  0  0  0  0  0  0  0  0  0  0  # atno 6909 bound_to 6896
  145.8497  140.8360  142.9992 H   0  0  0  0  0  0  0  0  0  0  0  0  # atno 7974 bound_to 7965
  154.4823  140.0886  156.7406 H   0  0  0  0  0  0  0  0  0  0  0  0  # atno 8008 bound_to 7997
  155.4438  140.3455  155.4275 H   0  0  0  0  0  0  0  0  0  0  0  0  # atno 8009 bound_to 7997
  156.1210  140.1474  156.9193 H   0  0  0  0  0  0  0  0  0  0  0  0  # atno 8010 bound_to 7997
  140.0286  143.5271  152.2187 H   0  0  0  0  0  0  0  0  0  0  0  0  # atno 10167 bound_to 10162
  156.1507  130.6532  150.9909 H   0  0  0  0  0  0  0  0  0  0  0  0  # atno 10718 bound_to 10713
  153.1896  135.6840  153.8370 H   0  0  0  0  0  0  0  0  0  0  0  0  # atno 10763 bound_to 10752
  153.7673  135.3201  155.3347 H   0  0  0  0  0  0  0  0  0  0  0  0  # atno 10764 bound_to 10752
  154.8109  135.4718  154.0613 H   0  0  0  0  0  0  0  0  0  0  0  0  # atno 10765 bound_to 10752
  140.5962  134.4994  157.5199 H   0  0  0  0  0  0  0  0  0  0  0  0  # atno 11005 bound_to 11000
  144.6729  140.0935  143.7464 LP  0  0  0  0  0  0  0  0  0  0  0  0  # atno 17320 bound_to 7965
  145.9371  139.2644  143.1291 LP  0  0  0  0  0  0  0  0  0  0  0  0  # atno 17321 bound_to 7965
  139.6091  144.7604  151.2993 LP  0  0  0  0  0  0  0  0  0  0  0  0  # atno 17342 bound_to 10162
  140.7312  143.6859  150.7962 LP  0  0  0  0  0  0  0  0  0  0  0  0  # atno 17343 bound_to 10162
  157.6654  131.0872  150.7740 LP  0  0  0  0  0  0  0  0  0  0  0  0  # atno 17370 bound_to 10713
  156.7808  130.4858  149.5401 LP  0  0  0  0  0  0  0  0  0  0  0  0  # atno 17371 bound_to 10713
  139.9252  134.8070  156.1089 LP  0  0  0  0  0  0  0  0  0  0  0  0  # atno 17394 bound_to 11000
  141.0902  133.6717  156.2525 LP  0  0  0  0  0  0  0  0  0  0  0  0  # atno 17395 bound_to 11000

$$$$
