AV-unprocessed.smi:37|AV-procd|sdf|314|dock4
  -GOLD-   2262016133D 1   1.00000     0.00000
 Structure written by MMmdl.
 44 45  0  0  0  0  0  0  0  0  1 V2000
  147.6384  135.7205  162.7658 C   0  0  0  0  0  0  0  0  0  0  0  0
  146.5650  135.8348  161.6736 C   0  0  0  0  0  0  0  0  0  0  0  0
  147.0726  136.4749  160.3799 C   0  0  0  0  0  0  0  0  0  0  0  0
  147.3431  137.6742  160.2959 O   0  0  0  0  0  0  0  0  0  0  0  0
  147.1795  135.5779  159.3893 O   0  0  0  0  0  0  0  0  0  0  0  0
  147.3220  136.0177  158.0488 C   0  0  0  0  0  0  0  0  0  0  0  0
  147.4226  134.8001  157.1221 C   0  0  1  0  0  0  0  0  0  0  0  0
  147.7989  135.2201  155.8122 O   0  0  0  0  0  0  0  0  0  0  0  0
  148.6374  134.2699  155.2258 C   0  0  2  0  0  0  0  0  0  0  0  0
  148.0114  133.8253  153.9242 N   0  0  0  0  0  0  0  0  0  0  0  0
  146.9319  134.5162  153.3912 C   0  0  0  0  0  0  0  0  0  0  0  0
  146.3502  134.1841  152.2148 C   0  0  0  0  0  0  0  0  0  0  0  0
  145.3063  134.9009  151.7654 F   0  0  0  0  0  0  0  0  0  0  0  0
  146.8484  133.0578  151.4311 C   0  0  0  0  0  0  0  0  0  0  0  0
  146.3877  132.6779  150.3566 O   0  0  0  0  0  0  0  0  0  0  0  0
  147.9404  132.3968  152.0013 N   0  0  0  0  0  0  0  0  0  0  0  0
  148.5502  132.7297  153.2125 C   0  0  0  0  0  0  0  0  0  0  0  0
  149.5060  132.0689  153.6161 O   0  0  0  0  0  0  0  0  0  0  0  0
  148.7789  133.1036  156.2046 C   0  0  1  0  0  0  0  0  0  0  0  0
  150.6072  132.3183  156.1599 Br  0  0  0  0  0  0  0  0  0  0  0  0
  148.4889  133.7764  157.5288 C   0  0  2  0  0  0  0  0  0  0  0  0
  147.9999  132.8139  158.4549 O   0  0  0  0  0  0  0  0  0  0  0  0
  148.8137  131.8624  158.9458 C   0  0  0  0  0  0  0  0  0  0  0  0
  149.9786  131.6618  158.5982 O   0  0  0  0  0  0  0  0  0  0  0  0
  148.1274  131.0274  160.0285 C   0  0  0  0  0  0  0  0  0  0  0  0
  147.6332  131.8574  161.2230 C   0  0  0  0  0  0  0  0  0  0  0  0
  148.3200  131.6109  151.4936 H   0  0  0  0  0  0  0  0  0  0  0  0
  147.2267  135.2535  163.6604 H   0  0  0  0  0  0  0  0  0  0  0  0
  148.0213  136.7006  163.0525 H   0  0  0  0  0  0  0  0  0  0  0  0
  148.4799  135.1114  162.4338 H   0  0  0  0  0  0  0  0  0  0  0  0
  146.1759  134.8440  161.4381 H   0  0  0  0  0  0  0  0  0  0  0  0
  145.7253  136.4234  162.0438 H   0  0  0  0  0  0  0  0  0  0  0  0
  146.4476  136.6143  157.7860 H   0  0  0  0  0  0  0  0  0  0  0  0
  148.2004  136.6546  157.9327 H   0  0  0  0  0  0  0  0  0  0  0  0
  146.4499  134.3133  157.0332 H   0  0  0  0  0  0  0  0  0  0  0  0
  149.5861  134.7645  155.0158 H   0  0  0  0  0  0  0  0  0  0  0  0
  146.5301  135.3593  153.9335 H   0  0  0  0  0  0  0  0  0  0  0  0
  148.0508  132.3215  155.9855 H   0  0  0  0  0  0  0  0  0  0  0  0
  149.3888  134.2872  157.8752 H   0  0  0  0  0  0  0  0  0  0  0  0
  147.2865  130.5003  159.5771 H   0  0  0  0  0  0  0  0  0  0  0  0
  148.8277  130.2667  160.3739 H   0  0  0  0  0  0  0  0  0  0  0  0
  147.1436  131.2180  161.9574 H   0  0  0  0  0  0  0  0  0  0  0  0
  146.9114  132.6130  160.9110 H   0  0  0  0  0  0  0  0  0  0  0  0
  148.4582  132.3634  161.7257 H   0  0  0  0  0  0  0  0  0  0  0  0
  1  2  1  0  0  0  0
  1 28  1  0  0  0  0
  1 29  1  0  0  0  0
  1 30  1  0  0  0  0
  2  3  1  0  0  0  0
  2 31  1  0  0  0  0
  2 32  1  0  0  0  0
  3  4  2  0  0  0  0
  3  5  1  0  0  0  0
  5  6  1  0  0  0  0
  6  7  1  0  0  0  0
  6 33  1  0  0  0  0
  6 34  1  0  0  0  0
  7 21  1  0  0  0  0
  7  8  1  0  0  0  0
  7 35  1  0  0  0  0
  8  9  1  0  0  0  0
  9 10  1  0  0  0  0
  9 19  1  0  0  0  0
  9 36  1  0  0  0  0
 10 17  1  0  0  0  0
 10 11  1  0  0  0  0
 11 12  2  0  0  0  0
 11 37  1  0  0  0  0
 12 13  1  0  0  0  0
 12 14  1  0  0  0  0
 14 15  2  0  0  0  0
 14 16  1  0  0  0  0
 16 27  1  0  0  0  0
 16 17  1  0  0  0  0
 17 18  2  0  0  0  0
 19 20  1  0  0  0  0
 19 21  1  0  0  0  0
 19 38  1  0  0  0  0
 21 22  1  0  0  0  0
 21 39  1  0  0  0  0
 22 23  1  0  0  0  0
 23 24  2  0  0  0  0
 23 25  1  0  0  0  0
 25 26  1  0  0  0  0
 25 40  1  0  0  0  0
 25 41  1  0  0  0  0
 26 42  1  0  0  0  0
 26 43  1  0  0  0  0
 26 44  1  0  0  0  0
M  END
> <s_m_source_file>
AV-unprocessed.smi

> <i_m_source_file_index>
37

> <i_lp_mmshare_version>
43012

> <i_f3d_flags>
0

> <s_epik_input>
W0NIM11bQ0gyXUMoPU8pT1tDSDJdW0NAQEhdMU9bQ0BASF0objJbY0hdYyhGKWMoPU8pW25IXWMyPU8pW0NAQEhdKEJyKVtDQEhdMU9DKD1PKVtDSDJdW0NIM10=

> <s_epik_cmdline>
J2VwaWtfcHl0aG9uJywgJy1waCcsICc3LjAnLCAnLXRuJywgJzgnLCAnLW1hJywgJzIwMCcsICctbWV0YWxfYmluZGluZycsICctaW1hZScsICc8aW5maWxlLm1hZT4nLCAnLW9tYWUnLCAnPG91dGZpbGUubWFlPic=

> <r_lp_tautomer_probability>
0.999537

> <r_epik_Ionization_Penalty>
0.104106

> <r_epik_Ionization_Penalty_Charging>
0.104106

> <r_epik_Ionization_Penalty_Neutral>
3.94675e-16

> <r_epik_State_Penalty>
0.0940182

> <r_epik_Charging_Adjusted_Penalty>
0.198124

> <i_epik_Tot_Q>
0

> <i_epik_Tot_abs_Q>
0

> <r_epik_Metal_State_Penalty>
3.05314

> <b_epik_Metal_Only>
0

> <s_epik_Chemistry_Notes>
This compound has an ester and may undergo hydrolysis at high or low pH. This compound contains an acetal/aminal-like group ( X-CH(R)-Y where X, Y are N, S, or O) that may be acid/base labile, releasing an aldehyde.

> <s_lp_Force_Field>
OPLS_2005

> <r_lp_Energy>
22.7414

> <b_lp_Chiralities_Consistent>
1

> <s_lp_Variant>
AV-unprocessed.smi:37-12

> <Gold.Version>
5.8.1

> <Gold.Id.Protein>
6NUR|6NUR_protein|mol2

> <Gold.PLP.Fitness>
37.0754

> <Gold.PLP.PLP>
-29.0593

> <Gold.PLP.part.hbond>
-3.1379

> <Gold.PLP.part.metal>
0.0000

> <Gold.PLP.part.buried>
-3.8480

> <Gold.PLP.part.nonpolar>
-22.8304

> <Gold.PLP.part.repulsive>
0.3141

> <Gold.PLP.ligand.clash>
0.0000

> <Gold.PLP.ligand.torsion>
0.5707

> <Gold.PLP.Chemscore.Hbond>
2.9920

> <Gold.PLP.Chemscore.CHOScore>
0.0000

> <Gold.PLP.Chemscore.Metal>
0.0000

> <Gold.Chemscore.Hbonds>
donor molecule, donor type, donor heavy atom, donor atom, acceptor molecule, acceptor atom, score
      L1  H    16    27       P1 10747  1.00
      P1  H  6896  6909       L1    24  0.59
      P1  H  6931  6943       L1     4  0.05
      P1  H  6934  6947       L1     4  0.91

> <Gold.PLP.Chemscore.Internal.Correction>
0.1814

> <Gold.Rescore>
     Score         DG    S(hbond)    S(metal)    S(lipo)     H(rot)  DE(clash)    DE(int)     intcor
      6.50     -11.90       2.97        0.00      42.86       3.33       0.01       5.39       ----

> <Gold.Chemscore.Fitness>
6.5021

> <Gold.Chemscore.DG>
-11.8980

> <Gold.Chemscore.ZeroCoef>
-5.4800

> <Gold.Chemscore.Hbond>
2.9728

> <Gold.Chemscore.Metal>
0.0000

> <Gold.Chemscore.Lipo>
42.8596

> <Gold.Chemscore.Internal_Hbond>
0.0000

> <Gold.Chemscore.DEClash>
0.0089

> <Gold.Chemscore.DEInternal>
5.3870

> <Gold.Chemscore.Rot>
3.3303

> <Gold.Chemscore.Internal.Correction>
   9.000000E+99

> <Gold.Chemscore.Hbonds>
donor molecule, donor type, donor heavy atom, donor atom, acceptor molecule, acceptor atom, score
      L1  H    16    27       P1 10747  0.96
      P1  H  6896  6909       L1    24  0.31
      P1  H  6931  6943       L1     4  0.05
      P1  H  6934  6947       L1     4  0.83

> <Gold.Chemscore.Hbond.Weighted>
-9.9290

> <Gold.Chemscore.Metal.Weighted>
-0.0000

> <Gold.Chemscore.Lipo.Weighted>
-5.0146

> <Gold.Chemscore.Internal_Hbond.Weighted>
0.0000

> <Gold.Chemscore.DEClash.Weighted>
0.0089

> <Gold.Chemscore.DEInternal.Weighted>
5.3870

> <Gold.Chemscore.Rot.Weighted>
8.5256

> <Gold.Chemscore.Internal.Correction.Weighted>
   9.000000E+99

> <Gold.Protein.RotatedTorsions>
[ 6907 6896 6895 6894 ] final  -28.77 input  -60.11 | X-H torsion
[ 7974 7965 7964 7962 ] final   -3.05 input  175.53 | X-H torsion
[ 8008 7997 7996 7995 ] final -162.64 input   59.86 | X-H torsion
[ 10167 10162 10161 10158 ] final   -5.45 input  -65.29 | X-H torsion
[ 10718 10713 10712 10709 ] final  -12.94 input   66.30 | X-H torsion
[ 10763 10752 10751 10750 ] final  160.53 input  -60.55 | X-H torsion
[ 11005 11000 10999 10996 ] final    7.22 input  -57.11 | X-H torsion

> <Gold.Protein.ActiveResidues>
 VAL166  LYS551  ARG553  GLY616  TRP617  ASP618  TYR619  PRO620  LYS621  CYS622 
 ASP623  PHE694  ASN695  SER759  ASP760  ASP761  ALA762  ILE779  LEU786  VAL792 
 PHE793  MET794  SER795  GLU796  ALA797  LYS798  CYS799  TRP800  GLU811  SER814 

> <Gold.Protein.RotatedAtoms>
  151.1283  135.0116  159.8570 H   0  0  0  0  0  0  0  0  0  0  0  0  # atno 6907 bound_to 6896
  152.5450  134.1640  159.8579 H   0  0  0  0  0  0  0  0  0  0  0  0  # atno 6908 bound_to 6896
  151.1705  133.4742  159.2627 H   0  0  0  0  0  0  0  0  0  0  0  0  # atno 6909 bound_to 6896
  146.2395  140.1663  142.8332 H   0  0  0  0  0  0  0  0  0  0  0  0  # atno 7974 bound_to 7965
  155.8097  140.0904  157.1910 H   0  0  0  0  0  0  0  0  0  0  0  0  # atno 8008 bound_to 7997
  154.3980  140.1457  156.3432 H   0  0  0  0  0  0  0  0  0  0  0  0  # atno 8009 bound_to 7997
  155.8377  140.3440  155.5615 H   0  0  0  0  0  0  0  0  0  0  0  0  # atno 8010 bound_to 7997
  140.6963  143.6306  150.8526 H   0  0  0  0  0  0  0  0  0  0  0  0  # atno 10167 bound_to 10162
  156.6374  130.4918  149.6107 H   0  0  0  0  0  0  0  0  0  0  0  0  # atno 10718 bound_to 10713
  154.2488  135.2772  155.2824 H   0  0  0  0  0  0  0  0  0  0  0  0  # atno 10763 bound_to 10752
  154.5482  135.5683  153.6902 H   0  0  0  0  0  0  0  0  0  0  0  0  # atno 10764 bound_to 10752
  152.9984  135.6268  154.2635 H   0  0  0  0  0  0  0  0  0  0  0  0  # atno 10765 bound_to 10752
  140.5506  134.0286  155.7936 H   0  0  0  0  0  0  0  0  0  0  0  0  # atno 11005 bound_to 11000
  145.0048  140.8663  143.5260 LP  0  0  0  0  0  0  0  0  0  0  0  0  # atno 17320 bound_to 7965
  145.1688  139.2416  143.5353 LP  0  0  0  0  0  0  0  0  0  0  0  0  # atno 17321 bound_to 7965
  140.0025  143.5729  152.2870 LP  0  0  0  0  0  0  0  0  0  0  0  0  # atno 17342 bound_to 10162
  139.6424  144.7655  151.2313 LP  0  0  0  0  0  0  0  0  0  0  0  0  # atno 17343 bound_to 10162
  156.2186  130.6723  151.1344 LP  0  0  0  0  0  0  0  0  0  0  0  0  # atno 17370 bound_to 10713
  157.7181  131.0698  150.6245 LP  0  0  0  0  0  0  0  0  0  0  0  0  # atno 17371 bound_to 10713
  141.1173  133.9518  157.2797 LP  0  0  0  0  0  0  0  0  0  0  0  0  # atno 17394 bound_to 11000
  139.9457  135.0184  156.8844 LP  0  0  0  0  0  0  0  0  0  0  0  0  # atno 17395 bound_to 11000

$$$$
