AV-unprocessed.smi:2834|AV-procd|sdf|10916|dock9
  -GOLD-   2272015363D 1   1.00000     0.00000
 Structure written by MMmdl.
 35 36  0  0  0  0  0  0  0  0  1 V2000
  144.3985  135.7925  152.0262 C   0  0  0  0  0  0  0  0  0  0  0  0
  144.5620  134.2829  152.3004 C   0  0  1  0  0  0  0  0  0  0  0  0
  144.2112  133.9689  153.6923 N   0  0  0  0  0  0  0  0  0  0  0  0
  144.7351  134.4911  154.8132 C   0  0  0  0  0  0  0  0  0  0  0  0
  145.6248  135.3416  154.8269 O   0  0  0  0  0  0  0  0  0  0  0  0
  144.1591  133.9640  155.9060 N   0  0  0  0  0  0  0  0  0  0  0  0
  144.4400  134.2720  157.2610 C   0  0  0  0  0  0  0  0  0  0  0  0
  143.4733  134.3104  158.2991 C   0  0  0  0  0  0  0  0  0  0  0  0
  144.0286  134.6265  159.4590 N   0  0  0  0  0  0  0  0  0  0  0  0
  145.3464  134.7927  159.1850 N   0  0  0  0  0  0  0  0  0  0  0  0
  146.2637  135.1451  160.2534 C   0  0  0  0  0  0  0  0  0  0  0  0
  146.3057  134.0824  161.3640 C   0  0  0  0  0  0  0  0  0  0  0  0
  147.0924  134.5118  162.3500 F   0  0  0  0  0  0  0  0  0  0  0  0
  145.0852  133.8669  161.8559 F   0  0  0  0  0  0  0  0  0  0  0  0
  146.7989  132.9362  160.8939 F   0  0  0  0  0  0  0  0  0  0  0  0
  145.6326  134.5841  157.8503 C   0  0  0  0  0  0  0  0  0  0  0  0
  143.8072  133.4077  151.3032 C   0  0  0  0  0  0  0  0  0  0  0  0
  144.5822  132.0954  151.3465 C   0  0  0  0  0  0  0  0  0  0  0  0
  145.9332  132.4628  151.5947 O   0  0  0  0  0  0  0  0  0  0  0  0
  146.0026  133.8135  152.0453 C   0  0  0  0  0  0  0  0  0  0  0  0
  144.7300  136.0512  151.0201 H   0  0  0  0  0  0  0  0  0  0  0  0
  144.9874  136.3858  152.7266 H   0  0  0  0  0  0  0  0  0  0  0  0
  143.3600  136.1121  152.1111 H   0  0  0  0  0  0  0  0  0  0  0  0
  143.4835  133.2790  153.8094 H   0  0  0  0  0  0  0  0  0  0  0  0
  143.4412  133.2711  155.7525 H   0  0  0  0  0  0  0  0  0  0  0  0
  142.4104  134.1241  158.2515 H   0  0  0  0  0  0  0  0  0  0  0  0
  147.2570  135.2777  159.8223 H   0  0  0  0  0  0  0  0  0  0  0  0
  145.9703  136.1120  160.6651 H   0  0  0  0  0  0  0  0  0  0  0  0
  146.6350  134.6737  157.4585 H   0  0  0  0  0  0  0  0  0  0  0  0
  142.7472  133.2784  151.5203 H   0  0  0  0  0  0  0  0  0  0  0  0
  143.8830  133.8344  150.3020 H   0  0  0  0  0  0  0  0  0  0  0  0
  144.2314  131.4738  152.1712 H   0  0  0  0  0  0  0  0  0  0  0  0
  144.4859  131.5214  150.4247 H   0  0  0  0  0  0  0  0  0  0  0  0
  146.4637  134.3970  151.2473 H   0  0  0  0  0  0  0  0  0  0  0  0
  146.6440  133.9049  152.9228 H   0  0  0  0  0  0  0  0  0  0  0  0
  1  2  1  0  0  0  0
  1 21  1  0  0  0  0
  1 22  1  0  0  0  0
  1 23  1  0  0  0  0
  2 20  1  0  0  0  0
  2  3  1  0  0  0  0
  2 17  1  0  0  0  0
  3  4  1  0  0  0  0
  3 24  1  0  0  0  0
  4  5  2  0  0  0  0
  4  6  1  0  0  0  0
  6  7  1  0  0  0  0
  6 25  1  0  0  0  0
  7 16  2  0  0  0  0
  7  8  1  0  0  0  0
  8  9  2  0  0  0  0
  8 26  1  0  0  0  0
  9 10  1  0  0  0  0
 10 11  1  0  0  0  0
 10 16  1  0  0  0  0
 11 12  1  0  0  0  0
 11 27  1  0  0  0  0
 11 28  1  0  0  0  0
 12 13  1  0  0  0  0
 12 14  1  0  0  0  0
 12 15  1  0  0  0  0
 16 29  1  0  0  0  0
 17 18  1  0  0  0  0
 17 30  1  0  0  0  0
 17 31  1  0  0  0  0
 18 19  1  0  0  0  0
 18 32  1  0  0  0  0
 18 33  1  0  0  0  0
 19 20  1  0  0  0  0
 20 34  1  0  0  0  0
 20 35  1  0  0  0  0
M  END
> <s_m_source_file>
AV-unprocessed.smi

> <i_m_source_file_index>
2834

> <i_lp_mmshare_version>
43012

> <i_f3d_flags>
0

> <s_epik_input>
W0NIMl0xT1tDSDJdW0NIMl1bQ0BAXTEoW0NIM10pW05IXUMoPU8pW05IXWMyW2NIXW5uKFtjSF0yKVtDSDJdQyhGKShGKUY=

> <s_epik_cmdline>
J2VwaWtfcHl0aG9uJywgJy1waCcsICc3LjAnLCAnLXRuJywgJzgnLCAnLW1hJywgJzIwMCcsICctbWV0YWxfYmluZGluZycsICctaW1hZScsICc8aW5maWxlLm1hZT4nLCAnLW9tYWUnLCAnPG91dGZpbGUubWFlPic=

> <r_lp_tautomer_probability>
1

> <r_epik_Ionization_Penalty>
3.3002e-05

> <r_epik_Ionization_Penalty_Charging>
0

> <r_epik_Ionization_Penalty_Neutral>
3.3002e-05

> <r_epik_State_Penalty>
-0

> <r_epik_Charging_Adjusted_Penalty>
0

> <i_epik_Tot_Q>
0

> <i_epik_Tot_abs_Q>
0

> <r_epik_Metal_State_Penalty>
-0

> <b_epik_Metal_Only>
0

> <s_lp_Force_Field>
OPLS_2005

> <r_lp_Energy>
24.6434

> <b_lp_Chiralities_Consistent>
1

> <s_lp_Variant>
AV-unprocessed.smi:2834-1

> <Gold.Version>
5.8.1

> <Gold.Id.Protein>
6NUR|6NUR_protein|mol2

> <Gold.PLP.Fitness>
32.3212

> <Gold.PLP.PLP>
-23.8755

> <Gold.PLP.part.hbond>
-2.0000

> <Gold.PLP.part.metal>
0.0000

> <Gold.PLP.part.buried>
-4.4775

> <Gold.PLP.part.nonpolar>
-17.5406

> <Gold.PLP.part.repulsive>
0.1524

> <Gold.PLP.ligand.clash>
0.0000

> <Gold.PLP.ligand.torsion>
0.3025

> <Gold.PLP.Chemscore.Hbond>
2.0000

> <Gold.PLP.Chemscore.CHOScore>
0.9983

> <Gold.PLP.Chemscore.Metal>
0.0000

> <Gold.Chemscore.Hbonds>
donor molecule, donor type, donor heavy atom, donor atom, acceptor molecule, acceptor atom, score
      L1  H     3    24       P1 10957  1.00
      L1  H     6    25       P1 10957  1.00
      L1  C     8    26       P1 11000  0.99

> <Gold.PLP.Chemscore.Internal.Correction>
0.0559

> <Gold.Rescore>
     Score         DG    S(hbond)    S(metal)    S(lipo)     H(rot)  DE(clash)    DE(int)     intcor
     11.65     -13.26       1.96        0.00      40.05       1.34       0.00       1.61       ----

> <Gold.Chemscore.Fitness>
11.6534

> <Gold.Chemscore.DG>
-13.2641

> <Gold.Chemscore.ZeroCoef>
-5.4800

> <Gold.Chemscore.Hbond>
1.9560

> <Gold.Chemscore.Metal>
0.0000

> <Gold.Chemscore.Lipo>
40.0479

> <Gold.Chemscore.Internal_Hbond>
0.0000

> <Gold.Chemscore.DEClash>
0.0000

> <Gold.Chemscore.DEInternal>
1.6107

> <Gold.Chemscore.Rot>
1.3417

> <Gold.Chemscore.Internal.Correction>
   9.000000E+99

> <Gold.Chemscore.Hbonds>
donor molecule, donor type, donor heavy atom, donor atom, acceptor molecule, acceptor atom, score
      L1  H     3    24       P1 10957  0.94
      L1  H     6    25       P1 10957  0.97

> <Gold.Chemscore.Hbond.Weighted>
-6.5332

> <Gold.Chemscore.Metal.Weighted>
-0.0000

> <Gold.Chemscore.Lipo.Weighted>
-4.6856

> <Gold.Chemscore.Internal_Hbond.Weighted>
0.0000

> <Gold.Chemscore.DEClash.Weighted>
0.0000

> <Gold.Chemscore.DEInternal.Weighted>
1.6107

> <Gold.Chemscore.Rot.Weighted>
3.4347

> <Gold.Chemscore.Internal.Correction.Weighted>
   9.000000E+99

> <Gold.Protein.RotatedTorsions>
[ 6907 6896 6895 6894 ] final  113.68 input  -60.11 | X-H torsion
[ 7974 7965 7964 7962 ] final -139.88 input  175.53 | X-H torsion
[ 8008 7997 7996 7995 ] final -116.00 input   59.86 | X-H torsion
[ 10167 10162 10161 10158 ] final   93.54 input  -65.29 | X-H torsion
[ 10718 10713 10712 10709 ] final  107.08 input   66.30 | X-H torsion
[ 10763 10752 10751 10750 ] final  -28.52 input  -60.55 | X-H torsion
[ 11005 11000 10999 10996 ] final   58.21 input  -57.11 | X-H torsion

> <Gold.Protein.ActiveResidues>
 VAL166  LYS551  ARG553  GLY616  TRP617  ASP618  TYR619  PRO620  LYS621  CYS622 
 ASP623  PHE694  ASN695  SER759  ASP760  ASP761  ALA762  ILE779  LEU786  VAL792 
 PHE793  MET794  SER795  GLU796  ALA797  LYS798  CYS799  TRP800  GLU811  SER814 

> <Gold.Protein.RotatedAtoms>
  152.4847  133.8342  159.7118 H   0  0  0  0  0  0  0  0  0  0  0  0  # atno 6907 bound_to 6896
  150.8923  133.7217  159.2908 H   0  0  0  0  0  0  0  0  0  0  0  0  # atno 6908 bound_to 6896
  151.4686  135.1048  159.9797 H   0  0  0  0  0  0  0  0  0  0  0  0  # atno 6909 bound_to 6896
  144.8641  140.6266  143.5309 H   0  0  0  0  0  0  0  0  0  0  0  0  # atno 7974 bound_to 7965
  155.0609  140.0393  157.2576 H   0  0  0  0  0  0  0  0  0  0  0  0  # atno 8008 bound_to 7997
  154.7060  140.2683  155.6650 H   0  0  0  0  0  0  0  0  0  0  0  0  # atno 8009 bound_to 7997
  156.2775  140.2731  156.1686 H   0  0  0  0  0  0  0  0  0  0  0  0  # atno 8010 bound_to 7997
  139.8170  144.6748  150.9567 H   0  0  0  0  0  0  0  0  0  0  0  0  # atno 10167 bound_to 10162
  157.6643  131.0865  150.6103 H   0  0  0  0  0  0  0  0  0  0  0  0  # atno 10718 bound_to 10713
  153.7497  135.6927  153.4948 H   0  0  0  0  0  0  0  0  0  0  0  0  # atno 10763 bound_to 10752
  153.2012  135.4436  155.0267 H   0  0  0  0  0  0  0  0  0  0  0  0  # atno 10764 bound_to 10752
  154.8192  135.3413  154.7018 H   0  0  0  0  0  0  0  0  0  0  0  0  # atno 10765 bound_to 10752
  140.0395  134.5895  155.9401 H   0  0  0  0  0  0  0  0  0  0  0  0  # atno 11005 bound_to 11000
  145.4255  139.1557  143.4051 LP  0  0  0  0  0  0  0  0  0  0  0  0  # atno 17320 bound_to 7965
  146.2883  140.4368  142.8749 LP  0  0  0  0  0  0  0  0  0  0  0  0  # atno 17321 bound_to 7965
  140.7815  143.4129  151.0964 LP  0  0  0  0  0  0  0  0  0  0  0  0  # atno 17342 bound_to 10162
  139.7792  143.8380  152.3134 LP  0  0  0  0  0  0  0  0  0  0  0  0  # atno 17343 bound_to 10162
  156.6405  130.4457  149.5754 LP  0  0  0  0  0  0  0  0  0  0  0  0  # atno 17370 bound_to 10713
  156.2213  130.6739  151.1371 LP  0  0  0  0  0  0  0  0  0  0  0  0  # atno 17371 bound_to 10713
  141.1875  133.6560  156.5285 LP  0  0  0  0  0  0  0  0  0  0  0  0  # atno 17394 bound_to 11000
  140.4093  134.7287  157.4826 LP  0  0  0  0  0  0  0  0  0  0  0  0  # atno 17395 bound_to 11000

$$$$
