AV-unprocessed.smi:1695|AV-procd|sdf|6795|dock6
  -GOLD-   22720 7563D 1   1.00000     0.00000
 Structure written by MMmdl.
 52 54  0  0  0  0  0  0  0  0  3 V2000
  152.3906  143.0738  161.0838 C   0  0  0  0  0  0  0  0  0  0  0  0
  152.2138  142.3053  159.7852 C   0  0  0  0  0  0  0  0  0  0  0  0
  151.3237  142.8171  158.8146 C   0  0  0  0  0  0  0  0  0  0  0  0
  151.1802  142.0903  157.6390 C   0  0  0  0  0  0  0  0  0  0  0  0
  150.3910  142.3255  156.5116 N   0  3  0  0  0  0  0  0  0  0  0  0
  150.5821  141.3271  155.6062 C   0  0  0  0  0  0  0  0  0  0  0  0
  151.4879  140.4596  156.1354 N   0  0  0  0  0  0  0  0  0  0  0  0
  152.0253  139.2138  155.5701 C   0  0  0  0  0  0  0  0  0  0  0  0
  150.9265  138.2689  155.0456 C   0  0  2  0  0  0  0  0  0  0  0  0
  151.5605  137.0971  154.5746 O   0  0  0  0  0  0  0  0  0  0  0  0
  150.0769  138.8682  153.9035 C   0  0  0  0  0  0  0  0  0  0  0  0
  148.6970  138.3181  153.8792 N   0  3  1  0  0  0  0  0  0  0  0  0
  148.1609  138.0094  155.2314 C   0  0  0  0  0  0  0  0  0  0  0  0
  146.8000  137.3006  155.1354 C   0  0  0  0  0  0  0  0  0  0  0  0
  145.7856  138.1454  154.3405 C   0  0  2  0  0  0  0  0  0  0  0  0
  144.4501  137.4037  154.1923 C   0  0  0  0  0  0  0  0  0  0  0  0
  143.4760  138.0263  153.5247 N   0  0  0  0  0  0  0  0  0  0  0  0
  144.2984  136.2827  154.6738 O   0  0  0  0  0  0  0  0  0  0  0  0
  146.3856  138.4893  152.9633 C   0  0  0  0  0  0  0  0  0  0  0  0
  147.7575  139.1695  153.1057 C   0  0  0  0  0  0  0  0  0  0  0  0
  151.8860  140.8930  157.4070 C   0  0  0  0  0  0  0  0  0  0  0  0
  152.7698  140.3769  158.3530 C   0  0  0  0  0  0  0  0  0  0  0  0
  152.9273  141.1003  159.5570 C   0  0  0  0  0  0  0  0  0  0  0  0
  153.8799  140.5574  160.6088 C   0  0  0  0  0  0  0  0  0  0  0  0
  151.7882  143.9827  161.0951 H   0  0  0  0  0  0  0  0  0  0  0  0
  153.4327  143.3638  161.2199 H   0  0  0  0  0  0  0  0  0  0  0  0
  152.0865  142.4628  161.9340 H   0  0  0  0  0  0  0  0  0  0  0  0
  150.7759  143.7333  158.9820 H   0  0  0  0  0  0  0  0  0  0  0  0
  150.0986  141.2381  154.6436 H   0  0  0  0  0  0  0  0  0  0  0  0
  152.7520  139.4478  154.7924 H   0  0  0  0  0  0  0  0  0  0  0  0
  152.5848  138.7226  156.3677 H   0  0  0  0  0  0  0  0  0  0  0  0
  150.2898  137.9875  155.8837 H   0  0  0  0  0  0  0  0  0  0  0  0
  151.0781  136.7658  153.8320 H   0  0  0  0  0  0  0  0  0  0  0  0
  150.0202  139.9546  153.9821 H   0  0  0  0  0  0  0  0  0  0  0  0
  150.5778  138.6589  152.9571 H   0  0  0  0  0  0  0  0  0  0  0  0
  148.8524  137.3708  155.7796 H   0  0  0  0  0  0  0  0  0  0  0  0
  148.0627  138.9320  155.8057 H   0  0  0  0  0  0  0  0  0  0  0  0
  146.9365  136.3269  154.6619 H   0  0  0  0  0  0  0  0  0  0  0  0
  146.4200  137.1047  156.1390 H   0  0  0  0  0  0  0  0  0  0  0  0
  145.6101  139.0765  154.8827 H   0  0  0  0  0  0  0  0  0  0  0  0
  142.5796  137.5790  153.3993 H   0  0  0  0  0  0  0  0  0  0  0  0
  143.6415  138.9474  153.1445 H   0  0  0  0  0  0  0  0  0  0  0  0
  146.4962  137.5853  152.3615 H   0  0  0  0  0  0  0  0  0  0  0  0
  145.7091  139.1446  152.4127 H   0  0  0  0  0  0  0  0  0  0  0  0
  147.6514  140.1383  153.5965 H   0  0  0  0  0  0  0  0  0  0  0  0
  148.1638  139.3592  152.1114 H   0  0  0  0  0  0  0  0  0  0  0  0
  153.3158  139.4606  158.1861 H   0  0  0  0  0  0  0  0  0  0  0  0
  154.3241  139.6121  160.2957 H   0  0  0  0  0  0  0  0  0  0  0  0
  153.3551  140.3820  161.5481 H   0  0  0  0  0  0  0  0  0  0  0  0
  154.6909  141.2628  160.7915 H   0  0  0  0  0  0  0  0  0  0  0  0
  148.7551  137.4421  153.3786 H   0  0  0  0  0  0  0  0  0  0  0  0
  149.7620  143.1062  156.3710 H   0  0  0  0  0  0  0  0  0  0  0  0
  1  2  1  0  0  0  0
  1 25  1  0  0  0  0
  1 26  1  0  0  0  0
  1 27  1  0  0  0  0
  2 23  1  0  0  0  0
  2  3  2  0  0  0  0
  3  4  1  0  0  0  0
  3 28  1  0  0  0  0
  4 21  2  0  0  0  0
  4  5  1  0  0  0  0
  5  6  2  0  0  0  0
  5 52  1  0  0  0  0
  6  7  1  0  0  0  0
  6 29  1  0  0  0  0
  7  8  1  0  0  0  0
  7 21  1  0  0  0  0
  8  9  1  0  0  0  0
  8 30  1  0  0  0  0
  8 31  1  0  0  0  0
  9 10  1  0  0  0  0
  9 11  1  0  0  0  0
  9 32  1  0  0  0  0
 10 33  1  0  0  0  0
 11 12  1  0  0  0  0
 11 34  1  0  0  0  0
 11 35  1  0  0  0  0
 12 20  1  0  0  0  0
 12 13  1  0  0  0  0
 12 51  1  0  0  0  0
 13 14  1  0  0  0  0
 13 36  1  0  0  0  0
 13 37  1  0  0  0  0
 14 15  1  0  0  0  0
 14 38  1  0  0  0  0
 14 39  1  0  0  0  0
 15 16  1  0  0  0  0
 15 19  1  0  0  0  0
 15 40  1  0  0  0  0
 16 17  1  0  0  0  0
 16 18  2  0  0  0  0
 17 41  1  0  0  0  0
 17 42  1  0  0  0  0
 19 20  1  0  0  0  0
 19 43  1  0  0  0  0
 19 44  1  0  0  0  0
 20 45  1  0  0  0  0
 20 46  1  0  0  0  0
 21 22  1  0  0  0  0
 22 23  2  0  0  0  0
 22 47  1  0  0  0  0
 23 24  1  0  0  0  0
 24 48  1  0  0  0  0
 24 49  1  0  0  0  0
 24 50  1  0  0  0  0
M  CHG  1   5   1
M  CHG  1  12   1
M  END
> <s_m_source_file>
AV-unprocessed.smi

> <i_m_source_file_index>
1695

> <i_lp_mmshare_version>
43012

> <i_f3d_flags>
0

> <s_epik_input>
W0NIM11jKFtjSF0xKWMoW0NIM10pW2NIXWMoYzEyKW4oW2NIXW4yKVtDSDJdW0NASF0oW09IXSlbQ0gyXU4zW0NIMl1bQ0gyXVtDSF0oQyg9TylbTkgyXSlbQ0gyXVtDSDJdMw==

> <s_epik_cmdline>
J2VwaWtfcHl0aG9uJywgJy1waCcsICc3LjAnLCAnLXRuJywgJzgnLCAnLW1hJywgJzIwMCcsICctbWV0YWxfYmluZGluZycsICctaW1hZScsICc8aW5maWxlLm1hZT4nLCAnLW9tYWUnLCAnPG91dGZpbGUubWFlPic=

> <r_epik_Ionization_Penalty>
1.20173

> <r_epik_Ionization_Penalty_Charging>
1.20172

> <r_epik_Ionization_Penalty_Neutral>
1.7852e-06

> <r_epik_State_Penalty>
1.28089

> <r_epik_Charging_Adjusted_Penalty>
2.48261

> <i_epik_Tot_Q>
2

> <i_epik_Tot_abs_Q>
2

> <r_epik_Metal_State_Penalty>
1.35652

> <b_epik_Metal_Only>
0

> <s_lp_Force_Field>
OPLS_2005

> <r_lp_Energy>
30.6346

> <b_lp_Chiralities_Consistent>
1

> <s_lp_Variant>
AV-unprocessed.smi:1695-7

> <Gold.Version>
5.8.1

> <Gold.Id.Protein>
6NUR|6NUR_protein|mol2

> <Gold.PLP.Fitness>
56.2299

> <Gold.PLP.PLP>
-40.2102

> <Gold.PLP.part.hbond>
-4.0000

> <Gold.PLP.part.metal>
0.0000

> <Gold.PLP.part.buried>
-1.5668

> <Gold.PLP.part.nonpolar>
-33.5491

> <Gold.PLP.part.repulsive>
0.0934

> <Gold.PLP.ligand.clash>
0.0000

> <Gold.PLP.ligand.torsion>
0.6815

> <Gold.PLP.Chemscore.Hbond>
5.7819

> <Gold.PLP.Chemscore.CHOScore>
0.0000

> <Gold.PLP.Chemscore.Metal>
0.0000

> <Gold.Chemscore.Hbonds>
donor molecule, donor type, donor heavy atom, donor atom, acceptor molecule, acceptor atom, score
      L1  H     5    52       P1  8028  2.00
      L1  H    12    51       P1  7948  2.00
      L1  H    17    42       P1 10175  1.00
      P1  H 10752 10763       L1    10  0.69

> <Gold.PLP.Chemscore.Internal.Correction>
0.0370

> <Gold.Rescore>
     Score         DG    S(hbond)    S(metal)    S(lipo)     H(rot)  DE(clash)    DE(int)     intcor
     18.60     -20.66       2.97        0.00     108.57       2.91       1.28       0.77       ----

> <Gold.Chemscore.Fitness>
18.6025

> <Gold.Chemscore.DG>
-20.6591

> <Gold.Chemscore.ZeroCoef>
-5.4800

> <Gold.Chemscore.Hbond>
2.9739

> <Gold.Chemscore.Metal>
0.0000

> <Gold.Chemscore.Lipo>
108.5704

> <Gold.Chemscore.Internal_Hbond>
0.0000

> <Gold.Chemscore.DEClash>
1.2836

> <Gold.Chemscore.DEInternal>
0.7731

> <Gold.Chemscore.Rot>
2.9127

> <Gold.Chemscore.Internal.Correction>
   9.000000E+99

> <Gold.Chemscore.Hbonds>
donor molecule, donor type, donor heavy atom, donor atom, acceptor molecule, acceptor atom, score
      L1  H     5    52       P1  8028  0.98
      L1  H    10    33       P1  7949  0.01
      L1  H    12    51       P1  7948  0.99
      L1  H    17    42       P1 10175  1.00
      P1  H 10752 10763       L1    10  0.13

> <Gold.Chemscore.Hbond.Weighted>
-9.9328

> <Gold.Chemscore.Metal.Weighted>
-0.0000

> <Gold.Chemscore.Lipo.Weighted>
-12.7027

> <Gold.Chemscore.Internal_Hbond.Weighted>
0.0000

> <Gold.Chemscore.DEClash.Weighted>
1.2836

> <Gold.Chemscore.DEInternal.Weighted>
0.7731

> <Gold.Chemscore.Rot.Weighted>
7.4565

> <Gold.Chemscore.Internal.Correction.Weighted>
   9.000000E+99

> <Gold.Protein.RotatedTorsions>
[ 6907 6896 6895 6894 ] final  139.52 input  -60.11 | X-H torsion
[ 7974 7965 7964 7962 ] final   12.66 input  175.53 | X-H torsion
[ 8008 7997 7996 7995 ] final   58.50 input   59.86 | X-H torsion
[ 10167 10162 10161 10158 ] final -132.63 input  -65.29 | X-H torsion
[ 10718 10713 10712 10709 ] final -168.44 input   66.30 | X-H torsion
[ 10763 10752 10751 10750 ] final   69.05 input  -60.55 | X-H torsion
[ 11005 11000 10999 10996 ] final  -14.73 input  -57.11 | X-H torsion

> <Gold.Protein.ActiveResidues>
 VAL166  LYS551  ARG553  GLY616  TRP617  ASP618  TYR619  PRO620  LYS621  CYS622 
 ASP623  PHE694  ASN695  SER759  ASP760  ASP761  ALA762  ILE779  LEU786  VAL792 
 PHE793  MET794  SER795  GLU796  ALA797  LYS798  CYS799  TRP800  GLU811  SER814 

> <Gold.Protein.RotatedAtoms>
  152.2540  133.5239  159.5341 H   0  0  0  0  0  0  0  0  0  0  0  0  # atno 6907 bound_to 6896
  150.7103  134.0922  159.3944 H   0  0  0  0  0  0  0  0  0  0  0  0  # atno 6908 bound_to 6896
  151.8841  135.0442  160.0542 H   0  0  0  0  0  0  0  0  0  0  0  0  # atno 6909 bound_to 6896
  146.2346  139.9304  142.8497 H   0  0  0  0  0  0  0  0  0  0  0  0  # atno 7974 bound_to 7965
  155.5509  140.3486  155.4468 H   0  0  0  0  0  0  0  0  0  0  0  0  # atno 8008 bound_to 7997
  156.0583  140.1334  156.9996 H   0  0  0  0  0  0  0  0  0  0  0  0  # atno 8009 bound_to 7997
  154.4467  140.0990  156.6464 H   0  0  0  0  0  0  0  0  0  0  0  0  # atno 8010 bound_to 7997
  139.9066  143.6544  152.2584 H   0  0  0  0  0  0  0  0  0  0  0  0  # atno 10167 bound_to 10162
  156.6970  130.9181  151.3075 H   0  0  0  0  0  0  0  0  0  0  0  0  # atno 10718 bound_to 10713
  153.0267  135.5225  154.7228 H   0  0  0  0  0  0  0  0  0  0  0  0  # atno 10763 bound_to 10752
  154.6279  135.2896  155.0253 H   0  0  0  0  0  0  0  0  0  0  0  0  # atno 10764 bound_to 10752
  154.1216  135.6606  153.4956 H   0  0  0  0  0  0  0  0  0  0  0  0  # atno 10765 bound_to 10752
  140.7894  133.8300  155.9365 H   0  0  0  0  0  0  0  0  0  0  0  0  # atno 11005 bound_to 11000
  145.2049  140.9871  143.4134 LP  0  0  0  0  0  0  0  0  0  0  0  0  # atno 17320 bound_to 7965
  144.9741  139.3850  143.6294 LP  0  0  0  0  0  0  0  0  0  0  0  0  # atno 17321 bound_to 7965
  139.6979  144.7639  151.1324 LP  0  0  0  0  0  0  0  0  0  0  0  0  # atno 17342 bound_to 10162
  140.7695  143.5498  150.9217 LP  0  0  0  0  0  0  0  0  0  0  0  0  # atno 17343 bound_to 10162
  157.6987  130.9310  150.0722 LP  0  0  0  0  0  0  0  0  0  0  0  0  # atno 17370 bound_to 10713
  156.1756  130.3648  149.9104 LP  0  0  0  0  0  0  0  0  0  0  0  0  # atno 17371 bound_to 10713
  140.9405  134.1907  157.4801 LP  0  0  0  0  0  0  0  0  0  0  0  0  # atno 17394 bound_to 11000
  139.8733  134.9869  156.5347 LP  0  0  0  0  0  0  0  0  0  0  0  0  # atno 17395 bound_to 11000

$$$$
