AV-unprocessed.smi:2751|AV-procd|sdf|10604|dock2
  -GOLD-   2272015 53D 1   1.00000     0.00000
 Structure written by MMmdl.
 33 34  0  0  0  0  0  0  0  0  2 V2000
  151.8847  139.9215  154.8722 O   0  0  0  0  0  0  0  0  0  0  0  0
  150.7593  139.8788  155.3752 C   0  0  0  0  0  0  0  0  0  0  0  0
  150.5519  140.3982  156.5943 N   0  0  0  0  0  0  0  0  0  0  0  0
  151.5588  141.0413  157.4322 C   0  0  0  0  0  0  0  0  0  0  0  0
  151.4355  142.5743  157.3904 C   0  0  0  0  0  0  0  0  0  0  0  0
  152.0803  143.2591  158.6058 C   0  0  1  0  0  0  0  0  0  0  0  0
  151.3203  144.5350  159.0183 C   0  0  0  0  0  0  0  0  0  0  0  0
  151.9441  145.1522  160.2753 C   0  0  0  0  0  0  0  0  0  0  0  0
  152.0380  144.0932  161.3788 C   0  0  0  0  0  0  0  0  0  0  0  0
  152.7515  142.8371  160.8538 C   0  0  0  0  0  0  0  0  0  0  0  0
  152.0783  142.3432  159.6998 O   0  0  0  0  0  0  0  0  0  0  0  0
  149.6508  139.3447  154.8142 N   0  5  0  0  0  0  0  0  0  0  0  0
  148.6230  140.1403  154.4769 C   0  0  0  0  0  0  0  0  0  0  0  0
  147.4814  139.7570  153.9026 N   0  0  0  0  0  0  0  0  0  0  0  0
  146.7270  140.9102  153.7514 C   0  0  0  0  0  0  0  0  0  0  0  0
  147.4518  141.9549  154.2562 C   0  0  0  0  0  0  0  0  0  0  0  0
  148.6481  141.4815  154.7196 O   0  0  0  0  0  0  0  0  0  0  0  0
  149.6163  140.3412  156.9687 H   0  0  0  0  0  0  0  0  0  0  0  0
  151.4221  140.6835  158.4528 H   0  0  0  0  0  0  0  0  0  0  0  0
  152.5580  140.7273  157.1258 H   0  0  0  0  0  0  0  0  0  0  0  0
  151.9114  142.9458  156.4820 H   0  0  0  0  0  0  0  0  0  0  0  0
  150.3844  142.8583  157.3235 H   0  0  0  0  0  0  0  0  0  0  0  0
  153.1108  143.5186  158.3556 H   0  0  0  0  0  0  0  0  0  0  0  0
  151.3283  145.2606  158.2044 H   0  0  0  0  0  0  0  0  0  0  0  0
  150.2742  144.2937  159.2117 H   0  0  0  0  0  0  0  0  0  0  0  0
  152.9404  145.5304  160.0429 H   0  0  0  0  0  0  0  0  0  0  0  0
  151.3549  146.0048  160.6138 H   0  0  0  0  0  0  0  0  0  0  0  0
  152.5660  144.4946  162.2441 H   0  0  0  0  0  0  0  0  0  0  0  0
  151.0361  143.8273  161.7179 H   0  0  0  0  0  0  0  0  0  0  0  0
  153.7942  143.0520  160.6153 H   0  0  0  0  0  0  0  0  0  0  0  0
  152.7542  142.0603  161.6184 H   0  0  0  0  0  0  0  0  0  0  0  0
  145.7446  140.8958  153.3034 H   0  0  0  0  0  0  0  0  0  0  0  0
  147.2758  143.0154  154.3551 H   0  0  0  0  0  0  0  0  0  0  0  0
  1  2  2  0  0  0  0
  2 12  1  0  0  0  0
  2  3  1  0  0  0  0
  3  4  1  0  0  0  0
  3 18  1  0  0  0  0
  4  5  1  0  0  0  0
  4 19  1  0  0  0  0
  4 20  1  0  0  0  0
  5  6  1  0  0  0  0
  5 21  1  0  0  0  0
  5 22  1  0  0  0  0
  6 11  1  0  0  0  0
  6  7  1  0  0  0  0
  6 23  1  0  0  0  0
  7  8  1  0  0  0  0
  7 24  1  0  0  0  0
  7 25  1  0  0  0  0
  8  9  1  0  0  0  0
  8 26  1  0  0  0  0
  8 27  1  0  0  0  0
  9 10  1  0  0  0  0
  9 28  1  0  0  0  0
  9 29  1  0  0  0  0
 10 11  1  0  0  0  0
 10 30  1  0  0  0  0
 10 31  1  0  0  0  0
 12 13  1  0  0  0  0
 13 17  1  0  0  0  0
 13 14  2  0  0  0  0
 14 15  1  0  0  0  0
 15 32  1  0  0  0  0
 15 16  2  0  0  0  0
 16 33  1  0  0  0  0
 16 17  1  0  0  0  0
M  CHG  1  12  -1
M  END
> <s_m_source_file>
AV-unprocessed.smi

> <i_m_source_file_index>
2751

> <i_lp_mmshare_version>
43012

> <i_f3d_flags>
0

> <s_epik_input>
bzFbY0hdW2NIXW5jMVtOSF1DKD1PKVtOSF1bQ0gyXVtDSDJdW0NAQEhdMltDSDJdW0NIMl1bQ0gyXVtDSDJdTzI=

> <s_epik_cmdline>
J2VwaWtfcHl0aG9uJywgJy1waCcsICc3LjAnLCAnLXRuJywgJzgnLCAnLW1hJywgJzIwMCcsICctbWV0YWxfYmluZGluZycsICctaW1hZScsICc8aW5maWxlLm1hZT4nLCAnLW9tYWUnLCAnPG91dGZpbGUubWFlPic=

> <r_lp_tautomer_probability>
0.107061

> <r_epik_Ionization_Penalty>
11.077

> <r_epik_Ionization_Penalty_Charging>
7.79122

> <r_epik_Ionization_Penalty_Neutral>
3.28583

> <r_epik_State_Penalty>
5.8984

> <r_epik_Charging_Adjusted_Penalty>
13.6896

> <i_epik_Tot_Q>
-1

> <i_epik_Tot_abs_Q>
1

> <r_epik_Metal_State_Penalty>
1.82322

> <b_epik_Metal_Only>
1

> <s_lp_Force_Field>
OPLS_2005

> <r_lp_Energy>
3.95886

> <b_lp_Chiralities_Consistent>
1

> <s_lp_Variant>
AV-unprocessed.smi:2751-10

> <Gold.Version>
5.8.1

> <Gold.Id.Protein>
6NUR|6NUR_protein|mol2

> <Gold.PLP.Fitness>
42.9832

> <Gold.PLP.PLP>
-36.9117

> <Gold.PLP.part.hbond>
-1.0000

> <Gold.PLP.part.metal>
0.0000

> <Gold.PLP.part.buried>
-7.1854

> <Gold.PLP.part.nonpolar>
-29.4009

> <Gold.PLP.part.repulsive>
0.5316

> <Gold.PLP.ligand.clash>
0.0000

> <Gold.PLP.ligand.torsion>
1.3061

> <Gold.PLP.Chemscore.Hbond>
0.9280

> <Gold.PLP.Chemscore.CHOScore>
1.9429

> <Gold.PLP.Chemscore.Metal>
0.0000

> <Gold.Chemscore.Hbonds>
donor molecule, donor type, donor heavy atom, donor atom, acceptor molecule, acceptor atom, score
      P1  H  7989  7998       L1     1  0.93
      L1  C    15    32       P1 10175  1.00
      L1  C    16    33       P1  8028  0.69

> <Gold.PLP.Chemscore.Internal.Correction>
0.0709

> <Gold.Rescore>
     Score         DG    S(hbond)    S(metal)    S(lipo)     H(rot)  DE(clash)    DE(int)     intcor
     12.45     -14.95       0.95        0.00      88.98       1.60       0.01       2.49       ----

> <Gold.Chemscore.Fitness>
12.4452

> <Gold.Chemscore.DG>
-14.9500

> <Gold.Chemscore.ZeroCoef>
-5.4800

> <Gold.Chemscore.Hbond>
0.9482

> <Gold.Chemscore.Metal>
0.0000

> <Gold.Chemscore.Lipo>
88.9842

> <Gold.Chemscore.Internal_Hbond>
0.0000

> <Gold.Chemscore.DEClash>
0.0127

> <Gold.Chemscore.DEInternal>
2.4921

> <Gold.Chemscore.Rot>
1.6048

> <Gold.Chemscore.Internal.Correction>
   9.000000E+99

> <Gold.Chemscore.Hbonds>
donor molecule, donor type, donor heavy atom, donor atom, acceptor molecule, acceptor atom, score
      P1  H  7989  7998       L1     1  0.41

> <Gold.Chemscore.Hbond.Weighted>
-3.1671

> <Gold.Chemscore.Metal.Weighted>
-0.0000

> <Gold.Chemscore.Lipo.Weighted>
-10.4112

> <Gold.Chemscore.Internal_Hbond.Weighted>
0.0000

> <Gold.Chemscore.DEClash.Weighted>
0.0127

> <Gold.Chemscore.DEInternal.Weighted>
2.4921

> <Gold.Chemscore.Rot.Weighted>
4.1082

> <Gold.Chemscore.Internal.Correction.Weighted>
   9.000000E+99

> <Gold.Protein.RotatedTorsions>
[ 6907 6896 6895 6894 ] final   91.68 input  -60.11 | X-H torsion
[ 7974 7965 7964 7962 ] final  -45.26 input  175.53 | X-H torsion
[ 8008 7997 7996 7995 ] final   44.72 input   59.86 | X-H torsion
[ 10167 10162 10161 10158 ] final  131.05 input  -65.29 | X-H torsion
[ 10718 10713 10712 10709 ] final  160.70 input   66.30 | X-H torsion
[ 10763 10752 10751 10750 ] final  -39.31 input  -60.55 | X-H torsion
[ 11005 11000 10999 10996 ] final -149.99 input  -57.11 | X-H torsion

> <Gold.Protein.ActiveResidues>
 VAL166  LYS551  ARG553  GLY616  TRP617  ASP618  TYR619  PRO620  LYS621  CYS622 
 ASP623  PHE694  ASN695  SER759  ASP760  ASP761  ALA762  ILE779  LEU786  VAL792 
 PHE793  MET794  SER795  GLU796  ALA797  LYS798  CYS799  TRP800  GLU811  SER814 

> <Gold.Protein.RotatedAtoms>
  152.5451  134.1619  159.8560 H   0  0  0  0  0  0  0  0  0  0  0  0  # atno 6907 bound_to 6896
  151.1636  133.4822  159.2601 H   0  0  0  0  0  0  0  0  0  0  0  0  # atno 6908 bound_to 6896
  151.1347  135.0159  159.8653 H   0  0  0  0  0  0  0  0  0  0  0  0  # atno 6909 bound_to 6896
  145.9838  140.7255  142.9350 H   0  0  0  0  0  0  0  0  0  0  0  0  # atno 7974 bound_to 7965
  155.3240  140.3398  155.4240 H   0  0  0  0  0  0  0  0  0  0  0  0  # atno 8008 bound_to 7997
  156.1895  140.1692  156.8157 H   0  0  0  0  0  0  0  0  0  0  0  0  # atno 8009 bound_to 7997
  154.5425  140.0722  156.8517 H   0  0  0  0  0  0  0  0  0  0  0  0  # atno 8010 bound_to 7997
  139.5401  144.6722  151.4652 H   0  0  0  0  0  0  0  0  0  0  0  0  # atno 10167 bound_to 10162
  157.1468  131.0554  151.2300 H   0  0  0  0  0  0  0  0  0  0  0  0  # atno 10718 bound_to 10713
  153.9272  135.6776  153.4746 H   0  0  0  0  0  0  0  0  0  0  0  0  # atno 10763 bound_to 10752
  153.0998  135.4833  154.8843 H   0  0  0  0  0  0  0  0  0  0  0  0  # atno 10764 bound_to 10752
  154.7447  135.3169  154.8623 H   0  0  0  0  0  0  0  0  0  0  0  0  # atno 10765 bound_to 10752
  140.7449  134.3472  157.5139 H   0  0  0  0  0  0  0  0  0  0  0  0  # atno 11005 bound_to 11000
  144.6869  140.2953  143.7271 LP  0  0  0  0  0  0  0  0  0  0  0  0  # atno 17320 bound_to 7965
  145.7730  139.1864  143.2201 LP  0  0  0  0  0  0  0  0  0  0  0  0  # atno 17321 bound_to 7965
  140.6627  143.8463  150.6906 LP  0  0  0  0  0  0  0  0  0  0  0  0  # atno 17342 bound_to 10162
  140.1863  143.4073  152.1896 LP  0  0  0  0  0  0  0  0  0  0  0  0  # atno 17343 bound_to 10162
  157.4257  130.7462  149.6949 LP  0  0  0  0  0  0  0  0  0  0  0  0  # atno 17370 bound_to 10713
  155.9778  130.4059  150.3690 LP  0  0  0  0  0  0  0  0  0  0  0  0  # atno 17371 bound_to 10713
  139.8798  134.9105  156.3015 LP  0  0  0  0  0  0  0  0  0  0  0  0  # atno 17394 bound_to 11000
  140.9803  133.7271  156.0662 LP  0  0  0  0  0  0  0  0  0  0  0  0  # atno 17395 bound_to 11000

$$$$
