AV-unprocessed.smi:1295|AV-procd|sdf|5402|dock2
  -GOLD-   22720 4563D 1   1.00000     0.00000
 Structure written by MMmdl.
 43 44  0  0  0  0  0  0  0  0  1 V2000
  147.0084  138.7386  152.4210 C   0  0  0  0  0  0  0  0  0  0  0  0
  147.5736  139.3245  153.6972 C   0  0  0  0  0  0  0  0  0  0  0  0
  148.5391  138.7898  154.3695 N   0  0  0  0  0  0  0  0  0  0  0  0
  148.9762  139.4237  155.5409 C   0  0  0  0  0  0  0  0  0  0  0  0
  150.1094  138.7303  156.2783 C   0  0  0  0  0  0  0  0  0  0  0  0
  148.4099  140.5862  155.9796 C   0  0  0  0  0  0  0  0  0  0  0  0
  148.8601  141.2953  157.2553 C   0  0  0  0  0  0  0  0  0  0  0  0
  150.3455  141.6583  157.3174 C   0  0  0  0  0  0  0  0  0  0  0  0
  151.0859  141.3991  156.3689 O   0  0  0  0  0  0  0  0  0  0  0  0
  150.7603  142.2633  158.4411 N   0  0  0  0  0  0  0  0  0  0  0  0
  152.1176  142.7352  158.7208 C   0  0  1  0  0  0  0  0  0  0  0  0
  152.1367  144.2768  158.7488 C   0  0  0  0  0  0  0  0  0  0  0  0
  151.3986  144.8453  159.9736 C   0  0  0  0  0  0  0  0  0  0  0  0
  151.9571  144.2612  161.2800 C   0  0  0  0  0  0  0  0  0  0  0  0
  151.9238  142.7242  161.2675 C   0  0  0  0  0  0  0  0  0  0  0  0
  152.6700  142.1498  160.0453 C   0  0  1  0  0  0  0  0  0  0  0  0
  152.6877  140.6118  160.0629 C   0  0  0  0  0  0  0  0  0  0  0  0
  147.3102  141.1897  155.2021 C   0  0  0  0  0  0  0  0  0  0  0  0
  146.7292  142.2303  155.5058 O   0  0  0  0  0  0  0  0  0  0  0  0
  146.9529  140.5089  154.0903 N   0  0  0  0  0  0  0  0  0  0  0  0
  146.2020  140.8795  153.5262 H   0  0  0  0  0  0  0  0  0  0  0  0
  146.6172  137.7386  152.6088 H   0  0  0  0  0  0  0  0  0  0  0  0
  147.7895  138.6652  151.6642 H   0  0  0  0  0  0  0  0  0  0  0  0
  146.2001  139.3515  152.0193 H   0  0  0  0  0  0  0  0  0  0  0  0
  150.9951  139.3654  156.3044 H   0  0  0  0  0  0  0  0  0  0  0  0
  150.3844  137.7942  155.7908 H   0  0  0  0  0  0  0  0  0  0  0  0
  149.8181  138.4973  157.3027 H   0  0  0  0  0  0  0  0  0  0  0  0
  148.2659  142.2026  157.3707 H   0  0  0  0  0  0  0  0  0  0  0  0
  148.6219  140.6961  158.1344 H   0  0  0  0  0  0  0  0  0  0  0  0
  150.0734  142.4262  159.1628 H   0  0  0  0  0  0  0  0  0  0  0  0
  152.7810  142.4216  157.9127 H   0  0  0  0  0  0  0  0  0  0  0  0
  153.1719  144.6204  158.7671 H   0  0  0  0  0  0  0  0  0  0  0  0
  151.7025  144.6765  157.8316 H   0  0  0  0  0  0  0  0  0  0  0  0
  151.4854  145.9321  159.9865 H   0  0  0  0  0  0  0  0  0  0  0  0
  150.3331  144.6242  159.8995 H   0  0  0  0  0  0  0  0  0  0  0  0
  152.9834  144.6018  161.4222 H   0  0  0  0  0  0  0  0  0  0  0  0
  151.3865  144.6383  162.1291 H   0  0  0  0  0  0  0  0  0  0  0  0
  152.3707  142.3457  162.1874 H   0  0  0  0  0  0  0  0  0  0  0  0
  150.8884  142.3812  161.2670 H   0  0  0  0  0  0  0  0  0  0  0  0
  153.7094  142.4721  160.1241 H   0  0  0  0  0  0  0  0  0  0  0  0
  151.6803  140.1950  160.0506 H   0  0  0  0  0  0  0  0  0  0  0  0
  153.1864  140.2379  160.9572 H   0  0  0  0  0  0  0  0  0  0  0  0
  153.2222  140.2169  159.1985 H   0  0  0  0  0  0  0  0  0  0  0  0
  1  2  1  0  0  0  0
  1 22  1  0  0  0  0
  1 23  1  0  0  0  0
  1 24  1  0  0  0  0
  2 20  1  0  0  0  0
  2  3  2  0  0  0  0
  3  4  1  0  0  0  0
  4  5  1  0  0  0  0
  4  6  2  0  0  0  0
  5 25  1  0  0  0  0
  5 26  1  0  0  0  0
  5 27  1  0  0  0  0
  6  7  1  0  0  0  0
  6 18  1  0  0  0  0
  7  8  1  0  0  0  0
  7 28  1  0  0  0  0
  7 29  1  0  0  0  0
  8  9  2  0  0  0  0
  8 10  1  0  0  0  0
 10 11  1  0  0  0  0
 10 30  1  0  0  0  0
 11 16  1  0  0  0  0
 11 12  1  0  0  0  0
 11 31  1  0  0  0  0
 12 13  1  0  0  0  0
 12 32  1  0  0  0  0
 12 33  1  0  0  0  0
 13 14  1  0  0  0  0
 13 34  1  0  0  0  0
 13 35  1  0  0  0  0
 14 15  1  0  0  0  0
 14 36  1  0  0  0  0
 14 37  1  0  0  0  0
 15 16  1  0  0  0  0
 15 38  1  0  0  0  0
 15 39  1  0  0  0  0
 16 17  1  0  0  0  0
 16 40  1  0  0  0  0
 17 41  1  0  0  0  0
 17 42  1  0  0  0  0
 17 43  1  0  0  0  0
 18 19  2  0  0  0  0
 18 20  1  0  0  0  0
 20 21  1  0  0  0  0
M  END
> <s_m_source_file>
AV-unprocessed.smi

> <i_m_source_file_index>
1295

> <i_lp_mmshare_version>
43012

> <i_f3d_flags>
0

> <s_epik_input>
W0NIM11jMW5jKFtDSDNdKWMoYyg9TylbbkhdMSlbQ0gyXUMoPU8pW05IXVtDQEBIXTJbQ0gyXVtDSDJdW0NIMl1bQ0gyXVtDQEhdMltDSDNd

> <s_epik_cmdline>
J2VwaWtfcHl0aG9uJywgJy1waCcsICc3LjAnLCAnLXRuJywgJzgnLCAnLW1hJywgJzIwMCcsICctbWV0YWxfYmluZGluZycsICctaW1hZScsICc8aW5maWxlLm1hZT4nLCAnLW9tYWUnLCAnPG91dGZpbGUubWFlPic=

> <r_lp_tautomer_probability>
0.839158

> <r_epik_Ionization_Penalty>
0.00037085

> <r_epik_Ionization_Penalty_Charging>
0.000336002

> <r_epik_Ionization_Penalty_Neutral>
3.48485e-05

> <r_epik_State_Penalty>
0.09125

> <r_epik_Charging_Adjusted_Penalty>
0.091586

> <i_epik_Tot_Q>
0

> <i_epik_Tot_abs_Q>
0

> <r_epik_Metal_State_Penalty>
0.251445

> <b_epik_Metal_Only>
0

> <s_lp_Force_Field>
OPLS_2005

> <r_lp_Energy>
11.7893

> <b_lp_Chiralities_Consistent>
1

> <s_lp_Variant>
AV-unprocessed.smi:1295-2

> <Gold.Version>
5.8.1

> <Gold.Id.Protein>
6NUR|6NUR_protein|mol2

> <Gold.PLP.Fitness>
37.9943

> <Gold.PLP.PLP>
-38.1275

> <Gold.PLP.part.hbond>
-0.1732

> <Gold.PLP.part.metal>
0.0000

> <Gold.PLP.part.buried>
-3.3197

> <Gold.PLP.part.nonpolar>
-33.9200

> <Gold.PLP.part.repulsive>
0.4634

> <Gold.PLP.ligand.clash>
0.0000

> <Gold.PLP.ligand.torsion>
0.0722

> <Gold.PLP.Chemscore.Hbond>
0.0000

> <Gold.PLP.Chemscore.CHOScore>
0.0000

> <Gold.PLP.Chemscore.Metal>
0.0000

> <Gold.PLP.Chemscore.Internal.Correction>
0.0112

> <Gold.Rescore>
     Score         DG    S(hbond)    S(metal)    S(lipo)     H(rot)  DE(clash)    DE(int)     intcor
     15.34     -15.40       0.95        0.00      90.09       1.48       0.00       0.05       ----

> <Gold.Chemscore.Fitness>
15.3440

> <Gold.Chemscore.DG>
-15.3988

> <Gold.Chemscore.ZeroCoef>
-5.4800

> <Gold.Chemscore.Hbond>
0.9484

> <Gold.Chemscore.Metal>
0.0000

> <Gold.Chemscore.Lipo>
90.0884

> <Gold.Chemscore.Internal_Hbond>
0.0000

> <Gold.Chemscore.DEClash>
0.0029

> <Gold.Chemscore.DEInternal>
0.0519

> <Gold.Chemscore.Rot>
1.4801

> <Gold.Chemscore.Internal.Correction>
   9.000000E+99

> <Gold.Chemscore.Hbond.Weighted>
-3.1676

> <Gold.Chemscore.Metal.Weighted>
-0.0000

> <Gold.Chemscore.Lipo.Weighted>
-10.5403

> <Gold.Chemscore.Internal_Hbond.Weighted>
0.0000

> <Gold.Chemscore.DEClash.Weighted>
0.0029

> <Gold.Chemscore.DEInternal.Weighted>
0.0519

> <Gold.Chemscore.Rot.Weighted>
3.7891

> <Gold.Chemscore.Internal.Correction.Weighted>
   9.000000E+99

> <Gold.Protein.RotatedTorsions>
[ 6907 6896 6895 6894 ] final  -75.57 input  -60.11 | X-H torsion
[ 7974 7965 7964 7962 ] final -162.12 input  175.53 | X-H torsion
[ 8008 7997 7996 7995 ] final  108.12 input   59.86 | X-H torsion
[ 10167 10162 10161 10158 ] final   67.37 input  -65.29 | X-H torsion
[ 10718 10713 10712 10709 ] final  -37.71 input   66.30 | X-H torsion
[ 10763 10752 10751 10750 ] final  171.93 input  -60.55 | X-H torsion
[ 11005 11000 10999 10996 ] final   93.13 input  -57.11 | X-H torsion

> <Gold.Protein.ActiveResidues>
 VAL166  LYS551  ARG553  GLY616  TRP617  ASP618  TYR619  PRO620  LYS621  CYS622 
 ASP623  PHE694  ASN695  SER759  ASP760  ASP761  ALA762  ILE779  LEU786  VAL792 
 PHE793  MET794  SER795  GLU796  ALA797  LYS798  CYS799  TRP800  GLU811  SER814 

> <Gold.Protein.RotatedAtoms>
  150.7055  134.4701  159.5421 H   0  0  0  0  0  0  0  0  0  0  0  0  # atno 6907 bound_to 6896
  152.2359  134.8274  160.0476 H   0  0  0  0  0  0  0  0  0  0  0  0  # atno 6908 bound_to 6896
  151.9073  133.3517  159.3888 H   0  0  0  0  0  0  0  0  0  0  0  0  # atno 6909 bound_to 6896
  144.7368  140.3299  143.6155 H   0  0  0  0  0  0  0  0  0  0  0  0  # atno 7974 bound_to 7965
  156.1878  140.3082  155.9272 H   0  0  0  0  0  0  0  0  0  0  0  0  # atno 8008 bound_to 7997
  155.3242  140.0457  157.3057 H   0  0  0  0  0  0  0  0  0  0  0  0  # atno 8009 bound_to 7997
  154.5416  140.2263  155.8641 H   0  0  0  0  0  0  0  0  0  0  0  0  # atno 8010 bound_to 7997
  140.0902  144.4994  150.7104 H   0  0  0  0  0  0  0  0  0  0  0  0  # atno 10167 bound_to 10162
  156.3121  130.4254  149.8040 H   0  0  0  0  0  0  0  0  0  0  0  0  # atno 10718 bound_to 10713
  154.4188  135.2757  155.1989 H   0  0  0  0  0  0  0  0  0  0  0  0  # atno 10763 bound_to 10752
  154.3943  135.6059  153.5864 H   0  0  0  0  0  0  0  0  0  0  0  0  # atno 10764 bound_to 10752
  152.9832  135.5911  154.4481 H   0  0  0  0  0  0  0  0  0  0  0  0  # atno 10765 bound_to 10752
  139.8814  134.8773  156.3674 H   0  0  0  0  0  0  0  0  0  0  0  0  # atno 11005 bound_to 11000
  145.7482  139.1785  143.2336 LP  0  0  0  0  0  0  0  0  0  0  0  0  # atno 17320 bound_to 7965
  146.1081  140.7462  142.9516 LP  0  0  0  0  0  0  0  0  0  0  0  0  # atno 17321 bound_to 7965
  140.7032  143.2449  151.4803 LP  0  0  0  0  0  0  0  0  0  0  0  0  # atno 17342 bound_to 10162
  139.5729  144.1887  152.1862 LP  0  0  0  0  0  0  0  0  0  0  0  0  # atno 17343 bound_to 10162
  156.5380  130.8287  151.3259 LP  0  0  0  0  0  0  0  0  0  0  0  0  # atno 17370 bound_to 10713
  157.7393  130.9829  150.2307 LP  0  0  0  0  0  0  0  0  0  0  0  0  # atno 17371 bound_to 10713
  140.9488  133.7465  156.0244 LP  0  0  0  0  0  0  0  0  0  0  0  0  # atno 17394 bound_to 11000
  140.8131  134.3376  157.5405 LP  0  0  0  0  0  0  0  0  0  0  0  0  # atno 17395 bound_to 11000

$$$$
