AV-unprocessed.smi:564|AV-procd|sdf|2949|dock2
  -GOLD-   2262023443D 1   1.00000     0.00000
 Structure written by MMmdl.
 50 51  0  0  0  0  0  0  0  0  2 V2000
  152.5403  137.7814  156.3003 C   0  0  0  0  0  0  0  0  0  0  0  0
  151.5665  138.7537  156.9025 C   0  0  0  0  0  0  0  0  0  0  0  0
  151.6924  139.0714  158.1798 N   0  0  0  0  0  0  0  0  0  0  0  0
  150.7000  139.9519  158.4171 N   0  0  0  0  0  0  0  0  0  0  0  0
  150.5542  140.5139  159.7458 C   0  0  0  0  0  0  0  0  0  0  0  0
  149.9467  140.1946  157.2850 C   0  0  0  0  0  0  0  0  0  0  0  0
  148.7910  141.1425  157.2805 C   0  0  0  0  0  0  0  0  0  0  0  0
  150.4750  139.4299  156.2792 C   0  0  0  0  0  0  0  0  0  0  0  0
  150.0194  139.3273  154.8426 C   0  0  0  0  0  0  0  0  0  0  0  0
  148.5303  138.9722  154.7419 C   0  0  0  0  0  0  0  0  0  0  0  0
  147.8427  138.7989  155.7497 O   0  0  0  0  0  0  0  0  0  0  0  0
  148.0385  138.8631  153.4985 N   0  0  0  0  0  0  0  0  0  0  0  0
  146.6561  138.5309  153.1750 C   0  0  0  0  0  0  0  0  0  0  0  0
  146.2512  137.1679  153.7715 C   0  0  0  0  0  0  0  0  0  0  0  0
  146.1964  136.0712  152.7668 N   0  3  2  0  0  0  0  0  0  0  0  0
  145.3121  136.4150  151.6201 C   0  0  0  0  0  0  0  0  0  0  0  0
  145.4266  135.3806  150.4892 C   0  0  0  0  0  0  0  0  0  0  0  0
  145.1281  133.9686  151.0032 C   0  0  0  0  0  0  0  0  0  0  0  0
  146.0426  133.6443  152.1921 C   0  0  0  0  0  0  0  0  0  0  0  0
  145.9399  134.7008  153.3133 C   0  0  2  0  0  0  0  0  0  0  0  0
  144.6177  134.5860  154.1023 C   0  0  0  0  0  0  0  0  0  0  0  0
  152.2967  137.5563  155.2627 H   0  0  0  0  0  0  0  0  0  0  0  0
  152.5442  136.8396  156.8495 H   0  0  0  0  0  0  0  0  0  0  0  0
  153.5537  138.1825  156.3197 H   0  0  0  0  0  0  0  0  0  0  0  0
  149.5017  140.5282  160.0290 H   0  0  0  0  0  0  0  0  0  0  0  0
  150.9406  141.5333  159.7547 H   0  0  0  0  0  0  0  0  0  0  0  0
  151.1043  139.9189  160.4762 H   0  0  0  0  0  0  0  0  0  0  0  0
  148.5138  141.4198  156.2636 H   0  0  0  0  0  0  0  0  0  0  0  0
  149.0338  142.0594  157.8176 H   0  0  0  0  0  0  0  0  0  0  0  0
  147.9202  140.6909  157.7557 H   0  0  0  0  0  0  0  0  0  0  0  0
  150.1878  140.2615  154.3069 H   0  0  0  0  0  0  0  0  0  0  0  0
  150.5938  138.5705  154.3072 H   0  0  0  0  0  0  0  0  0  0  0  0
  148.6656  139.0261  152.7237 H   0  0  0  0  0  0  0  0  0  0  0  0
  145.9877  139.3195  153.5255 H   0  0  0  0  0  0  0  0  0  0  0  0
  146.5829  138.5159  152.0882 H   0  0  0  0  0  0  0  0  0  0  0  0
  146.9136  136.8963  154.5936 H   0  0  0  0  0  0  0  0  0  0  0  0
  145.2578  137.2684  154.2108 H   0  0  0  0  0  0  0  0  0  0  0  0
  144.2781  136.4974  151.9565 H   0  0  0  0  0  0  0  0  0  0  0  0
  145.5876  137.3943  151.2266 H   0  0  0  0  0  0  0  0  0  0  0  0
  144.7411  135.6354  149.6802 H   0  0  0  0  0  0  0  0  0  0  0  0
  146.4309  135.4112  150.0645 H   0  0  0  0  0  0  0  0  0  0  0  0
  144.0817  133.8942  151.3008 H   0  0  0  0  0  0  0  0  0  0  0  0
  145.2755  133.2396  150.2057 H   0  0  0  0  0  0  0  0  0  0  0  0
  145.8103  132.6528  152.5824 H   0  0  0  0  0  0  0  0  0  0  0  0
  147.0744  133.5948  151.8409 H   0  0  0  0  0  0  0  0  0  0  0  0
  146.7446  134.4651  154.0089 H   0  0  0  0  0  0  0  0  0  0  0  0
  144.4697  133.5658  154.4573 H   0  0  0  0  0  0  0  0  0  0  0  0
  143.7494  134.8463  153.4978 H   0  0  0  0  0  0  0  0  0  0  0  0
  144.6148  135.2265  154.9838 H   0  0  0  0  0  0  0  0  0  0  0  0
  147.1262  136.0290  152.3740 H   0  0  0  0  0  0  0  0  0  0  0  0
  1  2  1  0  0  0  0
  1 22  1  0  0  0  0
  1 23  1  0  0  0  0
  1 24  1  0  0  0  0
  2  8  1  0  0  0  0
  2  3  2  0  0  0  0
  3  4  1  0  0  0  0
  4  5  1  0  0  0  0
  4  6  1  0  0  0  0
  5 25  1  0  0  0  0
  5 26  1  0  0  0  0
  5 27  1  0  0  0  0
  6  7  1  0  0  0  0
  6  8  2  0  0  0  0
  7 28  1  0  0  0  0
  7 29  1  0  0  0  0
  7 30  1  0  0  0  0
  8  9  1  0  0  0  0
  9 10  1  0  0  0  0
  9 31  1  0  0  0  0
  9 32  1  0  0  0  0
 10 11  2  0  0  0  0
 10 12  1  0  0  0  0
 12 13  1  0  0  0  0
 12 33  1  0  0  0  0
 13 14  1  0  0  0  0
 13 34  1  0  0  0  0
 13 35  1  0  0  0  0
 14 15  1  0  0  0  0
 14 36  1  0  0  0  0
 14 37  1  0  0  0  0
 15 20  1  0  0  0  0
 15 16  1  0  0  0  0
 15 50  1  0  0  0  0
 16 17  1  0  0  0  0
 16 38  1  0  0  0  0
 16 39  1  0  0  0  0
 17 18  1  0  0  0  0
 17 40  1  0  0  0  0
 17 41  1  0  0  0  0
 18 19  1  0  0  0  0
 18 42  1  0  0  0  0
 18 43  1  0  0  0  0
 19 20  1  0  0  0  0
 19 44  1  0  0  0  0
 19 45  1  0  0  0  0
 20 21  1  0  0  0  0
 20 46  1  0  0  0  0
 21 47  1  0  0  0  0
 21 48  1  0  0  0  0
 21 49  1  0  0  0  0
M  CHG  1  15   1
M  END
> <s_m_source_file>
AV-unprocessed.smi

> <i_m_source_file_index>
564

> <i_lp_mmshare_version>
43012

> <i_f3d_flags>
0

> <s_epik_input>
W0NIM11jMW5uKFtDSDNdKWMoW0NIM10pYzFbQ0gyXUMoPU8pW05IXVtDSDJdW0NIMl1OMltDSDJdW0NIMl1bQ0gyXVtDSDJdW0NASF0yW0NIM10=

> <s_epik_cmdline>
J2VwaWtfcHl0aG9uJywgJy1waCcsICc3LjAnLCAnLXRuJywgJzgnLCAnLW1hJywgJzIwMCcsICctbWV0YWxfYmluZGluZycsICctaW1hZScsICc8aW5maWxlLm1hZT4nLCAnLW9tYWUnLCAnPG91dGZpbGUubWFlPic=

> <r_lp_tautomer_probability>
1

> <r_epik_Ionization_Penalty>
0.00456826

> <r_epik_Ionization_Penalty_Charging>
0.00240401

> <r_epik_Ionization_Penalty_Neutral>
0.00216425

> <r_epik_State_Penalty>
-0

> <r_epik_Charging_Adjusted_Penalty>
0.00240401

> <i_epik_Tot_Q>
1

> <i_epik_Tot_abs_Q>
1

> <r_epik_Metal_State_Penalty>
-0

> <b_epik_Metal_Only>
0

> <s_lp_Force_Field>
OPLS_2005

> <r_lp_Energy>
15.7718

> <b_lp_Chiralities_Consistent>
1

> <s_lp_Variant>
AV-unprocessed.smi:564-3

> <Gold.Version>
5.8.1

> <Gold.Id.Protein>
6NUR|6NUR_protein|mol2

> <Gold.PLP.Fitness>
45.2779

> <Gold.PLP.PLP>
-33.9150

> <Gold.PLP.part.hbond>
-3.0338

> <Gold.PLP.part.metal>
0.0000

> <Gold.PLP.part.buried>
0.9878

> <Gold.PLP.part.nonpolar>
-31.0005

> <Gold.PLP.part.repulsive>
0.0929

> <Gold.PLP.ligand.clash>
0.0000

> <Gold.PLP.ligand.torsion>
0.3679

> <Gold.PLP.Chemscore.Hbond>
4.0000

> <Gold.PLP.Chemscore.CHOScore>
0.0000

> <Gold.PLP.Chemscore.Metal>
0.0000

> <Gold.Chemscore.Hbonds>
donor molecule, donor type, donor heavy atom, donor atom, acceptor molecule, acceptor atom, score
      L1  H    12    33       P1  7957  0.88
      L1  H    15    50       P1  7948  2.00

> <Gold.PLP.Chemscore.Internal.Correction>
0.0987

> <Gold.Rescore>
     Score         DG    S(hbond)    S(metal)    S(lipo)     H(rot)  DE(clash)    DE(int)     intcor
     18.33     -20.83       2.77        0.00      87.54       1.61       1.94       0.57       ----

> <Gold.Chemscore.Fitness>
18.3292

> <Gold.Chemscore.DG>
-20.8320

> <Gold.Chemscore.ZeroCoef>
-5.4800

> <Gold.Chemscore.Hbond>
2.7670

> <Gold.Chemscore.Metal>
0.0000

> <Gold.Chemscore.Lipo>
87.5444

> <Gold.Chemscore.Internal_Hbond>
0.0000

> <Gold.Chemscore.DEClash>
1.9369

> <Gold.Chemscore.DEInternal>
0.5659

> <Gold.Chemscore.Rot>
1.6142

> <Gold.Chemscore.Internal.Correction>
   9.000000E+99

> <Gold.Chemscore.Hbonds>
donor molecule, donor type, donor heavy atom, donor atom, acceptor molecule, acceptor atom, score
      L1  H    12    33       P1  7957  0.85
      L1  H    15    50       P1  7948  1.00

> <Gold.Chemscore.Hbond.Weighted>
-9.2417

> <Gold.Chemscore.Metal.Weighted>
-0.0000

> <Gold.Chemscore.Lipo.Weighted>
-10.2427

> <Gold.Chemscore.Internal_Hbond.Weighted>
0.0000

> <Gold.Chemscore.DEClash.Weighted>
1.9369

> <Gold.Chemscore.DEInternal.Weighted>
0.5659

> <Gold.Chemscore.Rot.Weighted>
4.1324

> <Gold.Chemscore.Internal.Correction.Weighted>
   9.000000E+99

> <Gold.Protein.RotatedTorsions>
[ 6907 6896 6895 6894 ] final  -94.97 input  -60.11 | X-H torsion
[ 7974 7965 7964 7962 ] final -114.47 input  175.53 | X-H torsion
[ 8008 7997 7996 7995 ] final  169.26 input   59.86 | X-H torsion
[ 10167 10162 10161 10158 ] final   57.56 input  -65.29 | X-H torsion
[ 10718 10713 10712 10709 ] final  -38.49 input   66.30 | X-H torsion
[ 10763 10752 10751 10750 ] final -140.38 input  -60.55 | X-H torsion
[ 11005 11000 10999 10996 ] final  -79.04 input  -57.11 | X-H torsion

> <Gold.Protein.ActiveResidues>
 VAL166  LYS551  ARG553  GLY616  TRP617  ASP618  TYR619  PRO620  LYS621  CYS622 
 ASP623  PHE694  ASN695  SER759  ASP760  ASP761  ALA762  ILE779  LEU786  VAL792 
 PHE793  MET794  SER795  GLU796  ALA797  LYS798  CYS799  TRP800  GLU811  SER814 

> <Gold.Protein.RotatedAtoms>
  150.6953  134.1729  159.4218 H   0  0  0  0  0  0  0  0  0  0  0  0  # atno 6907 bound_to 6896
  151.9706  135.0076  160.0562 H   0  0  0  0  0  0  0  0  0  0  0  0  # atno 6908 bound_to 6896
  152.1845  133.4695  159.5012 H   0  0  0  0  0  0  0  0  0  0  0  0  # atno 6909 bound_to 6896
  145.1198  140.8662  143.3820 H   0  0  0  0  0  0  0  0  0  0  0  0  # atno 7974 bound_to 7965
  156.1473  140.1569  156.8826 H   0  0  0  0  0  0  0  0  0  0  0  0  # atno 8008 bound_to 7997
  154.5039  140.0818  156.7893 H   0  0  0  0  0  0  0  0  0  0  0  0  # atno 8009 bound_to 7997
  155.3964  140.3412  155.4256 H   0  0  0  0  0  0  0  0  0  0  0  0  # atno 8010 bound_to 7997
  140.1966  144.4031  150.6547 H   0  0  0  0  0  0  0  0  0  0  0  0  # atno 10167 bound_to 10162
  156.3032  130.4243  149.8122 H   0  0  0  0  0  0  0  0  0  0  0  0  # atno 10718 bound_to 10713
  154.8580  135.3555  154.5699 H   0  0  0  0  0  0  0  0  0  0  0  0  # atno 10763 bound_to 10752
  153.6312  135.7002  153.5279 H   0  0  0  0  0  0  0  0  0  0  0  0  # atno 10764 bound_to 10752
  153.3048  135.4196  155.1244 H   0  0  0  0  0  0  0  0  0  0  0  0  # atno 10765 bound_to 10752
  141.1666  133.7088  156.8062 H   0  0  0  0  0  0  0  0  0  0  0  0  # atno 11005 bound_to 11000
  145.0753  139.3000  143.5811 LP  0  0  0  0  0  0  0  0  0  0  0  0  # atno 17320 bound_to 7965
  146.3521  140.0241  142.8656 LP  0  0  0  0  0  0  0  0  0  0  0  0  # atno 17321 bound_to 7965
  140.6419  143.2205  151.6271 LP  0  0  0  0  0  0  0  0  0  0  0  0  # atno 17342 bound_to 10162
  139.5234  144.3134  152.0973 LP  0  0  0  0  0  0  0  0  0  0  0  0  # atno 17343 bound_to 10162
  156.5493  130.8335  151.3294 LP  0  0  0  0  0  0  0  0  0  0  0  0  # atno 17370 bound_to 10713
  157.7373  130.9793  150.2186 LP  0  0  0  0  0  0  0  0  0  0  0  0  # atno 17371 bound_to 10713
  140.2220  134.8749  157.3387 LP  0  0  0  0  0  0  0  0  0  0  0  0  # atno 17394 bound_to 11000
  140.1978  134.4292  155.7679 LP  0  0  0  0  0  0  0  0  0  0  0  0  # atno 17395 bound_to 11000

$$$$
