AV-unprocessed.smi:1730|AV-procd|sdf|6972|dock2
  -GOLD-   22720 8183D 1   1.00000     0.00000
 Structure written by MMmdl.
 38 39  0  0  0  0  0  0  0  0  1 V2000
  151.7776  138.3399  154.5481 C   0  0  0  0  0  0  0  0  0  0  0  0
  150.4281  138.2652  154.1015 O   0  0  0  0  0  0  0  0  0  0  0  0
  149.6407  139.3975  154.1891 C   0  0  0  0  0  0  0  0  0  0  0  0
  150.1837  140.5221  154.7197 N   0  0  0  0  0  0  0  0  0  0  0  0
  149.4150  141.6271  154.8086 C   0  0  0  0  0  0  0  0  0  0  0  0
  148.0744  141.6695  154.3839 C   0  0  0  0  0  0  0  0  0  0  0  0
  147.5091  140.5049  153.8325 C   0  0  0  0  0  0  0  0  0  0  0  0
  148.3080  139.3417  153.7191 C   0  0  0  0  0  0  0  0  0  0  0  0
  147.8236  138.1107  153.1994 N   0  0  0  0  0  0  0  0  0  0  0  0
  146.5521  137.6820  153.1356 C   0  0  0  0  0  0  0  0  0  0  0  0
  145.5708  138.3162  153.5232 O   0  0  0  0  0  0  0  0  0  0  0  0
  146.4790  136.4709  152.5649 N   0  0  0  0  0  0  0  0  0  0  0  0
  145.2489  135.7341  152.2830 C   0  0  2  0  0  0  0  0  0  0  0  0
  144.7686  135.0660  153.5807 C   0  0  0  0  0  0  0  0  0  0  0  0
  145.5028  134.7143  151.1536 C   0  0  1  0  0  0  0  0  0  0  0  0
  146.5064  133.6133  151.5014 C   0  0  0  0  0  0  0  0  0  0  0  0
  146.0980  132.5128  150.5500 C   0  0  0  0  0  0  0  0  0  0  0  0
  144.5787  132.6399  150.5642 C   0  0  0  0  0  0  0  0  0  0  0  0
  144.3031  134.0127  150.8289 O   0  0  0  0  0  0  0  0  0  0  0  0
  152.2589  137.3727  154.4044 H   0  0  0  0  0  0  0  0  0  0  0  0
  151.8329  138.5824  155.6103 H   0  0  0  0  0  0  0  0  0  0  0  0
  152.3459  139.0790  153.9814 H   0  0  0  0  0  0  0  0  0  0  0  0
  149.8807  142.5019  155.2378 H   0  0  0  0  0  0  0  0  0  0  0  0
  147.4911  142.5728  154.4834 H   0  0  0  0  0  0  0  0  0  0  0  0
  146.4752  140.5194  153.5230 H   0  0  0  0  0  0  0  0  0  0  0  0
  148.5148  137.5283  152.7497 H   0  0  0  0  0  0  0  0  0  0  0  0
  147.3415  136.0343  152.2748 H   0  0  0  0  0  0  0  0  0  0  0  0
  144.4678  136.4247  151.9598 H   0  0  0  0  0  0  0  0  0  0  0  0
  143.8235  134.5433  153.4330 H   0  0  0  0  0  0  0  0  0  0  0  0
  144.6090  135.8062  154.3655 H   0  0  0  0  0  0  0  0  0  0  0  0
  145.4959  134.3418  153.9487 H   0  0  0  0  0  0  0  0  0  0  0  0
  145.8380  135.2274  150.2505 H   0  0  0  0  0  0  0  0  0  0  0  0
  147.5435  133.9242  151.3710 H   0  0  0  0  0  0  0  0  0  0  0  0
  146.3744  133.2816  152.5325 H   0  0  0  0  0  0  0  0  0  0  0  0
  146.4845  132.7193  149.5509 H   0  0  0  0  0  0  0  0  0  0  0  0
  146.4471  131.5263  150.8561 H   0  0  0  0  0  0  0  0  0  0  0  0
  144.1261  132.3164  149.6268 H   0  0  0  0  0  0  0  0  0  0  0  0
  144.1530  132.0415  151.3707 H   0  0  0  0  0  0  0  0  0  0  0  0
  1  2  1  0  0  0  0
  1 20  1  0  0  0  0
  1 21  1  0  0  0  0
  1 22  1  0  0  0  0
  2  3  1  0  0  0  0
  3  8  1  0  0  0  0
  3  4  2  0  0  0  0
  4  5  1  0  0  0  0
  5  6  2  0  0  0  0
  5 23  1  0  0  0  0
  6  7  1  0  0  0  0
  6 24  1  0  0  0  0
  7  8  2  0  0  0  0
  7 25  1  0  0  0  0
  8  9  1  0  0  0  0
  9 10  1  0  0  0  0
  9 26  1  0  0  0  0
 10 11  2  0  0  0  0
 10 12  1  0  0  0  0
 12 13  1  0  0  0  0
 12 27  1  0  0  0  0
 13 14  1  0  0  0  0
 13 15  1  0  0  0  0
 13 28  1  0  0  0  0
 14 29  1  0  0  0  0
 14 30  1  0  0  0  0
 14 31  1  0  0  0  0
 15 19  1  0  0  0  0
 15 16  1  0  0  0  0
 15 32  1  0  0  0  0
 16 17  1  0  0  0  0
 16 33  1  0  0  0  0
 16 34  1  0  0  0  0
 17 18  1  0  0  0  0
 17 35  1  0  0  0  0
 17 36  1  0  0  0  0
 18 19  1  0  0  0  0
 18 37  1  0  0  0  0
 18 38  1  0  0  0  0
M  END
> <s_m_source_file>
AV-unprocessed.smi

> <i_m_source_file_index>
1730

> <i_lp_mmshare_version>
43012

> <i_f3d_flags>
0

> <s_epik_input>
W0NIM11PYzFuW2NIXVtjSF1bY0hdYzFbTkhdQyg9TylbTkhdW0NASF0oW0NIM10pW0NAQEhdMltDSDJdW0NIMl1bQ0gyXU8y

> <s_epik_cmdline>
J2VwaWtfcHl0aG9uJywgJy1waCcsICc3LjAnLCAnLXRuJywgJzgnLCAnLW1hJywgJzIwMCcsICctbWV0YWxfYmluZGluZycsICctaW1hZScsICc8aW5maWxlLm1hZT4nLCAnLW9tYWUnLCAnPG91dGZpbGUubWFlPic=

> <r_lp_tautomer_probability>
1

> <r_epik_Ionization_Penalty>
9.187e-05

> <r_epik_Ionization_Penalty_Charging>
0

> <r_epik_Ionization_Penalty_Neutral>
9.187e-05

> <r_epik_State_Penalty>
-0

> <r_epik_Charging_Adjusted_Penalty>
0

> <i_epik_Tot_Q>
0

> <i_epik_Tot_abs_Q>
0

> <r_epik_Metal_State_Penalty>
-0

> <b_epik_Metal_Only>
0

> <s_lp_Force_Field>
OPLS_2005

> <r_lp_Energy>
20.4817

> <b_lp_Chiralities_Consistent>
1

> <s_lp_Variant>
AV-unprocessed.smi:1730-3

> <Gold.Version>
5.8.1

> <Gold.Id.Protein>
6NUR|6NUR_protein|mol2

> <Gold.PLP.Fitness>
42.5847

> <Gold.PLP.PLP>
-31.7808

> <Gold.PLP.part.hbond>
-3.3789

> <Gold.PLP.part.metal>
0.0000

> <Gold.PLP.part.buried>
-2.4222

> <Gold.PLP.part.nonpolar>
-28.3701

> <Gold.PLP.part.repulsive>
2.0570

> <Gold.PLP.ligand.clash>
0.0000

> <Gold.PLP.ligand.torsion>
0.4379

> <Gold.PLP.Chemscore.Hbond>
2.9600

> <Gold.PLP.Chemscore.CHOScore>
0.9288

> <Gold.PLP.Chemscore.Metal>
0.0000

> <Gold.Chemscore.Hbonds>
donor molecule, donor type, donor heavy atom, donor atom, acceptor molecule, acceptor atom, score
      L1  H     9    26       P1  7948  1.00
      L1  H    12    27       P1  7948  0.96
      P1  H  7989  7998       L1     4  0.93
      L1  C     5    23       P1  8028  0.97

> <Gold.PLP.Chemscore.Internal.Correction>
0.0132

> <Gold.Rescore>
     Score         DG    S(hbond)    S(metal)    S(lipo)     H(rot)  DE(clash)    DE(int)     intcor
     14.49     -16.45       1.96        0.00      69.95       1.47       0.50       1.45       ----

> <Gold.Chemscore.Fitness>
14.4946

> <Gold.Chemscore.DG>
-16.4463

> <Gold.Chemscore.ZeroCoef>
-5.4800

> <Gold.Chemscore.Hbond>
1.9591

> <Gold.Chemscore.Metal>
0.0000

> <Gold.Chemscore.Lipo>
69.9500

> <Gold.Chemscore.Internal_Hbond>
0.0000

> <Gold.Chemscore.DEClash>
0.5027

> <Gold.Chemscore.DEInternal>
1.4491

> <Gold.Chemscore.Rot>
1.4693

> <Gold.Chemscore.Internal.Correction>
   9.000000E+99

> <Gold.Chemscore.Hbonds>
donor molecule, donor type, donor heavy atom, donor atom, acceptor molecule, acceptor atom, score
      L1  H     9    26       P1  7948  0.96
      L1  H    12    27       P1  7948  0.92
      P1  H  7989  7998       L1     4  0.21

> <Gold.Chemscore.Hbond.Weighted>
-6.5435

> <Gold.Chemscore.Metal.Weighted>
-0.0000

> <Gold.Chemscore.Lipo.Weighted>
-8.1842

> <Gold.Chemscore.Internal_Hbond.Weighted>
0.0000

> <Gold.Chemscore.DEClash.Weighted>
0.5027

> <Gold.Chemscore.DEInternal.Weighted>
1.4491

> <Gold.Chemscore.Rot.Weighted>
3.7613

> <Gold.Chemscore.Internal.Correction.Weighted>
   9.000000E+99

> <Gold.Protein.RotatedTorsions>
[ 6907 6896 6895 6894 ] final  -14.87 input  -60.11 | X-H torsion
[ 7974 7965 7964 7962 ] final  -23.17 input  175.53 | X-H torsion
[ 8008 7997 7996 7995 ] final -103.58 input   59.86 | X-H torsion
[ 10167 10162 10161 10158 ] final -107.02 input  -65.29 | X-H torsion
[ 10718 10713 10712 10709 ] final -165.37 input   66.30 | X-H torsion
[ 10763 10752 10751 10750 ] final  -55.87 input  -60.55 | X-H torsion
[ 11005 11000 10999 10996 ] final  -34.72 input  -57.11 | X-H torsion

> <Gold.Protein.ActiveResidues>
 VAL166  LYS551  ARG553  GLY616  TRP617  ASP618  TYR619  PRO620  LYS621  CYS622 
 ASP623  PHE694  ASN695  SER759  ASP760  ASP761  ALA762  ILE779  LEU786  VAL792 
 PHE793  MET794  SER795  GLU796  ALA797  LYS798  CYS799  TRP800  GLU811  SER814 

> <Gold.Protein.RotatedAtoms>
  151.3327  135.0845  159.9343 H   0  0  0  0  0  0  0  0  0  0  0  0  # atno 6907 bound_to 6896
  152.5231  133.9526  159.7689 H   0  0  0  0  0  0  0  0  0  0  0  0  # atno 6908 bound_to 6896
  150.9868  133.6136  159.2744 H   0  0  0  0  0  0  0  0  0  0  0  0  # atno 6909 bound_to 6896
  146.1632  140.4579  142.8562 H   0  0  0  0  0  0  0  0  0  0  0  0  # atno 7974 bound_to 7965
  154.8730  140.0422  157.1736 H   0  0  0  0  0  0  0  0  0  0  0  0  # atno 8008 bound_to 7997
  154.8719  140.2959  155.5455 H   0  0  0  0  0  0  0  0  0  0  0  0  # atno 8009 bound_to 7997
  156.2999  140.2427  156.3709 H   0  0  0  0  0  0  0  0  0  0  0  0  # atno 8010 bound_to 7997
  140.1815  143.3963  152.1277 H   0  0  0  0  0  0  0  0  0  0  0  0  # atno 10167 bound_to 10162
  156.6525  130.9013  151.3015 H   0  0  0  0  0  0  0  0  0  0  0  0  # atno 10718 bound_to 10713
  154.1977  135.6416  153.5078 H   0  0  0  0  0  0  0  0  0  0  0  0  # atno 10763 bound_to 10752
  153.0019  135.5444  154.6349 H   0  0  0  0  0  0  0  0  0  0  0  0  # atno 10764 bound_to 10752
  154.5754  135.2920  155.0759 H   0  0  0  0  0  0  0  0  0  0  0  0  # atno 10765 bound_to 10752
  140.9739  133.7094  156.1570 H   0  0  0  0  0  0  0  0  0  0  0  0  # atno 11005 bound_to 11000
  144.8056  140.6293  143.6449 LP  0  0  0  0  0  0  0  0  0  0  0  0  # atno 17320 bound_to 7965
  145.4534  139.1521  143.3906 LP  0  0  0  0  0  0  0  0  0  0  0  0  # atno 17321 bound_to 7965
  139.5294  144.7141  151.5111 LP  0  0  0  0  0  0  0  0  0  0  0  0  # atno 17342 bound_to 10162
  140.6516  143.8684  150.6792 LP  0  0  0  0  0  0  0  0  0  0  0  0  # atno 17343 bound_to 10162
  157.7136  130.9470  150.1176 LP  0  0  0  0  0  0  0  0  0  0  0  0  # atno 17370 bound_to 10713
  156.2073  130.3664  149.8713 LP  0  0  0  0  0  0  0  0  0  0  0  0  # atno 17371 bound_to 10713
  140.7288  134.4278  157.5568 LP  0  0  0  0  0  0  0  0  0  0  0  0  # atno 17394 bound_to 11000
  139.8923  134.8759  156.2278 LP  0  0  0  0  0  0  0  0  0  0  0  0  # atno 17395 bound_to 11000

$$$$
