AV-unprocessed.smi:2850|AV-procd|sdf|10965|dock10
  -GOLD-   2272015413D 1   1.00000     0.00000
 Structure written by MMmdl.
 45 46  0  0  0  0  0  0  0  0  2 V2000
  153.7926  142.0556  160.8473 C   0  0  0  0  0  0  0  0  0  0  0  0
  152.7721  143.4033  160.1887 S   0  0  0  0  0  0  0  0  0  0  0  0
  151.6699  142.6943  159.0033 C   0  0  0  0  0  0  0  0  0  0  0  0
  151.6032  143.2026  157.6938 C   0  0  0  0  0  0  0  0  0  0  0  0
  150.7033  142.5792  156.8122 C   0  0  0  0  0  0  0  0  0  0  0  0
  149.9434  141.4992  157.3052 C   0  0  0  0  0  0  0  0  0  0  0  0
  149.0452  140.8566  156.4413 N   0  0  0  0  0  0  0  0  0  0  0  0
  149.2047  140.8993  154.9919 C   0  0  0  0  0  0  0  0  0  0  0  0
  149.7706  139.5925  154.4052 C   0  0  2  0  0  0  0  0  0  0  0  0
  149.3089  138.3374  155.1747 C   0  0  0  0  0  0  0  0  0  0  0  0
  149.9444  137.1218  154.6137 N   0  3  2  0  0  0  0  0  0  0  0  0
  149.4655  135.8763  155.2666 C   0  0  0  0  0  0  0  0  0  0  0  0
  150.1822  134.6083  154.7535 C   0  0  0  0  0  0  0  0  0  0  0  0
  149.2120  133.6425  154.0519 C   0  0  0  0  0  0  0  0  0  0  0  0
  150.9075  133.8957  155.9046 C   0  0  0  0  0  0  0  0  0  0  0  0
  151.4206  137.2676  154.6113 C   0  0  0  0  0  0  0  0  0  0  0  0
  151.8281  138.5543  153.8754 C   0  0  0  0  0  0  0  0  0  0  0  0
  151.1899  139.6726  154.4789 O   0  0  0  0  0  0  0  0  0  0  0  0
  150.0617  141.0650  158.5858 N   0  0  0  0  0  0  0  0  0  0  0  0
  150.9175  141.6539  159.4284 N   0  0  0  0  0  0  0  0  0  0  0  0
  154.4914  142.4433  161.5883 H   0  0  0  0  0  0  0  0  0  0  0  0
  154.3648  141.5830  160.0486 H   0  0  0  0  0  0  0  0  0  0  0  0
  153.1670  141.3011  161.3247 H   0  0  0  0  0  0  0  0  0  0  0  0
  152.2154  144.0342  157.3777 H   0  0  0  0  0  0  0  0  0  0  0  0
  150.6035  142.9194  155.7919 H   0  0  0  0  0  0  0  0  0  0  0  0
  148.2644  140.3454  156.8274 H   0  0  0  0  0  0  0  0  0  0  0  0
  148.2449  141.1338  154.5299 H   0  0  0  0  0  0  0  0  0  0  0  0
  149.8683  141.7293  154.7475 H   0  0  0  0  0  0  0  0  0  0  0  0
  149.4800  139.5076  153.3568 H   0  0  0  0  0  0  0  0  0  0  0  0
  149.5586  138.4266  156.2334 H   0  0  0  0  0  0  0  0  0  0  0  0
  148.2246  138.2416  155.1067 H   0  0  0  0  0  0  0  0  0  0  0  0
  149.5785  135.9722  156.3476 H   0  0  0  0  0  0  0  0  0  0  0  0
  148.3961  135.7608  155.0832 H   0  0  0  0  0  0  0  0  0  0  0  0
  150.9476  134.8966  154.0336 H   0  0  0  0  0  0  0  0  0  0  0  0
  148.4188  133.3167  154.7258 H   0  0  0  0  0  0  0  0  0  0  0  0
  149.7332  132.7520  153.6993 H   0  0  0  0  0  0  0  0  0  0  0  0
  148.7425  134.1061  153.1840 H   0  0  0  0  0  0  0  0  0  0  0  0
  150.2059  133.5614  156.6696 H   0  0  0  0  0  0  0  0  0  0  0  0
  151.6323  134.5552  156.3829 H   0  0  0  0  0  0  0  0  0  0  0  0
  151.4494  133.0200  155.5460 H   0  0  0  0  0  0  0  0  0  0  0  0
  151.7878  137.2942  155.6384 H   0  0  0  0  0  0  0  0  0  0  0  0
  151.8913  136.4139  154.1255 H   0  0  0  0  0  0  0  0  0  0  0  0
  152.9080  138.6922  153.9302 H   0  0  0  0  0  0  0  0  0  0  0  0
  151.5679  138.4978  152.8171 H   0  0  0  0  0  0  0  0  0  0  0  0
  149.6494  137.0709  153.6488 H   0  0  0  0  0  0  0  0  0  0  0  0
  1  2  1  0  0  0  0
  1 21  1  0  0  0  0
  1 22  1  0  0  0  0
  1 23  1  0  0  0  0
  2  3  1  0  0  0  0
  3 20  1  0  0  0  0
  3  4  2  0  0  0  0
  4  5  1  0  0  0  0
  4 24  1  0  0  0  0
  5  6  2  0  0  0  0
  5 25  1  0  0  0  0
  6  7  1  0  0  0  0
  6 19  1  0  0  0  0
  7  8  1  0  0  0  0
  7 26  1  0  0  0  0
  8  9  1  0  0  0  0
  8 27  1  0  0  0  0
  8 28  1  0  0  0  0
  9 18  1  0  0  0  0
  9 10  1  0  0  0  0
  9 29  1  0  0  0  0
 10 11  1  0  0  0  0
 10 30  1  0  0  0  0
 10 31  1  0  0  0  0
 11 12  1  0  0  0  0
 11 16  1  0  0  0  0
 11 45  1  0  0  0  0
 12 13  1  0  0  0  0
 12 32  1  0  0  0  0
 12 33  1  0  0  0  0
 13 14  1  0  0  0  0
 13 15  1  0  0  0  0
 13 34  1  0  0  0  0
 14 35  1  0  0  0  0
 14 36  1  0  0  0  0
 14 37  1  0  0  0  0
 15 38  1  0  0  0  0
 15 39  1  0  0  0  0
 15 40  1  0  0  0  0
 16 17  1  0  0  0  0
 16 41  1  0  0  0  0
 16 42  1  0  0  0  0
 17 18  1  0  0  0  0
 17 43  1  0  0  0  0
 17 44  1  0  0  0  0
 19 20  2  0  0  0  0
M  CHG  1  11   1
M  END
> <s_m_source_file>
AV-unprocessed.smi

> <i_m_source_file_index>
2850

> <i_lp_mmshare_version>
43012

> <i_f3d_flags>
0

> <s_epik_input>
W0NIM11TYzFbY0hdW2NIXWMobm4xKVtOSF1bQ0gyXVtDQEBIXTJbQ0gyXU4oW0NIMl1bQ0gyXU8yKVtDSDJdW0NIXShbQ0gzXSlbQ0gzXQ==

> <s_epik_cmdline>
J2VwaWtfcHl0aG9uJywgJy1waCcsICc3LjAnLCAnLXRuJywgJzgnLCAnLW1hJywgJzIwMCcsICctbWV0YWxfYmluZGluZycsICctaW1hZScsICc8aW5maWxlLm1hZT4nLCAnLW9tYWUnLCAnPG91dGZpbGUubWFlPic=

> <r_lp_tautomer_probability>
0.999978

> <r_epik_Ionization_Penalty>
0.0874875

> <r_epik_Ionization_Penalty_Charging>
0.0831532

> <r_epik_Ionization_Penalty_Neutral>
0.00433433

> <r_epik_State_Penalty>
0.0738301

> <r_epik_Charging_Adjusted_Penalty>
0.156983

> <i_epik_Tot_Q>
1

> <i_epik_Tot_abs_Q>
1

> <r_epik_Metal_State_Penalty>
0.073888

> <b_epik_Metal_Only>
0

> <s_lp_Force_Field>
OPLS_2005

> <r_lp_Energy>
24.5925

> <b_lp_Chiralities_Consistent>
1

> <s_lp_Variant>
AV-unprocessed.smi:2850-1

> <Gold.Version>
5.8.1

> <Gold.Id.Protein>
6NUR|6NUR_protein|mol2

> <Gold.PLP.Fitness>
41.3843

> <Gold.PLP.PLP>
-35.0384

> <Gold.PLP.part.hbond>
-3.0000

> <Gold.PLP.part.metal>
0.0000

> <Gold.PLP.part.buried>
-3.6612

> <Gold.PLP.part.nonpolar>
-29.4405

> <Gold.PLP.part.repulsive>
0.1573

> <Gold.PLP.ligand.clash>
0.0000

> <Gold.PLP.ligand.torsion>
1.3413

> <Gold.PLP.Chemscore.Hbond>
2.9825

> <Gold.PLP.Chemscore.CHOScore>
0.0000

> <Gold.PLP.Chemscore.Metal>
0.0000

> <Gold.Chemscore.Hbonds>
donor molecule, donor type, donor heavy atom, donor atom, acceptor molecule, acceptor atom, score
      L1  H    11    45       P1  7948  1.85
      P1  H  7989  7998       L1    18  1.00

> <Gold.PLP.Chemscore.Internal.Correction>
0.0809

> <Gold.Rescore>
     Score         DG    S(hbond)    S(metal)    S(lipo)     H(rot)  DE(clash)    DE(int)     intcor
     15.80     -17.69       1.27        0.00     103.01       1.60       0.61       1.28       ----

> <Gold.Chemscore.Fitness>
15.8024

> <Gold.Chemscore.DG>
-17.6919

> <Gold.Chemscore.ZeroCoef>
-5.4800

> <Gold.Chemscore.Hbond>
1.2744

> <Gold.Chemscore.Metal>
0.0000

> <Gold.Chemscore.Lipo>
103.0109

> <Gold.Chemscore.Internal_Hbond>
0.0000

> <Gold.Chemscore.DEClash>
0.6122

> <Gold.Chemscore.DEInternal>
1.2773

> <Gold.Chemscore.Rot>
1.6003

> <Gold.Chemscore.Internal.Correction>
   9.000000E+99

> <Gold.Chemscore.Hbonds>
donor molecule, donor type, donor heavy atom, donor atom, acceptor molecule, acceptor atom, score
      L1  H    11    45       P1  7948  0.69
      P1  H  7989  7998       L1    18  0.18

> <Gold.Chemscore.Hbond.Weighted>
-4.2565

> <Gold.Chemscore.Metal.Weighted>
-0.0000

> <Gold.Chemscore.Lipo.Weighted>
-12.0523

> <Gold.Chemscore.Internal_Hbond.Weighted>
0.0000

> <Gold.Chemscore.DEClash.Weighted>
0.6122

> <Gold.Chemscore.DEInternal.Weighted>
1.2773

> <Gold.Chemscore.Rot.Weighted>
4.0968

> <Gold.Chemscore.Internal.Correction.Weighted>
   9.000000E+99

> <Gold.Protein.RotatedTorsions>
[ 6907 6896 6895 6894 ] final   29.51 input  -60.11 | X-H torsion
[ 7974 7965 7964 7962 ] final -172.54 input  175.53 | X-H torsion
[ 8008 7997 7996 7995 ] final -147.94 input   59.86 | X-H torsion
[ 10167 10162 10161 10158 ] final   70.71 input  -65.29 | X-H torsion
[ 10718 10713 10712 10709 ] final  145.37 input   66.30 | X-H torsion
[ 10763 10752 10751 10750 ] final  173.66 input  -60.55 | X-H torsion
[ 11005 11000 10999 10996 ] final   45.94 input  -57.11 | X-H torsion

> <Gold.Protein.ActiveResidues>
 VAL166  LYS551  ARG553  GLY616  TRP617  ASP618  TYR619  PRO620  LYS621  CYS622 
 ASP623  PHE694  ASN695  SER759  ASP760  ASP761  ALA762  ILE779  LEU786  VAL792 
 PHE793  MET794  SER795  GLU796  ALA797  LYS798  CYS799  TRP800  GLU811  SER814 

> <Gold.Protein.RotatedAtoms>
  152.0325  134.9759  160.0572 H   0  0  0  0  0  0  0  0  0  0  0  0  # atno 6907 bound_to 6896
  152.1230  133.4359  159.4692 H   0  0  0  0  0  0  0  0  0  0  0  0  # atno 6908 bound_to 6896
  150.6850  134.2431  159.4524 H   0  0  0  0  0  0  0  0  0  0  0  0  # atno 6909 bound_to 6896
  144.7145  140.1756  143.6363 H   0  0  0  0  0  0  0  0  0  0  0  0  # atno 7974 bound_to 7965
  155.5836  140.0646  157.2777 H   0  0  0  0  0  0  0  0  0  0  0  0  # atno 8008 bound_to 7997
  154.4325  140.1847  156.1048 H   0  0  0  0  0  0  0  0  0  0  0  0  # atno 8009 bound_to 7997
  156.0286  140.3309  155.7119 H   0  0  0  0  0  0  0  0  0  0  0  0  # atno 8010 bound_to 7997
  140.0540  144.5288  150.7342 H   0  0  0  0  0  0  0  0  0  0  0  0  # atno 10167 bound_to 10162
  157.3461  131.0943  151.1041 H   0  0  0  0  0  0  0  0  0  0  0  0  # atno 10718 bound_to 10713
  154.4431  135.2762  155.1833 H   0  0  0  0  0  0  0  0  0  0  0  0  # atno 10763 bound_to 10752
  154.3692  135.6112  153.5734 H   0  0  0  0  0  0  0  0  0  0  0  0  # atno 10764 bound_to 10752
  152.9842  135.5853  154.4762 H   0  0  0  0  0  0  0  0  0  0  0  0  # atno 10765 bound_to 10752
  140.1414  134.4579  155.8447 H   0  0  0  0  0  0  0  0  0  0  0  0  # atno 11005 bound_to 11000
  145.8903  139.2372  143.1553 LP  0  0  0  0  0  0  0  0  0  0  0  0  # atno 17320 bound_to 7965
  145.9909  140.8603  143.0066 LP  0  0  0  0  0  0  0  0  0  0  0  0  # atno 17321 bound_to 7965
  140.7203  143.2583  151.4299 LP  0  0  0  0  0  0  0  0  0  0  0  0  # atno 17342 bound_to 10162
  139.5935  144.1447  152.2116 LP  0  0  0  0  0  0  0  0  0  0  0  0  # atno 17343 bound_to 10162
  157.2234  130.6492  149.5820 LP  0  0  0  0  0  0  0  0  0  0  0  0  # atno 17370 bound_to 10713
  155.9714  130.4622  150.6136 LP  0  0  0  0  0  0  0  0  0  0  0  0  # atno 17371 bound_to 10713
  141.2186  133.6834  156.7253 LP  0  0  0  0  0  0  0  0  0  0  0  0  # atno 17394 bound_to 11000
  140.2718  134.8386  157.3854 LP  0  0  0  0  0  0  0  0  0  0  0  0  # atno 17395 bound_to 11000

$$$$
