AV-unprocessed.smi:864|AV-procd|sdf|3989|dock1
  -GOLD-   22720 1463D 1   1.00000     0.00000
 Structure written by MMmdl.
 45 47  0  0  0  0  0  0  0  0  2 V2000
  143.8722  132.7269  148.5147 C   0  0  0  0  0  0  0  0  0  0  0  0
  144.4588  133.1290  149.8510 C   0  0  0  0  0  0  0  0  0  0  0  0
  145.7828  132.8097  150.2202 C   0  0  0  0  0  0  0  0  0  0  0  0
  146.2563  133.2009  151.4894 C   0  0  0  0  0  0  0  0  0  0  0  0
  145.3974  133.9024  152.3649 C   0  0  0  0  0  0  0  0  0  0  0  0
  145.8556  134.2810  153.7639 C   0  0  0  0  0  0  0  0  0  0  0  0
  145.5964  135.7599  154.1219 C   0  0  0  0  0  0  0  0  0  0  0  0
  146.4830  136.6706  153.3995 N   0  0  0  0  0  0  0  0  0  0  0  0
  146.6270  137.9779  153.6630 C   0  0  0  0  0  0  0  0  0  0  0  0
  145.9623  138.5918  154.4984 O   0  0  0  0  0  0  0  0  0  0  0  0
  147.6217  138.5252  152.9521 N   0  0  0  0  0  0  0  0  0  0  0  0
  148.1060  139.8922  153.1264 C   0  0  1  0  0  0  0  0  0  0  0  0
  146.9633  140.9009  153.3355 C   0  0  0  0  0  0  0  0  0  0  0  0
  147.4135  141.7094  154.5380 C   0  0  0  0  0  0  0  0  0  0  0  0
  146.8222  142.7203  154.9149 O   0  0  0  0  0  0  0  0  0  0  0  0
  148.5098  141.1837  155.0957 N   0  0  0  0  0  0  0  0  0  0  0  0
  149.2508  141.7839  156.1661 C   0  0  0  0  0  0  0  0  0  0  0  0
  150.6690  141.3461  156.4789 C   0  0  0  0  0  0  0  0  0  0  0  0
  149.5362  140.9487  157.3933 C   0  0  0  0  0  0  0  0  0  0  0  0
  148.9906  140.0090  154.3807 C   0  0  0  0  0  0  0  0  0  0  0  0
  144.0885  134.2076  151.9344 C   0  0  0  0  0  0  0  0  0  0  0  0
  143.6713  133.8121  150.7119 N   0  3  0  0  0  0  0  0  0  0  0  0
  144.6118  132.2136  147.8993 H   0  0  0  0  0  0  0  0  0  0  0  0
  143.5267  133.6059  147.9697 H   0  0  0  0  0  0  0  0  0  0  0  0
  143.0255  132.0552  148.6594 H   0  0  0  0  0  0  0  0  0  0  0  0
  146.4258  132.2626  149.5460 H   0  0  0  0  0  0  0  0  0  0  0  0
  147.2615  132.9468  151.7924 H   0  0  0  0  0  0  0  0  0  0  0  0
  145.3538  133.6382  154.4884 H   0  0  0  0  0  0  0  0  0  0  0  0
  146.9204  134.0633  153.8546 H   0  0  0  0  0  0  0  0  0  0  0  0
  144.5660  136.0197  153.8788 H   0  0  0  0  0  0  0  0  0  0  0  0
  145.6979  135.9071  155.1986 H   0  0  0  0  0  0  0  0  0  0  0  0
  147.0724  136.2611  152.6890 H   0  0  0  0  0  0  0  0  0  0  0  0
  148.1116  137.9463  152.2857 H   0  0  0  0  0  0  0  0  0  0  0  0
  148.6900  140.1837  152.2510 H   0  0  0  0  0  0  0  0  0  0  0  0
  146.8162  141.5387  152.4632 H   0  0  0  0  0  0  0  0  0  0  0  0
  146.0157  140.4154  153.5724 H   0  0  0  0  0  0  0  0  0  0  0  0
  149.0441  142.8381  156.3448 H   0  0  0  0  0  0  0  0  0  0  0  0
  151.1275  140.5533  155.8919 H   0  0  0  0  0  0  0  0  0  0  0  0
  151.3577  142.1071  156.8400 H   0  0  0  0  0  0  0  0  0  0  0  0
  149.4718  141.4426  158.3607 H   0  0  0  0  0  0  0  0  0  0  0  0
  149.2253  139.9058  157.3811 H   0  0  0  0  0  0  0  0  0  0  0  0
  148.8952  139.1362  155.0292 H   0  0  0  0  0  0  0  0  0  0  0  0
  150.0419  140.1167  154.1099 H   0  0  0  0  0  0  0  0  0  0  0  0
  143.3587  134.7289  152.5368 H   0  0  0  0  0  0  0  0  0  0  0  0
  142.7157  134.0314  150.4292 H   0  0  0  0  0  0  0  0  0  0  0  0
  1  2  1  0  0  0  0
  1 23  1  0  0  0  0
  1 24  1  0  0  0  0
  1 25  1  0  0  0  0
  2 22  1  0  0  0  0
  2  3  2  0  0  0  0
  3  4  1  0  0  0  0
  3 26  1  0  0  0  0
  4  5  2  0  0  0  0
  4 27  1  0  0  0  0
  5  6  1  0  0  0  0
  5 21  1  0  0  0  0
  6  7  1  0  0  0  0
  6 28  1  0  0  0  0
  6 29  1  0  0  0  0
  7  8  1  0  0  0  0
  7 30  1  0  0  0  0
  7 31  1  0  0  0  0
  8  9  1  0  0  0  0
  8 32  1  0  0  0  0
  9 10  2  0  0  0  0
  9 11  1  0  0  0  0
 11 12  1  0  0  0  0
 11 33  1  0  0  0  0
 12 20  1  0  0  0  0
 12 13  1  0  0  0  0
 12 34  1  0  0  0  0
 13 14  1  0  0  0  0
 13 35  1  0  0  0  0
 13 36  1  0  0  0  0
 14 15  2  0  0  0  0
 14 16  1  0  0  0  0
 16 17  1  0  0  0  0
 16 20  1  0  0  0  0
 17 19  1  0  0  0  0
 17 18  1  0  0  0  0
 17 37  1  0  0  0  0
 18 19  1  0  0  0  0
 18 38  1  0  0  0  0
 18 39  1  0  0  0  0
 19 40  1  0  0  0  0
 19 41  1  0  0  0  0
 20 42  1  0  0  0  0
 20 43  1  0  0  0  0
 21 22  2  0  0  0  0
 21 44  1  0  0  0  0
 22 45  1  0  0  0  0
M  CHG  1  22   1
M  END
> <s_m_source_file>
AV-unprocessed.smi

> <i_m_source_file_index>
864

> <i_lp_mmshare_version>
43012

> <i_f3d_flags>
0

> <s_epik_input>
W0NIM11jMVtjSF1bY0hdYyhbY0hdbjEpW0NIMl1bQ0gyXVtOSF1DKD1PKVtOSF1bQ0BASF0yW0NIMl1DKD1PKU4oW0NIMl0yKVtDSF0zW0NIMl1bQ0gyXTM=

> <s_epik_cmdline>
J2VwaWtfcHl0aG9uJywgJy1waCcsICc3LjAnLCAnLXRuJywgJzgnLCAnLW1hJywgJzIwMCcsICctbWV0YWxfYmluZGluZycsICctaW1hZScsICc8aW5maWxlLm1hZT4nLCAnLW9tYWUnLCAnPG91dGZpbGUubWFlPic=

> <r_epik_Ionization_Penalty>
1.42657

> <r_epik_Ionization_Penalty_Charging>
1.42653

> <r_epik_Ionization_Penalty_Neutral>
4.57062e-05

> <r_epik_State_Penalty>
1.51075

> <r_epik_Charging_Adjusted_Penalty>
2.93728

> <i_epik_Tot_Q>
1

> <i_epik_Tot_abs_Q>
1

> <r_epik_Metal_State_Penalty>
1.56242

> <b_epik_Metal_Only>
0

> <s_lp_Force_Field>
OPLS_2005

> <r_lp_Energy>
39.135

> <b_lp_Chiralities_Consistent>
1

> <s_lp_Variant>
AV-unprocessed.smi:864-4

> <Gold.Version>
5.8.1

> <Gold.Id.Protein>
6NUR|6NUR_protein|mol2

> <Gold.PLP.Fitness>
45.0703

> <Gold.PLP.PLP>
-34.5545

> <Gold.PLP.part.hbond>
-4.0000

> <Gold.PLP.part.metal>
0.0000

> <Gold.PLP.part.buried>
-0.7640

> <Gold.PLP.part.nonpolar>
-32.1498

> <Gold.PLP.part.repulsive>
1.8679

> <Gold.PLP.ligand.clash>
0.0000

> <Gold.PLP.ligand.torsion>
0.6027

> <Gold.PLP.Chemscore.Hbond>
3.8400

> <Gold.PLP.Chemscore.CHOScore>
0.0000

> <Gold.PLP.Chemscore.Metal>
0.0000

> <Gold.Chemscore.Hbonds>
donor molecule, donor type, donor heavy atom, donor atom, acceptor molecule, acceptor atom, score
      L1  H     8    32       P1  7948  0.89
      L1  H    11    33       P1  7948  1.00
      L1  H    22    45       P1 10186  2.00

> <Gold.PLP.Chemscore.Internal.Correction>
0.2012

> <Gold.Rescore>
     Score         DG    S(hbond)    S(metal)    S(lipo)     H(rot)  DE(clash)    DE(int)     intcor
     16.67     -20.22       2.67        0.00      89.99       1.84       1.59       1.96       ----

> <Gold.Chemscore.Fitness>
16.6652

> <Gold.Chemscore.DG>
-20.2171

> <Gold.Chemscore.ZeroCoef>
-5.4800

> <Gold.Chemscore.Hbond>
2.6686

> <Gold.Chemscore.Metal>
0.0000

> <Gold.Chemscore.Lipo>
89.9934

> <Gold.Chemscore.Internal_Hbond>
0.0000

> <Gold.Chemscore.DEClash>
1.5872

> <Gold.Chemscore.DEInternal>
1.9647

> <Gold.Chemscore.Rot>
1.8381

> <Gold.Chemscore.Internal.Correction>
   9.000000E+99

> <Gold.Chemscore.Hbonds>
donor molecule, donor type, donor heavy atom, donor atom, acceptor molecule, acceptor atom, score
      L1  H     8    32       P1  7948  0.82
      L1  H    11    33       P1  7948  0.94
      L1  H    22    45       P1 10186  0.89

> <Gold.Chemscore.Hbond.Weighted>
-8.9133

> <Gold.Chemscore.Metal.Weighted>
-0.0000

> <Gold.Chemscore.Lipo.Weighted>
-10.5292

> <Gold.Chemscore.Internal_Hbond.Weighted>
0.0000

> <Gold.Chemscore.DEClash.Weighted>
1.5872

> <Gold.Chemscore.DEInternal.Weighted>
1.9647

> <Gold.Chemscore.Rot.Weighted>
4.7054

> <Gold.Chemscore.Internal.Correction.Weighted>
   9.000000E+99

> <Gold.Protein.RotatedTorsions>
[ 6907 6896 6895 6894 ] final   75.95 input  -60.11 | X-H torsion
[ 7974 7965 7964 7962 ] final -121.39 input  175.53 | X-H torsion
[ 8008 7997 7996 7995 ] final  -17.03 input   59.86 | X-H torsion
[ 10167 10162 10161 10158 ] final   49.00 input  -65.29 | X-H torsion
[ 10718 10713 10712 10709 ] final -160.91 input   66.30 | X-H torsion
[ 10763 10752 10751 10750 ] final -112.65 input  -60.55 | X-H torsion
[ 11005 11000 10999 10996 ] final   86.66 input  -57.11 | X-H torsion

> <Gold.Protein.ActiveResidues>
 VAL166  LYS551  ARG553  GLY616  TRP617  ASP618  TYR619  PRO620  LYS621  CYS622 
 ASP623  PHE694  ASN695  SER759  ASP760  ASP761  ALA762  ILE779  LEU786  VAL792 
 PHE793  MET794  SER795  GLU796  ALA797  LYS798  CYS799  TRP800  GLU811  SER814 

> <Gold.Protein.RotatedAtoms>
  152.5050  134.4042  159.9426 H   0  0  0  0  0  0  0  0  0  0  0  0  # atno 6907 bound_to 6896
  151.4007  133.3752  159.2739 H   0  0  0  0  0  0  0  0  0  0  0  0  # atno 6908 bound_to 6896
  150.9363  134.8797  159.7643 H   0  0  0  0  0  0  0  0  0  0  0  0  # atno 6909 bound_to 6896
  145.0409  140.8144  143.4267 H   0  0  0  0  0  0  0  0  0  0  0  0  # atno 7974 bound_to 7965
  154.5008  140.2153  155.9350 H   0  0  0  0  0  0  0  0  0  0  0  0  # atno 8008 bound_to 7997
  156.1432  140.3176  155.8495 H   0  0  0  0  0  0  0  0  0  0  0  0  # atno 8009 bound_to 7997
  155.4081  140.0489  157.3024 H   0  0  0  0  0  0  0  0  0  0  0  0  # atno 8010 bound_to 7997
  140.2874  144.3086  150.6249 H   0  0  0  0  0  0  0  0  0  0  0  0  # atno 10167 bound_to 10162
  156.5888  130.8761  151.2884 H   0  0  0  0  0  0  0  0  0  0  0  0  # atno 10718 bound_to 10713
  154.8360  135.4483  154.1227 H   0  0  0  0  0  0  0  0  0  0  0  0  # atno 10763 bound_to 10752
  153.2459  135.6921  153.7738 H   0  0  0  0  0  0  0  0  0  0  0  0  # atno 10764 bound_to 10752
  153.7069  135.3363  155.3213 H   0  0  0  0  0  0  0  0  0  0  0  0  # atno 10765 bound_to 10752
  139.8939  134.8370  156.2752 H   0  0  0  0  0  0  0  0  0  0  0  0  # atno 11005 bound_to 11000
  145.1649  139.2437  143.5372 LP  0  0  0  0  0  0  0  0  0  0  0  0  # atno 17320 bound_to 7965
  146.3509  140.1385  142.8595 LP  0  0  0  0  0  0  0  0  0  0  0  0  # atno 17321 bound_to 7965
  140.5761  143.2176  151.7513 LP  0  0  0  0  0  0  0  0  0  0  0  0  # atno 17342 bound_to 10162
  139.4946  144.4148  152.0042 LP  0  0  0  0  0  0  0  0  0  0  0  0  # atno 17343 bound_to 10162
  157.7309  130.9692  150.1853 LP  0  0  0  0  0  0  0  0  0  0  0  0  # atno 17370 bound_to 10713
  156.2567  130.3706  149.8174 LP  0  0  0  0  0  0  0  0  0  0  0  0  # atno 17371 bound_to 10713
  141.0075  133.7115  156.1057 LP  0  0  0  0  0  0  0  0  0  0  0  0  # atno 17394 bound_to 11000
  140.7414  134.4146  157.5554 LP  0  0  0  0  0  0  0  0  0  0  0  0  # atno 17395 bound_to 11000

$$$$
