AV-unprocessed.smi:2813|AV-procd|sdf|10837|dock10
  -GOLD-   2272015273D 1   1.00000     0.00000
 Structure written by MMmdl.
 41 42  0  0  0  0  0  0  0  0  1 V2000
  148.0609  134.0207  154.4986 C   0  0  0  0  0  0  0  0  0  0  0  0
  149.0777  134.9736  155.1015 C   0  0  0  0  0  0  0  0  0  0  0  0
  148.7825  136.3338  154.9707 N   0  0  0  0  0  0  0  0  0  0  0  0
  149.5962  137.2189  155.4463 C   0  0  0  0  0  0  0  0  0  0  0  0
  150.7858  136.8531  156.0964 N   0  0  0  0  0  0  0  0  0  0  0  0
  151.6281  137.9568  156.5849 C   0  0  0  0  0  0  0  0  0  0  0  0
  151.4735  139.2295  155.7211 C   0  0  2  0  0  0  0  0  0  0  0  0
  152.3978  139.1681  154.6533 O   0  0  0  0  0  0  0  0  0  0  0  0
  151.7745  140.5120  156.5117 C   0  0  0  0  0  0  0  0  0  0  0  0
  152.5816  140.1741  157.6322 O   0  0  0  0  0  0  0  0  0  0  0  0
  152.7166  141.0972  158.6461 C   0  0  0  0  0  0  0  0  0  0  0  0
  153.3995  140.6761  159.8045 C   0  0  0  0  0  0  0  0  0  0  0  0
  153.5860  141.5540  160.8883 C   0  0  0  0  0  0  0  0  0  0  0  0
  153.0865  142.8678  160.8249 C   0  0  0  0  0  0  0  0  0  0  0  0
  152.3954  143.3082  159.6755 C   0  0  0  0  0  0  0  0  0  0  0  0
  151.8470  144.7243  159.5817 C   0  0  0  0  0  0  0  0  0  0  0  0
  150.5185  144.6863  159.4797 F   0  0  0  0  0  0  0  0  0  0  0  0
  152.1654  145.4546  160.6511 F   0  0  0  0  0  0  0  0  0  0  0  0
  152.3435  145.3195  158.4976 F   0  0  0  0  0  0  0  0  0  0  0  0
  152.2158  142.4224  158.5913 C   0  0  0  0  0  0  0  0  0  0  0  0
  151.1402  135.5490  156.2856 C   0  0  0  0  0  0  0  0  0  0  0  0
  152.1737  135.2396  156.8818 O   0  0  0  0  0  0  0  0  0  0  0  0
  150.2083  134.5529  155.7320 C   0  0  0  0  0  0  0  0  0  0  0  0
  150.5807  133.0857  155.9059 C   0  0  0  0  0  0  0  0  0  0  0  0
  148.5206  133.4211  153.7127 H   0  0  0  0  0  0  0  0  0  0  0  0
  147.2212  134.5607  154.0589 H   0  0  0  0  0  0  0  0  0  0  0  0
  147.6641  133.3512  155.2622 H   0  0  0  0  0  0  0  0  0  0  0  0
  149.4099  138.2921  155.3757 H   0  0  0  0  0  0  0  0  0  0  0  0
  151.3376  138.1736  157.6147 H   0  0  0  0  0  0  0  0  0  0  0  0
  152.6786  137.6696  156.6667 H   0  0  0  0  0  0  0  0  0  0  0  0
  150.4682  139.3035  155.3039 H   0  0  0  0  0  0  0  0  0  0  0  0
  152.6755  138.2712  154.5463 H   0  0  0  0  0  0  0  0  0  0  0  0
  152.2806  141.2385  155.8732 H   0  0  0  0  0  0  0  0  0  0  0  0
  150.8412  140.9575  156.8610 H   0  0  0  0  0  0  0  0  0  0  0  0
  153.7868  139.6693  159.8615 H   0  0  0  0  0  0  0  0  0  0  0  0
  154.1135  141.2190  161.7693 H   0  0  0  0  0  0  0  0  0  0  0  0
  153.2398  143.5302  161.6640 H   0  0  0  0  0  0  0  0  0  0  0  0
  151.6864  142.7853  157.7237 H   0  0  0  0  0  0  0  0  0  0  0  0
  150.6353  132.8349  156.9657 H   0  0  0  0  0  0  0  0  0  0  0  0
  151.5568  132.8899  155.4608 H   0  0  0  0  0  0  0  0  0  0  0  0
  149.8689  132.4038  155.4432 H   0  0  0  0  0  0  0  0  0  0  0  0
  1  2  1  0  0  0  0
  1 25  1  0  0  0  0
  1 26  1  0  0  0  0
  1 27  1  0  0  0  0
  2 23  2  0  0  0  0
  2  3  1  0  0  0  0
  3  4  2  0  0  0  0
  4  5  1  0  0  0  0
  4 28  1  0  0  0  0
  5  6  1  0  0  0  0
  5 21  1  0  0  0  0
  6  7  1  0  0  0  0
  6 29  1  0  0  0  0
  6 30  1  0  0  0  0
  7  8  1  0  0  0  0
  7  9  1  0  0  0  0
  7 31  1  0  0  0  0
  8 32  1  0  0  0  0
  9 10  1  0  0  0  0
  9 33  1  0  0  0  0
  9 34  1  0  0  0  0
 10 11  1  0  0  0  0
 11 20  1  0  0  0  0
 11 12  2  0  0  0  0
 12 13  1  0  0  0  0
 12 35  1  0  0  0  0
 13 14  2  0  0  0  0
 13 36  1  0  0  0  0
 14 15  1  0  0  0  0
 14 37  1  0  0  0  0
 15 16  1  0  0  0  0
 15 20  2  0  0  0  0
 16 17  1  0  0  0  0
 16 18  1  0  0  0  0
 16 19  1  0  0  0  0
 20 38  1  0  0  0  0
 21 22  2  0  0  0  0
 21 23  1  0  0  0  0
 23 24  1  0  0  0  0
 24 39  1  0  0  0  0
 24 40  1  0  0  0  0
 24 41  1  0  0  0  0
M  END
> <s_m_source_file>
AV-unprocessed.smi

> <i_m_source_file_index>
2813

> <i_lp_mmshare_version>
43012

> <i_f3d_flags>
0

> <s_epik_input>
W0NIM11jMW5bY0hdbihjKD1PKWMxW0NIM10pW0NIMl1bQ0BIXShbT0hdKVtDSDJdT2MyW2NIXVtjSF1bY0hdYyhDKEYpKEYpRilbY0hdMg==

> <s_epik_cmdline>
J2VwaWtfcHl0aG9uJywgJy1waCcsICc3LjAnLCAnLXRuJywgJzgnLCAnLW1hJywgJzIwMCcsICctbWV0YWxfYmluZGluZycsICctaW1hZScsICc8aW5maWxlLm1hZT4nLCAnLW9tYWUnLCAnPG91dGZpbGUubWFlPic=

> <r_lp_tautomer_probability>
1

> <r_epik_Ionization_Penalty>
3.72236e-05

> <r_epik_Ionization_Penalty_Charging>
8.38864e-08

> <r_epik_Ionization_Penalty_Neutral>
3.71397e-05

> <r_epik_State_Penalty>
-0

> <r_epik_Charging_Adjusted_Penalty>
8.38864e-08

> <i_epik_Tot_Q>
0

> <i_epik_Tot_abs_Q>
0

> <r_epik_Metal_State_Penalty>
-0

> <b_epik_Metal_Only>
0

> <s_lp_Force_Field>
OPLS_2005

> <r_lp_Energy>
22.8491

> <b_lp_Chiralities_Consistent>
1

> <s_lp_Variant>
AV-unprocessed.smi:2813-1

> <Gold.Version>
5.8.1

> <Gold.Id.Protein>
6NUR|6NUR_protein|mol2

> <Gold.PLP.Fitness>
53.1826

> <Gold.PLP.PLP>
-48.0920

> <Gold.PLP.part.hbond>
-3.0000

> <Gold.PLP.part.metal>
0.0000

> <Gold.PLP.part.buried>
-4.8868

> <Gold.PLP.part.nonpolar>
-39.0246

> <Gold.PLP.part.repulsive>
0.2979

> <Gold.PLP.ligand.clash>
0.0000

> <Gold.PLP.ligand.torsion>
1.3573

> <Gold.PLP.Chemscore.Hbond>
2.5616

> <Gold.PLP.Chemscore.CHOScore>
0.0000

> <Gold.PLP.Chemscore.Metal>
0.0000

> <Gold.Chemscore.Hbonds>
donor molecule, donor type, donor heavy atom, donor atom, acceptor molecule, acceptor atom, score
      P1  H  7989  7998       L1     8  0.44
      P1  H  7997  8008       L1    10  0.99
      P1  H 10752 10765       L1    22  0.81

> <Gold.PLP.Chemscore.Internal.Correction>
0.1203

> <Gold.Rescore>
     Score         DG    S(hbond)    S(metal)    S(lipo)     H(rot)  DE(clash)    DE(int)     intcor
     16.27     -18.42       2.20        0.00     107.53       2.73       0.84       1.30       ----

> <Gold.Chemscore.Fitness>
16.2730

> <Gold.Chemscore.DG>
-18.4158

> <Gold.Chemscore.ZeroCoef>
-5.4800

> <Gold.Chemscore.Hbond>
2.1985

> <Gold.Chemscore.Metal>
0.0000

> <Gold.Chemscore.Lipo>
107.5346

> <Gold.Chemscore.Internal_Hbond>
0.0000

> <Gold.Chemscore.DEClash>
0.8378

> <Gold.Chemscore.DEInternal>
1.3050

> <Gold.Chemscore.Rot>
2.7300

> <Gold.Chemscore.Internal.Correction>
   9.000000E+99

> <Gold.Chemscore.Hbonds>
donor molecule, donor type, donor heavy atom, donor atom, acceptor molecule, acceptor atom, score
      P1  H  7989  7998       L1     8  0.10
      P1  H  7997  8008       L1    10  0.14
      P1  H 10752 10765       L1    22  0.26

> <Gold.Chemscore.Hbond.Weighted>
-7.3430

> <Gold.Chemscore.Metal.Weighted>
-0.0000

> <Gold.Chemscore.Lipo.Weighted>
-12.5816

> <Gold.Chemscore.Internal_Hbond.Weighted>
0.0000

> <Gold.Chemscore.DEClash.Weighted>
0.8378

> <Gold.Chemscore.DEInternal.Weighted>
1.3050

> <Gold.Chemscore.Rot.Weighted>
6.9888

> <Gold.Chemscore.Internal.Correction.Weighted>
   9.000000E+99

> <Gold.Protein.RotatedTorsions>
[ 6907 6896 6895 6894 ] final   -9.77 input  -60.11 | X-H torsion
[ 7974 7965 7964 7962 ] final -111.21 input  175.53 | X-H torsion
[ 8008 7997 7996 7995 ] final  -72.35 input   59.86 | X-H torsion
[ 10167 10162 10161 10158 ] final   33.12 input  -65.29 | X-H torsion
[ 10718 10713 10712 10709 ] final    6.70 input   66.30 | X-H torsion
[ 10763 10752 10751 10750 ] final -116.26 input  -60.55 | X-H torsion
[ 11005 11000 10999 10996 ] final   74.68 input  -57.11 | X-H torsion

> <Gold.Protein.ActiveResidues>
 VAL166  LYS551  ARG553  GLY616  TRP617  ASP618  TYR619  PRO620  LYS621  CYS622 
 ASP623  PHE694  ASN695  SER759  ASP760  ASP761  ALA762  ILE779  LEU786  VAL792 
 PHE793  MET794  SER795  GLU796  ALA797  LYS798  CYS799  TRP800  GLU811  SER814 

> <Gold.Protein.RotatedAtoms>
  151.4125  135.0987  159.9589 H   0  0  0  0  0  0  0  0  0  0  0  0  # atno 6907 bound_to 6896
  152.5015  133.8783  159.7344 H   0  0  0  0  0  0  0  0  0  0  0  0  # atno 6908 bound_to 6896
  150.9281  133.6742  159.2845 H   0  0  0  0  0  0  0  0  0  0  0  0  # atno 6909 bound_to 6896
  145.1589  140.8868  143.3602 H   0  0  0  0  0  0  0  0  0  0  0  0  # atno 7974 bound_to 7965
  154.5159  140.0799  156.8080 H   0  0  0  0  0  0  0  0  0  0  0  0  # atno 8008 bound_to 7997
  155.3681  140.3421  155.4224 H   0  0  0  0  0  0  0  0  0  0  0  0  # atno 8009 bound_to 7997
  156.1627  140.1594  156.8572 H   0  0  0  0  0  0  0  0  0  0  0  0  # atno 8010 bound_to 7997
  140.4436  144.1151  150.6178 H   0  0  0  0  0  0  0  0  0  0  0  0  # atno 10167 bound_to 10162
  156.9261  130.5808  149.5648 H   0  0  0  0  0  0  0  0  0  0  0  0  # atno 10718 bound_to 10713
  154.8512  135.4352  154.1793 H   0  0  0  0  0  0  0  0  0  0  0  0  # atno 10763 bound_to 10752
  153.2887  135.6959  153.7320 H   0  0  0  0  0  0  0  0  0  0  0  0  # atno 10764 bound_to 10752
  153.6495  135.3454  155.3070 H   0  0  0  0  0  0  0  0  0  0  0  0  # atno 10765 bound_to 10752
  139.9379  134.7454  156.1178 H   0  0  0  0  0  0  0  0  0  0  0  0  # atno 11005 bound_to 11000
  145.0352  139.3307  143.6004 LP  0  0  0  0  0  0  0  0  0  0  0  0  # atno 17320 bound_to 7965
  146.3485  139.9705  142.8707 LP  0  0  0  0  0  0  0  0  0  0  0  0  # atno 17321 bound_to 7965
  140.4289  143.2577  151.9621 LP  0  0  0  0  0  0  0  0  0  0  0  0  # atno 17342 bound_to 10162
  139.4791  144.5762  151.8008 LP  0  0  0  0  0  0  0  0  0  0  0  0  # atno 17343 bound_to 10162
  156.0469  130.5544  150.8900 LP  0  0  0  0  0  0  0  0  0  0  0  0  # atno 17370 bound_to 10713
  157.5877  131.0945  150.9170 LP  0  0  0  0  0  0  0  0  0  0  0  0  # atno 17371 bound_to 10713
  141.1001  133.6680  156.2735 LP  0  0  0  0  0  0  0  0  0  0  0  0  # atno 17394 bound_to 11000
  140.6027  134.5538  157.5520 LP  0  0  0  0  0  0  0  0  0  0  0  0  # atno 17395 bound_to 11000

$$$$
