AV-unprocessed.smi:2345|AV-procd|sdf|9362|dock6
  -GOLD-   2272012583D 1   1.00000     0.00000
 Structure written by MMmdl.
 37 38  0  0  0  0  0  0  0  0  1 V2000
  147.0517  140.0350  153.2604 C   0  0  0  0  0  0  0  0  0  0  0  0
  148.0919  139.0697  153.8336 C   0  0  0  0  0  0  0  0  0  0  0  0
  149.4427  139.9621  154.6527 S   0  0  0  0  0  0  0  0  0  0  0  0
  150.3184  138.5782  155.4637 C   0  0  1  0  0  0  0  0  0  0  0  0
  150.8063  137.5841  154.4077 C   0  0  0  0  0  0  0  0  0  0  0  0
  152.1448  138.1494  153.9365 C   0  0  0  0  0  0  0  0  0  0  0  0
  152.7636  138.8027  155.1768 C   0  0  0  0  0  0  0  0  0  0  0  0
  151.6197  138.9980  156.1916 C   0  0  1  0  0  0  0  0  0  0  0  0
  151.6010  140.3641  156.7127 N   0  0  0  0  0  0  0  0  0  0  0  0
  151.8822  140.7143  157.9754 C   0  0  0  0  0  0  0  0  0  0  0  0
  152.2049  139.9077  158.8473 O   0  0  0  0  0  0  0  0  0  0  0  0
  151.7314  142.0374  158.1546 N   0  0  0  0  0  0  0  0  0  0  0  0
  151.9030  142.7993  159.3424 C   0  0  0  0  0  0  0  0  0  0  0  0
  152.3479  142.2603  160.5741 C   0  0  0  0  0  0  0  0  0  0  0  0
  152.4941  143.1268  161.6761 C   0  0  0  0  0  0  0  0  0  0  0  0
  152.2400  144.4514  161.6205 N   0  0  0  0  0  0  0  0  0  0  0  0
  151.8298  144.9640  160.4410 C   0  0  0  0  0  0  0  0  0  0  0  0
  151.6515  144.1864  159.2791 C   0  0  0  0  0  0  0  0  0  0  0  0
  151.2404  144.7656  158.1251 F   0  0  0  0  0  0  0  0  0  0  0  0
  146.2441  139.4901  152.7712 H   0  0  0  0  0  0  0  0  0  0  0  0
  147.4979  140.7037  152.5238 H   0  0  0  0  0  0  0  0  0  0  0  0
  146.6109  140.6474  154.0477 H   0  0  0  0  0  0  0  0  0  0  0  0
  147.6147  138.3992  154.5468 H   0  0  0  0  0  0  0  0  0  0  0  0
  148.5096  138.4482  153.0411 H   0  0  0  0  0  0  0  0  0  0  0  0
  149.6244  138.0891  156.1481 H   0  0  0  0  0  0  0  0  0  0  0  0
  150.9678  136.6105  154.8724 H   0  0  0  0  0  0  0  0  0  0  0  0
  150.0979  137.4424  153.5906 H   0  0  0  0  0  0  0  0  0  0  0  0
  152.7896  137.3856  153.5012 H   0  0  0  0  0  0  0  0  0  0  0  0
  151.9714  138.9077  153.1717 H   0  0  0  0  0  0  0  0  0  0  0  0
  153.5317  138.1571  155.6041 H   0  0  0  0  0  0  0  0  0  0  0  0
  153.2498  139.7415  154.9075 H   0  0  0  0  0  0  0  0  0  0  0  0
  151.7921  138.2972  157.0109 H   0  0  0  0  0  0  0  0  0  0  0  0
  151.3306  141.0905  156.0659 H   0  0  0  0  0  0  0  0  0  0  0  0
  151.3807  142.5539  157.3613 H   0  0  0  0  0  0  0  0  0  0  0  0
  152.5892  141.2152  160.6924 H   0  0  0  0  0  0  0  0  0  0  0  0
  152.8312  142.7451  162.6286 H   0  0  0  0  0  0  0  0  0  0  0  0
  151.6392  146.0268  160.4217 H   0  0  0  0  0  0  0  0  0  0  0  0
  1  2  1  0  0  0  0
  1 20  1  0  0  0  0
  1 21  1  0  0  0  0
  1 22  1  0  0  0  0
  2  3  1  0  0  0  0
  2 23  1  0  0  0  0
  2 24  1  0  0  0  0
  3  4  1  0  0  0  0
  4  8  1  0  0  0  0
  4  5  1  0  0  0  0
  4 25  1  0  0  0  0
  5  6  1  0  0  0  0
  5 26  1  0  0  0  0
  5 27  1  0  0  0  0
  6  7  1  0  0  0  0
  6 28  1  0  0  0  0
  6 29  1  0  0  0  0
  7  8  1  0  0  0  0
  7 30  1  0  0  0  0
  7 31  1  0  0  0  0
  8  9  1  0  0  0  0
  8 32  1  0  0  0  0
  9 10  1  0  0  0  0
  9 33  1  0  0  0  0
 10 11  2  0  0  0  0
 10 12  1  0  0  0  0
 12 13  1  0  0  0  0
 12 34  1  0  0  0  0
 13 18  1  0  0  0  0
 13 14  2  0  0  0  0
 14 15  1  0  0  0  0
 14 35  1  0  0  0  0
 15 16  2  0  0  0  0
 15 36  1  0  0  0  0
 16 17  1  0  0  0  0
 17 18  2  0  0  0  0
 17 37  1  0  0  0  0
 18 19  1  0  0  0  0
M  END
> <s_m_source_file>
AV-unprocessed.smi

> <i_m_source_file_index>
2345

> <i_lp_mmshare_version>
43012

> <i_f3d_flags>
0

> <s_epik_input>
W0NIM11bQ0gyXVNbQ0BASF0xW0NIMl1bQ0gyXVtDSDJdW0NASF0xW05IXUMoPU8pW05IXWMyW2NIXVtjSF1uW2NIXWMyRg==

> <s_epik_cmdline>
J2VwaWtfcHl0aG9uJywgJy1waCcsICc3LjAnLCAnLXRuJywgJzgnLCAnLW1hJywgJzIwMCcsICctbWV0YWxfYmluZGluZycsICctaW1hZScsICc8aW5maWxlLm1hZT4nLCAnLW9tYWUnLCAnPG91dGZpbGUubWFlPic=

> <r_epik_Ionization_Penalty>
0.00333745

> <r_epik_Ionization_Penalty_Charging>
0

> <r_epik_Ionization_Penalty_Neutral>
0.00333745

> <r_epik_State_Penalty>
0.00233401

> <r_epik_Charging_Adjusted_Penalty>
0.00233401

> <i_epik_Tot_Q>
0

> <i_epik_Tot_abs_Q>
0

> <r_epik_Metal_State_Penalty>
-0

> <b_epik_Metal_Only>
0

> <s_lp_Force_Field>
OPLS_2005

> <r_lp_Energy>
24.8038

> <b_lp_Chiralities_Consistent>
1

> <s_lp_Variant>
AV-unprocessed.smi:2345-2

> <Gold.Version>
5.8.1

> <Gold.Id.Protein>
6NUR|6NUR_protein|mol2

> <Gold.PLP.Fitness>
40.6619

> <Gold.PLP.PLP>
-40.8166

> <Gold.PLP.part.hbond>
0.0000

> <Gold.PLP.part.metal>
0.0000

> <Gold.PLP.part.buried>
-4.5644

> <Gold.PLP.part.nonpolar>
-36.5285

> <Gold.PLP.part.repulsive>
0.3833

> <Gold.PLP.ligand.clash>
0.0000

> <Gold.PLP.ligand.torsion>
0.0844

> <Gold.PLP.Chemscore.Hbond>
0.0000

> <Gold.PLP.Chemscore.CHOScore>
0.0000

> <Gold.PLP.Chemscore.Metal>
0.0000

> <Gold.PLP.Chemscore.Internal.Correction>
0.0140

> <Gold.Rescore>
     Score         DG    S(hbond)    S(metal)    S(lipo)     H(rot)  DE(clash)    DE(int)     intcor
     12.92     -15.27       0.00        0.00     113.17       1.35       1.02       1.33       ----

> <Gold.Chemscore.Fitness>
12.9208

> <Gold.Chemscore.DG>
-15.2713

> <Gold.Chemscore.ZeroCoef>
-5.4800

> <Gold.Chemscore.Hbond>
0.0000

> <Gold.Chemscore.Metal>
0.0000

> <Gold.Chemscore.Lipo>
113.1700

> <Gold.Chemscore.Internal_Hbond>
0.0000

> <Gold.Chemscore.DEClash>
1.0195

> <Gold.Chemscore.DEInternal>
1.3309

> <Gold.Chemscore.Rot>
1.3475

> <Gold.Chemscore.Internal.Correction>
   9.000000E+99

> <Gold.Chemscore.Hbond.Weighted>
-0.0000

> <Gold.Chemscore.Metal.Weighted>
-0.0000

> <Gold.Chemscore.Lipo.Weighted>
-13.2409

> <Gold.Chemscore.Internal_Hbond.Weighted>
0.0000

> <Gold.Chemscore.DEClash.Weighted>
1.0195

> <Gold.Chemscore.DEInternal.Weighted>
1.3309

> <Gold.Chemscore.Rot.Weighted>
3.4496

> <Gold.Chemscore.Internal.Correction.Weighted>
   9.000000E+99

> <Gold.Protein.RotatedTorsions>
[ 6907 6896 6895 6894 ] final  -40.99 input  -60.11 | X-H torsion
[ 7974 7965 7964 7962 ] final  -21.91 input  175.53 | X-H torsion
[ 8008 7997 7996 7995 ] final  125.50 input   59.86 | X-H torsion
[ 10167 10162 10161 10158 ] final  122.72 input  -65.29 | X-H torsion
[ 10718 10713 10712 10709 ] final  -93.63 input   66.30 | X-H torsion
[ 10763 10752 10751 10750 ] final  113.08 input  -60.55 | X-H torsion
[ 11005 11000 10999 10996 ] final -116.20 input  -57.11 | X-H torsion

> <Gold.Protein.ActiveResidues>
 VAL166  LYS551  ARG553  GLY616  TRP617  ASP618  TYR619  PRO620  LYS621  CYS622 
 ASP623  PHE694  ASN695  SER759  ASP760  ASP761  ALA762  ILE779  LEU786  VAL792 
 PHE793  MET794  SER795  GLU796  ALA797  LYS798  CYS799  TRP800  GLU811  SER814 

> <Gold.Protein.RotatedAtoms>
  150.9720  134.9091  159.7793 H   0  0  0  0  0  0  0  0  0  0  0  0  # atno 6907 bound_to 6896
  152.5193  134.3528  159.9267 H   0  0  0  0  0  0  0  0  0  0  0  0  # atno 6908 bound_to 6896
  151.3537  133.3875  159.2717 H   0  0  0  0  0  0  0  0  0  0  0  0  # atno 6909 bound_to 6896
  146.1706  140.4407  142.8534 H   0  0  0  0  0  0  0  0  0  0  0  0  # atno 7974 bound_to 7965
  156.2836  140.2715  156.1960 H   0  0  0  0  0  0  0  0  0  0  0  0  # atno 8008 bound_to 7997
  155.0410  140.0386  157.2527 H   0  0  0  0  0  0  0  0  0  0  0  0  # atno 8009 bound_to 7997
  154.7274  140.2700  155.6492 H   0  0  0  0  0  0  0  0  0  0  0  0  # atno 8010 bound_to 7997
  139.5842  144.6999  151.3452 H   0  0  0  0  0  0  0  0  0  0  0  0  # atno 10167 bound_to 10162
  156.0016  130.5034  150.5804 H   0  0  0  0  0  0  0  0  0  0  0  0  # atno 10718 bound_to 10713
  153.4872  135.3666  155.2473 H   0  0  0  0  0  0  0  0  0  0  0  0  # atno 10763 bound_to 10752
  154.8753  135.3968  154.3631 H   0  0  0  0  0  0  0  0  0  0  0  0  # atno 10764 bound_to 10752
  153.4244  135.7081  153.6338 H   0  0  0  0  0  0  0  0  0  0  0  0  # atno 10765 bound_to 10752
  141.0438  133.9795  157.2952 H   0  0  0  0  0  0  0  0  0  0  0  0  # atno 11005 bound_to 11000
  144.8157  140.6464  143.6386 LP  0  0  0  0  0  0  0  0  0  0  0  0  # atno 17320 bound_to 7965
  145.4351  139.1543  143.4001 LP  0  0  0  0  0  0  0  0  0  0  0  0  # atno 17321 bound_to 7965
  140.7116  143.7376  150.7577 LP  0  0  0  0  0  0  0  0  0  0  0  0  # atno 17342 bound_to 10162
  140.0916  143.4872  152.2475 LP  0  0  0  0  0  0  0  0  0  0  0  0  # atno 17343 bound_to 10162
  157.3685  131.0761  151.1577 LP  0  0  0  0  0  0  0  0  0  0  0  0  # atno 17370 bound_to 10713
  157.2338  130.6537  149.5861 LP  0  0  0  0  0  0  0  0  0  0  0  0  # atno 17371 bound_to 10713
  139.9296  135.0200  156.8353 LP  0  0  0  0  0  0  0  0  0  0  0  0  # atno 17394 bound_to 11000
  140.6185  134.0016  155.7608 LP  0  0  0  0  0  0  0  0  0  0  0  0  # atno 17395 bound_to 11000

$$$$
