AV-unprocessed.smi:3036|AV-procd|sdf|11583|dock9
  -GOLD-   2272016553D 1   1.00000     0.00000
 Structure written by MMmdl.
 42 43  0  0  0  0  0  0  0  0  2 V2000
  153.2568  142.1855  162.1629 C   0  0  0  0  0  0  0  0  0  0  0  0
  153.0032  141.6011  160.7669 C   0  0  1  0  0  0  0  0  0  0  0  0
  153.5234  142.5459  159.6669 C   0  0  0  0  0  0  0  0  0  0  0  0
  152.5636  143.5816  159.3309 N   0  0  0  0  0  0  0  0  0  0  0  0
  151.9858  144.5189  160.1610 C   0  0  0  0  0  0  0  0  0  0  0  0
  151.1368  145.2678  159.3979 C   0  0  0  0  0  0  0  0  0  0  0  0
  151.2708  144.7099  158.0957 C   0  0  0  0  0  0  0  0  0  0  0  0
  152.1275  143.7020  158.0594 N   0  0  0  0  0  0  0  0  0  0  0  0
  153.6393  140.2677  160.6631 N   0  3  0  0  0  0  0  0  0  0  0  0
  153.7999  139.7652  159.2807 C   0  0  0  0  0  0  0  0  0  0  0  0
  152.4475  139.4339  158.6169 C   0  0  0  0  0  0  0  0  0  0  0  0
  152.5420  138.6086  157.3195 C   0  0  0  0  0  0  0  0  0  0  0  0
  153.0175  137.4742  157.3685 O   0  0  0  0  0  0  0  0  0  0  0  0
  152.1026  139.1541  156.1599 N   0  0  0  0  0  0  0  0  0  0  0  0
  152.1087  138.4353  154.8820 C   0  0  0  0  0  0  0  0  0  0  0  0
  150.6526  138.2547  154.4169 C   0  0  0  0  0  0  0  0  0  0  0  0
  150.0230  139.5287  154.3063 O   0  0  0  0  0  0  0  0  0  0  0  0
  150.0246  140.2619  155.5286 C   0  0  0  0  0  0  0  0  0  0  0  0
  151.4730  140.4698  156.0064 C   0  0  0  0  0  0  0  0  0  0  0  0
  152.7743  143.1569  162.2749 H   0  0  0  0  0  0  0  0  0  0  0  0
  154.3227  142.3210  162.3502 H   0  0  0  0  0  0  0  0  0  0  0  0
  152.8614  141.5315  162.9411 H   0  0  0  0  0  0  0  0  0  0  0  0
  151.9230  141.4994  160.6463 H   0  0  0  0  0  0  0  0  0  0  0  0
  154.4403  143.0361  159.9968 H   0  0  0  0  0  0  0  0  0  0  0  0
  153.7786  141.9852  158.7659 H   0  0  0  0  0  0  0  0  0  0  0  0
  152.2204  144.5716  161.2141 H   0  0  0  0  0  0  0  0  0  0  0  0
  150.5155  146.0905  159.7201 H   0  0  0  0  0  0  0  0  0  0  0  0
  150.7743  145.0041  157.1827 H   0  0  0  0  0  0  0  0  0  0  0  0
  154.5535  140.3168  161.0919 H   0  0  0  0  0  0  0  0  0  0  0  0
  154.3053  140.5302  158.6898 H   0  0  0  0  0  0  0  0  0  0  0  0
  154.4518  138.8900  159.2834 H   0  0  0  0  0  0  0  0  0  0  0  0
  151.8189  138.9052  159.3347 H   0  0  0  0  0  0  0  0  0  0  0  0
  151.9432  140.3719  158.3815 H   0  0  0  0  0  0  0  0  0  0  0  0
  152.6702  139.0120  154.1457 H   0  0  0  0  0  0  0  0  0  0  0  0
  152.5984  137.4623  154.9406 H   0  0  0  0  0  0  0  0  0  0  0  0
  150.6245  137.7619  153.4448 H   0  0  0  0  0  0  0  0  0  0  0  0
  150.0973  137.6232  155.1122 H   0  0  0  0  0  0  0  0  0  0  0  0
  149.5395  141.2237  155.3626 H   0  0  0  0  0  0  0  0  0  0  0  0
  149.4380  139.7334  156.2817 H   0  0  0  0  0  0  0  0  0  0  0  0
  151.4752  141.0704  156.9144 H   0  0  0  0  0  0  0  0  0  0  0  0
  152.0301  141.0479  155.2680 H   0  0  0  0  0  0  0  0  0  0  0  0
  153.0771  139.6070  161.1802 H   0  0  0  0  0  0  0  0  0  0  0  0
  1  2  1  0  0  0  0
  1 20  1  0  0  0  0
  1 21  1  0  0  0  0
  1 22  1  0  0  0  0
  2  3  1  0  0  0  0
  2  9  1  0  0  0  0
  2 23  1  0  0  0  0
  3  4  1  0  0  0  0
  3 24  1  0  0  0  0
  3 25  1  0  0  0  0
  4  8  1  0  0  0  0
  4  5  1  0  0  0  0
  5  6  2  0  0  0  0
  5 26  1  0  0  0  0
  6  7  1  0  0  0  0
  6 27  1  0  0  0  0
  7  8  2  0  0  0  0
  7 28  1  0  0  0  0
  9 10  1  0  0  0  0
  9 29  1  0  0  0  0
  9 42  1  0  0  0  0
 10 11  1  0  0  0  0
 10 30  1  0  0  0  0
 10 31  1  0  0  0  0
 11 12  1  0  0  0  0
 11 32  1  0  0  0  0
 11 33  1  0  0  0  0
 12 13  2  0  0  0  0
 12 14  1  0  0  0  0
 14 19  1  0  0  0  0
 14 15  1  0  0  0  0
 15 16  1  0  0  0  0
 15 34  1  0  0  0  0
 15 35  1  0  0  0  0
 16 17  1  0  0  0  0
 16 36  1  0  0  0  0
 16 37  1  0  0  0  0
 17 18  1  0  0  0  0
 18 19  1  0  0  0  0
 18 38  1  0  0  0  0
 18 39  1  0  0  0  0
 19 40  1  0  0  0  0
 19 41  1  0  0  0  0
M  CHG  1   9   1
M  END
> <s_m_source_file>
AV-unprocessed.smi

> <i_m_source_file_index>
3036

> <i_lp_mmshare_version>
43012

> <i_f3d_flags>
0

> <s_epik_input>
bjFbY0hdW2NIXVtjSF1uMVtDSDJdW0NAQEhdKFtDSDNdKVtOSF1bQ0gyXVtDSDJdQyg9TylOMltDSDJdW0NIMl1PW0NIMl1bQ0gyXTI=

> <s_epik_cmdline>
J2VwaWtfcHl0aG9uJywgJy1waCcsICc3LjAnLCAnLXRuJywgJzgnLCAnLW1hJywgJzIwMCcsICctbWV0YWxfYmluZGluZycsICctaW1hZScsICc8aW5maWxlLm1hZT4nLCAnLW9tYWUnLCAnPG91dGZpbGUubWFlPic=

> <r_lp_tautomer_probability>
1

> <r_epik_Ionization_Penalty>
0.00797109

> <r_epik_Ionization_Penalty_Charging>
0.0079672

> <r_epik_Ionization_Penalty_Neutral>
3.88864e-06

> <r_epik_State_Penalty>
0.00597998

> <r_epik_Charging_Adjusted_Penalty>
0.0139472

> <i_epik_Tot_Q>
1

> <i_epik_Tot_abs_Q>
1

> <r_epik_Metal_State_Penalty>
0.00598029

> <b_epik_Metal_Only>
0

> <s_lp_Force_Field>
OPLS_2005

> <r_lp_Energy>
23.754

> <b_lp_Chiralities_Consistent>
1

> <s_lp_Variant>
AV-unprocessed.smi:3036-2

> <Gold.Version>
5.8.1

> <Gold.Id.Protein>
6NUR|6NUR_protein|mol2

> <Gold.PLP.Fitness>
50.6372

> <Gold.PLP.PLP>
-46.4726

> <Gold.PLP.part.hbond>
-1.0000

> <Gold.PLP.part.metal>
0.0000

> <Gold.PLP.part.buried>
-4.6714

> <Gold.PLP.part.nonpolar>
-40.1938

> <Gold.PLP.part.repulsive>
0.6529

> <Gold.PLP.ligand.clash>
0.0000

> <Gold.PLP.ligand.torsion>
0.5170

> <Gold.PLP.Chemscore.Hbond>
0.7000

> <Gold.PLP.Chemscore.CHOScore>
1.0000

> <Gold.PLP.Chemscore.Metal>
0.0000

> <Gold.Chemscore.Hbonds>
donor molecule, donor type, donor heavy atom, donor atom, acceptor molecule, acceptor atom, score
      P1  H  7989  7998       L1    17  0.27
      L1  C     7    28       P1  8028  1.00

> <Gold.PLP.Chemscore.Internal.Correction>
0.0986

> <Gold.Rescore>
     Score         DG    S(hbond)    S(metal)    S(lipo)     H(rot)  DE(clash)    DE(int)     intcor
     12.79     -13.25       0.00        0.00     111.58       2.07       0.10       0.36       ----

> <Gold.Chemscore.Fitness>
12.7869

> <Gold.Chemscore.DG>
-13.2457

> <Gold.Chemscore.ZeroCoef>
-5.4800

> <Gold.Chemscore.Hbond>
0.0014

> <Gold.Chemscore.Metal>
0.0000

> <Gold.Chemscore.Lipo>
111.5810

> <Gold.Chemscore.Internal_Hbond>
0.0000

> <Gold.Chemscore.DEClash>
0.0986

> <Gold.Chemscore.DEInternal>
0.3602

> <Gold.Chemscore.Rot>
2.0680

> <Gold.Chemscore.Internal.Correction>
   9.000000E+99

> <Gold.Chemscore.Hbonds>
donor molecule, donor type, donor heavy atom, donor atom, acceptor molecule, acceptor atom, score
      P1  H  7989  7998       L1    17  0.01

> <Gold.Chemscore.Hbond.Weighted>
-0.0048

> <Gold.Chemscore.Metal.Weighted>
-0.0000

> <Gold.Chemscore.Lipo.Weighted>
-13.0550

> <Gold.Chemscore.Internal_Hbond.Weighted>
0.0000

> <Gold.Chemscore.DEClash.Weighted>
0.0986

> <Gold.Chemscore.DEInternal.Weighted>
0.3602

> <Gold.Chemscore.Rot.Weighted>
5.2941

> <Gold.Chemscore.Internal.Correction.Weighted>
   9.000000E+99

> <Gold.Protein.RotatedTorsions>
[ 6907 6896 6895 6894 ] final -151.96 input  -60.11 | X-H torsion
[ 7974 7965 7964 7962 ] final -133.30 input  175.53 | X-H torsion
[ 8008 7997 7996 7995 ] final -141.84 input   59.86 | X-H torsion
[ 10167 10162 10161 10158 ] final   45.79 input  -65.29 | X-H torsion
[ 10718 10713 10712 10709 ] final -167.11 input   66.30 | X-H torsion
[ 10763 10752 10751 10750 ] final -178.34 input  -60.55 | X-H torsion
[ 11005 11000 10999 10996 ] final -151.91 input  -57.11 | X-H torsion

> <Gold.Protein.ActiveResidues>
 VAL166  LYS551  ARG553  GLY616  TRP617  ASP618  TYR619  PRO620  LYS621  CYS622 
 ASP623  PHE694  ASN695  SER759  ASP760  ASP761  ALA762  ILE779  LEU786  VAL792 
 PHE793  MET794  SER795  GLU796  ALA797  LYS798  CYS799  TRP800  GLU811  SER814 

> <Gold.Protein.RotatedAtoms>
  151.2208  133.4503  159.2600 H   0  0  0  0  0  0  0  0  0  0  0  0  # atno 6907 bound_to 6896
  151.0887  134.9903  159.8402 H   0  0  0  0  0  0  0  0  0  0  0  0  # atno 6908 bound_to 6896
  152.5432  134.2143  159.8815 H   0  0  0  0  0  0  0  0  0  0  0  0  # atno 6909 bound_to 6896
  144.9205  140.7008  143.4968 H   0  0  0  0  0  0  0  0  0  0  0  0  # atno 7974 bound_to 7965
  155.4845  140.0563  157.2962 H   0  0  0  0  0  0  0  0  0  0  0  0  # atno 8008 bound_to 7997
  154.4647  140.2013  156.0101 H   0  0  0  0  0  0  0  0  0  0  0  0  # atno 8009 bound_to 7997
  156.0953  140.3227  155.7874 H   0  0  0  0  0  0  0  0  0  0  0  0  # atno 8010 bound_to 7997
  140.3205  144.2711  150.6183 H   0  0  0  0  0  0  0  0  0  0  0  0  # atno 10167 bound_to 10162
  156.6777  130.9109  151.3052 H   0  0  0  0  0  0  0  0  0  0  0  0  # atno 10718 bound_to 10713
  154.5489  135.2811  155.1027 H   0  0  0  0  0  0  0  0  0  0  0  0  # atno 10763 bound_to 10752
  154.2480  135.6344  153.5234 H   0  0  0  0  0  0  0  0  0  0  0  0  # atno 10764 bound_to 10752
  152.9998  135.5576  154.6050 H   0  0  0  0  0  0  0  0  0  0  0  0  # atno 10765 bound_to 10752
  140.7245  134.3690  157.5177 H   0  0  0  0  0  0  0  0  0  0  0  0  # atno 11005 bound_to 11000
  145.3303  139.1761  143.4540 LP  0  0  0  0  0  0  0  0  0  0  0  0  # atno 17320 bound_to 7965
  146.3202  140.3332  142.8642 LP  0  0  0  0  0  0  0  0  0  0  0  0  # atno 17321 bound_to 7965
  140.5488  143.2210  151.7962 LP  0  0  0  0  0  0  0  0  0  0  0  0  # atno 17342 bound_to 10162
  139.4875  144.4504  151.9660 LP  0  0  0  0  0  0  0  0  0  0  0  0  # atno 17343 bound_to 10162
  157.7055  130.9380  150.0917 LP  0  0  0  0  0  0  0  0  0  0  0  0  # atno 17370 bound_to 10713
  156.1891  130.3654  149.8933 LP  0  0  0  0  0  0  0  0  0  0  0  0  # atno 17371 bound_to 10713
  139.8840  134.8977  156.2729 LP  0  0  0  0  0  0  0  0  0  0  0  0  # atno 17394 bound_to 11000
  140.9974  133.7172  156.0907 LP  0  0  0  0  0  0  0  0  0  0  0  0  # atno 17395 bound_to 11000

$$$$
