AV-unprocessed.smi:1512|AV-procd|sdf|6104|dock2
  -GOLD-   22720 6233D 1   1.00000     0.00000
 Structure written by MMmdl.
 44 46  0  0  0  0  0  0  0  0  3 V2000
  145.4437  135.9667  152.2631 C   0  0  0  0  0  0  0  0  0  0  0  0
  145.8704  134.4893  152.2326 C   0  0  2  0  0  0  0  0  0  0  0  0
  147.2756  134.3671  152.6033 N   0  0  0  0  0  0  0  0  0  0  0  0
  147.7863  133.5090  153.5022 C   0  0  0  0  0  0  0  0  0  0  0  0
  147.0870  132.7822  154.2064 O   0  0  0  0  0  0  0  0  0  0  0  0
  149.3186  133.4208  153.6173 C   0  0  0  0  0  0  0  0  0  0  0  0
  149.8064  132.2789  154.4153 N   0  0  0  0  0  0  0  0  0  0  0  0
  149.4982  130.9898  153.9419 C   0  0  0  0  0  0  0  0  0  0  0  0
  149.8639  129.8847  154.6070 C   0  0  0  0  0  0  0  0  0  0  0  0
  150.5792  130.0407  155.8501 C   0  0  0  0  0  0  0  0  0  0  0  0
  150.8874  131.2695  156.3243 C   0  0  0  0  0  0  0  0  0  0  0  0
  151.5736  131.3575  157.5918 N   0  3  0  0  0  0  0  0  0  0  0  0
  151.8804  130.3200  158.1709 O   0  0  0  0  0  0  0  0  0  0  0  0
  151.8419  132.4693  158.0366 O   0  5  0  0  0  0  0  0  0  0  0  0
  150.5134  132.4834  155.5711 C   0  0  0  0  0  0  0  0  0  0  0  0
  150.8029  133.6199  155.9496 O   0  0  0  0  0  0  0  0  0  0  0  0
  145.6523  133.8504  150.8402 C   0  0  2  0  0  0  0  0  0  0  0  0
  144.1819  133.5148  150.5054 C   0  0  0  0  0  0  0  0  0  0  0  0
  144.2604  132.0515  150.0299 C   0  0  2  0  0  0  0  0  0  0  0  0
  144.4972  131.1379  151.2467 C   0  0  0  0  0  0  0  0  0  0  0  0
  145.9650  131.4290  151.6083 C   0  0  0  0  0  0  0  0  0  0  0  0
  146.3644  132.4989  150.5721 C   0  0  1  0  0  0  0  0  0  0  0  0
  145.6170  132.0095  149.3365 C   0  0  0  0  0  0  0  0  0  0  0  0
  144.3926  136.0795  151.9980 H   0  0  0  0  0  0  0  0  0  0  0  0
  146.0292  136.5642  151.5633 H   0  0  0  0  0  0  0  0  0  0  0  0
  145.5752  136.3955  153.2570 H   0  0  0  0  0  0  0  0  0  0  0  0
  145.2682  133.9476  152.9640 H   0  0  0  0  0  0  0  0  0  0  0  0
  147.9258  134.9341  152.0787 H   0  0  0  0  0  0  0  0  0  0  0  0
  149.7273  133.3876  152.6066 H   0  0  0  0  0  0  0  0  0  0  0  0
  149.6910  134.3550  154.0411 H   0  0  0  0  0  0  0  0  0  0  0  0
  148.9486  130.9575  153.0122 H   0  0  0  0  0  0  0  0  0  0  0  0
  149.6190  128.9033  154.2285 H   0  0  0  0  0  0  0  0  0  0  0  0
  150.8466  129.1569  156.4110 H   0  0  0  0  0  0  0  0  0  0  0  0
  146.0182  134.5557  150.0914 H   0  0  0  0  0  0  0  0  0  0  0  0
  143.5123  133.6255  151.3594 H   0  0  0  0  0  0  0  0  0  0  0  0
  143.8133  134.1654  149.7115 H   0  0  0  0  0  0  0  0  0  0  0  0
  143.4154  131.7462  149.4121 H   0  0  0  0  0  0  0  0  0  0  0  0
  143.8151  131.3582  152.0687 H   0  0  0  0  0  0  0  0  0  0  0  0
  144.3698  130.0883  150.9783 H   0  0  0  0  0  0  0  0  0  0  0  0
  146.0899  131.7574  152.6397 H   0  0  0  0  0  0  0  0  0  0  0  0
  146.5719  130.5317  151.4799 H   0  0  0  0  0  0  0  0  0  0  0  0
  147.4419  132.5912  150.4343 H   0  0  0  0  0  0  0  0  0  0  0  0
  145.9120  131.0073  149.0199 H   0  0  0  0  0  0  0  0  0  0  0  0
  145.6902  132.6892  148.4856 H   0  0  0  0  0  0  0  0  0  0  0  0
  1  2  1  0  0  0  0
  1 24  1  0  0  0  0
  1 25  1  0  0  0  0
  1 26  1  0  0  0  0
  2  3  1  0  0  0  0
  2 17  1  0  0  0  0
  2 27  1  0  0  0  0
  3  4  1  0  0  0  0
  3 28  1  0  0  0  0
  4  5  2  0  0  0  0
  4  6  1  0  0  0  0
  6  7  1  0  0  0  0
  6 29  1  0  0  0  0
  6 30  1  0  0  0  0
  7 15  1  0  0  0  0
  7  8  1  0  0  0  0
  8  9  2  0  0  0  0
  8 31  1  0  0  0  0
  9 10  1  0  0  0  0
  9 32  1  0  0  0  0
 10 11  2  0  0  0  0
 10 33  1  0  0  0  0
 11 12  1  0  0  0  0
 11 15  1  0  0  0  0
 12 13  2  0  0  0  0
 12 14  1  0  0  0  0
 15 16  2  0  0  0  0
 17 22  1  0  0  0  0
 17 18  1  0  0  0  0
 17 34  1  0  0  0  0
 18 19  1  0  0  0  0
 18 35  1  0  0  0  0
 18 36  1  0  0  0  0
 19 23  1  0  0  0  0
 19 20  1  0  0  0  0
 19 37  1  0  0  0  0
 20 21  1  0  0  0  0
 20 38  1  0  0  0  0
 20 39  1  0  0  0  0
 21 22  1  0  0  0  0
 21 40  1  0  0  0  0
 21 41  1  0  0  0  0
 22 23  1  0  0  0  0
 22 42  1  0  0  0  0
 23 43  1  0  0  0  0
 23 44  1  0  0  0  0
M  CHG  1  12   1
M  CHG  1  14  -1
M  END
> <s_m_source_file>
AV-unprocessed.smi

> <i_m_source_file_index>
1512

> <i_lp_mmshare_version>
43012

> <i_f3d_flags>
0

> <s_epik_input>
W0NIMl0xW0NIMl1bQ0BIXShbQ0gyXTIpW0NAQEhdKFtDSDJdW0NAQEhdMTIpW0NASF0oW0NIM10pW05IXUMoPU8pW0NIMl1uM1tjSF1bY0hdW2NIXWMoW04rXSg9TylbTy1dKWMzPU8=

> <s_epik_cmdline>
J2VwaWtfcHl0aG9uJywgJy1waCcsICc3LjAnLCAnLXRuJywgJzgnLCAnLW1hJywgJzIwMCcsICctbWV0YWxfYmluZGluZycsICctaW1hZScsICc8aW5maWxlLm1hZT4nLCAnLW9tYWUnLCAnPG91dGZpbGUubWFlPic=

> <r_lp_tautomer_probability>
1

> <r_epik_Ionization_Penalty>
2.17697e-08

> <r_epik_Ionization_Penalty_Charging>
1.42735e-10

> <r_epik_Ionization_Penalty_Neutral>
2.16269e-08

> <r_epik_State_Penalty>
-0

> <r_epik_Charging_Adjusted_Penalty>
1.42735e-10

> <i_epik_Tot_Q>
0

> <i_epik_Tot_abs_Q>
2

> <r_epik_Metal_State_Penalty>
-0

> <b_epik_Metal_Only>
0

> <s_lp_Force_Field>
OPLS_2005

> <r_lp_Energy>
63.3532

> <b_lp_Chiralities_Consistent>
1

> <s_lp_Variant>
AV-unprocessed.smi:1512-5

> <Gold.Version>
5.8.1

> <Gold.Id.Protein>
6NUR|6NUR_protein|mol2

> <Gold.PLP.Fitness>
48.9704

> <Gold.PLP.PLP>
-41.0271

> <Gold.PLP.part.hbond>
-2.0000

> <Gold.PLP.part.metal>
0.0000

> <Gold.PLP.part.buried>
-3.6478

> <Gold.PLP.part.nonpolar>
-35.0338

> <Gold.PLP.part.repulsive>
0.0732

> <Gold.PLP.ligand.clash>
0.0000

> <Gold.PLP.ligand.torsion>
0.5393

> <Gold.PLP.Chemscore.Hbond>
2.0000

> <Gold.PLP.Chemscore.CHOScore>
0.9937

> <Gold.PLP.Chemscore.Metal>
0.0000

> <Gold.Chemscore.Hbonds>
donor molecule, donor type, donor heavy atom, donor atom, acceptor molecule, acceptor atom, score
      L1  H     3    28       P1  7948  1.00
      P1  H  6896  6907       L1    14  0.94
      L1  C     8    31       P1 10747  0.56

> <Gold.PLP.Chemscore.Internal.Correction>
0.0408

> <Gold.Rescore>
     Score         DG    S(hbond)    S(metal)    S(lipo)     H(rot)  DE(clash)    DE(int)     intcor
     16.34     -18.72       1.95        0.00      95.78       1.75       0.03       2.34       ----

> <Gold.Chemscore.Fitness>
16.3441

> <Gold.Chemscore.DG>
-18.7182

> <Gold.Chemscore.ZeroCoef>
-5.4800

> <Gold.Chemscore.Hbond>
1.9477

> <Gold.Chemscore.Metal>
0.0000

> <Gold.Chemscore.Lipo>
95.7796

> <Gold.Chemscore.Internal_Hbond>
0.0000

> <Gold.Chemscore.DEClash>
0.0345

> <Gold.Chemscore.DEInternal>
2.3397

> <Gold.Chemscore.Rot>
1.7474

> <Gold.Chemscore.Internal.Correction>
   9.000000E+99

> <Gold.Chemscore.Hbonds>
donor molecule, donor type, donor heavy atom, donor atom, acceptor molecule, acceptor atom, score
      L1  H     3    28       P1  7948  0.59
      P1  H  6896  6907       L1    14  0.89

> <Gold.Chemscore.Hbond.Weighted>
-6.5053

> <Gold.Chemscore.Metal.Weighted>
-0.0000

> <Gold.Chemscore.Lipo.Weighted>
-11.2062

> <Gold.Chemscore.Internal_Hbond.Weighted>
0.0000

> <Gold.Chemscore.DEClash.Weighted>
0.0345

> <Gold.Chemscore.DEInternal.Weighted>
2.3397

> <Gold.Chemscore.Rot.Weighted>
4.4733

> <Gold.Chemscore.Internal.Correction.Weighted>
   9.000000E+99

> <Gold.Protein.RotatedTorsions>
[ 6907 6896 6895 6894 ] final  170.91 input  -60.11 | X-H torsion
[ 7974 7965 7964 7962 ] final   97.69 input  175.53 | X-H torsion
[ 8008 7997 7996 7995 ] final  -19.87 input   59.86 | X-H torsion
[ 10167 10162 10161 10158 ] final   57.37 input  -65.29 | X-H torsion
[ 10718 10713 10712 10709 ] final   94.18 input   66.30 | X-H torsion
[ 10763 10752 10751 10750 ] final  -67.88 input  -60.55 | X-H torsion
[ 11005 11000 10999 10996 ] final -171.46 input  -57.11 | X-H torsion

> <Gold.Protein.ActiveResidues>
 VAL166  LYS551  ARG553  GLY616  TRP617  ASP618  TYR619  PRO620  LYS621  CYS622 
 ASP623  PHE694  ASN695  SER759  ASP760  ASP761  ALA762  ILE779  LEU786  VAL792 
 PHE793  MET794  SER795  GLU796  ALA797  LYS798  CYS799  TRP800  GLU811  SER814 

> <Gold.Protein.RotatedAtoms>
  151.8085  133.3379  159.3548 H   0  0  0  0  0  0  0  0  0  0  0  0  # atno 6907 bound_to 6896
  150.7334  134.5686  159.5888 H   0  0  0  0  0  0  0  0  0  0  0  0  # atno 6908 bound_to 6896
  152.3092  134.7519  160.0391 H   0  0  0  0  0  0  0  0  0  0  0  0  # atno 6909 bound_to 6896
  145.4221  139.2320  143.3190 H   0  0  0  0  0  0  0  0  0  0  0  0  # atno 7974 bound_to 7965
  154.4808  140.2077  155.9769 H   0  0  0  0  0  0  0  0  0  0  0  0  # atno 8008 bound_to 7997
  156.1161  140.3221  155.8111 H   0  0  0  0  0  0  0  0  0  0  0  0  # atno 8009 bound_to 7997
  155.4550  140.0520  157.2988 H   0  0  0  0  0  0  0  0  0  0  0  0  # atno 8010 bound_to 7997
  140.1987  144.4010  150.6538 H   0  0  0  0  0  0  0  0  0  0  0  0  # atno 10167 bound_to 10162
  157.6950  131.0503  150.4147 H   0  0  0  0  0  0  0  0  0  0  0  0  # atno 10718 bound_to 10713
  154.3810  135.6074  153.5791 H   0  0  0  0  0  0  0  0  0  0  0  0  # atno 10763 bound_to 10752
  152.9788  135.5861  154.4410 H   0  0  0  0  0  0  0  0  0  0  0  0  # atno 10764 bound_to 10752
  154.4179  135.2845  155.1972 H   0  0  0  0  0  0  0  0  0  0  0  0  # atno 10765 bound_to 10752
  140.5080  134.5829  157.5009 H   0  0  0  0  0  0  0  0  0  0  0  0  # atno 11005 bound_to 11000
  146.2651  140.4947  142.8837 LP  0  0  0  0  0  0  0  0  0  0  0  0  # atno 17320 bound_to 7965
  144.8238  140.6594  143.6335 LP  0  0  0  0  0  0  0  0  0  0  0  0  # atno 17321 bound_to 7965
  140.6405  143.2203  151.6300 LP  0  0  0  0  0  0  0  0  0  0  0  0  # atno 17342 bound_to 10162
  139.5226  144.3159  152.0953 LP  0  0  0  0  0  0  0  0  0  0  0  0  # atno 17343 bound_to 10162
  156.4527  130.4015  149.6625 LP  0  0  0  0  0  0  0  0  0  0  0  0  # atno 17370 bound_to 10713
  156.3769  130.7559  151.2548 LP  0  0  0  0  0  0  0  0  0  0  0  0  # atno 17371 bound_to 10713
  139.9675  134.7348  156.0108 LP  0  0  0  0  0  0  0  0  0  0  0  0  # atno 17394 bound_to 11000
  141.1401  133.6566  156.3704 LP  0  0  0  0  0  0  0  0  0  0  0  0  # atno 17395 bound_to 11000

$$$$
