AV-unprocessed.smi:906|AV-procd|sdf|4104|dock4
  -GOLD-   22720 1593D 1   1.00000     0.00000
 Structure written by MMmdl.
 48 49  0  0  0  0  0  0  0  0  2 V2000
  151.4633  145.2605  159.2903 C   0  0  0  0  0  0  0  0  0  0  0  0
  152.1520  144.0017  159.7742 C   0  0  0  0  0  0  0  0  0  0  0  0
  152.2451  143.7110  161.1517 C   0  0  0  0  0  0  0  0  0  0  0  0
  152.8938  142.5243  161.5440 C   0  0  0  0  0  0  0  0  0  0  0  0
  153.4221  141.6771  160.5485 C   0  0  0  0  0  0  0  0  0  0  0  0
  154.1209  140.3838  160.9176 C   0  0  0  0  0  0  0  0  0  0  0  0
  155.2914  140.6185  161.8863 C   0  0  0  0  0  0  0  0  0  0  0  0
  155.2961  139.6437  162.9704 N   0  0  0  0  0  0  0  0  0  0  0  0
  156.3810  139.2599  163.6642 C   0  0  0  0  0  0  0  0  0  0  0  0
  157.4983  139.7318  163.4505 O   0  0  0  0  0  0  0  0  0  0  0  0
  156.1299  138.3728  164.6588 N   0  0  0  0  0  0  0  0  0  0  0  0
  154.8062  137.8601  165.0415 C   0  0  0  0  0  0  0  0  0  0  0  0
  154.6544  136.4219  164.5115 C   0  0  0  0  0  0  0  0  0  0  0  0
  155.7596  135.5468  164.9989 N   0  3  0  0  0  0  0  0  0  0  0  0
  155.6635  134.1045  164.6191 C   0  0  2  0  0  0  0  0  0  0  0  0
  154.9703  133.8705  163.2610 C   0  0  0  0  0  0  0  0  0  0  0  0
  155.0550  133.2462  165.7503 C   0  0  0  0  0  0  0  0  0  0  0  0
  155.9220  133.1471  166.7584 F   0  0  0  0  0  0  0  0  0  0  0  0
  153.9155  133.7621  166.2092 F   0  0  0  0  0  0  0  0  0  0  0  0
  154.8066  132.0195  165.2924 F   0  0  0  0  0  0  0  0  0  0  0  0
  157.1086  136.1288  164.7533 C   0  0  0  0  0  0  0  0  0  0  0  0
  157.1955  137.5755  165.2719 C   0  0  0  0  0  0  0  0  0  0  0  0
  153.2769  142.0609  159.1986 C   0  0  0  0  0  0  0  0  0  0  0  0
  152.6563  143.1966  158.8131 N   0  0  0  0  0  0  0  0  0  0  0  0
  151.1239  145.8719  160.1268 H   0  0  0  0  0  0  0  0  0  0  0  0
  150.5958  145.0075  158.6802 H   0  0  0  0  0  0  0  0  0  0  0  0
  152.1462  145.8589  158.6867 H   0  0  0  0  0  0  0  0  0  0  0  0
  151.8295  144.3786  161.8921 H   0  0  0  0  0  0  0  0  0  0  0  0
  152.9807  142.2696  162.5901 H   0  0  0  0  0  0  0  0  0  0  0  0
  153.3903  139.7056  161.3607 H   0  0  0  0  0  0  0  0  0  0  0  0
  154.4779  139.8991  160.0079 H   0  0  0  0  0  0  0  0  0  0  0  0
  156.2376  140.5305  161.3517 H   0  0  0  0  0  0  0  0  0  0  0  0
  155.2565  141.6310  162.2926 H   0  0  0  0  0  0  0  0  0  0  0  0
  154.4060  139.2376  163.2193 H   0  0  0  0  0  0  0  0  0  0  0  0
  154.7226  137.8664  166.1292 H   0  0  0  0  0  0  0  0  0  0  0  0
  153.9763  138.4692  164.6827 H   0  0  0  0  0  0  0  0  0  0  0  0
  153.6896  136.0297  164.8276 H   0  0  0  0  0  0  0  0  0  0  0  0
  154.6488  136.4466  163.4213 H   0  0  0  0  0  0  0  0  0  0  0  0
  156.6896  133.7491  164.5122 H   0  0  0  0  0  0  0  0  0  0  0  0
  155.0442  132.8236  162.9661 H   0  0  0  0  0  0  0  0  0  0  0  0
  155.4279  134.4606  162.4672 H   0  0  0  0  0  0  0  0  0  0  0  0
  153.9095  134.1183  163.2958 H   0  0  0  0  0  0  0  0  0  0  0  0
  157.8696  135.5246  165.2484 H   0  0  0  0  0  0  0  0  0  0  0  0
  157.3305  136.1075  163.6855 H   0  0  0  0  0  0  0  0  0  0  0  0
  158.1887  137.9845  165.0803 H   0  0  0  0  0  0  0  0  0  0  0  0
  157.0762  137.5927  166.3563 H   0  0  0  0  0  0  0  0  0  0  0  0
  153.6657  141.4386  158.4060 H   0  0  0  0  0  0  0  0  0  0  0  0
  155.6693  135.5502  166.0051 H   0  0  0  0  0  0  0  0  0  0  0  0
  1  2  1  0  0  0  0
  1 25  1  0  0  0  0
  1 26  1  0  0  0  0
  1 27  1  0  0  0  0
  2 24  1  0  0  0  0
  2  3  2  0  0  0  0
  3  4  1  0  0  0  0
  3 28  1  0  0  0  0
  4  5  2  0  0  0  0
  4 29  1  0  0  0  0
  5  6  1  0  0  0  0
  5 23  1  0  0  0  0
  6  7  1  0  0  0  0
  6 30  1  0  0  0  0
  6 31  1  0  0  0  0
  7  8  1  0  0  0  0
  7 32  1  0  0  0  0
  7 33  1  0  0  0  0
  8  9  1  0  0  0  0
  8 34  1  0  0  0  0
  9 10  2  0  0  0  0
  9 11  1  0  0  0  0
 11 22  1  0  0  0  0
 11 12  1  0  0  0  0
 12 13  1  0  0  0  0
 12 35  1  0  0  0  0
 12 36  1  0  0  0  0
 13 14  1  0  0  0  0
 13 37  1  0  0  0  0
 13 38  1  0  0  0  0
 14 15  1  0  0  0  0
 14 21  1  0  0  0  0
 14 48  1  0  0  0  0
 15 16  1  0  0  0  0
 15 17  1  0  0  0  0
 15 39  1  0  0  0  0
 16 40  1  0  0  0  0
 16 41  1  0  0  0  0
 16 42  1  0  0  0  0
 17 18  1  0  0  0  0
 17 19  1  0  0  0  0
 17 20  1  0  0  0  0
 21 22  1  0  0  0  0
 21 43  1  0  0  0  0
 21 44  1  0  0  0  0
 22 45  1  0  0  0  0
 22 46  1  0  0  0  0
 23 24  2  0  0  0  0
 23 47  1  0  0  0  0
M  CHG  1  14   1
M  END
> <s_m_source_file>
AV-unprocessed.smi

> <i_m_source_file_index>
906

> <i_lp_mmshare_version>
43012

> <i_f3d_flags>
0

> <s_epik_input>
W0NIM11jMVtjSF1bY0hdYyhbY0hdbjEpW0NIMl1bQ0gyXVtOSF1DKD1PKU4yW0NIMl1bQ0gyXU4oW0NASF0oW0NIM10pQyhGKShGKUYpW0NIMl1bQ0gyXTI=

> <s_epik_cmdline>
J2VwaWtfcHl0aG9uJywgJy1waCcsICc3LjAnLCAnLXRuJywgJzgnLCAnLW1hJywgJzIwMCcsICctbWV0YWxfYmluZGluZycsICctaW1hZScsICc8aW5maWxlLm1hZT4nLCAnLW9tYWUnLCAnPG91dGZpbGUubWFlPic=

> <r_epik_Ionization_Penalty>
2.02136

> <r_epik_Ionization_Penalty_Charging>
1.96814

> <r_epik_Ionization_Penalty_Neutral>
0.0532286

> <r_epik_State_Penalty>
2.14285

> <r_epik_Charging_Adjusted_Penalty>
4.11098

> <i_epik_Tot_Q>
1

> <i_epik_Tot_abs_Q>
1

> <r_epik_Metal_State_Penalty>
2.1406

> <b_epik_Metal_Only>
0

> <s_lp_Force_Field>
OPLS_2005

> <r_lp_Energy>
50.8751

> <b_lp_Chiralities_Consistent>
1

> <s_lp_Variant>
AV-unprocessed.smi:906-5

> <Gold.Version>
5.8.1

> <Gold.Id.Protein>
6NUR|6NUR_protein|mol2

> <Gold.PLP.Fitness>
49.1906

> <Gold.PLP.PLP>
-52.4441

> <Gold.PLP.part.hbond>
0.0000

> <Gold.PLP.part.metal>
0.0000

> <Gold.PLP.part.buried>
-4.4148

> <Gold.PLP.part.nonpolar>
-47.6506

> <Gold.PLP.part.repulsive>
0.0000

> <Gold.PLP.ligand.clash>
0.0000

> <Gold.PLP.ligand.torsion>
2.0067

> <Gold.PLP.Chemscore.Hbond>
0.0000

> <Gold.PLP.Chemscore.CHOScore>
0.0000

> <Gold.PLP.Chemscore.Metal>
0.0000

> <Gold.PLP.Chemscore.Internal.Correction>
0.7600

> <Gold.Rescore>
     Score         DG    S(hbond)    S(metal)    S(lipo)     H(rot)  DE(clash)    DE(int)     intcor
     13.77     -15.14       0.00        0.00     117.96       1.62       0.02       1.35       ----

> <Gold.Chemscore.Fitness>
13.7719

> <Gold.Chemscore.DG>
-15.1413

> <Gold.Chemscore.ZeroCoef>
-5.4800

> <Gold.Chemscore.Hbond>
0.0000

> <Gold.Chemscore.Metal>
0.0000

> <Gold.Chemscore.Lipo>
117.9577

> <Gold.Chemscore.Internal_Hbond>
0.0000

> <Gold.Chemscore.DEClash>
0.0164

> <Gold.Chemscore.DEInternal>
1.3530

> <Gold.Chemscore.Rot>
1.6171

> <Gold.Chemscore.Internal.Correction>
   9.000000E+99

> <Gold.Chemscore.Hbond.Weighted>
-0.0000

> <Gold.Chemscore.Metal.Weighted>
-0.0000

> <Gold.Chemscore.Lipo.Weighted>
-13.8010

> <Gold.Chemscore.Internal_Hbond.Weighted>
0.0000

> <Gold.Chemscore.DEClash.Weighted>
0.0164

> <Gold.Chemscore.DEInternal.Weighted>
1.3530

> <Gold.Chemscore.Rot.Weighted>
4.1398

> <Gold.Chemscore.Internal.Correction.Weighted>
   9.000000E+99

> <Gold.Protein.RotatedTorsions>
[ 6907 6896 6895 6894 ] final  101.58 input  -60.11 | X-H torsion
[ 7974 7965 7964 7962 ] final  171.12 input  175.53 | X-H torsion
[ 8008 7997 7996 7995 ] final  -38.28 input   59.86 | X-H torsion
[ 10167 10162 10161 10158 ] final   -8.58 input  -65.29 | X-H torsion
[ 10718 10713 10712 10709 ] final -103.77 input   66.30 | X-H torsion
[ 10763 10752 10751 10750 ] final  -94.14 input  -60.55 | X-H torsion
[ 11005 11000 10999 10996 ] final  -16.22 input  -57.11 | X-H torsion

> <Gold.Protein.ActiveResidues>
 VAL166  LYS551  ARG553  GLY616  TRP617  ASP618  TYR619  PRO620  LYS621  CYS622 
 ASP623  PHE694  ASN695  SER759  ASP760  ASP761  ALA762  ILE779  LEU786  VAL792 
 PHE793  MET794  SER795  GLU796  ALA797  LYS798  CYS799  TRP800  GLU811  SER814 

> <Gold.Protein.RotatedAtoms>
  152.5345  134.0104  159.7935 H   0  0  0  0  0  0  0  0  0  0  0  0  # atno 6907 bound_to 6896
  151.0307  133.5785  159.2668 H   0  0  0  0  0  0  0  0  0  0  0  0  # atno 6908 bound_to 6896
  151.2791  135.0715  159.9216 H   0  0  0  0  0  0  0  0  0  0  0  0  # atno 6909 bound_to 6896
  144.7304  139.9303  143.6424 H   0  0  0  0  0  0  0  0  0  0  0  0  # atno 7974 bound_to 7965
  154.4039  140.1582  156.2673 H   0  0  0  0  0  0  0  0  0  0  0  0  # atno 8008 bound_to 7997
  155.8984  140.3434  155.5985 H   0  0  0  0  0  0  0  0  0  0  0  0  # atno 8009 bound_to 7997
  155.7477  140.0801  157.2206 H   0  0  0  0  0  0  0  0  0  0  0  0  # atno 8010 bound_to 7997
  140.7063  143.5953  150.8852 H   0  0  0  0  0  0  0  0  0  0  0  0  # atno 10167 bound_to 10162
  156.0278  130.5483  150.7300 H   0  0  0  0  0  0  0  0  0  0  0  0  # atno 10718 bound_to 10713
  154.7026  135.5168  153.8549 H   0  0  0  0  0  0  0  0  0  0  0  0  # atno 10763 bound_to 10752
  153.0716  135.6603  154.0244 H   0  0  0  0  0  0  0  0  0  0  0  0  # atno 10764 bound_to 10752
  154.0100  135.3003  155.3373 H   0  0  0  0  0  0  0  0  0  0  0  0  # atno 10765 bound_to 10752
  140.8046  133.8187  155.9503 H   0  0  0  0  0  0  0  0  0  0  0  0  # atno 11005 bound_to 11000
  146.0862  139.3851  143.0434 LP  0  0  0  0  0  0  0  0  0  0  0  0  # atno 17320 bound_to 7965
  145.7773  140.9871  143.1118 LP  0  0  0  0  0  0  0  0  0  0  0  0  # atno 17321 bound_to 7965
  139.9678  143.6090  152.2983 LP  0  0  0  0  0  0  0  0  0  0  0  0  # atno 17342 bound_to 10162
  139.6666  144.7662  151.1861 LP  0  0  0  0  0  0  0  0  0  0  0  0  # atno 17343 bound_to 10162
  157.4895  131.0909  151.0444 LP  0  0  0  0  0  0  0  0  0  0  0  0  # atno 17370 bound_to 10713
  157.0855  130.5920  149.5429 LP  0  0  0  0  0  0  0  0  0  0  0  0  # atno 17371 bound_to 10713
  140.9260  134.2082  157.4895 LP  0  0  0  0  0  0  0  0  0  0  0  0  # atno 17394 bound_to 11000
  139.8719  134.9812  156.5109 LP  0  0  0  0  0  0  0  0  0  0  0  0  # atno 17395 bound_to 11000

$$$$
