AV-unprocessed.smi:157|AV-procd|sdf|1315|dock10
  -GOLD-   2262019 03D 1   1.00000     0.00000
 Structure written by MMmdl.
 36 38  0  0  0  0  0  0  0  0  2 V2000
  148.5505  137.3135  154.2429 O   0  0  0  0  0  0  0  0  0  0  0  0
  149.1974  138.5682  154.2770 C   0  0  0  0  0  0  0  0  0  0  0  0
  150.7218  138.3951  154.4327 C   0  0  1  0  0  0  0  0  0  0  0  0
  151.2584  139.6891  154.7203 O   0  0  0  0  0  0  0  0  0  0  0  0
  151.9073  139.6818  155.9543 C   0  0  1  0  0  0  0  0  0  0  0  0
  151.5981  140.9602  156.6613 N   0  0  0  0  0  0  0  0  0  0  0  0
  150.7480  141.9181  156.2358 C   0  0  0  0  0  0  0  0  0  0  0  0
  150.6455  142.9560  157.0486 N   0  3  0  0  0  0  0  0  0  0  0  0
  151.4805  142.7004  158.1157 C   0  0  0  0  0  0  0  0  0  0  0  0
  152.0700  141.4608  157.8529 C   0  0  0  0  0  0  0  0  0  0  0  0
  152.9987  140.7295  158.6094 N   0  0  0  0  0  0  0  0  0  0  0  0
  153.6930  141.2522  159.5675 C   0  0  0  0  0  0  0  0  0  0  0  0
  153.6232  142.5286  160.1010 N   0  0  0  0  0  0  0  0  0  0  0  0
  152.3695  143.1715  160.4525 C   0  0  0  0  0  0  0  0  0  0  0  0
  151.5781  143.6824  159.2411 C   0  0  1  0  0  0  0  0  0  0  0  0
  152.1242  144.9201  158.8346 O   0  0  0  0  0  0  0  0  0  0  0  0
  151.3562  138.4929  156.7282 C   0  0  0  0  0  0  0  0  0  0  0  0
  151.1852  137.5000  155.6006 C   0  0  1  0  0  0  0  0  0  0  0  0
  150.2878  136.4685  155.9579 O   0  0  0  0  0  0  0  0  0  0  0  0
  151.1486  138.0447  153.4919 H   0  0  0  0  0  0  0  0  0  0  0  0
  152.9888  139.6549  155.8166 H   0  0  0  0  0  0  0  0  0  0  0  0
  150.5638  143.8988  159.5786 H   0  0  0  0  0  0  0  0  0  0  0  0
  152.1535  137.0594  155.3578 H   0  0  0  0  0  0  0  0  0  0  0  0
  148.5652  136.9908  153.3546 H   0  0  0  0  0  0  0  0  0  0  0  0
  148.9770  139.0721  153.3354 H   0  0  0  0  0  0  0  0  0  0  0  0
  148.7814  139.1856  155.0736 H   0  0  0  0  0  0  0  0  0  0  0  0
  150.2009  141.8365  155.3137 H   0  0  0  0  0  0  0  0  0  0  0  0
  154.4493  140.6426  160.0643 H   0  0  0  0  0  0  0  0  0  0  0  0
  154.3800  142.8493  160.6883 H   0  0  0  0  0  0  0  0  0  0  0  0
  151.7645  142.4362  160.9853 H   0  0  0  0  0  0  0  0  0  0  0  0
  152.5570  143.9789  161.1613 H   0  0  0  0  0  0  0  0  0  0  0  0
  152.9293  144.7596  158.3671 H   0  0  0  0  0  0  0  0  0  0  0  0
  152.0458  138.1695  157.5083 H   0  0  0  0  0  0  0  0  0  0  0  0
  150.3946  138.7518  157.1752 H   0  0  0  0  0  0  0  0  0  0  0  0
  149.4046  136.7897  155.8547 H   0  0  0  0  0  0  0  0  0  0  0  0
  150.0609  143.7709  156.9124 H   0  0  0  0  0  0  0  0  0  0  0  0
  1  2  1  0  0  0  0
  1 24  1  0  0  0  0
  2  3  1  0  0  0  0
  2 25  1  0  0  0  0
  2 26  1  0  0  0  0
  3 20  1  0  0  0  0
  3 18  1  0  0  0  0
  3  4  1  0  0  0  0
  4  5  1  0  0  0  0
  5 21  1  0  0  0  0
  5  6  1  0  0  0  0
  5 17  1  0  0  0  0
  6 10  1  0  0  0  0
  6  7  1  0  0  0  0
  7  8  2  0  0  0  0
  7 27  1  0  0  0  0
  8  9  1  0  0  0  0
  8 36  1  0  0  0  0
  9 15  1  0  0  0  0
  9 10  2  0  0  0  0
 10 11  1  0  0  0  0
 11 12  2  0  0  0  0
 12 13  1  0  0  0  0
 12 28  1  0  0  0  0
 13 14  1  0  0  0  0
 13 29  1  0  0  0  0
 14 15  1  0  0  0  0
 14 30  1  0  0  0  0
 14 31  1  0  0  0  0
 15 22  1  0  0  0  0
 15 16  1  0  0  0  0
 16 32  1  0  0  0  0
 17 18  1  0  0  0  0
 17 33  1  0  0  0  0
 17 34  1  0  0  0  0
 18 23  1  0  0  0  0
 18 19  1  0  0  0  0
 19 35  1  0  0  0  0
M  CHG  1   8   1
M  END
> <s_m_source_file>
AV-unprocessed.smi

> <i_m_source_file_index>
157

> <i_lp_mmshare_version>
43012

> <i_f3d_flags>
0

> <s_epik_input>
W09IXVtDSDJdW0NASF0xT1tDQEhdKFtDSDJdW0NAQEhdMVtPSF0pbihbY0hdbjIpYyhjMjMpTj1bQ0hdW05IXVtDSDJdW0NASF0zW09IXQ==

> <s_epik_cmdline>
J2VwaWtfcHl0aG9uJywgJy1waCcsICc3LjAnLCAnLXRuJywgJzgnLCAnLW1hJywgJzIwMCcsICctbWV0YWxfYmluZGluZycsICctaW1hZScsICc8aW5maWxlLm1hZT4nLCAnLW9tYWUnLCAnPG91dGZpbGUubWFlPic=

> <r_epik_Ionization_Penalty>
1.68594

> <r_epik_Ionization_Penalty_Charging>
0

> <r_epik_Ionization_Penalty_Neutral>
1.68594

> <r_epik_State_Penalty>
1.79006

> <r_epik_Charging_Adjusted_Penalty>
1.79006

> <i_epik_Tot_Q>
1

> <i_epik_Tot_abs_Q>
1

> <r_epik_Metal_State_Penalty>
5.85324

> <b_epik_Metal_Only>
0

> <s_epik_Chemistry_Notes>
This compound has an imine and may undergo hydrolysis. This compound contains an acetal/aminal-like group ( X-CH(R)-Y where X, Y are N, S, or O) that may be acid/base labile, releasing an aldehyde.

> <s_lp_Force_Field>
OPLS_2005

> <r_lp_Energy>
55.0394

> <b_lp_Chiralities_Consistent>
1

> <s_lp_Variant>
AV-unprocessed.smi:157-25

> <Gold.Version>
5.8.1

> <Gold.Id.Protein>
6NUR|6NUR_protein|mol2

> <Gold.PLP.Fitness>
45.8027

> <Gold.PLP.PLP>
-34.0510

> <Gold.PLP.part.hbond>
-3.7010

> <Gold.PLP.part.metal>
0.0000

> <Gold.PLP.part.buried>
-7.1736

> <Gold.PLP.part.nonpolar>
-22.8579

> <Gold.PLP.part.repulsive>
0.1335

> <Gold.PLP.ligand.clash>
0.0000

> <Gold.PLP.ligand.torsion>
0.1378

> <Gold.PLP.Chemscore.Hbond>
4.0044

> <Gold.PLP.Chemscore.CHOScore>
0.0000

> <Gold.PLP.Chemscore.Metal>
0.0000

> <Gold.Chemscore.Hbonds>
donor molecule, donor type, donor heavy atom, donor atom, acceptor molecule, acceptor atom, score
      L1  H     1    24       P1  7948  1.00
      L1  H     8    36       P1  8028  1.86
      P1  H  7989  7998       L1     4  1.00
      P1  H  7997  8008       L1    11  0.16

> <Gold.PLP.Chemscore.Internal.Correction>
0.0142

> <Gold.Rescore>
     Score         DG    S(hbond)    S(metal)    S(lipo)     H(rot)  DE(clash)    DE(int)     intcor
     12.37     -12.49       2.94        0.00      56.09       3.67       0.02       0.09       ----

> <Gold.Chemscore.Fitness>
12.3696

> <Gold.Chemscore.DG>
-12.4853

> <Gold.Chemscore.ZeroCoef>
-5.4800

> <Gold.Chemscore.Hbond>
2.9423

> <Gold.Chemscore.Metal>
0.0000

> <Gold.Chemscore.Lipo>
56.0933

> <Gold.Chemscore.Internal_Hbond>
0.0000

> <Gold.Chemscore.DEClash>
0.0234

> <Gold.Chemscore.DEInternal>
0.0923

> <Gold.Chemscore.Rot>
3.6659

> <Gold.Chemscore.Internal.Correction>
   9.000000E+99

> <Gold.Chemscore.Hbonds>
donor molecule, donor type, donor heavy atom, donor atom, acceptor molecule, acceptor atom, score
      L1  H     1    24       P1  7948  1.00
      L1  H     8    36       P1  8028  0.88
      P1  H  7989  7998       L1     4  0.98
      P1  H  7997  8008       L1    11  0.03

> <Gold.Chemscore.Hbond.Weighted>
-9.8272

> <Gold.Chemscore.Metal.Weighted>
-0.0000

> <Gold.Chemscore.Lipo.Weighted>
-6.5629

> <Gold.Chemscore.Internal_Hbond.Weighted>
0.0000

> <Gold.Chemscore.DEClash.Weighted>
0.0234

> <Gold.Chemscore.DEInternal.Weighted>
0.0923

> <Gold.Chemscore.Rot.Weighted>
9.3848

> <Gold.Chemscore.Internal.Correction.Weighted>
   9.000000E+99

> <Gold.Protein.RotatedTorsions>
[ 6907 6896 6895 6894 ] final   18.97 input  -60.11 | X-H torsion
[ 7974 7965 7964 7962 ] final  175.26 input  175.53 | X-H torsion
[ 8008 7997 7996 7995 ] final  -80.95 input   59.86 | X-H torsion
[ 10167 10162 10161 10158 ] final   55.48 input  -65.29 | X-H torsion
[ 10718 10713 10712 10709 ] final -121.11 input   66.30 | X-H torsion
[ 10763 10752 10751 10750 ] final   -9.56 input  -60.55 | X-H torsion
[ 11005 11000 10999 10996 ] final   30.31 input  -57.11 | X-H torsion

> <Gold.Protein.ActiveResidues>
 VAL166  LYS551  ARG553  GLY616  TRP617  ASP618  TYR619  PRO620  LYS621  CYS622 
 ASP623  PHE694  ASN695  SER759  ASP760  ASP761  ALA762  ILE779  LEU786  VAL792 
 PHE793  MET794  SER795  GLU796  ALA797  LYS798  CYS799  TRP800  GLU811  SER814 

> <Gold.Protein.RotatedAtoms>
  151.8736  135.0480  160.0481 H   0  0  0  0  0  0  0  0  0  0  0  0  # atno 6907 bound_to 6896
  152.2569  133.5259  159.5367 H   0  0  0  0  0  0  0  0  0  0  0  0  # atno 6908 bound_to 6896
  150.7103  134.0800  159.3937 H   0  0  0  0  0  0  0  0  0  0  0  0  # atno 6909 bound_to 6896
  144.7205  139.9920  143.6440 H   0  0  0  0  0  0  0  0  0  0  0  0  # atno 7974 bound_to 7965
  154.5934  140.0655  156.9270 H   0  0  0  0  0  0  0  0  0  0  0  0  # atno 8008 bound_to 7997
  155.2255  140.3333  155.4291 H   0  0  0  0  0  0  0  0  0  0  0  0  # atno 8009 bound_to 7997
  156.2271  140.1824  156.7320 H   0  0  0  0  0  0  0  0  0  0  0  0  # atno 8010 bound_to 7997
  140.2190  144.3809  150.6458 H   0  0  0  0  0  0  0  0  0  0  0  0  # atno 10167 bound_to 10162
  156.1311  130.6396  150.9622 H   0  0  0  0  0  0  0  0  0  0  0  0  # atno 10718 bound_to 10713
  153.4566  135.7015  153.6076 H   0  0  0  0  0  0  0  0  0  0  0  0  # atno 10763 bound_to 10752
  153.4388  135.3785  155.2216 H   0  0  0  0  0  0  0  0  0  0  0  0  # atno 10764 bound_to 10752
  154.8728  135.3969  154.3985 H   0  0  0  0  0  0  0  0  0  0  0  0  # atno 10765 bound_to 10752
  140.2957  134.2814  155.7765 H   0  0  0  0  0  0  0  0  0  0  0  0  # atno 11005 bound_to 11000
  146.0404  139.3416  143.0701 LP  0  0  0  0  0  0  0  0  0  0  0  0  # atno 17320 bound_to 7965
  145.8342  140.9615  143.0833 LP  0  0  0  0  0  0  0  0  0  0  0  0  # atno 17321 bound_to 7965
  140.6269  143.2182  151.6578 LP  0  0  0  0  0  0  0  0  0  0  0  0  # atno 17342 bound_to 10162
  139.5151  144.3388  152.0759 LP  0  0  0  0  0  0  0  0  0  0  0  0  # atno 17343 bound_to 10162
  157.6488  131.0900  150.8095 LP  0  0  0  0  0  0  0  0  0  0  0  0  # atno 17370 bound_to 10713
  156.8179  130.4974  149.5347 LP  0  0  0  0  0  0  0  0  0  0  0  0  # atno 17371 bound_to 10713
  141.2138  133.7614  156.9691 LP  0  0  0  0  0  0  0  0  0  0  0  0  # atno 17394 bound_to 11000
  140.1155  134.9450  157.2127 LP  0  0  0  0  0  0  0  0  0  0  0  0  # atno 17395 bound_to 11000

$$$$
