AV-unprocessed.smi:1796|AV-procd|sdf|7253|dock2
  -GOLD-   22720 8503D 1   1.00000     0.00000
 Structure written by MMmdl.
 42 43  0  0  0  0  0  0  0  0  1 V2000
  151.7831  137.8549  157.8148 C   0  0  0  0  0  0  0  0  0  0  0  0
  150.5641  137.0482  157.3613 C   0  0  0  0  0  0  0  0  0  0  0  0
  149.9515  136.4001  158.2099 O   0  0  0  0  0  0  0  0  0  0  0  0
  150.2060  137.0671  156.0548 N   0  0  0  0  0  0  0  0  0  0  0  0
  150.8824  137.9068  155.0587 C   0  0  0  0  0  0  0  0  0  0  0  0
  149.9334  139.0474  154.6486 C   0  0  0  0  0  0  0  0  0  0  0  0
  148.5909  138.4931  154.1347 C   0  0  0  0  0  0  0  0  0  0  0  0
  147.9777  137.4685  155.1186 C   0  0  1  0  0  0  0  0  0  0  0  0
  146.7193  136.8254  154.5240 C   0  0  0  0  0  0  0  0  0  0  0  0
  145.6330  136.9538  155.0894 O   0  0  0  0  0  0  0  0  0  0  0  0
  146.8851  136.1240  153.3909 N   0  0  0  0  0  0  0  0  0  0  0  0
  145.8394  135.3856  152.6835 C   0  0  1  0  0  0  0  0  0  0  0  0
  145.5480  136.0880  151.3505 C   0  0  0  0  0  0  0  0  0  0  0  0
  146.2591  133.9160  152.4645 C   0  0  0  0  0  0  0  0  0  0  0  0
  145.4062  133.2230  151.5149 N   0  0  0  0  0  0  0  0  0  0  0  0
  145.7721  132.3402  150.5203 C   0  0  0  0  0  0  0  0  0  0  0  0
  144.6272  131.9308  149.8995 C   0  0  0  0  0  0  0  0  0  0  0  0
  143.5994  132.6314  150.5908 C   0  0  0  0  0  0  0  0  0  0  0  0
  144.0691  133.4071  151.5547 N   0  0  0  0  0  0  0  0  0  0  0  0
  149.0285  136.3972  155.4878 C   0  0  0  0  0  0  0  0  0  0  0  0
  152.6765  137.5450  157.2720 H   0  0  0  0  0  0  0  0  0  0  0  0
  151.9710  137.7024  158.8781 H   0  0  0  0  0  0  0  0  0  0  0  0
  151.6215  138.9213  157.6549 H   0  0  0  0  0  0  0  0  0  0  0  0
  151.8245  138.3193  155.4220 H   0  0  0  0  0  0  0  0  0  0  0  0
  151.1395  137.3012  154.1885 H   0  0  0  0  0  0  0  0  0  0  0  0
  149.7554  139.6977  155.5063 H   0  0  0  0  0  0  0  0  0  0  0  0
  150.3999  139.6667  153.8821 H   0  0  0  0  0  0  0  0  0  0  0  0
  147.8949  139.3148  153.9611 H   0  0  0  0  0  0  0  0  0  0  0  0
  148.7565  138.0226  153.1640 H   0  0  0  0  0  0  0  0  0  0  0  0
  147.6975  137.9973  156.0318 H   0  0  0  0  0  0  0  0  0  0  0  0
  147.8144  136.0785  152.9986 H   0  0  0  0  0  0  0  0  0  0  0  0
  144.9149  135.4036  153.2636 H   0  0  0  0  0  0  0  0  0  0  0  0
  144.7449  135.5853  150.8106 H   0  0  0  0  0  0  0  0  0  0  0  0
  146.4270  136.0981  150.7051 H   0  0  0  0  0  0  0  0  0  0  0  0
  145.2388  137.1215  151.5103 H   0  0  0  0  0  0  0  0  0  0  0  0
  147.2841  133.8692  152.0937 H   0  0  0  0  0  0  0  0  0  0  0  0
  146.2462  133.3695  153.4085 H   0  0  0  0  0  0  0  0  0  0  0  0
  146.8039  132.0731  150.3461 H   0  0  0  0  0  0  0  0  0  0  0  0
  144.5372  131.2355  149.0783 H   0  0  0  0  0  0  0  0  0  0  0  0
  142.5331  132.5999  150.4222 H   0  0  0  0  0  0  0  0  0  0  0  0
  149.3360  135.8426  154.5993 H   0  0  0  0  0  0  0  0  0  0  0  0
  148.5934  135.6521  156.1531 H   0  0  0  0  0  0  0  0  0  0  0  0
  1  2  1  0  0  0  0
  1 21  1  0  0  0  0
  1 22  1  0  0  0  0
  1 23  1  0  0  0  0
  2  3  2  0  0  0  0
  2  4  1  0  0  0  0
  4 20  1  0  0  0  0
  4  5  1  0  0  0  0
  5  6  1  0  0  0  0
  5 24  1  0  0  0  0
  5 25  1  0  0  0  0
  6  7  1  0  0  0  0
  6 26  1  0  0  0  0
  6 27  1  0  0  0  0
  7  8  1  0  0  0  0
  7 28  1  0  0  0  0
  7 29  1  0  0  0  0
  8  9  1  0  0  0  0
  8 20  1  0  0  0  0
  8 30  1  0  0  0  0
  9 10  2  0  0  0  0
  9 11  1  0  0  0  0
 11 12  1  0  0  0  0
 11 31  1  0  0  0  0
 12 13  1  0  0  0  0
 12 14  1  0  0  0  0
 12 32  1  0  0  0  0
 13 33  1  0  0  0  0
 13 34  1  0  0  0  0
 13 35  1  0  0  0  0
 14 15  1  0  0  0  0
 14 36  1  0  0  0  0
 14 37  1  0  0  0  0
 15 19  1  0  0  0  0
 15 16  1  0  0  0  0
 16 17  2  0  0  0  0
 16 38  1  0  0  0  0
 17 18  1  0  0  0  0
 17 39  1  0  0  0  0
 18 19  2  0  0  0  0
 18 40  1  0  0  0  0
 20 41  1  0  0  0  0
 20 42  1  0  0  0  0
M  END
> <s_m_source_file>
AV-unprocessed.smi

> <i_m_source_file_index>
1796

> <i_lp_mmshare_version>
43012

> <i_f3d_flags>
0

> <s_epik_input>
W0NIM11DKD1PKU4xW0NIMl1bQ0gyXVtDSDJdW0NASF0oW0NIMl0xKUMoPU8pW05IXVtDQEhdKFtDSDNdKVtDSDJdbjJbY0hdW2NIXVtjSF1uMg==

> <s_epik_cmdline>
J2VwaWtfcHl0aG9uJywgJy1waCcsICc3LjAnLCAnLXRuJywgJzgnLCAnLW1hJywgJzIwMCcsICctbWV0YWxfYmluZGluZycsICctaW1hZScsICc8aW5maWxlLm1hZT4nLCAnLW9tYWUnLCAnPG91dGZpbGUubWFlPic=

> <r_lp_tautomer_probability>
1

> <r_epik_Ionization_Penalty>
0.000315051

> <r_epik_Ionization_Penalty_Charging>
0

> <r_epik_Ionization_Penalty_Neutral>
0.000315051

> <r_epik_State_Penalty>
-0

> <r_epik_Charging_Adjusted_Penalty>
0

> <i_epik_Tot_Q>
0

> <i_epik_Tot_abs_Q>
0

> <r_epik_Metal_State_Penalty>
-0

> <b_epik_Metal_Only>
0

> <s_lp_Force_Field>
OPLS_2005

> <r_lp_Energy>
22.8088

> <b_lp_Chiralities_Consistent>
1

> <s_lp_Variant>
AV-unprocessed.smi:1796-3

> <Gold.Version>
5.8.1

> <Gold.Id.Protein>
6NUR|6NUR_protein|mol2

> <Gold.PLP.Fitness>
38.9465

> <Gold.PLP.PLP>
-27.8896

> <Gold.PLP.part.hbond>
-1.8905

> <Gold.PLP.part.metal>
0.0000

> <Gold.PLP.part.buried>
-5.4533

> <Gold.PLP.part.nonpolar>
-22.1523

> <Gold.PLP.part.repulsive>
0.1559

> <Gold.PLP.ligand.clash>
0.0000

> <Gold.PLP.ligand.torsion>
0.4074

> <Gold.PLP.Chemscore.Hbond>
1.9440

> <Gold.PLP.Chemscore.CHOScore>
2.0000

> <Gold.PLP.Chemscore.Metal>
0.0000

> <Gold.Chemscore.Hbonds>
donor molecule, donor type, donor heavy atom, donor atom, acceptor molecule, acceptor atom, score
      L1  H    11    31       P1  7948  1.00
      P1  H  6896  6909       L1     3  0.29
      L1  C    16    38       P1 10747  1.00
      L1  C    18    40       P1 10186  0.99

> <Gold.PLP.Chemscore.Internal.Correction>
0.0397

> <Gold.Rescore>
     Score         DG    S(hbond)    S(metal)    S(lipo)     H(rot)  DE(clash)    DE(int)     intcor
     15.00     -15.48       1.88        0.00      67.63       1.63       0.07       0.40       ----

> <Gold.Chemscore.Fitness>
14.9971

> <Gold.Chemscore.DG>
-15.4764

> <Gold.Chemscore.ZeroCoef>
-5.4800

> <Gold.Chemscore.Hbond>
1.8760

> <Gold.Chemscore.Metal>
0.0000

> <Gold.Chemscore.Lipo>
67.6288

> <Gold.Chemscore.Internal_Hbond>
0.0000

> <Gold.Chemscore.DEClash>
0.0748

> <Gold.Chemscore.DEInternal>
0.4044

> <Gold.Chemscore.Rot>
1.6336

> <Gold.Chemscore.Internal.Correction>
   9.000000E+99

> <Gold.Chemscore.Hbonds>
donor molecule, donor type, donor heavy atom, donor atom, acceptor molecule, acceptor atom, score
      L1  H    11    31       P1  7948  0.98
      P1  H  6896  6909       L1     3  0.28

> <Gold.Chemscore.Hbond.Weighted>
-6.2659

> <Gold.Chemscore.Metal.Weighted>
-0.0000

> <Gold.Chemscore.Lipo.Weighted>
-7.9126

> <Gold.Chemscore.Internal_Hbond.Weighted>
0.0000

> <Gold.Chemscore.DEClash.Weighted>
0.0748

> <Gold.Chemscore.DEInternal.Weighted>
0.4044

> <Gold.Chemscore.Rot.Weighted>
4.1821

> <Gold.Chemscore.Internal.Correction.Weighted>
   9.000000E+99

> <Gold.Protein.RotatedTorsions>
[ 6907 6896 6895 6894 ] final   61.84 input  -60.11 | X-H torsion
[ 7974 7965 7964 7962 ] final  149.73 input  175.53 | X-H torsion
[ 8008 7997 7996 7995 ] final  127.23 input   59.86 | X-H torsion
[ 10167 10162 10161 10158 ] final   10.00 input  -65.29 | X-H torsion
[ 10718 10713 10712 10709 ] final -147.80 input   66.30 | X-H torsion
[ 10763 10752 10751 10750 ] final  -69.96 input  -60.55 | X-H torsion
[ 11005 11000 10999 10996 ] final -135.64 input  -57.11 | X-H torsion

> <Gold.Protein.ActiveResidues>
 VAL166  LYS551  ARG553  GLY616  TRP617  ASP618  TYR619  PRO620  LYS621  CYS622 
 ASP623  PHE694  ASN695  SER759  ASP760  ASP761  ALA762  ILE779  LEU786  VAL792 
 PHE793  MET794  SER795  GLU796  ALA797  LYS798  CYS799  TRP800  GLU811  SER814 

> <Gold.Protein.RotatedAtoms>
  152.4122  134.6104  160.0023 H   0  0  0  0  0  0  0  0  0  0  0  0  # atno 6907 bound_to 6896
  151.6278  133.3328  159.3110 H   0  0  0  0  0  0  0  0  0  0  0  0  # atno 6908 bound_to 6896
  150.8013  134.7148  159.6669 H   0  0  0  0  0  0  0  0  0  0  0  0  # atno 6909 bound_to 6896
  144.8416  139.6318  143.6014 H   0  0  0  0  0  0  0  0  0  0  0  0  # atno 7974 bound_to 7965
  156.2885  140.2674  156.2239 H   0  0  0  0  0  0  0  0  0  0  0  0  # atno 8008 bound_to 7997
  155.0140  140.0387  157.2429 H   0  0  0  0  0  0  0  0  0  0  0  0  # atno 8009 bound_to 7997
  154.7493  140.2740  155.6311 H   0  0  0  0  0  0  0  0  0  0  0  0  # atno 8010 bound_to 7997
  140.6221  143.8182  150.7188 H   0  0  0  0  0  0  0  0  0  0  0  0  # atno 10167 bound_to 10162
  156.4121  130.7987  151.2205 H   0  0  0  0  0  0  0  0  0  0  0  0  # atno 10718 bound_to 10713
  154.4108  135.6009  153.5952 H   0  0  0  0  0  0  0  0  0  0  0  0  # atno 10763 bound_to 10752
  152.9790  135.5929  154.4072 H   0  0  0  0  0  0  0  0  0  0  0  0  # atno 10764 bound_to 10752
  154.3884  135.2842  155.2148 H   0  0  0  0  0  0  0  0  0  0  0  0  # atno 10765 bound_to 10752
  140.8879  134.1849  157.4547 H   0  0  0  0  0  0  0  0  0  0  0  0  # atno 11005 bound_to 11000
  146.2708  139.6630  142.9297 LP  0  0  0  0  0  0  0  0  0  0  0  0  # atno 17320 bound_to 7965
  145.4682  141.0435  143.2713 LP  0  0  0  0  0  0  0  0  0  0  0  0  # atno 17321 bound_to 7965
  140.1774  143.4143  152.1957 LP  0  0  0  0  0  0  0  0  0  0  0  0  # atno 17342 bound_to 10162
  139.5448  144.7288  151.4619 LP  0  0  0  0  0  0  0  0  0  0  0  0  # atno 17343 bound_to 10162
  157.7507  131.0254  150.3918 LP  0  0  0  0  0  0  0  0  0  0  0  0  # atno 17370 bound_to 10713
  156.4218  130.3954  149.6819 LP  0  0  0  0  0  0  0  0  0  0  0  0  # atno 17371 bound_to 10713
  139.8726  134.9846  156.5245 LP  0  0  0  0  0  0  0  0  0  0  0  0  # atno 17394 bound_to 11000
  140.8382  133.8225  155.9049 LP  0  0  0  0  0  0  0  0  0  0  0  0  # atno 17395 bound_to 11000

$$$$
