AV-unprocessed.smi:3330|AV-procd|sdf|12811|dock4
  -GOLD-   2272019183D 1   1.00000     0.00000
 Structure written by MMmdl.
 38 39  0  0  0  0  0  0  0  0  3 V2000
  145.7655  135.8547  151.2251 C   0  0  0  0  0  0  0  0  0  0  0  0
  145.7021  134.8631  152.4014 C   0  0  2  0  0  0  0  0  0  0  0  0
  147.0508  134.2901  152.6116 N   0  3  0  0  0  0  0  0  0  0  0  0
  147.4610  134.1654  154.0242 C   0  0  0  0  0  0  0  0  0  0  0  0
  148.9632  133.8691  154.1323 C   0  0  0  0  0  0  0  0  0  0  0  0
  149.5014  134.3350  155.4128 N   0  0  0  0  0  0  0  0  0  0  0  0
  150.4489  135.2689  155.5379 C   0  0  0  0  0  0  0  0  0  0  0  0
  151.0298  135.8798  154.6408 O   0  0  0  0  0  0  0  0  0  0  0  0
  150.6932  135.4737  157.0149 C   0  0  0  0  0  0  0  0  0  0  0  0
  149.7543  134.5514  157.6131 N   0  5  0  0  0  0  0  0  0  0  0  0
  149.0837  133.9182  156.6230 C   0  0  0  0  0  0  0  0  0  0  0  0
  148.1972  133.0747  156.7547 O   0  0  0  0  0  0  0  0  0  0  0  0
  144.6559  133.7345  152.1881 C   0  0  1  0  0  0  0  0  0  0  0  0
  143.2009  134.2335  152.2769 C   0  0  0  0  0  0  0  0  0  0  0  0
  144.8622  133.0264  150.9309 N   0  0  0  0  0  0  0  0  0  0  0  0
  143.9943  132.9099  149.8644 C   0  0  0  0  0  0  0  0  0  0  0  0
  144.6173  132.1571  148.9107 C   0  0  0  0  0  0  0  0  0  0  0  0
  145.8819  131.8572  149.4891 C   0  0  0  0  0  0  0  0  0  0  0  0
  146.0263  132.3790  150.6964 N   0  0  0  0  0  0  0  0  0  0  0  0
  144.8273  136.3949  151.0980 H   0  0  0  0  0  0  0  0  0  0  0  0
  145.9857  135.3443  150.2870 H   0  0  0  0  0  0  0  0  0  0  0  0
  146.5423  136.6028  151.3867 H   0  0  0  0  0  0  0  0  0  0  0  0
  145.4204  135.4386  153.2852 H   0  0  0  0  0  0  0  0  0  0  0  0
  147.0824  133.3770  152.1813 H   0  0  0  0  0  0  0  0  0  0  0  0
  147.2226  135.0924  154.5479 H   0  0  0  0  0  0  0  0  0  0  0  0
  146.8882  133.3704  154.5025 H   0  0  0  0  0  0  0  0  0  0  0  0
  149.1434  132.7978  154.0244 H   0  0  0  0  0  0  0  0  0  0  0  0
  149.4974  134.3435  153.3071 H   0  0  0  0  0  0  0  0  0  0  0  0
  151.7326  135.2469  157.2544 H   0  0  0  0  0  0  0  0  0  0  0  0
  150.5047  136.5140  157.2822 H   0  0  0  0  0  0  0  0  0  0  0  0
  144.7952  132.9989  152.9819 H   0  0  0  0  0  0  0  0  0  0  0  0
  142.9684  134.6141  153.2714 H   0  0  0  0  0  0  0  0  0  0  0  0
  142.4972  133.4262  152.0716 H   0  0  0  0  0  0  0  0  0  0  0  0
  143.0069  135.0327  151.5608 H   0  0  0  0  0  0  0  0  0  0  0  0
  143.0152  133.3661  149.8725 H   0  0  0  0  0  0  0  0  0  0  0  0
  144.2292  131.8664  147.9456 H   0  0  0  0  0  0  0  0  0  0  0  0
  146.6935  131.2804  149.0706 H   0  0  0  0  0  0  0  0  0  0  0  0
  147.7228  134.8858  152.1496 H   0  0  0  0  0  0  0  0  0  0  0  0
  1  2  1  0  0  0  0
  1 20  1  0  0  0  0
  1 21  1  0  0  0  0
  1 22  1  0  0  0  0
  2  3  1  0  0  0  0
  2 13  1  0  0  0  0
  2 23  1  0  0  0  0
  3  4  1  0  0  0  0
  3 24  1  0  0  0  0
  3 38  1  0  0  0  0
  4  5  1  0  0  0  0
  4 25  1  0  0  0  0
  4 26  1  0  0  0  0
  5  6  1  0  0  0  0
  5 27  1  0  0  0  0
  5 28  1  0  0  0  0
  6 11  1  0  0  0  0
  6  7  1  0  0  0  0
  7  8  2  0  0  0  0
  7  9  1  0  0  0  0
  9 10  1  0  0  0  0
  9 29  1  0  0  0  0
  9 30  1  0  0  0  0
 10 11  1  0  0  0  0
 11 12  2  0  0  0  0
 13 14  1  0  0  0  0
 13 15  1  0  0  0  0
 13 31  1  0  0  0  0
 14 32  1  0  0  0  0
 14 33  1  0  0  0  0
 14 34  1  0  0  0  0
 15 19  1  0  0  0  0
 15 16  1  0  0  0  0
 16 17  2  0  0  0  0
 16 35  1  0  0  0  0
 17 18  1  0  0  0  0
 17 36  1  0  0  0  0
 18 19  2  0  0  0  0
 18 37  1  0  0  0  0
M  CHG  1   3   1
M  CHG  1  10  -1
M  END
> <s_m_source_file>
AV-unprocessed.smi

> <i_m_source_file_index>
3330

> <i_lp_mmshare_version>
43012

> <i_f3d_flags>
0

> <s_epik_input>
bjFbY0hdW2NIXVtjSF1uMVtDQEBIXShbQ0gzXSlbQ0BIXShbQ0gzXSlbTkhdW0NIMl1bQ0gyXU4yQyg9TylbQ0gyXVtOSF1DMj1P

> <s_epik_cmdline>
J2VwaWtfcHl0aG9uJywgJy1waCcsICc3LjAnLCAnLXRuJywgJzgnLCAnLW1hJywgJzIwMCcsICctbWV0YWxfYmluZGluZycsICctaW1hZScsICc8aW5maWxlLm1hZT4nLCAnLW9tYWUnLCAnPG91dGZpbGUubWFlPic=

> <r_lp_tautomer_probability>
1

> <r_epik_Ionization_Penalty>
5.18149

> <r_epik_Ionization_Penalty_Charging>
5.18148

> <r_epik_Ionization_Penalty_Neutral>
9.83265e-06

> <r_epik_State_Penalty>
5.18201

> <r_epik_Charging_Adjusted_Penalty>
10.3635

> <i_epik_Tot_Q>
0

> <i_epik_Tot_abs_Q>
2

> <r_epik_Metal_State_Penalty>
1.25422

> <b_epik_Metal_Only>
1

> <s_lp_Force_Field>
OPLS_2005

> <r_lp_Energy>
16.3237

> <b_lp_Chiralities_Consistent>
1

> <s_lp_Variant>
AV-unprocessed.smi:3330-11

> <Gold.Version>
5.8.1

> <Gold.Id.Protein>
6NUR|6NUR_protein|mol2

> <Gold.PLP.Fitness>
49.1225

> <Gold.PLP.PLP>
-29.9443

> <Gold.PLP.part.hbond>
-3.0000

> <Gold.PLP.part.metal>
0.0000

> <Gold.PLP.part.buried>
-3.4307

> <Gold.PLP.part.nonpolar>
-25.4260

> <Gold.PLP.part.repulsive>
0.3308

> <Gold.PLP.ligand.clash>
0.0000

> <Gold.PLP.ligand.torsion>
0.8879

> <Gold.PLP.Chemscore.Hbond>
5.0000

> <Gold.PLP.Chemscore.CHOScore>
1.9341

> <Gold.PLP.Chemscore.Metal>
0.0000

> <Gold.Chemscore.Hbonds>
donor molecule, donor type, donor heavy atom, donor atom, acceptor molecule, acceptor atom, score
      L1  H     3    38       P1  7948  2.00
      P1  H  6896  6908       L1    10  2.00
      P1  H 10752 10765       L1     8  1.00
      L1  C    16    35       P1 10186  1.00
      L1  C    18    37       P1 10747  0.79

> <Gold.PLP.Chemscore.Internal.Correction>
0.1518

> <Gold.Rescore>
     Score         DG    S(hbond)    S(metal)    S(lipo)     H(rot)  DE(clash)    DE(int)     intcor
     12.04     -14.95       2.60        0.00      63.47       2.59       0.04       2.87       ----

> <Gold.Chemscore.Fitness>
12.0400

> <Gold.Chemscore.DG>
-14.9496

> <Gold.Chemscore.ZeroCoef>
-5.4800

> <Gold.Chemscore.Hbond>
2.5973

> <Gold.Chemscore.Metal>
0.0000

> <Gold.Chemscore.Lipo>
63.4669

> <Gold.Chemscore.Internal_Hbond>
0.0000

> <Gold.Chemscore.DEClash>
0.0411

> <Gold.Chemscore.DEInternal>
2.8685

> <Gold.Chemscore.Rot>
2.5903

> <Gold.Chemscore.Internal.Correction>
   9.000000E+99

> <Gold.Chemscore.Hbonds>
donor molecule, donor type, donor heavy atom, donor atom, acceptor molecule, acceptor atom, score
      L1  H     3    38       P1  7948  0.78
      P1  H  6896  6908       L1    10  0.27
      P1  H 10752 10765       L1     8  0.97

> <Gold.Chemscore.Hbond.Weighted>
-8.6751

> <Gold.Chemscore.Metal.Weighted>
-0.0000

> <Gold.Chemscore.Lipo.Weighted>
-7.4256

> <Gold.Chemscore.Internal_Hbond.Weighted>
0.0000

> <Gold.Chemscore.DEClash.Weighted>
0.0411

> <Gold.Chemscore.DEInternal.Weighted>
2.8685

> <Gold.Chemscore.Rot.Weighted>
6.6311

> <Gold.Chemscore.Internal.Correction.Weighted>
   9.000000E+99

> <Gold.Protein.RotatedTorsions>
[ 6907 6896 6895 6894 ] final  142.07 input  -60.11 | X-H torsion
[ 7974 7965 7964 7962 ] final -168.98 input  175.53 | X-H torsion
[ 8008 7997 7996 7995 ] final  -82.10 input   59.86 | X-H torsion
[ 10167 10162 10161 10158 ] final -178.01 input  -65.29 | X-H torsion
[ 10718 10713 10712 10709 ] final    8.06 input   66.30 | X-H torsion
[ 10763 10752 10751 10750 ] final  161.66 input  -60.55 | X-H torsion
[ 11005 11000 10999 10996 ] final  -66.52 input  -57.11 | X-H torsion

> <Gold.Protein.ActiveResidues>
 VAL166  LYS551  ARG553  GLY616  TRP617  ASP618  TYR619  PRO620  LYS621  CYS622 
 ASP623  PHE694  ASN695  SER759  ASP760  ASP761  ALA762  ILE779  LEU786  VAL792 
 PHE793  MET794  SER795  GLU796  ALA797  LYS798  CYS799  TRP800  GLU811  SER814 

> <Gold.Protein.RotatedAtoms>
  152.2232  133.5000  159.5174 H   0  0  0  0  0  0  0  0  0  0  0  0  # atno 6907 bound_to 6896
  150.7018  134.1314  159.4080 H   0  0  0  0  0  0  0  0  0  0  0  0  # atno 6908 bound_to 6896
  151.9235  135.0288  160.0574 H   0  0  0  0  0  0  0  0  0  0  0  0  # atno 6909 bound_to 6896
  144.7193  140.2290  143.6306 H   0  0  0  0  0  0  0  0  0  0  0  0  # atno 7974 bound_to 7965
  154.6051  140.0638  156.9420 H   0  0  0  0  0  0  0  0  0  0  0  0  # atno 8008 bound_to 7997
  155.2066  140.3319  155.4317 H   0  0  0  0  0  0  0  0  0  0  0  0  # atno 8009 bound_to 7997
  156.2343  140.1855  156.7145 H   0  0  0  0  0  0  0  0  0  0  0  0  # atno 8010 bound_to 7997
  139.5452  144.2254  152.0975 H   0  0  0  0  0  0  0  0  0  0  0  0  # atno 10167 bound_to 10162
  156.9460  130.5879  149.5654 H   0  0  0  0  0  0  0  0  0  0  0  0  # atno 10718 bound_to 10713
  154.2663  135.2767  155.2757 H   0  0  0  0  0  0  0  0  0  0  0  0  # atno 10763 bound_to 10752
  154.5340  135.5721  153.6786 H   0  0  0  0  0  0  0  0  0  0  0  0  # atno 10764 bound_to 10752
  152.9953  135.6234  154.2816 H   0  0  0  0  0  0  0  0  0  0  0  0  # atno 10765 bound_to 10752
  141.1484  133.6701  156.6153 H   0  0  0  0  0  0  0  0  0  0  0  0  # atno 11005 bound_to 11000
  145.8429  139.2138  143.1817 LP  0  0  0  0  0  0  0  0  0  0  0  0  # atno 17320 bound_to 7965
  146.0330  140.8239  142.9866 LP  0  0  0  0  0  0  0  0  0  0  0  0  # atno 17321 bound_to 7965
  140.1739  144.4909  150.6564 LP  0  0  0  0  0  0  0  0  0  0  0  0  # atno 17342 bound_to 10162
  140.6698  143.2281  151.5653 LP  0  0  0  0  0  0  0  0  0  0  0  0  # atno 17343 bound_to 10162
  156.0383  130.5468  150.8709 LP  0  0  0  0  0  0  0  0  0  0  0  0  # atno 17370 bound_to 10713
  157.5753  131.0946  150.9355 LP  0  0  0  0  0  0  0  0  0  0  0  0  # atno 17371 bound_to 10713
  140.3583  134.7710  157.4516 LP  0  0  0  0  0  0  0  0  0  0  0  0  # atno 17394 bound_to 11000
  140.0805  134.5737  155.8545 LP  0  0  0  0  0  0  0  0  0  0  0  0  # atno 17395 bound_to 11000

$$$$
