AV-unprocessed.smi:2124|AV-procd|sdf|8654|dock3
  -GOLD-   2272011403D 1   1.00000     0.00000
 Structure written by MMmdl.
 47 49  0  0  0  0  0  0  0  0  1 V2000
  149.1406  133.8343  155.1098 C   0  0  0  0  0  0  0  0  0  0  0  0
  149.3082  135.3388  155.0983 C   0  0  0  0  0  0  0  0  0  0  0  0
  148.3797  136.1701  155.4410 N   0  0  0  0  0  0  0  0  0  0  0  0
  148.6542  137.5440  155.3944 C   0  0  0  0  0  0  0  0  0  0  0  0
  147.5153  138.4543  155.8198 C   0  0  0  0  0  0  0  0  0  0  0  0
  149.8694  138.0171  154.9898 C   0  0  0  0  0  0  0  0  0  0  0  0
  150.2103  139.5051  154.9327 C   0  0  0  0  0  0  0  0  0  0  0  0
  151.4031  139.9521  155.7824 C   0  0  0  0  0  0  0  0  0  0  0  0
  152.5460  139.9170  155.3258 O   0  0  0  0  0  0  0  0  0  0  0  0
  151.1159  140.3775  157.0219 N   0  0  0  0  0  0  0  0  0  0  0  0
  152.0823  140.8840  157.9949 C   0  0  2  0  0  0  0  0  0  0  0  0
  152.3461  139.7931  159.0483 C   0  0  0  0  0  0  0  0  0  0  0  0
  151.5487  142.2017  158.6100 C   0  0  2  0  0  0  0  0  0  0  0  0
  151.1137  143.2490  157.5530 C   0  0  0  0  0  0  0  0  0  0  0  0
  151.8960  144.5103  157.9579 C   0  0  1  0  0  0  0  0  0  0  0  0
  151.3401  145.0601  159.2837 C   0  0  0  0  0  0  0  0  0  0  0  0
  151.8427  144.0305  160.3127 C   0  0  0  0  0  0  0  0  0  0  0  0
  152.5865  143.0056  159.4342 C   0  0  2  0  0  0  0  0  0  0  0  0
  153.2284  143.9146  158.3910 C   0  0  0  0  0  0  0  0  0  0  0  0
  150.9222  137.0593  154.6010 C   0  0  0  0  0  0  0  0  0  0  0  0
  152.0513  137.3780  154.2314 O   0  0  0  0  0  0  0  0  0  0  0  0
  150.5709  135.7564  154.6808 N   0  0  0  0  0  0  0  0  0  0  0  0
  151.2580  135.0612  154.4285 H   0  0  0  0  0  0  0  0  0  0  0  0
  148.8762  133.4947  156.1115 H   0  0  0  0  0  0  0  0  0  0  0  0
  150.0561  133.3238  154.8074 H   0  0  0  0  0  0  0  0  0  0  0  0
  148.3438  133.5405  154.4262 H   0  0  0  0  0  0  0  0  0  0  0  0
  147.1416  139.0190  154.9656 H   0  0  0  0  0  0  0  0  0  0  0  0
  147.8458  139.1582  156.5838 H   0  0  0  0  0  0  0  0  0  0  0  0
  146.6844  137.8818  156.2337 H   0  0  0  0  0  0  0  0  0  0  0  0
  150.3756  139.8019  153.8956 H   0  0  0  0  0  0  0  0  0  0  0  0
  149.3457  140.0863  155.2519 H   0  0  0  0  0  0  0  0  0  0  0  0
  150.1478  140.3702  157.3087 H   0  0  0  0  0  0  0  0  0  0  0  0
  153.0219  141.1002  157.4837 H   0  0  0  0  0  0  0  0  0  0  0  0
  153.1250  140.0863  159.7509 H   0  0  0  0  0  0  0  0  0  0  0  0
  152.6773  138.8665  158.5781 H   0  0  0  0  0  0  0  0  0  0  0  0
  151.4463  139.5690  159.6219 H   0  0  0  0  0  0  0  0  0  0  0  0
  150.6963  141.9529  159.2447 H   0  0  0  0  0  0  0  0  0  0  0  0
  151.4039  142.9471  156.5453 H   0  0  0  0  0  0  0  0  0  0  0  0
  150.0353  143.4112  157.5487 H   0  0  0  0  0  0  0  0  0  0  0  0
  151.9602  145.2571  157.1660 H   0  0  0  0  0  0  0  0  0  0  0  0
  151.7490  146.0481  159.4985 H   0  0  0  0  0  0  0  0  0  0  0  0
  150.2524  145.1419  159.2728 H   0  0  0  0  0  0  0  0  0  0  0  0
  152.5271  144.5010  161.0198 H   0  0  0  0  0  0  0  0  0  0  0  0
  151.0310  143.5809  160.8857 H   0  0  0  0  0  0  0  0  0  0  0  0
  153.2905  142.3988  160.0022 H   0  0  0  0  0  0  0  0  0  0  0  0
  153.7412  143.3731  157.5944 H   0  0  0  0  0  0  0  0  0  0  0  0
  153.9121  144.6498  158.8193 H   0  0  0  0  0  0  0  0  0  0  0  0
  1  2  1  0  0  0  0
  1 24  1  0  0  0  0
  1 25  1  0  0  0  0
  1 26  1  0  0  0  0
  2 22  1  0  0  0  0
  2  3  2  0  0  0  0
  3  4  1  0  0  0  0
  4  5  1  0  0  0  0
  4  6  2  0  0  0  0
  5 27  1  0  0  0  0
  5 28  1  0  0  0  0
  5 29  1  0  0  0  0
  6  7  1  0  0  0  0
  6 20  1  0  0  0  0
  7  8  1  0  0  0  0
  7 30  1  0  0  0  0
  7 31  1  0  0  0  0
  8  9  2  0  0  0  0
  8 10  1  0  0  0  0
 10 11  1  0  0  0  0
 10 32  1  0  0  0  0
 11 12  1  0  0  0  0
 11 13  1  0  0  0  0
 11 33  1  0  0  0  0
 12 34  1  0  0  0  0
 12 35  1  0  0  0  0
 12 36  1  0  0  0  0
 13 18  1  0  0  0  0
 13 14  1  0  0  0  0
 13 37  1  0  0  0  0
 14 15  1  0  0  0  0
 14 38  1  0  0  0  0
 14 39  1  0  0  0  0
 15 19  1  0  0  0  0
 15 16  1  0  0  0  0
 15 40  1  0  0  0  0
 16 17  1  0  0  0  0
 16 41  1  0  0  0  0
 16 42  1  0  0  0  0
 17 18  1  0  0  0  0
 17 43  1  0  0  0  0
 17 44  1  0  0  0  0
 18 19  1  0  0  0  0
 18 45  1  0  0  0  0
 19 46  1  0  0  0  0
 19 47  1  0  0  0  0
 20 21  2  0  0  0  0
 20 22  1  0  0  0  0
 22 23  1  0  0  0  0
M  END
> <s_m_source_file>
AV-unprocessed.smi

> <i_m_source_file_index>
2124

> <i_lp_mmshare_version>
43012

> <i_f3d_flags>
0

> <s_epik_input>
W0NIM11jMW5jKFtDSDNdKWMoYyg9TylbbkhdMSlbQ0gyXUMoPU8pW05IXVtDQEhdKFtDSDNdKVtDQEhdKFtDSDJdW0NASF0yMylbQ0BIXShbQ0gyXTMpW0NIMl1bQ0gyXTI=

> <s_epik_cmdline>
J2VwaWtfcHl0aG9uJywgJy1waCcsICc3LjAnLCAnLXRuJywgJzgnLCAnLW1hJywgJzIwMCcsICctbWV0YWxfYmluZGluZycsICctaW1hZScsICc8aW5maWxlLm1hZT4nLCAnLW9tYWUnLCAnPG91dGZpbGUubWFlPic=

> <r_lp_tautomer_probability>
0.839158

> <r_epik_Ionization_Penalty>
0.000383628

> <r_epik_Ionization_Penalty_Charging>
0.00035045

> <r_epik_Ionization_Penalty_Neutral>
3.31781e-05

> <r_epik_State_Penalty>
0.09125

> <r_epik_Charging_Adjusted_Penalty>
0.0916005

> <i_epik_Tot_Q>
0

> <i_epik_Tot_abs_Q>
0

> <r_epik_Metal_State_Penalty>
0.255229

> <b_epik_Metal_Only>
0

> <s_lp_Force_Field>
OPLS_2005

> <r_lp_Energy>
52.554

> <b_lp_Chiralities_Consistent>
1

> <s_lp_Variant>
AV-unprocessed.smi:2124-5

> <Gold.Version>
5.8.1

> <Gold.Id.Protein>
6NUR|6NUR_protein|mol2

> <Gold.PLP.Fitness>
49.1499

> <Gold.PLP.PLP>
-44.5523

> <Gold.PLP.part.hbond>
-4.8854

> <Gold.PLP.part.metal>
0.0000

> <Gold.PLP.part.buried>
-2.7657

> <Gold.PLP.part.nonpolar>
-38.1009

> <Gold.PLP.part.repulsive>
0.4427

> <Gold.PLP.ligand.clash>
0.0000

> <Gold.PLP.ligand.torsion>
0.6404

> <Gold.PLP.Chemscore.Hbond>
1.9491

> <Gold.PLP.Chemscore.CHOScore>
0.0000

> <Gold.PLP.Chemscore.Metal>
0.0000

> <Gold.Chemscore.Hbonds>
donor molecule, donor type, donor heavy atom, donor atom, acceptor molecule, acceptor atom, score
      P1  H  7989  7998       L1     9  0.09
      P1  H  7997  8008       L1     9  1.00
      P1  H 10752 10763       L1    21  0.85

> <Gold.PLP.Chemscore.Internal.Correction>
0.0311

> <Gold.Rescore>
     Score         DG    S(hbond)    S(metal)    S(lipo)     H(rot)  DE(clash)    DE(int)     intcor
     18.31     -20.13       1.71        0.00     112.46       1.65       0.43       1.39       ----

> <Gold.Chemscore.Fitness>
18.3148

> <Gold.Chemscore.DG>
-20.1275

> <Gold.Chemscore.ZeroCoef>
-5.4800

> <Gold.Chemscore.Hbond>
1.7132

> <Gold.Chemscore.Metal>
0.0000

> <Gold.Chemscore.Lipo>
112.4623

> <Gold.Chemscore.Internal_Hbond>
0.0000

> <Gold.Chemscore.DEClash>
0.4266

> <Gold.Chemscore.DEInternal>
1.3861

> <Gold.Chemscore.Rot>
1.6534

> <Gold.Chemscore.Internal.Correction>
   9.000000E+99

> <Gold.Chemscore.Hbonds>
donor molecule, donor type, donor heavy atom, donor atom, acceptor molecule, acceptor atom, score
      P1  H  7997  8008       L1     9  0.96
      P1  H 10752 10763       L1    21  0.46

> <Gold.Chemscore.Hbond.Weighted>
-5.7220

> <Gold.Chemscore.Metal.Weighted>
-0.0000

> <Gold.Chemscore.Lipo.Weighted>
-13.1581

> <Gold.Chemscore.Internal_Hbond.Weighted>
0.0000

> <Gold.Chemscore.DEClash.Weighted>
0.4266

> <Gold.Chemscore.DEInternal.Weighted>
1.3861

> <Gold.Chemscore.Rot.Weighted>
4.2326

> <Gold.Chemscore.Internal.Correction.Weighted>
   9.000000E+99

> <Gold.Protein.RotatedTorsions>
[ 6907 6896 6895 6894 ] final   72.25 input  -60.11 | X-H torsion
[ 7974 7965 7964 7962 ] final   69.47 input  175.53 | X-H torsion
[ 8008 7997 7996 7995 ] final  -16.32 input   59.86 | X-H torsion
[ 10167 10162 10161 10158 ] final  -53.58 input  -65.29 | X-H torsion
[ 10718 10713 10712 10709 ] final -160.74 input   66.30 | X-H torsion
[ 10763 10752 10751 10750 ] final   24.45 input  -60.55 | X-H torsion
[ 11005 11000 10999 10996 ] final -106.89 input  -57.11 | X-H torsion

> <Gold.Protein.ActiveResidues>
 VAL166  LYS551  ARG553  GLY616  TRP617  ASP618  TYR619  PRO620  LYS621  CYS622 
 ASP623  PHE694  ASN695  SER759  ASP760  ASP761  ALA762  ILE779  LEU786  VAL792 
 PHE793  MET794  SER795  GLU796  ALA797  LYS798  CYS799  TRP800  GLU811  SER814 

> <Gold.Protein.RotatedAtoms>
  152.4857  134.4599  159.9601 H   0  0  0  0  0  0  0  0  0  0  0  0  # atno 6907 bound_to 6896
  151.4596  133.3590  159.2815 H   0  0  0  0  0  0  0  0  0  0  0  0  # atno 6908 bound_to 6896
  150.8966  134.8399  159.7391 H   0  0  0  0  0  0  0  0  0  0  0  0  # atno 6909 bound_to 6896
  145.7901  139.2929  143.1215 H   0  0  0  0  0  0  0  0  0  0  0  0  # atno 7974 bound_to 7965
  154.5062  140.2172  155.9247 H   0  0  0  0  0  0  0  0  0  0  0  0  # atno 8008 bound_to 7997
  156.1496  140.3164  155.8593 H   0  0  0  0  0  0  0  0  0  0  0  0  # atno 8009 bound_to 7997
  155.3964  140.0481  157.3029 H   0  0  0  0  0  0  0  0  0  0  0  0  # atno 8010 bound_to 7997
  140.6477  143.2546  151.4812 H   0  0  0  0  0  0  0  0  0  0  0  0  # atno 10167 bound_to 10162
  156.5864  130.8751  151.2878 H   0  0  0  0  0  0  0  0  0  0  0  0  # atno 10718 bound_to 10713
  153.0763  135.6605  154.0139 H   0  0  0  0  0  0  0  0  0  0  0  0  # atno 10763 bound_to 10752
  153.9772  135.2959  155.3424 H   0  0  0  0  0  0  0  0  0  0  0  0  # atno 10764 bound_to 10752
  154.7152  135.5188  153.8797 H   0  0  0  0  0  0  0  0  0  0  0  0  # atno 10765 bound_to 10752
  141.0982  133.8933  157.1911 H   0  0  0  0  0  0  0  0  0  0  0  0  # atno 11005 bound_to 11000
  145.9986  140.8540  143.0030 LP  0  0  0  0  0  0  0  0  0  0  0  0  # atno 17320 bound_to 7965
  144.6783  140.2319  143.7354 LP  0  0  0  0  0  0  0  0  0  0  0  0  # atno 17321 bound_to 7965
  139.5689  144.1975  152.1807 LP  0  0  0  0  0  0  0  0  0  0  0  0  # atno 17342 bound_to 10162
  140.1266  144.5326  150.6829 LP  0  0  0  0  0  0  0  0  0  0  0  0  # atno 17343 bound_to 10162
  157.7314  130.9700  150.1879 LP  0  0  0  0  0  0  0  0  0  0  0  0  # atno 17370 bound_to 10713
  156.2587  130.3708  149.8154 LP  0  0  0  0  0  0  0  0  0  0  0  0  # atno 17371 bound_to 10713
  139.9824  135.0093  156.9782 LP  0  0  0  0  0  0  0  0  0  0  0  0  # atno 17394 bound_to 11000
  140.5089  134.1022  155.7266 LP  0  0  0  0  0  0  0  0  0  0  0  0  # atno 17395 bound_to 11000

$$$$
