AV-unprocessed.smi:1737|AV-procd|sdf|6993|dock4
  -GOLD-   22720 8203D 1   1.00000     0.00000
 Structure written by MMmdl.
 42 43  0  0  0  0  0  0  0  0  1 V2000
  147.7594  133.1476  152.3008 C   0  0  0  0  0  0  0  0  0  0  0  0
  146.3217  133.1529  151.8063 C   0  0  0  0  0  0  0  0  0  0  0  0
  145.6710  131.9252  151.5601 C   0  0  0  0  0  0  0  0  0  0  0  0
  144.3420  131.9327  151.1033 C   0  0  0  0  0  0  0  0  0  0  0  0
  143.7157  133.1761  150.9113 C   0  0  0  0  0  0  0  0  0  0  0  0
  144.3299  134.3539  151.1438 N   0  0  0  0  0  0  0  0  0  0  0  0
  145.6131  134.3641  151.5841 C   0  0  0  0  0  0  0  0  0  0  0  0
  146.3260  135.5670  151.8481 N   0  0  0  0  0  0  0  0  0  0  0  0
  145.8896  136.6853  152.4536 C   0  0  0  0  0  0  0  0  0  0  0  0
  144.7599  136.8542  152.9132 O   0  0  0  0  0  0  0  0  0  0  0  0
  146.8545  137.6139  152.4947 N   0  0  0  0  0  0  0  0  0  0  0  0
  146.7226  138.9597  153.0467 C   0  0  0  0  0  0  0  0  0  0  0  0
  146.8512  138.9512  154.5906 C   0  0  2  0  0  0  0  0  0  0  0  0
  145.6869  139.7860  155.1710 C   0  0  0  0  0  0  0  0  0  0  0  0
  148.1820  139.3693  155.0846 N   0  0  0  0  0  0  0  0  0  0  0  0
  149.2761  138.6362  154.4417 C   0  0  0  0  0  0  0  0  0  0  0  0
  150.6607  139.0819  154.9427 C   0  0  0  0  0  0  0  0  0  0  0  0
  150.8175  140.4796  154.7364 O   0  0  0  0  0  0  0  0  0  0  0  0
  149.8136  141.2368  155.3994 C   0  0  0  0  0  0  0  0  0  0  0  0
  148.4243  140.8035  154.9006 C   0  0  0  0  0  0  0  0  0  0  0  0
  148.1412  132.1315  152.4040 H   0  0  0  0  0  0  0  0  0  0  0  0
  147.8290  133.6319  153.2752 H   0  0  0  0  0  0  0  0  0  0  0  0
  148.4062  133.6787  151.6021 H   0  0  0  0  0  0  0  0  0  0  0  0
  146.1817  130.9867  151.7180 H   0  0  0  0  0  0  0  0  0  0  0  0
  143.8168  131.0101  150.9047 H   0  0  0  0  0  0  0  0  0  0  0  0
  142.6951  133.2270  150.5620 H   0  0  0  0  0  0  0  0  0  0  0  0
  147.2823  135.5795  151.5262 H   0  0  0  0  0  0  0  0  0  0  0  0
  147.7506  137.3846  152.0902 H   0  0  0  0  0  0  0  0  0  0  0  0
  147.4724  139.6312  152.6249 H   0  0  0  0  0  0  0  0  0  0  0  0
  145.7668  139.3756  152.7300 H   0  0  0  0  0  0  0  0  0  0  0  0
  146.6828  137.9214  154.9095 H   0  0  0  0  0  0  0  0  0  0  0  0
  144.7384  139.5182  154.7046 H   0  0  0  0  0  0  0  0  0  0  0  0
  145.8409  140.8537  155.0111 H   0  0  0  0  0  0  0  0  0  0  0  0
  145.5548  139.6203  156.2398 H   0  0  0  0  0  0  0  0  0  0  0  0
  149.1867  137.5685  154.6356 H   0  0  0  0  0  0  0  0  0  0  0  0
  149.2239  138.7671  153.3598 H   0  0  0  0  0  0  0  0  0  0  0  0
  150.7840  138.8458  156.0010 H   0  0  0  0  0  0  0  0  0  0  0  0
  151.4461  138.5525  154.4032 H   0  0  0  0  0  0  0  0  0  0  0  0
  149.8965  141.1002  156.4788 H   0  0  0  0  0  0  0  0  0  0  0  0
  149.9755  142.2957  155.1973 H   0  0  0  0  0  0  0  0  0  0  0  0
  148.3211  141.0638  153.8462 H   0  0  0  0  0  0  0  0  0  0  0  0
  147.6853  141.3902  155.4440 H   0  0  0  0  0  0  0  0  0  0  0  0
  1  2  1  0  0  0  0
  1 21  1  0  0  0  0
  1 22  1  0  0  0  0
  1 23  1  0  0  0  0
  2  7  1  0  0  0  0
  2  3  2  0  0  0  0
  3  4  1  0  0  0  0
  3 24  1  0  0  0  0
  4  5  2  0  0  0  0
  4 25  1  0  0  0  0
  5  6  1  0  0  0  0
  5 26  1  0  0  0  0
  6  7  2  0  0  0  0
  7  8  1  0  0  0  0
  8  9  1  0  0  0  0
  8 27  1  0  0  0  0
  9 10  2  0  0  0  0
  9 11  1  0  0  0  0
 11 12  1  0  0  0  0
 11 28  1  0  0  0  0
 12 13  1  0  0  0  0
 12 29  1  0  0  0  0
 12 30  1  0  0  0  0
 13 14  1  0  0  0  0
 13 15  1  0  0  0  0
 13 31  1  0  0  0  0
 14 32  1  0  0  0  0
 14 33  1  0  0  0  0
 14 34  1  0  0  0  0
 15 20  1  0  0  0  0
 15 16  1  0  0  0  0
 16 17  1  0  0  0  0
 16 35  1  0  0  0  0
 16 36  1  0  0  0  0
 17 18  1  0  0  0  0
 17 37  1  0  0  0  0
 17 38  1  0  0  0  0
 18 19  1  0  0  0  0
 19 20  1  0  0  0  0
 19 39  1  0  0  0  0
 19 40  1  0  0  0  0
 20 41  1  0  0  0  0
 20 42  1  0  0  0  0
M  END
> <s_m_source_file>
AV-unprocessed.smi

> <i_m_source_file_index>
1737

> <i_lp_mmshare_version>
43012

> <i_f3d_flags>
0

> <s_epik_input>
W0NIM11jMVtjSF1bY0hdW2NIXW5jMVtOSF1DKD1PKVtOSF1bQ0gyXVtDQEhdKFtDSDNdKU4yW0NIMl1bQ0gyXU9bQ0gyXVtDSDJdMg==

> <s_epik_cmdline>
J2VwaWtfcHl0aG9uJywgJy1waCcsICc3LjAnLCAnLXRuJywgJzgnLCAnLW1hJywgJzIwMCcsICctbWV0YWxfYmluZGluZycsICctaW1hZScsICc8aW5maWxlLm1hZT4nLCAnLW9tYWUnLCAnPG91dGZpbGUubWFlPic=

> <r_epik_Ionization_Penalty>
0.266048

> <r_epik_Ionization_Penalty_Charging>
0

> <r_epik_Ionization_Penalty_Neutral>
0.266048

> <r_epik_State_Penalty>
0.257924

> <r_epik_Charging_Adjusted_Penalty>
0.257924

> <i_epik_Tot_Q>
0

> <i_epik_Tot_abs_Q>
0

> <r_epik_Metal_State_Penalty>
0.257922

> <b_epik_Metal_Only>
0

> <s_lp_Force_Field>
OPLS_2005

> <r_lp_Energy>
34.2136

> <b_lp_Chiralities_Consistent>
1

> <s_lp_Variant>
AV-unprocessed.smi:1737-1

> <Gold.Version>
5.8.1

> <Gold.Id.Protein>
6NUR|6NUR_protein|mol2

> <Gold.PLP.Fitness>
40.9837

> <Gold.PLP.PLP>
-31.5250

> <Gold.PLP.part.hbond>
-2.8236

> <Gold.PLP.part.metal>
0.0000

> <Gold.PLP.part.buried>
-4.1132

> <Gold.PLP.part.nonpolar>
-25.9370

> <Gold.PLP.part.repulsive>
0.6244

> <Gold.PLP.ligand.clash>
0.0000

> <Gold.PLP.ligand.torsion>
1.1664

> <Gold.PLP.Chemscore.Hbond>
2.9200

> <Gold.PLP.Chemscore.CHOScore>
1.0000

> <Gold.PLP.Chemscore.Metal>
0.0000

> <Gold.Chemscore.Hbonds>
donor molecule, donor type, donor heavy atom, donor atom, acceptor molecule, acceptor atom, score
      L1  H     8    27       P1  7948  0.93
      L1  H    11    28       P1  7948  0.98
      P1  H  7989  7998       L1    18  1.00
      L1  C     5    26       P1 10186  1.00

> <Gold.PLP.Chemscore.Internal.Correction>
0.0315

> <Gold.Rescore>
     Score         DG    S(hbond)    S(metal)    S(lipo)     H(rot)  DE(clash)    DE(int)     intcor
     18.17     -19.34       2.74        0.00      72.47       1.47       0.01       1.16       ----

> <Gold.Chemscore.Fitness>
18.1706

> <Gold.Chemscore.DG>
-19.3411

> <Gold.Chemscore.ZeroCoef>
-5.4800

> <Gold.Chemscore.Hbond>
2.7356

> <Gold.Chemscore.Metal>
0.0000

> <Gold.Chemscore.Lipo>
72.4706

> <Gold.Chemscore.Internal_Hbond>
0.0000

> <Gold.Chemscore.DEClash>
0.0117

> <Gold.Chemscore.DEInternal>
1.1589

> <Gold.Chemscore.Rot>
1.4667

> <Gold.Chemscore.Internal.Correction>
   9.000000E+99

> <Gold.Chemscore.Hbonds>
donor molecule, donor type, donor heavy atom, donor atom, acceptor molecule, acceptor atom, score
      L1  H     8    27       P1  7948  0.88
      L1  H    11    28       P1  7948  0.93
      P1  H  7989  7998       L1    18  0.84

> <Gold.Chemscore.Hbond.Weighted>
-9.1369

> <Gold.Chemscore.Metal.Weighted>
-0.0000

> <Gold.Chemscore.Lipo.Weighted>
-8.4791

> <Gold.Chemscore.Internal_Hbond.Weighted>
0.0000

> <Gold.Chemscore.DEClash.Weighted>
0.0117

> <Gold.Chemscore.DEInternal.Weighted>
1.1589

> <Gold.Chemscore.Rot.Weighted>
3.7549

> <Gold.Chemscore.Internal.Correction.Weighted>
   9.000000E+99

> <Gold.Protein.RotatedTorsions>
[ 6907 6896 6895 6894 ] final  160.29 input  -60.11 | X-H torsion
[ 7974 7965 7964 7962 ] final  124.96 input  175.53 | X-H torsion
[ 8008 7997 7996 7995 ] final  153.22 input   59.86 | X-H torsion
[ 10167 10162 10161 10158 ] final -168.87 input  -65.29 | X-H torsion
[ 10718 10713 10712 10709 ] final  -86.58 input   66.30 | X-H torsion
[ 10763 10752 10751 10750 ] final   54.80 input  -60.55 | X-H torsion
[ 11005 11000 10999 10996 ] final  150.87 input  -57.11 | X-H torsion

> <Gold.Protein.ActiveResidues>
 VAL166  LYS551  ARG553  GLY616  TRP617  ASP618  TYR619  PRO620  LYS621  CYS622 
 ASP623  PHE694  ASN695  SER759  ASP760  ASP761  ALA762  ILE779  LEU786  VAL792 
 PHE793  MET794  SER795  GLU796  ALA797  LYS798  CYS799  TRP800  GLU811  SER814 

> <Gold.Protein.RotatedAtoms>
  151.9728  133.3731  159.4077 H   0  0  0  0  0  0  0  0  0  0  0  0  # atno 6907 bound_to 6896
  150.6946  134.4122  159.5176 H   0  0  0  0  0  0  0  0  0  0  0  0  # atno 6908 bound_to 6896
  152.1828  134.8739  160.0575 H   0  0  0  0  0  0  0  0  0  0  0  0  # atno 6909 bound_to 6896
  145.0784  139.3676  143.4921 H   0  0  0  0  0  0  0  0  0  0  0  0  # atno 7974 bound_to 7965
  156.2592  140.1999  156.6455 H   0  0  0  0  0  0  0  0  0  0  0  0  # atno 8008 bound_to 7997
  154.6576  140.0564  157.0051 H   0  0  0  0  0  0  0  0  0  0  0  0  # atno 8009 bound_to 7997
  155.1324  140.3235  155.4474 H   0  0  0  0  0  0  0  0  0  0  0  0  # atno 8010 bound_to 7997
  139.5958  144.1116  152.1687 H   0  0  0  0  0  0  0  0  0  0  0  0  # atno 10167 bound_to 10162
  155.9989  130.4770  150.4737 H   0  0  0  0  0  0  0  0  0  0  0  0  # atno 10718 bound_to 10713
  152.9809  135.5733  154.4962 H   0  0  0  0  0  0  0  0  0  0  0  0  # atno 10763 bound_to 10752
  154.4489  135.2778  155.1797 H   0  0  0  0  0  0  0  0  0  0  0  0  # atno 10764 bound_to 10752
  154.3433  135.6224  153.5660 H   0  0  0  0  0  0  0  0  0  0  0  0  # atno 10765 bound_to 10752
  140.1169  134.8888  157.2017 H   0  0  0  0  0  0  0  0  0  0  0  0  # atno 11005 bound_to 11000
  146.3530  140.0563  142.8632 LP  0  0  0  0  0  0  0  0  0  0  0  0  # atno 17320 bound_to 7965
  145.1207  140.9461  143.4602 LP  0  0  0  0  0  0  0  0  0  0  0  0  # atno 17321 bound_to 7965
  140.0701  144.5786  150.7198 LP  0  0  0  0  0  0  0  0  0  0  0  0  # atno 17342 bound_to 10162
  140.7210  143.2589  151.4277 LP  0  0  0  0  0  0  0  0  0  0  0  0  # atno 17343 bound_to 10162
  157.2749  131.0595  151.2235 LP  0  0  0  0  0  0  0  0  0  0  0  0  # atno 17370 bound_to 10713
  157.3302  130.6981  149.6320 LP  0  0  0  0  0  0  0  0  0  0  0  0  # atno 17371 bound_to 10713
  140.3016  134.3125  155.7288 LP  0  0  0  0  0  0  0  0  0  0  0  0  # atno 17394 bound_to 11000
  141.2143  133.7595  156.9649 LP  0  0  0  0  0  0  0  0  0  0  0  0  # atno 17395 bound_to 11000

$$$$
