AV-unprocessed.smi:157|AV-procd|sdf|1313|dock10
  -GOLD-   2262019 03D 1   1.00000     0.00000
 Structure written by MMmdl.
 36 38  0  0  0  0  0  0  0  0  2 V2000
  154.3844  136.9110  158.7283 O   0  0  0  0  0  0  0  0  0  0  0  0
  153.8453  137.8403  159.6439 C   0  0  0  0  0  0  0  0  0  0  0  0
  152.6286  138.5386  159.0190 C   0  0  1  0  0  0  0  0  0  0  0  0
  153.0130  139.1954  157.8152 O   0  0  0  0  0  0  0  0  0  0  0  0
  151.9003  139.3581  156.9861 C   0  0  2  0  0  0  0  0  0  0  0  0
  151.4595  140.7886  157.0424 N   0  0  0  0  0  0  0  0  0  0  0  0
  150.5370  141.3888  156.2590 C   0  0  0  0  0  0  0  0  0  0  0  0
  150.3394  142.6676  156.5311 N   0  3  0  0  0  0  0  0  0  0  0  0
  151.1818  142.9799  157.5768 C   0  0  0  0  0  0  0  0  0  0  0  0
  151.8621  141.7989  157.8849 C   0  0  0  0  0  0  0  0  0  0  0  0
  152.8331  141.5508  158.8672 N   0  0  0  0  0  0  0  0  0  0  0  0
  153.0328  142.3422  159.8704 C   0  0  0  0  0  0  0  0  0  0  0  0
  152.4528  143.5702  160.1410 N   0  0  0  0  0  0  0  0  0  0  0  0
  152.3310  144.6218  159.1468 C   0  0  0  0  0  0  0  0  0  0  0  0
  151.2181  144.3749  158.1193 C   0  0  2  0  0  0  0  0  0  0  0  0
  149.9857  144.7674  158.6878 O   0  0  0  0  0  0  0  0  0  0  0  0
  150.7931  138.4465  157.5305 C   0  0  0  0  0  0  0  0  0  0  0  0
  151.5512  137.5770  158.5162 C   0  0  2  0  0  0  0  0  0  0  0  0
  150.7025  137.1305  159.5536 O   0  0  0  0  0  0  0  0  0  0  0  0
  152.1866  139.2591  159.7105 H   0  0  0  0  0  0  0  0  0  0  0  0
  152.1612  139.1785  155.9426 H   0  0  0  0  0  0  0  0  0  0  0  0
  151.3886  145.0503  157.2801 H   0  0  0  0  0  0  0  0  0  0  0  0
  152.0025  136.7269  158.0020 H   0  0  0  0  0  0  0  0  0  0  0  0
  154.2886  137.2596  157.8550 H   0  0  0  0  0  0  0  0  0  0  0  0
  153.5846  137.3459  160.5803 H   0  0  0  0  0  0  0  0  0  0  0  0
  154.6238  138.5701  159.8676 H   0  0  0  0  0  0  0  0  0  0  0  0
  150.0071  140.8706  155.4798 H   0  0  0  0  0  0  0  0  0  0  0  0
  153.7542  142.0529  160.6361 H   0  0  0  0  0  0  0  0  0  0  0  0
  152.5423  143.9518  161.0721 H   0  0  0  0  0  0  0  0  0  0  0  0
  152.1942  145.5830  159.6435 H   0  0  0  0  0  0  0  0  0  0  0  0
  153.2863  144.6858  158.6235 H   0  0  0  0  0  0  0  0  0  0  0  0
  149.5133  145.2895  158.0579 H   0  0  0  0  0  0  0  0  0  0  0  0
  150.0330  139.0451  158.0368 H   0  0  0  0  0  0  0  0  0  0  0  0
  150.3198  137.8804  156.7278 H   0  0  0  0  0  0  0  0  0  0  0  0
  149.9721  137.7263  159.6237 H   0  0  0  0  0  0  0  0  0  0  0  0
  149.6973  143.2901  156.0571 H   0  0  0  0  0  0  0  0  0  0  0  0
  1  2  1  0  0  0  0
  1 24  1  0  0  0  0
  2  3  1  0  0  0  0
  2 25  1  0  0  0  0
  2 26  1  0  0  0  0
  3 20  1  0  0  0  0
  3 18  1  0  0  0  0
  3  4  1  0  0  0  0
  4  5  1  0  0  0  0
  5 21  1  0  0  0  0
  5  6  1  0  0  0  0
  5 17  1  0  0  0  0
  6 10  1  0  0  0  0
  6  7  1  0  0  0  0
  7  8  2  0  0  0  0
  7 27  1  0  0  0  0
  8  9  1  0  0  0  0
  8 36  1  0  0  0  0
  9 15  1  0  0  0  0
  9 10  2  0  0  0  0
 10 11  1  0  0  0  0
 11 12  2  0  0  0  0
 12 13  1  0  0  0  0
 12 28  1  0  0  0  0
 13 14  1  0  0  0  0
 13 29  1  0  0  0  0
 14 15  1  0  0  0  0
 14 30  1  0  0  0  0
 14 31  1  0  0  0  0
 15 22  1  0  0  0  0
 15 16  1  0  0  0  0
 16 32  1  0  0  0  0
 17 18  1  0  0  0  0
 17 33  1  0  0  0  0
 17 34  1  0  0  0  0
 18 23  1  0  0  0  0
 18 19  1  0  0  0  0
 19 35  1  0  0  0  0
M  CHG  1   8   1
M  END
> <s_m_source_file>
AV-unprocessed.smi

> <i_m_source_file_index>
157

> <i_lp_mmshare_version>
43012

> <i_f3d_flags>
0

> <s_epik_input>
W09IXVtDSDJdW0NASF0xT1tDQEhdKFtDSDJdW0NAQEhdMVtPSF0pbihbY0hdbjIpYyhjMjMpTj1bQ0hdW05IXVtDSDJdW0NASF0zW09IXQ==

> <s_epik_cmdline>
J2VwaWtfcHl0aG9uJywgJy1waCcsICc3LjAnLCAnLXRuJywgJzgnLCAnLW1hJywgJzIwMCcsICctbWV0YWxfYmluZGluZycsICctaW1hZScsICc8aW5maWxlLm1hZT4nLCAnLW9tYWUnLCAnPG91dGZpbGUubWFlPic=

> <r_epik_Ionization_Penalty>
1.68594

> <r_epik_Ionization_Penalty_Charging>
0

> <r_epik_Ionization_Penalty_Neutral>
1.68594

> <r_epik_State_Penalty>
1.79006

> <r_epik_Charging_Adjusted_Penalty>
1.79006

> <i_epik_Tot_Q>
1

> <i_epik_Tot_abs_Q>
1

> <r_epik_Metal_State_Penalty>
5.85324

> <b_epik_Metal_Only>
0

> <s_epik_Chemistry_Notes>
This compound has an imine and may undergo hydrolysis. This compound contains an acetal/aminal-like group ( X-CH(R)-Y where X, Y are N, S, or O) that may be acid/base labile, releasing an aldehyde.

> <s_lp_Force_Field>
OPLS_2005

> <r_lp_Energy>
52.2724

> <b_lp_Chiralities_Consistent>
1

> <s_lp_Variant>
AV-unprocessed.smi:157-23

> <Gold.Version>
5.8.1

> <Gold.Id.Protein>
6NUR|6NUR_protein|mol2

> <Gold.PLP.Fitness>
48.3328

> <Gold.PLP.PLP>
-33.8179

> <Gold.PLP.part.hbond>
-4.6077

> <Gold.PLP.part.metal>
0.0000

> <Gold.PLP.part.buried>
-6.6275

> <Gold.PLP.part.nonpolar>
-23.3205

> <Gold.PLP.part.repulsive>
0.1219

> <Gold.PLP.ligand.clash>
0.0000

> <Gold.PLP.ligand.torsion>
0.2397

> <Gold.PLP.Chemscore.Hbond>
4.9913

> <Gold.PLP.Chemscore.CHOScore>
0.0000

> <Gold.PLP.Chemscore.Metal>
0.0000

> <Gold.Chemscore.Hbonds>
donor molecule, donor type, donor heavy atom, donor atom, acceptor molecule, acceptor atom, score
      L1  H     8    36       P1  8028  2.00
      L1  H    16    32       P1  8029  1.00
      P1  H  6896  6907       L1    19  0.81
      P1  H  7997  8008       L1     4  1.00

> <Gold.PLP.Chemscore.Internal.Correction>
0.0205

> <Gold.Rescore>
     Score         DG    S(hbond)    S(metal)    S(lipo)     H(rot)  DE(clash)    DE(int)     intcor
     12.43     -14.20       3.66        0.00      50.18       3.67       0.00       1.77       ----

> <Gold.Chemscore.Fitness>
12.4256

> <Gold.Chemscore.DG>
-14.2016

> <Gold.Chemscore.ZeroCoef>
-5.4800

> <Gold.Chemscore.Hbond>
3.6634

> <Gold.Chemscore.Metal>
0.0000

> <Gold.Chemscore.Lipo>
50.1766

> <Gold.Chemscore.Internal_Hbond>
0.0000

> <Gold.Chemscore.DEClash>
0.0015

> <Gold.Chemscore.DEInternal>
1.7746

> <Gold.Chemscore.Rot>
3.6659

> <Gold.Chemscore.Internal.Correction>
   9.000000E+99

> <Gold.Chemscore.Hbonds>
donor molecule, donor type, donor heavy atom, donor atom, acceptor molecule, acceptor atom, score
      L1  H     8    36       P1  8028  0.99
      L1  H    16    32       P1  8029  0.29
      P1  H  6896  6907       L1    19  0.49
      P1  H  7997  8008       L1     4  0.74

> <Gold.Chemscore.Hbond.Weighted>
-12.2358

> <Gold.Chemscore.Metal.Weighted>
-0.0000

> <Gold.Chemscore.Lipo.Weighted>
-5.8707

> <Gold.Chemscore.Internal_Hbond.Weighted>
0.0000

> <Gold.Chemscore.DEClash.Weighted>
0.0015

> <Gold.Chemscore.DEInternal.Weighted>
1.7746

> <Gold.Chemscore.Rot.Weighted>
9.3848

> <Gold.Chemscore.Internal.Correction.Weighted>
   9.000000E+99

> <Gold.Protein.RotatedTorsions>
[ 6907 6896 6895 6894 ] final  -26.16 input  -60.11 | X-H torsion
[ 7974 7965 7964 7962 ] final   51.74 input  175.53 | X-H torsion
[ 8008 7997 7996 7995 ] final  -85.64 input   59.86 | X-H torsion
[ 10167 10162 10161 10158 ] final   30.24 input  -65.29 | X-H torsion
[ 10718 10713 10712 10709 ] final -143.44 input   66.30 | X-H torsion
[ 10763 10752 10751 10750 ] final  157.71 input  -60.55 | X-H torsion
[ 11005 11000 10999 10996 ] final -172.88 input  -57.11 | X-H torsion

> <Gold.Protein.ActiveResidues>
 VAL166  LYS551  ARG553  GLY616  TRP617  ASP618  TYR619  PRO620  LYS621  CYS622 
 ASP623  PHE694  ASN695  SER759  ASP760  ASP761  ALA762  ILE779  LEU786  VAL792 
 PHE793  MET794  SER795  GLU796  ALA797  LYS798  CYS799  TRP800  GLU811  SER814 

> <Gold.Protein.RotatedAtoms>
  151.1649  135.0291  159.8726 H   0  0  0  0  0  0  0  0  0  0  0  0  # atno 6907 bound_to 6896
  152.5450  134.1237  159.8420 H   0  0  0  0  0  0  0  0  0  0  0  0  # atno 6908 bound_to 6896
  151.1336  133.4973  159.2631 H   0  0  0  0  0  0  0  0  0  0  0  0  # atno 6909 bound_to 6896
  145.9883  139.4312  143.0089 H   0  0  0  0  0  0  0  0  0  0  0  0  # atno 7974 bound_to 7965
  154.6430  140.0589  156.9867 H   0  0  0  0  0  0  0  0  0  0  0  0  # atno 8008 bound_to 7997
  155.1488  140.3272  155.4417 H   0  0  0  0  0  0  0  0  0  0  0  0  # atno 8009 bound_to 7997
  156.2540  140.1951  156.6601 H   0  0  0  0  0  0  0  0  0  0  0  0  # atno 8010 bound_to 7997
  140.4695  144.0784  150.6233 H   0  0  0  0  0  0  0  0  0  0  0  0  # atno 10167 bound_to 10162
  156.3580  130.7723  151.1886 H   0  0  0  0  0  0  0  0  0  0  0  0  # atno 10718 bound_to 10713
  154.2046  135.2789  155.2979 H   0  0  0  0  0  0  0  0  0  0  0  0  # atno 10763 bound_to 10752
  154.5827  135.5584  153.7204 H   0  0  0  0  0  0  0  0  0  0  0  0  # atno 10764 bound_to 10752
  153.0079  135.6349  154.2185 H   0  0  0  0  0  0  0  0  0  0  0  0  # atno 10765 bound_to 10752
  140.4920  134.5975  157.4958 H   0  0  0  0  0  0  0  0  0  0  0  0  # atno 11005 bound_to 11000
  145.7668  140.9913  143.1171 LP  0  0  0  0  0  0  0  0  0  0  0  0  # atno 17320 bound_to 7965
  144.6881  139.9398  143.7474 LP  0  0  0  0  0  0  0  0  0  0  0  0  # atno 17321 bound_to 7965
  140.3994  143.2711  151.9965 LP  0  0  0  0  0  0  0  0  0  0  0  0  # atno 17342 bound_to 10162
  139.4816  144.6010  151.7605 LP  0  0  0  0  0  0  0  0  0  0  0  0  # atno 17343 bound_to 10162
  157.7470  131.0408  150.4617 LP  0  0  0  0  0  0  0  0  0  0  0  0  # atno 17370 bound_to 10713
  156.4823  130.4076  149.6454 LP  0  0  0  0  0  0  0  0  0  0  0  0  # atno 17371 bound_to 10713
  139.9763  134.7209  155.9943 LP  0  0  0  0  0  0  0  0  0  0  0  0  # atno 17394 bound_to 11000
  141.1479  133.6553  156.3923 LP  0  0  0  0  0  0  0  0  0  0  0  0  # atno 17395 bound_to 11000

$$$$
