AV-unprocessed.smi:2068|AV-procd|sdf|8428|dock6
  -GOLD-   2272011123D 1   1.00000     0.00000
 Structure written by MMmdl.
 33 34  0  0  0  0  0  0  0  0  1 V2000
  147.1406  140.4750  152.7045 N   0  0  0  0  0  0  0  0  0  0  0  0
  148.2353  140.4181  153.4681 C   0  0  0  0  0  0  0  0  0  0  0  0
  148.8648  141.4232  153.7919 O   0  0  0  0  0  0  0  0  0  0  0  0
  148.6877  139.0345  153.9384 C   0  0  0  0  0  0  0  0  0  0  0  0
  149.9866  139.1374  154.6837 C   0  0  0  0  0  0  0  0  0  0  0  0
  151.1603  138.4858  154.3897 C   0  0  0  0  0  0  0  0  0  0  0  0
  152.4318  138.8879  155.5126 S   0  0  0  0  0  0  0  0  0  0  0  0
  151.3043  139.9417  156.3516 C   0  0  0  0  0  0  0  0  0  0  0  0
  151.6800  140.6797  157.5042 N   0  0  0  0  0  0  0  0  0  0  0  0
  152.7371  140.4808  158.3138 C   0  0  0  0  0  0  0  0  0  0  0  0
  153.5601  139.5745  158.1805 O   0  0  0  0  0  0  0  0  0  0  0  0
  152.8870  141.4735  159.4723 C   0  0  0  0  0  0  0  0  0  0  0  0
  151.8661  142.6315  159.4295 C   0  0  1  0  0  0  0  0  0  0  0  0
  151.8928  143.5062  160.6600 C   0  0  0  0  0  0  0  0  0  0  0  0
  152.0675  144.7938  160.3727 C   0  0  0  0  0  0  0  0  0  0  0  0
  152.1949  145.0425  158.8956 C   0  0  0  0  0  0  0  0  0  0  0  0
  152.1274  143.6300  158.2724 C   0  0  0  0  0  0  0  0  0  0  0  0
  150.0848  139.9709  155.8030 N   0  0  0  0  0  0  0  0  0  0  0  0
  146.8131  141.3664  152.3618 H   0  0  0  0  0  0  0  0  0  0  0  0
  146.6511  139.6253  152.4626 H   0  0  0  0  0  0  0  0  0  0  0  0
  147.9142  138.6023  154.5746 H   0  0  0  0  0  0  0  0  0  0  0  0
  148.7829  138.3705  153.0778 H   0  0  0  0  0  0  0  0  0  0  0  0
  151.3511  137.7925  153.5840 H   0  0  0  0  0  0  0  0  0  0  0  0
  151.0857  141.4641  157.7299 H   0  0  0  0  0  0  0  0  0  0  0  0
  152.8003  140.9438  160.4227 H   0  0  0  0  0  0  0  0  0  0  0  0
  153.8992  141.8780  159.4384 H   0  0  0  0  0  0  0  0  0  0  0  0
  150.8559  142.2298  159.3355 H   0  0  0  0  0  0  0  0  0  0  0  0
  151.7656  143.1071  161.6557 H   0  0  0  0  0  0  0  0  0  0  0  0
  152.1073  145.5936  161.0972 H   0  0  0  0  0  0  0  0  0  0  0  0
  151.3767  145.6759  158.5517 H   0  0  0  0  0  0  0  0  0  0  0  0
  153.1394  145.5393  158.6719 H   0  0  0  0  0  0  0  0  0  0  0  0
  153.0659  143.4055  157.7640 H   0  0  0  0  0  0  0  0  0  0  0  0
  151.3388  143.5712  157.5212 H   0  0  0  0  0  0  0  0  0  0  0  0
  1  2  1  0  0  0  0
  1 19  1  0  0  0  0
  1 20  1  0  0  0  0
  2  3  2  0  0  0  0
  2  4  1  0  0  0  0
  4  5  1  0  0  0  0
  4 21  1  0  0  0  0
  4 22  1  0  0  0  0
  5 18  1  0  0  0  0
  5  6  2  0  0  0  0
  6  7  1  0  0  0  0
  6 23  1  0  0  0  0
  7  8  1  0  0  0  0
  8  9  1  0  0  0  0
  8 18  2  0  0  0  0
  9 10  1  0  0  0  0
  9 24  1  0  0  0  0
 10 11  2  0  0  0  0
 10 12  1  0  0  0  0
 12 13  1  0  0  0  0
 12 25  1  0  0  0  0
 12 26  1  0  0  0  0
 13 17  1  0  0  0  0
 13 14  1  0  0  0  0
 13 27  1  0  0  0  0
 14 15  2  0  0  0  0
 14 28  1  0  0  0  0
 15 16  1  0  0  0  0
 15 29  1  0  0  0  0
 16 17  1  0  0  0  0
 16 30  1  0  0  0  0
 16 31  1  0  0  0  0
 17 32  1  0  0  0  0
 17 33  1  0  0  0  0
M  END
> <s_m_source_file>
AV-unprocessed.smi

> <i_m_source_file_index>
2068

> <i_lp_mmshare_version>
43012

> <i_f3d_flags>
0

> <s_epik_input>
W05IMl1DKD1PKVtDSDJdYzFbY0hdc2MobjEpW05IXUMoPU8pW0NIMl1bQ0BASF0yW0NIXT1bQ0hdW0NIMl1bQ0gyXTI=

> <s_epik_cmdline>
J2VwaWtfcHl0aG9uJywgJy1waCcsICc3LjAnLCAnLXRuJywgJzgnLCAnLW1hJywgJzIwMCcsICctbWV0YWxfYmluZGluZycsICctaW1hZScsICc8aW5maWxlLm1hZT4nLCAnLW9tYWUnLCAnPG91dGZpbGUubWFlPic=

> <r_lp_tautomer_probability>
1

> <r_epik_Ionization_Penalty>
0.000253249

> <r_epik_Ionization_Penalty_Charging>
0

> <r_epik_Ionization_Penalty_Neutral>
0.000253249

> <r_epik_State_Penalty>
-0

> <r_epik_Charging_Adjusted_Penalty>
0

> <i_epik_Tot_Q>
0

> <i_epik_Tot_abs_Q>
0

> <r_epik_Metal_State_Penalty>
0.148671

> <b_epik_Metal_Only>
0

> <s_lp_Force_Field>
OPLS_2005

> <r_lp_Energy>
16.4011

> <b_lp_Chiralities_Consistent>
1

> <s_lp_Variant>
AV-unprocessed.smi:2068-2

> <Gold.Version>
5.8.1

> <Gold.Id.Protein>
6NUR|6NUR_protein|mol2

> <Gold.PLP.Fitness>
45.6581

> <Gold.PLP.PLP>
-39.5466

> <Gold.PLP.part.hbond>
-3.0853

> <Gold.PLP.part.metal>
0.0000

> <Gold.PLP.part.buried>
-0.6834

> <Gold.PLP.part.nonpolar>
-35.5146

> <Gold.PLP.part.repulsive>
0.7184

> <Gold.PLP.ligand.clash>
0.0770

> <Gold.PLP.ligand.torsion>
0.1767

> <Gold.PLP.Chemscore.Hbond>
1.7680

> <Gold.PLP.Chemscore.CHOScore>
0.4057

> <Gold.PLP.Chemscore.Metal>
0.0000

> <Gold.Chemscore.Hbonds>
donor molecule, donor type, donor heavy atom, donor atom, acceptor molecule, acceptor atom, score
      P1  H  7997  8010       L1    11  1.00
      P1  H  8011  8017       L1     3  0.77
      L1  C     6    23       P1  7949  0.41

> <Gold.PLP.Chemscore.Internal.Correction>
0.0208

> <Gold.Rescore>
     Score         DG    S(hbond)    S(metal)    S(lipo)     H(rot)  DE(clash)    DE(int)     intcor
     12.74     -16.18       1.42        0.00      99.19       2.21       0.72       2.73       ----

> <Gold.Chemscore.Fitness>
12.7351

> <Gold.Chemscore.DG>
-16.1849

> <Gold.Chemscore.ZeroCoef>
-5.4800

> <Gold.Chemscore.Hbond>
1.4209

> <Gold.Chemscore.Metal>
0.0000

> <Gold.Chemscore.Lipo>
99.1859

> <Gold.Chemscore.Internal_Hbond>
0.0000

> <Gold.Chemscore.DEClash>
0.7203

> <Gold.Chemscore.DEInternal>
2.7294

> <Gold.Chemscore.Rot>
2.2053

> <Gold.Chemscore.Internal.Correction>
   9.000000E+99

> <Gold.Chemscore.Hbonds>
donor molecule, donor type, donor heavy atom, donor atom, acceptor molecule, acceptor atom, score
      P1  H  7997  8010       L1    11  0.78
      P1  H  8011  8017       L1     3  0.69

> <Gold.Chemscore.Hbond.Weighted>
-4.7458

> <Gold.Chemscore.Metal.Weighted>
-0.0000

> <Gold.Chemscore.Lipo.Weighted>
-11.6048

> <Gold.Chemscore.Internal_Hbond.Weighted>
0.0000

> <Gold.Chemscore.DEClash.Weighted>
0.7203

> <Gold.Chemscore.DEInternal.Weighted>
2.7294

> <Gold.Chemscore.Rot.Weighted>
5.6456

> <Gold.Chemscore.Internal.Correction.Weighted>
   9.000000E+99

> <Gold.Protein.RotatedTorsions>
[ 6907 6896 6895 6894 ] final -154.94 input  -60.11 | X-H torsion
[ 7974 7965 7964 7962 ] final -140.65 input  175.53 | X-H torsion
[ 8008 7997 7996 7995 ] final   20.82 input   59.86 | X-H torsion
[ 10167 10162 10161 10158 ] final  158.31 input  -65.29 | X-H torsion
[ 10718 10713 10712 10709 ] final   14.32 input   66.30 | X-H torsion
[ 10763 10752 10751 10750 ] final   12.90 input  -60.55 | X-H torsion
[ 11005 11000 10999 10996 ] final -117.78 input  -57.11 | X-H torsion

> <Gold.Protein.ActiveResidues>
 VAL166  LYS551  ARG553  GLY616  TRP617  ASP618  TYR619  PRO620  LYS621  CYS622 
 ASP623  PHE694  ASN695  SER759  ASP760  ASP761  ALA762  ILE779  LEU786  VAL792 
 PHE793  MET794  SER795  GLU796  ALA797  LYS798  CYS799  TRP800  GLU811  SER814 

> <Gold.Protein.RotatedAtoms>
  151.2651  133.4283  159.2617 H   0  0  0  0  0  0  0  0  0  0  0  0  # atno 6907 bound_to 6896
  151.0496  134.9664  159.8214 H   0  0  0  0  0  0  0  0  0  0  0  0  # atno 6908 bound_to 6896
  152.5380  134.2606  159.8986 H   0  0  0  0  0  0  0  0  0  0  0  0  # atno 6909 bound_to 6896
  144.8581  140.6175  143.5346 H   0  0  0  0  0  0  0  0  0  0  0  0  # atno 7974 bound_to 7965
  154.9413  140.3053  155.5119 H   0  0  0  0  0  0  0  0  0  0  0  0  # atno 8008 bound_to 7997
  156.2995  140.2336  156.4420 H   0  0  0  0  0  0  0  0  0  0  0  0  # atno 8009 bound_to 7997
  154.8142  140.0427  157.1353 H   0  0  0  0  0  0  0  0  0  0  0  0  # atno 8010 bound_to 7997
  139.4826  144.4836  151.8409 H   0  0  0  0  0  0  0  0  0  0  0  0  # atno 10167 bound_to 10162
  157.0374  130.6217  149.5745 H   0  0  0  0  0  0  0  0  0  0  0  0  # atno 10718 bound_to 10713
  153.1775  135.6822  153.8523 H   0  0  0  0  0  0  0  0  0  0  0  0  # atno 10763 bound_to 10752
  153.7866  135.3175  155.3374 H   0  0  0  0  0  0  0  0  0  0  0  0  # atno 10764 bound_to 10752
  154.8038  135.4761  154.0436 H   0  0  0  0  0  0  0  0  0  0  0  0  # atno 10765 bound_to 10752
  141.0331  133.9951  157.3112 H   0  0  0  0  0  0  0  0  0  0  0  0  # atno 11005 bound_to 11000
  145.4366  139.1541  143.3993 LP  0  0  0  0  0  0  0  0  0  0  0  0  # atno 17320 bound_to 7965
  146.2839  140.4486  142.8765 LP  0  0  0  0  0  0  0  0  0  0  0  0  # atno 17321 bound_to 7965
  140.4314  144.2110  150.5888 LP  0  0  0  0  0  0  0  0  0  0  0  0  # atno 17342 bound_to 10162
  140.4775  143.2391  151.9002 LP  0  0  0  0  0  0  0  0  0  0  0  0  # atno 17343 bound_to 10162
  156.0049  130.5134  150.7795 LP  0  0  0  0  0  0  0  0  0  0  0  0  # atno 17370 bound_to 10713
  157.5130  131.0927  151.0174 LP  0  0  0  0  0  0  0  0  0  0  0  0  # atno 17371 bound_to 10713
  139.9222  135.0201  156.8104 LP  0  0  0  0  0  0  0  0  0  0  0  0  # atno 17394 bound_to 11000
  140.6371  133.9852  155.7689 LP  0  0  0  0  0  0  0  0  0  0  0  0  # atno 17395 bound_to 11000

$$$$
