AV-unprocessed.smi:805|AV-procd|sdf|3796|dock2
  -GOLD-   22720 1233D 1   1.00000     0.00000
 Structure written by MMmdl.
 40 41  0  0  0  0  0  0  0  0  1 V2000
  143.9532  132.5357  149.7798 C   0  0  0  0  0  0  0  0  0  0  0  0
  145.4026  132.1860  150.1234 C   0  0  0  0  0  0  0  0  0  0  0  0
  145.5505  132.1920  151.5330 O   0  0  0  0  0  0  0  0  0  0  0  0
  146.0986  133.4035  152.0282 C   0  0  2  0  0  0  0  0  0  0  0  0
  146.3578  133.4162  153.5375 C   0  0  0  0  0  0  0  0  0  0  0  0
  145.7880  134.8387  153.5528 C   0  0  1  0  0  0  0  0  0  0  0  0
  146.8551  135.8310  153.4129 N   0  0  0  0  0  0  0  0  0  0  0  0
  146.9569  136.9464  154.1480 C   0  0  0  0  0  0  0  0  0  0  0  0
  146.1554  137.2520  155.0306 O   0  0  0  0  0  0  0  0  0  0  0  0
  148.0413  137.6596  153.8000 N   0  0  0  0  0  0  0  0  0  0  0  0
  148.4672  138.9210  154.2967 C   0  0  0  0  0  0  0  0  0  0  0  0
  147.5937  139.9926  154.6029 C   0  0  0  0  0  0  0  0  0  0  0  0
  148.1416  141.2042  155.0663 C   0  0  0  0  0  0  0  0  0  0  0  0
  149.5401  141.3024  155.2011 C   0  0  0  0  0  0  0  0  0  0  0  0
  150.3851  140.2938  154.9009 N   0  0  0  0  0  0  0  0  0  0  0  0
  149.8528  139.1356  154.4554 C   0  0  0  0  0  0  0  0  0  0  0  0
  145.0389  134.5134  152.2276 C   0  0  0  0  0  0  0  0  0  0  0  0
  144.9854  135.5887  151.1356 C   0  0  0  0  0  0  0  0  0  0  0  0
  143.5962  134.0302  152.4305 C   0  0  0  0  0  0  0  0  0  0  0  0
  143.7997  132.5466  148.7007 H   0  0  0  0  0  0  0  0  0  0  0  0
  143.6860  133.5195  150.1666 H   0  0  0  0  0  0  0  0  0  0  0  0
  143.2639  131.8080  150.2086 H   0  0  0  0  0  0  0  0  0  0  0  0
  145.6523  131.2049  149.7176 H   0  0  0  0  0  0  0  0  0  0  0  0
  146.0793  132.9130  149.6720 H   0  0  0  0  0  0  0  0  0  0  0  0
  146.9582  133.7531  151.4519 H   0  0  0  0  0  0  0  0  0  0  0  0
  145.7357  132.7051  154.0836 H   0  0  0  0  0  0  0  0  0  0  0  0
  147.4072  133.3269  153.8206 H   0  0  0  0  0  0  0  0  0  0  0  0
  145.1263  135.0171  154.4023 H   0  0  0  0  0  0  0  0  0  0  0  0
  147.5580  135.6531  152.7108 H   0  0  0  0  0  0  0  0  0  0  0  0
  148.6559  137.2322  153.1226 H   0  0  0  0  0  0  0  0  0  0  0  0
  146.5249  139.9169  154.4781 H   0  0  0  0  0  0  0  0  0  0  0  0
  147.5037  142.0413  155.3086 H   0  0  0  0  0  0  0  0  0  0  0  0
  149.9922  142.2179  155.5527 H   0  0  0  0  0  0  0  0  0  0  0  0
  150.5589  138.3523  154.2207 H   0  0  0  0  0  0  0  0  0  0  0  0
  144.4244  136.4637  151.4654 H   0  0  0  0  0  0  0  0  0  0  0  0
  144.5092  135.2145  150.2288 H   0  0  0  0  0  0  0  0  0  0  0  0
  145.9802  135.9293  150.8478 H   0  0  0  0  0  0  0  0  0  0  0  0
  142.9452  134.8450  152.7485 H   0  0  0  0  0  0  0  0  0  0  0  0
  143.5293  133.2523  153.1917 H   0  0  0  0  0  0  0  0  0  0  0  0
  143.1781  133.6156  151.5124 H   0  0  0  0  0  0  0  0  0  0  0  0
  1  2  1  0  0  0  0
  1 20  1  0  0  0  0
  1 21  1  0  0  0  0
  1 22  1  0  0  0  0
  2  3  1  0  0  0  0
  2 23  1  0  0  0  0
  2 24  1  0  0  0  0
  3  4  1  0  0  0  0
  4 17  1  0  0  0  0
  4  5  1  0  0  0  0
  4 25  1  0  0  0  0
  5  6  1  0  0  0  0
  5 26  1  0  0  0  0
  5 27  1  0  0  0  0
  6  7  1  0  0  0  0
  6 17  1  0  0  0  0
  6 28  1  0  0  0  0
  7  8  1  0  0  0  0
  7 29  1  0  0  0  0
  8  9  2  0  0  0  0
  8 10  1  0  0  0  0
 10 11  1  0  0  0  0
 10 30  1  0  0  0  0
 11 16  1  0  0  0  0
 11 12  2  0  0  0  0
 12 13  1  0  0  0  0
 12 31  1  0  0  0  0
 13 14  2  0  0  0  0
 13 32  1  0  0  0  0
 14 15  1  0  0  0  0
 14 33  1  0  0  0  0
 15 16  2  0  0  0  0
 16 34  1  0  0  0  0
 17 18  1  0  0  0  0
 17 19  1  0  0  0  0
 18 35  1  0  0  0  0
 18 36  1  0  0  0  0
 18 37  1  0  0  0  0
 19 38  1  0  0  0  0
 19 39  1  0  0  0  0
 19 40  1  0  0  0  0
M  END
> <s_m_source_file>
AV-unprocessed.smi

> <i_m_source_file_index>
805

> <i_lp_mmshare_version>
43012

> <i_f3d_flags>
0

> <s_epik_input>
W0NIM11bQ0gyXU9bQ0BASF0oQzEoW0NIM10pW0NIM10pW0NIMl1bQ0BIXTFbTkhdQyg9TylbTkhdYzJbY0hdW2NIXVtjSF1uW2NIXTI=

> <s_epik_cmdline>
J2VwaWtfcHl0aG9uJywgJy1waCcsICc3LjAnLCAnLXRuJywgJzgnLCAnLW1hJywgJzIwMCcsICctbWV0YWxfYmluZGluZycsICctaW1hZScsICc8aW5maWxlLm1hZT4nLCAnLW9tYWUnLCAnPG91dGZpbGUubWFlPic=

> <r_epik_Ionization_Penalty>
0.00485231

> <r_epik_Ionization_Penalty_Charging>
0

> <r_epik_Ionization_Penalty_Neutral>
0.00485231

> <r_epik_State_Penalty>
0.00349213

> <r_epik_Charging_Adjusted_Penalty>
0.00349213

> <i_epik_Tot_Q>
0

> <i_epik_Tot_abs_Q>
0

> <r_epik_Metal_State_Penalty>
-0

> <b_epik_Metal_Only>
0

> <s_lp_Force_Field>
OPLS_2005

> <r_lp_Energy>
23.2605

> <b_lp_Chiralities_Consistent>
1

> <s_lp_Variant>
AV-unprocessed.smi:805-1

> <Gold.Version>
5.8.1

> <Gold.Id.Protein>
6NUR|6NUR_protein|mol2

> <Gold.PLP.Fitness>
42.8862

> <Gold.PLP.PLP>
-32.4921

> <Gold.PLP.part.hbond>
-3.0000

> <Gold.PLP.part.metal>
0.0000

> <Gold.PLP.part.buried>
-4.4370

> <Gold.PLP.part.nonpolar>
-25.7168

> <Gold.PLP.part.repulsive>
0.3095

> <Gold.PLP.ligand.clash>
0.0000

> <Gold.PLP.ligand.torsion>
0.7969

> <Gold.PLP.Chemscore.Hbond>
2.8880

> <Gold.PLP.Chemscore.CHOScore>
1.0000

> <Gold.PLP.Chemscore.Metal>
0.0000

> <Gold.Chemscore.Hbonds>
donor molecule, donor type, donor heavy atom, donor atom, acceptor molecule, acceptor atom, score
      L1  H     7    29       P1  7948  0.98
      L1  H    10    30       P1  7948  1.00
      P1  H  7989  7998       L1    15  1.00
      L1  C    14    33       P1  8028  0.47

> <Gold.PLP.Chemscore.Internal.Correction>
0.3238

> <Gold.Rescore>
     Score         DG    S(hbond)    S(metal)    S(lipo)     H(rot)  DE(clash)    DE(int)     intcor
     18.04     -19.81       2.68        0.00      75.68       1.36       0.09       1.69       ----

> <Gold.Chemscore.Fitness>
18.0374

> <Gold.Chemscore.DG>
-19.8143

> <Gold.Chemscore.ZeroCoef>
-5.4800

> <Gold.Chemscore.Hbond>
2.6794

> <Gold.Chemscore.Metal>
0.0000

> <Gold.Chemscore.Lipo>
75.6766

> <Gold.Chemscore.Internal_Hbond>
0.0000

> <Gold.Chemscore.DEClash>
0.0862

> <Gold.Chemscore.DEInternal>
1.6907

> <Gold.Chemscore.Rot>
1.3551

> <Gold.Chemscore.Internal.Correction>
   9.000000E+99

> <Gold.Chemscore.Hbonds>
donor molecule, donor type, donor heavy atom, donor atom, acceptor molecule, acceptor atom, score
      L1  H     7    29       P1  7948  0.93
      L1  H    10    30       P1  7948  0.97
      P1  H  7989  7998       L1    15  0.37

> <Gold.Chemscore.Hbond.Weighted>
-8.9493

> <Gold.Chemscore.Metal.Weighted>
-0.0000

> <Gold.Chemscore.Lipo.Weighted>
-8.8542

> <Gold.Chemscore.Internal_Hbond.Weighted>
0.0000

> <Gold.Chemscore.DEClash.Weighted>
0.0862

> <Gold.Chemscore.DEInternal.Weighted>
1.6907

> <Gold.Chemscore.Rot.Weighted>
3.4691

> <Gold.Chemscore.Internal.Correction.Weighted>
   9.000000E+99

> <Gold.Protein.RotatedTorsions>
[ 6907 6896 6895 6894 ] final -119.20 input  -60.11 | X-H torsion
[ 7974 7965 7964 7962 ] final  100.61 input  175.53 | X-H torsion
[ 8008 7997 7996 7995 ] final   56.49 input   59.86 | X-H torsion
[ 10167 10162 10161 10158 ] final  -36.82 input  -65.29 | X-H torsion
[ 10718 10713 10712 10709 ] final -132.50 input   66.30 | X-H torsion
[ 10763 10752 10751 10750 ] final  -10.74 input  -60.55 | X-H torsion
[ 11005 11000 10999 10996 ] final  166.02 input  -57.11 | X-H torsion

> <Gold.Protein.ActiveResidues>
 VAL166  LYS551  ARG553  GLY616  TRP617  ASP618  TYR619  PRO620  LYS621  CYS622 
 ASP623  PHE694  ASN695  SER759  ASP760  ASP761  ALA762  ILE779  LEU786  VAL792 
 PHE793  MET794  SER795  GLU796  ALA797  LYS798  CYS799  TRP800  GLU811  SER814 

> <Gold.Protein.RotatedAtoms>
  150.8285  133.8131  159.3108 H   0  0  0  0  0  0  0  0  0  0  0  0  # atno 6907 bound_to 6896
  151.5869  135.1054  160.0039 H   0  0  0  0  0  0  0  0  0  0  0  0  # atno 6908 bound_to 6896
  152.4367  133.7332  159.6655 H   0  0  0  0  0  0  0  0  0  0  0  0  # atno 6909 bound_to 6896
  145.3832  139.2376  143.3392 H   0  0  0  0  0  0  0  0  0  0  0  0  # atno 7974 bound_to 7965
  155.5183  140.3479  155.4402 H   0  0  0  0  0  0  0  0  0  0  0  0  # atno 8008 bound_to 7997
  156.0802  140.1384  156.9749 H   0  0  0  0  0  0  0  0  0  0  0  0  # atno 8009 bound_to 7997
  154.4575  140.0947  156.6776 H   0  0  0  0  0  0  0  0  0  0  0  0  # atno 8010 bound_to 7997
  140.7133  143.3383  151.2414 H   0  0  0  0  0  0  0  0  0  0  0  0  # atno 10167 bound_to 10162
  156.2352  130.7062  151.0900 H   0  0  0  0  0  0  0  0  0  0  0  0  # atno 10718 bound_to 10713
  153.4735  135.7017  153.5979 H   0  0  0  0  0  0  0  0  0  0  0  0  # atno 10763 bound_to 10752
  153.4223  135.3822  155.2119 H   0  0  0  0  0  0  0  0  0  0  0  0  # atno 10764 bound_to 10752
  154.8724  135.3930  154.4176 H   0  0  0  0  0  0  0  0  0  0  0  0  # atno 10765 bound_to 10752
  140.2622  134.7893  157.3600 H   0  0  0  0  0  0  0  0  0  0  0  0  # atno 11005 bound_to 11000
  146.2832  140.4503  142.8768 LP  0  0  0  0  0  0  0  0  0  0  0  0  # atno 17320 bound_to 7965
  144.8492  140.6976  143.6179 LP  0  0  0  0  0  0  0  0  0  0  0  0  # atno 17321 bound_to 7965
  139.6883  143.9735  152.2846 LP  0  0  0  0  0  0  0  0  0  0  0  0  # atno 17342 bound_to 10162
  139.9388  144.6695  150.8287 LP  0  0  0  0  0  0  0  0  0  0  0  0  # atno 17343 bound_to 10162
  157.7151  131.0714  150.6357 LP  0  0  0  0  0  0  0  0  0  0  0  0  # atno 17370 bound_to 10713
  156.6427  130.4463  149.5747 LP  0  0  0  0  0  0  0  0  0  0  0  0  # atno 17371 bound_to 10713
  140.1454  134.4918  155.8000 LP  0  0  0  0  0  0  0  0  0  0  0  0  # atno 17394 bound_to 11000
  141.2189  133.6841  156.7284 LP  0  0  0  0  0  0  0  0  0  0  0  0  # atno 17395 bound_to 11000

$$$$
