AV-unprocessed.smi:1514|AV-procd|sdf|6114|dock10
  -GOLD-   22720 6243D 1   1.00000     0.00000
 Structure written by MMmdl.
 48 49  0  0  0  0  0  0  0  0  2 V2000
  146.4215  128.4634  151.9978 C   0  0  0  0  0  0  0  0  0  0  0  0
  147.4572  129.2258  152.8373 C   0  0  0  0  0  0  0  0  0  0  0  0
  147.5637  130.6564  152.4561 N   0  3  0  0  0  0  0  0  0  0  0  0
  148.2354  131.4989  153.4776 C   0  0  0  0  0  0  0  0  0  0  0  0
  148.3627  132.9555  152.9819 C   0  0  0  0  0  0  0  0  0  0  0  0
  147.0627  133.5412  152.6466 N   0  0  0  0  0  0  0  0  0  0  0  0
  146.2514  133.8162  153.8372 C   0  0  0  0  0  0  0  0  0  0  0  0
  147.0257  134.5720  154.9325 C   0  0  0  0  0  0  0  0  0  0  0  0
  147.8516  135.6295  154.3637 N   0  0  0  0  0  0  0  0  0  0  0  0
  148.1556  136.7719  154.9936 C   0  0  0  0  0  0  0  0  0  0  0  0
  147.7635  137.0414  156.1290 O   0  0  0  0  0  0  0  0  0  0  0  0
  148.9282  137.5593  154.2251 N   0  0  0  0  0  0  0  0  0  0  0  0
  149.4446  138.7836  154.5118 C   0  0  0  0  0  0  0  0  0  0  0  0
  148.7887  139.9555  154.7733 C   0  0  0  0  0  0  0  0  0  0  0  0
  149.8585  140.8706  154.9959 C   0  0  0  0  0  0  0  0  0  0  0  0
  149.7699  142.3302  155.3314 C   0  0  0  0  0  0  0  0  0  0  0  0
  151.0531  140.3011  154.8795 N   0  0  0  0  0  0  0  0  0  0  0  0
  150.8016  139.0081  154.5804 N   0  0  0  0  0  0  0  0  0  0  0  0
  151.8989  138.0818  154.3795 C   0  0  0  0  0  0  0  0  0  0  0  0
  146.4160  132.7045  151.6298 C   0  0  0  0  0  0  0  0  0  0  0  0
  146.2497  131.2432  152.0969 C   0  0  0  0  0  0  0  0  0  0  0  0
  146.3010  127.4463  152.3710 H   0  0  0  0  0  0  0  0  0  0  0  0
  146.7169  128.3881  150.9516 H   0  0  0  0  0  0  0  0  0  0  0  0
  145.4452  128.9467  152.0398 H   0  0  0  0  0  0  0  0  0  0  0  0
  147.1515  129.1604  153.8825 H   0  0  0  0  0  0  0  0  0  0  0  0
  148.4347  128.7464  152.7701 H   0  0  0  0  0  0  0  0  0  0  0  0
  147.6905  131.4512  154.4214 H   0  0  0  0  0  0  0  0  0  0  0  0
  149.2348  131.1146  153.6780 H   0  0  0  0  0  0  0  0  0  0  0  0
  148.8613  133.5700  153.7327 H   0  0  0  0  0  0  0  0  0  0  0  0
  148.9967  132.9840  152.0945 H   0  0  0  0  0  0  0  0  0  0  0  0
  145.3492  134.3690  153.5787 H   0  0  0  0  0  0  0  0  0  0  0  0
  145.9157  132.8656  154.2543 H   0  0  0  0  0  0  0  0  0  0  0  0
  146.3516  134.9862  155.6826 H   0  0  0  0  0  0  0  0  0  0  0  0
  147.6729  133.8688  155.4587 H   0  0  0  0  0  0  0  0  0  0  0  0
  148.2063  135.4827  153.4299 H   0  0  0  0  0  0  0  0  0  0  0  0
  149.1630  137.1977  153.3127 H   0  0  0  0  0  0  0  0  0  0  0  0
  147.7269  140.1480  154.8054 H   0  0  0  0  0  0  0  0  0  0  0  0
  148.7407  142.6852  155.2760 H   0  0  0  0  0  0  0  0  0  0  0  0
  150.3641  142.9300  154.6414 H   0  0  0  0  0  0  0  0  0  0  0  0
  150.1337  142.5227  156.3409 H   0  0  0  0  0  0  0  0  0  0  0  0
  151.9166  137.7571  153.3390 H   0  0  0  0  0  0  0  0  0  0  0  0
  151.7672  137.2114  155.0228 H   0  0  0  0  0  0  0  0  0  0  0  0
  152.8515  138.5561  154.6196 H   0  0  0  0  0  0  0  0  0  0  0  0
  145.4530  133.1242  151.3418 H   0  0  0  0  0  0  0  0  0  0  0  0
  147.0290  132.7261  150.7276 H   0  0  0  0  0  0  0  0  0  0  0  0
  145.8051  130.6631  151.2874 H   0  0  0  0  0  0  0  0  0  0  0  0
  145.5623  131.1737  152.9409 H   0  0  0  0  0  0  0  0  0  0  0  0
  148.1297  130.6957  151.6205 H   0  0  0  0  0  0  0  0  0  0  0  0
  1  2  1  0  0  0  0
  1 22  1  0  0  0  0
  1 23  1  0  0  0  0
  1 24  1  0  0  0  0
  2  3  1  0  0  0  0
  2 25  1  0  0  0  0
  2 26  1  0  0  0  0
  3 21  1  0  0  0  0
  3  4  1  0  0  0  0
  3 48  1  0  0  0  0
  4  5  1  0  0  0  0
  4 27  1  0  0  0  0
  4 28  1  0  0  0  0
  5  6  1  0  0  0  0
  5 29  1  0  0  0  0
  5 30  1  0  0  0  0
  6  7  1  0  0  0  0
  6 20  1  0  0  0  0
  7  8  1  0  0  0  0
  7 31  1  0  0  0  0
  7 32  1  0  0  0  0
  8  9  1  0  0  0  0
  8 33  1  0  0  0  0
  8 34  1  0  0  0  0
  9 10  1  0  0  0  0
  9 35  1  0  0  0  0
 10 11  2  0  0  0  0
 10 12  1  0  0  0  0
 12 13  1  0  0  0  0
 12 36  1  0  0  0  0
 13 18  1  0  0  0  0
 13 14  2  0  0  0  0
 14 15  1  0  0  0  0
 14 37  1  0  0  0  0
 15 16  1  0  0  0  0
 15 17  2  0  0  0  0
 16 38  1  0  0  0  0
 16 39  1  0  0  0  0
 16 40  1  0  0  0  0
 17 18  1  0  0  0  0
 18 19  1  0  0  0  0
 19 41  1  0  0  0  0
 19 42  1  0  0  0  0
 19 43  1  0  0  0  0
 20 21  1  0  0  0  0
 20 44  1  0  0  0  0
 20 45  1  0  0  0  0
 21 46  1  0  0  0  0
 21 47  1  0  0  0  0
M  CHG  1   3   1
M  END
> <s_m_source_file>
AV-unprocessed.smi

> <i_m_source_file_index>
1514

> <i_lp_mmshare_version>
43012

> <i_f3d_flags>
0

> <s_epik_input>
W0NIM11bQ0gyXU4xW0NIMl1bQ0gyXU4oW0NIMl1bQ0gyXTEpW0NIMl1bQ0gyXVtOSF1DKD1PKVtOSF1jMltjSF1jKFtDSDNdKW5uMltDSDNd

> <s_epik_cmdline>
J2VwaWtfcHl0aG9uJywgJy1waCcsICc3LjAnLCAnLXRuJywgJzgnLCAnLW1hJywgJzIwMCcsICctbWV0YWxfYmluZGluZycsICctaW1hZScsICc8aW5maWxlLm1hZT4nLCAnLW9tYWUnLCAnPG91dGZpbGUubWFlPic=

> <r_lp_tautomer_probability>
1

> <r_epik_Ionization_Penalty>
0.0527919

> <r_epik_Ionization_Penalty_Charging>
0.052373

> <r_epik_Ionization_Penalty_Neutral>
0.000418955

> <r_epik_State_Penalty>
0.130843

> <r_epik_Charging_Adjusted_Penalty>
0.183216

> <i_epik_Tot_Q>
1

> <i_epik_Tot_abs_Q>
1

> <r_epik_Metal_State_Penalty>
0.130841

> <b_epik_Metal_Only>
0

> <s_lp_Force_Field>
OPLS_2005

> <r_lp_Energy>
24.8956

> <b_lp_Chiralities_Consistent>
1

> <s_lp_Variant>
AV-unprocessed.smi:1514-1

> <Gold.Version>
5.8.1

> <Gold.Id.Protein>
6NUR|6NUR_protein|mol2

> <Gold.PLP.Fitness>
42.9296

> <Gold.PLP.PLP>
-33.0877

> <Gold.PLP.part.hbond>
-4.0000

> <Gold.PLP.part.metal>
0.0000

> <Gold.PLP.part.buried>
-0.6317

> <Gold.PLP.part.nonpolar>
-29.0303

> <Gold.PLP.part.repulsive>
0.2364

> <Gold.PLP.ligand.clash>
0.0000

> <Gold.PLP.ligand.torsion>
1.0872

> <Gold.PLP.Chemscore.Hbond>
3.9920

> <Gold.PLP.Chemscore.CHOScore>
0.0000

> <Gold.PLP.Chemscore.Metal>
0.0000

> <Gold.Chemscore.Hbonds>
donor molecule, donor type, donor heavy atom, donor atom, acceptor molecule, acceptor atom, score
      L1  H     3    48       P1 10747  1.00
      L1  H     9    35       P1  7948  0.98
      L1  H    12    36       P1  7948  1.00
      P1  H  7989  7998       L1    17  1.00

> <Gold.PLP.Chemscore.Internal.Correction>
0.0403

> <Gold.Rescore>
     Score         DG    S(hbond)    S(metal)    S(lipo)     H(rot)  DE(clash)    DE(int)     intcor
     19.19     -21.81       3.42        0.00      78.90       1.69       1.52       1.09       ----

> <Gold.Chemscore.Fitness>
19.1872

> <Gold.Chemscore.DG>
-21.8066

> <Gold.Chemscore.ZeroCoef>
-5.4800

> <Gold.Chemscore.Hbond>
3.4207

> <Gold.Chemscore.Metal>
0.0000

> <Gold.Chemscore.Lipo>
78.9006

> <Gold.Chemscore.Internal_Hbond>
0.0000

> <Gold.Chemscore.DEClash>
1.5246

> <Gold.Chemscore.DEInternal>
1.0948

> <Gold.Chemscore.Rot>
1.6914

> <Gold.Chemscore.Internal.Correction>
   9.000000E+99

> <Gold.Chemscore.Hbonds>
donor molecule, donor type, donor heavy atom, donor atom, acceptor molecule, acceptor atom, score
      L1  H     3    48       P1 10747  0.98
      L1  H     9    35       P1  7948  0.93
      L1  H    12    36       P1  7948  0.99
      P1  H  7989  7998       L1    17  0.17

> <Gold.Chemscore.Hbond.Weighted>
-11.4251

> <Gold.Chemscore.Metal.Weighted>
-0.0000

> <Gold.Chemscore.Lipo.Weighted>
-9.2314

> <Gold.Chemscore.Internal_Hbond.Weighted>
0.0000

> <Gold.Chemscore.DEClash.Weighted>
1.5246

> <Gold.Chemscore.DEInternal.Weighted>
1.0948

> <Gold.Chemscore.Rot.Weighted>
4.3299

> <Gold.Chemscore.Internal.Correction.Weighted>
   9.000000E+99

> <Gold.Protein.RotatedTorsions>
[ 6907 6896 6895 6894 ] final   39.73 input  -60.11 | X-H torsion
[ 7974 7965 7964 7962 ] final  -41.20 input  175.53 | X-H torsion
[ 8008 7997 7996 7995 ] final   72.81 input   59.86 | X-H torsion
[ 10167 10162 10161 10158 ] final   49.92 input  -65.29 | X-H torsion
[ 10718 10713 10712 10709 ] final   55.96 input   66.30 | X-H torsion
[ 10763 10752 10751 10750 ] final -111.10 input  -60.55 | X-H torsion
[ 11005 11000 10999 10996 ] final -173.19 input  -57.11 | X-H torsion

> <Gold.Protein.ActiveResidues>
 VAL166  LYS551  ARG553  GLY616  TRP617  ASP618  TYR619  PRO620  LYS621  CYS622 
 ASP623  PHE694  ASN695  SER759  ASP760  ASP761  ALA762  ILE779  LEU786  VAL792 
 PHE793  MET794  SER795  GLU796  ALA797  LYS798  CYS799  TRP800  GLU811  SER814 

> <Gold.Protein.RotatedAtoms>
  152.1733  134.8816  160.0532 H   0  0  0  0  0  0  0  0  0  0  0  0  # atno 6907 bound_to 6896
  151.9767  133.3739  159.4100 H   0  0  0  0  0  0  0  0  0  0  0  0  # atno 6908 bound_to 6896
  150.6905  134.4005  159.5160 H   0  0  0  0  0  0  0  0  0  0  0  0  # atno 6909 bound_to 6896
  146.0233  140.6822  142.9167 H   0  0  0  0  0  0  0  0  0  0  0  0  # atno 7974 bound_to 7965
  155.7744  140.3483  155.5264 H   0  0  0  0  0  0  0  0  0  0  0  0  # atno 8008 bound_to 7997
  155.8790  140.0999  157.1519 H   0  0  0  0  0  0  0  0  0  0  0  0  # atno 8009 bound_to 7997
  154.4023  140.1326  156.4160 H   0  0  0  0  0  0  0  0  0  0  0  0  # atno 8010 bound_to 7997
  140.2779  144.3191  150.6272 H   0  0  0  0  0  0  0  0  0  0  0  0  # atno 10167 bound_to 10162
  157.5390  130.8683  149.8794 H   0  0  0  0  0  0  0  0  0  0  0  0  # atno 10718 bound_to 10713
  154.8283  135.4539  154.0988 H   0  0  0  0  0  0  0  0  0  0  0  0  # atno 10763 bound_to 10752
  153.2283  135.6902  153.7926 H   0  0  0  0  0  0  0  0  0  0  0  0  # atno 10764 bound_to 10752
  153.7318  135.3326  155.3263 H   0  0  0  0  0  0  0  0  0  0  0  0  # atno 10765 bound_to 10752
  140.4886  134.6007  157.4946 H   0  0  0  0  0  0  0  0  0  0  0  0  # atno 11005 bound_to 11000
  144.6999  140.3605  143.7164 LP  0  0  0  0  0  0  0  0  0  0  0  0  # atno 17320 bound_to 7965
  145.7158  139.1696  143.2513 LP  0  0  0  0  0  0  0  0  0  0  0  0  # atno 17321 bound_to 7965
  140.5836  143.2171  151.7383 LP  0  0  0  0  0  0  0  0  0  0  0  0  # atno 17342 bound_to 10162
  139.4971  144.4044  152.0148 LP  0  0  0  0  0  0  0  0  0  0  0  0  # atno 17343 bound_to 10162
  156.0481  130.3723  150.1267 LP  0  0  0  0  0  0  0  0  0  0  0  0  # atno 17370 bound_to 10713
  156.9448  130.9756  151.3509 LP  0  0  0  0  0  0  0  0  0  0  0  0  # atno 17371 bound_to 10713
  139.9783  134.7179  155.9908 LP  0  0  0  0  0  0  0  0  0  0  0  0  # atno 17394 bound_to 11000
  141.1496  133.6550  156.3971 LP  0  0  0  0  0  0  0  0  0  0  0  0  # atno 17395 bound_to 11000

$$$$
