AV-unprocessed.smi:453|AV-procd|sdf|2611|dock5
  -GOLD-   2262023 13D 1   1.00000     0.00000
 Structure written by MMmdl.
 43 44  0  0  0  0  0  0  0  0  1 V2000
  146.0390  142.9886  155.5821 C   0  0  0  0  0  0  0  0  0  0  0  0
  146.6554  143.0453  154.1720 C   0  0  0  0  0  0  0  0  0  0  0  0
  145.7912  143.9168  153.2476 C   0  0  0  0  0  0  0  0  0  0  0  0
  146.8807  141.6496  153.5460 C   0  0  0  0  0  0  0  0  0  0  0  0
  147.8306  140.7575  154.3518 C   0  0  0  0  0  0  0  0  0  0  0  0
  147.4888  140.3213  155.4508 O   0  0  0  0  0  0  0  0  0  0  0  0
  149.0122  140.4753  153.7819 N   0  0  0  0  0  0  0  0  0  0  0  0
  150.0516  139.6413  154.3773 C   0  0  0  0  0  0  0  0  0  0  0  0
  150.6964  140.2221  155.6288 C   0  0  0  0  0  0  0  0  0  0  0  0
  151.2163  139.3622  156.6157 C   0  0  0  0  0  0  0  0  0  0  0  0
  151.7934  139.9159  157.7742 C   0  0  0  0  0  0  0  0  0  0  0  0
  151.8322  141.3227  157.9216 C   0  0  0  0  0  0  0  0  0  0  0  0
  152.4005  141.8998  159.0781 N   0  0  0  0  0  0  0  0  0  0  0  0
  151.6707  142.9850  159.7316 C   0  0  0  0  0  0  0  0  0  0  0  0
  152.5585  143.6708  160.7835 C   0  0  0  0  0  0  0  0  0  0  0  0
  153.0431  142.7016  161.7069 O   0  0  0  0  0  0  0  0  0  0  0  0
  153.8438  141.7142  161.0660 C   0  0  0  0  0  0  0  0  0  0  0  0
  153.0046  140.9602  160.0198 C   0  0  0  0  0  0  0  0  0  0  0  0
  151.3332  142.1485  156.9688 N   0  0  0  0  0  0  0  0  0  0  0  0
  150.7804  141.6123  155.8605 C   0  0  0  0  0  0  0  0  0  0  0  0
  145.0842  142.4617  155.5756 H   0  0  0  0  0  0  0  0  0  0  0  0
  145.8611  143.9915  155.9710 H   0  0  0  0  0  0  0  0  0  0  0  0
  146.6944  142.4850  156.2924 H   0  0  0  0  0  0  0  0  0  0  0  0
  147.6257  143.5370  154.2577 H   0  0  0  0  0  0  0  0  0  0  0  0
  144.7973  143.4881  153.1145 H   0  0  0  0  0  0  0  0  0  0  0  0
  146.2454  144.0167  152.2615 H   0  0  0  0  0  0  0  0  0  0  0  0
  145.6687  144.9213  153.6540 H   0  0  0  0  0  0  0  0  0  0  0  0
  145.9261  141.1329  153.4362 H   0  0  0  0  0  0  0  0  0  0  0  0
  147.2796  141.7577  152.5360 H   0  0  0  0  0  0  0  0  0  0  0  0
  149.2075  140.8707  152.8734 H   0  0  0  0  0  0  0  0  0  0  0  0
  149.6036  138.6831  154.6411 H   0  0  0  0  0  0  0  0  0  0  0  0
  150.8215  139.4252  153.6343 H   0  0  0  0  0  0  0  0  0  0  0  0
  151.1772  138.2903  156.4881 H   0  0  0  0  0  0  0  0  0  0  0  0
  152.2078  139.2597  158.5249 H   0  0  0  0  0  0  0  0  0  0  0  0
  151.3496  143.7219  158.9943 H   0  0  0  0  0  0  0  0  0  0  0  0
  150.7736  142.5837  160.2053 H   0  0  0  0  0  0  0  0  0  0  0  0
  153.3943  144.1880  160.3096 H   0  0  0  0  0  0  0  0  0  0  0  0
  151.9850  144.4227  161.3257 H   0  0  0  0  0  0  0  0  0  0  0  0
  154.7147  142.1810  160.6028 H   0  0  0  0  0  0  0  0  0  0  0  0
  154.2182  141.0190  161.8175 H   0  0  0  0  0  0  0  0  0  0  0  0
  152.2101  140.3992  160.5140 H   0  0  0  0  0  0  0  0  0  0  0  0
  153.6388  140.2326  159.5154 H   0  0  0  0  0  0  0  0  0  0  0  0
  150.3902  142.3215  155.1457 H   0  0  0  0  0  0  0  0  0  0  0  0
  1  2  1  0  0  0  0
  1 21  1  0  0  0  0
  1 22  1  0  0  0  0
  1 23  1  0  0  0  0
  2  3  1  0  0  0  0
  2  4  1  0  0  0  0
  2 24  1  0  0  0  0
  3 25  1  0  0  0  0
  3 26  1  0  0  0  0
  3 27  1  0  0  0  0
  4  5  1  0  0  0  0
  4 28  1  0  0  0  0
  4 29  1  0  0  0  0
  5  6  2  0  0  0  0
  5  7  1  0  0  0  0
  7  8  1  0  0  0  0
  7 30  1  0  0  0  0
  8  9  1  0  0  0  0
  8 31  1  0  0  0  0
  8 32  1  0  0  0  0
  9 20  1  0  0  0  0
  9 10  2  0  0  0  0
 10 11  1  0  0  0  0
 10 33  1  0  0  0  0
 11 12  2  0  0  0  0
 11 34  1  0  0  0  0
 12 13  1  0  0  0  0
 12 19  1  0  0  0  0
 13 18  1  0  0  0  0
 13 14  1  0  0  0  0
 14 15  1  0  0  0  0
 14 35  1  0  0  0  0
 14 36  1  0  0  0  0
 15 16  1  0  0  0  0
 15 37  1  0  0  0  0
 15 38  1  0  0  0  0
 16 17  1  0  0  0  0
 17 18  1  0  0  0  0
 17 39  1  0  0  0  0
 17 40  1  0  0  0  0
 18 41  1  0  0  0  0
 18 42  1  0  0  0  0
 19 20  2  0  0  0  0
 20 43  1  0  0  0  0
M  END
> <s_m_source_file>
AV-unprocessed.smi

> <i_m_source_file_index>
453

> <i_lp_mmshare_version>
43012

> <i_f3d_flags>
0

> <s_epik_input>
W0NIM11bQ0hdKFtDSDNdKVtDSDJdQyg9TylbTkhdW0NIMl1jMVtjSF1bY0hdYyhuW2NIXTEpTjJbQ0gyXVtDSDJdT1tDSDJdW0NIMl0y

> <s_epik_cmdline>
J2VwaWtfcHl0aG9uJywgJy1waCcsICc3LjAnLCAnLXRuJywgJzgnLCAnLW1hJywgJzIwMCcsICctbWV0YWxfYmluZGluZycsICctaW1hZScsICc8aW5maWxlLm1hZT4nLCAnLW9tYWUnLCAnPG91dGZpbGUubWFlPic=

> <r_lp_tautomer_probability>
1

> <r_epik_Ionization_Penalty>
0.00505548

> <r_epik_Ionization_Penalty_Charging>
0

> <r_epik_Ionization_Penalty_Neutral>
0.00505548

> <r_epik_State_Penalty>
0.00367784

> <r_epik_Charging_Adjusted_Penalty>
0.00367784

> <i_epik_Tot_Q>
0

> <i_epik_Tot_abs_Q>
0

> <r_epik_Metal_State_Penalty>
-0

> <b_epik_Metal_Only>
0

> <s_lp_Force_Field>
OPLS_2005

> <r_lp_Energy>
17.3119

> <b_lp_Chiralities_Consistent>
1

> <s_lp_Variant>
AV-unprocessed.smi:453-1

> <Gold.Version>
5.8.1

> <Gold.Id.Protein>
6NUR|6NUR_protein|mol2

> <Gold.PLP.Fitness>
42.3757

> <Gold.PLP.PLP>
-40.5027

> <Gold.PLP.part.hbond>
-1.0000

> <Gold.PLP.part.metal>
0.0000

> <Gold.PLP.part.buried>
-5.1889

> <Gold.PLP.part.nonpolar>
-33.4571

> <Gold.PLP.part.repulsive>
0.2978

> <Gold.PLP.ligand.clash>
0.0000

> <Gold.PLP.ligand.torsion>
0.6610

> <Gold.PLP.Chemscore.Hbond>
0.6560

> <Gold.PLP.Chemscore.CHOScore>
0.2943

> <Gold.PLP.Chemscore.Metal>
0.0000

> <Gold.Chemscore.Hbonds>
donor molecule, donor type, donor heavy atom, donor atom, acceptor molecule, acceptor atom, score
      L1  H     7    30       P1  7957  0.66
      L1  C    20    43       P1  8028  0.15

> <Gold.PLP.Chemscore.Internal.Correction>
0.3440

> <Gold.Rescore>
     Score         DG    S(hbond)    S(metal)    S(lipo)     H(rot)  DE(clash)    DE(int)     intcor
     14.29     -15.46       0.99        0.00      93.21       1.65       0.28       0.88       ----

> <Gold.Chemscore.Fitness>
14.2922

> <Gold.Chemscore.DG>
-15.4551

> <Gold.Chemscore.ZeroCoef>
-5.4800

> <Gold.Chemscore.Hbond>
0.9850

> <Gold.Chemscore.Metal>
0.0000

> <Gold.Chemscore.Lipo>
93.2133

> <Gold.Chemscore.Internal_Hbond>
0.0000

> <Gold.Chemscore.DEClash>
0.2807

> <Gold.Chemscore.DEInternal>
0.8823

> <Gold.Chemscore.Rot>
1.6488

> <Gold.Chemscore.Internal.Correction>
   9.000000E+99

> <Gold.Chemscore.Hbonds>
donor molecule, donor type, donor heavy atom, donor atom, acceptor molecule, acceptor atom, score
      L1  H     7    30       P1  7957  0.65

> <Gold.Chemscore.Hbond.Weighted>
-3.2900

> <Gold.Chemscore.Metal.Weighted>
-0.0000

> <Gold.Chemscore.Lipo.Weighted>
-10.9060

> <Gold.Chemscore.Internal_Hbond.Weighted>
0.0000

> <Gold.Chemscore.DEClash.Weighted>
0.2807

> <Gold.Chemscore.DEInternal.Weighted>
0.8823

> <Gold.Chemscore.Rot.Weighted>
4.2208

> <Gold.Chemscore.Internal.Correction.Weighted>
   9.000000E+99

> <Gold.Protein.RotatedTorsions>
[ 6907 6896 6895 6894 ] final   70.73 input  -60.11 | X-H torsion
[ 7974 7965 7964 7962 ] final  135.44 input  175.53 | X-H torsion
[ 8008 7997 7996 7995 ] final -154.33 input   59.86 | X-H torsion
[ 10167 10162 10161 10158 ] final  -44.03 input  -65.29 | X-H torsion
[ 10718 10713 10712 10709 ] final -159.86 input   66.30 | X-H torsion
[ 10763 10752 10751 10750 ] final -156.66 input  -60.55 | X-H torsion
[ 11005 11000 10999 10996 ] final  147.62 input  -57.11 | X-H torsion

> <Gold.Protein.ActiveResidues>
 VAL166  LYS551  ARG553  GLY616  TRP617  ASP618  TYR619  PRO620  LYS621  CYS622 
 ASP623  PHE694  ASN695  SER759  ASP760  ASP761  ALA762  ILE779  LEU786  VAL792 
 PHE793  MET794  SER795  GLU796  ALA797  LYS798  CYS799  TRP800  GLU811  SER814 

> <Gold.Protein.RotatedAtoms>
  152.4767  134.4824  159.9669 H   0  0  0  0  0  0  0  0  0  0  0  0  # atno 6907 bound_to 6896
  151.4839  133.3534  159.2850 H   0  0  0  0  0  0  0  0  0  0  0  0  # atno 6908 bound_to 6896
  150.8811  134.8229  159.7287 H   0  0  0  0  0  0  0  0  0  0  0  0  # atno 6909 bound_to 6896
  144.9663  139.4654  143.5455 H   0  0  0  0  0  0  0  0  0  0  0  0  # atno 7974 bound_to 7965
  155.6847  140.0748  157.2471 H   0  0  0  0  0  0  0  0  0  0  0  0  # atno 8008 bound_to 7997
  154.4099  140.1675  156.2073 H   0  0  0  0  0  0  0  0  0  0  0  0  # atno 8009 bound_to 7997
  155.9504  140.3378  155.6406 H   0  0  0  0  0  0  0  0  0  0  0  0  # atno 8010 bound_to 7997
  140.6912  143.2951  151.3436 H   0  0  0  0  0  0  0  0  0  0  0  0  # atno 10167 bound_to 10162
  156.5740  130.8701  151.2846 H   0  0  0  0  0  0  0  0  0  0  0  0  # atno 10718 bound_to 10713
  154.7696  135.3141  154.8216 H   0  0  0  0  0  0  0  0  0  0  0  0  # atno 10763 bound_to 10752
  153.8955  135.6821  153.4762 H   0  0  0  0  0  0  0  0  0  0  0  0  # atno 10764 bound_to 10752
  153.1307  135.4781  154.9279 H   0  0  0  0  0  0  0  0  0  0  0  0  # atno 10765 bound_to 10752
  140.0891  134.9052  157.1622 H   0  0  0  0  0  0  0  0  0  0  0  0  # atno 11005 bound_to 11000
  146.3369  139.8846  142.8819 LP  0  0  0  0  0  0  0  0  0  0  0  0  # atno 17320 bound_to 7965
  145.2625  141.0082  143.3818 LP  0  0  0  0  0  0  0  0  0  0  0  0  # atno 17321 bound_to 7965
  139.6317  144.0708  152.2482 LP  0  0  0  0  0  0  0  0  0  0  0  0  # atno 17342 bound_to 10162
  140.0185  144.6171  150.7587 LP  0  0  0  0  0  0  0  0  0  0  0  0  # atno 17343 bound_to 10162
  157.7342  130.9742  150.2015 LP  0  0  0  0  0  0  0  0  0  0  0  0  # atno 17370 bound_to 10713
  156.2689  130.3719  149.8052 LP  0  0  0  0  0  0  0  0  0  0  0  0  # atno 17371 bound_to 10713
  140.3378  134.2738  155.7217 LP  0  0  0  0  0  0  0  0  0  0  0  0  # atno 17394 bound_to 11000
  141.2072  133.7812  157.0133 LP  0  0  0  0  0  0  0  0  0  0  0  0  # atno 17395 bound_to 11000

$$$$
