AV-unprocessed.smi:2887|AV-procd|sdf|11099|dock8
  -GOLD-   2272015563D 1   1.00000     0.00000
 Structure written by MMmdl.
 38 39  0  0  0  0  0  0  0  0  3 V2000
  146.9810  134.5800  155.6257 O   0  0  0  0  0  0  0  0  0  0  0  0
  148.1362  134.3015  155.3068 C   0  0  0  0  0  0  0  0  0  0  0  0
  149.2971  134.9871  156.0450 C   0  0  0  0  0  0  0  0  0  0  0  0
  149.6150  136.3293  155.5599 N   0  0  0  0  0  0  0  0  0  0  0  0
  148.6296  137.1752  155.0615 C   0  0  0  0  0  0  0  0  0  0  0  0
  148.8536  138.4439  154.6714 C   0  0  0  0  0  0  0  0  0  0  0  0
  150.2168  139.0038  154.7694 C   0  0  0  0  0  0  0  0  0  0  0  0
  150.4396  140.1677  154.4401 O   0  0  0  0  0  0  0  0  0  0  0  0
  151.2828  138.0996  155.2931 C   0  0  0  0  0  0  0  0  0  0  0  0
  152.6788  138.4597  155.4420 N   0  3  0  0  0  0  0  0  0  0  0  0
  153.4465  137.6688  155.9824 O   0  0  0  0  0  0  0  0  0  0  0  0
  153.0563  139.5475  155.0192 O   0  5  0  0  0  0  0  0  0  0  0  0
  150.9083  136.8442  155.6479 C   0  0  0  0  0  0  0  0  0  0  0  0
  148.4362  133.4351  154.3235 N   0  0  0  0  0  0  0  0  0  0  0  0
  147.4814  132.7651  153.4455 C   0  0  0  0  0  0  0  0  0  0  0  0
  146.6366  133.7869  152.6641 C   0  0  0  0  0  0  0  0  0  0  0  0
  145.7570  133.1552  151.5999 C   0  0  0  0  0  0  0  0  0  0  0  0
  146.1691  132.5441  150.4903 C   0  0  0  0  0  0  0  0  0  0  0  0
  145.0293  132.0398  149.6490 C   0  0  0  0  0  0  0  0  0  0  0  0
  143.7684  132.4533  150.4404 C   0  0  0  0  0  0  0  0  0  0  0  0
  144.2551  133.1702  151.7199 C   0  0  0  0  0  0  0  0  0  0  0  0
  149.0534  135.0362  157.1074 H   0  0  0  0  0  0  0  0  0  0  0  0
  150.1789  134.3492  155.9691 H   0  0  0  0  0  0  0  0  0  0  0  0
  147.6458  136.7322  155.0077 H   0  0  0  0  0  0  0  0  0  0  0  0
  148.0559  139.0645  154.2901 H   0  0  0  0  0  0  0  0  0  0  0  0
  151.6201  136.1270  156.0319 H   0  0  0  0  0  0  0  0  0  0  0  0
  149.4138  133.2632  154.1380 H   0  0  0  0  0  0  0  0  0  0  0  0
  148.0384  132.1393  152.7480 H   0  0  0  0  0  0  0  0  0  0  0  0
  146.8275  132.0917  154.0017 H   0  0  0  0  0  0  0  0  0  0  0  0
  146.0007  134.3370  153.3593 H   0  0  0  0  0  0  0  0  0  0  0  0
  147.2862  134.5238  152.1907 H   0  0  0  0  0  0  0  0  0  0  0  0
  147.2002  132.4150  150.1956 H   0  0  0  0  0  0  0  0  0  0  0  0
  145.0552  132.5015  148.6617 H   0  0  0  0  0  0  0  0  0  0  0  0
  145.0974  130.9580  149.5310 H   0  0  0  0  0  0  0  0  0  0  0  0
  143.1429  133.1180  149.8434 H   0  0  0  0  0  0  0  0  0  0  0  0
  143.1649  131.5802  150.6914 H   0  0  0  0  0  0  0  0  0  0  0  0
  143.9431  132.6424  152.6215 H   0  0  0  0  0  0  0  0  0  0  0  0
  143.8821  134.1934  151.7698 H   0  0  0  0  0  0  0  0  0  0  0  0
  1  2  2  0  0  0  0
  2  3  1  0  0  0  0
  2 14  1  0  0  0  0
  3  4  1  0  0  0  0
  3 22  1  0  0  0  0
  3 23  1  0  0  0  0
  4 13  1  0  0  0  0
  4  5  1  0  0  0  0
  5  6  2  0  0  0  0
  5 24  1  0  0  0  0
  6  7  1  0  0  0  0
  6 25  1  0  0  0  0
  7  8  2  0  0  0  0
  7  9  1  0  0  0  0
  9 10  1  0  0  0  0
  9 13  2  0  0  0  0
 10 11  2  0  0  0  0
 10 12  1  0  0  0  0
 13 26  1  0  0  0  0
 14 15  1  0  0  0  0
 14 27  1  0  0  0  0
 15 16  1  0  0  0  0
 15 28  1  0  0  0  0
 15 29  1  0  0  0  0
 16 17  1  0  0  0  0
 16 30  1  0  0  0  0
 16 31  1  0  0  0  0
 17 21  1  0  0  0  0
 17 18  2  0  0  0  0
 18 19  1  0  0  0  0
 18 32  1  0  0  0  0
 19 20  1  0  0  0  0
 19 33  1  0  0  0  0
 19 34  1  0  0  0  0
 20 21  1  0  0  0  0
 20 35  1  0  0  0  0
 20 36  1  0  0  0  0
 21 37  1  0  0  0  0
 21 38  1  0  0  0  0
M  CHG  1  10   1
M  CHG  1  12  -1
M  END
> <s_m_source_file>
AV-unprocessed.smi

> <i_m_source_file_index>
2887

> <i_lp_mmshare_version>
43012

> <i_f3d_flags>
0

> <s_epik_input>
W0NIMl0xW0NIMl1bQ0gyXVtDSF09QzFbQ0gyXVtDSDJdW05IXUMoPU8pW0NIMl1uMltjSF1bY0hdYyg9TyljKFtOK10oPU8pW08tXSlbY0hdMg==

> <s_epik_cmdline>
J2VwaWtfcHl0aG9uJywgJy1waCcsICc3LjAnLCAnLXRuJywgJzgnLCAnLW1hJywgJzIwMCcsICctbWV0YWxfYmluZGluZycsICctaW1hZScsICc8aW5maWxlLm1hZT4nLCAnLW9tYWUnLCAnPG91dGZpbGUubWFlPic=

> <r_lp_tautomer_probability>
1

> <r_epik_Ionization_Penalty>
2.85916e-08

> <r_epik_Ionization_Penalty_Charging>
1.01785e-08

> <r_epik_Ionization_Penalty_Neutral>
1.84131e-08

> <r_epik_State_Penalty>
-0

> <r_epik_Charging_Adjusted_Penalty>
1.01785e-08

> <i_epik_Tot_Q>
0

> <i_epik_Tot_abs_Q>
2

> <r_epik_Metal_State_Penalty>
-0

> <b_epik_Metal_Only>
0

> <s_lp_Force_Field>
OPLS_2005

> <r_lp_Energy>
18.7972

> <b_lp_Chiralities_Consistent>
1

> <s_lp_Variant>
AV-unprocessed.smi:2887-1

> <Gold.Version>
5.8.1

> <Gold.Id.Protein>
6NUR|6NUR_protein|mol2

> <Gold.PLP.Fitness>
43.6523

> <Gold.PLP.PLP>
-39.1471

> <Gold.PLP.part.hbond>
-4.0000

> <Gold.PLP.part.metal>
0.0000

> <Gold.PLP.part.buried>
-4.7839

> <Gold.PLP.part.nonpolar>
-31.1048

> <Gold.PLP.part.repulsive>
0.1487

> <Gold.PLP.ligand.clash>
0.0000

> <Gold.PLP.ligand.torsion>
0.7643

> <Gold.PLP.Chemscore.Hbond>
2.0000

> <Gold.PLP.Chemscore.CHOScore>
0.0000

> <Gold.PLP.Chemscore.Metal>
0.0000

> <Gold.Chemscore.Hbonds>
donor molecule, donor type, donor heavy atom, donor atom, acceptor molecule, acceptor atom, score
      P1  H  7989  7998       L1     8  1.00
      P1  H  7997  8010       L1    12  1.00

> <Gold.PLP.Chemscore.Internal.Correction>
0.0339

> <Gold.Rescore>
     Score         DG    S(hbond)    S(metal)    S(lipo)     H(rot)  DE(clash)    DE(int)     intcor
     15.70     -17.98       2.47        0.00      79.96       2.00       0.04       2.24       ----

> <Gold.Chemscore.Fitness>
15.6994

> <Gold.Chemscore.DG>
-17.9841

> <Gold.Chemscore.ZeroCoef>
-5.4800

> <Gold.Chemscore.Hbond>
2.4748

> <Gold.Chemscore.Metal>
0.0000

> <Gold.Chemscore.Lipo>
79.9646

> <Gold.Chemscore.Internal_Hbond>
0.0000

> <Gold.Chemscore.DEClash>
0.0428

> <Gold.Chemscore.DEInternal>
2.2419

> <Gold.Chemscore.Rot>
1.9991

> <Gold.Chemscore.Internal.Correction>
   9.000000E+99

> <Gold.Chemscore.Hbonds>
donor molecule, donor type, donor heavy atom, donor atom, acceptor molecule, acceptor atom, score
      P1  H  7989  7998       L1     8  0.99
      P1  H  7997  8010       L1    12  0.85
      P1  H 10752 10765       L1    11  0.01

> <Gold.Chemscore.Hbond.Weighted>
-8.2660

> <Gold.Chemscore.Metal.Weighted>
-0.0000

> <Gold.Chemscore.Lipo.Weighted>
-9.3559

> <Gold.Chemscore.Internal_Hbond.Weighted>
0.0000

> <Gold.Chemscore.DEClash.Weighted>
0.0428

> <Gold.Chemscore.DEInternal.Weighted>
2.2419

> <Gold.Chemscore.Rot.Weighted>
5.1177

> <Gold.Chemscore.Internal.Correction.Weighted>
   9.000000E+99

> <Gold.Protein.RotatedTorsions>
[ 6907 6896 6895 6894 ] final   29.83 input  -60.11 | X-H torsion
[ 7974 7965 7964 7962 ] final    2.24 input  175.53 | X-H torsion
[ 8008 7997 7996 7995 ] final  101.94 input   59.86 | X-H torsion
[ 10167 10162 10161 10158 ] final -154.83 input  -65.29 | X-H torsion
[ 10718 10713 10712 10709 ] final    4.92 input   66.30 | X-H torsion
[ 10763 10752 10751 10750 ] final  -96.26 input  -60.55 | X-H torsion
[ 11005 11000 10999 10996 ] final   72.96 input  -57.11 | X-H torsion

> <Gold.Protein.ActiveResidues>
 VAL166  LYS551  ARG553  GLY616  TRP617  ASP618  TYR619  PRO620  LYS621  CYS622 
 ASP623  PHE694  ASN695  SER759  ASP760  ASP761  ALA762  ILE779  LEU786  VAL792 
 PHE793  MET794  SER795  GLU796  ALA797  LYS798  CYS799  TRP800  GLU811  SER814 

> <Gold.Protein.RotatedAtoms>
  152.0372  134.9733  160.0573 H   0  0  0  0  0  0  0  0  0  0  0  0  # atno 6907 bound_to 6896
  152.1185  133.4335  159.4673 H   0  0  0  0  0  0  0  0  0  0  0  0  # atno 6908 bound_to 6896
  150.6847  134.2481  159.4543 H   0  0  0  0  0  0  0  0  0  0  0  0  # atno 6909 bound_to 6896
  146.2443  140.0866  142.8354 H   0  0  0  0  0  0  0  0  0  0  0  0  # atno 7974 bound_to 7965
  156.1347  140.3189  155.8402 H   0  0  0  0  0  0  0  0  0  0  0  0  # atno 8008 bound_to 7997
  155.4267  140.0516  157.3039 H   0  0  0  0  0  0  0  0  0  0  0  0  # atno 8009 bound_to 7997
  154.4927  140.2098  155.9526 H   0  0  0  0  0  0  0  0  0  0  0  0  # atno 8010 bound_to 7997
  139.6981  143.9308  152.2416 H   0  0  0  0  0  0  0  0  0  0  0  0  # atno 10167 bound_to 10162
  156.8997  130.5717  149.5648 H   0  0  0  0  0  0  0  0  0  0  0  0  # atno 10718 bound_to 10713
  154.7223  135.5090  153.8831 H   0  0  0  0  0  0  0  0  0  0  0  0  # atno 10763 bound_to 10752
  153.0873  135.6649  153.9932 H   0  0  0  0  0  0  0  0  0  0  0  0  # atno 10764 bound_to 10752
  153.9752  135.3034  155.3404 H   0  0  0  0  0  0  0  0  0  0  0  0  # atno 10765 bound_to 10752
  139.9464  134.7305  156.0969 H   0  0  0  0  0  0  0  0  0  0  0  0  # atno 11005 bound_to 11000
  145.0687  140.9139  143.4895 LP  0  0  0  0  0  0  0  0  0  0  0  0  # atno 17320 bound_to 7965
  145.0996  139.2832  143.5693 LP  0  0  0  0  0  0  0  0  0  0  0  0  # atno 17321 bound_to 7965
  139.9143  144.6838  150.8529 LP  0  0  0  0  0  0  0  0  0  0  0  0  # atno 17342 bound_to 10162
  140.7702  143.3420  151.2187 LP  0  0  0  0  0  0  0  0  0  0  0  0  # atno 17343 bound_to 10162
  156.0588  130.5644  150.9148 LP  0  0  0  0  0  0  0  0  0  0  0  0  # atno 17370 bound_to 10713
  157.6033  131.0940  150.8922 LP  0  0  0  0  0  0  0  0  0  0  0  0  # atno 17371 bound_to 10713
  141.1116  133.6641  156.2992 LP  0  0  0  0  0  0  0  0  0  0  0  0  # atno 17394 bound_to 11000
  140.5824  134.5732  157.5482 LP  0  0  0  0  0  0  0  0  0  0  0  0  # atno 17395 bound_to 11000

$$$$
