AV-unprocessed.smi:252|AV-procd|sdf|1940|dock6
  -GOLD-   2262021 63D 1   1.00000     0.00000
 Structure written by MMmdl.
 56 59  0  0  0  0  0  0  0  0  1 V2000
  153.1271  142.1731  159.9301 C   0  0  0  0  0  0  0  0  0  0  0  0
  153.1316  140.6446  160.0805 C   0  0  0  0  0  0  0  0  0  0  0  0
  153.0088  139.9173  158.7385 C   0  0  0  0  0  0  0  0  0  0  0  0
  153.9164  139.1839  158.3465 O   0  0  0  0  0  0  0  0  0  0  0  0
  151.8777  140.1387  158.0470 N   0  0  0  0  0  0  0  0  0  0  0  0
  151.4993  139.5712  156.7520 C   0  0  2  0  0  0  0  0  0  0  0  0
  150.5935  140.5132  155.9317 C   0  0  0  0  0  0  0  0  0  0  0  0
  150.2757  139.8789  154.5697 C   0  0  0  0  0  0  0  0  0  0  0  0
  149.6670  138.4781  154.7458 C   0  0  0  0  0  0  0  0  0  0  0  0
  150.5359  137.6286  155.5608 N   0  0  0  0  0  0  0  0  0  0  0  0
  150.2804  136.2991  155.4650 C   0  0  0  0  0  0  0  0  0  0  0  0
  151.2315  135.3961  155.8254 N   0  0  0  0  0  0  0  0  0  0  0  0
  150.9817  134.0854  155.7494 C   0  0  0  0  0  0  0  0  0  0  0  0
  149.8687  133.4699  155.3460 N   0  0  0  0  0  0  0  0  0  0  0  0
  148.9130  134.3694  154.9756 C   0  0  0  0  0  0  0  0  0  0  0  0
  149.0362  135.7875  154.9992 C   0  0  0  0  0  0  0  0  0  0  0  0
  147.8645  136.3713  154.5310 N   0  0  0  0  0  0  0  0  0  0  0  0
  147.0893  135.3576  154.2596 C   0  0  0  0  0  0  0  0  0  0  0  0
  147.6347  134.1182  154.5075 N   0  0  0  0  0  0  0  0  0  0  0  0
  146.9913  132.8291  154.3083 C   0  0  0  0  0  0  0  0  0  0  0  0
  146.8032  132.4636  152.8167 C   0  0  1  0  0  0  0  0  0  0  0  0
  148.0213  132.7126  152.1333 O   0  0  0  0  0  0  0  0  0  0  0  0
  146.4052  131.0145  152.5779 C   0  0  0  0  0  0  0  0  0  0  0  0
  145.7295  131.0779  151.2141 C   0  0  0  0  0  0  0  0  0  0  0  0
  145.0480  132.3256  151.2039 O   0  0  0  0  0  0  0  0  0  0  0  0
  145.6352  133.2212  152.1474 C   0  0  2  0  0  0  0  0  0  0  0  0
  145.9748  134.5679  151.4890 C   0  0  0  0  0  0  0  0  0  0  0  0
  150.8717  138.1666  156.8807 C   0  0  0  0  0  0  0  0  0  0  0  0
  153.2467  142.6559  160.9001 H   0  0  0  0  0  0  0  0  0  0  0  0
  152.1913  142.5310  159.4997 H   0  0  0  0  0  0  0  0  0  0  0  0
  153.9434  142.5112  159.2906 H   0  0  0  0  0  0  0  0  0  0  0  0
  154.0481  140.3347  160.5844 H   0  0  0  0  0  0  0  0  0  0  0  0
  152.3042  140.3342  160.7188 H   0  0  0  0  0  0  0  0  0  0  0  0
  151.2042  140.7653  158.4635 H   0  0  0  0  0  0  0  0  0  0  0  0
  152.4355  139.4596  156.2033 H   0  0  0  0  0  0  0  0  0  0  0  0
  149.6591  140.7064  156.4592 H   0  0  0  0  0  0  0  0  0  0  0  0
  151.0789  141.4791  155.7887 H   0  0  0  0  0  0  0  0  0  0  0  0
  149.5902  140.5162  154.0107 H   0  0  0  0  0  0  0  0  0  0  0  0
  151.1880  139.8077  153.9758 H   0  0  0  0  0  0  0  0  0  0  0  0
  148.6962  138.5560  155.2373 H   0  0  0  0  0  0  0  0  0  0  0  0
  149.4835  138.0405  153.7651 H   0  0  0  0  0  0  0  0  0  0  0  0
  151.7883  133.4373  156.0592 H   0  0  0  0  0  0  0  0  0  0  0  0
  146.0883  135.4876  153.8743 H   0  0  0  0  0  0  0  0  0  0  0  0
  147.5976  132.0728  154.8085 H   0  0  0  0  0  0  0  0  0  0  0  0
  146.0288  132.8365  154.8217 H   0  0  0  0  0  0  0  0  0  0  0  0
  148.3582  131.8898  151.8134 H   0  0  0  0  0  0  0  0  0  0  0  0
  147.2426  130.3162  152.6099 H   0  0  0  0  0  0  0  0  0  0  0  0
  145.6754  130.6974  153.3242 H   0  0  0  0  0  0  0  0  0  0  0  0
  146.4743  131.0744  150.4171 H   0  0  0  0  0  0  0  0  0  0  0  0
  145.0463  130.2458  151.0438 H   0  0  0  0  0  0  0  0  0  0  0  0
  144.8613  133.3968  152.8961 H   0  0  0  0  0  0  0  0  0  0  0  0
  146.4320  135.2502  152.2062 H   0  0  0  0  0  0  0  0  0  0  0  0
  145.0740  135.0465  151.1046 H   0  0  0  0  0  0  0  0  0  0  0  0
  146.6621  134.4466  150.6514 H   0  0  0  0  0  0  0  0  0  0  0  0
  151.5737  137.5005  157.3845 H   0  0  0  0  0  0  0  0  0  0  0  0
  149.9660  138.2006  157.4871 H   0  0  0  0  0  0  0  0  0  0  0  0
  1  2  1  0  0  0  0
  1 29  1  0  0  0  0
  1 30  1  0  0  0  0
  1 31  1  0  0  0  0
  2  3  1  0  0  0  0
  2 32  1  0  0  0  0
  2 33  1  0  0  0  0
  3  4  2  0  0  0  0
  3  5  1  0  0  0  0
  5  6  1  0  0  0  0
  5 34  1  0  0  0  0
  6 28  1  0  0  0  0
  6  7  1  0  0  0  0
  6 35  1  0  0  0  0
  7  8  1  0  0  0  0
  7 36  1  0  0  0  0
  7 37  1  0  0  0  0
  8  9  1  0  0  0  0
  8 38  1  0  0  0  0
  8 39  1  0  0  0  0
  9 10  1  0  0  0  0
  9 40  1  0  0  0  0
  9 41  1  0  0  0  0
 10 11  1  0  0  0  0
 10 28  1  0  0  0  0
 11 16  1  0  0  0  0
 11 12  2  0  0  0  0
 12 13  1  0  0  0  0
 13 14  2  0  0  0  0
 13 42  1  0  0  0  0
 14 15  1  0  0  0  0
 15 19  1  0  0  0  0
 15 16  2  0  0  0  0
 16 17  1  0  0  0  0
 17 18  2  0  0  0  0
 18 19  1  0  0  0  0
 18 43  1  0  0  0  0
 19 20  1  0  0  0  0
 20 21  1  0  0  0  0
 20 44  1  0  0  0  0
 20 45  1  0  0  0  0
 21 26  1  0  0  0  0
 21 22  1  0  0  0  0
 21 23  1  0  0  0  0
 22 46  1  0  0  0  0
 23 24  1  0  0  0  0
 23 47  1  0  0  0  0
 23 48  1  0  0  0  0
 24 25  1  0  0  0  0
 24 49  1  0  0  0  0
 24 50  1  0  0  0  0
 25 26  1  0  0  0  0
 26 27  1  0  0  0  0
 26 51  1  0  0  0  0
 27 52  1  0  0  0  0
 27 53  1  0  0  0  0
 27 54  1  0  0  0  0
 28 55  1  0  0  0  0
 28 56  1  0  0  0  0
M  END
> <s_m_source_file>
AV-unprocessed.smi

> <i_m_source_file_index>
252

> <i_lp_mmshare_version>
43012

> <i_f3d_flags>
0

> <s_epik_input>
W0NIM11bQ0gyXUMoPU8pW05IXVtDQEBIXTFbQ0gyXVtDSDJdW0NIMl1OKFtDSDJdMSljKG5bY0hdbjIpYyhjMjMpbltjSF1uM1tDSDJdW0NAQF00KFtPSF0pW0NIMl1bQ0gyXU9bQ0BIXTRbQ0gzXQ==

> <s_epik_cmdline>
J2VwaWtfcHl0aG9uJywgJy1waCcsICc3LjAnLCAnLXRuJywgJzgnLCAnLW1hJywgJzIwMCcsICctbWV0YWxfYmluZGluZycsICctaW1hZScsICc8aW5maWxlLm1hZT4nLCAnLW9tYWUnLCAnPG91dGZpbGUubWFlPic=

> <r_lp_tautomer_probability>
1

> <r_epik_Ionization_Penalty>
0.00182575

> <r_epik_Ionization_Penalty_Charging>
0

> <r_epik_Ionization_Penalty_Neutral>
0.00182575

> <r_epik_State_Penalty>
0.00104524

> <r_epik_Charging_Adjusted_Penalty>
0.00104524

> <i_epik_Tot_Q>
0

> <i_epik_Tot_abs_Q>
0

> <r_epik_Metal_State_Penalty>
-0

> <b_epik_Metal_Only>
0

> <s_lp_Force_Field>
OPLS_2005

> <r_lp_Energy>
36.8902

> <b_lp_Chiralities_Consistent>
1

> <s_lp_Variant>
AV-unprocessed.smi:252-5

> <Gold.Version>
5.8.1

> <Gold.Id.Protein>
6NUR|6NUR_protein|mol2

> <Gold.PLP.Fitness>
42.9338

> <Gold.PLP.PLP>
-35.2298

> <Gold.PLP.part.hbond>
-3.0000

> <Gold.PLP.part.metal>
0.0000

> <Gold.PLP.part.buried>
-4.3435

> <Gold.PLP.part.nonpolar>
-28.3434

> <Gold.PLP.part.repulsive>
1.7090

> <Gold.PLP.ligand.clash>
0.0000

> <Gold.PLP.ligand.torsion>
0.8895

> <Gold.PLP.Chemscore.Hbond>
3.0000

> <Gold.PLP.Chemscore.CHOScore>
0.0000

> <Gold.PLP.Chemscore.Metal>
0.0000

> <Gold.Chemscore.Hbonds>
donor molecule, donor type, donor heavy atom, donor atom, acceptor molecule, acceptor atom, score
      L1  H    22    46       P1 10747  0.94
      P1  H  7997  8009       L1     4  1.00
      P1  H 10752 10764       L1    12  0.96

> <Gold.PLP.Chemscore.Internal.Correction>
0.4831

> <Gold.Rescore>
     Score         DG    S(hbond)    S(metal)    S(lipo)     H(rot)  DE(clash)    DE(int)     intcor
     12.72     -15.50       2.14        0.00      83.72       2.70       0.43       2.36       ----

> <Gold.Chemscore.Fitness>
12.7152

> <Gold.Chemscore.DG>
-15.4979

> <Gold.Chemscore.ZeroCoef>
-5.4800

> <Gold.Chemscore.Hbond>
2.1394

> <Gold.Chemscore.Metal>
0.0000

> <Gold.Chemscore.Lipo>
83.7153

> <Gold.Chemscore.Internal_Hbond>
0.0000

> <Gold.Chemscore.DEClash>
0.4255

> <Gold.Chemscore.DEInternal>
2.3572

> <Gold.Chemscore.Rot>
2.7041

> <Gold.Chemscore.Internal.Correction>
   9.000000E+99

> <Gold.Chemscore.Hbonds>
donor molecule, donor type, donor heavy atom, donor atom, acceptor molecule, acceptor atom, score
      L1  H    22    46       P1 10747  0.90
      P1  H  7997  8009       L1     4  0.78
      P1  H 10752 10764       L1    12  0.23

> <Gold.Chemscore.Hbond.Weighted>
-7.1457

> <Gold.Chemscore.Metal.Weighted>
-0.0000

> <Gold.Chemscore.Lipo.Weighted>
-9.7947

> <Gold.Chemscore.Internal_Hbond.Weighted>
0.0000

> <Gold.Chemscore.DEClash.Weighted>
0.4255

> <Gold.Chemscore.DEInternal.Weighted>
2.3572

> <Gold.Chemscore.Rot.Weighted>
6.9225

> <Gold.Chemscore.Internal.Correction.Weighted>
   9.000000E+99

> <Gold.Protein.RotatedTorsions>
[ 6907 6896 6895 6894 ] final  -17.19 input  -60.11 | X-H torsion
[ 7974 7965 7964 7962 ] final    3.58 input  175.53 | X-H torsion
[ 8008 7997 7996 7995 ] final  127.75 input   59.86 | X-H torsion
[ 10167 10162 10161 10158 ] final  125.67 input  -65.29 | X-H torsion
[ 10718 10713 10712 10709 ] final  113.82 input   66.30 | X-H torsion
[ 10763 10752 10751 10750 ] final  -52.19 input  -60.55 | X-H torsion
[ 11005 11000 10999 10996 ] final -125.65 input  -57.11 | X-H torsion

> <Gold.Protein.ActiveResidues>
 VAL166  LYS551  ARG553  GLY616  TRP617  ASP618  TYR619  PRO620  LYS621  CYS622 
 ASP623  PHE694  ASN695  SER759  ASP760  ASP761  ALA762  ILE779  LEU786  VAL792 
 PHE793  MET794  SER795  GLU796  ALA797  LYS798  CYS799  TRP800  GLU811  SER814 

> <Gold.Protein.RotatedAtoms>
  151.2971  135.0758  159.9224 H   0  0  0  0  0  0  0  0  0  0  0  0  # atno 6907 bound_to 6896
  152.5305  133.9872  159.7844 H   0  0  0  0  0  0  0  0  0  0  0  0  # atno 6908 bound_to 6896
  151.0152  133.5877  159.2708 H   0  0  0  0  0  0  0  0  0  0  0  0  # atno 6909 bound_to 6896
  146.2445  140.0664  142.8365 H   0  0  0  0  0  0  0  0  0  0  0  0  # atno 7974 bound_to 7965
  156.2898  140.2661  156.2324 H   0  0  0  0  0  0  0  0  0  0  0  0  # atno 8008 bound_to 7997
  155.0059  140.0387  157.2398 H   0  0  0  0  0  0  0  0  0  0  0  0  # atno 8009 bound_to 7997
  154.7560  140.2752  155.6258 H   0  0  0  0  0  0  0  0  0  0  0  0  # atno 8010 bound_to 7997
  139.5673  144.6918  151.3875 H   0  0  0  0  0  0  0  0  0  0  0  0  # atno 10167 bound_to 10162
  157.6316  131.0989  150.7097 H   0  0  0  0  0  0  0  0  0  0  0  0  # atno 10718 bound_to 10713
  154.1387  135.6508  153.4937 H   0  0  0  0  0  0  0  0  0  0  0  0  # atno 10763 bound_to 10752
  153.0172  135.5310  154.6927 H   0  0  0  0  0  0  0  0  0  0  0  0  # atno 10764 bound_to 10752
  154.6182  135.2961  155.0327 H   0  0  0  0  0  0  0  0  0  0  0  0  # atno 10765 bound_to 10752
  140.9745  134.0760  157.3834 H   0  0  0  0  0  0  0  0  0  0  0  0  # atno 11005 bound_to 11000
  145.0855  140.9249  143.4800 LP  0  0  0  0  0  0  0  0  0  0  0  0  # atno 17320 bound_to 7965
  145.0826  139.2949  143.5776 LP  0  0  0  0  0  0  0  0  0  0  0  0  # atno 17321 bound_to 7965
  140.6957  143.7755  150.7322 LP  0  0  0  0  0  0  0  0  0  0  0  0  # atno 17342 bound_to 10162
  140.1251  143.4576  152.2289 LP  0  0  0  0  0  0  0  0  0  0  0  0  # atno 17343 bound_to 10162
  156.7435  130.4746  149.5472 LP  0  0  0  0  0  0  0  0  0  0  0  0  # atno 17370 bound_to 10713
  156.1524  130.6319  151.0613 LP  0  0  0  0  0  0  0  0  0  0  0  0  # atno 17371 bound_to 10713
  139.8925  135.0125  156.6849 LP  0  0  0  0  0  0  0  0  0  0  0  0  # atno 17394 bound_to 11000
  140.7280  133.9083  155.8191 LP  0  0  0  0  0  0  0  0  0  0  0  0  # atno 17395 bound_to 11000

$$$$
