AV-unprocessed.smi:3100|AV-procd|sdf|11807|dock2
  -GOLD-   2272017183D 1   1.00000     0.00000
 Structure written by MMmdl.
 28 29  0  0  0  0  0  0  0  0  1 V2000
  149.7265  144.7358  160.2175 C   0  0  0  0  0  0  0  0  0  0  0  0
  150.8054  144.0842  159.3468 C   0  0  1  0  0  0  0  0  0  0  0  0
  152.0584  144.9312  159.1626 C   0  0  0  0  0  0  0  0  0  0  0  0
  153.1033  143.8994  158.7749 C   0  0  0  0  0  0  0  0  0  0  0  0
  152.5722  142.5796  159.3728 C   0  0  2  0  0  0  0  0  0  0  0  0
  152.3801  141.4629  158.3301 C   0  0  0  0  0  0  0  0  0  0  0  0
  153.0391  140.4270  158.4250 O   0  0  0  0  0  0  0  0  0  0  0  0
  151.4602  141.6889  157.3728 N   0  0  0  0  0  0  0  0  0  0  0  0
  151.0908  140.8478  156.2910 C   0  0  0  0  0  0  0  0  0  0  0  0
  150.0702  141.3459  155.4469 C   0  0  0  0  0  0  0  0  0  0  0  0
  149.6121  140.6625  154.3747 N   0  0  0  0  0  0  0  0  0  0  0  0
  150.1796  139.4607  154.1374 C   0  0  0  0  0  0  0  0  0  0  0  0
  151.1969  138.9486  154.9672 C   0  0  0  0  0  0  0  0  0  0  0  0
  151.6505  139.6373  156.0372 N   0  0  0  0  0  0  0  0  0  0  0  0
  151.3193  142.9186  159.9732 O   0  0  0  0  0  0  0  0  0  0  0  0
  149.3543  145.6520  159.7587 H   0  0  0  0  0  0  0  0  0  0  0  0
  150.1133  144.9886  161.2051 H   0  0  0  0  0  0  0  0  0  0  0  0
  148.8792  144.0636  160.3541 H   0  0  0  0  0  0  0  0  0  0  0  0
  150.3910  143.8122  158.3744 H   0  0  0  0  0  0  0  0  0  0  0  0
  151.9357  145.7157  158.4151 H   0  0  0  0  0  0  0  0  0  0  0  0
  152.3392  145.4017  160.1059 H   0  0  0  0  0  0  0  0  0  0  0  0
  153.1860  143.8555  157.6877 H   0  0  0  0  0  0  0  0  0  0  0  0
  154.0872  144.1598  159.1665 H   0  0  0  0  0  0  0  0  0  0  0  0
  153.2397  142.2120  160.1529 H   0  0  0  0  0  0  0  0  0  0  0  0
  150.9795  142.5757  157.4216 H   0  0  0  0  0  0  0  0  0  0  0  0
  149.6131  142.3070  155.6322 H   0  0  0  0  0  0  0  0  0  0  0  0
  149.8210  138.9057  153.2833 H   0  0  0  0  0  0  0  0  0  0  0  0
  151.6474  137.9867  154.7725 H   0  0  0  0  0  0  0  0  0  0  0  0
  1  2  1  0  0  0  0
  1 16  1  0  0  0  0
  1 17  1  0  0  0  0
  1 18  1  0  0  0  0
  2 15  1  0  0  0  0
  2  3  1  0  0  0  0
  2 19  1  0  0  0  0
  3  4  1  0  0  0  0
  3 20  1  0  0  0  0
  3 21  1  0  0  0  0
  4  5  1  0  0  0  0
  4 22  1  0  0  0  0
  4 23  1  0  0  0  0
  5  6  1  0  0  0  0
  5 15  1  0  0  0  0
  5 24  1  0  0  0  0
  6  7  2  0  0  0  0
  6  8  1  0  0  0  0
  8  9  1  0  0  0  0
  8 25  1  0  0  0  0
  9 14  1  0  0  0  0
  9 10  2  0  0  0  0
 10 11  1  0  0  0  0
 10 26  1  0  0  0  0
 11 12  2  0  0  0  0
 12 13  1  0  0  0  0
 12 27  1  0  0  0  0
 13 14  2  0  0  0  0
 13 28  1  0  0  0  0
M  END
> <s_m_source_file>
AV-unprocessed.smi

> <i_m_source_file_index>
3100

> <i_lp_mmshare_version>
43012

> <i_f3d_flags>
0

> <s_epik_input>
W0NIM11bQ0BASF0xW0NIMl1bQ0gyXVtDQEhdKE8xKUMoPU8pW05IXWMyW2NIXW5bY0hdW2NIXW4y

> <s_epik_cmdline>
J2VwaWtfcHl0aG9uJywgJy1waCcsICc3LjAnLCAnLXRuJywgJzgnLCAnLW1hJywgJzIwMCcsICctbWV0YWxfYmluZGluZycsICctaW1hZScsICc8aW5maWxlLm1hZT4nLCAnLW9tYWUnLCAnPG91dGZpbGUubWFlPic=

> <r_lp_tautomer_probability>
1

> <r_epik_Ionization_Penalty>
2.81186e-06

> <r_epik_Ionization_Penalty_Charging>
0

> <r_epik_Ionization_Penalty_Neutral>
2.81186e-06

> <r_epik_State_Penalty>
-0

> <r_epik_Charging_Adjusted_Penalty>
0

> <i_epik_Tot_Q>
0

> <i_epik_Tot_abs_Q>
0

> <r_epik_Metal_State_Penalty>
-0

> <b_epik_Metal_Only>
0

> <s_lp_Force_Field>
OPLS_2005

> <r_lp_Energy>
25.84

> <b_lp_Chiralities_Consistent>
1

> <s_lp_Variant>
AV-unprocessed.smi:3100-4

> <Gold.Version>
5.8.1

> <Gold.Id.Protein>
6NUR|6NUR_protein|mol2

> <Gold.PLP.Fitness>
39.4021

> <Gold.PLP.PLP>
-32.0801

> <Gold.PLP.part.hbond>
-2.7297

> <Gold.PLP.part.metal>
0.0000

> <Gold.PLP.part.buried>
-2.3014

> <Gold.PLP.part.nonpolar>
-26.2416

> <Gold.PLP.part.repulsive>
0.2130

> <Gold.PLP.ligand.clash>
0.0000

> <Gold.PLP.ligand.torsion>
0.0410

> <Gold.PLP.Chemscore.Hbond>
0.6890

> <Gold.PLP.Chemscore.CHOScore>
1.7767

> <Gold.PLP.Chemscore.Metal>
0.0000

> <Gold.Chemscore.Hbonds>
donor molecule, donor type, donor heavy atom, donor atom, acceptor molecule, acceptor atom, score
      P1  H  7997  8008       L1     7  0.66
      L1  C    10    26       P1  8028  1.00
      L1  C    12    27       P1  7957  0.79

> <Gold.PLP.Chemscore.Internal.Correction>
0.0069

> <Gold.Rescore>
     Score         DG    S(hbond)    S(metal)    S(lipo)     H(rot)  DE(clash)    DE(int)     intcor
     13.53     -14.90       0.80        0.00      79.41       1.00       0.06       1.31       ----

> <Gold.Chemscore.Fitness>
13.5279

> <Gold.Chemscore.DG>
-14.8968

> <Gold.Chemscore.ZeroCoef>
-5.4800

> <Gold.Chemscore.Hbond>
0.8041

> <Gold.Chemscore.Metal>
0.0000

> <Gold.Chemscore.Lipo>
79.4103

> <Gold.Chemscore.Internal_Hbond>
0.0000

> <Gold.Chemscore.DEClash>
0.0575

> <Gold.Chemscore.DEInternal>
1.3114

> <Gold.Chemscore.Rot>
1.0000

> <Gold.Chemscore.Internal.Correction>
   9.000000E+99

> <Gold.Chemscore.Hbonds>
donor molecule, donor type, donor heavy atom, donor atom, acceptor molecule, acceptor atom, score
      P1  H  7997  8008       L1     7  0.62

> <Gold.Chemscore.Hbond.Weighted>
-2.6858

> <Gold.Chemscore.Metal.Weighted>
-0.0000

> <Gold.Chemscore.Lipo.Weighted>
-9.2910

> <Gold.Chemscore.Internal_Hbond.Weighted>
0.0000

> <Gold.Chemscore.DEClash.Weighted>
0.0575

> <Gold.Chemscore.DEInternal.Weighted>
1.3114

> <Gold.Chemscore.Rot.Weighted>
2.5600

> <Gold.Chemscore.Internal.Correction.Weighted>
   9.000000E+99

> <Gold.Protein.RotatedTorsions>
[ 6907 6896 6895 6894 ] final -124.72 input  -60.11 | X-H torsion
[ 7974 7965 7964 7962 ] final   46.71 input  175.53 | X-H torsion
[ 8008 7997 7996 7995 ] final  -87.99 input   59.86 | X-H torsion
[ 10167 10162 10161 10158 ] final  -54.48 input  -65.29 | X-H torsion
[ 10718 10713 10712 10709 ] final  137.28 input   66.30 | X-H torsion
[ 10763 10752 10751 10750 ] final  -63.71 input  -60.55 | X-H torsion
[ 11005 11000 10999 10996 ] final  -11.96 input  -57.11 | X-H torsion

> <Gold.Protein.ActiveResidues>
 VAL166  LYS551  ARG553  GLY616  TRP617  ASP618  TYR619  PRO620  LYS621  CYS622 
 ASP623  PHE694  ASN695  SER759  ASP760  ASP761  ALA762  ILE779  LEU786  VAL792 
 PHE793  MET794  SER795  GLU796  ALA797  LYS798  CYS799  TRP800  GLU811  SER814 

> <Gold.Protein.RotatedAtoms>
  150.8796  133.7390  159.2935 H   0  0  0  0  0  0  0  0  0  0  0  0  # atno 6907 bound_to 6896
  151.4976  135.1059  159.9830 H   0  0  0  0  0  0  0  0  0  0  0  0  # atno 6908 bound_to 6896
  152.4751  133.8073  159.7040 H   0  0  0  0  0  0  0  0  0  0  0  0  # atno 6909 bound_to 6896
  146.0365  139.4827  142.9805 H   0  0  0  0  0  0  0  0  0  0  0  0  # atno 7974 bound_to 7965
  154.6696  140.0559  157.0151 H   0  0  0  0  0  0  0  0  0  0  0  0  # atno 8008 bound_to 7997
  155.1108  140.3238  155.4503 H   0  0  0  0  0  0  0  0  0  0  0  0  # atno 8009 bound_to 7997
  156.2652  140.2014  156.6233 H   0  0  0  0  0  0  0  0  0  0  0  0  # atno 8010 bound_to 7997
  140.6428  143.2517  151.4943 H   0  0  0  0  0  0  0  0  0  0  0  0  # atno 10167 bound_to 10162
  157.4378  131.1055  151.0178 H   0  0  0  0  0  0  0  0  0  0  0  0  # atno 10718 bound_to 10713
  154.3192  135.6200  153.5500 H   0  0  0  0  0  0  0  0  0  0  0  0  # atno 10763 bound_to 10752
  152.9821  135.5720  154.5089 H   0  0  0  0  0  0  0  0  0  0  0  0  # atno 10764 bound_to 10752
  154.4754  135.2861  155.1588 H   0  0  0  0  0  0  0  0  0  0  0  0  # atno 10765 bound_to 10752
  140.7607  133.8517  155.9122 H   0  0  0  0  0  0  0  0  0  0  0  0  # atno 11005 bound_to 11000
  145.6955  141.0151  143.1532 LP  0  0  0  0  0  0  0  0  0  0  0  0  # atno 17320 bound_to 7965
  144.7054  139.8583  143.7431 LP  0  0  0  0  0  0  0  0  0  0  0  0  # atno 17321 bound_to 7965
  139.5637  144.2093  152.1732 LP  0  0  0  0  0  0  0  0  0  0  0  0  # atno 17342 bound_to 10162
  140.1369  144.5238  150.6768 LP  0  0  0  0  0  0  0  0  0  0  0  0  # atno 17343 bound_to 10162
  157.1052  130.5998  149.5469 LP  0  0  0  0  0  0  0  0  0  0  0  0  # atno 17370 bound_to 10713
  155.9937  130.4999  150.7390 LP  0  0  0  0  0  0  0  0  0  0  0  0  # atno 17371 bound_to 10713
  140.9665  134.1587  157.4611 LP  0  0  0  0  0  0  0  0  0  0  0  0  # atno 17394 bound_to 11000
  139.8771  134.9963  156.5790 LP  0  0  0  0  0  0  0  0  0  0  0  0  # atno 17395 bound_to 11000

$$$$
