AV-unprocessed.smi:568|AV-procd|sdf|2958|dock10
  -GOLD-   2262023463D 1   1.00000     0.00000
 Structure written by MMmdl.
 35 36  0  0  0  0  0  0  0  0  1 V2000
  148.5882  138.5629  154.5974 C   0  0  0  0  0  0  0  0  0  0  0  0
  150.0650  138.3239  154.4638 C   0  0  0  0  0  0  0  0  0  0  0  0
  150.4917  137.1467  154.0388 N   0  0  0  0  0  0  0  0  0  0  0  0
  151.8870  137.2288  154.0191 O   0  0  0  0  0  0  0  0  0  0  0  0
  152.2508  138.4666  154.4391 C   0  0  0  0  0  0  0  0  0  0  0  0
  153.7146  138.7473  154.4839 C   0  0  0  0  0  0  0  0  0  0  0  0
  151.1442  139.2133  154.7396 C   0  0  0  0  0  0  0  0  0  0  0  0
  151.0722  140.6337  155.2384 C   0  0  0  0  0  0  0  0  0  0  0  0
  151.7922  140.7408  156.5828 C   0  0  0  0  0  0  0  0  0  0  0  0
  152.5369  139.8342  156.9549 O   0  0  0  0  0  0  0  0  0  0  0  0
  151.5574  141.8498  157.3017 N   0  0  0  0  0  0  0  0  0  0  0  0
  152.1227  142.1456  158.6145 C   0  0  0  0  0  0  0  0  0  0  0  0
  151.7150  143.5435  159.1174 C   0  0  1  0  0  0  0  0  0  0  0  0
  152.1061  143.8143  160.5558 C   0  0  0  0  0  0  0  0  0  0  0  0
  152.0205  145.3364  160.6310 C   0  0  0  0  0  0  0  0  0  0  0  0
  152.3094  145.8113  159.3190 O   0  0  0  0  0  0  0  0  0  0  0  0
  152.3990  144.7164  158.4130 C   0  0  0  0  0  0  0  0  0  0  0  0
  148.3624  139.6246  154.6949 H   0  0  0  0  0  0  0  0  0  0  0  0
  148.1890  138.0573  155.4767 H   0  0  0  0  0  0  0  0  0  0  0  0
  148.0482  138.1929  153.7256 H   0  0  0  0  0  0  0  0  0  0  0  0
  153.9071  139.8095  154.6336 H   0  0  0  0  0  0  0  0  0  0  0  0
  154.1941  138.4474  153.5520 H   0  0  0  0  0  0  0  0  0  0  0  0
  154.1871  138.2000  155.2995 H   0  0  0  0  0  0  0  0  0  0  0  0
  151.5364  141.3257  154.5350 H   0  0  0  0  0  0  0  0  0  0  0  0
  150.0394  140.9673  155.3465 H   0  0  0  0  0  0  0  0  0  0  0  0
  150.9304  142.5389  156.9126 H   0  0  0  0  0  0  0  0  0  0  0  0
  151.7533  141.3896  159.3077 H   0  0  0  0  0  0  0  0  0  0  0  0
  153.2090  142.0403  158.6024 H   0  0  0  0  0  0  0  0  0  0  0  0
  150.6337  143.6614  159.0261 H   0  0  0  0  0  0  0  0  0  0  0  0
  151.4580  143.3177  161.2782 H   0  0  0  0  0  0  0  0  0  0  0  0
  153.1319  143.4901  160.7384 H   0  0  0  0  0  0  0  0  0  0  0  0
  151.0100  145.6487  160.8974 H   0  0  0  0  0  0  0  0  0  0  0  0
  152.7086  145.7544  161.3661 H   0  0  0  0  0  0  0  0  0  0  0  0
  153.4543  144.5002  158.2394 H   0  0  0  0  0  0  0  0  0  0  0  0
  151.9404  144.9565  157.4535 H   0  0  0  0  0  0  0  0  0  0  0  0
  1  2  1  0  0  0  0
  1 18  1  0  0  0  0
  1 19  1  0  0  0  0
  1 20  1  0  0  0  0
  2  7  1  0  0  0  0
  2  3  2  0  0  0  0
  3  4  1  0  0  0  0
  4  5  1  0  0  0  0
  5  6  1  0  0  0  0
  5  7  2  0  0  0  0
  6 21  1  0  0  0  0
  6 22  1  0  0  0  0
  6 23  1  0  0  0  0
  7  8  1  0  0  0  0
  8  9  1  0  0  0  0
  8 24  1  0  0  0  0
  8 25  1  0  0  0  0
  9 10  2  0  0  0  0
  9 11  1  0  0  0  0
 11 12  1  0  0  0  0
 11 26  1  0  0  0  0
 12 13  1  0  0  0  0
 12 27  1  0  0  0  0
 12 28  1  0  0  0  0
 13 17  1  0  0  0  0
 13 14  1  0  0  0  0
 13 29  1  0  0  0  0
 14 15  1  0  0  0  0
 14 30  1  0  0  0  0
 14 31  1  0  0  0  0
 15 16  1  0  0  0  0
 15 32  1  0  0  0  0
 15 33  1  0  0  0  0
 16 17  1  0  0  0  0
 17 34  1  0  0  0  0
 17 35  1  0  0  0  0
M  END
> <s_m_source_file>
AV-unprocessed.smi

> <i_m_source_file_index>
568

> <i_lp_mmshare_version>
43012

> <i_f3d_flags>
0

> <s_epik_input>
W0NIM11jMW5vYyhbQ0gzXSljMVtDSDJdQyg9TylbTkhdW0NIMl1bQ0BASF0yW0NIMl1bQ0gyXU9bQ0gyXTI=

> <s_epik_cmdline>
J2VwaWtfcHl0aG9uJywgJy1waCcsICc3LjAnLCAnLXRuJywgJzgnLCAnLW1hJywgJzIwMCcsICctbWV0YWxfYmluZGluZycsICctaW1hZScsICc8aW5maWxlLm1hZT4nLCAnLW9tYWUnLCAnPG91dGZpbGUubWFlPic=

> <r_lp_tautomer_probability>
1

> <r_epik_Ionization_Penalty>
2.07075e-08

> <r_epik_Ionization_Penalty_Charging>
0

> <r_epik_Ionization_Penalty_Neutral>
2.07075e-08

> <r_epik_State_Penalty>
-0

> <r_epik_Charging_Adjusted_Penalty>
0

> <i_epik_Tot_Q>
0

> <i_epik_Tot_abs_Q>
0

> <r_epik_Metal_State_Penalty>
-0

> <b_epik_Metal_Only>
0

> <s_lp_Force_Field>
OPLS_2005

> <r_lp_Energy>
12.1953

> <b_lp_Chiralities_Consistent>
1

> <s_lp_Variant>
AV-unprocessed.smi:568-2

> <Gold.Version>
5.8.1

> <Gold.Id.Protein>
6NUR|6NUR_protein|mol2

> <Gold.PLP.Fitness>
41.1743

> <Gold.PLP.PLP>
-35.6630

> <Gold.PLP.part.hbond>
-3.0000

> <Gold.PLP.part.metal>
0.0000

> <Gold.PLP.part.buried>
-5.4150

> <Gold.PLP.part.nonpolar>
-28.3076

> <Gold.PLP.part.repulsive>
0.6506

> <Gold.PLP.ligand.clash>
0.0000

> <Gold.PLP.ligand.torsion>
0.2518

> <Gold.PLP.Chemscore.Hbond>
2.0000

> <Gold.PLP.Chemscore.CHOScore>
0.0000

> <Gold.PLP.Chemscore.Metal>
0.0000

> <Gold.Chemscore.Hbonds>
donor molecule, donor type, donor heavy atom, donor atom, acceptor molecule, acceptor atom, score
      P1  H  7997  8009       L1    10  1.00
      P1  H 10752 10765       L1     4  1.00

> <Gold.PLP.Chemscore.Internal.Correction>
0.0150

> <Gold.Rescore>
     Score         DG    S(hbond)    S(metal)    S(lipo)     H(rot)  DE(clash)    DE(int)     intcor
     17.57     -19.22       1.92        0.00      96.63       1.56       0.16       1.49       ----

> <Gold.Chemscore.Fitness>
17.5711

> <Gold.Chemscore.DG>
-19.2183

> <Gold.Chemscore.ZeroCoef>
-5.4800

> <Gold.Chemscore.Hbond>
1.9202

> <Gold.Chemscore.Metal>
0.0000

> <Gold.Chemscore.Lipo>
96.6311

> <Gold.Chemscore.Internal_Hbond>
0.0000

> <Gold.Chemscore.DEClash>
0.1615

> <Gold.Chemscore.DEInternal>
1.4857

> <Gold.Chemscore.Rot>
1.5551

> <Gold.Chemscore.Internal.Correction>
   9.000000E+99

> <Gold.Chemscore.Hbonds>
donor molecule, donor type, donor heavy atom, donor atom, acceptor molecule, acceptor atom, score
      P1  H  7997  8009       L1    10  0.88
      P1  H 10752 10765       L1     4  0.96

> <Gold.Chemscore.Hbond.Weighted>
-6.4134

> <Gold.Chemscore.Metal.Weighted>
-0.0000

> <Gold.Chemscore.Lipo.Weighted>
-11.3058

> <Gold.Chemscore.Internal_Hbond.Weighted>
0.0000

> <Gold.Chemscore.DEClash.Weighted>
0.1615

> <Gold.Chemscore.DEInternal.Weighted>
1.4857

> <Gold.Chemscore.Rot.Weighted>
3.9809

> <Gold.Chemscore.Internal.Correction.Weighted>
   9.000000E+99

> <Gold.Protein.RotatedTorsions>
[ 6907 6896 6895 6894 ] final  171.35 input  -60.11 | X-H torsion
[ 7974 7965 7964 7962 ] final -127.39 input  175.53 | X-H torsion
[ 8008 7997 7996 7995 ] final -173.12 input   59.86 | X-H torsion
[ 10167 10162 10161 10158 ] final -179.27 input  -65.29 | X-H torsion
[ 10718 10713 10712 10709 ] final -120.56 input   66.30 | X-H torsion
[ 10763 10752 10751 10750 ] final  156.95 input  -60.55 | X-H torsion
[ 11005 11000 10999 10996 ] final -114.26 input  -57.11 | X-H torsion

> <Gold.Protein.ActiveResidues>
 VAL166  LYS551  ARG553  GLY616  TRP617  ASP618  TYR619  PRO620  LYS621  CYS622 
 ASP623  PHE694  ASN695  SER759  ASP760  ASP761  ALA762  ILE779  LEU786  VAL792 
 PHE793  MET794  SER795  GLU796  ALA797  LYS798  CYS799  TRP800  GLU811  SER814 

> <Gold.Protein.RotatedAtoms>
  151.8017  133.3371  159.3528 H   0  0  0  0  0  0  0  0  0  0  0  0  # atno 6907 bound_to 6896
  150.7356  134.5748  159.5918 H   0  0  0  0  0  0  0  0  0  0  0  0  # atno 6908 bound_to 6896
  152.3138  134.7465  160.0381 H   0  0  0  0  0  0  0  0  0  0  0  0  # atno 6909 bound_to 6896
  144.9775  140.7607  143.4632 H   0  0  0  0  0  0  0  0  0  0  0  0  # atno 7974 bound_to 7965
  155.9534  140.1130  157.0958 H   0  0  0  0  0  0  0  0  0  0  0  0  # atno 8008 bound_to 7997
  154.4115  140.1196  156.5148 H   0  0  0  0  0  0  0  0  0  0  0  0  # atno 8009 bound_to 7997
  155.6814  140.3473  155.4859 H   0  0  0  0  0  0  0  0  0  0  0  0  # atno 8010 bound_to 7997
  139.5394  144.2406  152.0863 H   0  0  0  0  0  0  0  0  0  0  0  0  # atno 10167 bound_to 10162
  156.1267  130.6365  150.9555 H   0  0  0  0  0  0  0  0  0  0  0  0  # atno 10718 bound_to 10713
  154.1925  135.2794  155.3017 H   0  0  0  0  0  0  0  0  0  0  0  0  # atno 10763 bound_to 10752
  154.5918  135.5557  153.7289 H   0  0  0  0  0  0  0  0  0  0  0  0  # atno 10764 bound_to 10752
  153.0109  135.6370  154.2063 H   0  0  0  0  0  0  0  0  0  0  0  0  # atno 10765 bound_to 10752
  141.0563  133.9607  157.2748 H   0  0  0  0  0  0  0  0  0  0  0  0  # atno 11005 bound_to 11000
  145.2469  139.2048  143.4963 LP  0  0  0  0  0  0  0  0  0  0  0  0  # atno 17320 bound_to 7965
  146.3399  140.2374  142.8595 LP  0  0  0  0  0  0  0  0  0  0  0  0  # atno 17321 bound_to 7965
  140.1882  144.4778  150.6492 LP  0  0  0  0  0  0  0  0  0  0  0  0  # atno 17342 bound_to 10162
  140.6616  143.2254  151.5842 LP  0  0  0  0  0  0  0  0  0  0  0  0  # atno 17343 bound_to 10162
  157.6448  131.0905  150.8175 LP  0  0  0  0  0  0  0  0  0  0  0  0  # atno 17370 bound_to 10713
  156.8265  130.5001  149.5336 LP  0  0  0  0  0  0  0  0  0  0  0  0  # atno 17371 bound_to 10713
  139.9393  135.0193  156.8657 LP  0  0  0  0  0  0  0  0  0  0  0  0  # atno 17394 bound_to 11000
  140.5957  134.0219  155.7517 LP  0  0  0  0  0  0  0  0  0  0  0  0  # atno 17395 bound_to 11000

$$$$
