AV-unprocessed.smi:276|AV-procd|sdf|2080|dock9
  -GOLD-   2262021353D 1   1.00000     0.00000
 Structure written by MMmdl.
 57 61  0  0  0  0  0  0  0  0  1 V2000
  146.0713  136.7885  162.8996 C   0  0  0  0  0  0  0  0  0  0  0  0
  146.7672  135.5589  163.0044 O   0  0  0  0  0  0  0  0  0  0  0  0
  146.4119  134.6414  161.9826 C   0  0  2  0  0  0  0  0  0  0  0  0
  147.4092  133.4936  161.7877 C   0  0  0  0  0  0  0  0  0  0  0  0
  147.1489  133.6309  160.2818 C   0  0  2  0  0  0  0  0  0  0  0  0
  148.3435  133.3895  159.4689 N   0  0  0  0  0  0  0  0  0  0  0  0
  148.8392  132.0190  159.4500 C   0  0  0  0  0  0  0  0  0  0  0  0
  148.3235  133.8928  158.2137 C   0  0  0  0  0  0  0  0  0  0  0  0
  149.2170  134.8741  157.9325 N   0  0  0  0  0  0  0  0  0  0  0  0
  149.2475  135.4243  156.7152 C   0  0  0  0  0  0  0  0  0  0  0  0
  148.4936  135.1400  155.6512 N   0  0  0  0  0  0  0  0  0  0  0  0
  147.6098  134.1375  155.9240 C   0  0  0  0  0  0  0  0  0  0  0  0
  147.4608  133.4582  157.1662 C   0  0  0  0  0  0  0  0  0  0  0  0
  146.4718  132.4869  157.0559 N   0  0  0  0  0  0  0  0  0  0  0  0
  146.0524  132.5950  155.8248 C   0  0  0  0  0  0  0  0  0  0  0  0
  146.6822  133.5611  155.0749 N   0  0  0  0  0  0  0  0  0  0  0  0
  146.4192  133.8865  153.6841 C   0  0  0  0  0  0  0  0  0  0  0  0
  146.8284  132.7502  152.7259 C   0  0  2  0  0  0  0  0  0  0  0  0
  148.2400  132.6998  152.6359 O   0  0  0  0  0  0  0  0  0  0  0  0
  146.2445  132.9396  151.3135 C   0  0  1  0  0  0  0  0  0  0  0  0
  146.0751  131.6434  150.5194 C   0  0  0  0  0  0  0  0  0  0  0  0
  145.0121  132.0348  149.5192 C   0  0  0  0  0  0  0  0  0  0  0  0
  144.1036  132.9284  150.3587 C   0  0  0  0  0  0  0  0  0  0  0  0
  144.9254  133.4762  151.3870 O   0  0  0  0  0  0  0  0  0  0  0  0
  146.7833  135.1136  160.5632 C   0  0  0  0  0  0  0  0  0  0  0  0
  145.7633  135.8729  159.7047 C   0  0  0  0  0  0  0  0  0  0  0  0
  146.8948  136.7708  159.1941 C   0  0  0  0  0  0  0  0  0  0  0  0
  147.7691  136.2815  160.3536 C   0  0  0  0  0  0  0  0  0  0  0  0
  146.3843  137.4552  163.7029 H   0  0  0  0  0  0  0  0  0  0  0  0
  144.9937  136.6439  162.9841 H   0  0  0  0  0  0  0  0  0  0  0  0
  146.2851  137.2814  161.9503 H   0  0  0  0  0  0  0  0  0  0  0  0
  145.3758  134.3003  162.0419 H   0  0  0  0  0  0  0  0  0  0  0  0
  148.4262  133.7620  162.0813 H   0  0  0  0  0  0  0  0  0  0  0  0
  147.0999  132.5420  162.2202 H   0  0  0  0  0  0  0  0  0  0  0  0
  146.2800  133.0403  159.9886 H   0  0  0  0  0  0  0  0  0  0  0  0
  148.1267  131.3571  158.9564 H   0  0  0  0  0  0  0  0  0  0  0  0
  148.9987  131.6506  160.4634 H   0  0  0  0  0  0  0  0  0  0  0  0
  149.7920  131.9529  158.9232 H   0  0  0  0  0  0  0  0  0  0  0  0
  149.9802  136.2050  156.5741 H   0  0  0  0  0  0  0  0  0  0  0  0
  145.2703  131.9657  155.4257 H   0  0  0  0  0  0  0  0  0  0  0  0
  145.3549  134.1015  153.5838 H   0  0  0  0  0  0  0  0  0  0  0  0
  146.9460  134.8080  153.4331 H   0  0  0  0  0  0  0  0  0  0  0  0
  146.4853  131.7974  153.1317 H   0  0  0  0  0  0  0  0  0  0  0  0
  148.4743  132.3143  151.8053 H   0  0  0  0  0  0  0  0  0  0  0  0
  146.8572  133.6359  150.7381 H   0  0  0  0  0  0  0  0  0  0  0  0
  146.9992  131.3077  150.0486 H   0  0  0  0  0  0  0  0  0  0  0  0
  145.7067  130.8420  151.1617 H   0  0  0  0  0  0  0  0  0  0  0  0
  145.4583  132.6094  148.7064 H   0  0  0  0  0  0  0  0  0  0  0  0
  144.4908  131.1795  149.0884 H   0  0  0  0  0  0  0  0  0  0  0  0
  143.6353  133.7134  149.7643 H   0  0  0  0  0  0  0  0  0  0  0  0
  143.3129  132.3399  150.8252 H   0  0  0  0  0  0  0  0  0  0  0  0
  145.2788  135.2753  158.9328 H   0  0  0  0  0  0  0  0  0  0  0  0
  145.0348  136.4191  160.3053 H   0  0  0  0  0  0  0  0  0  0  0  0
  147.2694  136.4675  158.2166 H   0  0  0  0  0  0  0  0  0  0  0  0
  146.6683  137.8370  159.2204 H   0  0  0  0  0  0  0  0  0  0  0  0
  147.7786  136.9932  161.1796 H   0  0  0  0  0  0  0  0  0  0  0  0
  148.7829  135.9999  160.0709 H   0  0  0  0  0  0  0  0  0  0  0  0
  1  2  1  0  0  0  0
  1 29  1  0  0  0  0
  1 30  1  0  0  0  0
  1 31  1  0  0  0  0
  2  3  1  0  0  0  0
  3 25  1  0  0  0  0
  3  4  1  0  0  0  0
  3 32  1  0  0  0  0
  4  5  1  0  0  0  0
  4 33  1  0  0  0  0
  4 34  1  0  0  0  0
  5  6  1  0  0  0  0
  5 25  1  0  0  0  0
  5 35  1  0  0  0  0
  6  7  1  0  0  0  0
  6  8  1  0  0  0  0
  7 36  1  0  0  0  0
  7 37  1  0  0  0  0
  7 38  1  0  0  0  0
  8 13  1  0  0  0  0
  8  9  2  0  0  0  0
  9 10  1  0  0  0  0
 10 11  2  0  0  0  0
 10 39  1  0  0  0  0
 11 12  1  0  0  0  0
 12 16  1  0  0  0  0
 12 13  2  0  0  0  0
 13 14  1  0  0  0  0
 14 15  2  0  0  0  0
 15 16  1  0  0  0  0
 15 40  1  0  0  0  0
 16 17  1  0  0  0  0
 17 18  1  0  0  0  0
 17 41  1  0  0  0  0
 17 42  1  0  0  0  0
 18 19  1  0  0  0  0
 18 20  1  0  0  0  0
 18 43  1  0  0  0  0
 19 44  1  0  0  0  0
 20 24  1  0  0  0  0
 20 21  1  0  0  0  0
 20 45  1  0  0  0  0
 21 22  1  0  0  0  0
 21 46  1  0  0  0  0
 21 47  1  0  0  0  0
 22 23  1  0  0  0  0
 22 48  1  0  0  0  0
 22 49  1  0  0  0  0
 23 24  1  0  0  0  0
 23 50  1  0  0  0  0
 23 51  1  0  0  0  0
 25 28  1  0  0  0  0
 25 26  1  0  0  0  0
 26 27  1  0  0  0  0
 26 52  1  0  0  0  0
 26 53  1  0  0  0  0
 27 28  1  0  0  0  0
 27 54  1  0  0  0  0
 27 55  1  0  0  0  0
 28 56  1  0  0  0  0
 28 57  1  0  0  0  0
M  END
> <s_m_source_file>
AV-unprocessed.smi

> <i_m_source_file_index>
276

> <i_lp_mmshare_version>
43012

> <i_f3d_flags>
0

> <s_epik_input>
W0NIMl0xW0NIMl1bQ0gyXUMxMltDQEhdKE9bQ0gzXSlbQ0gyXVtDQEhdMk4oW0NIM10pYyhuW2NIXW4zKWMoYzM0KW5bY0hdbjRbQ0gyXVtDQEhdKFtPSF0pW0NAQEhdNVtDSDJdW0NIMl1bQ0gyXU81

> <s_epik_cmdline>
J2VwaWtfcHl0aG9uJywgJy1waCcsICc3LjAnLCAnLXRuJywgJzgnLCAnLW1hJywgJzIwMCcsICctbWV0YWxfYmluZGluZycsICctaW1hZScsICc8aW5maWxlLm1hZT4nLCAnLW9tYWUnLCAnPG91dGZpbGUubWFlPic=

> <r_lp_tautomer_probability>
1

> <r_epik_Ionization_Penalty>
0.00204117

> <r_epik_Ionization_Penalty_Charging>
0

> <r_epik_Ionization_Penalty_Neutral>
0.00204117

> <r_epik_State_Penalty>
0.00127401

> <r_epik_Charging_Adjusted_Penalty>
0.00127401

> <i_epik_Tot_Q>
0

> <i_epik_Tot_abs_Q>
0

> <r_epik_Metal_State_Penalty>
-0

> <b_epik_Metal_Only>
0

> <s_lp_Force_Field>
OPLS_2005

> <r_lp_Energy>
54.5778

> <b_lp_Chiralities_Consistent>
1

> <s_lp_Variant>
AV-unprocessed.smi:276-11

> <Gold.Version>
5.8.1

> <Gold.Id.Protein>
6NUR|6NUR_protein|mol2

> <Gold.PLP.Fitness>
45.5262

> <Gold.PLP.PLP>
-37.7083

> <Gold.PLP.part.hbond>
-2.2001

> <Gold.PLP.part.metal>
0.0000

> <Gold.PLP.part.buried>
-6.7834

> <Gold.PLP.part.nonpolar>
-29.6749

> <Gold.PLP.part.repulsive>
0.1810

> <Gold.PLP.ligand.clash>
0.0000

> <Gold.PLP.ligand.torsion>
0.9812

> <Gold.PLP.Chemscore.Hbond>
2.0000

> <Gold.PLP.Chemscore.CHOScore>
0.9999

> <Gold.PLP.Chemscore.Metal>
0.0000

> <Gold.Chemscore.Hbonds>
donor molecule, donor type, donor heavy atom, donor atom, acceptor molecule, acceptor atom, score
      L1  H    19    44       P1 10747  0.68
      P1  H  6896  6907       L1     9  0.20
      L1  C    15    40       P1 10957  0.70

> <Gold.PLP.Chemscore.Internal.Correction>
0.7805

> <Gold.Rescore>
     Score         DG    S(hbond)    S(metal)    S(lipo)     H(rot)  DE(clash)    DE(int)     intcor
     15.59     -16.44       1.93        0.00      98.04       2.72       0.00       0.85       ----

> <Gold.Chemscore.Fitness>
15.5859

> <Gold.Chemscore.DG>
-16.4377

> <Gold.Chemscore.ZeroCoef>
-5.4800

> <Gold.Chemscore.Hbond>
1.9290

> <Gold.Chemscore.Metal>
0.0000

> <Gold.Chemscore.Lipo>
98.0405

> <Gold.Chemscore.Internal_Hbond>
0.0000

> <Gold.Chemscore.DEClash>
0.0004

> <Gold.Chemscore.DEInternal>
0.8514

> <Gold.Chemscore.Rot>
2.7172

> <Gold.Chemscore.Internal.Correction>
   9.000000E+99

> <Gold.Chemscore.Hbonds>
donor molecule, donor type, donor heavy atom, donor atom, acceptor molecule, acceptor atom, score
      L1  H    19    44       P1 10747  0.69
      P1  H  6896  6907       L1     9  0.01

> <Gold.Chemscore.Hbond.Weighted>
-6.4430

> <Gold.Chemscore.Metal.Weighted>
-0.0000

> <Gold.Chemscore.Lipo.Weighted>
-11.4707

> <Gold.Chemscore.Internal_Hbond.Weighted>
0.0000

> <Gold.Chemscore.DEClash.Weighted>
0.0004

> <Gold.Chemscore.DEInternal.Weighted>
0.8514

> <Gold.Chemscore.Rot.Weighted>
6.9560

> <Gold.Chemscore.Internal.Correction.Weighted>
   9.000000E+99

> <Gold.Protein.RotatedTorsions>
[ 6907 6896 6895 6894 ] final -114.26 input  -60.11 | X-H torsion
[ 7974 7965 7964 7962 ] final -149.61 input  175.53 | X-H torsion
[ 8008 7997 7996 7995 ] final -163.05 input   59.86 | X-H torsion
[ 10167 10162 10161 10158 ] final -145.08 input  -65.29 | X-H torsion
[ 10718 10713 10712 10709 ] final -107.79 input   66.30 | X-H torsion
[ 10763 10752 10751 10750 ] final  -50.33 input  -60.55 | X-H torsion
[ 11005 11000 10999 10996 ] final   14.80 input  -57.11 | X-H torsion

> <Gold.Protein.ActiveResidues>
 VAL166  LYS551  ARG553  GLY616  TRP617  ASP618  TYR619  PRO620  LYS621  CYS622 
 ASP623  PHE694  ASN695  SER759  ASP760  ASP761  ALA762  ILE779  LEU786  VAL792 
 PHE793  MET794  SER795  GLU796  ALA797  LYS798  CYS799  TRP800  GLU811  SER814 

> <Gold.Protein.RotatedAtoms>
  150.7889  133.8827  159.3290 H   0  0  0  0  0  0  0  0  0  0  0  0  # atno 6907 bound_to 6896
  151.6670  135.0979  160.0200 H   0  0  0  0  0  0  0  0  0  0  0  0  # atno 6908 bound_to 6896
  152.3959  133.6707  159.6311 H   0  0  0  0  0  0  0  0  0  0  0  0  # atno 6909 bound_to 6896
  144.7957  140.5042  143.5742 H   0  0  0  0  0  0  0  0  0  0  0  0  # atno 7974 bound_to 7965
  155.8157  140.0912  157.1878 H   0  0  0  0  0  0  0  0  0  0  0  0  # atno 8008 bound_to 7997
  154.3979  140.1446  156.3499 H   0  0  0  0  0  0  0  0  0  0  0  0  # atno 8009 bound_to 7997
  155.8319  140.3442  155.5580 H   0  0  0  0  0  0  0  0  0  0  0  0  # atno 8010 bound_to 7997
  139.7839  143.8062  152.2642 H   0  0  0  0  0  0  0  0  0  0  0  0  # atno 10167 bound_to 10162
  156.0454  130.5680  150.7871 H   0  0  0  0  0  0  0  0  0  0  0  0  # atno 10718 bound_to 10713
  154.1087  135.6552  153.4881 H   0  0  0  0  0  0  0  0  0  0  0  0  # atno 10763 bound_to 10752
  153.0264  135.5242  154.7214 H   0  0  0  0  0  0  0  0  0  0  0  0  # atno 10764 bound_to 10752
  154.6387  135.2985  155.0099 H   0  0  0  0  0  0  0  0  0  0  0  0  # atno 10765 bound_to 10752
  140.4654  134.1085  155.7723 H   0  0  0  0  0  0  0  0  0  0  0  0  # atno 11005 bound_to 11000
  145.5679  139.1482  143.3305 LP  0  0  0  0  0  0  0  0  0  0  0  0  # atno 17320 bound_to 7965
  146.2224  140.5813  142.9011 LP  0  0  0  0  0  0  0  0  0  0  0  0  # atno 17321 bound_to 7965
  139.8133  144.7327  150.9668 LP  0  0  0  0  0  0  0  0  0  0  0  0  # atno 17342 bound_to 10162
  140.7819  143.4229  151.0813 LP  0  0  0  0  0  0  0  0  0  0  0  0  # atno 17343 bound_to 10162
  157.5322  131.0937  150.9940 LP  0  0  0  0  0  0  0  0  0  0  0  0  # atno 17370 bound_to 10713
  157.0243  130.5686  149.5335 LP  0  0  0  0  0  0  0  0  0  0  0  0  # atno 17371 bound_to 10713
  141.1602  133.8808  157.1869 LP  0  0  0  0  0  0  0  0  0  0  0  0  # atno 17394 bound_to 11000
  139.9919  135.0061  156.9993 LP  0  0  0  0  0  0  0  0  0  0  0  0  # atno 17395 bound_to 11000

$$$$
