AV-unprocessed.smi:350|AV-procd|sdf|2399|dock7
  -GOLD-   2262022333D 1   1.00000     0.00000
 Structure written by MMmdl.
 35 36  0  0  0  0  0  0  0  0  1 V2000
  151.4652  144.4581  160.4977 C   0  0  0  0  0  0  0  0  0  0  0  0
  151.8781  143.1588  159.8606 C   0  0  0  0  0  0  0  0  0  0  0  0
  151.3572  142.8850  158.7099 N   0  0  0  0  0  0  0  0  0  0  0  0
  151.6636  141.7168  158.0409 N   0  0  0  0  0  0  0  0  0  0  0  0
  150.9746  141.5710  156.7525 C   0  0  0  0  0  0  0  0  0  0  0  0
  149.4391  141.5157  156.9103 C   0  0  1  0  0  0  0  0  0  0  0  0
  148.9637  142.8183  157.1884 O   0  0  0  0  0  0  0  0  0  0  0  0
  148.7824  140.9434  155.6631 C   0  0  0  0  0  0  0  0  0  0  0  0
  147.8588  141.7112  154.9194 C   0  0  0  0  0  0  0  0  0  0  0  0
  147.2608  141.1775  153.7613 C   0  0  0  0  0  0  0  0  0  0  0  0
  147.5834  139.8733  153.3387 C   0  0  0  0  0  0  0  0  0  0  0  0
  146.8513  139.2189  151.9200 Cl  0  0  0  0  0  0  0  0  0  0  0  0
  148.5060  139.1046  154.0744 C   0  0  0  0  0  0  0  0  0  0  0  0
  149.1048  139.6386  155.2320 C   0  0  0  0  0  0  0  0  0  0  0  0
  152.5187  140.7594  158.5015 C   0  0  0  0  0  0  0  0  0  0  0  0
  152.7595  139.7279  157.8722 O   0  0  0  0  0  0  0  0  0  0  0  0
  153.1088  141.0772  159.8039 C   0  0  0  0  0  0  0  0  0  0  0  0
  154.0115  140.1007  160.3230 C   0  0  0  0  0  0  0  0  0  0  0  0
  154.7488  139.3219  160.7587 N   0  0  0  0  0  0  0  0  0  0  0  0
  152.8151  142.2213  160.4713 C   0  0  0  0  0  0  0  0  0  0  0  0
  153.3999  142.5985  161.8256 C   0  0  0  0  0  0  0  0  0  0  0  0
  150.9824  144.2810  161.4588 H   0  0  0  0  0  0  0  0  0  0  0  0
  150.7613  145.0112  159.8742 H   0  0  0  0  0  0  0  0  0  0  0  0
  152.3304  145.0997  160.6654 H   0  0  0  0  0  0  0  0  0  0  0  0
  151.2593  142.3669  156.0611 H   0  0  0  0  0  0  0  0  0  0  0  0
  151.3248  140.6509  156.2805 H   0  0  0  0  0  0  0  0  0  0  0  0
  149.1713  140.8826  157.7570 H   0  0  0  0  0  0  0  0  0  0  0  0
  149.0253  143.3338  156.3988 H   0  0  0  0  0  0  0  0  0  0  0  0
  147.6075  142.7137  155.2338 H   0  0  0  0  0  0  0  0  0  0  0  0
  146.5553  141.7705  153.1979 H   0  0  0  0  0  0  0  0  0  0  0  0
  148.7564  138.1047  153.7514 H   0  0  0  0  0  0  0  0  0  0  0  0
  149.8139  139.0415  155.7867 H   0  0  0  0  0  0  0  0  0  0  0  0
  154.0665  141.8302  162.2160 H   0  0  0  0  0  0  0  0  0  0  0  0
  152.6067  142.7458  162.5590 H   0  0  0  0  0  0  0  0  0  0  0  0
  153.9740  143.5225  161.7488 H   0  0  0  0  0  0  0  0  0  0  0  0
  1  2  1  0  0  0  0
  1 22  1  0  0  0  0
  1 23  1  0  0  0  0
  1 24  1  0  0  0  0
  2 20  1  0  0  0  0
  2  3  2  0  0  0  0
  3  4  1  0  0  0  0
  4  5  1  0  0  0  0
  4 15  1  0  0  0  0
  5  6  1  0  0  0  0
  5 25  1  0  0  0  0
  5 26  1  0  0  0  0
  6  7  1  0  0  0  0
  6  8  1  0  0  0  0
  6 27  1  0  0  0  0
  7 28  1  0  0  0  0
  8 14  1  0  0  0  0
  8  9  2  0  0  0  0
  9 10  1  0  0  0  0
  9 29  1  0  0  0  0
 10 11  2  0  0  0  0
 10 30  1  0  0  0  0
 11 12  1  0  0  0  0
 11 13  1  0  0  0  0
 13 14  2  0  0  0  0
 13 31  1  0  0  0  0
 14 32  1  0  0  0  0
 15 16  2  0  0  0  0
 15 17  1  0  0  0  0
 17 18  1  0  0  0  0
 17 20  2  0  0  0  0
 18 19  3  0  0  0  0
 20 21  1  0  0  0  0
 21 33  1  0  0  0  0
 21 34  1  0  0  0  0
 21 35  1  0  0  0  0
M  END
> <s_m_source_file>
AV-unprocessed.smi

> <i_m_source_file_index>
350

> <i_lp_mmshare_version>
43012

> <i_f3d_flags>
0

> <s_epik_input>
TiNDYyhjMVtDSDNdKWMoPU8pbihuYzFbQ0gzXSlbQ0gyXVtDQEhdKFtPSF0pYzJbY0hdW2NIXWMoQ2wpW2NIXVtjSF0y

> <s_epik_cmdline>
J2VwaWtfcHl0aG9uJywgJy1waCcsICc3LjAnLCAnLXRuJywgJzgnLCAnLW1hJywgJzIwMCcsICctbWV0YWxfYmluZGluZycsICctaW1hZScsICc8aW5maWxlLm1hZT4nLCAnLW9tYWUnLCAnPG91dGZpbGUubWFlPic=

> <r_lp_tautomer_probability>
1

> <r_epik_Ionization_Penalty>
1.17315e-07

> <r_epik_Ionization_Penalty_Charging>
1.40848e-10

> <r_epik_Ionization_Penalty_Neutral>
1.17174e-07

> <r_epik_State_Penalty>
-0

> <r_epik_Charging_Adjusted_Penalty>
1.40848e-10

> <i_epik_Tot_Q>
0

> <i_epik_Tot_abs_Q>
0

> <r_epik_Metal_State_Penalty>
-0

> <b_epik_Metal_Only>
0

> <s_lp_Force_Field>
OPLS_2005

> <r_lp_Energy>
28.138

> <b_lp_Chiralities_Consistent>
1

> <s_lp_Variant>
AV-unprocessed.smi:350-2

> <Gold.Version>
5.8.1

> <Gold.Id.Protein>
6NUR|6NUR_protein|mol2

> <Gold.PLP.Fitness>
47.4694

> <Gold.PLP.PLP>
-41.7610

> <Gold.PLP.part.hbond>
-1.8405

> <Gold.PLP.part.metal>
0.0000

> <Gold.PLP.part.buried>
-1.2501

> <Gold.PLP.part.nonpolar>
-37.6807

> <Gold.PLP.part.repulsive>
0.0400

> <Gold.PLP.ligand.clash>
0.0000

> <Gold.PLP.ligand.torsion>
0.1365

> <Gold.PLP.Chemscore.Hbond>
1.9920

> <Gold.PLP.Chemscore.CHOScore>
0.0000

> <Gold.PLP.Chemscore.Metal>
0.0000

> <Gold.Chemscore.Hbonds>
donor molecule, donor type, donor heavy atom, donor atom, acceptor molecule, acceptor atom, score
      L1  H     7    28       P1  8028  0.99
      P1  H  7997  8010       L1    16  1.00

> <Gold.PLP.Chemscore.Internal.Correction>
0.0055

> <Gold.Rescore>
     Score         DG    S(hbond)    S(metal)    S(lipo)     H(rot)  DE(clash)    DE(int)     intcor
     18.81     -19.09       1.82        0.00     106.09       1.90       0.12       0.16       ----

> <Gold.Chemscore.Fitness>
18.8098

> <Gold.Chemscore.DG>
-19.0905

> <Gold.Chemscore.ZeroCoef>
-5.4800

> <Gold.Chemscore.Hbond>
1.8185

> <Gold.Chemscore.Metal>
0.0000

> <Gold.Chemscore.Lipo>
106.0916

> <Gold.Chemscore.Internal_Hbond>
0.0000

> <Gold.Chemscore.DEClash>
0.1226

> <Gold.Chemscore.DEInternal>
0.1580

> <Gold.Chemscore.Rot>
1.9047

> <Gold.Chemscore.Internal.Correction>
   9.000000E+99

> <Gold.Chemscore.Hbonds>
donor molecule, donor type, donor heavy atom, donor atom, acceptor molecule, acceptor atom, score
      L1  H     7    28       P1  8028  0.90
      P1  H  7997  8010       L1    16  0.46

> <Gold.Chemscore.Hbond.Weighted>
-6.0738

> <Gold.Chemscore.Metal.Weighted>
-0.0000

> <Gold.Chemscore.Lipo.Weighted>
-12.4127

> <Gold.Chemscore.Internal_Hbond.Weighted>
0.0000

> <Gold.Chemscore.DEClash.Weighted>
0.1226

> <Gold.Chemscore.DEInternal.Weighted>
0.1580

> <Gold.Chemscore.Rot.Weighted>
4.8760

> <Gold.Chemscore.Internal.Correction.Weighted>
   9.000000E+99

> <Gold.Protein.RotatedTorsions>
[ 6907 6896 6895 6894 ] final  161.32 input  -60.11 | X-H torsion
[ 7974 7965 7964 7962 ] final   34.61 input  175.53 | X-H torsion
[ 8008 7997 7996 7995 ] final   37.09 input   59.86 | X-H torsion
[ 10167 10162 10161 10158 ] final  -57.26 input  -65.29 | X-H torsion
[ 10718 10713 10712 10709 ] final  178.21 input   66.30 | X-H torsion
[ 10763 10752 10751 10750 ] final -115.57 input  -60.55 | X-H torsion
[ 11005 11000 10999 10996 ] final  109.12 input  -57.11 | X-H torsion

> <Gold.Protein.ActiveResidues>
 VAL166  LYS551  ARG553  GLY616  TRP617  ASP618  TYR619  PRO620  LYS621  CYS622 
 ASP623  PHE694  ASN695  SER759  ASP760  ASP761  ALA762  ILE779  LEU786  VAL792 
 PHE793  MET794  SER795  GLU796  ALA797  LYS798  CYS799  TRP800  GLU811  SER814 

> <Gold.Protein.RotatedAtoms>
  151.9574  133.3684  159.4022 H   0  0  0  0  0  0  0  0  0  0  0  0  # atno 6907 bound_to 6896
  150.6970  134.4276  159.5243 H   0  0  0  0  0  0  0  0  0  0  0  0  # atno 6908 bound_to 6896
  152.1960  134.8630  160.0563 H   0  0  0  0  0  0  0  0  0  0  0  0  # atno 6909 bound_to 6896
  146.1340  139.6247  142.9207 H   0  0  0  0  0  0  0  0  0  0  0  0  # atno 7974 bound_to 7965
  155.1981  140.3313  155.4347 H   0  0  0  0  0  0  0  0  0  0  0  0  # atno 8008 bound_to 7997
  156.2417  140.1898  156.7019 H   0  0  0  0  0  0  0  0  0  0  0  0  # atno 8009 bound_to 7997
  154.6160  140.0602  156.9541 H   0  0  0  0  0  0  0  0  0  0  0  0  # atno 8010 bound_to 7997
  140.6269  143.2442  151.5341 H   0  0  0  0  0  0  0  0  0  0  0  0  # atno 10167 bound_to 10162
  156.8939  130.9856  151.3045 H   0  0  0  0  0  0  0  0  0  0  0  0  # atno 10718 bound_to 10713
  154.8486  135.4377  154.1684 H   0  0  0  0  0  0  0  0  0  0  0  0  # atno 10763 bound_to 10752
  153.2803  135.6953  153.7398 H   0  0  0  0  0  0  0  0  0  0  0  0  # atno 10764 bound_to 10752
  153.6604  135.3436  155.3100 H   0  0  0  0  0  0  0  0  0  0  0  0  # atno 10765 bound_to 10752
  139.8856  134.9449  156.6076 H   0  0  0  0  0  0  0  0  0  0  0  0  # atno 11005 bound_to 11000
  145.5196  141.0432  143.2442 LP  0  0  0  0  0  0  0  0  0  0  0  0  # atno 17320 bound_to 7965
  144.7721  139.6712  143.7190 LP  0  0  0  0  0  0  0  0  0  0  0  0  # atno 17321 bound_to 7965
  139.5488  144.2451  152.1492 LP  0  0  0  0  0  0  0  0  0  0  0  0  # atno 17342 bound_to 10162
  140.1684  144.4959  150.6593 LP  0  0  0  0  0  0  0  0  0  0  0  0  # atno 17343 bound_to 10162
  157.6067  130.8552  149.8886 LP  0  0  0  0  0  0  0  0  0  0  0  0  # atno 17370 bound_to 10713
  156.0615  130.3699  150.0972 LP  0  0  0  0  0  0  0  0  0  0  0  0  # atno 17371 bound_to 10713
  140.7836  133.8640  155.8588 LP  0  0  0  0  0  0  0  0  0  0  0  0  # atno 17394 bound_to 11000
  140.9739  134.1495  157.4553 LP  0  0  0  0  0  0  0  0  0  0  0  0  # atno 17395 bound_to 11000

$$$$
