AV-unprocessed.smi:3285|AV-procd|sdf|12587|dock4
  -GOLD-   2272018513D 1   1.00000     0.00000
 Structure written by MMmdl.
 45 46  0  0  0  0  0  0  0  0  2 V2000
  153.2357  138.7324  154.6616 C   0  0  0  0  0  0  0  0  0  0  0  0
  151.8070  138.2715  154.7043 C   0  0  0  0  0  0  0  0  0  0  0  0
  151.5385  136.9797  154.7913 N   0  0  0  0  0  0  0  0  0  0  0  0
  150.1443  136.8784  154.8110 O   0  0  0  0  0  0  0  0  0  0  0  0
  149.6217  138.1287  154.7362 C   0  0  0  0  0  0  0  0  0  0  0  0
  148.1341  138.2337  154.7441 C   0  0  0  0  0  0  0  0  0  0  0  0
  150.6214  139.0598  154.6669 C   0  0  0  0  0  0  0  0  0  0  0  0
  150.5067  140.5573  154.5758 C   0  0  0  0  0  0  0  0  0  0  0  0
  149.7236  141.1337  155.7624 C   0  0  0  0  0  0  0  0  0  0  0  0
  150.3268  142.3991  156.2296 N   0  3  0  0  0  0  0  0  0  0  0  0
  150.8239  142.3852  157.6233 C   0  0  1  0  0  0  0  0  0  0  0  0
  151.5055  141.0369  157.9167 C   0  0  0  0  0  0  0  0  0  0  0  0
  152.0788  140.9861  159.3416 C   0  0  0  0  0  0  0  0  0  0  0  0
  153.0576  142.1493  159.5948 C   0  0  2  0  0  0  0  0  0  0  0  0
  153.7059  142.0591  160.9860 C   0  0  0  0  0  0  0  0  0  0  0  0
  152.3955  143.5221  159.3118 C   0  0  2  0  0  0  0  0  0  0  0  0
  151.3523  143.9498  160.3642 C   0  0  0  0  0  0  0  0  0  0  0  0
  151.8077  143.5483  157.8845 C   0  0  0  0  0  0  0  0  0  0  0  0
  153.4768  139.3316  155.5394 H   0  0  0  0  0  0  0  0  0  0  0  0
  153.4213  139.3453  153.7796 H   0  0  0  0  0  0  0  0  0  0  0  0
  153.9318  137.8933  154.6313 H   0  0  0  0  0  0  0  0  0  0  0  0
  147.8070  139.0803  155.3472 H   0  0  0  0  0  0  0  0  0  0  0  0
  147.6799  137.3327  155.1571 H   0  0  0  0  0  0  0  0  0  0  0  0
  147.7532  138.3715  153.7325 H   0  0  0  0  0  0  0  0  0  0  0  0
  151.4952  141.0163  154.5394 H   0  0  0  0  0  0  0  0  0  0  0  0
  150.0151  140.8440  153.6453 H   0  0  0  0  0  0  0  0  0  0  0  0
  148.6877  141.3031  155.4690 H   0  0  0  0  0  0  0  0  0  0  0  0
  149.7131  140.4160  156.5840 H   0  0  0  0  0  0  0  0  0  0  0  0
  151.1129  142.5952  155.6265 H   0  0  0  0  0  0  0  0  0  0  0  0
  149.9633  142.4786  158.2868 H   0  0  0  0  0  0  0  0  0  0  0  0
  150.7949  140.2209  157.7814 H   0  0  0  0  0  0  0  0  0  0  0  0
  152.3103  140.8661  157.2001 H   0  0  0  0  0  0  0  0  0  0  0  0
  151.2659  141.0113  160.0681 H   0  0  0  0  0  0  0  0  0  0  0  0
  152.5888  140.0337  159.4909 H   0  0  0  0  0  0  0  0  0  0  0  0
  153.8708  142.0398  158.8753 H   0  0  0  0  0  0  0  0  0  0  0  0
  152.9608  142.0686  161.7817 H   0  0  0  0  0  0  0  0  0  0  0  0
  154.3901  142.8907  161.1563 H   0  0  0  0  0  0  0  0  0  0  0  0
  154.2788  141.1371  161.0886 H   0  0  0  0  0  0  0  0  0  0  0  0
  153.1840  144.2755  159.3415 H   0  0  0  0  0  0  0  0  0  0  0  0
  150.5443  143.2256  160.4634 H   0  0  0  0  0  0  0  0  0  0  0  0
  150.9027  144.9071  160.0994 H   0  0  0  0  0  0  0  0  0  0  0  0
  151.8054  144.0761  161.3474 H   0  0  0  0  0  0  0  0  0  0  0  0
  152.6258  143.4923  157.1648 H   0  0  0  0  0  0  0  0  0  0  0  0
  151.3249  144.5103  157.7131 H   0  0  0  0  0  0  0  0  0  0  0  0
  149.6543  143.1462  156.1312 H   0  0  0  0  0  0  0  0  0  0  0  0
  1  2  1  0  0  0  0
  1 19  1  0  0  0  0
  1 20  1  0  0  0  0
  1 21  1  0  0  0  0
  2  7  1  0  0  0  0
  2  3  2  0  0  0  0
  3  4  1  0  0  0  0
  4  5  1  0  0  0  0
  5  6  1  0  0  0  0
  5  7  2  0  0  0  0
  6 22  1  0  0  0  0
  6 23  1  0  0  0  0
  6 24  1  0  0  0  0
  7  8  1  0  0  0  0
  8  9  1  0  0  0  0
  8 25  1  0  0  0  0
  8 26  1  0  0  0  0
  9 10  1  0  0  0  0
  9 27  1  0  0  0  0
  9 28  1  0  0  0  0
 10 11  1  0  0  0  0
 10 29  1  0  0  0  0
 10 45  1  0  0  0  0
 11 18  1  0  0  0  0
 11 12  1  0  0  0  0
 11 30  1  0  0  0  0
 12 13  1  0  0  0  0
 12 31  1  0  0  0  0
 12 32  1  0  0  0  0
 13 14  1  0  0  0  0
 13 33  1  0  0  0  0
 13 34  1  0  0  0  0
 14 15  1  0  0  0  0
 14 16  1  0  0  0  0
 14 35  1  0  0  0  0
 15 36  1  0  0  0  0
 15 37  1  0  0  0  0
 15 38  1  0  0  0  0
 16 17  1  0  0  0  0
 16 18  1  0  0  0  0
 16 39  1  0  0  0  0
 17 40  1  0  0  0  0
 17 41  1  0  0  0  0
 17 42  1  0  0  0  0
 18 43  1  0  0  0  0
 18 44  1  0  0  0  0
M  CHG  1  10   1
M  END
> <s_m_source_file>
AV-unprocessed.smi

> <i_m_source_file_index>
3285

> <i_lp_mmshare_version>
43012

> <i_f3d_flags>
0

> <s_epik_input>
W0NIM11jMW5vYyhbQ0gzXSljMVtDSDJdW0NIMl1bTkhdW0NAQEhdMltDSDJdW0NIMl1bQ0BASF0oW0NIM10pW0NAQEhdKFtDSDNdKVtDSDJdMg==

> <s_epik_cmdline>
J2VwaWtfcHl0aG9uJywgJy1waCcsICc3LjAnLCAnLXRuJywgJzgnLCAnLW1hJywgJzIwMCcsICctbWV0YWxfYmluZGluZycsICctaW1hZScsICc8aW5maWxlLm1hZT4nLCAnLW9tYWUnLCAnPG91dGZpbGUubWFlPic=

> <r_lp_tautomer_probability>
1

> <r_epik_Ionization_Penalty>
0.000204615

> <r_epik_Ionization_Penalty_Charging>
0.000204615

> <r_epik_Ionization_Penalty_Neutral>
9.28663e-11

> <r_epik_State_Penalty>
-0

> <r_epik_Charging_Adjusted_Penalty>
0.000204615

> <i_epik_Tot_Q>
1

> <i_epik_Tot_abs_Q>
1

> <r_epik_Metal_State_Penalty>
-0

> <b_epik_Metal_Only>
0

> <s_lp_Force_Field>
OPLS_2005

> <r_lp_Energy>
12.1842

> <b_lp_Chiralities_Consistent>
1

> <s_lp_Variant>
AV-unprocessed.smi:3285-8

> <Gold.Version>
5.8.1

> <Gold.Id.Protein>
6NUR|6NUR_protein|mol2

> <Gold.PLP.Fitness>
46.3126

> <Gold.PLP.PLP>
-38.9335

> <Gold.PLP.part.hbond>
-2.0000

> <Gold.PLP.part.metal>
0.0000

> <Gold.PLP.part.buried>
-1.5770

> <Gold.PLP.part.nonpolar>
-36.1978

> <Gold.PLP.part.repulsive>
0.4120

> <Gold.PLP.ligand.clash>
0.0000

> <Gold.PLP.ligand.torsion>
0.8243

> <Gold.PLP.Chemscore.Hbond>
3.0000

> <Gold.PLP.Chemscore.CHOScore>
0.0000

> <Gold.PLP.Chemscore.Metal>
0.0000

> <Gold.Chemscore.Hbonds>
donor molecule, donor type, donor heavy atom, donor atom, acceptor molecule, acceptor atom, score
      L1  H    10    45       P1  8028  2.00
      P1  H 10752 10763       L1     3  1.00

> <Gold.PLP.Chemscore.Internal.Correction>
0.0277

> <Gold.Rescore>
     Score         DG    S(hbond)    S(metal)    S(lipo)     H(rot)  DE(clash)    DE(int)     intcor
     20.90     -23.79       1.98        0.00     129.48       1.35       2.18       0.71       ----

> <Gold.Chemscore.Fitness>
20.8969

> <Gold.Chemscore.DG>
-23.7870

> <Gold.Chemscore.ZeroCoef>
-5.4800

> <Gold.Chemscore.Hbond>
1.9777

> <Gold.Chemscore.Metal>
0.0000

> <Gold.Chemscore.Lipo>
129.4753

> <Gold.Chemscore.Internal_Hbond>
0.0000

> <Gold.Chemscore.DEClash>
2.1827

> <Gold.Chemscore.DEInternal>
0.7074

> <Gold.Chemscore.Rot>
1.3465

> <Gold.Chemscore.Internal.Correction>
   9.000000E+99

> <Gold.Chemscore.Hbonds>
donor molecule, donor type, donor heavy atom, donor atom, acceptor molecule, acceptor atom, score
      L1  H    10    45       P1  8028  1.00
      P1  H 10752 10763       L1     3  0.96

> <Gold.Chemscore.Hbond.Weighted>
-6.6054

> <Gold.Chemscore.Metal.Weighted>
-0.0000

> <Gold.Chemscore.Lipo.Weighted>
-15.1486

> <Gold.Chemscore.Internal_Hbond.Weighted>
0.0000

> <Gold.Chemscore.DEClash.Weighted>
2.1827

> <Gold.Chemscore.DEInternal.Weighted>
0.7074

> <Gold.Chemscore.Rot.Weighted>
3.4470

> <Gold.Chemscore.Internal.Correction.Weighted>
   9.000000E+99

> <Gold.Protein.RotatedTorsions>
[ 6907 6896 6895 6894 ] final -156.61 input  -60.11 | X-H torsion
[ 7974 7965 7964 7962 ] final   90.73 input  175.53 | X-H torsion
[ 8008 7997 7996 7995 ] final  -99.57 input   59.86 | X-H torsion
[ 10167 10162 10161 10158 ] final -110.02 input  -65.29 | X-H torsion
[ 10718 10713 10712 10709 ] final  103.62 input   66.30 | X-H torsion
[ 10763 10752 10751 10750 ] final   59.31 input  -60.55 | X-H torsion
[ 11005 11000 10999 10996 ] final -138.77 input  -57.11 | X-H torsion

> <Gold.Protein.ActiveResidues>
 VAL166  LYS551  ARG553  GLY616  TRP617  ASP618  TYR619  PRO620  LYS621  CYS622 
 ASP623  PHE694  ASN695  SER759  ASP760  ASP761  ALA762  ILE779  LEU786  VAL792 
 PHE793  MET794  SER795  GLU796  ALA797  LYS798  CYS799  TRP800  GLU811  SER814 

> <Gold.Protein.RotatedAtoms>
  151.2902  133.4169  159.2632 H   0  0  0  0  0  0  0  0  0  0  0  0  # atno 6907 bound_to 6896
  151.0284  134.9521  159.8108 H   0  0  0  0  0  0  0  0  0  0  0  0  # atno 6908 bound_to 6896
  152.5340  134.2864  159.9079 H   0  0  0  0  0  0  0  0  0  0  0  0  # atno 6909 bound_to 6896
  145.5151  139.2278  143.2703 H   0  0  0  0  0  0  0  0  0  0  0  0  # atno 7974 bound_to 7965
  154.8166  140.0447  157.1381 H   0  0  0  0  0  0  0  0  0  0  0  0  # atno 8008 bound_to 7997
  154.9307  140.3039  155.5149 H   0  0  0  0  0  0  0  0  0  0  0  0  # atno 8009 bound_to 7997
  156.2976  140.2323  156.4367 H   0  0  0  0  0  0  0  0  0  0  0  0  # atno 8010 bound_to 7997
  140.1490  143.4215  152.1508 H   0  0  0  0  0  0  0  0  0  0  0  0  # atno 10167 bound_to 10162
  157.6766  131.0783  150.5583 H   0  0  0  0  0  0  0  0  0  0  0  0  # atno 10718 bound_to 10713
  152.9891  135.5576  154.5693 H   0  0  0  0  0  0  0  0  0  0  0  0  # atno 10763 bound_to 10752
  154.5096  135.2801  155.1355 H   0  0  0  0  0  0  0  0  0  0  0  0  # atno 10764 bound_to 10752
  154.2752  135.6355  153.5378 H   0  0  0  0  0  0  0  0  0  0  0  0  # atno 10765 bound_to 10752
  140.8584  134.2199  157.4721 H   0  0  0  0  0  0  0  0  0  0  0  0  # atno 11005 bound_to 11000
  146.2142  140.5960  142.9046 LP  0  0  0  0  0  0  0  0  0  0  0  0  # atno 17320 bound_to 7965
  144.7706  140.5629  143.6672 LP  0  0  0  0  0  0  0  0  0  0  0  0  # atno 17321 bound_to 7965
  139.5435  144.7278  151.4657 LP  0  0  0  0  0  0  0  0  0  0  0  0  # atno 17342 bound_to 10162
  140.6714  143.8285  150.7004 LP  0  0  0  0  0  0  0  0  0  0  0  0  # atno 17343 bound_to 10162
  156.5886  130.4323  149.5946 LP  0  0  0  0  0  0  0  0  0  0  0  0  # atno 17370 bound_to 10713
  156.2602  130.6958  151.1724 LP  0  0  0  0  0  0  0  0  0  0  0  0  # atno 17371 bound_to 10713
  139.8706  134.9717  156.4748 LP  0  0  0  0  0  0  0  0  0  0  0  0  # atno 17394 bound_to 11000
  140.8711  133.7988  155.9365 LP  0  0  0  0  0  0  0  0  0  0  0  0  # atno 17395 bound_to 11000

$$$$
