AV-unprocessed.smi:862|AV-procd|sdf|3978|dock1
  -GOLD-   22720 1453D 1   1.00000     0.00000
 Structure written by MMmdl.
 44 46  0  0  0  0  0  0  0  0  2 V2000
  143.6054  134.4044  153.7824 N   0  0  0  0  0  0  0  0  0  0  0  0
  144.2313  134.5300  152.6083 C   0  0  0  0  0  0  0  0  0  0  0  0
  144.6070  133.5402  151.9830 O   0  0  0  0  0  0  0  0  0  0  0  0
  144.3743  135.8030  152.1608 N   0  0  0  0  0  0  0  0  0  0  0  0
  143.9950  137.0263  152.8869 C   0  0  0  0  0  0  0  0  0  0  0  0
  145.2706  137.7020  153.4232 C   0  0  0  0  0  0  0  0  0  0  0  0
  146.2695  138.0007  152.2804 C   0  0  0  0  0  0  0  0  0  0  0  0
  147.5623  138.4974  152.8018 N   0  3  0  0  0  0  0  0  0  0  0  0
  147.4923  139.4038  153.9731 C   0  0  2  0  0  0  0  0  0  0  0  0
  148.0837  140.7938  153.7110 C   0  0  0  0  0  0  0  0  0  0  0  0
  148.4455  141.3436  155.0975 C   0  0  0  0  0  0  0  0  0  0  0  0
  148.4641  140.1422  156.0590 C   0  0  0  0  0  0  0  0  0  0  0  0
  148.2655  138.8826  155.1988 C   0  0  2  0  0  0  0  0  0  0  0  0
  149.5318  138.2367  154.8564 N   0  0  0  0  0  0  0  0  0  0  0  0
  150.5456  138.6972  154.0206 C   0  0  0  0  0  0  0  0  0  0  0  0
  151.5108  137.7167  153.9887 C   0  0  0  0  0  0  0  0  0  0  0  0
  151.1127  136.6433  154.7797 N   0  0  0  0  0  0  0  0  0  0  0  0
  149.9365  137.0232  155.2596 C   0  0  0  0  0  0  0  0  0  0  0  0
  146.5043  136.7447  151.4155 C   0  0  0  0  0  0  0  0  0  0  0  0
  145.1707  136.1193  150.9692 C   0  0  0  0  0  0  0  0  0  0  0  0
  143.4526  133.4846  154.1701 H   0  0  0  0  0  0  0  0  0  0  0  0
  143.2769  135.2239  154.2711 H   0  0  0  0  0  0  0  0  0  0  0  0
  143.4758  137.7004  152.2042 H   0  0  0  0  0  0  0  0  0  0  0  0
  143.2978  136.8541  153.7068 H   0  0  0  0  0  0  0  0  0  0  0  0
  144.9969  138.6190  153.9448 H   0  0  0  0  0  0  0  0  0  0  0  0
  145.7382  137.0517  154.1643 H   0  0  0  0  0  0  0  0  0  0  0  0
  145.8372  138.7629  151.6313 H   0  0  0  0  0  0  0  0  0  0  0  0
  148.1276  137.6964  153.0444 H   0  0  0  0  0  0  0  0  0  0  0  0
  146.4509  139.5221  154.2736 H   0  0  0  0  0  0  0  0  0  0  0  0
  148.9852  140.7126  153.1024 H   0  0  0  0  0  0  0  0  0  0  0  0
  147.3913  141.4486  153.1811 H   0  0  0  0  0  0  0  0  0  0  0  0
  149.4108  141.8504  155.0726 H   0  0  0  0  0  0  0  0  0  0  0  0
  147.7062  142.0744  155.4273 H   0  0  0  0  0  0  0  0  0  0  0  0
  149.3724  140.1058  156.6618 H   0  0  0  0  0  0  0  0  0  0  0  0
  147.6306  140.2351  156.7564 H   0  0  0  0  0  0  0  0  0  0  0  0
  147.6635  138.1522  155.7421 H   0  0  0  0  0  0  0  0  0  0  0  0
  150.5066  139.6583  153.5302 H   0  0  0  0  0  0  0  0  0  0  0  0
  152.4506  137.6992  153.4567 H   0  0  0  0  0  0  0  0  0  0  0  0
  149.3496  136.3970  155.9154 H   0  0  0  0  0  0  0  0  0  0  0  0
  147.1039  136.9995  150.5407 H   0  0  0  0  0  0  0  0  0  0  0  0
  147.0767  136.0055  151.9783 H   0  0  0  0  0  0  0  0  0  0  0  0
  145.3572  135.2442  150.3450 H   0  0  0  0  0  0  0  0  0  0  0  0
  144.6189  136.8182  150.3388 H   0  0  0  0  0  0  0  0  0  0  0  0
  148.0295  139.0001  152.0605 H   0  0  0  0  0  0  0  0  0  0  0  0
  1  2  1  0  0  0  0
  1 21  1  0  0  0  0
  1 22  1  0  0  0  0
  2  3  2  0  0  0  0
  2  4  1  0  0  0  0
  4 20  1  0  0  0  0
  4  5  1  0  0  0  0
  5  6  1  0  0  0  0
  5 23  1  0  0  0  0
  5 24  1  0  0  0  0
  6  7  1  0  0  0  0
  6 25  1  0  0  0  0
  6 26  1  0  0  0  0
  7  8  1  0  0  0  0
  7 19  1  0  0  0  0
  7 27  1  0  0  0  0
  8  9  1  0  0  0  0
  8 28  1  0  0  0  0
  8 44  1  0  0  0  0
  9 13  1  0  0  0  0
  9 10  1  0  0  0  0
  9 29  1  0  0  0  0
 10 11  1  0  0  0  0
 10 30  1  0  0  0  0
 10 31  1  0  0  0  0
 11 12  1  0  0  0  0
 11 32  1  0  0  0  0
 11 33  1  0  0  0  0
 12 13  1  0  0  0  0
 12 34  1  0  0  0  0
 12 35  1  0  0  0  0
 13 14  1  0  0  0  0
 13 36  1  0  0  0  0
 14 18  1  0  0  0  0
 14 15  1  0  0  0  0
 15 16  2  0  0  0  0
 15 37  1  0  0  0  0
 16 17  1  0  0  0  0
 16 38  1  0  0  0  0
 17 18  2  0  0  0  0
 18 39  1  0  0  0  0
 19 20  1  0  0  0  0
 19 40  1  0  0  0  0
 19 41  1  0  0  0  0
 20 42  1  0  0  0  0
 20 43  1  0  0  0  0
M  CHG  1   8   1
M  END
> <s_m_source_file>
AV-unprocessed.smi

> <i_m_source_file_index>
862

> <i_lp_mmshare_version>
43012

> <i_f3d_flags>
0

> <s_epik_input>
W05IMl1DKD1PKU4xW0NIMl1bQ0gyXVtDSF0oW0NIMl1bQ0gyXTEpW05IXVtDQEBIXTJbQ0gyXVtDSDJdW0NIMl1bQ0BIXTJuM1tjSF1bY0hdbltjSF0z

> <s_epik_cmdline>
J2VwaWtfcHl0aG9uJywgJy1waCcsICc3LjAnLCAnLXRuJywgJzgnLCAnLW1hJywgJzIwMCcsICctbWV0YWxfYmluZGluZycsICctaW1hZScsICc8aW5maWxlLm1hZT4nLCAnLW9tYWUnLCAnPG91dGZpbGUubWFlPic=

> <r_lp_tautomer_probability>
1

> <r_epik_Ionization_Penalty>
0.0731506

> <r_epik_Ionization_Penalty_Charging>
0.0731

> <r_epik_Ionization_Penalty_Neutral>
5.05966e-05

> <r_epik_State_Penalty>
0.128895

> <r_epik_Charging_Adjusted_Penalty>
0.201995

> <i_epik_Tot_Q>
1

> <i_epik_Tot_abs_Q>
1

> <r_epik_Metal_State_Penalty>
0.113934

> <b_epik_Metal_Only>
0

> <s_lp_Force_Field>
OPLS_2005

> <r_lp_Energy>
57.2527

> <b_lp_Chiralities_Consistent>
1

> <s_lp_Variant>
AV-unprocessed.smi:862-3

> <Gold.Version>
5.8.1

> <Gold.Id.Protein>
6NUR|6NUR_protein|mol2

> <Gold.PLP.Fitness>
38.5615

> <Gold.PLP.PLP>
-25.8094

> <Gold.PLP.part.hbond>
-3.8004

> <Gold.PLP.part.metal>
0.0000

> <Gold.PLP.part.buried>
3.2523

> <Gold.PLP.part.nonpolar>
-26.1412

> <Gold.PLP.part.repulsive>
0.3216

> <Gold.PLP.ligand.clash>
0.0000

> <Gold.PLP.ligand.torsion>
1.1116

> <Gold.PLP.Chemscore.Hbond>
4.1245

> <Gold.PLP.Chemscore.CHOScore>
0.8408

> <Gold.PLP.Chemscore.Metal>
0.0000

> <Gold.Chemscore.Hbonds>
donor molecule, donor type, donor heavy atom, donor atom, acceptor molecule, acceptor atom, score
      L1  H     1    21       P1 10957  1.00
      L1  H     8    28       P1  7948  1.17
      L1  H     8    44       P1  7957  0.91
      P1  H 10752 10764       L1    17  0.62
      L1  C    15    37       P1  7957  0.84
      L1  C    16    38       P1  7949  0.01

> <Gold.PLP.Chemscore.Internal.Correction>
0.0795

> <Gold.Rescore>
     Score         DG    S(hbond)    S(metal)    S(lipo)     H(rot)  DE(clash)    DE(int)     intcor
     16.12     -19.64       2.92        0.00      73.58       1.64       2.45       1.07       ----

> <Gold.Chemscore.Fitness>
16.1217

> <Gold.Chemscore.DG>
-19.6356

> <Gold.Chemscore.ZeroCoef>
-5.4800

> <Gold.Chemscore.Hbond>
2.9187

> <Gold.Chemscore.Metal>
0.0000

> <Gold.Chemscore.Lipo>
73.5777

> <Gold.Chemscore.Internal_Hbond>
0.0000

> <Gold.Chemscore.DEClash>
2.4452

> <Gold.Chemscore.DEInternal>
1.0687

> <Gold.Chemscore.Rot>
1.6411

> <Gold.Chemscore.Internal.Correction>
   9.000000E+99

> <Gold.Chemscore.Hbonds>
donor molecule, donor type, donor heavy atom, donor atom, acceptor molecule, acceptor atom, score
      L1  H     1    21       P1 10957  0.97
      L1  H     8    28       P1  7948  0.55
      L1  H     8    44       P1  7957  0.85
      P1  H 10752 10764       L1    17  0.09

> <Gold.Chemscore.Hbond.Weighted>
-9.7483

> <Gold.Chemscore.Metal.Weighted>
-0.0000

> <Gold.Chemscore.Lipo.Weighted>
-8.6086

> <Gold.Chemscore.Internal_Hbond.Weighted>
0.0000

> <Gold.Chemscore.DEClash.Weighted>
2.4452

> <Gold.Chemscore.DEInternal.Weighted>
1.0687

> <Gold.Chemscore.Rot.Weighted>
4.2013

> <Gold.Chemscore.Internal.Correction.Weighted>
   9.000000E+99

> <Gold.Protein.RotatedTorsions>
[ 6907 6896 6895 6894 ] final  -32.94 input  -60.11 | X-H torsion
[ 7974 7965 7964 7962 ] final    4.50 input  175.53 | X-H torsion
[ 8008 7997 7996 7995 ] final -165.09 input   59.86 | X-H torsion
[ 10167 10162 10161 10158 ] final  141.19 input  -65.29 | X-H torsion
[ 10718 10713 10712 10709 ] final  118.13 input   66.30 | X-H torsion
[ 10763 10752 10751 10750 ] final  -56.57 input  -60.55 | X-H torsion
[ 11005 11000 10999 10996 ] final   73.53 input  -57.11 | X-H torsion

> <Gold.Protein.ActiveResidues>
 VAL166  LYS551  ARG553  GLY616  TRP617  ASP618  TYR619  PRO620  LYS621  CYS622 
 ASP623  PHE694  ASN695  SER759  ASP760  ASP761  ALA762  ILE779  LEU786  VAL792 
 PHE793  MET794  SER795  GLU796  ALA797  LYS798  CYS799  TRP800  GLU811  SER814 

> <Gold.Protein.RotatedAtoms>
  151.0721  134.9805  159.8313 H   0  0  0  0  0  0  0  0  0  0  0  0  # atno 6907 bound_to 6896
  152.5409  134.2286  159.8826 H   0  0  0  0  0  0  0  0  0  0  0  0  # atno 6908 bound_to 6896
  151.2311  133.4406  159.2637 H   0  0  0  0  0  0  0  0  0  0  0  0  # atno 6909 bound_to 6896
  146.2444  140.0525  142.8374 H   0  0  0  0  0  0  0  0  0  0  0  0  # atno 7974 bound_to 7965
  155.8449  140.0954  157.1711 H   0  0  0  0  0  0  0  0  0  0  0  0  # atno 8008 bound_to 7997
  154.3983  140.1394  156.3835 H   0  0  0  0  0  0  0  0  0  0  0  0  # atno 8009 bound_to 7997
  155.8024  140.3452  155.5413 H   0  0  0  0  0  0  0  0  0  0  0  0  # atno 8010 bound_to 7997
  139.5027  144.6187  151.6103 H   0  0  0  0  0  0  0  0  0  0  0  0  # atno 10167 bound_to 10162
  157.6050  131.1045  150.7713 H   0  0  0  0  0  0  0  0  0  0  0  0  # atno 10718 bound_to 10713
  154.2088  135.6398  153.5109 H   0  0  0  0  0  0  0  0  0  0  0  0  # atno 10763 bound_to 10752
  152.9994  135.5469  154.6237 H   0  0  0  0  0  0  0  0  0  0  0  0  # atno 10764 bound_to 10752
  154.5669  135.2913  155.0839 H   0  0  0  0  0  0  0  0  0  0  0  0  # atno 10765 bound_to 10752
  139.9436  134.7354  156.1037 H   0  0  0  0  0  0  0  0  0  0  0  0  # atno 11005 bound_to 11000
  145.0972  140.9322  143.4734 LP  0  0  0  0  0  0  0  0  0  0  0  0  # atno 17320 bound_to 7965
  145.0710  139.3031  143.5832 LP  0  0  0  0  0  0  0  0  0  0  0  0  # atno 17321 bound_to 7965
  140.5882  143.9826  150.6308 LP  0  0  0  0  0  0  0  0  0  0  0  0  # atno 17342 bound_to 10162
  140.2998  143.3268  152.0983 LP  0  0  0  0  0  0  0  0  0  0  0  0  # atno 17343 bound_to 10162
  156.8103  130.4950  149.5357 LP  0  0  0  0  0  0  0  0  0  0  0  0  # atno 17370 bound_to 10713
  156.1134  130.6057  151.0083 LP  0  0  0  0  0  0  0  0  0  0  0  0  # atno 17371 bound_to 10713
  141.1078  133.6653  156.2907 LP  0  0  0  0  0  0  0  0  0  0  0  0  # atno 17394 bound_to 11000
  140.5891  134.5668  157.5496 LP  0  0  0  0  0  0  0  0  0  0  0  0  # atno 17395 bound_to 11000

$$$$
