AV-unprocessed.smi:1629|AV-procd|sdf|6524|dock10
  -GOLD-   22720 7203D 1   1.00000     0.00000
 Structure written by MMmdl.
 44 45  0  0  0  0  0  0  0  0  3 V2000
  148.1156  135.4480  160.4352 C   0  0  0  0  0  0  0  0  0  0  0  0
  147.7242  133.9464  159.4528 S   0  0  0  0  0  0  0  0  0  0  0  0
  147.7146  132.8314  160.4136 O   0  0  0  0  0  0  0  0  0  0  0  0
  146.4634  134.2424  158.7536 O   0  0  0  0  0  0  0  0  0  0  0  0
  148.9993  133.9042  158.4517 N   0  5  0  0  0  0  0  0  0  0  0  0
  148.9097  134.5273  157.1392 C   0  0  0  0  0  0  0  0  0  0  0  0
  150.2334  134.3477  156.3467 C   0  0  0  0  0  0  0  0  0  0  0  0
  150.2920  135.1987  155.0478 C   0  0  0  0  0  0  0  0  0  0  0  0
  150.0843  136.6321  155.3504 N   0  0  0  0  0  0  0  0  0  0  0  0
  151.0103  137.6211  155.2897 C   0  0  0  0  0  0  0  0  0  0  0  0
  152.0831  137.5084  154.6945 O   0  0  0  0  0  0  0  0  0  0  0  0
  150.6681  138.7505  155.9325 N   0  0  0  0  0  0  0  0  0  0  0  0
  151.4735  139.9645  155.9887 C   0  0  0  0  0  0  0  0  0  0  0  0
  150.5957  141.2188  156.1367 C   0  0  0  0  0  0  0  0  0  0  0  0
  151.0508  142.1056  157.2788 C   0  0  0  0  0  0  0  0  0  0  0  0
  151.8591  141.6208  158.3299 C   0  0  0  0  0  0  0  0  0  0  0  0
  152.2409  142.4982  159.3664 C   0  0  0  0  0  0  0  0  0  0  0  0
  151.8060  143.8393  159.3307 C   0  0  0  0  0  0  0  0  0  0  0  0
  150.9985  144.2697  158.2582 C   0  0  0  0  0  0  0  0  0  0  0  0
  150.6537  143.3987  157.2841 N   0  3  0  0  0  0  0  0  0  0  0  0
  148.7498  136.8275  155.9470 C   0  0  0  0  0  0  0  0  0  0  0  0
  148.6273  136.0460  157.2854 C   0  0  0  0  0  0  0  0  0  0  0  0
  147.3235  135.6185  161.1637 H   0  0  0  0  0  0  0  0  0  0  0  0
  148.1888  136.3080  159.7703 H   0  0  0  0  0  0  0  0  0  0  0  0
  149.0627  135.3061  160.9545 H   0  0  0  0  0  0  0  0  0  0  0  0
  148.0994  134.1015  156.5461 H   0  0  0  0  0  0  0  0  0  0  0  0
  151.0792  134.6218  156.9794 H   0  0  0  0  0  0  0  0  0  0  0  0
  150.3732  133.2967  156.0928 H   0  0  0  0  0  0  0  0  0  0  0  0
  151.2317  134.9963  154.5349 H   0  0  0  0  0  0  0  0  0  0  0  0
  149.5219  134.8750  154.3440 H   0  0  0  0  0  0  0  0  0  0  0  0
  149.7749  138.7702  156.4031 H   0  0  0  0  0  0  0  0  0  0  0  0
  152.1507  139.8793  156.8390 H   0  0  0  0  0  0  0  0  0  0  0  0
  152.0999  140.0375  155.0979 H   0  0  0  0  0  0  0  0  0  0  0  0
  150.6068  141.8009  155.2143 H   0  0  0  0  0  0  0  0  0  0  0  0
  149.5566  140.9311  156.3043 H   0  0  0  0  0  0  0  0  0  0  0  0
  152.1822  140.5898  158.3441 H   0  0  0  0  0  0  0  0  0  0  0  0
  152.8594  142.1464  160.1791 H   0  0  0  0  0  0  0  0  0  0  0  0
  152.0877  144.5272  160.1146 H   0  0  0  0  0  0  0  0  0  0  0  0
  150.6205  145.2760  158.1509 H   0  0  0  0  0  0  0  0  0  0  0  0
  148.5318  137.8806  156.1285 H   0  0  0  0  0  0  0  0  0  0  0  0
  147.9887  136.5002  155.2353 H   0  0  0  0  0  0  0  0  0  0  0  0
  147.6314  136.1948  157.7045 H   0  0  0  0  0  0  0  0  0  0  0  0
  149.3255  136.4812  158.0024 H   0  0  0  0  0  0  0  0  0  0  0  0
  150.0688  143.7315  156.5172 H   0  0  0  0  0  0  0  0  0  0  0  0
  1  2  1  0  0  0  0
  1 23  1  0  0  0  0
  1 24  1  0  0  0  0
  1 25  1  0  0  0  0
  2  3  2  0  0  0  0
  2  4  2  0  0  0  0
  2  5  1  0  0  0  0
  5  6  1  0  0  0  0
  6 22  1  0  0  0  0
  6  7  1  0  0  0  0
  6 26  1  0  0  0  0
  7  8  1  0  0  0  0
  7 27  1  0  0  0  0
  7 28  1  0  0  0  0
  8  9  1  0  0  0  0
  8 29  1  0  0  0  0
  8 30  1  0  0  0  0
  9 10  1  0  0  0  0
  9 21  1  0  0  0  0
 10 11  2  0  0  0  0
 10 12  1  0  0  0  0
 12 13  1  0  0  0  0
 12 31  1  0  0  0  0
 13 14  1  0  0  0  0
 13 32  1  0  0  0  0
 13 33  1  0  0  0  0
 14 15  1  0  0  0  0
 14 34  1  0  0  0  0
 14 35  1  0  0  0  0
 15 20  1  0  0  0  0
 15 16  2  0  0  0  0
 16 17  1  0  0  0  0
 16 36  1  0  0  0  0
 17 18  2  0  0  0  0
 17 37  1  0  0  0  0
 18 19  1  0  0  0  0
 18 38  1  0  0  0  0
 19 20  2  0  0  0  0
 19 39  1  0  0  0  0
 20 44  1  0  0  0  0
 21 22  1  0  0  0  0
 21 40  1  0  0  0  0
 21 41  1  0  0  0  0
 22 42  1  0  0  0  0
 22 43  1  0  0  0  0
M  CHG  1   5  -1
M  CHG  1  20   1
M  END
> <s_m_source_file>
AV-unprocessed.smi

> <i_m_source_file_index>
1629

> <i_lp_mmshare_version>
43012

> <i_f3d_flags>
0

> <s_epik_input>
W0NIM11TKD1PKSg9TylbTkhdW0NIXTFbQ0gyXVtDSDJdTihbQ0gyXVtDSDJdMSlDKD1PKVtOSF1bQ0gyXVtDSDJdYzJbY0hdW2NIXVtjSF1bY0hdbjI=

> <s_epik_cmdline>
J2VwaWtfcHl0aG9uJywgJy1waCcsICc3LjAnLCAnLXRuJywgJzgnLCAnLW1hJywgJzIwMCcsICctbWV0YWxfYmluZGluZycsICctaW1hZScsICc8aW5maWxlLm1hZT4nLCAnLW9tYWUnLCAnPG91dGZpbGUubWFlPic=

> <r_epik_Ionization_Penalty>
8.25917

> <r_epik_Ionization_Penalty_Charging>
8.2591

> <r_epik_Ionization_Penalty_Neutral>
6.17235e-05

> <r_epik_State_Penalty>
8.35449

> <r_epik_Charging_Adjusted_Penalty>
16.6136

> <i_epik_Tot_Q>
0

> <i_epik_Tot_abs_Q>
2

> <r_epik_Metal_State_Penalty>
4.3175

> <b_epik_Metal_Only>
1

> <s_lp_Force_Field>
OPLS_2005

> <r_lp_Energy>
28.7999

> <b_lp_Chiralities_Consistent>
1

> <s_lp_Variant>
AV-unprocessed.smi:1629-4

> <Gold.Version>
5.8.1

> <Gold.Id.Protein>
6NUR|6NUR_protein|mol2

> <Gold.PLP.Fitness>
47.4601

> <Gold.PLP.PLP>
-36.0963

> <Gold.PLP.part.hbond>
-3.0000

> <Gold.PLP.part.metal>
0.0000

> <Gold.PLP.part.buried>
-6.5151

> <Gold.PLP.part.nonpolar>
-27.1396

> <Gold.PLP.part.repulsive>
0.1660

> <Gold.PLP.ligand.clash>
1.2198

> <Gold.PLP.ligand.torsion>
1.3724

> <Gold.PLP.Chemscore.Hbond>
4.7613

> <Gold.PLP.Chemscore.CHOScore>
0.0000

> <Gold.PLP.Chemscore.Metal>
0.0000

> <Gold.Chemscore.Hbonds>
donor molecule, donor type, donor heavy atom, donor atom, acceptor molecule, acceptor atom, score
      L1  H    20    44       P1  8028  2.00
      P1  H  6896  6909       L1     5  2.00
      P1  H 10752 10765       L1    11  0.76

> <Gold.PLP.Chemscore.Internal.Correction>
1.0445

> <Gold.Rescore>
     Score         DG    S(hbond)    S(metal)    S(lipo)     H(rot)  DE(clash)    DE(int)     intcor
     19.01     -20.48       2.79        0.00      87.25       1.77       0.15       1.32       ----

> <Gold.Chemscore.Fitness>
19.0111

> <Gold.Chemscore.DG>
-20.4847

> <Gold.Chemscore.ZeroCoef>
-5.4800

> <Gold.Chemscore.Hbond>
2.7898

> <Gold.Chemscore.Metal>
0.0000

> <Gold.Chemscore.Lipo>
87.2461

> <Gold.Chemscore.Internal_Hbond>
0.0000

> <Gold.Chemscore.DEClash>
0.1545

> <Gold.Chemscore.DEInternal>
1.3191

> <Gold.Chemscore.Rot>
1.7661

> <Gold.Chemscore.Internal.Correction>
   9.000000E+99

> <Gold.Chemscore.Hbonds>
donor molecule, donor type, donor heavy atom, donor atom, acceptor molecule, acceptor atom, score
      L1  H    20    44       P1  8028  0.99
      P1  H  6896  6909       L1     5  0.80
      P1  H 10752 10765       L1    11  0.71

> <Gold.Chemscore.Hbond.Weighted>
-9.3180

> <Gold.Chemscore.Metal.Weighted>
-0.0000

> <Gold.Chemscore.Lipo.Weighted>
-10.2078

> <Gold.Chemscore.Internal_Hbond.Weighted>
0.0000

> <Gold.Chemscore.DEClash.Weighted>
0.1545

> <Gold.Chemscore.DEInternal.Weighted>
1.3191

> <Gold.Chemscore.Rot.Weighted>
4.5211

> <Gold.Chemscore.Internal.Correction.Weighted>
   9.000000E+99

> <Gold.Protein.RotatedTorsions>
[ 6907 6896 6895 6894 ] final   19.88 input  -60.11 | X-H torsion
[ 7974 7965 7964 7962 ] final -117.88 input  175.53 | X-H torsion
[ 8008 7997 7996 7995 ] final  -44.61 input   59.86 | X-H torsion
[ 10167 10162 10161 10158 ] final  -56.33 input  -65.29 | X-H torsion
[ 10718 10713 10712 10709 ] final  -76.69 input   66.30 | X-H torsion
[ 10763 10752 10751 10750 ] final  165.26 input  -60.55 | X-H torsion
[ 11005 11000 10999 10996 ] final -150.37 input  -57.11 | X-H torsion

> <Gold.Protein.ActiveResidues>
 VAL166  LYS551  ARG553  GLY616  TRP617  ASP618  TYR619  PRO620  LYS621  CYS622 
 ASP623  PHE694  ASN695  SER759  ASP760  ASP761  ALA762  ILE779  LEU786  VAL792 
 PHE793  MET794  SER795  GLU796  ALA797  LYS798  CYS799  TRP800  GLU811  SER814 

> <Gold.Protein.RotatedAtoms>
  151.8877  135.0428  160.0494 H   0  0  0  0  0  0  0  0  0  0  0  0  # atno 6907 bound_to 6896
  152.2461  133.5171  159.5306 H   0  0  0  0  0  0  0  0  0  0  0  0  # atno 6908 bound_to 6896
  150.7069  134.0940  159.3984 H   0  0  0  0  0  0  0  0  0  0  0  0  # atno 6909 bound_to 6896
  145.0802  140.8420  143.4043 H   0  0  0  0  0  0  0  0  0  0  0  0  # atno 7974 bound_to 7965
  154.3998  140.1418  156.3712 H   0  0  0  0  0  0  0  0  0  0  0  0  # atno 8008 bound_to 7997
  155.8091  140.3473  155.5426 H   0  0  0  0  0  0  0  0  0  0  0  0  # atno 8009 bound_to 7997
  155.8405  140.0926  157.1728 H   0  0  0  0  0  0  0  0  0  0  0  0  # atno 8010 bound_to 7997
  140.6323  143.2465  151.5208 H   0  0  0  0  0  0  0  0  0  0  0  0  # atno 10167 bound_to 10162
  156.0167  130.4472  150.3231 H   0  0  0  0  0  0  0  0  0  0  0  0  # atno 10718 bound_to 10713
  154.3214  135.2756  155.2518 H   0  0  0  0  0  0  0  0  0  0  0  0  # atno 10763 bound_to 10752
  154.4869  135.5843  153.6434 H   0  0  0  0  0  0  0  0  0  0  0  0  # atno 10764 bound_to 10752
  152.9876  135.6125  154.3399 H   0  0  0  0  0  0  0  0  0  0  0  0  # atno 10765 bound_to 10752
  140.7409  134.3515  157.5147 H   0  0  0  0  0  0  0  0  0  0  0  0  # atno 11005 bound_to 11000
  145.1187  139.2708  143.5599 LP  0  0  0  0  0  0  0  0  0  0  0  0  # atno 17320 bound_to 7965
  146.3531  140.0805  142.8618 LP  0  0  0  0  0  0  0  0  0  0  0  0  # atno 17321 bound_to 7965
  139.5536  144.2331  152.1574 LP  0  0  0  0  0  0  0  0  0  0  0  0  # atno 17342 bound_to 10162
  140.1578  144.5054  150.6650 LP  0  0  0  0  0  0  0  0  0  0  0  0  # atno 17343 bound_to 10162
  157.1331  131.0277  151.2960 LP  0  0  0  0  0  0  0  0  0  0  0  0  # atno 17370 bound_to 10713
  157.4534  130.7611  149.7171 LP  0  0  0  0  0  0  0  0  0  0  0  0  # atno 17371 bound_to 10713
  139.8806  134.9080  156.2958 LP  0  0  0  0  0  0  0  0  0  0  0  0  # atno 17394 bound_to 11000
  140.9837  133.7251  156.0710 LP  0  0  0  0  0  0  0  0  0  0  0  0  # atno 17395 bound_to 11000

$$$$
