AV-unprocessed.smi:493|AV-procd|sdf|2712|dock2
  -GOLD-   2262023153D 1   1.00000     0.00000
 Structure written by MMmdl.
 46 47  0  0  0  0  0  0  0  0  1 V2000
  145.3619  135.9706  162.4984 C   0  0  0  0  0  0  0  0  0  0  0  0
  146.8604  136.0063  162.1500 C   0  0  0  0  0  0  0  0  0  0  0  0
  147.5554  137.0626  163.0347 C   0  0  0  0  0  0  0  0  0  0  0  0
  147.4654  134.6081  162.3971 C   0  0  0  0  0  0  0  0  0  0  0  0
  146.9599  136.3707  160.7316 N   0  0  0  0  0  0  0  0  0  0  0  0
  148.0656  136.6124  160.0053 C   0  0  0  0  0  0  0  0  0  0  0  0
  149.2080  136.5762  160.4635 O   0  0  0  0  0  0  0  0  0  0  0  0
  147.8270  136.9696  158.5313 C   0  0  0  0  0  0  0  0  0  0  0  0
  149.0481  136.8977  157.7120 N   0  0  0  0  0  0  0  0  0  0  0  0
  149.6844  138.1151  157.4020 C   0  0  0  0  0  0  0  0  0  0  0  0
  150.8190  138.1572  156.6844 C   0  0  0  0  0  0  0  0  0  0  0  0
  151.5332  139.7446  156.1853 S   0  0  0  0  0  0  0  0  0  0  0  0
  152.9421  139.4959  155.8438 O   0  0  0  0  0  0  0  0  0  0  0  0
  150.6330  140.3488  155.1904 O   0  0  0  0  0  0  0  0  0  0  0  0
  151.5082  140.7634  157.5855 N   0  0  0  0  0  0  0  0  0  0  0  0
  152.3178  140.3615  158.7437 C   0  0  0  0  0  0  0  0  0  0  0  0
  153.2004  141.5656  159.0697 C   0  0  0  0  0  0  0  0  0  0  0  0
  152.3455  142.7454  158.6335 C   0  0  0  0  0  0  0  0  0  0  0  0
  151.6310  142.2161  157.3904 C   0  0  0  0  0  0  0  0  0  0  0  0
  151.3538  136.9180  156.1705 C   0  0  0  0  0  0  0  0  0  0  0  0
  150.7423  135.7497  156.4494 C   0  0  0  0  0  0  0  0  0  0  0  0
  149.5276  135.6931  157.2715 C   0  0  0  0  0  0  0  0  0  0  0  0
  148.9733  134.6282  157.5451 O   0  0  0  0  0  0  0  0  0  0  0  0
  145.2038  135.7021  163.5436 H   0  0  0  0  0  0  0  0  0  0  0  0
  144.8280  135.2403  161.8889 H   0  0  0  0  0  0  0  0  0  0  0  0
  144.8914  136.9411  162.3352 H   0  0  0  0  0  0  0  0  0  0  0  0
  147.1620  138.0616  162.8442 H   0  0  0  0  0  0  0  0  0  0  0  0
  148.6319  137.0945  162.8674 H   0  0  0  0  0  0  0  0  0  0  0  0
  147.4046  136.8481  164.0931 H   0  0  0  0  0  0  0  0  0  0  0  0
  147.3079  134.2894  163.4281 H   0  0  0  0  0  0  0  0  0  0  0  0
  148.5407  134.5895  162.2198 H   0  0  0  0  0  0  0  0  0  0  0  0
  147.0114  133.8573  161.7491 H   0  0  0  0  0  0  0  0  0  0  0  0
  146.0797  136.4393  160.2417 H   0  0  0  0  0  0  0  0  0  0  0  0
  147.0598  136.3124  158.1171 H   0  0  0  0  0  0  0  0  0  0  0  0
  147.3963  137.9709  158.4913 H   0  0  0  0  0  0  0  0  0  0  0  0
  149.1925  139.0002  157.7785 H   0  0  0  0  0  0  0  0  0  0  0  0
  151.6501  140.1329  159.5749 H   0  0  0  0  0  0  0  0  0  0  0  0
  152.9100  139.4708  158.5296 H   0  0  0  0  0  0  0  0  0  0  0  0
  153.4836  141.6114  160.1217 H   0  0  0  0  0  0  0  0  0  0  0  0
  154.1137  141.5285  158.4740 H   0  0  0  0  0  0  0  0  0  0  0  0
  151.6164  142.9817  159.4097 H   0  0  0  0  0  0  0  0  0  0  0  0
  152.9308  143.6435  158.4349 H   0  0  0  0  0  0  0  0  0  0  0  0
  152.2311  142.4152  156.5017 H   0  0  0  0  0  0  0  0  0  0  0  0
  150.6520  142.6741  157.2480 H   0  0  0  0  0  0  0  0  0  0  0  0
  152.2473  136.9242  155.5640 H   0  0  0  0  0  0  0  0  0  0  0  0
  151.1559  134.8309  156.0603 H   0  0  0  0  0  0  0  0  0  0  0  0
  1  2  1  0  0  0  0
  1 24  1  0  0  0  0
  1 25  1  0  0  0  0
  1 26  1  0  0  0  0
  2  3  1  0  0  0  0
  2  4  1  0  0  0  0
  2  5  1  0  0  0  0
  3 27  1  0  0  0  0
  3 28  1  0  0  0  0
  3 29  1  0  0  0  0
  4 30  1  0  0  0  0
  4 31  1  0  0  0  0
  4 32  1  0  0  0  0
  5  6  1  0  0  0  0
  5 33  1  0  0  0  0
  6  7  2  0  0  0  0
  6  8  1  0  0  0  0
  8  9  1  0  0  0  0
  8 34  1  0  0  0  0
  8 35  1  0  0  0  0
  9 22  1  0  0  0  0
  9 10  1  0  0  0  0
 10 11  2  0  0  0  0
 10 36  1  0  0  0  0
 11 12  1  0  0  0  0
 11 20  1  0  0  0  0
 12 13  2  0  0  0  0
 12 14  2  0  0  0  0
 12 15  1  0  0  0  0
 15 19  1  0  0  0  0
 15 16  1  0  0  0  0
 16 17  1  0  0  0  0
 16 37  1  0  0  0  0
 16 38  1  0  0  0  0
 17 18  1  0  0  0  0
 17 39  1  0  0  0  0
 17 40  1  0  0  0  0
 18 19  1  0  0  0  0
 18 41  1  0  0  0  0
 18 42  1  0  0  0  0
 19 43  1  0  0  0  0
 19 44  1  0  0  0  0
 20 21  2  0  0  0  0
 20 45  1  0  0  0  0
 21 22  1  0  0  0  0
 21 46  1  0  0  0  0
 22 23  2  0  0  0  0
M  END
> <s_m_source_file>
AV-unprocessed.smi

> <i_m_source_file_index>
493

> <i_lp_mmshare_version>
43012

> <i_f3d_flags>
0

> <s_epik_input>
W0NIM11DKFtDSDNdKShbQ0gzXSlbTkhdQyg9TylbQ0gyXW4xW2NIXWMoW2NIXVtjSF1jMT1PKVMoPU8pKD1PKU4yW0NIMl1bQ0gyXVtDSDJdW0NIMl0y

> <s_epik_cmdline>
J2VwaWtfcHl0aG9uJywgJy1waCcsICc3LjAnLCAnLXRuJywgJzgnLCAnLW1hJywgJzIwMCcsICctbWV0YWxfYmluZGluZycsICctaW1hZScsICc8aW5maWxlLm1hZT4nLCAnLW9tYWUnLCAnPG91dGZpbGUubWFlPic=

> <r_lp_tautomer_probability>
1

> <r_epik_Ionization_Penalty>
3.47616e-08

> <r_epik_Ionization_Penalty_Charging>
1.01201e-08

> <r_epik_Ionization_Penalty_Neutral>
2.46415e-08

> <r_epik_State_Penalty>
-0

> <r_epik_Charging_Adjusted_Penalty>
1.01201e-08

> <i_epik_Tot_Q>
0

> <i_epik_Tot_abs_Q>
0

> <r_epik_Metal_State_Penalty>
-0

> <b_epik_Metal_Only>
0

> <s_lp_Force_Field>
OPLS_2005

> <r_lp_Energy>
19.4052

> <b_lp_Chiralities_Consistent>
1

> <s_lp_Variant>
AV-unprocessed.smi:493-1

> <Gold.Version>
5.8.1

> <Gold.Id.Protein>
6NUR|6NUR_protein|mol2

> <Gold.PLP.Fitness>
43.3178

> <Gold.PLP.PLP>
-33.6411

> <Gold.PLP.part.hbond>
-3.7807

> <Gold.PLP.part.metal>
0.0000

> <Gold.PLP.part.buried>
-3.6756

> <Gold.PLP.part.nonpolar>
-26.3673

> <Gold.PLP.part.repulsive>
0.1577

> <Gold.PLP.ligand.clash>
0.0000

> <Gold.PLP.ligand.torsion>
2.0475

> <Gold.PLP.Chemscore.Hbond>
3.7663

> <Gold.PLP.Chemscore.CHOScore>
0.0000

> <Gold.PLP.Chemscore.Metal>
0.0000

> <Gold.Chemscore.Hbonds>
donor molecule, donor type, donor heavy atom, donor atom, acceptor molecule, acceptor atom, score
      P1  H  6931  6943       L1     7  0.42
      P1  H  7989  7998       L1    14  1.00
      P1  H  7997  8008       L1    13  1.00

> <Gold.PLP.Chemscore.Internal.Correction>
2.4730

> <Gold.Rescore>
     Score         DG    S(hbond)    S(metal)    S(lipo)     H(rot)  DE(clash)    DE(int)     intcor
     18.81     -21.33       2.97        0.00      86.27       1.62       0.30       2.23       ----

> <Gold.Chemscore.Fitness>
18.8058

> <Gold.Chemscore.DG>
-21.3282

> <Gold.Chemscore.ZeroCoef>
-5.4800

> <Gold.Chemscore.Hbond>
2.9662

> <Gold.Chemscore.Metal>
0.0000

> <Gold.Chemscore.Lipo>
86.2724

> <Gold.Chemscore.Internal_Hbond>
0.0000

> <Gold.Chemscore.DEClash>
0.2962

> <Gold.Chemscore.DEInternal>
2.2262

> <Gold.Chemscore.Rot>
1.6222

> <Gold.Chemscore.Internal.Correction>
   9.000000E+99

> <Gold.Chemscore.Hbonds>
donor molecule, donor type, donor heavy atom, donor atom, acceptor molecule, acceptor atom, score
      P1  H  6931  6943       L1     7  0.10
      P1  H  7989  7998       L1    14  0.75
      P1  H  7997  8008       L1    13  0.99

> <Gold.Chemscore.Hbond.Weighted>
-9.9071

> <Gold.Chemscore.Metal.Weighted>
-0.0000

> <Gold.Chemscore.Lipo.Weighted>
-10.0939

> <Gold.Chemscore.Internal_Hbond.Weighted>
0.0000

> <Gold.Chemscore.DEClash.Weighted>
0.2962

> <Gold.Chemscore.DEInternal.Weighted>
2.2262

> <Gold.Chemscore.Rot.Weighted>
4.1528

> <Gold.Chemscore.Internal.Correction.Weighted>
   9.000000E+99

> <Gold.Protein.RotatedTorsions>
[ 6907 6896 6895 6894 ] final    8.04 input  -60.11 | X-H torsion
[ 7974 7965 7964 7962 ] final  102.74 input  175.53 | X-H torsion
[ 8008 7997 7996 7995 ] final  -20.48 input   59.86 | X-H torsion
[ 10167 10162 10161 10158 ] final  105.22 input  -65.29 | X-H torsion
[ 10718 10713 10712 10709 ] final   24.10 input   66.30 | X-H torsion
[ 10763 10752 10751 10750 ] final   13.76 input  -60.55 | X-H torsion
[ 11005 11000 10999 10996 ] final  145.62 input  -57.11 | X-H torsion

> <Gold.Protein.ActiveResidues>
 VAL166  LYS551  ARG553  GLY616  TRP617  ASP618  TYR619  PRO620  LYS621  CYS622 
 ASP623  PHE694  ASN695  SER759  ASP760  ASP761  ALA762  ILE779  LEU786  VAL792 
 PHE793  MET794  SER795  GLU796  ALA797  LYS798  CYS799  TRP800  GLU811  SER814 

> <Gold.Protein.RotatedAtoms>
  151.6996  135.0932  160.0248 H   0  0  0  0  0  0  0  0  0  0  0  0  # atno 6907 bound_to 6896
  152.3728  133.6437  159.6109 H   0  0  0  0  0  0  0  0  0  0  0  0  # atno 6908 bound_to 6896
  150.7686  133.9158  159.3424 H   0  0  0  0  0  0  0  0  0  0  0  0  # atno 6909 bound_to 6896
  145.3551  139.2430  143.3537 H   0  0  0  0  0  0  0  0  0  0  0  0  # atno 7974 bound_to 7965
  154.4767  140.2060  155.9862 H   0  0  0  0  0  0  0  0  0  0  0  0  # atno 8008 bound_to 7997
  156.1100  140.3230  155.8029 H   0  0  0  0  0  0  0  0  0  0  0  0  # atno 8009 bound_to 7997
  155.4651  140.0527  157.2977 H   0  0  0  0  0  0  0  0  0  0  0  0  # atno 8010 bound_to 7997
  139.7111  144.7077  151.1025 H   0  0  0  0  0  0  0  0  0  0  0  0  # atno 10167 bound_to 10162
  157.1751  130.6777  149.6092 H   0  0  0  0  0  0  0  0  0  0  0  0  # atno 10718 bound_to 10713
  153.1688  135.6809  153.8637 H   0  0  0  0  0  0  0  0  0  0  0  0  # atno 10763 bound_to 10752
  153.8007  135.3156  155.3391 H   0  0  0  0  0  0  0  0  0  0  0  0  # atno 10764 bound_to 10752
  154.7984  135.4793  154.0307 H   0  0  0  0  0  0  0  0  0  0  0  0  # atno 10765 bound_to 10752
  140.0727  134.9142  157.1371 H   0  0  0  0  0  0  0  0  0  0  0  0  # atno 11005 bound_to 11000
  146.2951  140.4174  142.8724 LP  0  0  0  0  0  0  0  0  0  0  0  0  # atno 17320 bound_to 7965
  144.8688  140.7244  143.6060 LP  0  0  0  0  0  0  0  0  0  0  0  0  # atno 17321 bound_to 7965
  140.7733  143.5291  150.9444 LP  0  0  0  0  0  0  0  0  0  0  0  0  # atno 17342 bound_to 10162
  139.8976  143.6875  152.3136 LP  0  0  0  0  0  0  0  0  0  0  0  0  # atno 17343 bound_to 10162
  155.9732  130.4666  150.6294 LP  0  0  0  0  0  0  0  0  0  0  0  0  # atno 17370 bound_to 10713
  157.4006  131.0809  151.1312 LP  0  0  0  0  0  0  0  0  0  0  0  0  # atno 17371 bound_to 10713
  140.3604  134.2501  155.7188 LP  0  0  0  0  0  0  0  0  0  0  0  0  # atno 17394 bound_to 11000
  141.2018  133.7954  157.0424 LP  0  0  0  0  0  0  0  0  0  0  0  0  # atno 17395 bound_to 11000

$$$$
