AV-unprocessed.smi:1621|AV-procd|sdf|6495|dock2
  -GOLD-   22720 7153D 1   1.00000     0.00000
 Structure written by MMmdl.
 40 41  0  0  0  0  0  0  0  0  3 V2000
  143.4709  132.8766  148.2761 C   0  0  0  0  0  0  0  0  0  0  0  0
  143.7781  133.5547  149.5537 N   0  3  2  0  0  0  0  0  0  0  0  0
  144.6879  134.7126  149.3730 C   0  0  0  0  0  0  0  0  0  0  0  0
  144.8917  135.4689  150.6963 C   0  0  0  0  0  0  0  0  0  0  0  0
  145.4209  134.5339  151.8023 C   0  0  1  0  0  0  0  0  0  0  0  0
  145.6013  135.2528  153.1563 C   0  0  0  0  0  0  0  0  0  0  0  0
  146.6205  136.2971  153.1101 N   0  0  0  0  0  0  0  0  0  0  0  0
  146.5367  137.4839  153.7285 C   0  0  0  0  0  0  0  0  0  0  0  0
  145.5760  137.8186  154.4204 O   0  0  0  0  0  0  0  0  0  0  0  0
  147.6220  138.2383  153.4803 N   0  0  0  0  0  0  0  0  0  0  0  0
  147.9185  139.5590  153.9189 C   0  0  0  0  0  0  0  0  0  0  0  0
  146.8628  140.4979  153.9006 C   0  0  0  0  0  0  0  0  0  0  0  0
  147.1011  141.8242  154.3149 C   0  0  0  0  0  0  0  0  0  0  0  0
  148.3363  142.1903  154.7186 N   0  3  0  0  0  0  0  0  0  0  0  0
  149.3794  141.3336  154.7425 C   0  0  0  0  0  0  0  0  0  0  0  0
  149.2020  139.9941  154.3396 C   0  0  0  0  0  0  0  0  0  0  0  0
  144.4718  133.3292  151.9355 C   0  0  0  0  0  0  0  0  0  0  0  0
  144.2759  132.6144  150.5879 C   0  0  0  0  0  0  0  0  0  0  0  0
  144.3713  132.4476  147.8343 H   0  0  0  0  0  0  0  0  0  0  0  0
  143.0406  133.5793  147.5618 H   0  0  0  0  0  0  0  0  0  0  0  0
  142.7487  132.0740  148.4290 H   0  0  0  0  0  0  0  0  0  0  0  0
  145.6483  134.3670  148.9862 H   0  0  0  0  0  0  0  0  0  0  0  0
  144.2709  135.3910  148.6275 H   0  0  0  0  0  0  0  0  0  0  0  0
  145.5836  136.2951  150.5312 H   0  0  0  0  0  0  0  0  0  0  0  0
  143.9474  135.9154  151.0109 H   0  0  0  0  0  0  0  0  0  0  0  0
  146.3942  134.1543  151.4873 H   0  0  0  0  0  0  0  0  0  0  0  0
  144.6613  135.7148  153.4599 H   0  0  0  0  0  0  0  0  0  0  0  0
  145.8530  134.5333  153.9376 H   0  0  0  0  0  0  0  0  0  0  0  0
  147.4419  136.1045  152.5554 H   0  0  0  0  0  0  0  0  0  0  0  0
  148.2987  137.8354  152.8487 H   0  0  0  0  0  0  0  0  0  0  0  0
  145.8741  140.2062  153.5770 H   0  0  0  0  0  0  0  0  0  0  0  0
  146.3469  142.5973  154.3343 H   0  0  0  0  0  0  0  0  0  0  0  0
  150.3215  141.7433  155.0768 H   0  0  0  0  0  0  0  0  0  0  0  0
  150.0572  139.3370  154.3544 H   0  0  0  0  0  0  0  0  0  0  0  0
  144.8645  132.6235  152.6684 H   0  0  0  0  0  0  0  0  0  0  0  0
  143.5039  133.6607  152.3148 H   0  0  0  0  0  0  0  0  0  0  0  0
  143.5640  131.7972  150.7105 H   0  0  0  0  0  0  0  0  0  0  0  0
  145.2159  132.1692  150.2576 H   0  0  0  0  0  0  0  0  0  0  0  0
  142.9038  133.9255  149.8983 H   0  0  0  0  0  0  0  0  0  0  0  0
  148.4888  143.1549  155.0145 H   0  0  0  0  0  0  0  0  0  0  0  0
  1  2  1  0  0  0  0
  1 19  1  0  0  0  0
  1 20  1  0  0  0  0
  1 21  1  0  0  0  0
  2 18  1  0  0  0  0
  2  3  1  0  0  0  0
  2 39  1  0  0  0  0
  3  4  1  0  0  0  0
  3 22  1  0  0  0  0
  3 23  1  0  0  0  0
  4  5  1  0  0  0  0
  4 24  1  0  0  0  0
  4 25  1  0  0  0  0
  5  6  1  0  0  0  0
  5 17  1  0  0  0  0
  5 26  1  0  0  0  0
  6  7  1  0  0  0  0
  6 27  1  0  0  0  0
  6 28  1  0  0  0  0
  7  8  1  0  0  0  0
  7 29  1  0  0  0  0
  8  9  2  0  0  0  0
  8 10  1  0  0  0  0
 10 11  1  0  0  0  0
 10 30  1  0  0  0  0
 11 16  1  0  0  0  0
 11 12  2  0  0  0  0
 12 13  1  0  0  0  0
 12 31  1  0  0  0  0
 13 14  2  0  0  0  0
 13 32  1  0  0  0  0
 14 15  1  0  0  0  0
 14 40  1  0  0  0  0
 15 16  2  0  0  0  0
 15 33  1  0  0  0  0
 16 34  1  0  0  0  0
 17 18  1  0  0  0  0
 17 35  1  0  0  0  0
 17 36  1  0  0  0  0
 18 37  1  0  0  0  0
 18 38  1  0  0  0  0
M  CHG  1   2   1
M  CHG  1  14   1
M  END
> <s_m_source_file>
AV-unprocessed.smi

> <i_m_source_file_index>
1621

> <i_lp_mmshare_version>
43012

> <i_f3d_flags>
0

> <s_epik_input>
W0NIM11OMVtDSDJdW0NIMl1bQ0hdKFtDSDJdW0NIMl0xKVtDSDJdW05IXUMoPU8pW05IXWMyW2NIXVtjSF1uW2NIXVtjSF0y

> <s_epik_cmdline>
J2VwaWtfcHl0aG9uJywgJy1waCcsICc3LjAnLCAnLXRuJywgJzgnLCAnLW1hJywgJzIwMCcsICctbWV0YWxfYmluZGluZycsICctaW1hZScsICc8aW5maWxlLm1hZT4nLCAnLW9tYWUnLCAnPG91dGZpbGUubWFlPic=

> <r_epik_Ionization_Penalty>
1.07214

> <r_epik_Ionization_Penalty_Charging>
1.07212

> <r_epik_Ionization_Penalty_Neutral>
1.90829e-05

> <r_epik_State_Penalty>
1.12559

> <r_epik_Charging_Adjusted_Penalty>
2.1977

> <i_epik_Tot_Q>
2

> <i_epik_Tot_abs_Q>
2

> <r_epik_Metal_State_Penalty>
1.21693

> <b_epik_Metal_Only>
0

> <s_lp_Force_Field>
OPLS_2005

> <r_lp_Energy>
28.1704

> <b_lp_Chiralities_Consistent>
1

> <s_lp_Variant>
AV-unprocessed.smi:1621-3

> <Gold.Version>
5.8.1

> <Gold.Id.Protein>
6NUR|6NUR_protein|mol2

> <Gold.PLP.Fitness>
47.2740

> <Gold.PLP.PLP>
-30.2441

> <Gold.PLP.part.hbond>
-4.0000

> <Gold.PLP.part.metal>
0.0000

> <Gold.PLP.part.buried>
1.2889

> <Gold.PLP.part.nonpolar>
-28.1910

> <Gold.PLP.part.repulsive>
0.4111

> <Gold.PLP.ligand.clash>
0.0000

> <Gold.PLP.ligand.torsion>
0.4866

> <Gold.PLP.Chemscore.Hbond>
6.0000

> <Gold.PLP.Chemscore.CHOScore>
0.0000

> <Gold.PLP.Chemscore.Metal>
0.0000

> <Gold.Chemscore.Hbonds>
donor molecule, donor type, donor heavy atom, donor atom, acceptor molecule, acceptor atom, score
      L1  H     2    39       P1 10186  1.95
      L1  H     7    29       P1  7948  1.00
      L1  H    10    30       P1  7948  0.99
      L1  H    14    40       P1  8028  2.00

> <Gold.PLP.Chemscore.Internal.Correction>
0.0031

> <Gold.Rescore>
     Score         DG    S(hbond)    S(metal)    S(lipo)     H(rot)  DE(clash)    DE(int)     intcor
     21.52     -25.09       3.93        0.00      82.97       1.26       2.05       1.51       ----

> <Gold.Chemscore.Fitness>
21.5230

> <Gold.Chemscore.DG>
-25.0871

> <Gold.Chemscore.ZeroCoef>
-5.4800

> <Gold.Chemscore.Hbond>
3.9329

> <Gold.Chemscore.Metal>
0.0000

> <Gold.Chemscore.Lipo>
82.9739

> <Gold.Chemscore.Internal_Hbond>
0.0000

> <Gold.Chemscore.DEClash>
2.0519

> <Gold.Chemscore.DEInternal>
1.5123

> <Gold.Chemscore.Rot>
1.2644

> <Gold.Chemscore.Internal.Correction>
   9.000000E+99

> <Gold.Chemscore.Hbonds>
donor molecule, donor type, donor heavy atom, donor atom, acceptor molecule, acceptor atom, score
      L1  H     2    39       P1 10186  0.90
      L1  H     7    29       P1  7948  1.00
      L1  H    10    30       P1  7948  0.92
      L1  H    14    40       P1  8028  1.00

> <Gold.Chemscore.Hbond.Weighted>
-13.1360

> <Gold.Chemscore.Metal.Weighted>
-0.0000

> <Gold.Chemscore.Lipo.Weighted>
-9.7079

> <Gold.Chemscore.Internal_Hbond.Weighted>
0.0000

> <Gold.Chemscore.DEClash.Weighted>
2.0519

> <Gold.Chemscore.DEInternal.Weighted>
1.5123

> <Gold.Chemscore.Rot.Weighted>
3.2368

> <Gold.Chemscore.Internal.Correction.Weighted>
   9.000000E+99

> <Gold.Protein.RotatedTorsions>
[ 6907 6896 6895 6894 ] final -168.14 input  -60.11 | X-H torsion
[ 7974 7965 7964 7962 ] final   86.27 input  175.53 | X-H torsion
[ 8008 7997 7996 7995 ] final  101.55 input   59.86 | X-H torsion
[ 10167 10162 10161 10158 ] final  103.21 input  -65.29 | X-H torsion
[ 10718 10713 10712 10709 ] final  -34.20 input   66.30 | X-H torsion
[ 10763 10752 10751 10750 ] final -160.34 input  -60.55 | X-H torsion
[ 11005 11000 10999 10996 ] final  -52.09 input  -57.11 | X-H torsion

> <Gold.Protein.ActiveResidues>
 VAL166  LYS551  ARG553  GLY616  TRP617  ASP618  TYR619  PRO620  LYS621  CYS622 
 ASP623  PHE694  ASN695  SER759  ASP760  ASP761  ALA762  ILE779  LEU786  VAL792 
 PHE793  MET794  SER795  GLU796  ALA797  LYS798  CYS799  TRP800  GLU811  SER814 

> <Gold.Protein.RotatedAtoms>
  151.4709  133.3569  159.2823 H   0  0  0  0  0  0  0  0  0  0  0  0  # atno 6907 bound_to 6896
  150.8962  134.8372  159.7339 H   0  0  0  0  0  0  0  0  0  0  0  0  # atno 6908 bound_to 6896
  152.4852  134.4624  159.9661 H   0  0  0  0  0  0  0  0  0  0  0  0  # atno 6909 bound_to 6896
  145.5745  139.2317  143.2387 H   0  0  0  0  0  0  0  0  0  0  0  0  # atno 7974 bound_to 7965
  156.1310  140.3195  155.8348 H   0  0  0  0  0  0  0  0  0  0  0  0  # atno 8008 bound_to 7997
  155.4332  140.0520  157.3034 H   0  0  0  0  0  0  0  0  0  0  0  0  # atno 8009 bound_to 7997
  154.4899  140.2088  155.9584 H   0  0  0  0  0  0  0  0  0  0  0  0  # atno 8010 bound_to 7997
  139.7283  144.7042  151.0763 H   0  0  0  0  0  0  0  0  0  0  0  0  # atno 10167 bound_to 10162
  156.3534  130.4312  149.7685 H   0  0  0  0  0  0  0  0  0  0  0  0  # atno 10718 bound_to 10713
  154.7398  135.3066  154.8747 H   0  0  0  0  0  0  0  0  0  0  0  0  # atno 10763 bound_to 10752
  153.9565  135.6758  153.4749 H   0  0  0  0  0  0  0  0  0  0  0  0  # atno 10764 bound_to 10752
  153.0998  135.4917  154.8770 H   0  0  0  0  0  0  0  0  0  0  0  0  # atno 10765 bound_to 10752
  141.0906  133.6633  156.3973 H   0  0  0  0  0  0  0  0  0  0  0  0  # atno 11005 bound_to 11000
  146.1760  140.6572  142.9211 LP  0  0  0  0  0  0  0  0  0  0  0  0  # atno 17320 bound_to 7965
  144.7422  140.4973  143.6861 LP  0  0  0  0  0  0  0  0  0  0  0  0  # atno 17321 bound_to 7965
  140.7766  143.5076  150.9692 LP  0  0  0  0  0  0  0  0  0  0  0  0  # atno 17342 bound_to 10162
  139.8764  143.7127  152.3161 LP  0  0  0  0  0  0  0  0  0  0  0  0  # atno 17343 bound_to 10162
  156.4877  130.8070  151.3081 LP  0  0  0  0  0  0  0  0  0  0  0  0  # atno 17370 bound_to 10713
  157.7464  130.9985  150.2856 LP  0  0  0  0  0  0  0  0  0  0  0  0  # atno 17371 bound_to 10713
  140.5261  134.6257  157.5334 LP  0  0  0  0  0  0  0  0  0  0  0  0  # atno 17394 bound_to 11000
  139.9731  134.7260  156.0002 LP  0  0  0  0  0  0  0  0  0  0  0  0  # atno 17395 bound_to 11000

$$$$
