AV-unprocessed.smi:1032|AV-procd|sdf|4487|dock1
  -GOLD-   22720 2463D 1   1.00000     0.00000
 Structure written by MMmdl.
 47 48  0  0  0  0  0  0  0  0  3 V2000
  150.8281  143.9164  159.4020 C   0  0  0  0  0  0  0  0  0  0  0  0
  150.3793  142.8739  158.3687 C   0  0  2  0  0  0  0  0  0  0  0  0
  150.9597  143.1666  156.9751 C   0  0  0  0  0  0  0  0  0  0  0  0
  150.4801  142.1334  155.9415 C   0  0  0  0  0  0  0  0  0  0  0  0
  148.9966  142.0813  155.8829 N   0  3  1  0  0  0  0  0  0  0  0  0
  148.5040  141.1930  154.7984 C   0  0  0  0  0  0  0  0  0  0  0  0
  147.1152  141.6148  154.2763 C   0  0  1  0  0  0  0  0  0  0  0  0
  146.9094  140.9521  153.0437 O   0  0  0  0  0  0  0  0  0  0  0  0
  145.9931  141.2042  155.2507 C   0  0  0  0  0  0  0  0  0  0  0  0
  145.1524  140.1497  154.6926 N   0  0  0  0  0  0  0  0  0  0  0  0
  145.0653  138.9020  155.1752 C   0  0  0  0  0  0  0  0  0  0  0  0
  145.6685  138.5204  156.1776 O   0  0  0  0  0  0  0  0  0  0  0  0
  144.2343  138.1492  154.4337 N   0  0  0  0  0  0  0  0  0  0  0  0
  143.9100  136.7722  154.5799 C   0  0  0  0  0  0  0  0  0  0  0  0
  144.5712  136.0532  155.6004 C   0  0  0  0  0  0  0  0  0  0  0  0
  144.2721  134.6898  155.7981 C   0  0  0  0  0  0  0  0  0  0  0  0
  143.3529  134.0833  155.0172 N   0  3  0  0  0  0  0  0  0  0  0  0
  142.6857  134.7306  154.0381 C   0  0  0  0  0  0  0  0  0  0  0  0
  142.9413  136.0956  153.7948 C   0  0  0  0  0  0  0  0  0  0  0  0
  148.4099  141.7653  157.2125 C   0  0  0  0  0  0  0  0  0  0  0  0
  148.8470  142.7916  158.2707 C   0  0  0  0  0  0  0  0  0  0  0  0
  150.4846  144.9159  159.1333 H   0  0  0  0  0  0  0  0  0  0  0  0
  151.9151  143.9480  159.4810 H   0  0  0  0  0  0  0  0  0  0  0  0
  150.4336  143.6834  160.3914 H   0  0  0  0  0  0  0  0  0  0  0  0
  150.7522  141.9018  158.6954 H   0  0  0  0  0  0  0  0  0  0  0  0
  150.6646  144.1664  156.6533 H   0  0  0  0  0  0  0  0  0  0  0  0
  152.0495  143.1649  157.0164 H   0  0  0  0  0  0  0  0  0  0  0  0
  150.8787  142.4006  154.9620 H   0  0  0  0  0  0  0  0  0  0  0  0
  150.8715  141.1445  156.1855 H   0  0  0  0  0  0  0  0  0  0  0  0
  149.2053  141.1996  153.9621 H   0  0  0  0  0  0  0  0  0  0  0  0
  148.4830  140.1651  155.1642 H   0  0  0  0  0  0  0  0  0  0  0  0
  147.0798  142.6921  154.1145 H   0  0  0  0  0  0  0  0  0  0  0  0
  147.7284  140.9268  152.5716 H   0  0  0  0  0  0  0  0  0  0  0  0
  146.3916  140.9305  156.2295 H   0  0  0  0  0  0  0  0  0  0  0  0
  145.3339  142.0556  155.4233 H   0  0  0  0  0  0  0  0  0  0  0  0
  144.6133  140.3837  153.8717 H   0  0  0  0  0  0  0  0  0  0  0  0
  143.7478  138.6301  153.6913 H   0  0  0  0  0  0  0  0  0  0  0  0
  145.3060  136.5381  156.2268 H   0  0  0  0  0  0  0  0  0  0  0  0
  144.7356  134.0718  156.5532 H   0  0  0  0  0  0  0  0  0  0  0  0
  141.9670  134.1432  153.4857 H   0  0  0  0  0  0  0  0  0  0  0  0
  142.3797  136.5947  153.0203 H   0  0  0  0  0  0  0  0  0  0  0  0
  147.3222  141.7581  157.1573 H   0  0  0  0  0  0  0  0  0  0  0  0
  148.7147  140.7628  157.5170 H   0  0  0  0  0  0  0  0  0  0  0  0
  148.4250  142.5206  159.2391 H   0  0  0  0  0  0  0  0  0  0  0  0
  148.4371  143.7711  158.0190 H   0  0  0  0  0  0  0  0  0  0  0  0
  148.6939  143.0142  155.6393 H   0  0  0  0  0  0  0  0  0  0  0  0
  143.1503  133.0959  155.1760 H   0  0  0  0  0  0  0  0  0  0  0  0
  1  2  1  0  0  0  0
  1 22  1  0  0  0  0
  1 23  1  0  0  0  0
  1 24  1  0  0  0  0
  2 21  1  0  0  0  0
  2  3  1  0  0  0  0
  2 25  1  0  0  0  0
  3  4  1  0  0  0  0
  3 26  1  0  0  0  0
  3 27  1  0  0  0  0
  4  5  1  0  0  0  0
  4 28  1  0  0  0  0
  4 29  1  0  0  0  0
  5  6  1  0  0  0  0
  5 20  1  0  0  0  0
  5 46  1  0  0  0  0
  6  7  1  0  0  0  0
  6 30  1  0  0  0  0
  6 31  1  0  0  0  0
  7  8  1  0  0  0  0
  7  9  1  0  0  0  0
  7 32  1  0  0  0  0
  8 33  1  0  0  0  0
  9 10  1  0  0  0  0
  9 34  1  0  0  0  0
  9 35  1  0  0  0  0
 10 11  1  0  0  0  0
 10 36  1  0  0  0  0
 11 12  2  0  0  0  0
 11 13  1  0  0  0  0
 13 14  1  0  0  0  0
 13 37  1  0  0  0  0
 14 19  1  0  0  0  0
 14 15  2  0  0  0  0
 15 16  1  0  0  0  0
 15 38  1  0  0  0  0
 16 17  2  0  0  0  0
 16 39  1  0  0  0  0
 17 18  1  0  0  0  0
 17 47  1  0  0  0  0
 18 19  2  0  0  0  0
 18 40  1  0  0  0  0
 19 41  1  0  0  0  0
 20 21  1  0  0  0  0
 20 42  1  0  0  0  0
 20 43  1  0  0  0  0
 21 44  1  0  0  0  0
 21 45  1  0  0  0  0
M  CHG  1   5   1
M  CHG  1  17   1
M  END
> <s_m_source_file>
AV-unprocessed.smi

> <i_m_source_file_index>
1032

> <i_lp_mmshare_version>
43012

> <i_f3d_flags>
0

> <s_epik_input>
W0NIM11bQ0hdMVtDSDJdW0NIMl1OKFtDSDJdW0NIMl0xKVtDSDJdW0NASF0oW09IXSlbQ0gyXVtOSF1DKD1PKVtOSF1jMltjSF1bY0hdbltjSF1bY0hdMg==

> <s_epik_cmdline>
J2VwaWtfcHl0aG9uJywgJy1waCcsICc3LjAnLCAnLXRuJywgJzgnLCAnLW1hJywgJzIwMCcsICctbWV0YWxfYmluZGluZycsICctaW1hZScsICc8aW5maWxlLm1hZT4nLCAnLW9tYWUnLCAnPG91dGZpbGUubWFlPic=

> <r_epik_Ionization_Penalty>
1.02509

> <r_epik_Ionization_Penalty_Charging>
1.02507

> <r_epik_Ionization_Penalty_Neutral>
1.85474e-05

> <r_epik_State_Penalty>
1.07411

> <r_epik_Charging_Adjusted_Penalty>
2.09917

> <i_epik_Tot_Q>
2

> <i_epik_Tot_abs_Q>
2

> <r_epik_Metal_State_Penalty>
1.1725

> <b_epik_Metal_Only>
0

> <s_lp_Force_Field>
OPLS_2005

> <r_lp_Energy>
29.9623

> <b_lp_Chiralities_Consistent>
1

> <s_lp_Variant>
AV-unprocessed.smi:1032-6

> <Gold.Version>
5.8.1

> <Gold.Id.Protein>
6NUR|6NUR_protein|mol2

> <Gold.PLP.Fitness>
48.8711

> <Gold.PLP.PLP>
-30.1474

> <Gold.PLP.part.hbond>
-5.7430

> <Gold.PLP.part.metal>
0.0000

> <Gold.PLP.part.buried>
-4.7431

> <Gold.PLP.part.nonpolar>
-19.2306

> <Gold.PLP.part.repulsive>
0.1394

> <Gold.PLP.ligand.clash>
0.0000

> <Gold.PLP.ligand.torsion>
1.1236

> <Gold.PLP.Chemscore.Hbond>
6.9760

> <Gold.PLP.Chemscore.CHOScore>
0.0000

> <Gold.PLP.Chemscore.Metal>
0.0000

> <Gold.Chemscore.Hbonds>
donor molecule, donor type, donor heavy atom, donor atom, acceptor molecule, acceptor atom, score
      L1  H     5    46       P1  8028  2.00
      L1  H    10    36       P1 10175  1.00
      L1  H    13    37       P1 10175  0.57
      L1  H    17    47       P1 10957  1.66

> <Gold.PLP.Chemscore.Internal.Correction>
0.0428

> <Gold.Rescore>
     Score         DG    S(hbond)    S(metal)    S(lipo)     H(rot)  DE(clash)    DE(int)     intcor
     20.22     -23.92       4.83        0.00      70.93       2.34       1.19       2.51       ----

> <Gold.Chemscore.Fitness>
20.2217

> <Gold.Chemscore.DG>
-23.9185

> <Gold.Chemscore.ZeroCoef>
-5.4800

> <Gold.Chemscore.Hbond>
4.8287

> <Gold.Chemscore.Metal>
0.0000

> <Gold.Chemscore.Lipo>
70.9323

> <Gold.Chemscore.Internal_Hbond>
0.0000

> <Gold.Chemscore.DEClash>
1.1872

> <Gold.Chemscore.DEInternal>
2.5095

> <Gold.Chemscore.Rot>
2.3393

> <Gold.Chemscore.Internal.Correction>
   9.000000E+99

> <Gold.Chemscore.Hbonds>
donor molecule, donor type, donor heavy atom, donor atom, acceptor molecule, acceptor atom, score
      L1  H     5    46       P1  8028  0.97
      L1  H     8    33       P1  7957  0.02
      L1  H    10    36       P1 10175  1.00
      L1  H    13    37       P1 10175  0.56
      L1  H    17    47       P1 10957  0.79

> <Gold.Chemscore.Hbond.Weighted>
-16.1280

> <Gold.Chemscore.Metal.Weighted>
-0.0000

> <Gold.Chemscore.Lipo.Weighted>
-8.2991

> <Gold.Chemscore.Internal_Hbond.Weighted>
0.0000

> <Gold.Chemscore.DEClash.Weighted>
1.1872

> <Gold.Chemscore.DEInternal.Weighted>
2.5095

> <Gold.Chemscore.Rot.Weighted>
5.9886

> <Gold.Chemscore.Internal.Correction.Weighted>
   9.000000E+99

> <Gold.Protein.RotatedTorsions>
[ 6907 6896 6895 6894 ] final -147.29 input  -60.11 | X-H torsion
[ 7974 7965 7964 7962 ] final   16.15 input  175.53 | X-H torsion
[ 8008 7997 7996 7995 ] final  135.29 input   59.86 | X-H torsion
[ 10167 10162 10161 10158 ] final  -61.68 input  -65.29 | X-H torsion
[ 10718 10713 10712 10709 ] final   -2.09 input   66.30 | X-H torsion
[ 10763 10752 10751 10750 ] final -118.17 input  -60.55 | X-H torsion
[ 11005 11000 10999 10996 ] final  114.15 input  -57.11 | X-H torsion

> <Gold.Protein.ActiveResidues>
 VAL166  LYS551  ARG553  GLY616  TRP617  ASP618  TYR619  PRO620  LYS621  CYS622 
 ASP623  PHE694  ASN695  SER759  ASP760  ASP761  ALA762  ILE779  LEU786  VAL792 
 PHE793  MET794  SER795  GLU796  ALA797  LYS798  CYS799  TRP800  GLU811  SER814 

> <Gold.Protein.RotatedAtoms>
  151.1536  133.4891  159.2594 H   0  0  0  0  0  0  0  0  0  0  0  0  # atno 6907 bound_to 6896
  151.1528  135.0235  159.8686 H   0  0  0  0  0  0  0  0  0  0  0  0  # atno 6908 bound_to 6896
  152.5463  134.1418  159.8535 H   0  0  0  0  0  0  0  0  0  0  0  0  # atno 6909 bound_to 6896
  146.2258  139.8790  142.8574 H   0  0  0  0  0  0  0  0  0  0  0  0  # atno 7974 bound_to 7965
  156.3002  140.2474  156.3556 H   0  0  0  0  0  0  0  0  0  0  0  0  # atno 8008 bound_to 7997
  154.8924  140.0409  157.1866 H   0  0  0  0  0  0  0  0  0  0  0  0  # atno 8009 bound_to 7997
  154.8584  140.2916  155.5558 H   0  0  0  0  0  0  0  0  0  0  0  0  # atno 8010 bound_to 7997
  140.5990  143.2357  151.5971 H   0  0  0  0  0  0  0  0  0  0  0  0  # atno 10167 bound_to 10162
  156.7960  130.5377  149.5728 H   0  0  0  0  0  0  0  0  0  0  0  0  # atno 10718 bound_to 10713
  154.8579  135.4283  154.2096 H   0  0  0  0  0  0  0  0  0  0  0  0  # atno 10763 bound_to 10752
  153.3124  135.6976  153.7109 H   0  0  0  0  0  0  0  0  0  0  0  0  # atno 10764 bound_to 10752
  153.6196  135.3504  155.2980 H   0  0  0  0  0  0  0  0  0  0  0  0  # atno 10765 bound_to 10752
  139.8972  134.9563  156.6848 H   0  0  0  0  0  0  0  0  0  0  0  0  # atno 11005 bound_to 11000
  145.2532  141.0051  143.3869 LP  0  0  0  0  0  0  0  0  0  0  0  0  # atno 17320 bound_to 7965
  144.9358  139.4246  143.6473 LP  0  0  0  0  0  0  0  0  0  0  0  0  # atno 17321 bound_to 7965
  139.5278  144.3007  152.1076 LP  0  0  0  0  0  0  0  0  0  0  0  0  # atno 17342 bound_to 10162
  140.2184  144.4491  150.6353 LP  0  0  0  0  0  0  0  0  0  0  0  0  # atno 17343 bound_to 10162
  156.1130  130.6054  151.0077 LP  0  0  0  0  0  0  0  0  0  0  0  0  # atno 17370 bound_to 10713
  157.6577  131.0886  150.7910 LP  0  0  0  0  0  0  0  0  0  0  0  0  # atno 17371 bound_to 10713
  140.7271  133.9091  155.8186 LP  0  0  0  0  0  0  0  0  0  0  0  0  # atno 17394 bound_to 11000
  141.0182  134.0926  157.4149 LP  0  0  0  0  0  0  0  0  0  0  0  0  # atno 17395 bound_to 11000

$$$$
