AV-unprocessed.smi:3188|AV-procd|sdf|12186|dock2
  -GOLD-   2272018 23D 1   1.00000     0.00000
 Structure written by MMmdl.
 40 41  0  0  0  0  0  0  0  0  2 V2000
  151.7457  138.7455  154.7786 C   0  0  0  0  0  0  0  0  0  0  0  0
  150.6979  139.7004  155.3263 C   0  0  0  0  0  0  0  0  0  0  0  0
  150.8262  140.2287  156.5596 C   0  0  0  0  0  0  0  0  0  0  0  0
  149.8620  141.2238  157.1806 C   0  0  0  0  0  0  0  0  0  0  0  0
  148.5900  141.4333  156.3430 C   0  0  0  0  0  0  0  0  0  0  0  0
  148.9024  141.4206  154.8371 C   0  0  2  0  0  0  0  0  0  0  0  0
  147.6972  141.8697  153.9927 C   0  0  0  0  0  0  0  0  0  0  0  0
  149.5213  140.0597  154.4079 C   0  0  2  0  0  0  0  0  0  0  0  0
  148.4772  138.9154  154.3255 C   0  0  0  0  0  0  0  0  0  0  0  0
  148.0964  138.5920  152.9371 N   0  3  0  0  0  0  0  0  0  0  0  0
  146.6395  138.5213  152.7053 C   0  0  0  0  0  0  0  0  0  0  0  0
  146.0364  137.2320  153.2850 C   0  0  0  0  0  0  0  0  0  0  0  0
  145.3354  136.4571  152.2771 N   0  0  0  0  0  0  0  0  0  0  0  0
  145.7970  136.0229  151.0522 C   0  0  0  0  0  0  0  0  0  0  0  0
  144.7214  135.3703  150.5211 C   0  0  0  0  0  0  0  0  0  0  0  0
  143.6671  135.4337  151.4305 N   0  0  0  0  0  0  0  0  0  0  0  0
  144.0500  136.0832  152.4840 N   0  0  0  0  0  0  0  0  0  0  0  0
  152.0261  139.0213  153.7620 H   0  0  0  0  0  0  0  0  0  0  0  0
  151.3835  137.7192  154.7773 H   0  0  0  0  0  0  0  0  0  0  0  0
  152.6499  138.7655  155.3879 H   0  0  0  0  0  0  0  0  0  0  0  0
  151.6807  139.9663  157.1666 H   0  0  0  0  0  0  0  0  0  0  0  0
  149.5997  140.8979  158.1873 H   0  0  0  0  0  0  0  0  0  0  0  0
  150.3927  142.1707  157.2846 H   0  0  0  0  0  0  0  0  0  0  0  0
  147.8642  140.6539  156.5754 H   0  0  0  0  0  0  0  0  0  0  0  0
  148.1218  142.3758  156.6293 H   0  0  0  0  0  0  0  0  0  0  0  0
  149.6723  142.1765  154.6708 H   0  0  0  0  0  0  0  0  0  0  0  0
  146.8094  141.2706  154.1942 H   0  0  0  0  0  0  0  0  0  0  0  0
  147.9152  141.8075  152.9262 H   0  0  0  0  0  0  0  0  0  0  0  0
  147.4387  142.9058  154.2129 H   0  0  0  0  0  0  0  0  0  0  0  0
  149.9302  140.2096  153.4074 H   0  0  0  0  0  0  0  0  0  0  0  0
  148.8681  138.0183  154.8068 H   0  0  0  0  0  0  0  0  0  0  0  0
  147.5601  139.1835  154.8480 H   0  0  0  0  0  0  0  0  0  0  0  0
  148.4917  139.2893  152.3225 H   0  0  0  0  0  0  0  0  0  0  0  0
  146.1571  139.3920  153.1518 H   0  0  0  0  0  0  0  0  0  0  0  0
  146.4483  138.5649  151.6327 H   0  0  0  0  0  0  0  0  0  0  0  0
  146.8269  136.6074  153.7024 H   0  0  0  0  0  0  0  0  0  0  0  0
  145.3541  137.4610  154.1053 H   0  0  0  0  0  0  0  0  0  0  0  0
  146.7953  136.2076  150.6834 H   0  0  0  0  0  0  0  0  0  0  0  0
  144.6185  134.8677  149.5704 H   0  0  0  0  0  0  0  0  0  0  0  0
  148.4963  137.6941  152.7032 H   0  0  0  0  0  0  0  0  0  0  0  0
  1  2  1  0  0  0  0
  1 18  1  0  0  0  0
  1 19  1  0  0  0  0
  1 20  1  0  0  0  0
  2  8  1  0  0  0  0
  2  3  2  0  0  0  0
  3  4  1  0  0  0  0
  3 21  1  0  0  0  0
  4  5  1  0  0  0  0
  4 22  1  0  0  0  0
  4 23  1  0  0  0  0
  5  6  1  0  0  0  0
  5 24  1  0  0  0  0
  5 25  1  0  0  0  0
  6  7  1  0  0  0  0
  6  8  1  0  0  0  0
  6 26  1  0  0  0  0
  7 27  1  0  0  0  0
  7 28  1  0  0  0  0
  7 29  1  0  0  0  0
  8  9  1  0  0  0  0
  8 30  1  0  0  0  0
  9 10  1  0  0  0  0
  9 31  1  0  0  0  0
  9 32  1  0  0  0  0
 10 11  1  0  0  0  0
 10 33  1  0  0  0  0
 10 40  1  0  0  0  0
 11 12  1  0  0  0  0
 11 34  1  0  0  0  0
 11 35  1  0  0  0  0
 12 13  1  0  0  0  0
 12 36  1  0  0  0  0
 12 37  1  0  0  0  0
 13 17  1  0  0  0  0
 13 14  1  0  0  0  0
 14 15  2  0  0  0  0
 14 38  1  0  0  0  0
 15 16  1  0  0  0  0
 15 39  1  0  0  0  0
 16 17  2  0  0  0  0
M  CHG  1  10   1
M  END
> <s_m_source_file>
AV-unprocessed.smi

> <i_m_source_file_index>
3188

> <i_lp_mmshare_version>
43012

> <i_f3d_flags>
0

> <s_epik_input>
W0NIM11DMT1bQ0hdW0NIMl1bQ0gyXVtDQEBIXShbQ0gzXSlbQ0BIXTFbQ0gyXVtOSF1bQ0gyXVtDSDJdbjJbY0hdW2NIXW5uMg==

> <s_epik_cmdline>
J2VwaWtfcHl0aG9uJywgJy1waCcsICc3LjAnLCAnLXRuJywgJzgnLCAnLW1hJywgJzIwMCcsICctbWV0YWxfYmluZGluZycsICctaW1hZScsICc8aW5maWxlLm1hZT4nLCAnLW9tYWUnLCAnPG91dGZpbGUubWFlPic=

> <r_lp_tautomer_probability>
1

> <r_epik_Ionization_Penalty>
0.007268

> <r_epik_Ionization_Penalty_Charging>
0.00726786

> <r_epik_Ionization_Penalty_Neutral>
1.34882e-07

> <r_epik_State_Penalty>
0.00542069

> <r_epik_Charging_Adjusted_Penalty>
0.0126886

> <i_epik_Tot_Q>
1

> <i_epik_Tot_abs_Q>
1

> <r_epik_Metal_State_Penalty>
-0

> <b_epik_Metal_Only>
0

> <s_lp_Force_Field>
OPLS_2005

> <r_lp_Energy>
14.4229

> <b_lp_Chiralities_Consistent>
1

> <s_lp_Variant>
AV-unprocessed.smi:3188-4

> <Gold.Version>
5.8.1

> <Gold.Id.Protein>
6NUR|6NUR_protein|mol2

> <Gold.PLP.Fitness>
45.4114

> <Gold.PLP.PLP>
-33.2570

> <Gold.PLP.part.hbond>
-2.0000

> <Gold.PLP.part.metal>
0.0000

> <Gold.PLP.part.buried>
-4.8951

> <Gold.PLP.part.nonpolar>
-28.7442

> <Gold.PLP.part.repulsive>
0.3908

> <Gold.PLP.ligand.clash>
0.0000

> <Gold.PLP.ligand.torsion>
1.4676

> <Gold.PLP.Chemscore.Hbond>
3.0000

> <Gold.PLP.Chemscore.CHOScore>
1.9981

> <Gold.PLP.Chemscore.Metal>
0.0000

> <Gold.Chemscore.Hbonds>
donor molecule, donor type, donor heavy atom, donor atom, acceptor molecule, acceptor atom, score
      L1  H    10    33       P1  7957  1.00
      L1  H    10    40       P1  7948  2.00
      L1  C    14    38       P1  7948  1.00
      L1  C    15    39       P1  7921  1.00

> <Gold.PLP.Chemscore.Internal.Correction>
0.0955

> <Gold.Rescore>
     Score         DG    S(hbond)    S(metal)    S(lipo)     H(rot)  DE(clash)    DE(int)     intcor
     16.04     -17.54       1.99        0.00      85.33       1.78       0.07       1.43       ----

> <Gold.Chemscore.Fitness>
16.0392

> <Gold.Chemscore.DG>
-17.5361

> <Gold.Chemscore.ZeroCoef>
-5.4800

> <Gold.Chemscore.Hbond>
1.9854

> <Gold.Chemscore.Metal>
0.0000

> <Gold.Chemscore.Lipo>
85.3323

> <Gold.Chemscore.Internal_Hbond>
0.0000

> <Gold.Chemscore.DEClash>
0.0685

> <Gold.Chemscore.DEInternal>
1.4283

> <Gold.Chemscore.Rot>
1.7809

> <Gold.Chemscore.Internal.Correction>
   9.000000E+99

> <Gold.Chemscore.Hbonds>
donor molecule, donor type, donor heavy atom, donor atom, acceptor molecule, acceptor atom, score
      L1  H    10    33       P1  7957  0.99
      L1  H    10    40       P1  7948  1.00

> <Gold.Chemscore.Hbond.Weighted>
-6.6312

> <Gold.Chemscore.Metal.Weighted>
-0.0000

> <Gold.Chemscore.Lipo.Weighted>
-9.9839

> <Gold.Chemscore.Internal_Hbond.Weighted>
0.0000

> <Gold.Chemscore.DEClash.Weighted>
0.0685

> <Gold.Chemscore.DEInternal.Weighted>
1.4283

> <Gold.Chemscore.Rot.Weighted>
4.5590

> <Gold.Chemscore.Internal.Correction.Weighted>
   9.000000E+99

> <Gold.Protein.RotatedTorsions>
[ 6907 6896 6895 6894 ] final -141.85 input  -60.11 | X-H torsion
[ 7974 7965 7964 7962 ] final  166.17 input  175.53 | X-H torsion
[ 8008 7997 7996 7995 ] final -155.00 input   59.86 | X-H torsion
[ 10167 10162 10161 10158 ] final  -82.10 input  -65.29 | X-H torsion
[ 10718 10713 10712 10709 ] final -178.75 input   66.30 | X-H torsion
[ 10763 10752 10751 10750 ] final   -8.03 input  -60.55 | X-H torsion
[ 11005 11000 10999 10996 ] final -105.79 input  -57.11 | X-H torsion

> <Gold.Protein.ActiveResidues>
 VAL166  LYS551  ARG553  GLY616  TRP617  ASP618  TYR619  PRO620  LYS621  CYS622 
 ASP623  PHE694  ASN695  SER759  ASP760  ASP761  ALA762  ILE779  LEU786  VAL792 
 PHE793  MET794  SER795  GLU796  ALA797  LYS798  CYS799  TRP800  GLU811  SER814 

> <Gold.Protein.RotatedAtoms>
  151.0792  133.5404  159.2621 H   0  0  0  0  0  0  0  0  0  0  0  0  # atno 6907 bound_to 6896
  151.2313  135.0555  159.8999 H   0  0  0  0  0  0  0  0  0  0  0  0  # atno 6908 bound_to 6896
  152.5421  134.0580  159.8193 H   0  0  0  0  0  0  0  0  0  0  0  0  # atno 6909 bound_to 6896
  144.7473  139.8576  143.6378 H   0  0  0  0  0  0  0  0  0  0  0  0  # atno 7974 bound_to 7965
  155.6951  140.0760  157.2433 H   0  0  0  0  0  0  0  0  0  0  0  0  # atno 8008 bound_to 7997
  154.4082  140.1657  156.2181 H   0  0  0  0  0  0  0  0  0  0  0  0  # atno 8009 bound_to 7997
  155.9418  140.3384  155.6336 H   0  0  0  0  0  0  0  0  0  0  0  0  # atno 8010 bound_to 7997
  140.4351  143.2534  151.8705 H   0  0  0  0  0  0  0  0  0  0  0  0  # atno 10167 bound_to 10162
  156.8488  130.9712  151.3094 H   0  0  0  0  0  0  0  0  0  0  0  0  # atno 10718 bound_to 10713
  153.4346  135.7012  153.6208 H   0  0  0  0  0  0  0  0  0  0  0  0  # atno 10763 bound_to 10752
  153.4608  135.3736  155.2337 H   0  0  0  0  0  0  0  0  0  0  0  0  # atno 10764 bound_to 10752
  154.8726  135.4019  154.3736 H   0  0  0  0  0  0  0  0  0  0  0  0  # atno 10765 bound_to 10752
  141.1036  133.8838  157.1777 H   0  0  0  0  0  0  0  0  0  0  0  0  # atno 11005 bound_to 11000
  146.1371  139.4419  143.0132 LP  0  0  0  0  0  0  0  0  0  0  0  0  # atno 17320 bound_to 7965
  145.7075  141.0117  143.1471 LP  0  0  0  0  0  0  0  0  0  0  0  0  # atno 17321 bound_to 7965
  139.4786  144.5292  151.8692 LP  0  0  0  0  0  0  0  0  0  0  0  0  # atno 17342 bound_to 10162
  140.4383  144.2022  150.5890 LP  0  0  0  0  0  0  0  0  0  0  0  0  # atno 17343 bound_to 10162
  157.6315  130.8733  149.9282 LP  0  0  0  0  0  0  0  0  0  0  0  0  # atno 17370 bound_to 10713
  156.0839  130.3670  150.0525 LP  0  0  0  0  0  0  0  0  0  0  0  0  # atno 17371 bound_to 10713
  139.9897  135.0069  156.9947 LP  0  0  0  0  0  0  0  0  0  0  0  0  # atno 17394 bound_to 11000
  140.4958  134.1147  155.7241 LP  0  0  0  0  0  0  0  0  0  0  0  0  # atno 17395 bound_to 11000

$$$$
