AV-unprocessed.smi:2075|AV-procd|sdf|8456|dock4
  -GOLD-   2272011153D 1   1.00000     0.00000
 Structure written by MMmdl.
 37 38  0  0  0  0  0  0  0  0  1 V2000
  150.9432  135.6389  156.1158 O   0  0  0  0  0  0  0  0  0  0  0  0
  149.9597  135.8577  155.4081 C   0  0  0  0  0  0  0  0  0  0  0  0
  148.7162  134.9633  155.4872 C   0  0  0  0  0  0  0  0  0  0  0  0
  149.0146  133.4527  155.5729 C   0  0  0  0  0  0  0  0  0  0  0  0
  147.9966  132.8409  156.1773 F   0  0  0  0  0  0  0  0  0  0  0  0
  149.1651  132.9241  154.3577 F   0  0  0  0  0  0  0  0  0  0  0  0
  150.1241  133.2329  156.2798 F   0  0  0  0  0  0  0  0  0  0  0  0
  149.8992  136.8740  154.5333 N   0  0  0  0  0  0  0  0  0  0  0  0
  150.9621  137.8498  154.3121 C   0  0  0  0  0  0  0  0  0  0  0  0
  151.1353  138.8522  155.4443 C   0  0  0  0  0  0  0  0  0  0  0  0
  150.0536  139.6536  155.8566 C   0  0  0  0  0  0  0  0  0  0  0  0
  150.2397  140.5709  156.9084 C   0  0  0  0  0  0  0  0  0  0  0  0
  151.5116  140.6655  157.5296 C   0  0  0  0  0  0  0  0  0  0  0  0
  151.7665  141.5616  158.5938 N   0  0  0  0  0  0  0  0  0  0  0  0
  152.0802  142.9533  158.2786 C   0  0  0  0  0  0  0  0  0  0  0  0
  152.0000  143.8288  159.5407 C   0  0  0  0  0  0  0  0  0  0  0  0
  152.8343  143.2869  160.5575 O   0  0  0  0  0  0  0  0  0  0  0  0
  152.4135  141.9824  160.9395 C   0  0  0  0  0  0  0  0  0  0  0  0
  152.5100  141.0293  159.7361 C   0  0  0  0  0  0  0  0  0  0  0  0
  152.5450  139.8830  157.1332 N   0  0  0  0  0  0  0  0  0  0  0  0
  152.3611  139.0058  156.1248 C   0  0  0  0  0  0  0  0  0  0  0  0
  148.1321  135.2596  156.3599 H   0  0  0  0  0  0  0  0  0  0  0  0
  148.0930  135.1659  154.6154 H   0  0  0  0  0  0  0  0  0  0  0  0
  149.0575  136.9833  153.9864 H   0  0  0  0  0  0  0  0  0  0  0  0
  151.9041  137.3301  154.1276 H   0  0  0  0  0  0  0  0  0  0  0  0
  150.7316  138.4020  153.4010 H   0  0  0  0  0  0  0  0  0  0  0  0
  149.0917  139.5728  155.3718 H   0  0  0  0  0  0  0  0  0  0  0  0
  149.4050  141.1869  157.2056 H   0  0  0  0  0  0  0  0  0  0  0  0
  153.0801  143.0076  157.8460 H   0  0  0  0  0  0  0  0  0  0  0  0
  151.3779  143.3441  157.5416 H   0  0  0  0  0  0  0  0  0  0  0  0
  152.3288  144.8430  159.3143 H   0  0  0  0  0  0  0  0  0  0  0  0
  150.9716  143.9009  159.8987 H   0  0  0  0  0  0  0  0  0  0  0  0
  153.0505  141.6273  161.7496 H   0  0  0  0  0  0  0  0  0  0  0  0
  151.3943  142.0153  161.3283 H   0  0  0  0  0  0  0  0  0  0  0  0
  152.1392  140.0506  160.0403 H   0  0  0  0  0  0  0  0  0  0  0  0
  153.5531  140.8991  159.4452 H   0  0  0  0  0  0  0  0  0  0  0  0
  153.2218  138.4100  155.8591 H   0  0  0  0  0  0  0  0  0  0  0  0
  1  2  2  0  0  0  0
  2  3  1  0  0  0  0
  2  8  1  0  0  0  0
  3  4  1  0  0  0  0
  3 22  1  0  0  0  0
  3 23  1  0  0  0  0
  4  5  1  0  0  0  0
  4  6  1  0  0  0  0
  4  7  1  0  0  0  0
  8  9  1  0  0  0  0
  8 24  1  0  0  0  0
  9 10  1  0  0  0  0
  9 25  1  0  0  0  0
  9 26  1  0  0  0  0
 10 21  1  0  0  0  0
 10 11  2  0  0  0  0
 11 12  1  0  0  0  0
 11 27  1  0  0  0  0
 12 13  2  0  0  0  0
 12 28  1  0  0  0  0
 13 14  1  0  0  0  0
 13 20  1  0  0  0  0
 14 19  1  0  0  0  0
 14 15  1  0  0  0  0
 15 16  1  0  0  0  0
 15 29  1  0  0  0  0
 15 30  1  0  0  0  0
 16 17  1  0  0  0  0
 16 31  1  0  0  0  0
 16 32  1  0  0  0  0
 17 18  1  0  0  0  0
 18 19  1  0  0  0  0
 18 33  1  0  0  0  0
 18 34  1  0  0  0  0
 19 35  1  0  0  0  0
 19 36  1  0  0  0  0
 20 21  2  0  0  0  0
 21 37  1  0  0  0  0
M  END
> <s_m_source_file>
AV-unprocessed.smi

> <i_m_source_file_index>
2075

> <i_lp_mmshare_version>
43012

> <i_f3d_flags>
0

> <s_epik_input>
RkMoRikoRilbQ0gyXUMoPU8pW05IXVtDSDJdYzFbY0hdW2NIXWMobltjSF0xKU4yW0NIMl1bQ0gyXU9bQ0gyXVtDSDJdMg==

> <s_epik_cmdline>
J2VwaWtfcHl0aG9uJywgJy1waCcsICc3LjAnLCAnLXRuJywgJzgnLCAnLW1hJywgJzIwMCcsICctbWV0YWxfYmluZGluZycsICctaW1hZScsICc8aW5maWxlLm1hZT4nLCAnLW9tYWUnLCAnPG91dGZpbGUubWFlPic=

> <r_lp_tautomer_probability>
1

> <r_epik_Ionization_Penalty>
0.00347018

> <r_epik_Ionization_Penalty_Charging>
0

> <r_epik_Ionization_Penalty_Neutral>
0.00347018

> <r_epik_State_Penalty>
0.00246037

> <r_epik_Charging_Adjusted_Penalty>
0.00246037

> <i_epik_Tot_Q>
0

> <i_epik_Tot_abs_Q>
0

> <r_epik_Metal_State_Penalty>
-0

> <b_epik_Metal_Only>
0

> <s_lp_Force_Field>
OPLS_2005

> <r_lp_Energy>
11.9442

> <b_lp_Chiralities_Consistent>
1

> <s_lp_Variant>
AV-unprocessed.smi:2075-1

> <Gold.Version>
5.8.1

> <Gold.Id.Protein>
6NUR|6NUR_protein|mol2

> <Gold.PLP.Fitness>
41.4189

> <Gold.PLP.PLP>
-37.2545

> <Gold.PLP.part.hbond>
-3.2382

> <Gold.PLP.part.metal>
0.0000

> <Gold.PLP.part.buried>
-3.9956

> <Gold.PLP.part.nonpolar>
-30.6946

> <Gold.PLP.part.repulsive>
0.1139

> <Gold.PLP.ligand.clash>
0.0000

> <Gold.PLP.ligand.torsion>
1.2606

> <Gold.PLP.Chemscore.Hbond>
2.0710

> <Gold.PLP.Chemscore.CHOScore>
0.0000

> <Gold.PLP.Chemscore.Metal>
0.0000

> <Gold.Chemscore.Hbonds>
donor molecule, donor type, donor heavy atom, donor atom, acceptor molecule, acceptor atom, score
      L1  H     8    24       P1  7948  0.19
      P1  H  7997  8008       L1    20  0.45

> <Gold.PLP.Chemscore.Internal.Correction>
0.4727

> <Gold.Rescore>
     Score         DG    S(hbond)    S(metal)    S(lipo)     H(rot)  DE(clash)    DE(int)     intcor
     12.35     -15.51       1.55        0.00      85.34       2.01       0.51       2.65       ----

> <Gold.Chemscore.Fitness>
12.3494

> <Gold.Chemscore.DG>
-15.5114

> <Gold.Chemscore.ZeroCoef>
-5.4800

> <Gold.Chemscore.Hbond>
1.5547

> <Gold.Chemscore.Metal>
0.0000

> <Gold.Chemscore.Lipo>
85.3358

> <Gold.Chemscore.Internal_Hbond>
0.0000

> <Gold.Chemscore.DEClash>
0.5143

> <Gold.Chemscore.DEInternal>
2.6477

> <Gold.Chemscore.Rot>
2.0101

> <Gold.Chemscore.Internal.Correction>
   9.000000E+99

> <Gold.Chemscore.Hbonds>
donor molecule, donor type, donor heavy atom, donor atom, acceptor molecule, acceptor atom, score
      L1  H     8    24       P1  7948  0.19
      P1  H  7997  8008       L1    20  0.02
      P1  H 10752 10763       L1     1  0.06

> <Gold.Chemscore.Hbond.Weighted>
-5.1929

> <Gold.Chemscore.Metal.Weighted>
-0.0000

> <Gold.Chemscore.Lipo.Weighted>
-9.9843

> <Gold.Chemscore.Internal_Hbond.Weighted>
0.0000

> <Gold.Chemscore.DEClash.Weighted>
0.5143

> <Gold.Chemscore.DEInternal.Weighted>
2.6477

> <Gold.Chemscore.Rot.Weighted>
5.1458

> <Gold.Chemscore.Internal.Correction.Weighted>
   9.000000E+99

> <Gold.Protein.RotatedTorsions>
[ 6907 6896 6895 6894 ] final   81.99 input  -60.11 | X-H torsion
[ 7974 7965 7964 7962 ] final -178.20 input  175.53 | X-H torsion
[ 8008 7997 7996 7995 ] final  -56.28 input   59.86 | X-H torsion
[ 10167 10162 10161 10158 ] final  137.61 input  -65.29 | X-H torsion
[ 10718 10713 10712 10709 ] final -126.48 input   66.30 | X-H torsion
[ 10763 10752 10751 10750 ] final   72.14 input  -60.55 | X-H torsion
[ 11005 11000 10999 10996 ] final   50.39 input  -57.11 | X-H torsion

> <Gold.Protein.ActiveResidues>
 VAL166  LYS551  ARG553  GLY616  TRP617  ASP618  TYR619  PRO620  LYS621  CYS622 
 ASP623  PHE694  ASN695  SER759  ASP760  ASP761  ALA762  ILE779  LEU786  VAL792 
 PHE793  MET794  SER795  GLU796  ALA797  LYS798  CYS799  TRP800  GLU811  SER814 

> <Gold.Protein.RotatedAtoms>
  152.5285  134.3118  159.9116 H   0  0  0  0  0  0  0  0  0  0  0  0  # atno 6907 bound_to 6896
  151.3068  133.4091  159.2651 H   0  0  0  0  0  0  0  0  0  0  0  0  # atno 6908 bound_to 6896
  151.0072  134.9385  159.8044 H   0  0  0  0  0  0  0  0  0  0  0  0  # atno 6909 bound_to 6896
  144.7130  140.0905  143.6421 H   0  0  0  0  0  0  0  0  0  0  0  0  # atno 7974 bound_to 7965
  154.4224  140.1133  156.5612 H   0  0  0  0  0  0  0  0  0  0  0  0  # atno 8008 bound_to 7997
  155.6309  140.3495  155.4663 H   0  0  0  0  0  0  0  0  0  0  0  0  # atno 8009 bound_to 7997
  155.9948  140.1187  157.0593 H   0  0  0  0  0  0  0  0  0  0  0  0  # atno 8010 bound_to 7997
  139.5138  144.6400  151.5594 H   0  0  0  0  0  0  0  0  0  0  0  0  # atno 10167 bound_to 10162
  156.1769  130.6705  151.0253 H   0  0  0  0  0  0  0  0  0  0  0  0  # atno 10718 bound_to 10713
  153.0440  135.5111  154.7698 H   0  0  0  0  0  0  0  0  0  0  0  0  # atno 10763 bound_to 10752
  154.6613  135.2939  154.9865 H   0  0  0  0  0  0  0  0  0  0  0  0  # atno 10764 bound_to 10752
  154.0715  135.6677  153.4877 H   0  0  0  0  0  0  0  0  0  0  0  0  # atno 10765 bound_to 10752
  140.1021  134.5067  155.8753 H   0  0  0  0  0  0  0  0  0  0  0  0  # atno 11005 bound_to 11000
  145.9624  139.2810  143.1147 LP  0  0  0  0  0  0  0  0  0  0  0  0  # atno 17320 bound_to 7965
  145.9206  140.9118  143.0407 LP  0  0  0  0  0  0  0  0  0  0  0  0  # atno 17321 bound_to 7965
  140.6163  143.9342  150.6491 LP  0  0  0  0  0  0  0  0  0  0  0  0  # atno 17342 bound_to 10162
  140.2601  143.3530  152.1330 LP  0  0  0  0  0  0  0  0  0  0  0  0  # atno 17343 bound_to 10162
  157.6841  131.0829  150.7289 LP  0  0  0  0  0  0  0  0  0  0  0  0  # atno 17370 bound_to 10713
  156.7347  130.4720  149.5491 LP  0  0  0  0  0  0  0  0  0  0  0  0  # atno 17371 bound_to 10713
  141.2108  133.6699  156.6539 LP  0  0  0  0  0  0  0  0  0  0  0  0  # atno 17394 bound_to 11000
  140.3205  134.8011  157.4249 LP  0  0  0  0  0  0  0  0  0  0  0  0  # atno 17395 bound_to 11000

$$$$
