AV-unprocessed.smi:2664|AV-procd|sdf|10328|dock8
  -GOLD-   2272014343D 1   1.00000     0.00000
 Structure written by MMmdl.
 44 45  0  0  0  0  0  0  0  0  2 V2000
  145.1587  138.7173  153.2060 O   0  0  0  0  0  0  0  0  0  0  0  0
  146.1331  138.0208  152.9242 C   0  0  0  0  0  0  0  0  0  0  0  0
  147.4173  138.3923  153.0652 N   0  0  0  0  0  0  0  0  0  0  0  0
  147.9374  139.6029  153.5993 C   0  0  0  0  0  0  0  0  0  0  0  0
  147.2243  140.7930  153.3333 C   0  0  0  0  0  0  0  0  0  0  0  0
  147.7104  142.0210  153.8267 C   0  0  0  0  0  0  0  0  0  0  0  0
  148.8559  142.0525  154.5407 N   0  3  0  0  0  0  0  0  0  0  0  0
  149.5792  140.9444  154.8094 C   0  0  0  0  0  0  0  0  0  0  0  0
  149.1434  139.6880  154.3412 C   0  0  0  0  0  0  0  0  0  0  0  0
  146.0423  136.7839  152.4119 N   0  0  0  0  0  0  0  0  0  0  0  0
  144.8017  136.0551  152.1311 C   0  0  2  0  0  0  0  0  0  0  0  0
  144.1323  135.6674  153.4743 C   0  0  0  0  0  0  0  0  0  0  0  0
  142.6200  135.3836  153.3951 C   0  0  0  0  0  0  0  0  0  0  0  0
  142.2229  134.5134  154.4336 O   0  0  0  0  0  0  0  0  0  0  0  0
  145.0957  134.8362  151.2087 C   0  0  0  0  0  0  0  0  0  0  0  0
  143.8423  133.9493  150.9882 C   0  0  0  0  0  0  0  0  0  0  0  0
  144.1297  132.7419  150.0816 C   0  0  0  0  0  0  0  0  0  0  0  0
  145.2782  131.8904  150.6355 C   0  0  0  0  0  0  0  0  0  0  0  0
  146.5350  132.7454  150.8360 C   0  0  0  0  0  0  0  0  0  0  0  0
  146.2535  133.9556  151.7412 C   0  0  0  0  0  0  0  0  0  0  0  0
  148.1052  137.7464  152.7064 H   0  0  0  0  0  0  0  0  0  0  0  0
  146.3083  140.7686  152.7606 H   0  0  0  0  0  0  0  0  0  0  0  0
  147.2217  142.9717  153.6710 H   0  0  0  0  0  0  0  0  0  0  0  0
  150.4832  141.0949  155.3815 H   0  0  0  0  0  0  0  0  0  0  0  0
  149.7492  138.8198  154.5506 H   0  0  0  0  0  0  0  0  0  0  0  0
  146.9015  136.2960  152.2050 H   0  0  0  0  0  0  0  0  0  0  0  0
  144.1081  136.7050  151.5950 H   0  0  0  0  0  0  0  0  0  0  0  0
  144.6074  134.7814  153.8926 H   0  0  0  0  0  0  0  0  0  0  0  0
  144.2991  136.4663  154.1979 H   0  0  0  0  0  0  0  0  0  0  0  0
  142.0637  136.3154  153.4996 H   0  0  0  0  0  0  0  0  0  0  0  0
  142.3382  134.9569  152.4326 H   0  0  0  0  0  0  0  0  0  0  0  0
  142.4751  133.6324  154.2024 H   0  0  0  0  0  0  0  0  0  0  0  0
  145.3971  135.2236  150.2341 H   0  0  0  0  0  0  0  0  0  0  0  0
  143.4683  133.5990  151.9513 H   0  0  0  0  0  0  0  0  0  0  0  0
  143.0337  134.5242  150.5375 H   0  0  0  0  0  0  0  0  0  0  0  0
  143.2317  132.1318  149.9801 H   0  0  0  0  0  0  0  0  0  0  0  0
  144.3822  133.0896  149.0791 H   0  0  0  0  0  0  0  0  0  0  0  0
  144.9812  131.4425  151.5848 H   0  0  0  0  0  0  0  0  0  0  0  0
  145.4928  131.0655  149.9555 H   0  0  0  0  0  0  0  0  0  0  0  0
  147.3316  132.1379  151.2665 H   0  0  0  0  0  0  0  0  0  0  0  0
  146.8998  133.0913  149.8681 H   0  0  0  0  0  0  0  0  0  0  0  0
  147.1750  134.5300  151.8186 H   0  0  0  0  0  0  0  0  0  0  0  0
  146.0187  133.6093  152.7487 H   0  0  0  0  0  0  0  0  0  0  0  0
  149.1916  142.9515  154.8878 H   0  0  0  0  0  0  0  0  0  0  0  0
  1  2  2  0  0  0  0
  2  3  1  0  0  0  0
  2 10  1  0  0  0  0
  3  4  1  0  0  0  0
  3 21  1  0  0  0  0
  4  9  1  0  0  0  0
  4  5  2  0  0  0  0
  5  6  1  0  0  0  0
  5 22  1  0  0  0  0
  6  7  2  0  0  0  0
  6 23  1  0  0  0  0
  7  8  1  0  0  0  0
  7 44  1  0  0  0  0
  8  9  2  0  0  0  0
  8 24  1  0  0  0  0
  9 25  1  0  0  0  0
 10 11  1  0  0  0  0
 10 26  1  0  0  0  0
 11 12  1  0  0  0  0
 11 15  1  0  0  0  0
 11 27  1  0  0  0  0
 12 13  1  0  0  0  0
 12 28  1  0  0  0  0
 12 29  1  0  0  0  0
 13 14  1  0  0  0  0
 13 30  1  0  0  0  0
 13 31  1  0  0  0  0
 14 32  1  0  0  0  0
 15 20  1  0  0  0  0
 15 16  1  0  0  0  0
 15 33  1  0  0  0  0
 16 17  1  0  0  0  0
 16 34  1  0  0  0  0
 16 35  1  0  0  0  0
 17 18  1  0  0  0  0
 17 36  1  0  0  0  0
 17 37  1  0  0  0  0
 18 19  1  0  0  0  0
 18 38  1  0  0  0  0
 18 39  1  0  0  0  0
 19 20  1  0  0  0  0
 19 40  1  0  0  0  0
 19 41  1  0  0  0  0
 20 42  1  0  0  0  0
 20 43  1  0  0  0  0
M  CHG  1   7   1
M  END
> <s_m_source_file>
AV-unprocessed.smi

> <i_m_source_file_index>
2664

> <i_lp_mmshare_version>
43012

> <i_f3d_flags>
0

> <s_epik_input>
W2NIXTFbY0hdbltjSF1bY0hdYzFbTkhdQyg9TylbTkhdW0NASF0oW0NIMl1bQ0gyXVtPSF0pW0NIXTJbQ0gyXVtDSDJdW0NIMl1bQ0gyXVtDSDJdMg==

> <s_epik_cmdline>
J2VwaWtfcHl0aG9uJywgJy1waCcsICc3LjAnLCAnLXRuJywgJzgnLCAnLW1hJywgJzIwMCcsICctbWV0YWxfYmluZGluZycsICctaW1hZScsICc8aW5maWxlLm1hZT4nLCAnLW9tYWUnLCAnPG91dGZpbGUubWFlPic=

> <r_epik_Ionization_Penalty>
1.0085

> <r_epik_Ionization_Penalty_Charging>
1.00848

> <r_epik_Ionization_Penalty_Neutral>
2.14516e-05

> <r_epik_State_Penalty>
1.05769

> <r_epik_Charging_Adjusted_Penalty>
2.06617

> <i_epik_Tot_Q>
1

> <i_epik_Tot_abs_Q>
1

> <r_epik_Metal_State_Penalty>
1.15842

> <b_epik_Metal_Only>
0

> <s_lp_Force_Field>
OPLS_2005

> <r_lp_Energy>
27.8621

> <b_lp_Chiralities_Consistent>
1

> <s_lp_Variant>
AV-unprocessed.smi:2664-3

> <Gold.Version>
5.8.1

> <Gold.Id.Protein>
6NUR|6NUR_protein|mol2

> <Gold.PLP.Fitness>
50.8167

> <Gold.PLP.PLP>
-35.0800

> <Gold.PLP.part.hbond>
-4.7768

> <Gold.PLP.part.metal>
0.0000

> <Gold.PLP.part.buried>
-4.8621

> <Gold.PLP.part.nonpolar>
-29.7593

> <Gold.PLP.part.repulsive>
3.4703

> <Gold.PLP.ligand.clash>
0.0000

> <Gold.PLP.ligand.torsion>
0.8107

> <Gold.PLP.Chemscore.Hbond>
5.7596

> <Gold.PLP.Chemscore.CHOScore>
0.0000

> <Gold.PLP.Chemscore.Metal>
0.0000

> <Gold.Chemscore.Hbonds>
donor molecule, donor type, donor heavy atom, donor atom, acceptor molecule, acceptor atom, score
      L1  H     3    21       P1  7948  1.00
      L1  H     7    44       P1  8028  2.00
      L1  H    10    26       P1  7948  0.91
      L1  H    14    32       P1 10957  0.93
      P1  H 11000 11005       L1    14  0.31

> <Gold.PLP.Chemscore.Internal.Correction>
0.0795

> <Gold.Rescore>
     Score         DG    S(hbond)    S(metal)    S(lipo)     H(rot)  DE(clash)    DE(int)     intcor
     20.39     -23.91       4.16        0.00      88.48       2.27       1.55       1.97       ----

> <Gold.Chemscore.Fitness>
20.3935

> <Gold.Chemscore.DG>
-23.9128

> <Gold.Chemscore.ZeroCoef>
-5.4800

> <Gold.Chemscore.Hbond>
4.1616

> <Gold.Chemscore.Metal>
0.0000

> <Gold.Chemscore.Lipo>
88.4810

> <Gold.Chemscore.Internal_Hbond>
0.0000

> <Gold.Chemscore.DEClash>
1.5532

> <Gold.Chemscore.DEInternal>
1.9660

> <Gold.Chemscore.Rot>
2.2731

> <Gold.Chemscore.Internal.Correction>
   9.000000E+99

> <Gold.Chemscore.Hbonds>
donor molecule, donor type, donor heavy atom, donor atom, acceptor molecule, acceptor atom, score
      L1  H     3    21       P1  7948  1.00
      L1  H     7    44       P1  8028  0.95
      L1  H    10    26       P1  7948  0.86
      L1  H    14    32       P1 10957  0.90
      P1  H 11000 11005       L1    14  0.02

> <Gold.Chemscore.Hbond.Weighted>
-13.8997

> <Gold.Chemscore.Metal.Weighted>
-0.0000

> <Gold.Chemscore.Lipo.Weighted>
-10.3523

> <Gold.Chemscore.Internal_Hbond.Weighted>
0.0000

> <Gold.Chemscore.DEClash.Weighted>
1.5532

> <Gold.Chemscore.DEInternal.Weighted>
1.9660

> <Gold.Chemscore.Rot.Weighted>
5.8192

> <Gold.Chemscore.Internal.Correction.Weighted>
   9.000000E+99

> <Gold.Protein.RotatedTorsions>
[ 6907 6896 6895 6894 ] final -157.29 input  -60.11 | X-H torsion
[ 7974 7965 7964 7962 ] final  -49.90 input  175.53 | X-H torsion
[ 8008 7997 7996 7995 ] final  -76.21 input   59.86 | X-H torsion
[ 10167 10162 10161 10158 ] final -163.82 input  -65.29 | X-H torsion
[ 10718 10713 10712 10709 ] final -121.91 input   66.30 | X-H torsion
[ 10763 10752 10751 10750 ] final  -46.21 input  -60.55 | X-H torsion
[ 11005 11000 10999 10996 ] final  -24.31 input  -57.11 | X-H torsion

> <Gold.Protein.ActiveResidues>
 VAL166  LYS551  ARG553  GLY616  TRP617  ASP618  TYR619  PRO620  LYS621  CYS622 
 ASP623  PHE694  ASN695  SER759  ASP760  ASP761  ALA762  ILE779  LEU786  VAL792 
 PHE793  MET794  SER795  GLU796  ALA797  LYS798  CYS799  TRP800  GLU811  SER814 

> <Gold.Protein.RotatedAtoms>
  151.3006  133.4124  159.2639 H   0  0  0  0  0  0  0  0  0  0  0  0  # atno 6907 bound_to 6896
  151.0199  134.9461  159.8064 H   0  0  0  0  0  0  0  0  0  0  0  0  # atno 6908 bound_to 6896
  152.5321  134.2969  159.9116 H   0  0  0  0  0  0  0  0  0  0  0  0  # atno 6909 bound_to 6896
  145.9356  140.7709  142.9577 H   0  0  0  0  0  0  0  0  0  0  0  0  # atno 7974 bound_to 7965
  154.5485  140.0731  156.8628 H   0  0  0  0  0  0  0  0  0  0  0  0  # atno 8008 bound_to 7997
  155.3040  140.3386  155.4228 H   0  0  0  0  0  0  0  0  0  0  0  0  # atno 8009 bound_to 7997
  156.1940  140.1696  156.8022 H   0  0  0  0  0  0  0  0  0  0  0  0  # atno 8010 bound_to 7997
  139.6294  144.0469  152.2003 H   0  0  0  0  0  0  0  0  0  0  0  0  # atno 10167 bound_to 10162
  156.1375  130.6441  150.9719 H   0  0  0  0  0  0  0  0  0  0  0  0  # atno 10718 bound_to 10713
  154.0412  135.6643  153.4790 H   0  0  0  0  0  0  0  0  0  0  0  0  # atno 10763 bound_to 10752
  153.0501  135.5090  154.7840 H   0  0  0  0  0  0  0  0  0  0  0  0  # atno 10764 bound_to 10752
  154.6817  135.3046  154.9570 H   0  0  0  0  0  0  0  0  0  0  0  0  # atno 10765 bound_to 10752
  140.8833  133.7639  156.0329 H   0  0  0  0  0  0  0  0  0  0  0  0  # atno 11005 bound_to 11000
  144.6771  140.2198  143.7367 LP  0  0  0  0  0  0  0  0  0  0  0  0  # atno 17320 bound_to 7965
  145.8368  139.2111  143.1851 LP  0  0  0  0  0  0  0  0  0  0  0  0  # atno 17321 bound_to 7965
  140.0131  144.6209  150.7631 LP  0  0  0  0  0  0  0  0  0  0  0  0  # atno 17342 bound_to 10162
  140.7430  143.2840  151.3516 LP  0  0  0  0  0  0  0  0  0  0  0  0  # atno 17343 bound_to 10162
  157.6546  131.0891  150.7976 LP  0  0  0  0  0  0  0  0  0  0  0  0  # atno 17370 bound_to 10713
  156.8055  130.4935  149.5363 LP  0  0  0  0  0  0  0  0  0  0  0  0  # atno 17371 bound_to 10713
  140.8435  134.3038  157.5304 LP  0  0  0  0  0  0  0  0  0  0  0  0  # atno 17394 bound_to 11000
  139.8722  134.9429  156.3838 LP  0  0  0  0  0  0  0  0  0  0  0  0  # atno 17395 bound_to 11000

$$$$
