AV-unprocessed.smi:2459|AV-procd|sdf|9712|dock4
  -GOLD-   2272013353D 1   1.00000     0.00000
 Structure written by MMmdl.
 47 48  0  0  0  0  0  0  0  0  2 V2000
  154.9211  137.1830  164.6287 C   0  0  0  0  0  0  0  0  0  0  0  0
  156.2756  137.6154  164.5181 O   0  0  0  0  0  0  0  0  0  0  0  0
  156.6146  138.9309  164.9753 C   0  0  0  0  0  0  0  0  0  0  0  0
  155.9822  139.0287  166.3773 C   0  0  0  0  0  0  0  0  0  0  0  0
  158.1524  139.0632  165.1093 C   0  0  0  0  0  0  0  0  0  0  0  0
  155.9734  139.9946  164.0468 C   0  0  0  0  0  0  0  0  0  0  0  0
  155.9625  141.1714  164.4073 O   0  0  0  0  0  0  0  0  0  0  0  0
  155.4501  139.5640  162.8817 N   0  0  0  0  0  0  0  0  0  0  0  0
  154.7869  140.3027  161.8642 C   0  0  0  0  0  0  0  0  0  0  0  0
  154.9145  140.0423  160.4792 C   0  0  0  0  0  0  0  0  0  0  0  0
  154.2615  140.8153  159.5859 N   0  3  0  0  0  0  0  0  0  0  0  0
  153.4694  141.8604  159.9282 C   0  0  0  0  0  0  0  0  0  0  0  0
  152.8592  142.6102  158.9050 N   0  0  0  0  0  0  0  0  0  0  0  0
  151.4677  142.2333  158.6644 C   0  0  0  0  0  0  0  0  0  0  0  0
  150.9558  142.8374  157.3455 C   0  0  0  0  0  0  0  0  0  0  0  0
  151.1670  144.3595  157.3182 C   0  0  0  0  0  0  0  0  0  0  0  0
  152.6398  144.6967  157.6006 C   0  0  0  0  0  0  0  0  0  0  0  0
  153.1084  144.0517  158.9161 C   0  0  0  0  0  0  0  0  0  0  0  0
  153.3060  142.1699  161.3034 C   0  0  0  0  0  0  0  0  0  0  0  0
  152.4186  143.3120  161.7701 C   0  0  0  0  0  0  0  0  0  0  0  0
  153.9767  141.3848  162.2670 C   0  0  0  0  0  0  0  0  0  0  0  0
  154.8428  136.1690  164.2368 H   0  0  0  0  0  0  0  0  0  0  0  0
  154.2441  137.8060  164.0452 H   0  0  0  0  0  0  0  0  0  0  0  0
  154.5718  137.1553  165.6609 H   0  0  0  0  0  0  0  0  0  0  0  0
  156.1567  140.0069  166.8271 H   0  0  0  0  0  0  0  0  0  0  0  0
  156.4027  138.2800  167.0497 H   0  0  0  0  0  0  0  0  0  0  0  0
  154.9042  138.8637  166.3503 H   0  0  0  0  0  0  0  0  0  0  0  0
  158.4282  140.0058  165.5840 H   0  0  0  0  0  0  0  0  0  0  0  0
  158.6664  139.0208  164.1490 H   0  0  0  0  0  0  0  0  0  0  0  0
  158.5581  138.2610  165.7265 H   0  0  0  0  0  0  0  0  0  0  0  0
  155.5799  138.5818  162.6865 H   0  0  0  0  0  0  0  0  0  0  0  0
  155.5200  139.2635  160.0414 H   0  0  0  0  0  0  0  0  0  0  0  0
  151.3583  141.1495  158.6373 H   0  0  0  0  0  0  0  0  0  0  0  0
  150.8581  142.5887  159.4963 H   0  0  0  0  0  0  0  0  0  0  0  0
  151.4824  142.3803  156.5065 H   0  0  0  0  0  0  0  0  0  0  0  0
  149.8991  142.6034  157.2125 H   0  0  0  0  0  0  0  0  0  0  0  0
  150.8644  144.7654  156.3525 H   0  0  0  0  0  0  0  0  0  0  0  0
  150.5320  144.8318  158.0687 H   0  0  0  0  0  0  0  0  0  0  0  0
  153.2604  144.3400  156.7774 H   0  0  0  0  0  0  0  0  0  0  0  0
  152.7752  145.7776  157.6449 H   0  0  0  0  0  0  0  0  0  0  0  0
  152.5810  144.5064  159.7559 H   0  0  0  0  0  0  0  0  0  0  0  0
  154.1726  144.2421  159.0615 H   0  0  0  0  0  0  0  0  0  0  0  0
  152.0681  143.1400  162.7883 H   0  0  0  0  0  0  0  0  0  0  0  0
  151.5391  143.4184  161.1347 H   0  0  0  0  0  0  0  0  0  0  0  0
  152.9706  144.2516  161.7587 H   0  0  0  0  0  0  0  0  0  0  0  0
  153.8651  141.6107  163.3179 H   0  0  0  0  0  0  0  0  0  0  0  0
  154.3802  140.6050  158.5948 H   0  0  0  0  0  0  0  0  0  0  0  0
  1  2  1  0  0  0  0
  1 22  1  0  0  0  0
  1 23  1  0  0  0  0
  1 24  1  0  0  0  0
  2  3  1  0  0  0  0
  3  4  1  0  0  0  0
  3  5  1  0  0  0  0
  3  6  1  0  0  0  0
  4 25  1  0  0  0  0
  4 26  1  0  0  0  0
  4 27  1  0  0  0  0
  5 28  1  0  0  0  0
  5 29  1  0  0  0  0
  5 30  1  0  0  0  0
  6  7  2  0  0  0  0
  6  8  1  0  0  0  0
  8  9  1  0  0  0  0
  8 31  1  0  0  0  0
  9 21  1  0  0  0  0
  9 10  2  0  0  0  0
 10 11  1  0  0  0  0
 10 32  1  0  0  0  0
 11 12  2  0  0  0  0
 11 47  1  0  0  0  0
 12 13  1  0  0  0  0
 12 19  1  0  0  0  0
 13 18  1  0  0  0  0
 13 14  1  0  0  0  0
 14 15  1  0  0  0  0
 14 33  1  0  0  0  0
 14 34  1  0  0  0  0
 15 16  1  0  0  0  0
 15 35  1  0  0  0  0
 15 36  1  0  0  0  0
 16 17  1  0  0  0  0
 16 37  1  0  0  0  0
 16 38  1  0  0  0  0
 17 18  1  0  0  0  0
 17 39  1  0  0  0  0
 17 40  1  0  0  0  0
 18 41  1  0  0  0  0
 18 42  1  0  0  0  0
 19 20  1  0  0  0  0
 19 21  2  0  0  0  0
 20 43  1  0  0  0  0
 20 44  1  0  0  0  0
 20 45  1  0  0  0  0
 21 46  1  0  0  0  0
M  CHG  1  11   1
M  END
> <s_m_source_file>
AV-unprocessed.smi

> <i_m_source_file_index>
2459

> <i_lp_mmshare_version>
43012

> <i_f3d_flags>
0

> <s_epik_input>
W0NIM11PQyhbQ0gzXSkoW0NIM10pQyg9TylbTkhdYzFbY0hdbmMoYyhbQ0gzXSlbY0hdMSlOMltDSDJdW0NIMl1bQ0gyXVtDSDJdW0NIMl0y

> <s_epik_cmdline>
J2VwaWtfcHl0aG9uJywgJy1waCcsICc3LjAnLCAnLXRuJywgJzgnLCAnLW1hJywgJzIwMCcsICctbWV0YWxfYmluZGluZycsICctaW1hZScsICc8aW5maWxlLm1hZT4nLCAnLW9tYWUnLCAnPG91dGZpbGUubWFlPic=

> <r_lp_tautomer_probability>
0.999994

> <r_epik_Ionization_Penalty>
1.22605

> <r_epik_Ionization_Penalty_Charging>
1.22604

> <r_epik_Ionization_Penalty_Neutral>
3.07462e-06

> <r_epik_State_Penalty>
0.10642

> <r_epik_Charging_Adjusted_Penalty>
1.33246

> <i_epik_Tot_Q>
1

> <i_epik_Tot_abs_Q>
1

> <r_epik_Metal_State_Penalty>
0.12082

> <b_epik_Metal_Only>
0

> <s_lp_Force_Field>
OPLS_2005

> <r_lp_Energy>
38.0416

> <b_lp_Chiralities_Consistent>
1

> <s_lp_Variant>
AV-unprocessed.smi:2459-1

> <Gold.Version>
5.8.1

> <Gold.Id.Protein>
6NUR|6NUR_protein|mol2

> <Gold.PLP.Fitness>
39.2753

> <Gold.PLP.PLP>
-40.8356

> <Gold.PLP.part.hbond>
-1.0000

> <Gold.PLP.part.metal>
0.0000

> <Gold.PLP.part.buried>
-1.2632

> <Gold.PLP.part.nonpolar>
-37.4702

> <Gold.PLP.part.repulsive>
0.1323

> <Gold.PLP.ligand.clash>
0.0000

> <Gold.PLP.ligand.torsion>
0.9321

> <Gold.PLP.Chemscore.Hbond>
0.0000

> <Gold.PLP.Chemscore.CHOScore>
0.0000

> <Gold.PLP.Chemscore.Metal>
0.0000

> <Gold.PLP.Chemscore.Internal.Correction>
0.3039

> <Gold.Rescore>
     Score         DG    S(hbond)    S(metal)    S(lipo)     H(rot)  DE(clash)    DE(int)     intcor
     13.92     -16.36       0.00        0.00     122.32       1.34       0.21       2.23       ----

> <Gold.Chemscore.Fitness>
13.9165

> <Gold.Chemscore.DG>
-16.3574

> <Gold.Chemscore.ZeroCoef>
-5.4800

> <Gold.Chemscore.Hbond>
0.0000

> <Gold.Chemscore.Metal>
0.0000

> <Gold.Chemscore.Lipo>
122.3246

> <Gold.Chemscore.Internal_Hbond>
0.0000

> <Gold.Chemscore.DEClash>
0.2104

> <Gold.Chemscore.DEInternal>
2.2305

> <Gold.Chemscore.Rot>
1.3416

> <Gold.Chemscore.Internal.Correction>
   9.000000E+99

> <Gold.Chemscore.Hbond.Weighted>
-0.0000

> <Gold.Chemscore.Metal.Weighted>
-0.0000

> <Gold.Chemscore.Lipo.Weighted>
-14.3120

> <Gold.Chemscore.Internal_Hbond.Weighted>
0.0000

> <Gold.Chemscore.DEClash.Weighted>
0.2104

> <Gold.Chemscore.DEInternal.Weighted>
2.2305

> <Gold.Chemscore.Rot.Weighted>
3.4346

> <Gold.Chemscore.Internal.Correction.Weighted>
   9.000000E+99

> <Gold.Protein.RotatedTorsions>
[ 6907 6896 6895 6894 ] final   13.35 input  -60.11 | X-H torsion
[ 7974 7965 7964 7962 ] final  171.25 input  175.53 | X-H torsion
[ 8008 7997 7996 7995 ] final -169.54 input   59.86 | X-H torsion
[ 10167 10162 10161 10158 ] final   82.38 input  -65.29 | X-H torsion
[ 10718 10713 10712 10709 ] final  172.60 input   66.30 | X-H torsion
[ 10763 10752 10751 10750 ] final  -34.50 input  -60.55 | X-H torsion
[ 11005 11000 10999 10996 ] final -117.86 input  -57.11 | X-H torsion

> <Gold.Protein.ActiveResidues>
 VAL166  LYS551  ARG553  GLY616  TRP617  ASP618  TYR619  PRO620  LYS621  CYS622 
 ASP623  PHE694  ASN695  SER759  ASP760  ASP761  ALA762  ILE779  LEU786  VAL792 
 PHE793  MET794  SER795  GLU796  ALA797  LYS798  CYS799  TRP800  GLU811  SER814 

> <Gold.Protein.RotatedAtoms>
  151.7849  135.0751  160.0378 H   0  0  0  0  0  0  0  0  0  0  0  0  # atno 6907 bound_to 6896
  152.3197  133.5836  159.5744 H   0  0  0  0  0  0  0  0  0  0  0  0  # atno 6908 bound_to 6896
  150.7363  133.9945  159.3660 H   0  0  0  0  0  0  0  0  0  0  0  0  # atno 6909 bound_to 6896
  144.7300  139.9322  143.6425 H   0  0  0  0  0  0  0  0  0  0  0  0  # atno 7974 bound_to 7965
  155.9063  140.1049  157.1312 H   0  0  0  0  0  0  0  0  0  0  0  0  # atno 8008 bound_to 7997
  154.4033  140.1283  156.4565 H   0  0  0  0  0  0  0  0  0  0  0  0  # atno 8009 bound_to 7997
  155.7363  140.3467  155.5085 H   0  0  0  0  0  0  0  0  0  0  0  0  # atno 8010 bound_to 7997
  139.9294  144.6162  150.8360 H   0  0  0  0  0  0  0  0  0  0  0  0  # atno 10167 bound_to 10162
  156.9765  131.0106  151.2892 H   0  0  0  0  0  0  0  0  0  0  0  0  # atno 10718 bound_to 10713
  153.8477  135.6852  153.4795 H   0  0  0  0  0  0  0  0  0  0  0  0  # atno 10763 bound_to 10752
  153.1415  135.4655  154.9501 H   0  0  0  0  0  0  0  0  0  0  0  0  # atno 10764 bound_to 10752
  154.7816  135.3271  154.7924 H   0  0  0  0  0  0  0  0  0  0  0  0  # atno 10765 bound_to 10752
  141.0326  133.9958  157.3120 H   0  0  0  0  0  0  0  0  0  0  0  0  # atno 11005 bound_to 11000
  146.0849  139.3837  143.0442 LP  0  0  0  0  0  0  0  0  0  0  0  0  # atno 17320 bound_to 7965
  145.7791  140.9864  143.1109 LP  0  0  0  0  0  0  0  0  0  0  0  0  # atno 17321 bound_to 7965
  140.7641  143.3241  151.2555 LP  0  0  0  0  0  0  0  0  0  0  0  0  # atno 17342 bound_to 10162
  139.6795  143.9879  152.2800 LP  0  0  0  0  0  0  0  0  0  0  0  0  # atno 17343 bound_to 10162
  157.5556  130.8211  149.8200 LP  0  0  0  0  0  0  0  0  0  0  0  0  # atno 17370 bound_to 10713
  156.0261  130.3779  150.1818 LP  0  0  0  0  0  0  0  0  0  0  0  0  # atno 17371 bound_to 10713
  139.9218  135.0200  156.8092 LP  0  0  0  0  0  0  0  0  0  0  0  0  # atno 17394 bound_to 11000
  140.6379  133.9845  155.7693 LP  0  0  0  0  0  0  0  0  0  0  0  0  # atno 17395 bound_to 11000

$$$$
