AV-unprocessed.smi:139|AV-procd|sdf|1184|dock6
  -GOLD-   2262018333D 1   1.00000     0.00000
 Structure written by MMmdl.
 50 53  0  0  0  0  0  0  0  0  1 V2000
  149.6237  142.2418  158.5512 O   0  0  0  0  0  0  0  0  0  0  0  0
  150.2246  142.3788  157.4846 C   0  0  0  0  0  0  0  0  0  0  0  0
  149.7237  141.7003  156.2011 C   0  0  0  0  0  0  0  0  0  0  0  0
  149.5912  140.2318  156.3204 N   0  0  0  0  0  0  0  0  0  0  0  0
  150.4527  139.4054  155.5571 C   0  0  0  0  0  0  0  0  0  0  0  0
  151.3015  139.8884  154.8060 O   0  0  0  0  0  0  0  0  0  0  0  0
  150.2633  137.9696  155.7288 C   0  0  0  0  0  0  0  0  0  0  0  0
  151.0261  137.1094  155.0330 F   0  0  0  0  0  0  0  0  0  0  0  0
  149.3276  137.4881  156.5728 C   0  0  0  0  0  0  0  0  0  0  0  0
  148.5024  138.3067  157.3230 N   0  0  0  0  0  0  0  0  0  0  0  0
  147.4601  137.7396  158.2648 C   0  0  1  0  0  0  0  0  0  0  0  0
  147.2339  136.2522  157.9740 C   0  0  0  0  0  0  0  0  0  0  0  0
  148.2658  135.6068  158.8724 C   0  0  0  0  0  0  0  0  0  0  0  0
  148.2456  136.5334  160.0841 C   0  0  0  0  0  0  0  0  0  0  0  0
  147.9246  137.8302  159.5811 O   0  0  0  0  0  0  0  0  0  0  0  0
  148.6228  139.7090  157.2101 C   0  0  0  0  0  0  0  0  0  0  0  0
  147.8989  140.4570  157.8711 O   0  0  0  0  0  0  0  0  0  0  0  0
  151.3493  143.1026  157.3567 N   0  0  0  0  0  0  0  0  0  0  0  0
  152.0471  143.8359  158.4161 C   0  0  1  0  0  0  0  0  0  0  0  0
  151.2507  145.0819  158.8576 C   0  0  0  0  0  0  0  0  0  0  0  0
  151.8905  145.7550  160.0730 C   0  0  0  0  0  0  0  0  0  0  0  0
  151.9374  144.7962  161.2675 C   0  0  0  0  0  0  0  0  0  0  0  0
  152.4911  143.4233  160.9174 C   0  0  0  0  0  0  0  0  0  0  0  0
  152.9589  142.5978  161.9614 C   0  0  0  0  0  0  0  0  0  0  0  0
  153.4738  141.3184  161.6840 C   0  0  0  0  0  0  0  0  0  0  0  0
  153.5260  140.8571  160.3568 C   0  0  0  0  0  0  0  0  0  0  0  0
  153.0596  141.6737  159.3102 C   0  0  0  0  0  0  0  0  0  0  0  0
  152.5287  142.9571  159.5769 C   0  0  0  0  0  0  0  0  0  0  0  0
  148.7727  142.1518  155.9135 H   0  0  0  0  0  0  0  0  0  0  0  0
  150.3990  141.9699  155.3877 H   0  0  0  0  0  0  0  0  0  0  0  0
  149.2318  136.4157  156.6508 H   0  0  0  0  0  0  0  0  0  0  0  0
  146.5731  138.3620  158.1363 H   0  0  0  0  0  0  0  0  0  0  0  0
  146.2264  135.9837  158.2935 H   0  0  0  0  0  0  0  0  0  0  0  0
  147.3475  136.0080  156.9173 H   0  0  0  0  0  0  0  0  0  0  0  0
  148.0311  134.5720  159.1219 H   0  0  0  0  0  0  0  0  0  0  0  0
  149.2461  135.6289  158.3948 H   0  0  0  0  0  0  0  0  0  0  0  0
  147.4638  136.2289  160.7808 H   0  0  0  0  0  0  0  0  0  0  0  0
  149.1945  136.5377  160.6205 H   0  0  0  0  0  0  0  0  0  0  0  0
  151.7668  143.1466  156.4386 H   0  0  0  0  0  0  0  0  0  0  0  0
  152.9646  144.2001  157.9523 H   0  0  0  0  0  0  0  0  0  0  0  0
  151.1685  145.7869  158.0298 H   0  0  0  0  0  0  0  0  0  0  0  0
  150.2304  144.8074  159.1268 H   0  0  0  0  0  0  0  0  0  0  0  0
  152.9031  146.0679  159.8157 H   0  0  0  0  0  0  0  0  0  0  0  0
  151.3442  146.6595  160.3413 H   0  0  0  0  0  0  0  0  0  0  0  0
  152.5312  145.2369  162.0691 H   0  0  0  0  0  0  0  0  0  0  0  0
  150.9309  144.6578  161.6640 H   0  0  0  0  0  0  0  0  0  0  0  0
  152.9235  142.9459  162.9834 H   0  0  0  0  0  0  0  0  0  0  0  0
  153.8302  140.6925  162.4887 H   0  0  0  0  0  0  0  0  0  0  0  0
  153.9255  139.8774  160.1404 H   0  0  0  0  0  0  0  0  0  0  0  0
  153.1146  141.3065  158.2960 H   0  0  0  0  0  0  0  0  0  0  0  0
  1  2  2  0  0  0  0
  2  3  1  0  0  0  0
  2 18  1  0  0  0  0
  3  4  1  0  0  0  0
  3 29  1  0  0  0  0
  3 30  1  0  0  0  0
  4 16  1  0  0  0  0
  4  5  1  0  0  0  0
  5  6  2  0  0  0  0
  5  7  1  0  0  0  0
  7  8  1  0  0  0  0
  7  9  2  0  0  0  0
  9 10  1  0  0  0  0
  9 31  1  0  0  0  0
 10 11  1  0  0  0  0
 10 16  1  0  0  0  0
 11 15  1  0  0  0  0
 11 12  1  0  0  0  0
 11 32  1  0  0  0  0
 12 13  1  0  0  0  0
 12 33  1  0  0  0  0
 12 34  1  0  0  0  0
 13 14  1  0  0  0  0
 13 35  1  0  0  0  0
 13 36  1  0  0  0  0
 14 15  1  0  0  0  0
 14 37  1  0  0  0  0
 14 38  1  0  0  0  0
 16 17  2  0  0  0  0
 18 19  1  0  0  0  0
 18 39  1  0  0  0  0
 19 28  1  0  0  0  0
 19 20  1  0  0  0  0
 19 40  1  0  0  0  0
 20 21  1  0  0  0  0
 20 41  1  0  0  0  0
 20 42  1  0  0  0  0
 21 22  1  0  0  0  0
 21 43  1  0  0  0  0
 21 44  1  0  0  0  0
 22 23  1  0  0  0  0
 22 45  1  0  0  0  0
 22 46  1  0  0  0  0
 23 28  2  0  0  0  0
 23 24  1  0  0  0  0
 24 25  2  0  0  0  0
 24 47  1  0  0  0  0
 25 26  1  0  0  0  0
 25 48  1  0  0  0  0
 26 27  2  0  0  0  0
 26 49  1  0  0  0  0
 27 28  1  0  0  0  0
 27 50  1  0  0  0  0
M  END
> <s_m_source_file>
AV-unprocessed.smi

> <i_m_source_file_index>
139

> <i_lp_mmshare_version>
43012

> <i_f3d_flags>
0

> <s_epik_input>
W2NIXTFbY0hdW2NIXVtjSF1jKGMxMilbQ0BASF0oW0NIMl1bQ0gyXVtDSDJdMilbTkhdQyg9TylbQ0gyXW4zYyg9TyljKEYpW2NIXW4oYzM9TylbQ0BASF00W0NIMl1bQ0gyXVtDSDJdTzQ=

> <s_epik_cmdline>
J2VwaWtfcHl0aG9uJywgJy1waCcsICc3LjAnLCAnLXRuJywgJzgnLCAnLW1hJywgJzIwMCcsICctbWV0YWxfYmluZGluZycsICctaW1hZScsICc8aW5maWxlLm1hZT4nLCAnLW9tYWUnLCAnPG91dGZpbGUubWFlPic=

> <r_lp_tautomer_probability>
1

> <r_epik_Ionization_Penalty>
3.261e-08

> <r_epik_Ionization_Penalty_Charging>
3.6725e-09

> <r_epik_Ionization_Penalty_Neutral>
2.89375e-08

> <r_epik_State_Penalty>
-0

> <r_epik_Charging_Adjusted_Penalty>
3.6725e-09

> <i_epik_Tot_Q>
0

> <i_epik_Tot_abs_Q>
0

> <r_epik_Metal_State_Penalty>
-0

> <b_epik_Metal_Only>
0

> <s_epik_Chemistry_Notes>
This compound contains an acetal/aminal-like group ( X-CH(R)-Y where X, Y are N, S, or O) that may be acid/base labile, releasing an aldehyde.

> <s_lp_Force_Field>
OPLS_2005

> <r_lp_Energy>
31.2563

> <b_lp_Chiralities_Consistent>
1

> <s_lp_Variant>
AV-unprocessed.smi:139-4

> <Gold.Version>
5.8.1

> <Gold.Id.Protein>
6NUR|6NUR_protein|mol2

> <Gold.PLP.Fitness>
57.8060

> <Gold.PLP.PLP>
-54.6346

> <Gold.PLP.part.hbond>
-4.2585

> <Gold.PLP.part.metal>
0.0000

> <Gold.PLP.part.buried>
-6.0773

> <Gold.PLP.part.nonpolar>
-45.3845

> <Gold.PLP.part.repulsive>
0.1617

> <Gold.PLP.ligand.clash>
0.0000

> <Gold.PLP.ligand.torsion>
0.5236

> <Gold.PLP.Chemscore.Hbond>
1.3822

> <Gold.PLP.Chemscore.CHOScore>
0.0000

> <Gold.PLP.Chemscore.Metal>
0.0000

> <Gold.Chemscore.Hbonds>
donor molecule, donor type, donor heavy atom, donor atom, acceptor molecule, acceptor atom, score
      P1  H  6934  6947       L1    15  0.48
      P1  H  7989  7998       L1     6  1.00

> <Gold.PLP.Chemscore.Internal.Correction>
0.0720

> <Gold.Rescore>
     Score         DG    S(hbond)    S(metal)    S(lipo)     H(rot)  DE(clash)    DE(int)     intcor
     19.76     -21.86       1.61        0.00     133.80       1.82       0.01       2.09       ----

> <Gold.Chemscore.Fitness>
19.7571

> <Gold.Chemscore.DG>
-21.8597

> <Gold.Chemscore.ZeroCoef>
-5.4800

> <Gold.Chemscore.Hbond>
1.6099

> <Gold.Chemscore.Metal>
0.0000

> <Gold.Chemscore.Lipo>
133.8038

> <Gold.Chemscore.Internal_Hbond>
0.0000

> <Gold.Chemscore.DEClash>
0.0115

> <Gold.Chemscore.DEInternal>
2.0911

> <Gold.Chemscore.Rot>
1.8174

> <Gold.Chemscore.Internal.Correction>
   9.000000E+99

> <Gold.Chemscore.Hbonds>
donor molecule, donor type, donor heavy atom, donor atom, acceptor molecule, acceptor atom, score
      P1  H  6934  6947       L1    15  0.43
      P1  H  7989  7998       L1     6  1.00

> <Gold.Chemscore.Hbond.Weighted>
-5.3771

> <Gold.Chemscore.Metal.Weighted>
-0.0000

> <Gold.Chemscore.Lipo.Weighted>
-15.6550

> <Gold.Chemscore.Internal_Hbond.Weighted>
0.0000

> <Gold.Chemscore.DEClash.Weighted>
0.0115

> <Gold.Chemscore.DEInternal.Weighted>
2.0911

> <Gold.Chemscore.Rot.Weighted>
4.6524

> <Gold.Chemscore.Internal.Correction.Weighted>
   9.000000E+99

> <Gold.Protein.RotatedTorsions>
[ 6907 6896 6895 6894 ] final  -96.46 input  -60.11 | X-H torsion
[ 7974 7965 7964 7962 ] final   48.04 input  175.53 | X-H torsion
[ 8008 7997 7996 7995 ] final  104.00 input   59.86 | X-H torsion
[ 10167 10162 10161 10158 ] final   72.61 input  -65.29 | X-H torsion
[ 10718 10713 10712 10709 ] final   -1.11 input   66.30 | X-H torsion
[ 10763 10752 10751 10750 ] final  128.31 input  -60.55 | X-H torsion
[ 11005 11000 10999 10996 ] final -132.82 input  -57.11 | X-H torsion

> <Gold.Protein.ActiveResidues>
 VAL166  LYS551  ARG553  GLY616  TRP617  ASP618  TYR619  PRO620  LYS621  CYS622 
 ASP623  PHE694  ASN695  SER759  ASP760  ASP761  ALA762  ILE779  LEU786  VAL792 
 PHE793  MET794  SER795  GLU796  ALA797  LYS798  CYS799  TRP800  GLU811  SER814 

> <Gold.Protein.RotatedAtoms>
  150.6989  134.1499  159.4136 H   0  0  0  0  0  0  0  0  0  0  0  0  # atno 6907 bound_to 6896
  151.9482  135.0179  160.0549 H   0  0  0  0  0  0  0  0  0  0  0  0  # atno 6908 bound_to 6896
  152.2034  133.4823  159.5108 H   0  0  0  0  0  0  0  0  0  0  0  0  # atno 6909 bound_to 6896
  146.0241  139.4685  142.9879 H   0  0  0  0  0  0  0  0  0  0  0  0  # atno 7974 bound_to 7965
  156.1534  140.3155  155.8686 H   0  0  0  0  0  0  0  0  0  0  0  0  # atno 8008 bound_to 7997
  155.3926  140.0494  157.3057 H   0  0  0  0  0  0  0  0  0  0  0  0  # atno 8009 bound_to 7997
  154.5079  140.2154  155.9226 H   0  0  0  0  0  0  0  0  0  0  0  0  # atno 8010 bound_to 7997
  140.0334  144.5447  150.7489 H   0  0  0  0  0  0  0  0  0  0  0  0  # atno 10167 bound_to 10162
  156.8105  130.5423  149.5709 H   0  0  0  0  0  0  0  0  0  0  0  0  # atno 10718 bound_to 10713
  153.7234  135.3250  155.3271 H   0  0  0  0  0  0  0  0  0  0  0  0  # atno 10763 bound_to 10752
  154.8349  135.4505  154.1194 H   0  0  0  0  0  0  0  0  0  0  0  0  # atno 10764 bound_to 10752
  153.2321  135.6961  153.7958 H   0  0  0  0  0  0  0  0  0  0  0  0  # atno 10765 bound_to 10752
  140.9136  134.1536  157.4370 H   0  0  0  0  0  0  0  0  0  0  0  0  # atno 11005 bound_to 11000
  145.7146  141.0095  143.1435 LP  0  0  0  0  0  0  0  0  0  0  0  0  # atno 17320 bound_to 7965
  144.7002  139.8798  143.7446 LP  0  0  0  0  0  0  0  0  0  0  0  0  # atno 17321 bound_to 7965
  140.7292  143.2670  151.4013 LP  0  0  0  0  0  0  0  0  0  0  0  0  # atno 17342 bound_to 10162
  139.6061  144.1195  152.2250 LP  0  0  0  0  0  0  0  0  0  0  0  0  # atno 17343 bound_to 10162
  156.1047  130.5995  150.9951 LP  0  0  0  0  0  0  0  0  0  0  0  0  # atno 17370 bound_to 10713
  157.6508  131.0897  150.8055 LP  0  0  0  0  0  0  0  0  0  0  0  0  # atno 17371 bound_to 10713
  139.8762  134.9945  156.5697 LP  0  0  0  0  0  0  0  0  0  0  0  0  # atno 17394 bound_to 11000
  140.8078  133.8453  155.8783 LP  0  0  0  0  0  0  0  0  0  0  0  0  # atno 17395 bound_to 11000

$$$$
