AV-unprocessed.smi:1536|AV-procd|sdf|6188|dock2
  -GOLD-   22720 6353D 1   1.00000     0.00000
 Structure written by MMmdl.
 48 49  0  0  0  0  0  0  0  0  2 V2000
  143.9724  133.4684  150.8646 C   0  0  0  0  0  0  0  0  0  0  0  0
  145.2750  134.2233  150.5457 C   0  0  2  0  0  0  0  0  0  0  0  0
  146.5127  133.3061  150.5618 C   0  0  0  0  0  0  0  0  0  0  0  0
  146.9213  132.9048  151.9901 C   0  0  0  0  0  0  0  0  0  0  0  0
  147.1342  134.1091  152.8359 N   0  3  2  0  0  0  0  0  0  0  0  0
  147.8243  133.8551  154.1407 C   0  0  2  0  0  0  0  0  0  0  0  0
  148.0041  135.1277  155.0231 C   0  0  0  0  0  0  0  0  0  0  0  0
  148.8129  136.1797  154.4134 N   0  0  0  0  0  0  0  0  0  0  0  0
  149.7640  136.8842  155.0453 C   0  0  0  0  0  0  0  0  0  0  0  0
  150.0275  136.7336  156.2390 O   0  0  0  0  0  0  0  0  0  0  0  0
  150.5020  137.9227  154.1923 C   0  0  0  0  0  0  0  0  0  0  0  0
  151.3642  138.7857  154.9804 N   0  0  0  0  0  0  0  0  0  0  0  0
  152.4400  138.5118  155.7212 C   0  0  0  0  0  0  0  0  0  0  0  0
  152.9426  139.6041  156.2759 N   0  0  0  0  0  0  0  0  0  0  0  0
  152.0950  140.6031  155.8270 N   0  0  0  0  0  0  0  0  0  0  0  0
  151.1564  140.1236  155.0577 N   0  0  0  0  0  0  0  0  0  0  0  0
  149.1675  133.1088  153.8902 C   0  0  0  0  0  0  0  0  0  0  0  0
  148.9650  131.5861  153.7546 C   0  0  0  0  0  0  0  0  0  0  0  0
  150.2154  133.3736  154.9882 C   0  0  0  0  0  0  0  0  0  0  0  0
  145.9334  134.9848  152.8943 C   0  0  0  0  0  0  0  0  0  0  0  0
  145.5116  135.4238  151.4814 C   0  0  0  0  0  0  0  0  0  0  0  0
  143.9828  133.0289  151.8617 H   0  0  0  0  0  0  0  0  0  0  0  0
  143.8061  132.6609  150.1512 H   0  0  0  0  0  0  0  0  0  0  0  0
  143.1114  134.1350  150.8075 H   0  0  0  0  0  0  0  0  0  0  0  0
  145.1663  134.6124  149.5325 H   0  0  0  0  0  0  0  0  0  0  0  0
  146.3308  132.4150  149.9600 H   0  0  0  0  0  0  0  0  0  0  0  0
  147.3476  133.8243  150.0879 H   0  0  0  0  0  0  0  0  0  0  0  0
  146.1580  132.2610  152.4224 H   0  0  0  0  0  0  0  0  0  0  0  0
  147.8389  132.3174  151.9421 H   0  0  0  0  0  0  0  0  0  0  0  0
  147.2023  133.1586  154.7047 H   0  0  0  0  0  0  0  0  0  0  0  0
  147.0362  135.5645  155.2688 H   0  0  0  0  0  0  0  0  0  0  0  0
  148.4583  134.8650  155.9786 H   0  0  0  0  0  0  0  0  0  0  0  0
  148.6605  136.3634  153.4320 H   0  0  0  0  0  0  0  0  0  0  0  0
  151.1030  137.4199  153.4329 H   0  0  0  0  0  0  0  0  0  0  0  0
  149.7727  138.5433  153.6702 H   0  0  0  0  0  0  0  0  0  0  0  0
  152.8529  137.5222  155.8500 H   0  0  0  0  0  0  0  0  0  0  0  0
  149.5928  133.4646  152.9514 H   0  0  0  0  0  0  0  0  0  0  0  0
  148.5009  131.1666  154.6478 H   0  0  0  0  0  0  0  0  0  0  0  0
  149.9171  131.0748  153.6084 H   0  0  0  0  0  0  0  0  0  0  0  0
  148.3390  131.3298  152.8997 H   0  0  0  0  0  0  0  0  0  0  0  0
  149.8215  133.1416  155.9783 H   0  0  0  0  0  0  0  0  0  0  0  0
  150.5516  134.4099  154.9916 H   0  0  0  0  0  0  0  0  0  0  0  0
  151.1058  132.7623  154.8374 H   0  0  0  0  0  0  0  0  0  0  0  0
  145.1078  134.4676  153.3825 H   0  0  0  0  0  0  0  0  0  0  0  0
  146.1481  135.8702  153.4926 H   0  0  0  0  0  0  0  0  0  0  0  0
  146.2943  136.0564  151.0598 H   0  0  0  0  0  0  0  0  0  0  0  0
  144.6169  136.0454  151.5333 H   0  0  0  0  0  0  0  0  0  0  0  0
  147.8148  134.6436  152.3148 H   0  0  0  0  0  0  0  0  0  0  0  0
  1  2  1  0  0  0  0
  1 22  1  0  0  0  0
  1 23  1  0  0  0  0
  1 24  1  0  0  0  0
  2 21  1  0  0  0  0
  2  3  1  0  0  0  0
  2 25  1  0  0  0  0
  3  4  1  0  0  0  0
  3 26  1  0  0  0  0
  3 27  1  0  0  0  0
  4  5  1  0  0  0  0
  4 28  1  0  0  0  0
  4 29  1  0  0  0  0
  5  6  1  0  0  0  0
  5 20  1  0  0  0  0
  5 48  1  0  0  0  0
  6  7  1  0  0  0  0
  6 17  1  0  0  0  0
  6 30  1  0  0  0  0
  7  8  1  0  0  0  0
  7 31  1  0  0  0  0
  7 32  1  0  0  0  0
  8  9  1  0  0  0  0
  8 33  1  0  0  0  0
  9 10  2  0  0  0  0
  9 11  1  0  0  0  0
 11 12  1  0  0  0  0
 11 34  1  0  0  0  0
 11 35  1  0  0  0  0
 12 16  1  0  0  0  0
 12 13  1  0  0  0  0
 13 14  2  0  0  0  0
 13 36  1  0  0  0  0
 14 15  1  0  0  0  0
 15 16  2  0  0  0  0
 17 18  1  0  0  0  0
 17 19  1  0  0  0  0
 17 37  1  0  0  0  0
 18 38  1  0  0  0  0
 18 39  1  0  0  0  0
 18 40  1  0  0  0  0
 19 41  1  0  0  0  0
 19 42  1  0  0  0  0
 19 43  1  0  0  0  0
 20 21  1  0  0  0  0
 20 44  1  0  0  0  0
 20 45  1  0  0  0  0
 21 46  1  0  0  0  0
 21 47  1  0  0  0  0
M  CHG  1   5   1
M  END
> <s_m_source_file>
AV-unprocessed.smi

> <i_m_source_file_index>
1536

> <i_lp_mmshare_version>
43012

> <i_f3d_flags>
0

> <s_epik_input>
W0NIM11bQ0hdMVtDSDJdW0NIMl1OKFtDSDJdW0NIMl0xKVtDQEBIXShbQ0hdKFtDSDNdKVtDSDNdKVtDSDJdW05IXUMoPU8pW0NIMl1uMltjSF1ubm4y

> <s_epik_cmdline>
J2VwaWtfcHl0aG9uJywgJy1waCcsICc3LjAnLCAnLXRuJywgJzgnLCAnLW1hJywgJzIwMCcsICctbWV0YWxfYmluZGluZycsICctaW1hZScsICc8aW5maWxlLm1hZT4nLCAnLW9tYWUnLCAnPG91dGZpbGUubWFlPic=

> <r_lp_tautomer_probability>
1

> <r_epik_Ionization_Penalty>
0.00109671

> <r_epik_Ionization_Penalty_Charging>
0.00109273

> <r_epik_Ionization_Penalty_Neutral>
3.97951e-06

> <r_epik_State_Penalty>
0.000716588

> <r_epik_Charging_Adjusted_Penalty>
0.00180932

> <i_epik_Tot_Q>
1

> <i_epik_Tot_abs_Q>
1

> <r_epik_Metal_State_Penalty>
-0

> <b_epik_Metal_Only>
0

> <s_lp_Force_Field>
OPLS_2005

> <r_lp_Energy>
37.5817

> <b_lp_Chiralities_Consistent>
1

> <s_lp_Variant>
AV-unprocessed.smi:1536-3

> <Gold.Version>
5.8.1

> <Gold.Id.Protein>
6NUR|6NUR_protein|mol2

> <Gold.PLP.Fitness>
48.4400

> <Gold.PLP.PLP>
-35.1092

> <Gold.PLP.part.hbond>
-5.1651

> <Gold.PLP.part.metal>
0.0000

> <Gold.PLP.part.buried>
-1.1059

> <Gold.PLP.part.nonpolar>
-29.2267

> <Gold.PLP.part.repulsive>
0.0711

> <Gold.PLP.ligand.clash>
0.0000

> <Gold.PLP.ligand.torsion>
1.0082

> <Gold.PLP.Chemscore.Hbond>
4.9920

> <Gold.PLP.Chemscore.CHOScore>
0.0000

> <Gold.PLP.Chemscore.Metal>
0.0000

> <Gold.Chemscore.Hbonds>
donor molecule, donor type, donor heavy atom, donor atom, acceptor molecule, acceptor atom, score
      L1  H     5    48       P1  7948  2.00
      L1  H     8    33       P1  7948  1.00
      P1  H  7989  7998       L1    16  0.95
      P1  H  7997  8010       L1    14  1.00

> <Gold.PLP.Chemscore.Internal.Correction>
0.3712

> <Gold.Rescore>
     Score         DG    S(hbond)    S(metal)    S(lipo)     H(rot)  DE(clash)    DE(int)     intcor
     11.51     -14.75       2.62        0.00      64.95       2.77       1.15       2.09       ----

> <Gold.Chemscore.Fitness>
11.5121

> <Gold.Chemscore.DG>
-14.7520

> <Gold.Chemscore.ZeroCoef>
-5.4800

> <Gold.Chemscore.Hbond>
2.6246

> <Gold.Chemscore.Metal>
0.0000

> <Gold.Chemscore.Lipo>
64.9523

> <Gold.Chemscore.Internal_Hbond>
0.0000

> <Gold.Chemscore.DEClash>
1.1481

> <Gold.Chemscore.DEInternal>
2.0917

> <Gold.Chemscore.Rot>
2.7709

> <Gold.Chemscore.Internal.Correction>
   9.000000E+99

> <Gold.Chemscore.Hbonds>
donor molecule, donor type, donor heavy atom, donor atom, acceptor molecule, acceptor atom, score
      L1  H     5    48       P1  7948  0.59
      L1  H     8    33       P1  7948  0.96
      P1  H  7989  7998       L1    16  0.15
      P1  H  7997  8010       L1    14  0.83

> <Gold.Chemscore.Hbond.Weighted>
-8.7661

> <Gold.Chemscore.Metal.Weighted>
-0.0000

> <Gold.Chemscore.Lipo.Weighted>
-7.5994

> <Gold.Chemscore.Internal_Hbond.Weighted>
0.0000

> <Gold.Chemscore.DEClash.Weighted>
1.1481

> <Gold.Chemscore.DEInternal.Weighted>
2.0917

> <Gold.Chemscore.Rot.Weighted>
7.0935

> <Gold.Chemscore.Internal.Correction.Weighted>
   9.000000E+99

> <Gold.Protein.RotatedTorsions>
[ 6907 6896 6895 6894 ] final   -7.45 input  -60.11 | X-H torsion
[ 7974 7965 7964 7962 ] final   -6.69 input  175.53 | X-H torsion
[ 8008 7997 7996 7995 ] final   56.98 input   59.86 | X-H torsion
[ 10167 10162 10161 10158 ] final  -71.40 input  -65.29 | X-H torsion
[ 10718 10713 10712 10709 ] final   24.63 input   66.30 | X-H torsion
[ 10763 10752 10751 10750 ] final  -19.88 input  -60.55 | X-H torsion
[ 11005 11000 10999 10996 ] final   22.17 input  -57.11 | X-H torsion

> <Gold.Protein.ActiveResidues>
 VAL166  LYS551  ARG553  GLY616  TRP617  ASP618  TYR619  PRO620  LYS621  CYS622 
 ASP623  PHE694  ASN695  SER759  ASP760  ASP761  ALA762  ILE779  LEU786  VAL792 
 PHE793  MET794  SER795  GLU796  ALA797  LYS798  CYS799  TRP800  GLU811  SER814 

> <Gold.Protein.RotatedAtoms>
  151.4494  135.1028  159.9693 H   0  0  0  0  0  0  0  0  0  0  0  0  # atno 6907 bound_to 6896
  152.4894  133.8454  159.7185 H   0  0  0  0  0  0  0  0  0  0  0  0  # atno 6908 bound_to 6896
  150.9032  133.7032  159.2901 H   0  0  0  0  0  0  0  0  0  0  0  0  # atno 6909 bound_to 6896
  146.2325  140.2208  142.8337 H   0  0  0  0  0  0  0  0  0  0  0  0  # atno 7974 bound_to 7965
  155.5262  140.3481  155.4417 H   0  0  0  0  0  0  0  0  0  0  0  0  # atno 8008 bound_to 7997
  156.0750  140.1372  156.9809 H   0  0  0  0  0  0  0  0  0  0  0  0  # atno 8009 bound_to 7997
  154.4548  140.0958  156.6701 H   0  0  0  0  0  0  0  0  0  0  0  0  # atno 8010 bound_to 7997
  140.5276  143.2325  151.7320 H   0  0  0  0  0  0  0  0  0  0  0  0  # atno 10167 bound_to 10162
  157.1824  130.6809  149.6118 H   0  0  0  0  0  0  0  0  0  0  0  0  # atno 10718 bound_to 10713
  153.6117  135.6996  153.5344 H   0  0  0  0  0  0  0  0  0  0  0  0  # atno 10763 bound_to 10752
  153.3011  135.4128  155.1253 H   0  0  0  0  0  0  0  0  0  0  0  0  # atno 10764 bound_to 10752
  154.8562  135.3649  154.5655 H   0  0  0  0  0  0  0  0  0  0  0  0  # atno 10765 bound_to 10752
  140.3835  134.1895  155.7663 H   0  0  0  0  0  0  0  0  0  0  0  0  # atno 11005 bound_to 11000
  144.9633  140.8297  143.5500 LP  0  0  0  0  0  0  0  0  0  0  0  0  # atno 17320 bound_to 7965
  145.2182  139.2172  143.5107 LP  0  0  0  0  0  0  0  0  0  0  0  0  # atno 17321 bound_to 7965
  139.4943  144.4163  152.0026 LP  0  0  0  0  0  0  0  0  0  0  0  0  # atno 17342 bound_to 10162
  140.3263  144.3369  150.5997 LP  0  0  0  0  0  0  0  0  0  0  0  0  # atno 17343 bound_to 10162
  155.9722  130.4642  150.6209 LP  0  0  0  0  0  0  0  0  0  0  0  0  # atno 17370 bound_to 10713
  157.3939  131.0800  151.1369 LP  0  0  0  0  0  0  0  0  0  0  0  0  # atno 17371 bound_to 10713
  141.1915  133.8193  157.0875 LP  0  0  0  0  0  0  0  0  0  0  0  0  # atno 17394 bound_to 11000
  140.0460  134.9830  157.1050 LP  0  0  0  0  0  0  0  0  0  0  0  0  # atno 17395 bound_to 11000

$$$$
