AV-unprocessed.smi:2279|AV-procd|sdf|9184|dock3
  -GOLD-   2272012403D 1   1.00000     0.00000
 Structure written by MMmdl.
 58 60  0  0  0  0  0  0  0  0  3 V2000
  151.7573  145.3208  159.1982 C   0  0  0  0  0  0  0  0  0  0  0  0
  152.0330  143.8327  159.2526 C   0  0  0  0  0  0  0  0  0  0  0  0
  152.8200  143.2810  160.2816 C   0  0  0  0  0  0  0  0  0  0  0  0
  153.0419  141.8900  160.2754 C   0  0  0  0  0  0  0  0  0  0  0  0
  153.8733  141.2291  161.3546 C   0  0  0  0  0  0  0  0  0  0  0  0
  152.5396  141.0680  159.3295 N   0  0  0  0  0  0  0  0  0  0  0  0
  151.7799  141.5880  158.3338 C   0  0  0  0  0  0  0  0  0  0  0  0
  151.1952  140.8068  157.3015 N   0  0  0  0  0  0  0  0  0  0  0  0
  149.9879  140.9614  156.7294 C   0  0  0  0  0  0  0  0  0  0  0  0
  149.1439  141.7939  157.0625 O   0  0  0  0  0  0  0  0  0  0  0  0
  149.7969  140.0731  155.7424 N   0  0  0  0  0  0  0  0  0  0  0  0
  148.5819  139.9627  154.9400 C   0  0  2  0  0  0  0  0  0  0  0  0
  148.4560  141.1602  153.9782 C   0  0  0  0  0  0  0  0  0  0  0  0
  147.1066  141.1406  153.2314 C   0  0  0  0  0  0  0  0  0  0  0  0
  145.9446  141.0928  154.1668 N   0  3  2  0  0  0  0  0  0  0  0  0
  145.6586  142.3803  154.8889 C   0  0  2  0  0  0  0  0  0  0  0  0
  144.5064  142.2526  155.9183 C   0  0  0  0  0  0  0  0  0  0  0  0
  144.1640  143.5931  156.5906 C   0  0  0  0  0  0  0  0  0  0  0  0
  143.8217  144.6249  155.5849 N   0  3  1  0  0  0  0  0  0  0  0  0
  143.3732  145.8904  156.2052 C   0  0  0  0  0  0  0  0  0  0  0  0
  144.9279  144.8272  154.6211 C   0  0  0  0  0  0  0  0  0  0  0  0
  145.2856  143.5150  153.9022 C   0  0  0  0  0  0  0  0  0  0  0  0
  146.0532  139.8758  155.0221 C   0  0  0  0  0  0  0  0  0  0  0  0
  147.3487  139.8795  155.8555 C   0  0  0  0  0  0  0  0  0  0  0  0
  151.5045  142.9725  158.2690 C   0  0  0  0  0  0  0  0  0  0  0  0
  152.1191  145.8232  160.0957 H   0  0  0  0  0  0  0  0  0  0  0  0
  150.6864  145.5061  159.1134 H   0  0  0  0  0  0  0  0  0  0  0  0
  152.2533  145.7642  158.3346 H   0  0  0  0  0  0  0  0  0  0  0  0
  153.2415  143.9066  161.0549 H   0  0  0  0  0  0  0  0  0  0  0  0
  154.1045  141.9282  162.1588 H   0  0  0  0  0  0  0  0  0  0  0  0
  154.8124  140.8644  160.9377 H   0  0  0  0  0  0  0  0  0  0  0  0
  153.3361  140.3836  161.7853 H   0  0  0  0  0  0  0  0  0  0  0  0
  151.7650  140.0485  156.9567 H   0  0  0  0  0  0  0  0  0  0  0  0
  150.5442  139.4272  155.5339 H   0  0  0  0  0  0  0  0  0  0  0  0
  148.6178  139.0444  154.3500 H   0  0  0  0  0  0  0  0  0  0  0  0
  148.5680  142.0965  154.5254 H   0  0  0  0  0  0  0  0  0  0  0  0
  149.2712  141.1380  153.2537 H   0  0  0  0  0  0  0  0  0  0  0  0
  147.0423  141.9746  152.5363 H   0  0  0  0  0  0  0  0  0  0  0  0
  147.0680  140.2508  152.6011 H   0  0  0  0  0  0  0  0  0  0  0  0
  146.5526  142.6813  155.4356 H   0  0  0  0  0  0  0  0  0  0  0  0
  143.6160  141.8505  155.4323 H   0  0  0  0  0  0  0  0  0  0  0  0
  144.7716  141.5593  156.7157 H   0  0  0  0  0  0  0  0  0  0  0  0
  143.3220  143.4536  157.2700 H   0  0  0  0  0  0  0  0  0  0  0  0
  145.0055  143.9356  157.1954 H   0  0  0  0  0  0  0  0  0  0  0  0
  144.1702  146.3405  156.7987 H   0  0  0  0  0  0  0  0  0  0  0  0
  142.5167  145.7171  156.8579 H   0  0  0  0  0  0  0  0  0  0  0  0
  143.0681  146.6072  155.4419 H   0  0  0  0  0  0  0  0  0  0  0  0
  144.6355  145.5767  153.8844 H   0  0  0  0  0  0  0  0  0  0  0  0
  145.8021  145.2205  155.1428 H   0  0  0  0  0  0  0  0  0  0  0  0
  146.1073  143.7361  153.2237 H   0  0  0  0  0  0  0  0  0  0  0  0
  144.4461  143.2013  153.2798 H   0  0  0  0  0  0  0  0  0  0  0  0
  145.1772  139.7335  155.6518 H   0  0  0  0  0  0  0  0  0  0  0  0
  146.0592  139.0029  154.3675 H   0  0  0  0  0  0  0  0  0  0  0  0
  147.3985  138.9720  156.4586 H   0  0  0  0  0  0  0  0  0  0  0  0
  147.3397  140.7135  156.5583 H   0  0  0  0  0  0  0  0  0  0  0  0
  150.8967  143.3745  157.4712 H   0  0  0  0  0  0  0  0  0  0  0  0
  145.1330  140.9353  153.5860 H   0  0  0  0  0  0  0  0  0  0  0  0
  143.0350  144.2718  155.0585 H   0  0  0  0  0  0  0  0  0  0  0  0
  1  2  1  0  0  0  0
  1 26  1  0  0  0  0
  1 27  1  0  0  0  0
  1 28  1  0  0  0  0
  2 25  1  0  0  0  0
  2  3  2  0  0  0  0
  3  4  1  0  0  0  0
  3 29  1  0  0  0  0
  4  5  1  0  0  0  0
  4  6  2  0  0  0  0
  5 30  1  0  0  0  0
  5 31  1  0  0  0  0
  5 32  1  0  0  0  0
  6  7  1  0  0  0  0
  7  8  1  0  0  0  0
  7 25  2  0  0  0  0
  8  9  1  0  0  0  0
  8 33  1  0  0  0  0
  9 10  2  0  0  0  0
  9 11  1  0  0  0  0
 11 12  1  0  0  0  0
 11 34  1  0  0  0  0
 12 24  1  0  0  0  0
 12 13  1  0  0  0  0
 12 35  1  0  0  0  0
 13 14  1  0  0  0  0
 13 36  1  0  0  0  0
 13 37  1  0  0  0  0
 14 15  1  0  0  0  0
 14 38  1  0  0  0  0
 14 39  1  0  0  0  0
 15 16  1  0  0  0  0
 15 23  1  0  0  0  0
 15 57  1  0  0  0  0
 16 22  1  0  0  0  0
 16 17  1  0  0  0  0
 16 40  1  0  0  0  0
 17 18  1  0  0  0  0
 17 41  1  0  0  0  0
 17 42  1  0  0  0  0
 18 19  1  0  0  0  0
 18 43  1  0  0  0  0
 18 44  1  0  0  0  0
 19 20  1  0  0  0  0
 19 21  1  0  0  0  0
 19 58  1  0  0  0  0
 20 45  1  0  0  0  0
 20 46  1  0  0  0  0
 20 47  1  0  0  0  0
 21 22  1  0  0  0  0
 21 48  1  0  0  0  0
 21 49  1  0  0  0  0
 22 50  1  0  0  0  0
 22 51  1  0  0  0  0
 23 24  1  0  0  0  0
 23 52  1  0  0  0  0
 23 53  1  0  0  0  0
 24 54  1  0  0  0  0
 24 55  1  0  0  0  0
 25 56  1  0  0  0  0
M  CHG  1  15   1
M  CHG  1  19   1
M  END
> <s_m_source_file>
AV-unprocessed.smi

> <i_m_source_file_index>
2279

> <i_lp_mmshare_version>
43012

> <i_f3d_flags>
0

> <s_epik_input>
W0NIM11jMVtjSF1jKFtDSDNdKW5jKFtjSF0xKVtOSF1DKD1PKVtOSF1bQ0hdMltDSDJdW0NIMl1OKFtDSDJdW0NIMl0yKVtDSF0zW0NIMl1bQ0gyXU4oW0NIM10pW0NIMl1bQ0gyXTM=

> <s_epik_cmdline>
J2VwaWtfcHl0aG9uJywgJy1waCcsICc3LjAnLCAnLXRuJywgJzgnLCAnLW1hJywgJzIwMCcsICctbWV0YWxfYmluZGluZycsICctaW1hZScsICc8aW5maWxlLm1hZT4nLCAnLW9tYWUnLCAnPG91dGZpbGUubWFlPic=

> <r_epik_Ionization_Penalty>
0.180973

> <r_epik_Ionization_Penalty_Charging>
0.180787

> <r_epik_Ionization_Penalty_Neutral>
0.000186186

> <r_epik_State_Penalty>
0.153592

> <r_epik_Charging_Adjusted_Penalty>
0.334379

> <i_epik_Tot_Q>
2

> <i_epik_Tot_abs_Q>
2

> <r_epik_Metal_State_Penalty>
0.153604

> <b_epik_Metal_Only>
0

> <s_lp_Force_Field>
OPLS_2005

> <r_lp_Energy>
44.6219

> <b_lp_Chiralities_Consistent>
1

> <s_lp_Variant>
AV-unprocessed.smi:2279-2

> <Gold.Version>
5.8.1

> <Gold.Id.Protein>
6NUR|6NUR_protein|mol2

> <Gold.PLP.Fitness>
48.3394

> <Gold.PLP.PLP>
-43.1786

> <Gold.PLP.part.hbond>
-1.0000

> <Gold.PLP.part.metal>
0.0000

> <Gold.PLP.part.buried>
-7.1966

> <Gold.PLP.part.nonpolar>
-36.6363

> <Gold.PLP.part.repulsive>
0.2560

> <Gold.PLP.ligand.clash>
0.0000

> <Gold.PLP.ligand.torsion>
0.4530

> <Gold.PLP.Chemscore.Hbond>
2.0000

> <Gold.PLP.Chemscore.CHOScore>
0.0000

> <Gold.PLP.Chemscore.Metal>
0.0000

> <Gold.Chemscore.Hbonds>
donor molecule, donor type, donor heavy atom, donor atom, acceptor molecule, acceptor atom, score
      L1  H    15    57       P1 10175  2.00

> <Gold.PLP.Chemscore.Internal.Correction>
0.0667

> <Gold.Rescore>
     Score         DG    S(hbond)    S(metal)    S(lipo)     H(rot)  DE(clash)    DE(int)     intcor
     15.56     -19.57       0.97        0.00     119.27       1.21       0.99       3.02       ----

> <Gold.Chemscore.Fitness>
15.5583

> <Gold.Chemscore.DG>
-19.5726

> <Gold.Chemscore.ZeroCoef>
-5.4800

> <Gold.Chemscore.Hbond>
0.9683

> <Gold.Chemscore.Metal>
0.0000

> <Gold.Chemscore.Lipo>
119.2709

> <Gold.Chemscore.Internal_Hbond>
0.0000

> <Gold.Chemscore.DEClash>
0.9946

> <Gold.Chemscore.DEInternal>
3.0197

> <Gold.Chemscore.Rot>
1.2095

> <Gold.Chemscore.Internal.Correction>
   9.000000E+99

> <Gold.Chemscore.Hbonds>
donor molecule, donor type, donor heavy atom, donor atom, acceptor molecule, acceptor atom, score
      L1  H    15    57       P1 10175  0.78

> <Gold.Chemscore.Hbond.Weighted>
-3.2342

> <Gold.Chemscore.Metal.Weighted>
-0.0000

> <Gold.Chemscore.Lipo.Weighted>
-13.9547

> <Gold.Chemscore.Internal_Hbond.Weighted>
0.0000

> <Gold.Chemscore.DEClash.Weighted>
0.9946

> <Gold.Chemscore.DEInternal.Weighted>
3.0197

> <Gold.Chemscore.Rot.Weighted>
3.0963

> <Gold.Chemscore.Internal.Correction.Weighted>
   9.000000E+99

> <Gold.Protein.RotatedTorsions>
[ 6907 6896 6895 6894 ] final -169.91 input  -60.11 | X-H torsion
[ 7974 7965 7964 7962 ] final  -99.79 input  175.53 | X-H torsion
[ 8008 7997 7996 7995 ] final -176.85 input   59.86 | X-H torsion
[ 10167 10162 10161 10158 ] final  124.31 input  -65.29 | X-H torsion
[ 10718 10713 10712 10709 ] final  -73.75 input   66.30 | X-H torsion
[ 10763 10752 10751 10750 ] final -133.05 input  -60.55 | X-H torsion
[ 11005 11000 10999 10996 ] final -119.70 input  -57.11 | X-H torsion

> <Gold.Protein.ActiveResidues>
 VAL166  LYS551  ARG553  GLY616  TRP617  ASP618  TYR619  PRO620  LYS621  CYS622 
 ASP623  PHE694  ASN695  SER759  ASP760  ASP761  ALA762  ILE779  LEU786  VAL792 
 PHE793  MET794  SER795  GLU796  ALA797  LYS798  CYS799  TRP800  GLU811  SER814 

> <Gold.Protein.RotatedAtoms>
  151.4992  133.3508  159.2865 H   0  0  0  0  0  0  0  0  0  0  0  0  # atno 6907 bound_to 6896
  150.8784  134.8173  159.7217 H   0  0  0  0  0  0  0  0  0  0  0  0  # atno 6908 bound_to 6896
  152.4746  134.4886  159.9740 H   0  0  0  0  0  0  0  0  0  0  0  0  # atno 6909 bound_to 6896
  145.3030  140.9382  143.2813 H   0  0  0  0  0  0  0  0  0  0  0  0  # atno 7974 bound_to 7965
  155.9999  140.1218  157.0558 H   0  0  0  0  0  0  0  0  0  0  0  0  # atno 8008 bound_to 7997
  154.4239  140.1109  156.5751 H   0  0  0  0  0  0  0  0  0  0  0  0  # atno 8009 bound_to 7997
  155.6227  140.3472  155.4659 H   0  0  0  0  0  0  0  0  0  0  0  0  # atno 8010 bound_to 7997
  139.5749  144.6958  151.3680 H   0  0  0  0  0  0  0  0  0  0  0  0  # atno 10167 bound_to 10162
  156.0268  130.4401  150.2790 H   0  0  0  0  0  0  0  0  0  0  0  0  # atno 10718 bound_to 10713
  154.8737  135.3778  154.4510 H   0  0  0  0  0  0  0  0  0  0  0  0  # atno 10763 bound_to 10752
  153.5186  135.7029  153.5748 H   0  0  0  0  0  0  0  0  0  0  0  0  # atno 10764 bound_to 10752
  153.4006  135.3949  155.1950 H   0  0  0  0  0  0  0  0  0  0  0  0  # atno 10765 bound_to 10752
  141.0196  134.0143  157.3301 H   0  0  0  0  0  0  0  0  0  0  0  0  # atno 11005 bound_to 11000
  144.9078  139.4567  143.6602 LP  0  0  0  0  0  0  0  0  0  0  0  0  # atno 17320 bound_to 7965
  146.3145  139.7868  142.8994 LP  0  0  0  0  0  0  0  0  0  0  0  0  # atno 17321 bound_to 7965
  140.7032  143.7580  150.7437 LP  0  0  0  0  0  0  0  0  0  0  0  0  # atno 17342 bound_to 10162
  140.1097  143.4711  152.2377 LP  0  0  0  0  0  0  0  0  0  0  0  0  # atno 17343 bound_to 10162
  157.0893  131.0165  151.3127 LP  0  0  0  0  0  0  0  0  0  0  0  0  # atno 17370 bound_to 10713
  157.4867  130.7797  149.7466 LP  0  0  0  0  0  0  0  0  0  0  0  0  # atno 17371 bound_to 10713
  139.9138  135.0194  156.7799 LP  0  0  0  0  0  0  0  0  0  0  0  0  # atno 17394 bound_to 11000
  140.6595  133.9658  155.7797 LP  0  0  0  0  0  0  0  0  0  0  0  0  # atno 17395 bound_to 11000

$$$$
