AV-unprocessed.smi:1493|AV-procd|sdf|6051|dock9
  -GOLD-   22720 6163D 1   1.00000     0.00000
 Structure written by MMmdl.
 34 34  0  0  0  0  0  0  0  0  1 V2000
  151.6592  145.2891  158.9145 C   0  0  0  0  0  0  0  0  0  0  0  0
  152.2593  143.8907  158.7348 C   0  0  0  0  0  0  0  0  0  0  0  0
  152.5862  143.2119  160.0766 C   0  0  0  0  0  0  0  0  0  0  0  0
  153.1628  141.7911  159.9262 C   0  0  1  0  0  0  0  0  0  0  0  0
  153.8297  141.3066  161.2214 C   0  0  0  0  0  0  0  0  0  0  0  0
  152.1077  140.8535  159.5464 N   0  0  0  0  0  0  0  0  0  0  0  0
  152.2214  139.8542  158.6579 C   0  0  0  0  0  0  0  0  0  0  0  0
  153.2572  139.6136  158.0359 O   0  0  0  0  0  0  0  0  0  0  0  0
  150.9538  139.0170  158.4313 C   0  0  0  0  0  0  0  0  0  0  0  0
  150.8206  138.5129  157.0569 N   0  0  0  0  0  0  0  0  0  0  0  0
  150.5621  139.4973  156.1151 N   0  0  0  0  0  0  0  0  0  0  0  0
  150.4364  139.1814  154.8705 C   0  0  0  0  0  0  0  0  0  0  0  0
  150.1840  140.1881  153.9713 O   0  0  0  0  0  0  0  0  0  0  0  0
  150.5566  137.8088  154.4305 C   0  0  0  0  0  0  0  0  0  0  0  0
  150.8046  136.8563  155.3559 C   0  0  0  0  0  0  0  0  0  0  0  0
  150.9531  137.1799  156.7760 C   0  0  0  0  0  0  0  0  0  0  0  0
  151.1775  136.3330  157.6405 O   0  0  0  0  0  0  0  0  0  0  0  0
  149.9223  139.7520  153.1750 H   0  0  0  0  0  0  0  0  0  0  0  0
  151.4378  145.7440  157.9488 H   0  0  0  0  0  0  0  0  0  0  0  0
  152.3483  145.9489  159.4425 H   0  0  0  0  0  0  0  0  0  0  0  0
  150.7303  145.2484  159.4838 H   0  0  0  0  0  0  0  0  0  0  0  0
  151.5607  143.2778  158.1646 H   0  0  0  0  0  0  0  0  0  0  0  0
  153.1658  143.9642  158.1329 H   0  0  0  0  0  0  0  0  0  0  0  0
  153.3047  143.8305  160.6159 H   0  0  0  0  0  0  0  0  0  0  0  0
  151.6894  143.1798  160.6972 H   0  0  0  0  0  0  0  0  0  0  0  0
  153.9329  141.8268  159.1537 H   0  0  0  0  0  0  0  0  0  0  0  0
  154.6336  141.9782  161.5240 H   0  0  0  0  0  0  0  0  0  0  0  0
  154.2629  140.3141  161.0917 H   0  0  0  0  0  0  0  0  0  0  0  0
  153.1135  141.2532  162.0420 H   0  0  0  0  0  0  0  0  0  0  0  0
  151.2144  140.9749  160.0012 H   0  0  0  0  0  0  0  0  0  0  0  0
  150.9383  138.1833  159.1360 H   0  0  0  0  0  0  0  0  0  0  0  0
  150.0918  139.6341  158.6908 H   0  0  0  0  0  0  0  0  0  0  0  0
  150.4490  137.5613  153.3846 H   0  0  0  0  0  0  0  0  0  0  0  0
  150.8973  135.8271  155.0415 H   0  0  0  0  0  0  0  0  0  0  0  0
  1  2  1  0  0  0  0
  1 19  1  0  0  0  0
  1 20  1  0  0  0  0
  1 21  1  0  0  0  0
  2  3  1  0  0  0  0
  2 22  1  0  0  0  0
  2 23  1  0  0  0  0
  3  4  1  0  0  0  0
  3 24  1  0  0  0  0
  3 25  1  0  0  0  0
  4  5  1  0  0  0  0
  4  6  1  0  0  0  0
  4 26  1  0  0  0  0
  5 27  1  0  0  0  0
  5 28  1  0  0  0  0
  5 29  1  0  0  0  0
  6  7  1  0  0  0  0
  6 30  1  0  0  0  0
  7  8  2  0  0  0  0
  7  9  1  0  0  0  0
  9 31  1  0  0  0  0
  9 32  1  0  0  0  0
  9 10  1  0  0  0  0
 10 11  1  0  0  0  0
 10 16  1  0  0  0  0
 11 12  2  0  0  0  0
 12 13  1  0  0  0  0
 12 14  1  0  0  0  0
 13 18  1  0  0  0  0
 14 33  1  0  0  0  0
 14 15  2  0  0  0  0
 15 34  1  0  0  0  0
 15 16  1  0  0  0  0
 16 17  2  0  0  0  0
M  END
> <s_m_source_file>
AV-unprocessed.smi

> <i_m_source_file_index>
1493

> <i_lp_mmshare_version>
43012

> <i_f3d_flags>
0

> <s_epik_input>
W0NIM11bQ0gyXVtDSDJdW0NASF0oW0NIM10pW05IXUMoPU8pW0NIMl1uMVtuSF1jKD1PKVtjSF1bY0hdYzE9Tw==

> <s_epik_cmdline>
J2VwaWtfcHl0aG9uJywgJy1waCcsICc3LjAnLCAnLXRuJywgJzgnLCAnLW1hJywgJzIwMCcsICctbWV0YWxfYmluZGluZycsICctaW1hZScsICc8aW5maWxlLm1hZT4nLCAnLW9tYWUnLCAnPG91dGZpbGUubWFlPic=

> <r_lp_tautomer_probability>
0.9996

> <r_epik_Ionization_Penalty>
2.12047

> <r_epik_Ionization_Penalty_Charging>
3.81971e-08

> <r_epik_Ionization_Penalty_Neutral>
2.12047

> <r_epik_State_Penalty>
1.69728

> <r_epik_Charging_Adjusted_Penalty>
1.69728

> <i_epik_Tot_Q>
0

> <i_epik_Tot_abs_Q>
0

> <r_epik_Metal_State_Penalty>
1.69728

> <b_epik_Metal_Only>
0

> <s_lp_Force_Field>
OPLS_2005

> <r_lp_Energy>
15.6532

> <b_lp_Chiralities_Consistent>
1

> <s_lp_Variant>
AV-unprocessed.smi:1493-4

> <Gold.Version>
5.8.1

> <Gold.Id.Protein>
6NUR|6NUR_protein|mol2

> <Gold.PLP.Fitness>
41.7857

> <Gold.PLP.PLP>
-35.2042

> <Gold.PLP.part.hbond>
-3.4350

> <Gold.PLP.part.metal>
0.0000

> <Gold.PLP.part.buried>
-5.3811

> <Gold.PLP.part.nonpolar>
-27.2869

> <Gold.PLP.part.repulsive>
0.1545

> <Gold.PLP.ligand.clash>
0.0000

> <Gold.PLP.ligand.torsion>
0.8652

> <Gold.PLP.Chemscore.Hbond>
2.7600

> <Gold.PLP.Chemscore.CHOScore>
0.0000

> <Gold.PLP.Chemscore.Metal>
0.0000

> <Gold.Chemscore.Hbonds>
donor molecule, donor type, donor heavy atom, donor atom, acceptor molecule, acceptor atom, score
      L1  H    13    18       P1  7957  0.81
      P1  H  7989  7998       L1    13  0.90
      P1  H  7997  8010       L1     8  1.00

> <Gold.PLP.Chemscore.Internal.Correction>
0.0319

> <Gold.Rescore>
     Score         DG    S(hbond)    S(metal)    S(lipo)     H(rot)  DE(clash)    DE(int)     intcor
     15.10     -15.96       2.64        0.00      75.15       2.78       0.03       0.83       ----

> <Gold.Chemscore.Fitness>
15.1029

> <Gold.Chemscore.DG>
-15.9636

> <Gold.Chemscore.ZeroCoef>
-5.4800

> <Gold.Chemscore.Hbond>
2.6360

> <Gold.Chemscore.Metal>
0.0000

> <Gold.Chemscore.Lipo>
75.1478

> <Gold.Chemscore.Internal_Hbond>
0.0000

> <Gold.Chemscore.DEClash>
0.0275

> <Gold.Chemscore.DEInternal>
0.8332

> <Gold.Chemscore.Rot>
2.7785

> <Gold.Chemscore.Internal.Correction>
   9.000000E+99

> <Gold.Chemscore.Hbonds>
donor molecule, donor type, donor heavy atom, donor atom, acceptor molecule, acceptor atom, score
      L1  H    13    18       P1  7957  0.76
      P1  H  7989  7998       L1    13  0.17
      P1  H  7997  8010       L1     8  0.97

> <Gold.Chemscore.Hbond.Weighted>
-8.8043

> <Gold.Chemscore.Metal.Weighted>
-0.0000

> <Gold.Chemscore.Lipo.Weighted>
-8.7923

> <Gold.Chemscore.Internal_Hbond.Weighted>
0.0000

> <Gold.Chemscore.DEClash.Weighted>
0.0275

> <Gold.Chemscore.DEInternal.Weighted>
0.8332

> <Gold.Chemscore.Rot.Weighted>
7.1129

> <Gold.Chemscore.Internal.Correction.Weighted>
   9.000000E+99

> <Gold.Protein.RotatedTorsions>
[ 6907 6896 6895 6894 ] final  -44.41 input  -60.11 | X-H torsion
[ 7974 7965 7964 7962 ] final -136.61 input  175.53 | X-H torsion
[ 8008 7997 7996 7995 ] final   53.08 input   59.86 | X-H torsion
[ 10167 10162 10161 10158 ] final  170.58 input  -65.29 | X-H torsion
[ 10718 10713 10712 10709 ] final  -66.57 input   66.30 | X-H torsion
[ 10763 10752 10751 10750 ] final   -6.66 input  -60.55 | X-H torsion
[ 11005 11000 10999 10996 ] final   89.06 input  -57.11 | X-H torsion

> <Gold.Protein.ActiveResidues>
 VAL166  LYS551  ARG553  GLY616  TRP617  ASP618  TYR619  PRO620  LYS621  CYS622 
 ASP623  PHE694  ASN695  SER759  ASP760  ASP761  ALA762  ILE779  LEU786  VAL792 
 PHE793  MET794  SER795  GLU796  ALA797  LYS798  CYS799  TRP800  GLU811  SER814 

> <Gold.Protein.RotatedAtoms>
  150.9331  134.8745  159.7563 H   0  0  0  0  0  0  0  0  0  0  0  0  # atno 6907 bound_to 6896
  152.5047  134.4050  159.9439 H   0  0  0  0  0  0  0  0  0  0  0  0  # atno 6908 bound_to 6896
  151.4076  133.3697  159.2775 H   0  0  0  0  0  0  0  0  0  0  0  0  # atno 6909 bound_to 6896
  144.8912  140.6644  143.5144 H   0  0  0  0  0  0  0  0  0  0  0  0  # atno 7974 bound_to 7965
  155.4623  140.3462  155.4314 H   0  0  0  0  0  0  0  0  0  0  0  0  # atno 8008 bound_to 7997
  156.1153  140.1472  156.9311 H   0  0  0  0  0  0  0  0  0  0  0  0  # atno 8009 bound_to 7997
  154.4784  140.0877  156.7298 H   0  0  0  0  0  0  0  0  0  0  0  0  # atno 8010 bound_to 7997
  139.5022  144.3581  151.9854 H   0  0  0  0  0  0  0  0  0  0  0  0  # atno 10167 bound_to 10162
  156.0605  130.4264  150.1728 H   0  0  0  0  0  0  0  0  0  0  0  0  # atno 10718 bound_to 10713
  153.4155  135.7009  153.6330 H   0  0  0  0  0  0  0  0  0  0  0  0  # atno 10763 bound_to 10752
  153.4806  135.3694  155.2440 H   0  0  0  0  0  0  0  0  0  0  0  0  # atno 10764 bound_to 10752
  154.8719  135.4065  154.3514 H   0  0  0  0  0  0  0  0  0  0  0  0  # atno 10765 bound_to 10752
  139.8883  134.8528  156.3089 H   0  0  0  0  0  0  0  0  0  0  0  0  # atno 11005 bound_to 11000
  145.3780  139.1643  143.4296 LP  0  0  0  0  0  0  0  0  0  0  0  0  # atno 17320 bound_to 7965
  146.3055  140.3858  142.8689 LP  0  0  0  0  0  0  0  0  0  0  0  0  # atno 17321 bound_to 7965
  140.3017  144.3639  150.6058 LP  0  0  0  0  0  0  0  0  0  0  0  0  # atno 17342 bound_to 10162
  140.5868  143.2169  151.7327 LP  0  0  0  0  0  0  0  0  0  0  0  0  # atno 17343 bound_to 10162
  156.9797  130.9860  151.3440 LP  0  0  0  0  0  0  0  0  0  0  0  0  # atno 17370 bound_to 10713
  157.5610  130.8245  149.8265 LP  0  0  0  0  0  0  0  0  0  0  0  0  # atno 17371 bound_to 10713
  140.9863  133.7236  156.0747 LP  0  0  0  0  0  0  0  0  0  0  0  0  # atno 17394 bound_to 11000
  140.7683  134.3861  157.5512 LP  0  0  0  0  0  0  0  0  0  0  0  0  # atno 17395 bound_to 11000

$$$$
