AV-unprocessed.smi:290|AV-procd|sdf|2222|dock6
  -GOLD-   2262022 73D 1   1.00000     0.00000
 Structure written by MMmdl.
 59 62  0  0  0  0  0  0  0  0  2 V2000
  154.0981  137.4272  157.3290 C   0  0  0  0  0  0  0  0  0  0  0  0
  152.7156  138.0776  157.1631 C   0  0  1  0  0  0  0  0  0  0  0  0
  152.9187  139.1464  156.2364 O   0  0  0  0  0  0  0  0  0  0  0  0
  151.8887  139.1634  155.2621 C   0  0  0  0  0  0  0  0  0  0  0  0
  151.5156  137.6956  155.1194 C   0  0  0  0  0  0  0  0  0  0  0  0
  151.5910  137.1919  156.5539 C   0  0  2  0  0  0  0  0  0  0  0  0
  150.3704  137.5444  157.1830 O   0  0  0  0  0  0  0  0  0  0  0  0
  151.7412  135.6465  156.6247 C   0  0  0  0  0  0  0  0  0  0  0  0
  150.6997  134.8718  155.9562 N   0  0  0  0  0  0  0  0  0  0  0  0
  150.3002  134.9463  154.6374 C   0  0  0  0  0  0  0  0  0  0  0  0
  149.3585  134.1128  154.2880 N   0  0  0  0  0  0  0  0  0  0  0  0
  149.1088  133.3874  155.4436 C   0  0  0  0  0  0  0  0  0  0  0  0
  148.2282  132.3230  155.7660 C   0  0  0  0  0  0  0  0  0  0  0  0
  147.3859  131.7977  154.8478 N   0  0  0  0  0  0  0  0  0  0  0  0
  148.0313  130.9591  153.8562 C   0  0  0  0  0  0  0  0  0  0  0  0
  147.0233  130.8236  152.7149 C   0  0  0  0  0  0  0  0  0  0  0  0
  145.9611  131.9193  152.9484 C   0  0  2  0  0  0  0  0  0  0  0  0
  145.6674  132.6699  151.6866 N   0  3  1  0  0  0  0  0  0  0  0  0
  146.9050  133.2685  151.1215 C   0  0  0  0  0  0  0  0  0  0  0  0
  144.8831  131.9184  150.6649 C   0  0  0  0  0  0  0  0  0  0  0  0
  144.3260  132.7974  149.5292 C   0  0  0  0  0  0  0  0  0  0  0  0
  143.1443  132.2303  149.0032 O   0  0  0  0  0  0  0  0  0  0  0  0
  146.5431  132.7417  154.1241 C   0  0  1  0  0  0  0  0  0  0  0  0
  145.4786  133.3340  155.0743 C   0  0  0  0  0  0  0  0  0  0  0  0
  148.2628  131.8271  157.0311 N   0  0  0  0  0  0  0  0  0  0  0  0
  149.1099  132.3453  157.9258 C   0  0  0  0  0  0  0  0  0  0  0  0
  149.9877  133.3386  157.7661 N   0  0  0  0  0  0  0  0  0  0  0  0
  149.9514  133.8379  156.4964 C   0  0  0  0  0  0  0  0  0  0  0  0
  145.0418  131.4411  153.2927 H   0  0  0  0  0  0  0  0  0  0  0  0
  147.1762  133.5381  153.7298 H   0  0  0  0  0  0  0  0  0  0  0  0
  154.1088  136.7033  158.1407 H   0  0  0  0  0  0  0  0  0  0  0  0
  154.8479  138.1795  157.5748 H   0  0  0  0  0  0  0  0  0  0  0  0
  154.4206  136.9285  156.4148 H   0  0  0  0  0  0  0  0  0  0  0  0
  152.4077  138.4947  158.1234 H   0  0  0  0  0  0  0  0  0  0  0  0
  151.0462  139.7488  155.6332 H   0  0  0  0  0  0  0  0  0  0  0  0
  152.2292  139.6059  154.3258 H   0  0  0  0  0  0  0  0  0  0  0  0
  150.5426  137.5447  154.6498 H   0  0  0  0  0  0  0  0  0  0  0  0
  152.2636  137.1949  154.5029 H   0  0  0  0  0  0  0  0  0  0  0  0
  150.5643  138.0916  157.9285 H   0  0  0  0  0  0  0  0  0  0  0  0
  152.6993  135.3479  156.1974 H   0  0  0  0  0  0  0  0  0  0  0  0
  151.7786  135.3352  157.6688 H   0  0  0  0  0  0  0  0  0  0  0  0
  150.7276  135.6370  153.9264 H   0  0  0  0  0  0  0  0  0  0  0  0
  148.9503  131.4222  153.4934 H   0  0  0  0  0  0  0  0  0  0  0  0
  148.2890  129.9875  154.2793 H   0  0  0  0  0  0  0  0  0  0  0  0
  147.5365  130.9291  151.7582 H   0  0  0  0  0  0  0  0  0  0  0  0
  146.5561  129.8381  152.7270 H   0  0  0  0  0  0  0  0  0  0  0  0
  147.5272  132.5054  150.6522 H   0  0  0  0  0  0  0  0  0  0  0  0
  147.5049  133.7600  151.8868 H   0  0  0  0  0  0  0  0  0  0  0  0
  146.6773  134.0330  150.3800 H   0  0  0  0  0  0  0  0  0  0  0  0
  145.5070  131.1281  150.2457 H   0  0  0  0  0  0  0  0  0  0  0  0
  144.0243  131.4365  151.1286 H   0  0  0  0  0  0  0  0  0  0  0  0
  144.1403  133.8224  149.8475 H   0  0  0  0  0  0  0  0  0  0  0  0
  145.0580  132.8594  148.7235 H   0  0  0  0  0  0  0  0  0  0  0  0
  142.4015  132.7052  149.3442 H   0  0  0  0  0  0  0  0  0  0  0  0
  144.7823  134.0008  154.5710 H   0  0  0  0  0  0  0  0  0  0  0  0
  145.9428  133.9093  155.8757 H   0  0  0  0  0  0  0  0  0  0  0  0
  144.8888  132.5439  155.5404 H   0  0  0  0  0  0  0  0  0  0  0  0
  149.0814  131.9013  158.9099 H   0  0  0  0  0  0  0  0  0  0  0  0
  145.0764  133.4418  151.9618 H   0  0  0  0  0  0  0  0  0  0  0  0
  1  2  1  0  0  0  0
  1 31  1  0  0  0  0
  1 32  1  0  0  0  0
  1 33  1  0  0  0  0
  2  6  1  0  0  0  0
  2  3  1  0  0  0  0
  2 34  1  0  0  0  0
  3  4  1  0  0  0  0
  4  5  1  0  0  0  0
  4 35  1  0  0  0  0
  4 36  1  0  0  0  0
  5  6  1  0  0  0  0
  5 37  1  0  0  0  0
  5 38  1  0  0  0  0
  6  7  1  0  0  0  0
  6  8  1  0  0  0  0
  7 39  1  0  0  0  0
  8  9  1  0  0  0  0
  8 40  1  0  0  0  0
  8 41  1  0  0  0  0
  9 28  1  0  0  0  0
  9 10  1  0  0  0  0
 10 11  2  0  0  0  0
 10 42  1  0  0  0  0
 11 12  1  0  0  0  0
 12 28  2  0  0  0  0
 12 13  1  0  0  0  0
 13 14  1  0  0  0  0
 13 25  2  0  0  0  0
 14 23  1  0  0  0  0
 14 15  1  0  0  0  0
 15 16  1  0  0  0  0
 15 43  1  0  0  0  0
 15 44  1  0  0  0  0
 16 17  1  0  0  0  0
 16 45  1  0  0  0  0
 16 46  1  0  0  0  0
 17 29  1  0  0  0  0
 17 18  1  0  0  0  0
 17 23  1  0  0  0  0
 18 19  1  0  0  0  0
 18 20  1  0  0  0  0
 18 59  1  0  0  0  0
 19 47  1  0  0  0  0
 19 48  1  0  0  0  0
 19 49  1  0  0  0  0
 20 21  1  0  0  0  0
 20 50  1  0  0  0  0
 20 51  1  0  0  0  0
 21 22  1  0  0  0  0
 21 52  1  0  0  0  0
 21 53  1  0  0  0  0
 22 54  1  0  0  0  0
 23 30  1  0  0  0  0
 23 24  1  0  0  0  0
 24 55  1  0  0  0  0
 24 56  1  0  0  0  0
 24 57  1  0  0  0  0
 25 26  1  0  0  0  0
 26 27  2  0  0  0  0
 26 58  1  0  0  0  0
 27 28  1  0  0  0  0
M  CHG  1  18   1
M  END
> <s_m_source_file>
AV-unprocessed.smi

> <i_m_source_file_index>
290

> <i_lp_mmshare_version>
43012

> <i_f3d_flags>
0

> <s_epik_input>
W0NIMl0xW0NIMl1PW0NAQEhdKFtDSDNdKVtDQEBdMShbT0hdKVtDSDJdbihbY0hdbjIpYyhjMjMpbltjSF1uYzNONFtDSDJdW0NIMl1bQ0BIXShbQ0BIXTRbQ0gzXSlOKFtDSDNdKVtDSDJdW0NIMl1bT0hd

> <s_epik_cmdline>
J2VwaWtfcHl0aG9uJywgJy1waCcsICc3LjAnLCAnLXRuJywgJzgnLCAnLW1hJywgJzIwMCcsICctbWV0YWxfYmluZGluZycsICctaW1hZScsICc8aW5maWxlLm1hZT4nLCAnLW9tYWUnLCAnPG91dGZpbGUubWFlPic=

> <r_lp_tautomer_probability>
1

> <r_epik_Ionization_Penalty>
0.0036983

> <r_epik_Ionization_Penalty_Charging>
0.0032725

> <r_epik_Ionization_Penalty_Neutral>
0.000425798

> <r_epik_State_Penalty>
-0

> <r_epik_Charging_Adjusted_Penalty>
0.0032725

> <i_epik_Tot_Q>
1

> <i_epik_Tot_abs_Q>
1

> <r_epik_Metal_State_Penalty>
-0

> <b_epik_Metal_Only>
0

> <s_lp_Force_Field>
OPLS_2005

> <r_lp_Energy>
67.3345

> <b_lp_Chiralities_Consistent>
1

> <s_lp_Variant>
AV-unprocessed.smi:290-8

> <Gold.Version>
5.8.1

> <Gold.Id.Protein>
6NUR|6NUR_protein|mol2

> <Gold.PLP.Fitness>
46.3699

> <Gold.PLP.PLP>
-35.0013

> <Gold.PLP.part.hbond>
-4.8026

> <Gold.PLP.part.metal>
0.0000

> <Gold.PLP.part.buried>
-5.2204

> <Gold.PLP.part.nonpolar>
-26.1178

> <Gold.PLP.part.repulsive>
0.2057

> <Gold.PLP.ligand.clash>
0.0000

> <Gold.PLP.ligand.torsion>
0.5780

> <Gold.PLP.Chemscore.Hbond>
3.6088

> <Gold.PLP.Chemscore.CHOScore>
0.5180

> <Gold.PLP.Chemscore.Metal>
0.0000

> <Gold.Chemscore.Hbonds>
donor molecule, donor type, donor heavy atom, donor atom, acceptor molecule, acceptor atom, score
      L1  H    22    54       P1 10186  0.55
      P1  H  6896  6908       L1    27  1.00
      P1  H  7997  8008       L1     3  1.00
      P1  H 10785 10796       L1    22  0.81
      L1  C    10    42       P1  7948  0.01
      L1  C    10    42       P1  7949  0.57

> <Gold.PLP.Chemscore.Internal.Correction>
0.1446

> <Gold.Rescore>
     Score         DG    S(hbond)    S(metal)    S(lipo)     H(rot)  DE(clash)    DE(int)     intcor
     16.31     -16.92       3.37        0.00      81.90       3.67       0.09       0.52       ----

> <Gold.Chemscore.Fitness>
16.3056

> <Gold.Chemscore.DG>
-16.9188

> <Gold.Chemscore.ZeroCoef>
-5.4800

> <Gold.Chemscore.Hbond>
3.3656

> <Gold.Chemscore.Metal>
0.0000

> <Gold.Chemscore.Lipo>
81.8987

> <Gold.Chemscore.Internal_Hbond>
0.0000

> <Gold.Chemscore.DEClash>
0.0902

> <Gold.Chemscore.DEInternal>
0.5230

> <Gold.Chemscore.Rot>
3.6658

> <Gold.Chemscore.Internal.Correction>
   9.000000E+99

> <Gold.Chemscore.Hbonds>
donor molecule, donor type, donor heavy atom, donor atom, acceptor molecule, acceptor atom, score
      L1  H    22    54       P1 10186  0.53
      P1  H  6896  6908       L1    27  0.85
      P1  H  7997  8008       L1     3  0.99
      P1  H 10785 10796       L1    22  0.70

> <Gold.Chemscore.Hbond.Weighted>
-11.2411

> <Gold.Chemscore.Metal.Weighted>
-0.0000

> <Gold.Chemscore.Lipo.Weighted>
-9.5821

> <Gold.Chemscore.Internal_Hbond.Weighted>
0.0000

> <Gold.Chemscore.DEClash.Weighted>
0.0902

> <Gold.Chemscore.DEInternal.Weighted>
0.5230

> <Gold.Chemscore.Rot.Weighted>
9.3844

> <Gold.Chemscore.Internal.Correction.Weighted>
   9.000000E+99

> <Gold.Protein.RotatedTorsions>
[ 6907 6896 6895 6894 ] final  113.23 input  -60.11 | X-H torsion
[ 7974 7965 7964 7962 ] final  162.37 input  175.53 | X-H torsion
[ 8008 7997 7996 7995 ] final  -38.58 input   59.86 | X-H torsion
[ 10167 10162 10161 10158 ] final -142.73 input  -65.29 | X-H torsion
[ 10718 10713 10712 10709 ] final -148.23 input   66.30 | X-H torsion
[ 10763 10752 10751 10750 ] final   -8.84 input  -60.55 | X-H torsion
[ 11005 11000 10999 10996 ] final  -59.47 input  -57.11 | X-H torsion

> <Gold.Protein.ActiveResidues>
 VAL166  LYS551  ARG553  GLY616  TRP617  ASP618  TYR619  PRO620  LYS621  CYS622 
 ASP623  PHE694  ASN695  SER759  ASP760  ASP761  ALA762  ILE779  LEU786  VAL792 
 PHE793  MET794  SER795  GLU796  ALA797  LYS798  CYS799  TRP800  GLU811  SER814 

> <Gold.Protein.RotatedAtoms>
  152.4872  133.8404  159.7149 H   0  0  0  0  0  0  0  0  0  0  0  0  # atno 6907 bound_to 6896
  150.8969  133.7160  159.2896 H   0  0  0  0  0  0  0  0  0  0  0  0  # atno 6908 bound_to 6896
  151.4614  135.1042  159.9778 H   0  0  0  0  0  0  0  0  0  0  0  0  # atno 6909 bound_to 6896
  144.7640  139.8030  143.6322 H   0  0  0  0  0  0  0  0  0  0  0  0  # atno 7974 bound_to 7965
  154.4035  140.1574  156.2723 H   0  0  0  0  0  0  0  0  0  0  0  0  # atno 8008 bound_to 7997
  155.8943  140.3437  155.5957 H   0  0  0  0  0  0  0  0  0  0  0  0  # atno 8009 bound_to 7997
  155.7522  140.0806  157.2186 H   0  0  0  0  0  0  0  0  0  0  0  0  # atno 8010 bound_to 7997
  139.8061  143.7767  152.2661 H   0  0  0  0  0  0  0  0  0  0  0  0  # atno 10167 bound_to 10162
  156.4176  130.8012  151.2234 H   0  0  0  0  0  0  0  0  0  0  0  0  # atno 10718 bound_to 10713
  153.4462  135.7014  153.6137 H   0  0  0  0  0  0  0  0  0  0  0  0  # atno 10763 bound_to 10752
  153.4491  135.3762  155.2273 H   0  0  0  0  0  0  0  0  0  0  0  0  # atno 10764 bound_to 10752
  154.8728  135.3992  154.3868 H   0  0  0  0  0  0  0  0  0  0  0  0  # atno 10765 bound_to 10752
  141.1249  133.6616  156.5076 H   0  0  0  0  0  0  0  0  0  0  0  0  # atno 11005 bound_to 11000
  146.1730  139.4889  142.9915 LP  0  0  0  0  0  0  0  0  0  0  0  0  # atno 17320 bound_to 7965
  145.6529  141.0259  143.1750 LP  0  0  0  0  0  0  0  0  0  0  0  0  # atno 17321 bound_to 7965
  139.7902  144.7413  150.9966 LP  0  0  0  0  0  0  0  0  0  0  0  0  # atno 17342 bound_to 10162
  140.7819  143.4450  151.0495 LP  0  0  0  0  0  0  0  0  0  0  0  0  # atno 17343 bound_to 10162
  157.7508  131.0238  150.3850 LP  0  0  0  0  0  0  0  0  0  0  0  0  # atno 17370 bound_to 10713
  156.4161  130.3943  149.6857 LP  0  0  0  0  0  0  0  0  0  0  0  0  # atno 17371 bound_to 10713
  140.4395  134.7029  157.4984 LP  0  0  0  0  0  0  0  0  0  0  0  0  # atno 17394 bound_to 11000
  140.0239  134.6506  155.9201 LP  0  0  0  0  0  0  0  0  0  0  0  0  # atno 17395 bound_to 11000

$$$$
