AV-unprocessed.smi:2917|AV-procd|sdf|11190|dock5
  -GOLD-   2272016 83D 1   1.00000     0.00000
 Structure written by MMmdl.
 34 35  0  0  0  0  0  0  0  0  1 V2000
  143.8314  137.8190  152.6933 C   0  0  0  0  0  0  0  0  0  0  0  0
  144.8450  137.6536  151.5404 C   0  0  0  0  0  0  0  0  0  0  0  0
  146.2143  137.8259  152.0503 N   0  0  0  0  0  0  0  0  0  0  0  0
  146.6957  138.7972  152.8443 C   0  0  0  0  0  0  0  0  0  0  0  0
  146.0224  139.7328  153.2744 O   0  0  0  0  0  0  0  0  0  0  0  0
  148.0054  138.6141  153.0840 N   0  0  0  0  0  0  0  0  0  0  0  0
  148.8810  139.4135  153.8678 C   0  0  0  0  0  0  0  0  0  0  0  0
  148.4515  140.3222  154.8653 C   0  0  0  0  0  0  0  0  0  0  0  0
  149.4198  141.0447  155.5887 C   0  0  0  0  0  0  0  0  0  0  0  0
  150.7799  140.8279  155.2947 C   0  0  0  0  0  0  0  0  0  0  0  0
  151.2040  139.9549  154.3569 N   0  0  0  0  0  0  0  0  0  0  0  0
  150.2699  139.2649  153.6681 C   0  0  0  0  0  0  0  0  0  0  0  0
  144.6597  136.2857  150.8384 C   0  0  0  0  0  0  0  0  0  0  0  0
  145.4960  136.1804  149.5503 C   0  0  0  0  0  0  0  0  0  0  0  0
  145.1537  137.2390  148.6635 O   0  0  0  0  0  0  0  0  0  0  0  0
  145.4272  138.5254  149.2057 C   0  0  0  0  0  0  0  0  0  0  0  0
  144.5932  138.7491  150.4815 C   0  0  0  0  0  0  0  0  0  0  0  0
  142.8056  137.7931  152.3245 H   0  0  0  0  0  0  0  0  0  0  0  0
  143.9687  138.7702  153.2090 H   0  0  0  0  0  0  0  0  0  0  0  0
  143.9212  137.0253  153.4348 H   0  0  0  0  0  0  0  0  0  0  0  0
  146.8718  137.1175  151.7595 H   0  0  0  0  0  0  0  0  0  0  0  0
  148.4422  137.8456  152.5967 H   0  0  0  0  0  0  0  0  0  0  0  0
  147.4086  140.4687  155.0989 H   0  0  0  0  0  0  0  0  0  0  0  0
  149.1261  141.7458  156.3556 H   0  0  0  0  0  0  0  0  0  0  0  0
  151.5475  141.3655  155.8317 H   0  0  0  0  0  0  0  0  0  0  0  0
  150.6460  138.5735  152.9279 H   0  0  0  0  0  0  0  0  0  0  0  0
  144.8985  135.4580  151.5056 H   0  0  0  0  0  0  0  0  0  0  0  0
  143.6088  136.1563  150.5757 H   0  0  0  0  0  0  0  0  0  0  0  0
  146.5645  136.2031  149.7694 H   0  0  0  0  0  0  0  0  0  0  0  0
  145.2963  135.2306  149.0538 H   0  0  0  0  0  0  0  0  0  0  0  0
  146.4946  138.6272  149.4072 H   0  0  0  0  0  0  0  0  0  0  0  0
  145.1759  139.2793  148.4596 H   0  0  0  0  0  0  0  0  0  0  0  0
  143.5378  138.7550  150.2044 H   0  0  0  0  0  0  0  0  0  0  0  0
  144.8031  139.7368  150.8947 H   0  0  0  0  0  0  0  0  0  0  0  0
  1  2  1  0  0  0  0
  1 18  1  0  0  0  0
  1 19  1  0  0  0  0
  1 20  1  0  0  0  0
  2 17  1  0  0  0  0
  2  3  1  0  0  0  0
  2 13  1  0  0  0  0
  3  4  1  0  0  0  0
  3 21  1  0  0  0  0
  4  5  2  0  0  0  0
  4  6  1  0  0  0  0
  6  7  1  0  0  0  0
  6 22  1  0  0  0  0
  7 12  1  0  0  0  0
  7  8  2  0  0  0  0
  8  9  1  0  0  0  0
  8 23  1  0  0  0  0
  9 10  2  0  0  0  0
  9 24  1  0  0  0  0
 10 11  1  0  0  0  0
 10 25  1  0  0  0  0
 11 12  2  0  0  0  0
 12 26  1  0  0  0  0
 13 14  1  0  0  0  0
 13 27  1  0  0  0  0
 13 28  1  0  0  0  0
 14 15  1  0  0  0  0
 14 29  1  0  0  0  0
 14 30  1  0  0  0  0
 15 16  1  0  0  0  0
 16 17  1  0  0  0  0
 16 31  1  0  0  0  0
 16 32  1  0  0  0  0
 17 33  1  0  0  0  0
 17 34  1  0  0  0  0
M  END
> <s_m_source_file>
AV-unprocessed.smi

> <i_m_source_file_index>
2917

> <i_lp_mmshare_version>
43012

> <i_f3d_flags>
0

> <s_epik_input>
W0NIMl0xW0NIMl1PW0NIMl1bQ0gyXUMxKFtDSDNdKVtOSF1DKD1PKVtOSF1jMltjSF1bY0hdW2NIXW5bY0hdMg==

> <s_epik_cmdline>
J2VwaWtfcHl0aG9uJywgJy1waCcsICc3LjAnLCAnLXRuJywgJzgnLCAnLW1hJywgJzIwMCcsICctbWV0YWxfYmluZGluZycsICctaW1hZScsICc8aW5maWxlLm1hZT4nLCAnLW9tYWUnLCAnPG91dGZpbGUubWFlPic=

> <r_epik_Ionization_Penalty>
0.00491607

> <r_epik_Ionization_Penalty_Charging>
0

> <r_epik_Ionization_Penalty_Neutral>
0.00491607

> <r_epik_State_Penalty>
0.00354213

> <r_epik_Charging_Adjusted_Penalty>
0.00354213

> <i_epik_Tot_Q>
0

> <i_epik_Tot_abs_Q>
0

> <r_epik_Metal_State_Penalty>
-0

> <b_epik_Metal_Only>
0

> <s_lp_Force_Field>
OPLS_2005

> <r_lp_Energy>
13.2781

> <b_lp_Chiralities_Consistent>
1

> <s_lp_Variant>
AV-unprocessed.smi:2917-1

> <Gold.Version>
5.8.1

> <Gold.Id.Protein>
6NUR|6NUR_protein|mol2

> <Gold.PLP.Fitness>
37.8605

> <Gold.PLP.PLP>
-26.4885

> <Gold.PLP.part.hbond>
-3.8049

> <Gold.PLP.part.metal>
0.0000

> <Gold.PLP.part.buried>
-3.0618

> <Gold.PLP.part.nonpolar>
-20.9492

> <Gold.PLP.part.repulsive>
0.2920

> <Gold.PLP.ligand.clash>
0.0000

> <Gold.PLP.ligand.torsion>
0.2424

> <Gold.PLP.Chemscore.Hbond>
2.9500

> <Gold.PLP.Chemscore.CHOScore>
1.0000

> <Gold.PLP.Chemscore.Metal>
0.0000

> <Gold.Chemscore.Hbonds>
donor molecule, donor type, donor heavy atom, donor atom, acceptor molecule, acceptor atom, score
      L1  H     3    21       P1  7948  0.49
      L1  H     6    22       P1  7948  1.00
      P1  H  7989  7998       L1    11  0.41
      L1  C    12    26       P1  7957  0.16

> <Gold.PLP.Chemscore.Internal.Correction>
0.0068

> <Gold.Rescore>
     Score         DG    S(hbond)    S(metal)    S(lipo)     H(rot)  DE(clash)    DE(int)     intcor
     14.52     -17.09       2.29        0.00      55.65       1.00       0.00       2.57       ----

> <Gold.Chemscore.Fitness>
14.5190

> <Gold.Chemscore.DG>
-17.0882

> <Gold.Chemscore.ZeroCoef>
-5.4800

> <Gold.Chemscore.Hbond>
2.2926

> <Gold.Chemscore.Metal>
0.0000

> <Gold.Chemscore.Lipo>
55.6494

> <Gold.Chemscore.Internal_Hbond>
0.0000

> <Gold.Chemscore.DEClash>
0.0000

> <Gold.Chemscore.DEInternal>
2.5692

> <Gold.Chemscore.Rot>
1.0000

> <Gold.Chemscore.Internal.Correction>
   9.000000E+99

> <Gold.Chemscore.Hbonds>
donor molecule, donor type, donor heavy atom, donor atom, acceptor molecule, acceptor atom, score
      L1  H     3    21       P1  7948  0.45
      L1  H     6    22       P1  7948  1.00
      P1  H  7989  7998       L1    11  0.03

> <Gold.Chemscore.Hbond.Weighted>
-7.6572

> <Gold.Chemscore.Metal.Weighted>
-0.0000

> <Gold.Chemscore.Lipo.Weighted>
-6.5110

> <Gold.Chemscore.Internal_Hbond.Weighted>
0.0000

> <Gold.Chemscore.DEClash.Weighted>
0.0000

> <Gold.Chemscore.DEInternal.Weighted>
2.5692

> <Gold.Chemscore.Rot.Weighted>
2.5600

> <Gold.Chemscore.Internal.Correction.Weighted>
   9.000000E+99

> <Gold.Protein.RotatedTorsions>
[ 6907 6896 6895 6894 ] final  -57.04 input  -60.11 | X-H torsion
[ 7974 7965 7964 7962 ] final  130.74 input  175.53 | X-H torsion
[ 8008 7997 7996 7995 ] final  -93.22 input   59.86 | X-H torsion
[ 10167 10162 10161 10158 ] final -144.30 input  -65.29 | X-H torsion
[ 10718 10713 10712 10709 ] final  131.02 input   66.30 | X-H torsion
[ 10763 10752 10751 10750 ] final   83.90 input  -60.55 | X-H torsion
[ 11005 11000 10999 10996 ] final  107.04 input  -57.11 | X-H torsion

> <Gold.Protein.ActiveResidues>
 VAL166  LYS551  ARG553  GLY616  TRP617  ASP618  TYR619  PRO620  LYS621  CYS622 
 ASP623  PHE694  ASN695  SER759  ASP760  ASP761  ALA762  ILE779  LEU786  VAL792 
 PHE793  MET794  SER795  GLU796  ALA797  LYS798  CYS799  TRP800  GLU811  SER814 

> <Gold.Protein.RotatedAtoms>
  150.8118  134.7277  159.6694 H   0  0  0  0  0  0  0  0  0  0  0  0  # atno 6907 bound_to 6896
  152.4237  134.5904  159.9982 H   0  0  0  0  0  0  0  0  0  0  0  0  # atno 6908 bound_to 6896
  151.6111  133.3310  159.3104 H   0  0  0  0  0  0  0  0  0  0  0  0  # atno 6909 bound_to 6896
  145.0147  139.4188  143.5227 H   0  0  0  0  0  0  0  0  0  0  0  0  # atno 7974 bound_to 7965
  154.7330  140.0501  157.0743 H   0  0  0  0  0  0  0  0  0  0  0  0  # atno 8008 bound_to 7997
  155.0277  140.3154  155.4750 H   0  0  0  0  0  0  0  0  0  0  0  0  # atno 8009 bound_to 7997
  156.2846  140.2155  156.5398 H   0  0  0  0  0  0  0  0  0  0  0  0  # atno 8010 bound_to 7997
  139.7912  143.7963  152.2650 H   0  0  0  0  0  0  0  0  0  0  0  0  # atno 10167 bound_to 10162
  157.5007  131.1094  150.9430 H   0  0  0  0  0  0  0  0  0  0  0  0  # atno 10718 bound_to 10713
  153.1333  135.4674  154.9382 H   0  0  0  0  0  0  0  0  0  0  0  0  # atno 10763 bound_to 10752
  154.7683  135.3151  154.8244 H   0  0  0  0  0  0  0  0  0  0  0  0  # atno 10764 bound_to 10752
  153.8781  135.6897  153.4823 H   0  0  0  0  0  0  0  0  0  0  0  0  # atno 10765 bound_to 10752
  139.8822  134.9388  156.5759 H   0  0  0  0  0  0  0  0  0  0  0  0  # atno 11005 bound_to 11000
  146.3476  139.9610  142.8717 LP  0  0  0  0  0  0  0  0  0  0  0  0  # atno 17320 bound_to 7965
  145.1976  140.9840  143.4174 LP  0  0  0  0  0  0  0  0  0  0  0  0  # atno 17321 bound_to 7965
  139.8055  144.7357  150.9767 LP  0  0  0  0  0  0  0  0  0  0  0  0  # atno 17342 bound_to 10162
  140.7820  143.4302  151.0706 LP  0  0  0  0  0  0  0  0  0  0  0  0  # atno 17343 bound_to 10162
  157.0102  130.5634  149.5320 LP  0  0  0  0  0  0  0  0  0  0  0  0  # atno 17370 bound_to 10713
  156.0227  130.5322  150.8322 LP  0  0  0  0  0  0  0  0  0  0  0  0  # atno 17371 bound_to 10713
  140.8064  133.8464  155.8771 LP  0  0  0  0  0  0  0  0  0  0  0  0  # atno 17394 bound_to 11000
  140.9546  134.1734  157.4701 LP  0  0  0  0  0  0  0  0  0  0  0  0  # atno 17395 bound_to 11000

$$$$
