AV-unprocessed.smi:678|AV-procd|sdf|3317|dock3
  -GOLD-   22720 0283D 1   1.00000     0.00000
 Structure written by MMmdl.
 50 51  0  0  0  0  0  0  0  0  1 V2000
  153.6064  141.2511  160.3675 C   0  0  0  0  0  0  0  0  0  0  0  0
  152.5680  141.9777  159.5306 C   0  0  0  0  0  0  0  0  0  0  0  0
  152.0311  143.1494  159.9349 C   0  0  0  0  0  0  0  0  0  0  0  0
  151.0447  143.8328  159.1345 C   0  0  0  0  0  0  0  0  0  0  0  0
  150.6760  143.2754  157.9728 C   0  0  0  0  0  0  0  0  0  0  0  0
  151.2239  142.0585  157.5251 N   0  0  0  0  0  0  0  0  0  0  0  0
  150.7257  141.5496  156.2334 C   0  0  0  0  0  0  0  0  0  0  0  0
  149.2540  141.1024  156.2489 C   0  0  0  0  0  0  0  0  0  0  0  0
  148.9911  139.9049  156.1456 O   0  0  0  0  0  0  0  0  0  0  0  0
  148.3062  142.0503  156.3360 N   0  0  0  0  0  0  0  0  0  0  0  0
  146.8720  141.8298  156.1954 C   0  0  0  0  0  0  0  0  0  0  0  0
  146.1507  143.1339  155.8119 C   0  0  2  0  0  0  0  0  0  0  0  0
  144.8188  143.3239  156.5697 C   0  0  0  0  0  0  0  0  0  0  0  0
  144.1248  144.5407  156.1605 N   0  0  0  0  0  0  0  0  0  0  0  0
  142.8551  144.7345  156.8633 C   0  0  0  0  0  0  0  0  0  0  0  0
  141.9907  145.9223  156.3850 C   0  0  0  0  0  0  0  0  0  0  0  0
  142.7416  147.2471  156.5787 C   0  0  0  0  0  0  0  0  0  0  0  0
  140.6251  145.9673  157.0900 C   0  0  0  0  0  0  0  0  0  0  0  0
  143.9253  144.5073  154.7159 C   0  0  0  0  0  0  0  0  0  0  0  0
  145.2474  144.3050  153.9558 C   0  0  0  0  0  0  0  0  0  0  0  0
  145.8848  143.1155  154.4124 O   0  0  0  0  0  0  0  0  0  0  0  0
  152.1545  141.3668  158.2532 C   0  0  0  0  0  0  0  0  0  0  0  0
  152.6083  140.2908  157.8602 O   0  0  0  0  0  0  0  0  0  0  0  0
  153.8303  141.7944  161.2862 H   0  0  0  0  0  0  0  0  0  0  0  0
  154.5359  141.1384  159.8082 H   0  0  0  0  0  0  0  0  0  0  0  0
  153.2479  140.2586  160.6427 H   0  0  0  0  0  0  0  0  0  0  0  0
  152.3402  143.5887  160.8724 H   0  0  0  0  0  0  0  0  0  0  0  0
  150.6099  144.7649  159.4651 H   0  0  0  0  0  0  0  0  0  0  0  0
  149.9372  143.7159  157.3184 H   0  0  0  0  0  0  0  0  0  0  0  0
  150.8396  142.3224  155.4715 H   0  0  0  0  0  0  0  0  0  0  0  0
  151.3343  140.7168  155.8771 H   0  0  0  0  0  0  0  0  0  0  0  0
  148.6077  143.0089  156.4341 H   0  0  0  0  0  0  0  0  0  0  0  0
  146.6735  141.0515  155.4568 H   0  0  0  0  0  0  0  0  0  0  0  0
  146.4898  141.4583  157.1465 H   0  0  0  0  0  0  0  0  0  0  0  0
  146.8120  143.9757  156.0267 H   0  0  0  0  0  0  0  0  0  0  0  0
  144.1768  142.4570  156.4054 H   0  0  0  0  0  0  0  0  0  0  0  0
  145.0289  143.3605  157.6372 H   0  0  0  0  0  0  0  0  0  0  0  0
  142.2586  143.8263  156.7643 H   0  0  0  0  0  0  0  0  0  0  0  0
  143.0503  144.8444  157.9312 H   0  0  0  0  0  0  0  0  0  0  0  0
  141.8155  145.8247  155.3145 H   0  0  0  0  0  0  0  0  0  0  0  0
  142.9517  147.4343  157.6321 H   0  0  0  0  0  0  0  0  0  0  0  0
  142.1589  148.0876  156.2006 H   0  0  0  0  0  0  0  0  0  0  0  0
  143.6923  147.2414  156.0446 H   0  0  0  0  0  0  0  0  0  0  0  0
  140.7398  146.0563  158.1706 H   0  0  0  0  0  0  0  0  0  0  0  0
  140.0439  145.0669  156.8887 H   0  0  0  0  0  0  0  0  0  0  0  0
  140.0339  146.8164  156.7462 H   0  0  0  0  0  0  0  0  0  0  0  0
  143.2360  143.7021  154.4566 H   0  0  0  0  0  0  0  0  0  0  0  0
  143.4583  145.4355  154.3846 H   0  0  0  0  0  0  0  0  0  0  0  0
  145.0601  144.2213  152.8855 H   0  0  0  0  0  0  0  0  0  0  0  0
  145.9102  145.1595  154.0995 H   0  0  0  0  0  0  0  0  0  0  0  0
  1  2  1  0  0  0  0
  1 24  1  0  0  0  0
  1 25  1  0  0  0  0
  1 26  1  0  0  0  0
  2 22  1  0  0  0  0
  2  3  2  0  0  0  0
  3  4  1  0  0  0  0
  3 27  1  0  0  0  0
  4  5  2  0  0  0  0
  4 28  1  0  0  0  0
  5  6  1  0  0  0  0
  5 29  1  0  0  0  0
  6  7  1  0  0  0  0
  6 22  1  0  0  0  0
  7  8  1  0  0  0  0
  7 30  1  0  0  0  0
  7 31  1  0  0  0  0
  8  9  2  0  0  0  0
  8 10  1  0  0  0  0
 10 11  1  0  0  0  0
 10 32  1  0  0  0  0
 11 12  1  0  0  0  0
 11 33  1  0  0  0  0
 11 34  1  0  0  0  0
 12 21  1  0  0  0  0
 12 13  1  0  0  0  0
 12 35  1  0  0  0  0
 13 14  1  0  0  0  0
 13 36  1  0  0  0  0
 13 37  1  0  0  0  0
 14 15  1  0  0  0  0
 14 19  1  0  0  0  0
 15 16  1  0  0  0  0
 15 38  1  0  0  0  0
 15 39  1  0  0  0  0
 16 17  1  0  0  0  0
 16 18  1  0  0  0  0
 16 40  1  0  0  0  0
 17 41  1  0  0  0  0
 17 42  1  0  0  0  0
 17 43  1  0  0  0  0
 18 44  1  0  0  0  0
 18 45  1  0  0  0  0
 18 46  1  0  0  0  0
 19 20  1  0  0  0  0
 19 47  1  0  0  0  0
 19 48  1  0  0  0  0
 20 21  1  0  0  0  0
 20 49  1  0  0  0  0
 20 50  1  0  0  0  0
 22 23  2  0  0  0  0
M  END
> <s_m_source_file>
AV-unprocessed.smi

> <i_m_source_file_index>
678

> <i_lp_mmshare_version>
43012

> <i_f3d_flags>
0

> <s_epik_input>
W0NIM11jMVtjSF1bY0hdW2NIXW4oYzE9TylbQ0gyXUMoPU8pW05IXVtDSDJdW0NAQEhdMltDSDJdTihbQ0gyXVtDSDJdTzIpW0NIMl1bQ0hdKFtDSDNdKVtDSDNd

> <s_epik_cmdline>
J2VwaWtfcHl0aG9uJywgJy1waCcsICc3LjAnLCAnLXRuJywgJzgnLCAnLW1hJywgJzIwMCcsICctbWV0YWxfYmluZGluZycsICctaW1hZScsICc8aW5maWxlLm1hZT4nLCAnLW9tYWUnLCAnPG91dGZpbGUubWFlPic=

> <r_lp_tautomer_probability>
1

> <r_epik_Ionization_Penalty>
1.11669

> <r_epik_Ionization_Penalty_Charging>
7.32459e-07

> <r_epik_Ionization_Penalty_Neutral>
1.11669

> <r_epik_State_Penalty>
1.17516

> <r_epik_Charging_Adjusted_Penalty>
1.17516

> <i_epik_Tot_Q>
0

> <i_epik_Tot_abs_Q>
0

> <r_epik_Metal_State_Penalty>
1.17513

> <b_epik_Metal_Only>
0

> <s_lp_Force_Field>
OPLS_2005

> <r_lp_Energy>
32.9221

> <b_lp_Chiralities_Consistent>
1

> <s_lp_Variant>
AV-unprocessed.smi:678-5

> <Gold.Version>
5.8.1

> <Gold.Id.Protein>
6NUR|6NUR_protein|mol2

> <Gold.PLP.Fitness>
47.1723

> <Gold.PLP.PLP>
-40.0209

> <Gold.PLP.part.hbond>
-2.0000

> <Gold.PLP.part.metal>
0.0000

> <Gold.PLP.part.buried>
-2.6543

> <Gold.PLP.part.nonpolar>
-34.8705

> <Gold.PLP.part.repulsive>
0.3374

> <Gold.PLP.ligand.clash>
0.0000

> <Gold.PLP.ligand.torsion>
0.9409

> <Gold.PLP.Chemscore.Hbond>
1.9913

> <Gold.PLP.Chemscore.CHOScore>
1.0000

> <Gold.PLP.Chemscore.Metal>
0.0000

> <Gold.Chemscore.Hbonds>
donor molecule, donor type, donor heavy atom, donor atom, acceptor molecule, acceptor atom, score
      L1  H    10    32       P1  8028  0.99
      P1  H  7997  8009       L1    23  0.75
      L1  C     5    29       P1  8028  1.00

> <Gold.PLP.Chemscore.Internal.Correction>
0.0595

> <Gold.Rescore>
     Score         DG    S(hbond)    S(metal)    S(lipo)     H(rot)  DE(clash)    DE(int)     intcor
     17.47     -18.93       1.66        0.00     107.39       1.82       0.53       0.93       ----

> <Gold.Chemscore.Fitness>
17.4687

> <Gold.Chemscore.DG>
-18.9287

> <Gold.Chemscore.ZeroCoef>
-5.4800

> <Gold.Chemscore.Hbond>
1.6630

> <Gold.Chemscore.Metal>
0.0000

> <Gold.Chemscore.Lipo>
107.3899

> <Gold.Chemscore.Internal_Hbond>
0.0000

> <Gold.Chemscore.DEClash>
0.5265

> <Gold.Chemscore.DEInternal>
0.9335

> <Gold.Chemscore.Rot>
1.8243

> <Gold.Chemscore.Internal.Correction>
   9.000000E+99

> <Gold.Chemscore.Hbonds>
donor molecule, donor type, donor heavy atom, donor atom, acceptor molecule, acceptor atom, score
      L1  H    10    32       P1  8028  0.85
      P1  H  7997  8009       L1    23  0.70

> <Gold.Chemscore.Hbond.Weighted>
-5.5543

> <Gold.Chemscore.Metal.Weighted>
-0.0000

> <Gold.Chemscore.Lipo.Weighted>
-12.5646

> <Gold.Chemscore.Internal_Hbond.Weighted>
0.0000

> <Gold.Chemscore.DEClash.Weighted>
0.5265

> <Gold.Chemscore.DEInternal.Weighted>
0.9335

> <Gold.Chemscore.Rot.Weighted>
4.6703

> <Gold.Chemscore.Internal.Correction.Weighted>
   9.000000E+99

> <Gold.Protein.RotatedTorsions>
[ 6907 6896 6895 6894 ] final  -96.51 input  -60.11 | X-H torsion
[ 7974 7965 7964 7962 ] final  139.44 input  175.53 | X-H torsion
[ 8008 7997 7996 7995 ] final  164.32 input   59.86 | X-H torsion
[ 10167 10162 10161 10158 ] final   78.48 input  -65.29 | X-H torsion
[ 10718 10713 10712 10709 ] final   72.40 input   66.30 | X-H torsion
[ 10763 10752 10751 10750 ] final  -40.75 input  -60.55 | X-H torsion
[ 11005 11000 10999 10996 ] final  147.65 input  -57.11 | X-H torsion

> <Gold.Protein.ActiveResidues>
 VAL166  LYS551  ARG553  GLY616  TRP617  ASP618  TYR619  PRO620  LYS621  CYS622 
 ASP623  PHE694  ASN695  SER759  ASP760  ASP761  ALA762  ILE779  LEU786  VAL792 
 PHE793  MET794  SER795  GLU796  ALA797  LYS798  CYS799  TRP800  GLU811  SER814 

> <Gold.Protein.RotatedAtoms>
  150.6991  134.1491  159.4133 H   0  0  0  0  0  0  0  0  0  0  0  0  # atno 6907 bound_to 6896
  151.9474  135.0183  160.0549 H   0  0  0  0  0  0  0  0  0  0  0  0  # atno 6908 bound_to 6896
  152.2041  133.4827  159.5111 H   0  0  0  0  0  0  0  0  0  0  0  0  # atno 6909 bound_to 6896
  144.9278  139.5085  143.5632 H   0  0  0  0  0  0  0  0  0  0  0  0  # atno 7974 bound_to 7965
  156.1889  140.1700  156.8131 H   0  0  0  0  0  0  0  0  0  0  0  0  # atno 8008 bound_to 7997
  154.5447  140.0729  156.8601 H   0  0  0  0  0  0  0  0  0  0  0  0  # atno 8009 bound_to 7997
  155.3145  140.3369  155.4245 H   0  0  0  0  0  0  0  0  0  0  0  0  # atno 8010 bound_to 7997
  139.9705  144.5898  150.7990 H   0  0  0  0  0  0  0  0  0  0  0  0  # atno 10167 bound_to 10162
  157.6499  130.9577  150.0923 H   0  0  0  0  0  0  0  0  0  0  0  0  # atno 10718 bound_to 10713
  153.9512  135.6750  153.4744 H   0  0  0  0  0  0  0  0  0  0  0  0  # atno 10763 bound_to 10752
  153.0883  135.4887  154.8638 H   0  0  0  0  0  0  0  0  0  0  0  0  # atno 10764 bound_to 10752
  154.7324  135.3141  154.8828 H   0  0  0  0  0  0  0  0  0  0  0  0  # atno 10765 bound_to 10752
  140.0893  134.9050  157.1626 H   0  0  0  0  0  0  0  0  0  0  0  0  # atno 11005 bound_to 11000
  146.3234  139.8207  142.8927 LP  0  0  0  0  0  0  0  0  0  0  0  0  # atno 17320 bound_to 7965
  145.3190  141.0239  143.3511 LP  0  0  0  0  0  0  0  0  0  0  0  0  # atno 17321 bound_to 7965
  140.7523  143.2988  151.3133 LP  0  0  0  0  0  0  0  0  0  0  0  0  # atno 17342 bound_to 10162
  139.6485  144.0407  152.2608 LP  0  0  0  0  0  0  0  0  0  0  0  0  # atno 17343 bound_to 10162
  156.1869  130.3652  149.8961 LP  0  0  0  0  0  0  0  0  0  0  0  0  # atno 17370 bound_to 10713
  156.6899  130.8892  151.3587 LP  0  0  0  0  0  0  0  0  0  0  0  0  # atno 17371 bound_to 10713
  140.3375  134.2741  155.7217 LP  0  0  0  0  0  0  0  0  0  0  0  0  # atno 17394 bound_to 11000
  141.2073  133.7810  157.0128 LP  0  0  0  0  0  0  0  0  0  0  0  0  # atno 17395 bound_to 11000

$$$$
