AV-unprocessed.smi:2287|AV-procd|sdf|9205|dock10
  -GOLD-   2272012423D 1   1.00000     0.00000
 Structure written by MMmdl.
 38 39  0  0  0  0  0  0  0  0  2 V2000
  146.5864  133.2543  151.0683 C   0  0  0  0  0  0  0  0  0  0  0  0
  147.0854  133.7774  152.3610 N   0  3  0  0  0  0  0  0  0  0  0  0
  145.9794  134.2808  153.2053 C   0  0  0  0  0  0  0  0  0  0  0  0
  147.9516  132.8173  153.0908 C   0  0  0  0  0  0  0  0  0  0  0  0
  148.6193  133.4451  154.3252 C   0  0  0  0  0  0  0  0  0  0  0  0
  148.9490  134.8421  154.0742 N   0  0  0  0  0  0  0  0  0  0  0  0
  149.4019  135.6893  155.0080 C   0  0  0  0  0  0  0  0  0  0  0  0
  149.5677  135.3703  156.1846 O   0  0  0  0  0  0  0  0  0  0  0  0
  149.6272  136.9093  154.4913 N   0  0  0  0  0  0  0  0  0  0  0  0
  150.1749  138.0550  155.1297 C   0  0  0  0  0  0  0  0  0  0  0  0
  150.3586  139.3225  154.5226 C   0  0  0  0  0  0  0  0  0  0  0  0
  150.8616  140.3717  155.2085 N   0  0  0  0  0  0  0  0  0  0  0  0
  151.1875  140.1617  156.4867 C   0  0  0  0  0  0  0  0  0  0  0  0
  151.6953  141.3434  157.2537 C   0  0  0  0  0  0  0  0  0  0  0  0
  151.0284  141.7771  158.5431 C   0  0  0  0  0  0  0  0  0  0  0  0
  150.9008  142.6321  157.3130 C   0  0  0  0  0  0  0  0  0  0  0  0
  151.0439  139.0210  157.1668 N   0  0  0  0  0  0  0  0  0  0  0  0
  150.5404  137.9670  156.4896 C   0  0  0  0  0  0  0  0  0  0  0  0
  145.9759  132.3624  151.2163 H   0  0  0  0  0  0  0  0  0  0  0  0
  147.4047  133.0016  150.3951 H   0  0  0  0  0  0  0  0  0  0  0  0
  145.9747  134.0029  150.5634 H   0  0  0  0  0  0  0  0  0  0  0  0
  145.3169  133.4682  153.5061 H   0  0  0  0  0  0  0  0  0  0  0  0
  145.3883  135.0224  152.6668 H   0  0  0  0  0  0  0  0  0  0  0  0
  146.3657  134.7598  154.1055 H   0  0  0  0  0  0  0  0  0  0  0  0
  147.3420  131.9767  153.4269 H   0  0  0  0  0  0  0  0  0  0  0  0
  148.7002  132.4048  152.4122 H   0  0  0  0  0  0  0  0  0  0  0  0
  147.9621  133.4013  155.1939 H   0  0  0  0  0  0  0  0  0  0  0  0
  149.5261  132.8919  154.5762 H   0  0  0  0  0  0  0  0  0  0  0  0
  148.8326  135.1841  153.1315 H   0  0  0  0  0  0  0  0  0  0  0  0
  149.3668  137.0386  153.5246 H   0  0  0  0  0  0  0  0  0  0  0  0
  150.0890  139.5274  153.4988 H   0  0  0  0  0  0  0  0  0  0  0  0
  152.7794  141.4171  157.1929 H   0  0  0  0  0  0  0  0  0  0  0  0
  150.1442  141.2316  158.8672 H   0  0  0  0  0  0  0  0  0  0  0  0
  151.6726  142.1376  159.3425 H   0  0  0  0  0  0  0  0  0  0  0  0
  151.4592  143.5656  157.2887 H   0  0  0  0  0  0  0  0  0  0  0  0
  149.9314  142.6556  156.8188 H   0  0  0  0  0  0  0  0  0  0  0  0
  150.4250  137.0456  157.0416 H   0  0  0  0  0  0  0  0  0  0  0  0
  147.6610  134.5803  152.1493 H   0  0  0  0  0  0  0  0  0  0  0  0
  1  2  1  0  0  0  0
  1 19  1  0  0  0  0
  1 20  1  0  0  0  0
  1 21  1  0  0  0  0
  2  3  1  0  0  0  0
  2  4  1  0  0  0  0
  2 38  1  0  0  0  0
  3 22  1  0  0  0  0
  3 23  1  0  0  0  0
  3 24  1  0  0  0  0
  4  5  1  0  0  0  0
  4 25  1  0  0  0  0
  4 26  1  0  0  0  0
  5  6  1  0  0  0  0
  5 27  1  0  0  0  0
  5 28  1  0  0  0  0
  6  7  1  0  0  0  0
  6 29  1  0  0  0  0
  7  8  2  0  0  0  0
  7  9  1  0  0  0  0
  9 10  1  0  0  0  0
  9 30  1  0  0  0  0
 10 18  1  0  0  0  0
 10 11  2  0  0  0  0
 11 12  1  0  0  0  0
 11 31  1  0  0  0  0
 12 13  2  0  0  0  0
 13 14  1  0  0  0  0
 13 17  1  0  0  0  0
 14 16  1  0  0  0  0
 14 15  1  0  0  0  0
 14 32  1  0  0  0  0
 15 16  1  0  0  0  0
 15 33  1  0  0  0  0
 15 34  1  0  0  0  0
 16 35  1  0  0  0  0
 16 36  1  0  0  0  0
 17 18  2  0  0  0  0
 18 37  1  0  0  0  0
M  CHG  1   2   1
M  END
> <s_m_source_file>
AV-unprocessed.smi

> <i_m_source_file_index>
2287

> <i_lp_mmshare_version>
43012

> <i_f3d_flags>
0

> <s_epik_input>
W0NIM11OKFtDSDNdKVtDSDJdW0NIMl1bTkhdQyg9TylbTkhdYzFbY0hdbmMobltjSF0xKVtDSF0yW0NIMl1bQ0gyXTI=

> <s_epik_cmdline>
J2VwaWtfcHl0aG9uJywgJy1waCcsICc3LjAnLCAnLXRuJywgJzgnLCAnLW1hJywgJzIwMCcsICctbWV0YWxfYmluZGluZycsICctaW1hZScsICc8aW5maWxlLm1hZT4nLCAnLW9tYWUnLCAnPG91dGZpbGUubWFlPic=

> <r_lp_tautomer_probability>
1

> <r_epik_Ionization_Penalty>
0.00435795

> <r_epik_Ionization_Penalty_Charging>
0.00433655

> <r_epik_Ionization_Penalty_Neutral>
2.14019e-05

> <r_epik_State_Penalty>
0.00312208

> <r_epik_Charging_Adjusted_Penalty>
0.00745864

> <i_epik_Tot_Q>
1

> <i_epik_Tot_abs_Q>
1

> <r_epik_Metal_State_Penalty>
-0

> <b_epik_Metal_Only>
0

> <s_lp_Force_Field>
OPLS_2005

> <r_lp_Energy>
7.96618

> <b_lp_Chiralities_Consistent>
1

> <s_lp_Variant>
AV-unprocessed.smi:2287-1

> <Gold.Version>
5.8.1

> <Gold.Id.Protein>
6NUR|6NUR_protein|mol2

> <Gold.PLP.Fitness>
42.0751

> <Gold.PLP.PLP>
-26.8495

> <Gold.PLP.part.hbond>
-4.0000

> <Gold.PLP.part.metal>
0.0000

> <Gold.PLP.part.buried>
-3.0595

> <Gold.PLP.part.nonpolar>
-19.4247

> <Gold.PLP.part.repulsive>
0.1137

> <Gold.PLP.ligand.clash>
0.0000

> <Gold.PLP.ligand.torsion>
0.2463

> <Gold.PLP.Chemscore.Hbond>
4.1920

> <Gold.PLP.Chemscore.CHOScore>
1.0000

> <Gold.PLP.Chemscore.Metal>
0.0000

> <Gold.Chemscore.Hbonds>
donor molecule, donor type, donor heavy atom, donor atom, acceptor molecule, acceptor atom, score
      L1  H     2    38       P1  7948  1.82
      L1  H     6    29       P1  7948  1.00
      L1  H     9    30       P1  7948  0.94
      P1  H  7989  7998       L1    12  0.25
      L1  C    11    31       P1  7957  1.00

> <Gold.PLP.Chemscore.Internal.Correction>
0.1422

> <Gold.Rescore>
     Score         DG    S(hbond)    S(metal)    S(lipo)     H(rot)  DE(clash)    DE(int)     intcor
     14.59     -16.18       2.53        0.00      56.94       1.73       0.00       1.59       ----

> <Gold.Chemscore.Fitness>
14.5872

> <Gold.Chemscore.DG>
-16.1787

> <Gold.Chemscore.ZeroCoef>
-5.4800

> <Gold.Chemscore.Hbond>
2.5316

> <Gold.Chemscore.Metal>
0.0000

> <Gold.Chemscore.Lipo>
56.9377

> <Gold.Chemscore.Internal_Hbond>
0.0000

> <Gold.Chemscore.DEClash>
0.0004

> <Gold.Chemscore.DEInternal>
1.5910

> <Gold.Chemscore.Rot>
1.7260

> <Gold.Chemscore.Internal.Correction>
   9.000000E+99

> <Gold.Chemscore.Hbonds>
donor molecule, donor type, donor heavy atom, donor atom, acceptor molecule, acceptor atom, score
      L1  H     2    38       P1  7948  0.53
      L1  H     6    29       P1  7948  0.49
      L1  H     9    30       P1  7948  0.87

> <Gold.Chemscore.Hbond.Weighted>
-8.4556

> <Gold.Chemscore.Metal.Weighted>
-0.0000

> <Gold.Chemscore.Lipo.Weighted>
-6.6617

> <Gold.Chemscore.Internal_Hbond.Weighted>
0.0000

> <Gold.Chemscore.DEClash.Weighted>
0.0004

> <Gold.Chemscore.DEInternal.Weighted>
1.5910

> <Gold.Chemscore.Rot.Weighted>
4.4186

> <Gold.Chemscore.Internal.Correction.Weighted>
   9.000000E+99

> <Gold.Protein.RotatedTorsions>
[ 6907 6896 6895 6894 ] final  -58.82 input  -60.11 | X-H torsion
[ 7974 7965 7964 7962 ] final -165.56 input  175.53 | X-H torsion
[ 8008 7997 7996 7995 ] final -161.93 input   59.86 | X-H torsion
[ 10167 10162 10161 10158 ] final   97.07 input  -65.29 | X-H torsion
[ 10718 10713 10712 10709 ] final -162.55 input   66.30 | X-H torsion
[ 10763 10752 10751 10750 ] final  169.20 input  -60.55 | X-H torsion
[ 11005 11000 10999 10996 ] final   -6.50 input  -57.11 | X-H torsion

> <Gold.Protein.ActiveResidues>
 VAL166  LYS551  ARG553  GLY616  TRP617  ASP618  TYR619  PRO620  LYS621  CYS622 
 ASP623  PHE694  ASN695  SER759  ASP760  ASP761  ALA762  ILE779  LEU786  VAL792 
 PHE793  MET794  SER795  GLU796  ALA797  LYS798  CYS799  TRP800  GLU811  SER814 

> <Gold.Protein.RotatedAtoms>
  150.7977  134.7049  159.6570 H   0  0  0  0  0  0  0  0  0  0  0  0  # atno 6907 bound_to 6896
  152.4091  134.6152  160.0046 H   0  0  0  0  0  0  0  0  0  0  0  0  # atno 6908 bound_to 6896
  151.6400  133.3289  159.3164 H   0  0  0  0  0  0  0  0  0  0  0  0  # atno 6909 bound_to 6896
  144.7267  140.2796  143.6238 H   0  0  0  0  0  0  0  0  0  0  0  0  # atno 7974 bound_to 7965
  155.7995  140.0890  157.1965 H   0  0  0  0  0  0  0  0  0  0  0  0  # atno 8008 bound_to 7997
  154.3982  140.1475  156.3316 H   0  0  0  0  0  0  0  0  0  0  0  0  # atno 8009 bound_to 7997
  155.8477  140.3436  155.5676 H   0  0  0  0  0  0  0  0  0  0  0  0  # atno 8010 bound_to 7997
  139.7835  144.6879  150.9989 H   0  0  0  0  0  0  0  0  0  0  0  0  # atno 10167 bound_to 10162
  156.6120  130.8854  151.2938 H   0  0  0  0  0  0  0  0  0  0  0  0  # atno 10718 bound_to 10713
  154.3796  135.2753  155.2219 H   0  0  0  0  0  0  0  0  0  0  0  0  # atno 10763 bound_to 10752
  154.4331  135.5972  153.6085 H   0  0  0  0  0  0  0  0  0  0  0  0  # atno 10764 bound_to 10752
  152.9835  135.6000  154.4037 H   0  0  0  0  0  0  0  0  0  0  0  0  # atno 10765 bound_to 10752
  140.7026  133.8976  155.8694 H   0  0  0  0  0  0  0  0  0  0  0  0  # atno 11005 bound_to 11000
  145.7962  139.1946  143.2074 LP  0  0  0  0  0  0  0  0  0  0  0  0  # atno 17320 bound_to 7965
  146.0714  140.7864  142.9686 LP  0  0  0  0  0  0  0  0  0  0  0  0  # atno 17321 bound_to 7965
  140.7819  143.4457  151.0486 LP  0  0  0  0  0  0  0  0  0  0  0  0  # atno 17342 bound_to 10162
  139.8137  143.7916  152.3173 LP  0  0  0  0  0  0  0  0  0  0  0  0  # atno 17343 bound_to 10162
  157.7251  130.9612  150.1603 LP  0  0  0  0  0  0  0  0  0  0  0  0  # atno 17370 bound_to 10713
  156.2382  130.3688  149.8367 LP  0  0  0  0  0  0  0  0  0  0  0  0  # atno 17371 bound_to 10713
  141.0151  134.0967  157.4181 LP  0  0  0  0  0  0  0  0  0  0  0  0  # atno 17394 bound_to 11000
  139.8892  135.0104  156.6668 LP  0  0  0  0  0  0  0  0  0  0  0  0  # atno 17395 bound_to 11000

$$$$
