AV-unprocessed.smi:1382|AV-procd|sdf|5620|dock7
  -GOLD-   22720 5233D 1   1.00000     0.00000
 Structure written by MMmdl.
 44 45  0  0  0  0  0  0  0  0  1 V2000
  144.9976  133.0348  151.4109 C   0  0  0  0  0  0  0  0  0  0  0  0
  146.4692  132.6173  151.5300 C   0  0  0  0  0  0  0  0  0  0  0  0
  147.2336  133.3591  152.6376 C   0  0  0  0  0  0  0  0  0  0  0  0
  148.7102  132.9377  152.7545 C   0  0  0  0  0  0  0  0  0  0  0  0
  149.1585  132.8717  154.1315 N   0  0  0  0  0  0  0  0  0  0  0  0
  149.2782  133.9915  154.9600 C   0  0  0  0  0  0  0  0  0  0  0  0
  148.9344  135.2293  154.4358 N   0  0  0  0  0  0  0  0  0  0  0  0
  149.7131  133.8863  156.2514 C   0  0  0  0  0  0  0  0  0  0  0  0
  149.8744  135.0202  157.0683 N   0  0  0  0  0  0  0  0  0  0  0  0
  148.9654  135.1538  158.2104 C   0  0  0  0  0  0  0  0  0  0  0  0
  150.8436  135.9494  156.8647 C   0  0  0  0  0  0  0  0  0  0  0  0
  151.6930  135.8136  155.9819 O   0  0  0  0  0  0  0  0  0  0  0  0
  150.8855  137.2244  157.7358 C   0  0  2  0  0  0  0  0  0  0  0  0
  152.0036  138.2136  157.3528 C   0  0  0  0  0  0  0  0  0  0  0  0
  153.0227  138.0483  158.4610 C   0  0  0  0  0  0  0  0  0  0  0  0
  152.1303  137.7030  159.6436 C   0  0  0  0  0  0  0  0  0  0  0  0
  151.1634  136.8310  159.0793 O   0  0  0  0  0  0  0  0  0  0  0  0
  150.1178  132.5843  156.7994 C   0  0  0  0  0  0  0  0  0  0  0  0
  150.5548  132.3850  157.9320 O   0  0  0  0  0  0  0  0  0  0  0  0
  149.9938  131.5137  155.9176 N   0  0  0  0  0  0  0  0  0  0  0  0
  149.5394  131.5933  154.6061 C   0  0  0  0  0  0  0  0  0  0  0  0
  149.4959  130.5716  153.9200 O   0  0  0  0  0  0  0  0  0  0  0  0
  150.2682  130.6031  156.2565 H   0  0  0  0  0  0  0  0  0  0  0  0
  144.5195  132.5259  150.5735 H   0  0  0  0  0  0  0  0  0  0  0  0
  144.9050  134.1081  151.2424 H   0  0  0  0  0  0  0  0  0  0  0  0
  144.4346  132.7849  152.3100 H   0  0  0  0  0  0  0  0  0  0  0  0
  146.5363  131.5408  151.6907 H   0  0  0  0  0  0  0  0  0  0  0  0
  146.9611  132.8114  150.5762 H   0  0  0  0  0  0  0  0  0  0  0  0
  147.1848  134.4292  152.4328 H   0  0  0  0  0  0  0  0  0  0  0  0
  146.7273  133.2121  153.5924 H   0  0  0  0  0  0  0  0  0  0  0  0
  148.8902  131.9558  152.3192 H   0  0  0  0  0  0  0  0  0  0  0  0
  149.3741  133.6115  152.2101 H   0  0  0  0  0  0  0  0  0  0  0  0
  148.6063  135.3323  153.4860 H   0  0  0  0  0  0  0  0  0  0  0  0
  148.9760  136.0732  154.9892 H   0  0  0  0  0  0  0  0  0  0  0  0
  149.5193  135.1396  159.1499 H   0  0  0  0  0  0  0  0  0  0  0  0
  148.2358  134.3436  158.2434 H   0  0  0  0  0  0  0  0  0  0  0  0
  148.4084  136.0899  158.1530 H   0  0  0  0  0  0  0  0  0  0  0  0
  149.9379  137.7622  157.7057 H   0  0  0  0  0  0  0  0  0  0  0  0
  152.4359  138.0485  156.3649 H   0  0  0  0  0  0  0  0  0  0  0  0
  151.6097  139.2307  157.3637 H   0  0  0  0  0  0  0  0  0  0  0  0
  153.6903  137.2149  158.2384 H   0  0  0  0  0  0  0  0  0  0  0  0
  153.6272  138.9403  158.6255 H   0  0  0  0  0  0  0  0  0  0  0  0
  152.6740  137.2265  160.4595 H   0  0  0  0  0  0  0  0  0  0  0  0
  151.6348  138.5945  160.0311 H   0  0  0  0  0  0  0  0  0  0  0  0
  1  2  1  0  0  0  0
  1 24  1  0  0  0  0
  1 25  1  0  0  0  0
  1 26  1  0  0  0  0
  2  3  1  0  0  0  0
  2 27  1  0  0  0  0
  2 28  1  0  0  0  0
  3  4  1  0  0  0  0
  3 29  1  0  0  0  0
  3 30  1  0  0  0  0
  4  5  1  0  0  0  0
  4 31  1  0  0  0  0
  4 32  1  0  0  0  0
  5 21  1  0  0  0  0
  5  6  1  0  0  0  0
  6  7  1  0  0  0  0
  6  8  2  0  0  0  0
  7 33  1  0  0  0  0
  7 34  1  0  0  0  0
  8  9  1  0  0  0  0
  8 18  1  0  0  0  0
  9 10  1  0  0  0  0
  9 11  1  0  0  0  0
 10 35  1  0  0  0  0
 10 36  1  0  0  0  0
 10 37  1  0  0  0  0
 11 12  2  0  0  0  0
 11 13  1  0  0  0  0
 13 17  1  0  0  0  0
 13 14  1  0  0  0  0
 13 38  1  0  0  0  0
 14 15  1  0  0  0  0
 14 39  1  0  0  0  0
 14 40  1  0  0  0  0
 15 16  1  0  0  0  0
 15 41  1  0  0  0  0
 15 42  1  0  0  0  0
 16 17  1  0  0  0  0
 16 43  1  0  0  0  0
 16 44  1  0  0  0  0
 18 19  2  0  0  0  0
 18 20  1  0  0  0  0
 20 23  1  0  0  0  0
 20 21  1  0  0  0  0
 21 22  2  0  0  0  0
M  END
> <s_m_source_file>
AV-unprocessed.smi

> <i_m_source_file_index>
1382

> <i_lp_mmshare_version>
43012

> <i_f3d_flags>
0

> <s_epik_input>
W0NIM11bQ0gyXVtDSDJdW0NIMl1uMWMoW05IMl0pYyhjKD1PKVtuSF1jMT1PKU4oW0NIM10pQyg9TylbQ0BASF0yW0NIMl1bQ0gyXVtDSDJdTzI=

> <s_epik_cmdline>
J2VwaWtfcHl0aG9uJywgJy1waCcsICc3LjAnLCAnLXRuJywgJzgnLCAnLW1hJywgJzIwMCcsICctbWV0YWxfYmluZGluZycsICctaW1hZScsICc8aW5maWxlLm1hZT4nLCAnLW9tYWUnLCAnPG91dGZpbGUubWFlPic=

> <r_lp_tautomer_probability>
1

> <r_epik_Ionization_Penalty>
1.19634e-05

> <r_epik_Ionization_Penalty_Charging>
6.01811e-06

> <r_epik_Ionization_Penalty_Neutral>
5.94533e-06

> <r_epik_State_Penalty>
-0

> <r_epik_Charging_Adjusted_Penalty>
6.01811e-06

> <i_epik_Tot_Q>
0

> <i_epik_Tot_abs_Q>
0

> <r_epik_Metal_State_Penalty>
-0

> <b_epik_Metal_Only>
0

> <s_epik_Chemistry_Notes>
This compound has an imine and may undergo hydrolysis.

> <s_lp_Force_Field>
OPLS_2005

> <r_lp_Energy>
42.2822

> <b_lp_Chiralities_Consistent>
1

> <s_lp_Variant>
AV-unprocessed.smi:1382-1

> <Gold.Version>
5.8.1

> <Gold.Id.Protein>
6NUR|6NUR_protein|mol2

> <Gold.PLP.Fitness>
39.9971

> <Gold.PLP.PLP>
-29.3180

> <Gold.PLP.part.hbond>
-4.0000

> <Gold.PLP.part.metal>
0.0000

> <Gold.PLP.part.buried>
-4.4131

> <Gold.PLP.part.nonpolar>
-21.7348

> <Gold.PLP.part.repulsive>
0.1200

> <Gold.PLP.ligand.clash>
0.0000

> <Gold.PLP.ligand.torsion>
1.6691

> <Gold.PLP.Chemscore.Hbond>
3.9120

> <Gold.PLP.Chemscore.CHOScore>
0.0000

> <Gold.PLP.Chemscore.Metal>
0.0000

> <Gold.Chemscore.Hbonds>
donor molecule, donor type, donor heavy atom, donor atom, acceptor molecule, acceptor atom, score
      L1  H     7    33       P1  7948  0.85
      P1  H  6896  6907       L1    19  1.00
      P1  H  6896  6908       L1    17  0.96
      P1  H 10752 10764       L1    12  1.00

> <Gold.PLP.Chemscore.Internal.Correction>
2.2813

> <Gold.Rescore>
     Score         DG    S(hbond)    S(metal)    S(lipo)     H(rot)  DE(clash)    DE(int)     intcor
     16.93     -19.74       3.83        0.00      49.67       1.69       0.00       2.81       ----

> <Gold.Chemscore.Fitness>
16.9295

> <Gold.Chemscore.DG>
-19.7427

> <Gold.Chemscore.ZeroCoef>
-5.4800

> <Gold.Chemscore.Hbond>
3.8288

> <Gold.Chemscore.Metal>
0.0000

> <Gold.Chemscore.Lipo>
49.6726

> <Gold.Chemscore.Internal_Hbond>
0.0000

> <Gold.Chemscore.DEClash>
0.0000

> <Gold.Chemscore.DEInternal>
2.8132

> <Gold.Chemscore.Rot>
1.6942

> <Gold.Chemscore.Internal.Correction>
   9.000000E+99

> <Gold.Chemscore.Hbonds>
donor molecule, donor type, donor heavy atom, donor atom, acceptor molecule, acceptor atom, score
      L1  H     7    33       P1  7948  0.79
      P1  H  6896  6907       L1    19  1.00
      P1  H  6896  6908       L1    17  0.85
      P1  H 10752 10764       L1    12  1.00

> <Gold.Chemscore.Hbond.Weighted>
-12.7882

> <Gold.Chemscore.Metal.Weighted>
-0.0000

> <Gold.Chemscore.Lipo.Weighted>
-5.8117

> <Gold.Chemscore.Internal_Hbond.Weighted>
0.0000

> <Gold.Chemscore.DEClash.Weighted>
0.0000

> <Gold.Chemscore.DEInternal.Weighted>
2.8132

> <Gold.Chemscore.Rot.Weighted>
4.3372

> <Gold.Chemscore.Internal.Correction.Weighted>
   9.000000E+99

> <Gold.Protein.RotatedTorsions>
[ 6907 6896 6895 6894 ] final -151.81 input  -60.11 | X-H torsion
[ 7974 7965 7964 7962 ] final -116.34 input  175.53 | X-H torsion
[ 8008 7997 7996 7995 ] final  -98.57 input   59.86 | X-H torsion
[ 10167 10162 10161 10158 ] final -175.30 input  -65.29 | X-H torsion
[ 10718 10713 10712 10709 ] final -119.92 input   66.30 | X-H torsion
[ 10763 10752 10751 10750 ] final  -36.32 input  -60.55 | X-H torsion
[ 11005 11000 10999 10996 ] final  -36.85 input  -57.11 | X-H torsion

> <Gold.Protein.ActiveResidues>
 VAL166  LYS551  ARG553  GLY616  TRP617  ASP618  TYR619  PRO620  LYS621  CYS622 
 ASP623  PHE694  ASN695  SER759  ASP760  ASP761  ALA762  ILE779  LEU786  VAL792 
 PHE793  MET794  SER795  GLU796  ALA797  LYS798  CYS799  TRP800  GLU811  SER814 

> <Gold.Protein.RotatedAtoms>
  151.2185  133.4515  159.2599 H   0  0  0  0  0  0  0  0  0  0  0  0  # atno 6907 bound_to 6896
  151.0907  134.9914  159.8411 H   0  0  0  0  0  0  0  0  0  0  0  0  # atno 6908 bound_to 6896
  152.5434  134.2119  159.8806 H   0  0  0  0  0  0  0  0  0  0  0  0  # atno 6909 bound_to 6896
  145.0979  140.8533  143.3944 H   0  0  0  0  0  0  0  0  0  0  0  0  # atno 7974 bound_to 7965
  154.8030  140.0454  157.1286 H   0  0  0  0  0  0  0  0  0  0  0  0  # atno 8008 bound_to 7997
  154.9457  140.3058  155.5079 H   0  0  0  0  0  0  0  0  0  0  0  0  # atno 8009 bound_to 7997
  156.2963  140.2297  156.4530 H   0  0  0  0  0  0  0  0  0  0  0  0  # atno 8010 bound_to 7997
  139.5588  144.1922  152.1204 H   0  0  0  0  0  0  0  0  0  0  0  0  # atno 10167 bound_to 10162
  156.1218  130.6329  150.9476 H   0  0  0  0  0  0  0  0  0  0  0  0  # atno 10718 bound_to 10713
  153.8778  135.6824  153.4769 H   0  0  0  0  0  0  0  0  0  0  0  0  # atno 10763 bound_to 10752
  153.1251  135.4722  154.9256 H   0  0  0  0  0  0  0  0  0  0  0  0  # atno 10764 bound_to 10752
  154.7683  135.3231  154.8192 H   0  0  0  0  0  0  0  0  0  0  0  0  # atno 10765 bound_to 10752
  140.9906  133.7007  156.1844 H   0  0  0  0  0  0  0  0  0  0  0  0  # atno 11005 bound_to 11000
  145.0990  139.2836  143.5696 LP  0  0  0  0  0  0  0  0  0  0  0  0  # atno 17320 bound_to 7965
  146.3530  140.0551  142.8633 LP  0  0  0  0  0  0  0  0  0  0  0  0  # atno 17321 bound_to 7965
  140.1431  144.5184  150.6732 LP  0  0  0  0  0  0  0  0  0  0  0  0  # atno 17342 bound_to 10162
  140.6865  143.2353  151.5247 LP  0  0  0  0  0  0  0  0  0  0  0  0  # atno 17343 bound_to 10162
  157.6401  131.0911  150.8268 LP  0  0  0  0  0  0  0  0  0  0  0  0  # atno 17370 bound_to 10713
  156.8364  130.5033  149.5326 LP  0  0  0  0  0  0  0  0  0  0  0  0  # atno 17371 bound_to 10713
  140.7045  134.4528  157.5585 LP  0  0  0  0  0  0  0  0  0  0  0  0  # atno 17394 bound_to 11000
  139.8991  134.8599  156.1976 LP  0  0  0  0  0  0  0  0  0  0  0  0  # atno 17395 bound_to 11000

$$$$
