AV-unprocessed.smi:2572|AV-procd|sdf|10111|dock9
  -GOLD-   2272014133D 1   1.00000     0.00000
 Structure written by MMmdl.
 38 39  0  0  0  0  0  0  0  0  1 V2000
  155.5857  139.3278  165.4738 C   0  0  0  0  0  0  0  0  0  0  0  0
  155.2943  137.9351  165.3769 O   0  0  0  0  0  0  0  0  0  0  0  0
  155.0057  137.4430  164.1160 C   0  0  0  0  0  0  0  0  0  0  0  0
  154.7926  136.0194  163.9644 C   0  0  0  0  0  0  0  0  0  0  0  0
  154.5149  135.5256  162.7385 C   0  0  0  0  0  0  0  0  0  0  0  0
  154.4232  136.3893  161.5617 C   0  0  0  0  0  0  0  0  0  0  0  0
  154.1771  135.9642  160.4333 O   0  0  0  0  0  0  0  0  0  0  0  0
  154.6377  137.7114  161.8312 N   0  0  0  0  0  0  0  0  0  0  0  0
  154.5999  138.7223  160.7680 C   0  0  0  0  0  0  0  0  0  0  0  0
  154.8702  140.1416  161.3145 C   0  0  1  0  0  0  0  0  0  0  0  0
  156.2641  140.2975  161.4963 O   0  0  0  0  0  0  0  0  0  0  0  0
  154.3980  141.2313  160.3334 C   0  0  0  0  0  0  0  0  0  0  0  0
  152.9418  141.0525  159.8723 C   0  0  0  0  0  0  0  0  0  0  0  0
  152.3869  142.3100  159.2307 C   0  0  0  0  0  0  0  0  0  0  0  0
  151.0624  142.3347  158.7454 C   0  0  0  0  0  0  0  0  0  0  0  0
  150.5483  143.5045  158.1525 C   0  0  0  0  0  0  0  0  0  0  0  0
  151.3553  144.6539  158.0454 C   0  0  0  0  0  0  0  0  0  0  0  0
  152.6770  144.6333  158.5313 C   0  0  0  0  0  0  0  0  0  0  0  0
  153.1926  143.4631  159.1220 C   0  0  0  0  0  0  0  0  0  0  0  0
  154.9246  138.2243  163.0854 N   0  0  0  0  0  0  0  0  0  0  0  0
  155.7912  139.5767  166.5148 H   0  0  0  0  0  0  0  0  0  0  0  0
  154.7433  139.9429  165.1520 H   0  0  0  0  0  0  0  0  0  0  0  0
  156.4696  139.5989  164.8934 H   0  0  0  0  0  0  0  0  0  0  0  0
  154.8578  135.3711  164.8258 H   0  0  0  0  0  0  0  0  0  0  0  0
  154.3558  134.4637  162.6217 H   0  0  0  0  0  0  0  0  0  0  0  0
  155.2734  138.4835  159.9426 H   0  0  0  0  0  0  0  0  0  0  0  0
  153.6024  138.6896  160.3256 H   0  0  0  0  0  0  0  0  0  0  0  0
  154.3649  140.2801  162.2714 H   0  0  0  0  0  0  0  0  0  0  0  0
  156.4395  140.3875  162.4203 H   0  0  0  0  0  0  0  0  0  0  0  0
  154.5301  142.2183  160.7795 H   0  0  0  0  0  0  0  0  0  0  0  0
  155.0383  141.2098  159.4504 H   0  0  0  0  0  0  0  0  0  0  0  0
  152.8754  140.2335  159.1548 H   0  0  0  0  0  0  0  0  0  0  0  0
  152.3076  140.7734  160.7145 H   0  0  0  0  0  0  0  0  0  0  0  0
  150.4368  141.4578  158.8272 H   0  0  0  0  0  0  0  0  0  0  0  0
  149.5347  143.5204  157.7804 H   0  0  0  0  0  0  0  0  0  0  0  0
  150.9605  145.5506  157.5910 H   0  0  0  0  0  0  0  0  0  0  0  0
  153.2956  145.5153  158.4511 H   0  0  0  0  0  0  0  0  0  0  0  0
  154.2069  143.4534  159.4936 H   0  0  0  0  0  0  0  0  0  0  0  0
  1  2  1  0  0  0  0
  1 21  1  0  0  0  0
  1 22  1  0  0  0  0
  1 23  1  0  0  0  0
  2  3  1  0  0  0  0
  3 20  2  0  0  0  0
  3  4  1  0  0  0  0
  4  5  2  0  0  0  0
  4 24  1  0  0  0  0
  5  6  1  0  0  0  0
  5 25  1  0  0  0  0
  6  7  2  0  0  0  0
  6  8  1  0  0  0  0
  8  9  1  0  0  0  0
  8 20  1  0  0  0  0
  9 10  1  0  0  0  0
  9 26  1  0  0  0  0
  9 27  1  0  0  0  0
 10 11  1  0  0  0  0
 10 12  1  0  0  0  0
 10 28  1  0  0  0  0
 11 29  1  0  0  0  0
 12 13  1  0  0  0  0
 12 30  1  0  0  0  0
 12 31  1  0  0  0  0
 13 14  1  0  0  0  0
 13 32  1  0  0  0  0
 13 33  1  0  0  0  0
 14 19  1  0  0  0  0
 14 15  2  0  0  0  0
 15 16  1  0  0  0  0
 15 34  1  0  0  0  0
 16 17  2  0  0  0  0
 16 35  1  0  0  0  0
 17 18  1  0  0  0  0
 17 36  1  0  0  0  0
 18 19  2  0  0  0  0
 18 37  1  0  0  0  0
 19 38  1  0  0  0  0
M  END
> <s_m_source_file>
AV-unprocessed.smi

> <i_m_source_file_index>
2572

> <i_lp_mmshare_version>
43012

> <i_f3d_flags>
0

> <s_epik_input>
W0NIM11PYzFbY0hdW2NIXWMoPU8pbihuMSlbQ0gyXVtDQEhdKFtPSF0pW0NIMl1bQ0gyXWMyW2NIXVtjSF1bY0hdW2NIXVtjSF0y

> <s_epik_cmdline>
J2VwaWtfcHl0aG9uJywgJy1waCcsICc3LjAnLCAnLXRuJywgJzgnLCAnLW1hJywgJzIwMCcsICctbWV0YWxfYmluZGluZycsICctaW1hZScsICc8aW5maWxlLm1hZT4nLCAnLW9tYWUnLCAnPG91dGZpbGUubWFlPic=

> <r_lp_tautomer_probability>
1

> <r_epik_Ionization_Penalty>
8.48543e-06

> <r_epik_Ionization_Penalty_Charging>
6.90219e-06

> <r_epik_Ionization_Penalty_Neutral>
1.58323e-06

> <r_epik_State_Penalty>
-0

> <r_epik_Charging_Adjusted_Penalty>
6.90219e-06

> <i_epik_Tot_Q>
0

> <i_epik_Tot_abs_Q>
0

> <r_epik_Metal_State_Penalty>
-0

> <b_epik_Metal_Only>
0

> <s_lp_Force_Field>
OPLS_2005

> <r_lp_Energy>
30.5458

> <b_lp_Chiralities_Consistent>
1

> <s_lp_Variant>
AV-unprocessed.smi:2572-2

> <Gold.Version>
5.8.1

> <Gold.Id.Protein>
6NUR|6NUR_protein|mol2

> <Gold.PLP.Fitness>
47.1982

> <Gold.PLP.PLP>
-44.7523

> <Gold.PLP.part.hbond>
-2.0000

> <Gold.PLP.part.metal>
0.0000

> <Gold.PLP.part.buried>
-5.2362

> <Gold.PLP.part.nonpolar>
-37.8450

> <Gold.PLP.part.repulsive>
0.0960

> <Gold.PLP.ligand.clash>
0.0000

> <Gold.PLP.ligand.torsion>
0.2834

> <Gold.PLP.Chemscore.Hbond>
0.9913

> <Gold.PLP.Chemscore.CHOScore>
0.0000

> <Gold.PLP.Chemscore.Metal>
0.0000

> <Gold.Chemscore.Hbonds>
donor molecule, donor type, donor heavy atom, donor atom, acceptor molecule, acceptor atom, score
      P1  H  6896  6908       L1     7  0.60

> <Gold.PLP.Chemscore.Internal.Correction>
0.0389

> <Gold.Rescore>
     Score         DG    S(hbond)    S(metal)    S(lipo)     H(rot)  DE(clash)    DE(int)     intcor
     15.62     -16.77       1.00        0.00     123.27       2.52       0.16       0.99       ----

> <Gold.Chemscore.Fitness>
15.6160

> <Gold.Chemscore.DG>
-16.7715

> <Gold.Chemscore.ZeroCoef>
-5.4800

> <Gold.Chemscore.Hbond>
0.9951

> <Gold.Chemscore.Metal>
0.0000

> <Gold.Chemscore.Lipo>
123.2662

> <Gold.Chemscore.Internal_Hbond>
0.0000

> <Gold.Chemscore.DEClash>
0.1621

> <Gold.Chemscore.DEInternal>
0.9934

> <Gold.Chemscore.Rot>
2.5212

> <Gold.Chemscore.Internal.Correction>
   9.000000E+99

> <Gold.Chemscore.Hbonds>
donor molecule, donor type, donor heavy atom, donor atom, acceptor molecule, acceptor atom, score
      P1  H  6896  6908       L1     7  0.60

> <Gold.Chemscore.Hbond.Weighted>
-3.3236

> <Gold.Chemscore.Metal.Weighted>
-0.0000

> <Gold.Chemscore.Lipo.Weighted>
-14.4221

> <Gold.Chemscore.Internal_Hbond.Weighted>
0.0000

> <Gold.Chemscore.DEClash.Weighted>
0.1621

> <Gold.Chemscore.DEInternal.Weighted>
0.9934

> <Gold.Chemscore.Rot.Weighted>
6.4543

> <Gold.Chemscore.Internal.Correction.Weighted>
   9.000000E+99

> <Gold.Protein.RotatedTorsions>
[ 6907 6896 6895 6894 ] final  -61.21 input  -60.11 | X-H torsion
[ 7974 7965 7964 7962 ] final -148.35 input  175.53 | X-H torsion
[ 8008 7997 7996 7995 ] final  -37.54 input   59.86 | X-H torsion
[ 10167 10162 10161 10158 ] final -160.27 input  -65.29 | X-H torsion
[ 10718 10713 10712 10709 ] final  172.52 input   66.30 | X-H torsion
[ 10763 10752 10751 10750 ] final  131.04 input  -60.55 | X-H torsion
[ 11005 11000 10999 10996 ] final    7.85 input  -57.11 | X-H torsion

> <Gold.Protein.ActiveResidues>
 VAL166  LYS551  ARG553  GLY616  TRP617  ASP618  TYR619  PRO620  LYS621  CYS622 
 ASP623  PHE694  ASN695  SER759  ASP760  ASP761  ALA762  ILE779  LEU786  VAL792 
 PHE793  MET794  SER795  GLU796  ALA797  LYS798  CYS799  TRP800  GLU811  SER814 

> <Gold.Protein.RotatedAtoms>
  150.7801  134.6735  159.6404 H   0  0  0  0  0  0  0  0  0  0  0  0  # atno 6907 bound_to 6896
  152.3883  134.6479  160.0126 H   0  0  0  0  0  0  0  0  0  0  0  0  # atno 6908 bound_to 6896
  151.6788  133.3276  159.3250 H   0  0  0  0  0  0  0  0  0  0  0  0  # atno 6909 bound_to 6896
  144.8035  140.5208  143.5691 H   0  0  0  0  0  0  0  0  0  0  0  0  # atno 7974 bound_to 7965
  154.4052  140.1601  156.2553 H   0  0  0  0  0  0  0  0  0  0  0  0  # atno 8008 bound_to 7997
  155.9084  140.3429  155.6057 H   0  0  0  0  0  0  0  0  0  0  0  0  # atno 8009 bound_to 7997
  155.7365  140.0787  157.2256 H   0  0  0  0  0  0  0  0  0  0  0  0  # atno 8010 bound_to 7997
  139.6552  144.0012  152.2189 H   0  0  0  0  0  0  0  0  0  0  0  0  # atno 10167 bound_to 10162
  156.9777  131.0109  151.2889 H   0  0  0  0  0  0  0  0  0  0  0  0  # atno 10718 bound_to 10713
  153.7678  135.3186  155.3347 H   0  0  0  0  0  0  0  0  0  0  0  0  # atno 10763 bound_to 10752
  154.8207  135.4605  154.0774 H   0  0  0  0  0  0  0  0  0  0  0  0  # atno 10764 bound_to 10752
  153.2024  135.6924  153.8299 H   0  0  0  0  0  0  0  0  0  0  0  0  # atno 10765 bound_to 10752
  140.5435  134.0351  155.7912 H   0  0  0  0  0  0  0  0  0  0  0  0  # atno 11005 bound_to 11000
  145.5495  139.1476  143.3402 LP  0  0  0  0  0  0  0  0  0  0  0  0  # atno 17320 bound_to 7965
  146.2321  140.5634  142.8970 LP  0  0  0  0  0  0  0  0  0  0  0  0  # atno 17321 bound_to 7965
  139.9737  144.6476  150.7965 LP  0  0  0  0  0  0  0  0  0  0  0  0  # atno 17342 bound_to 10162
  140.7556  143.3049  151.2988 LP  0  0  0  0  0  0  0  0  0  0  0  0  # atno 17343 bound_to 10162
  157.5548  130.8206  149.8190 LP  0  0  0  0  0  0  0  0  0  0  0  0  # atno 17370 bound_to 10713
  156.0257  130.3780  150.1831 LP  0  0  0  0  0  0  0  0  0  0  0  0  # atno 17371 bound_to 10713
  141.1213  133.9456  157.2724 LP  0  0  0  0  0  0  0  0  0  0  0  0  # atno 17394 bound_to 11000
  139.9491  135.0179  156.8942 LP  0  0  0  0  0  0  0  0  0  0  0  0  # atno 17395 bound_to 11000

$$$$
