AV-unprocessed.smi:100|AV-procd|sdf|907|dock10
  -GOLD-   2262017403D 1   1.00000     0.00000
 Structure written by MMmdl.
 31 33  0  0  0  0  0  0  0  0  1 V2000
  150.5188  134.0852  156.6737 N   0  0  0  0  0  0  0  0  0  0  0  0
  150.5090  135.4059  156.9020 C   0  0  0  0  0  0  0  0  0  0  0  0
  150.1775  135.8422  158.1398 N   0  0  0  0  0  0  0  0  0  0  0  0
  150.1629  137.1549  158.3923 C   0  0  0  0  0  0  0  0  0  0  0  0
  150.4405  138.1674  157.5670 N   0  0  0  0  0  0  0  0  0  0  0  0
  150.7714  137.7267  156.3177 C   0  0  0  0  0  0  0  0  0  0  0  0
  150.8300  136.3653  155.9085 C   0  0  0  0  0  0  0  0  0  0  0  0
  151.2043  136.2869  154.5740 N   0  0  0  0  0  0  0  0  0  0  0  0
  151.3567  137.5341  154.2181 C   0  0  0  0  0  0  0  0  0  0  0  0
  151.1118  138.4671  155.2026 N   0  0  0  0  0  0  0  0  0  0  0  0
  151.1975  139.9584  155.0836 C   0  0  2  0  0  0  0  0  0  0  0  0
  151.3886  140.4999  156.3546 O   0  0  0  0  0  0  0  0  0  0  0  0
  150.6704  141.7257  156.4415 C   0  0  2  0  0  0  0  0  0  0  0  0
  150.4470  142.1308  157.9070 C   0  0  0  0  0  0  0  0  0  0  0  0
  149.7491  143.3567  157.9690 O   0  0  0  0  0  0  0  0  0  0  0  0
  149.3870  141.4126  155.6677 C   0  0  2  0  0  0  0  0  0  0  0  0
  148.5720  140.6834  156.4336 F   0  0  0  0  0  0  0  0  0  0  0  0
  149.9202  140.5977  154.4976 C   0  0  2  0  0  0  0  0  0  0  0  0
  148.9570  139.6994  153.9750 O   0  0  0  0  0  0  0  0  0  0  0  0
  150.7633  133.7357  155.7585 H   0  0  0  0  0  0  0  0  0  0  0  0
  150.2848  133.4435  157.4171 H   0  0  0  0  0  0  0  0  0  0  0  0
  149.8898  137.4355  159.3988 H   0  0  0  0  0  0  0  0  0  0  0  0
  151.6505  137.8106  153.2160 H   0  0  0  0  0  0  0  0  0  0  0  0
  152.0779  140.1352  154.4638 H   0  0  0  0  0  0  0  0  0  0  0  0
  151.2203  142.5034  155.9075 H   0  0  0  0  0  0  0  0  0  0  0  0
  149.8378  141.3825  158.4146 H   0  0  0  0  0  0  0  0  0  0  0  0
  151.3914  142.2025  158.4479 H   0  0  0  0  0  0  0  0  0  0  0  0
  149.5836  143.6535  157.0871 H   0  0  0  0  0  0  0  0  0  0  0  0
  148.8393  142.3033  155.3589 H   0  0  0  0  0  0  0  0  0  0  0  0
  150.2323  141.2743  153.7011 H   0  0  0  0  0  0  0  0  0  0  0  0
  148.9678  139.7613  153.0323 H   0  0  0  0  0  0  0  0  0  0  0  0
  1  2  1  0  0  0  0
  1 20  1  0  0  0  0
  1 21  1  0  0  0  0
  2  7  1  0  0  0  0
  2  3  2  0  0  0  0
  3  4  1  0  0  0  0
  4  5  2  0  0  0  0
  4 22  1  0  0  0  0
  5  6  1  0  0  0  0
  6 10  1  0  0  0  0
  6  7  2  0  0  0  0
  7  8  1  0  0  0  0
  8  9  2  0  0  0  0
  9 10  1  0  0  0  0
  9 23  1  0  0  0  0
 10 11  1  0  0  0  0
 11 18  1  0  0  0  0
 11 12  1  0  0  0  0
 11 24  1  0  0  0  0
 12 13  1  0  0  0  0
 13 14  1  0  0  0  0
 13 16  1  0  0  0  0
 13 25  1  0  0  0  0
 14 15  1  0  0  0  0
 14 26  1  0  0  0  0
 14 27  1  0  0  0  0
 15 28  1  0  0  0  0
 16 17  1  0  0  0  0
 16 18  1  0  0  0  0
 16 29  1  0  0  0  0
 18 19  1  0  0  0  0
 18 30  1  0  0  0  0
 19 31  1  0  0  0  0
M  END
> <s_m_source_file>
AV-unprocessed.smi

> <i_m_source_file_index>
100

> <i_lp_mmshare_version>
43012

> <i_f3d_flags>
0

> <s_epik_input>
bjFbY0hdbmMoW05IMl0pYyhjMTIpbltjSF1uMltDQEBIXTNPW0NAQEhdKFtDSDJdW09IXSlbQ0BIXShGKVtDQEhdM1tPSF0=

> <s_epik_cmdline>
J2VwaWtfcHl0aG9uJywgJy1waCcsICc3LjAnLCAnLXRuJywgJzgnLCAnLW1hJywgJzIwMCcsICctbWV0YWxfYmluZGluZycsICctaW1hZScsICc8aW5maWxlLm1hZT4nLCAnLW9tYWUnLCAnPG91dGZpbGUubWFlPic=

> <r_lp_tautomer_probability>
1

> <r_epik_Ionization_Penalty>
0.000750324

> <r_epik_Ionization_Penalty_Charging>
0

> <r_epik_Ionization_Penalty_Neutral>
0.000750324

> <r_epik_State_Penalty>
-0

> <r_epik_Charging_Adjusted_Penalty>
0

> <i_epik_Tot_Q>
0

> <i_epik_Tot_abs_Q>
0

> <r_epik_Metal_State_Penalty>
-0

> <b_epik_Metal_Only>
0

> <s_epik_Chemistry_Notes>
This compound contains an acetal/aminal-like group ( X-CH(R)-Y where X, Y are N, S, or O) that may be acid/base labile, releasing an aldehyde.

> <s_lp_Force_Field>
OPLS_2005

> <r_lp_Energy>
39.5

> <b_lp_Chiralities_Consistent>
1

> <s_lp_Variant>
AV-unprocessed.smi:100-11

> <Gold.Version>
5.8.1

> <Gold.Id.Protein>
6NUR|6NUR_protein|mol2

> <Gold.PLP.Fitness>
37.3490

> <Gold.PLP.PLP>
-24.4332

> <Gold.PLP.part.hbond>
-4.3242

> <Gold.PLP.part.metal>
0.0000

> <Gold.PLP.part.buried>
-0.5325

> <Gold.PLP.part.nonpolar>
-21.1046

> <Gold.PLP.part.repulsive>
0.2932

> <Gold.PLP.ligand.clash>
0.0000

> <Gold.PLP.ligand.torsion>
0.6644

> <Gold.PLP.Chemscore.Hbond>
3.9920

> <Gold.PLP.Chemscore.CHOScore>
0.7541

> <Gold.PLP.Chemscore.Metal>
0.0000

> <Gold.Chemscore.Hbonds>
donor molecule, donor type, donor heavy atom, donor atom, acceptor molecule, acceptor atom, score
      L1  H    15    28       P1  8028  1.00
      L1  H    19    31       P1  7957  1.00
      P1  H  6896  6908       L1     3  0.86
      P1  H 10752 10764       L1     8  1.00
      L1  C     9    23       P1  7949  0.64

> <Gold.PLP.Chemscore.Internal.Correction>
0.0062

> <Gold.Rescore>
     Score         DG    S(hbond)    S(metal)    S(lipo)     H(rot)  DE(clash)    DE(int)     intcor
      7.54     -11.04       3.07        0.00      29.72       3.19       1.47       2.03       ----

> <Gold.Chemscore.Fitness>
7.5363

> <Gold.Chemscore.DG>
-11.0369

> <Gold.Chemscore.ZeroCoef>
-5.4800

> <Gold.Chemscore.Hbond>
3.0679

> <Gold.Chemscore.Metal>
0.0000

> <Gold.Chemscore.Lipo>
29.7158

> <Gold.Chemscore.Internal_Hbond>
0.0000

> <Gold.Chemscore.DEClash>
1.4668

> <Gold.Chemscore.DEInternal>
2.0338

> <Gold.Chemscore.Rot>
3.1901

> <Gold.Chemscore.Internal.Correction>
   9.000000E+99

> <Gold.Chemscore.Hbonds>
donor molecule, donor type, donor heavy atom, donor atom, acceptor molecule, acceptor atom, score
      L1  H    15    28       P1  8028  0.87
      L1  H    19    31       P1  7957  0.96
      P1  H  6896  6908       L1     3  0.71
      P1  H 10752 10764       L1     8  0.19

> <Gold.Chemscore.Hbond.Weighted>
-10.2468

> <Gold.Chemscore.Metal.Weighted>
-0.0000

> <Gold.Chemscore.Lipo.Weighted>
-3.4768

> <Gold.Chemscore.Internal_Hbond.Weighted>
0.0000

> <Gold.Chemscore.DEClash.Weighted>
1.4668

> <Gold.Chemscore.DEInternal.Weighted>
2.0338

> <Gold.Chemscore.Rot.Weighted>
8.1667

> <Gold.Chemscore.Internal.Correction.Weighted>
   9.000000E+99

> <Gold.Protein.RotatedTorsions>
[ 6907 6896 6895 6894 ] final  174.10 input  -60.11 | X-H torsion
[ 7974 7965 7964 7962 ] final   19.70 input  175.53 | X-H torsion
[ 8008 7997 7996 7995 ] final   58.85 input   59.86 | X-H torsion
[ 10167 10162 10161 10158 ] final  -56.87 input  -65.29 | X-H torsion
[ 10718 10713 10712 10709 ] final  -25.63 input   66.30 | X-H torsion
[ 10763 10752 10751 10750 ] final  -52.53 input  -60.55 | X-H torsion
[ 11005 11000 10999 10996 ] final  167.41 input  -57.11 | X-H torsion

> <Gold.Protein.ActiveResidues>
 VAL166  LYS551  ARG553  GLY616  TRP617  ASP618  TYR619  PRO620  LYS621  CYS622 
 ASP623  PHE694  ASN695  SER759  ASP760  ASP761  ALA762  ILE779  LEU786  VAL792 
 PHE793  MET794  SER795  GLU796  ALA797  LYS798  CYS799  TRP800  GLU811  SER814 

> <Gold.Protein.RotatedAtoms>
  151.7577  133.3331  159.3408 H   0  0  0  0  0  0  0  0  0  0  0  0  # atno 6907 bound_to 6896
  150.7510  134.6134  159.6107 H   0  0  0  0  0  0  0  0  0  0  0  0  # atno 6908 bound_to 6896
  152.3426  134.7116  160.0311 H   0  0  0  0  0  0  0  0  0  0  0  0  # atno 6909 bound_to 6896
  146.2139  139.8275  142.8667 H   0  0  0  0  0  0  0  0  0  0  0  0  # atno 7974 bound_to 7965
  155.5567  140.3487  155.4481 H   0  0  0  0  0  0  0  0  0  0  0  0  # atno 8008 bound_to 7997
  156.0544  140.1325  157.0039 H   0  0  0  0  0  0  0  0  0  0  0  0  # atno 8009 bound_to 7997
  154.4449  140.0998  156.6408 H   0  0  0  0  0  0  0  0  0  0  0  0  # atno 8010 bound_to 7997
  140.6291  143.2451  151.5286 H   0  0  0  0  0  0  0  0  0  0  0  0  # atno 10167 bound_to 10162
  156.4618  130.4505  149.6924 H   0  0  0  0  0  0  0  0  0  0  0  0  # atno 10718 bound_to 10713
  154.1442  135.6500  153.4949 H   0  0  0  0  0  0  0  0  0  0  0  0  # atno 10763 bound_to 10752
  153.0157  135.5323  154.6874 H   0  0  0  0  0  0  0  0  0  0  0  0  # atno 10764 bound_to 10752
  154.6144  135.2957  155.0368 H   0  0  0  0  0  0  0  0  0  0  0  0  # atno 10765 bound_to 10752
  140.2765  134.7785  157.3721 H   0  0  0  0  0  0  0  0  0  0  0  0  # atno 11005 bound_to 11000
  145.3032  141.0200  143.3597 LP  0  0  0  0  0  0  0  0  0  0  0  0  # atno 17320 bound_to 7965
  144.8990  139.4674  143.6641 LP  0  0  0  0  0  0  0  0  0  0  0  0  # atno 17321 bound_to 7965
  139.5508  144.2401  152.1526 LP  0  0  0  0  0  0  0  0  0  0  0  0  # atno 17342 bound_to 10162
  140.1640  144.4998  150.6616 LP  0  0  0  0  0  0  0  0  0  0  0  0  # atno 17343 bound_to 10162
  156.3709  130.7530  151.2513 LP  0  0  0  0  0  0  0  0  0  0  0  0  # atno 17370 bound_to 10713
  157.7497  131.0323  150.4222 LP  0  0  0  0  0  0  0  0  0  0  0  0  # atno 17371 bound_to 10713
  140.1323  134.5078  155.8095 LP  0  0  0  0  0  0  0  0  0  0  0  0  # atno 17394 bound_to 11000
  141.2169  133.6794  156.7062 LP  0  0  0  0  0  0  0  0  0  0  0  0  # atno 17395 bound_to 11000

$$$$
