AV-unprocessed.smi:1809|AV-procd|sdf|7329|dock2
  -GOLD-   22720 8583D 1   1.00000     0.00000
 Structure written by MMmdl.
 38 40  0  0  0  0  0  0  0  0  2 V2000
  146.7681  133.9261  162.5113 C   0  0  0  0  0  0  0  0  0  0  0  0
  147.3008  135.0456  161.6841 C   0  0  0  0  0  0  0  0  0  0  0  0
  147.2865  136.3165  162.0937 N   0  0  0  0  0  0  0  0  0  0  0  0
  147.8350  137.1754  161.1518 N   0  0  0  0  0  0  0  0  0  0  0  0
  148.2441  136.5456  160.0412 C   0  0  0  0  0  0  0  0  0  0  0  0
  148.8073  137.1955  159.0092 N   0  5  0  0  0  0  0  0  0  0  0  0
  150.0971  137.5958  159.0849 C   0  0  0  0  0  0  0  0  0  0  0  0
  150.9761  137.1008  159.7944 O   0  0  0  0  0  0  0  0  0  0  0  0
  150.3877  138.6353  158.2921 N   0  0  0  0  0  0  0  0  0  0  0  0
  151.6962  139.2674  158.1841 C   0  0  0  0  0  0  0  0  0  0  0  0
  151.7625  140.5365  159.0449 C   0  0  2  0  0  0  0  0  0  0  0  0
  150.7181  141.5866  158.6006 C   0  0  0  0  0  0  0  0  0  0  0  0
  150.8996  142.8144  159.3516 N   0  0  0  0  0  0  0  0  0  0  0  0
  150.0516  143.9288  158.9986 C   0  0  0  0  0  0  0  0  0  0  0  0
  150.7400  145.1469  159.6395 C   0  0  0  0  0  0  0  0  0  0  0  0
  152.1982  144.6899  159.8675 C   0  0  0  0  0  0  0  0  0  0  0  0
  152.2341  143.3226  159.1827 C   0  0  1  0  0  0  0  0  0  0  0  0
  153.2700  142.3031  159.6772 C   0  0  0  0  0  0  0  0  0  0  0  0
  153.0799  141.0933  158.9401 O   0  0  0  0  0  0  0  0  0  0  0  0
  147.9943  134.8005  160.0903 S   0  0  0  0  0  0  0  0  0  0  0  0
  145.6783  133.9308  162.4866 H   0  0  0  0  0  0  0  0  0  0  0  0
  147.0976  134.0306  163.5453 H   0  0  0  0  0  0  0  0  0  0  0  0
  147.1233  132.9696  162.1278 H   0  0  0  0  0  0  0  0  0  0  0  0
  149.6431  139.0195  157.7291 H   0  0  0  0  0  0  0  0  0  0  0  0
  152.4734  138.5649  158.4896 H   0  0  0  0  0  0  0  0  0  0  0  0
  151.8794  139.5175  157.1381 H   0  0  0  0  0  0  0  0  0  0  0  0
  151.5784  140.2719  160.0880 H   0  0  0  0  0  0  0  0  0  0  0  0
  150.8235  141.7841  157.5327 H   0  0  0  0  0  0  0  0  0  0  0  0
  149.7090  141.2029  158.7540 H   0  0  0  0  0  0  0  0  0  0  0  0
  150.0201  144.0491  157.9143 H   0  0  0  0  0  0  0  0  0  0  0  0
  149.0306  143.7869  159.3535 H   0  0  0  0  0  0  0  0  0  0  0  0
  150.6818  146.0187  158.9873 H   0  0  0  0  0  0  0  0  0  0  0  0
  150.2709  145.4065  160.5893 H   0  0  0  0  0  0  0  0  0  0  0  0
  152.9274  145.3815  159.4447 H   0  0  0  0  0  0  0  0  0  0  0  0
  152.3999  144.5932  160.9353 H   0  0  0  0  0  0  0  0  0  0  0  0
  152.4137  143.4922  158.1187 H   0  0  0  0  0  0  0  0  0  0  0  0
  154.2832  142.6705  159.5141 H   0  0  0  0  0  0  0  0  0  0  0  0
  153.1584  142.1112  160.7456 H   0  0  0  0  0  0  0  0  0  0  0  0
  1  2  1  0  0  0  0
  1 21  1  0  0  0  0
  1 22  1  0  0  0  0
  1 23  1  0  0  0  0
  2 20  1  0  0  0  0
  2  3  2  0  0  0  0
  3  4  1  0  0  0  0
  4  5  2  0  0  0  0
  5  6  1  0  0  0  0
  5 20  1  0  0  0  0
  6  7  1  0  0  0  0
  7  8  2  0  0  0  0
  7  9  1  0  0  0  0
  9 10  1  0  0  0  0
  9 24  1  0  0  0  0
 10 11  1  0  0  0  0
 10 25  1  0  0  0  0
 10 26  1  0  0  0  0
 11 19  1  0  0  0  0
 11 12  1  0  0  0  0
 11 27  1  0  0  0  0
 12 13  1  0  0  0  0
 12 28  1  0  0  0  0
 12 29  1  0  0  0  0
 13 17  1  0  0  0  0
 13 14  1  0  0  0  0
 14 15  1  0  0  0  0
 14 30  1  0  0  0  0
 14 31  1  0  0  0  0
 15 16  1  0  0  0  0
 15 32  1  0  0  0  0
 15 33  1  0  0  0  0
 16 17  1  0  0  0  0
 16 34  1  0  0  0  0
 16 35  1  0  0  0  0
 17 18  1  0  0  0  0
 17 36  1  0  0  0  0
 18 19  1  0  0  0  0
 18 37  1  0  0  0  0
 18 38  1  0  0  0  0
M  CHG  1   6  -1
M  END
> <s_m_source_file>
AV-unprocessed.smi

> <i_m_source_file_index>
1809

> <i_lp_mmshare_version>
43012

> <i_f3d_flags>
0

> <s_epik_input>
W0NIM11jMW5uYyhzMSlbTkhdQyg9TylbTkhdW0NIMl1bQ0BIXShbQ0gyXTIpT1tDSDJdW0NAQEhdKE4yMylbQ0gyXVtDSDJdW0NIMl0z

> <s_epik_cmdline>
J2VwaWtfcHl0aG9uJywgJy1waCcsICc3LjAnLCAnLXRuJywgJzgnLCAnLW1hJywgJzIwMCcsICctbWV0YWxfYmluZGluZycsICctaW1hZScsICc8aW5maWxlLm1hZT4nLCAnLW9tYWUnLCAnPG91dGZpbGUubWFlPic=

> <r_lp_tautomer_probability>
1

> <r_epik_Ionization_Penalty>
4.48809

> <r_epik_Ionization_Penalty_Charging>
3.27284

> <r_epik_Ionization_Penalty_Neutral>
1.21525

> <r_epik_State_Penalty>
4.69427

> <r_epik_Charging_Adjusted_Penalty>
7.96711

> <i_epik_Tot_Q>
-1

> <i_epik_Tot_abs_Q>
1

> <r_epik_Metal_State_Penalty>
1.91976

> <b_epik_Metal_Only>
1

> <s_lp_Force_Field>
OPLS_2005

> <r_lp_Energy>
45.7249

> <b_lp_Chiralities_Consistent>
1

> <s_lp_Variant>
AV-unprocessed.smi:1809-21

> <Gold.Version>
5.8.1

> <Gold.Id.Protein>
6NUR|6NUR_protein|mol2

> <Gold.PLP.Fitness>
46.1886

> <Gold.PLP.PLP>
-39.8500

> <Gold.PLP.part.hbond>
-3.3752

> <Gold.PLP.part.metal>
0.0000

> <Gold.PLP.part.buried>
-6.0911

> <Gold.PLP.part.nonpolar>
-30.2622

> <Gold.PLP.part.repulsive>
0.1454

> <Gold.PLP.ligand.clash>
0.0000

> <Gold.PLP.ligand.torsion>
1.0009

> <Gold.PLP.Chemscore.Hbond>
2.7673

> <Gold.PLP.Chemscore.CHOScore>
0.0000

> <Gold.PLP.Chemscore.Metal>
0.0000

> <Gold.Chemscore.Hbonds>
donor molecule, donor type, donor heavy atom, donor atom, acceptor molecule, acceptor atom, score
      P1  H  6896  6908       L1     8  0.99
      P1  H  6931  6943       L1     4  0.98
      P1  H  6934  6947       L1     4  0.80

> <Gold.PLP.Chemscore.Internal.Correction>
0.0386

> <Gold.Rescore>
     Score         DG    S(hbond)    S(metal)    S(lipo)     H(rot)  DE(clash)    DE(int)     intcor
     20.03     -21.10       2.43        0.00      92.73       1.31       0.09       0.98       ----

> <Gold.Chemscore.Fitness>
20.0334

> <Gold.Chemscore.DG>
-21.1037

> <Gold.Chemscore.ZeroCoef>
-5.4800

> <Gold.Chemscore.Hbond>
2.4299

> <Gold.Chemscore.Metal>
0.0000

> <Gold.Chemscore.Lipo>
92.7260

> <Gold.Chemscore.Internal_Hbond>
0.0000

> <Gold.Chemscore.DEClash>
0.0938

> <Gold.Chemscore.DEInternal>
0.9766

> <Gold.Chemscore.Rot>
1.3051

> <Gold.Chemscore.Internal.Correction>
   9.000000E+99

> <Gold.Chemscore.Hbonds>
donor molecule, donor type, donor heavy atom, donor atom, acceptor molecule, acceptor atom, score
      P1  H  6896  6908       L1     8  0.86
      P1  H  6931  6943       L1     4  0.66
      P1  H  6934  6947       L1     4  0.73

> <Gold.Chemscore.Hbond.Weighted>
-8.1159

> <Gold.Chemscore.Metal.Weighted>
-0.0000

> <Gold.Chemscore.Lipo.Weighted>
-10.8489

> <Gold.Chemscore.Internal_Hbond.Weighted>
0.0000

> <Gold.Chemscore.DEClash.Weighted>
0.0938

> <Gold.Chemscore.DEInternal.Weighted>
0.9766

> <Gold.Chemscore.Rot.Weighted>
3.3412

> <Gold.Chemscore.Internal.Correction.Weighted>
   9.000000E+99

> <Gold.Protein.RotatedTorsions>
[ 6907 6896 6895 6894 ] final -150.84 input  -60.11 | X-H torsion
[ 7974 7965 7964 7962 ] final -157.02 input  175.53 | X-H torsion
[ 8008 7997 7996 7995 ] final  -24.86 input   59.86 | X-H torsion
[ 10167 10162 10161 10158 ] final -163.02 input  -65.29 | X-H torsion
[ 10718 10713 10712 10709 ] final -139.82 input   66.30 | X-H torsion
[ 10763 10752 10751 10750 ] final  -98.64 input  -60.55 | X-H torsion
[ 11005 11000 10999 10996 ] final  -93.28 input  -57.11 | X-H torsion

> <Gold.Protein.ActiveResidues>
 VAL166  LYS551  ARG553  GLY616  TRP617  ASP618  TYR619  PRO620  LYS621  CYS622 
 ASP623  PHE694  ASN695  SER759  ASP760  ASP761  ALA762  ILE779  LEU786  VAL792 
 PHE793  MET794  SER795  GLU796  ALA797  LYS798  CYS799  TRP800  GLU811  SER814 

> <Gold.Protein.RotatedAtoms>
  151.2043  133.4592  159.2596 H   0  0  0  0  0  0  0  0  0  0  0  0  # atno 6907 bound_to 6896
  151.1038  134.9988  159.8471 H   0  0  0  0  0  0  0  0  0  0  0  0  # atno 6908 bound_to 6896
  152.5445  134.1968  159.8749 H   0  0  0  0  0  0  0  0  0  0  0  0  # atno 6909 bound_to 6896
  144.7566  140.4027  143.6007 H   0  0  0  0  0  0  0  0  0  0  0  0  # atno 7974 bound_to 7965
  154.4506  140.1942  156.0530 H   0  0  0  0  0  0  0  0  0  0  0  0  # atno 8008 bound_to 7997
  156.0640  140.3293  155.7468 H   0  0  0  0  0  0  0  0  0  0  0  0  # atno 8009 bound_to 7997
  155.5367  140.0583  157.2869 H   0  0  0  0  0  0  0  0  0  0  0  0  # atno 8010 bound_to 7997
  139.6350  144.0366  152.2047 H   0  0  0  0  0  0  0  0  0  0  0  0  # atno 10167 bound_to 10162
  156.3152  130.7504  151.1589 H   0  0  0  0  0  0  0  0  0  0  0  0  # atno 10718 bound_to 10713
  154.7431  135.5002  153.9157 H   0  0  0  0  0  0  0  0  0  0  0  0  # atno 10763 bound_to 10752
  153.1064  135.6698  153.9587 H   0  0  0  0  0  0  0  0  0  0  0  0  # atno 10764 bound_to 10752
  153.9359  135.3073  155.3423 H   0  0  0  0  0  0  0  0  0  0  0  0  # atno 10765 bound_to 10752
  141.1501  133.7877  157.0137 H   0  0  0  0  0  0  0  0  0  0  0  0  # atno 11005 bound_to 11000
  145.6757  139.1608  143.2729 LP  0  0  0  0  0  0  0  0  0  0  0  0  # atno 17320 bound_to 7965
  146.1584  140.6824  142.9289 LP  0  0  0  0  0  0  0  0  0  0  0  0  # atno 17321 bound_to 7965
  140.0041  144.6271  150.7704 LP  0  0  0  0  0  0  0  0  0  0  0  0  # atno 17342 bound_to 10162
  140.7460  143.2885  151.3397 LP  0  0  0  0  0  0  0  0  0  0  0  0  # atno 17343 bound_to 10162
  157.7400  131.0522  150.5196 LP  0  0  0  0  0  0  0  0  0  0  0  0  # atno 17370 bound_to 10713
  156.5340  130.4192  149.6187 LP  0  0  0  0  0  0  0  0  0  0  0  0  # atno 17371 bound_to 10713
  140.0861  134.9620  157.1702 LP  0  0  0  0  0  0  0  0  0  0  0  0  # atno 17394 bound_to 11000
  140.3510  134.2599  155.7198 LP  0  0  0  0  0  0  0  0  0  0  0  0  # atno 17395 bound_to 11000

$$$$
