AV-unprocessed.smi:2626|AV-procd|sdf|10236|dock3
  -GOLD-   2272014243D 1   1.00000     0.00000
 Structure written by MMmdl.
 27 28  0  0  0  0  0  0  0  0  1 V2000
  151.7023  144.9946  159.3591 C   0  0  0  0  0  0  0  0  0  0  0  0
  151.7948  143.4889  159.2245 C   0  0  0  0  0  0  0  0  0  0  0  0
  152.3017  142.7081  160.2101 C   0  0  0  0  0  0  0  0  0  0  0  0
  152.3722  141.2559  160.0409 C   0  0  0  0  0  0  0  0  0  0  0  0
  152.8182  140.4847  160.8871 O   0  0  0  0  0  0  0  0  0  0  0  0
  151.8992  140.8064  158.8554 N   0  0  0  0  0  0  0  0  0  0  0  0
  151.3829  141.6439  157.8607 C   0  0  0  0  0  0  0  0  0  0  0  0
  150.9625  140.9442  156.7411 N   0  0  0  0  0  0  0  0  0  0  0  0
  150.2009  141.6679  155.7289 C   0  0  0  0  0  0  0  0  0  0  0  0
  149.5148  140.6944  154.7557 C   0  0  0  0  0  0  0  0  0  0  0  0
  150.4894  139.8387  154.1714 O   0  0  0  0  0  0  0  0  0  0  0  0
  151.1611  139.0615  155.1554 C   0  0  0  0  0  0  0  0  0  0  0  0
  151.8902  139.9931  156.1383 C   0  0  0  0  0  0  0  0  0  0  0  0
  151.3291  142.9290  158.0274 N   0  0  0  0  0  0  0  0  0  0  0  0
  151.9241  139.8116  158.6861 H   0  0  0  0  0  0  0  0  0  0  0  0
  152.0878  145.3336  160.3214 H   0  0  0  0  0  0  0  0  0  0  0  0
  150.6645  145.3181  159.2757 H   0  0  0  0  0  0  0  0  0  0  0  0
  152.2786  145.4804  158.5715 H   0  0  0  0  0  0  0  0  0  0  0  0
  152.6572  143.1518  161.1285 H   0  0  0  0  0  0  0  0  0  0  0  0
  149.4508  142.2998  156.2070 H   0  0  0  0  0  0  0  0  0  0  0  0
  150.8730  142.3301  155.1811 H   0  0  0  0  0  0  0  0  0  0  0  0
  148.7549  140.1029  155.2686 H   0  0  0  0  0  0  0  0  0  0  0  0
  149.0082  141.2485  153.9655 H   0  0  0  0  0  0  0  0  0  0  0  0
  150.4485  138.4232  155.6804 H   0  0  0  0  0  0  0  0  0  0  0  0
  151.8758  138.4029  154.6620 H   0  0  0  0  0  0  0  0  0  0  0  0
  152.6772  140.5411  155.6179 H   0  0  0  0  0  0  0  0  0  0  0  0
  152.3748  139.4008  156.9159 H   0  0  0  0  0  0  0  0  0  0  0  0
  1  2  1  0  0  0  0
  1 16  1  0  0  0  0
  1 17  1  0  0  0  0
  1 18  1  0  0  0  0
  2 14  1  0  0  0  0
  2  3  2  0  0  0  0
  3  4  1  0  0  0  0
  3 19  1  0  0  0  0
  4  5  2  0  0  0  0
  4  6  1  0  0  0  0
  6 15  1  0  0  0  0
  6  7  1  0  0  0  0
  7  8  1  0  0  0  0
  7 14  2  0  0  0  0
  8 13  1  0  0  0  0
  8  9  1  0  0  0  0
  9 10  1  0  0  0  0
  9 20  1  0  0  0  0
  9 21  1  0  0  0  0
 10 11  1  0  0  0  0
 10 22  1  0  0  0  0
 10 23  1  0  0  0  0
 11 12  1  0  0  0  0
 12 13  1  0  0  0  0
 12 24  1  0  0  0  0
 12 25  1  0  0  0  0
 13 26  1  0  0  0  0
 13 27  1  0  0  0  0
M  END
> <s_m_source_file>
AV-unprocessed.smi

> <i_m_source_file_index>
2626

> <i_lp_mmshare_version>
43012

> <i_f3d_flags>
0

> <s_epik_input>
W0NIM11jMVtjSF1jKD1PKVtuSF1jKG4xKU4yW0NIMl1bQ0gyXU9bQ0gyXVtDSDJdMg==

> <s_epik_cmdline>
J2VwaWtfcHl0aG9uJywgJy1waCcsICc3LjAnLCAnLXRuJywgJzgnLCAnLW1hJywgJzIwMCcsICctbWV0YWxfYmluZGluZycsICctaW1hZScsICc8aW5maWxlLm1hZT4nLCAnLW9tYWUnLCAnPG91dGZpbGUubWFlPic=

> <r_lp_tautomer_probability>
0.878553

> <r_epik_Ionization_Penalty>
0.00137266

> <r_epik_Ionization_Penalty_Charging>
0.00134941

> <r_epik_Ionization_Penalty_Neutral>
2.32458e-05

> <r_epik_State_Penalty>
0.0440188

> <r_epik_Charging_Adjusted_Penalty>
0.0453682

> <i_epik_Tot_Q>
0

> <i_epik_Tot_abs_Q>
0

> <r_epik_Metal_State_Penalty>
1.05362

> <b_epik_Metal_Only>
0

> <s_lp_Force_Field>
OPLS_2005

> <r_lp_Energy>
23.8409

> <b_lp_Chiralities_Consistent>
1

> <s_lp_Variant>
AV-unprocessed.smi:2626-1

> <Gold.Version>
5.8.1

> <Gold.Id.Protein>
6NUR|6NUR_protein|mol2

> <Gold.PLP.Fitness>
34.3287

> <Gold.PLP.PLP>
-31.4795

> <Gold.PLP.part.hbond>
-1.0000

> <Gold.PLP.part.metal>
0.0000

> <Gold.PLP.part.buried>
-5.1449

> <Gold.PLP.part.nonpolar>
-25.9471

> <Gold.PLP.part.repulsive>
0.5638

> <Gold.PLP.ligand.clash>
0.0000

> <Gold.PLP.ligand.torsion>
0.1720

> <Gold.PLP.Chemscore.Hbond>
0.9500

> <Gold.PLP.Chemscore.CHOScore>
0.0000

> <Gold.PLP.Chemscore.Metal>
0.0000

> <Gold.Chemscore.Hbonds>
donor molecule, donor type, donor heavy atom, donor atom, acceptor molecule, acceptor atom, score
      P1  H  7989  7998       L1    11  1.00

> <Gold.PLP.Chemscore.Internal.Correction>
0.3433

> <Gold.Rescore>
     Score         DG    S(hbond)    S(metal)    S(lipo)     H(rot)  DE(clash)    DE(int)     intcor
     12.08     -12.46       0.71        0.00      61.28       1.00       0.21       0.17       ----

> <Gold.Chemscore.Fitness>
12.0787

> <Gold.Chemscore.DG>
-12.4625

> <Gold.Chemscore.ZeroCoef>
-5.4800

> <Gold.Chemscore.Hbond>
0.7106

> <Gold.Chemscore.Metal>
0.0000

> <Gold.Chemscore.Lipo>
61.2751

> <Gold.Chemscore.Internal_Hbond>
0.0000

> <Gold.Chemscore.DEClash>
0.2121

> <Gold.Chemscore.DEInternal>
0.1718

> <Gold.Chemscore.Rot>
1.0000

> <Gold.Chemscore.Internal.Correction>
   9.000000E+99

> <Gold.Chemscore.Hbonds>
donor molecule, donor type, donor heavy atom, donor atom, acceptor molecule, acceptor atom, score
      P1  H  7989  7998       L1    11  0.32

> <Gold.Chemscore.Hbond.Weighted>
-2.3734

> <Gold.Chemscore.Metal.Weighted>
-0.0000

> <Gold.Chemscore.Lipo.Weighted>
-7.1692

> <Gold.Chemscore.Internal_Hbond.Weighted>
0.0000

> <Gold.Chemscore.DEClash.Weighted>
0.2121

> <Gold.Chemscore.DEInternal.Weighted>
0.1718

> <Gold.Chemscore.Rot.Weighted>
2.5600

> <Gold.Chemscore.Internal.Correction.Weighted>
   9.000000E+99

> <Gold.Protein.RotatedTorsions>
[ 6907 6896 6895 6894 ] final   17.39 input  -60.11 | X-H torsion
[ 7974 7965 7964 7962 ] final  140.30 input  175.53 | X-H torsion
[ 8008 7997 7996 7995 ] final   45.51 input   59.86 | X-H torsion
[ 10167 10162 10161 10158 ] final  104.23 input  -65.29 | X-H torsion
[ 10718 10713 10712 10709 ] final   80.68 input   66.30 | X-H torsion
[ 10763 10752 10751 10750 ] final   33.84 input  -60.55 | X-H torsion
[ 11005 11000 10999 10996 ] final   77.93 input  -57.11 | X-H torsion

> <Gold.Protein.ActiveResidues>
 VAL166  LYS551  ARG553  GLY616  TRP617  ASP618  TYR619  PRO620  LYS621  CYS622 
 ASP623  PHE694  ASN695  SER759  ASP760  ASP761  ALA762  ILE779  LEU786  VAL792 
 PHE793  MET794  SER795  GLU796  ALA797  LYS798  CYS799  TRP800  GLU811  SER814 

> <Gold.Protein.RotatedAtoms>
  151.8488  135.0565  160.0456 H   0  0  0  0  0  0  0  0  0  0  0  0  # atno 6907 bound_to 6896
  152.2752  133.5415  159.5472 H   0  0  0  0  0  0  0  0  0  0  0  0  # atno 6908 bound_to 6896
  150.7167  134.0557  159.3856 H   0  0  0  0  0  0  0  0  0  0  0  0  # atno 6909 bound_to 6896
  144.9199  139.5181  143.5668 H   0  0  0  0  0  0  0  0  0  0  0  0  # atno 7974 bound_to 7965
  155.3371  140.3406  155.4239 H   0  0  0  0  0  0  0  0  0  0  0  0  # atno 8008 bound_to 7997
  156.1832  140.1671  156.8271 H   0  0  0  0  0  0  0  0  0  0  0  0  # atno 8009 bound_to 7997
  154.5357  140.0735  156.8406 H   0  0  0  0  0  0  0  0  0  0  0  0  # atno 8010 bound_to 7997
  139.7195  144.7061  151.0895 H   0  0  0  0  0  0  0  0  0  0  0  0  # atno 10167 bound_to 10162
  157.6813  130.9970  150.2115 H   0  0  0  0  0  0  0  0  0  0  0  0  # atno 10718 bound_to 10713
  153.0192  135.6376  154.1574 H   0  0  0  0  0  0  0  0  0  0  0  0  # atno 10763 bound_to 10752
  154.1310  135.2840  155.3186 H   0  0  0  0  0  0  0  0  0  0  0  0  # atno 10764 bound_to 10752
  154.6194  135.5530  153.7620 H   0  0  0  0  0  0  0  0  0  0  0  0  # atno 10765 bound_to 10752
  139.9234  134.7723  156.1585 H   0  0  0  0  0  0  0  0  0  0  0  0  # atno 11005 bound_to 11000
  146.3200  139.8071  142.8953 LP  0  0  0  0  0  0  0  0  0  0  0  0  # atno 17320 bound_to 7965
  145.3313  141.0267  143.3445 LP  0  0  0  0  0  0  0  0  0  0  0  0  # atno 17321 bound_to 7965
  140.7751  143.5185  150.9566 LP  0  0  0  0  0  0  0  0  0  0  0  0  # atno 17342 bound_to 10162
  139.8871  143.6999  152.3150 LP  0  0  0  0  0  0  0  0  0  0  0  0  # atno 17343 bound_to 10162
  156.2785  130.3730  149.7959 LP  0  0  0  0  0  0  0  0  0  0  0  0  # atno 17370 bound_to 10713
  156.5655  130.8402  151.3341 LP  0  0  0  0  0  0  0  0  0  0  0  0  # atno 17371 bound_to 10713
  141.0772  133.6770  156.2261 LP  0  0  0  0  0  0  0  0  0  0  0  0  # atno 17394 bound_to 11000
  140.6408  134.5168  157.5569 LP  0  0  0  0  0  0  0  0  0  0  0  0  # atno 17395 bound_to 11000

$$$$
