AV-unprocessed.smi:249|AV-procd|sdf|1919|dock1
  -GOLD-   2262021 23D 1   1.00000     0.00000
 Structure written by MMmdl.
 64 67  0  0  0  0  0  0  0  0  2 V2000
  144.9359  132.7151  149.9544 C   0  0  0  0  0  0  0  0  0  0  0  0
  145.0191  131.7782  151.1705 C   0  0  0  0  0  0  0  0  0  0  0  0
  146.4021  131.6260  151.7083 N   0  3  1  0  0  0  0  0  0  0  0  0
  146.9606  132.9323  152.1638 C   0  0  0  0  0  0  0  0  0  0  0  0
  148.4119  132.8091  152.6554 C   0  0  0  0  0  0  0  0  0  0  0  0
  148.5315  131.7993  153.8083 C   0  0  1  0  0  0  0  0  0  0  0  0
  147.8575  132.2665  155.0314 N   0  0  0  0  0  0  0  0  0  0  0  0
  146.3984  132.2843  155.0377 C   0  0  0  0  0  0  0  0  0  0  0  0
  148.3478  133.3899  155.6023 C   0  0  0  0  0  0  0  0  0  0  0  0
  149.2648  133.2315  156.5883 N   0  0  0  0  0  0  0  0  0  0  0  0
  149.8011  134.3040  157.1784 C   0  0  0  0  0  0  0  0  0  0  0  0
  149.5671  135.5952  156.9345 N   0  0  0  0  0  0  0  0  0  0  0  0
  148.6374  135.7553  155.9494 C   0  0  0  0  0  0  0  0  0  0  0  0
  147.9738  134.7149  155.2414 C   0  0  0  0  0  0  0  0  0  0  0  0
  147.0867  135.2578  154.3198 N   0  0  0  0  0  0  0  0  0  0  0  0
  147.2304  136.5472  154.4620 C   0  0  0  0  0  0  0  0  0  0  0  0
  148.1540  136.9327  155.4070 N   0  0  0  0  0  0  0  0  0  0  0  0
  148.5290  138.2947  155.7443 C   0  0  0  0  0  0  0  0  0  0  0  0
  149.1098  139.0808  154.5413 C   0  0  1  0  0  0  0  0  0  0  0  0
  148.4324  140.4670  154.4217 C   0  0  0  0  0  0  0  0  0  0  0  0
  148.9136  141.1634  153.2909 O   0  0  0  0  0  0  0  0  0  0  0  0
  150.6650  139.1406  154.5647 C   0  0  2  0  0  0  0  0  0  0  0  0
  151.4003  137.8059  154.6841 C   0  0  0  0  0  0  0  0  0  0  0  0
  152.5600  138.1017  155.6391 C   0  0  0  0  0  0  0  0  0  0  0  0
  152.6266  139.5183  155.7077 O   0  0  0  0  0  0  0  0  0  0  0  0
  151.2921  139.9943  155.6705 C   0  0  0  0  0  0  0  0  0  0  0  0
  147.9848  130.4599  153.2673 C   0  0  0  0  0  0  0  0  0  0  0  0
  146.5273  130.5654  152.7613 C   0  0  2  0  0  0  0  0  0  0  0  0
  146.0782  129.1720  152.2733 C   0  0  0  0  0  0  0  0  0  0  0  0
  143.9441  132.6649  149.5040 H   0  0  0  0  0  0  0  0  0  0  0  0
  145.6587  132.4335  149.1881 H   0  0  0  0  0  0  0  0  0  0  0  0
  145.1072  133.7577  150.2203 H   0  0  0  0  0  0  0  0  0  0  0  0
  144.3485  132.1191  151.9607 H   0  0  0  0  0  0  0  0  0  0  0  0
  144.6339  130.8196  150.8319 H   0  0  0  0  0  0  0  0  0  0  0  0
  146.9519  133.6534  151.3483 H   0  0  0  0  0  0  0  0  0  0  0  0
  146.3289  133.3443  152.9521 H   0  0  0  0  0  0  0  0  0  0  0  0
  149.0419  132.4856  151.8257 H   0  0  0  0  0  0  0  0  0  0  0  0
  148.7966  133.7866  152.9463 H   0  0  0  0  0  0  0  0  0  0  0  0
  149.5902  131.6781  154.0395 H   0  0  0  0  0  0  0  0  0  0  0  0
  145.9972  132.8783  155.8611 H   0  0  0  0  0  0  0  0  0  0  0  0
  146.0095  131.2725  155.1507 H   0  0  0  0  0  0  0  0  0  0  0  0
  146.0149  132.6975  154.1042 H   0  0  0  0  0  0  0  0  0  0  0  0
  150.5251  134.0988  157.9532 H   0  0  0  0  0  0  0  0  0  0  0  0
  146.6733  137.2578  153.8685 H   0  0  0  0  0  0  0  0  0  0  0  0
  147.6414  138.7919  156.1363 H   0  0  0  0  0  0  0  0  0  0  0  0
  149.2508  138.2683  156.5612 H   0  0  0  0  0  0  0  0  0  0  0  0
  148.8493  138.5230  153.6401 H   0  0  0  0  0  0  0  0  0  0  0  0
  147.3496  140.3749  154.3398 H   0  0  0  0  0  0  0  0  0  0  0  0
  148.6336  141.0916  155.2894 H   0  0  0  0  0  0  0  0  0  0  0  0
  148.9256  140.5709  152.5548 H   0  0  0  0  0  0  0  0  0  0  0  0
  151.0081  139.6029  153.6388 H   0  0  0  0  0  0  0  0  0  0  0  0
  150.7804  136.9998  155.0746 H   0  0  0  0  0  0  0  0  0  0  0  0
  151.7700  137.4885  153.7090 H   0  0  0  0  0  0  0  0  0  0  0  0
  152.3458  137.7057  156.6328 H   0  0  0  0  0  0  0  0  0  0  0  0
  153.5036  137.6749  155.2986 H   0  0  0  0  0  0  0  0  0  0  0  0
  151.2552  141.0607  155.4465 H   0  0  0  0  0  0  0  0  0  0  0  0
  150.8349  139.8353  156.6462 H   0  0  0  0  0  0  0  0  0  0  0  0
  148.6215  130.1302  152.4450 H   0  0  0  0  0  0  0  0  0  0  0  0
  148.0680  129.6735  154.0176 H   0  0  0  0  0  0  0  0  0  0  0  0
  145.8889  130.8474  153.5998 H   0  0  0  0  0  0  0  0  0  0  0  0
  146.3344  128.4028  153.0027 H   0  0  0  0  0  0  0  0  0  0  0  0
  146.5609  128.9040  151.3327 H   0  0  0  0  0  0  0  0  0  0  0  0
  144.9997  129.1044  152.1368 H   0  0  0  0  0  0  0  0  0  0  0  0
  146.9774  131.3208  150.9364 H   0  0  0  0  0  0  0  0  0  0  0  0
  1  2  1  0  0  0  0
  1 30  1  0  0  0  0
  1 31  1  0  0  0  0
  1 32  1  0  0  0  0
  2  3  1  0  0  0  0
  2 33  1  0  0  0  0
  2 34  1  0  0  0  0
  3 28  1  0  0  0  0
  3  4  1  0  0  0  0
  3 64  1  0  0  0  0
  4  5  1  0  0  0  0
  4 35  1  0  0  0  0
  4 36  1  0  0  0  0
  5  6  1  0  0  0  0
  5 37  1  0  0  0  0
  5 38  1  0  0  0  0
  6  7  1  0  0  0  0
  6 27  1  0  0  0  0
  6 39  1  0  0  0  0
  7  8  1  0  0  0  0
  7  9  1  0  0  0  0
  8 40  1  0  0  0  0
  8 41  1  0  0  0  0
  8 42  1  0  0  0  0
  9 14  1  0  0  0  0
  9 10  2  0  0  0  0
 10 11  1  0  0  0  0
 11 12  2  0  0  0  0
 11 43  1  0  0  0  0
 12 13  1  0  0  0  0
 13 17  1  0  0  0  0
 13 14  2  0  0  0  0
 14 15  1  0  0  0  0
 15 16  2  0  0  0  0
 16 17  1  0  0  0  0
 16 44  1  0  0  0  0
 17 18  1  0  0  0  0
 18 19  1  0  0  0  0
 18 45  1  0  0  0  0
 18 46  1  0  0  0  0
 19 20  1  0  0  0  0
 19 22  1  0  0  0  0
 19 47  1  0  0  0  0
 20 21  1  0  0  0  0
 20 48  1  0  0  0  0
 20 49  1  0  0  0  0
 21 50  1  0  0  0  0
 22 26  1  0  0  0  0
 22 23  1  0  0  0  0
 22 51  1  0  0  0  0
 23 24  1  0  0  0  0
 23 52  1  0  0  0  0
 23 53  1  0  0  0  0
 24 25  1  0  0  0  0
 24 54  1  0  0  0  0
 24 55  1  0  0  0  0
 25 26  1  0  0  0  0
 26 56  1  0  0  0  0
 26 57  1  0  0  0  0
 27 28  1  0  0  0  0
 27 58  1  0  0  0  0
 27 59  1  0  0  0  0
 28 29  1  0  0  0  0
 28 60  1  0  0  0  0
 29 61  1  0  0  0  0
 29 62  1  0  0  0  0
 29 63  1  0  0  0  0
M  CHG  1   3   1
M  END
> <s_m_source_file>
AV-unprocessed.smi

> <i_m_source_file_index>
249

> <i_lp_mmshare_version>
43012

> <i_f3d_flags>
0

> <s_epik_input>
W0NIM11bQ0gyXU4xW0NIMl1bQ0gyXVtDQEhdKFtDSDJdW0NASF0xW0NIM10pTihbQ0gzXSljKG5bY0hdbjIpYyhjMjMpbltjSF1uM1tDSDJdW0NASF0oW0NIMl1bT0hdKVtDQEBIXTRbQ0gyXVtDSDJdT1tDSDJdNA==

> <s_epik_cmdline>
J2VwaWtfcHl0aG9uJywgJy1waCcsICc3LjAnLCAnLXRuJywgJzgnLCAnLW1hJywgJzIwMCcsICctbWV0YWxfYmluZGluZycsICctaW1hZScsICc8aW5maWxlLm1hZT4nLCAnLW9tYWUnLCAnPG91dGZpbGUubWFlPic=

> <r_lp_tautomer_probability>
1

> <r_epik_Ionization_Penalty>
0.00294688

> <r_epik_Ionization_Penalty_Charging>
0.00169971

> <r_epik_Ionization_Penalty_Neutral>
0.00124717

> <r_epik_State_Penalty>
-0

> <r_epik_Charging_Adjusted_Penalty>
0.00169971

> <i_epik_Tot_Q>
1

> <i_epik_Tot_abs_Q>
1

> <r_epik_Metal_State_Penalty>
-0

> <b_epik_Metal_Only>
0

> <s_lp_Force_Field>
OPLS_2005

> <r_lp_Energy>
56.7339

> <b_lp_Chiralities_Consistent>
1

> <s_lp_Variant>
AV-unprocessed.smi:249-22

> <Gold.Version>
5.8.1

> <Gold.Id.Protein>
6NUR|6NUR_protein|mol2

> <Gold.PLP.Fitness>
45.8469

> <Gold.PLP.PLP>
-40.5429

> <Gold.PLP.part.hbond>
-4.2787

> <Gold.PLP.part.metal>
0.0000

> <Gold.PLP.part.buried>
-0.9395

> <Gold.PLP.part.nonpolar>
-35.7526

> <Gold.PLP.part.repulsive>
0.1006

> <Gold.PLP.ligand.clash>
4.7262

> <Gold.PLP.ligand.torsion>
1.1792

> <Gold.PLP.Chemscore.Hbond>
3.6280

> <Gold.PLP.Chemscore.CHOScore>
0.0000

> <Gold.PLP.Chemscore.Metal>
0.0000

> <Gold.Chemscore.Hbonds>
donor molecule, donor type, donor heavy atom, donor atom, acceptor molecule, acceptor atom, score
      L1  H     3    64       P1 10747  0.63
      L1  H    21    50       P1  7957  1.00
      P1  H  7997  8010       L1    25  1.00
      P1  H  8011  8017       L1    21  0.55

> <Gold.PLP.Chemscore.Internal.Correction>
1.5047

> <Gold.Rescore>
     Score         DG    S(hbond)    S(metal)    S(lipo)     H(rot)  DE(clash)    DE(int)     intcor
     16.26     -19.92       2.93        0.00     103.34       2.90       0.17       3.49       ----

> <Gold.Chemscore.Fitness>
16.2590

> <Gold.Chemscore.DG>
-19.9194

> <Gold.Chemscore.ZeroCoef>
-5.4800

> <Gold.Chemscore.Hbond>
2.9264

> <Gold.Chemscore.Metal>
0.0000

> <Gold.Chemscore.Lipo>
103.3408

> <Gold.Chemscore.Internal_Hbond>
0.0000

> <Gold.Chemscore.DEClash>
0.1697

> <Gold.Chemscore.DEInternal>
3.4907

> <Gold.Chemscore.Rot>
2.9006

> <Gold.Chemscore.Internal.Correction>
   9.000000E+99

> <Gold.Chemscore.Hbonds>
donor molecule, donor type, donor heavy atom, donor atom, acceptor molecule, acceptor atom, score
      L1  H     3    64       P1 10747  0.62
      L1  H    21    50       P1  7957  0.94
      P1  H  7997  8010       L1    25  0.85
      P1  H  8011  8017       L1    21  0.03

> <Gold.Chemscore.Hbond.Weighted>
-9.7741

> <Gold.Chemscore.Metal.Weighted>
-0.0000

> <Gold.Chemscore.Lipo.Weighted>
-12.0909

> <Gold.Chemscore.Internal_Hbond.Weighted>
0.0000

> <Gold.Chemscore.DEClash.Weighted>
0.1697

> <Gold.Chemscore.DEInternal.Weighted>
3.4907

> <Gold.Chemscore.Rot.Weighted>
7.4256

> <Gold.Chemscore.Internal.Correction.Weighted>
   9.000000E+99

> <Gold.Protein.RotatedTorsions>
[ 6907 6896 6895 6894 ] final  -22.57 input  -60.11 | X-H torsion
[ 7974 7965 7964 7962 ] final  153.05 input  175.53 | X-H torsion
[ 8008 7997 7996 7995 ] final   97.00 input   59.86 | X-H torsion
[ 10167 10162 10161 10158 ] final  159.55 input  -65.29 | X-H torsion
[ 10718 10713 10712 10709 ] final   55.45 input   66.30 | X-H torsion
[ 10763 10752 10751 10750 ] final -153.63 input  -60.55 | X-H torsion
[ 11005 11000 10999 10996 ] final  -88.27 input  -57.11 | X-H torsion

> <Gold.Protein.ActiveResidues>
 VAL166  LYS551  ARG553  GLY616  TRP617  ASP618  TYR619  PRO620  LYS621  CYS622 
 ASP623  PHE694  ASN695  SER759  ASP760  ASP761  ALA762  ILE779  LEU786  VAL792 
 PHE793  MET794  SER795  GLU796  ALA797  LYS798  CYS799  TRP800  GLU811  SER814 

> <Gold.Protein.RotatedAtoms>
  151.2167  135.0502  159.8932 H   0  0  0  0  0  0  0  0  0  0  0  0  # atno 6907 bound_to 6896
  152.5419  134.0685  159.8194 H   0  0  0  0  0  0  0  0  0  0  0  0  # atno 6908 bound_to 6896
  151.0846  133.5315  159.2650 H   0  0  0  0  0  0  0  0  0  0  0  0  # atno 6909 bound_to 6896
  144.8181  139.6749  143.6112 H   0  0  0  0  0  0  0  0  0  0  0  0  # atno 7974 bound_to 7965
  156.0856  140.3264  155.7749 H   0  0  0  0  0  0  0  0  0  0  0  0  # atno 8008 bound_to 7997
  155.5081  140.0575  157.2945 H   0  0  0  0  0  0  0  0  0  0  0  0  # atno 8009 bound_to 7997
  154.4607  140.1965  156.0269 H   0  0  0  0  0  0  0  0  0  0  0  0  # atno 8010 bound_to 7997
  139.4833  144.4720  151.8564 H   0  0  0  0  0  0  0  0  0  0  0  0  # atno 10167 bound_to 10162
  157.5345  130.8654  149.8734 H   0  0  0  0  0  0  0  0  0  0  0  0  # atno 10718 bound_to 10713
  154.7914  135.3208  154.7767 H   0  0  0  0  0  0  0  0  0  0  0  0  # atno 10763 bound_to 10752
  153.8455  135.6867  153.4802 H   0  0  0  0  0  0  0  0  0  0  0  0  # atno 10764 bound_to 10752
  153.1586  135.4670  154.9681 H   0  0  0  0  0  0  0  0  0  0  0  0  # atno 10765 bound_to 10752
  141.1604  133.7560  156.9427 H   0  0  0  0  0  0  0  0  0  0  0  0  # atno 11005 bound_to 11000
  146.2485  139.6149  142.9443 LP  0  0  0  0  0  0  0  0  0  0  0  0  # atno 17320 bound_to 7965
  145.5168  141.0433  143.2457 LP  0  0  0  0  0  0  0  0  0  0  0  0  # atno 17321 bound_to 7965
  140.4189  144.2270  150.5887 LP  0  0  0  0  0  0  0  0  0  0  0  0  # atno 17342 bound_to 10162
  140.4893  143.2352  151.8842 LP  0  0  0  0  0  0  0  0  0  0  0  0  # atno 17343 bound_to 10162
  156.0448  130.3730  150.1344 LP  0  0  0  0  0  0  0  0  0  0  0  0  # atno 17370 bound_to 10713
  156.9527  130.9780  151.3495 LP  0  0  0  0  0  0  0  0  0  0  0  0  # atno 17371 bound_to 10713
  140.1310  134.9355  157.2337 LP  0  0  0  0  0  0  0  0  0  0  0  0  # atno 17394 bound_to 11000
  140.2952  134.3194  155.7304 LP  0  0  0  0  0  0  0  0  0  0  0  0  # atno 17395 bound_to 11000

$$$$
