AV-unprocessed.smi:1824|AV-procd|sdf|7399|dock4
  -GOLD-   22720 9 73D 1   1.00000     0.00000
 Structure written by MMmdl.
 45 47  0  0  0  0  0  0  0  0  2 V2000
  150.4683  135.6731  154.0712 C   0  0  0  0  0  0  0  0  0  0  0  0
  150.7880  136.7245  155.1396 C   0  0  2  0  0  0  0  0  0  0  0  0
  150.3292  138.1324  154.7196 C   0  0  0  0  0  0  0  0  0  0  0  0
  150.7324  139.1320  155.7353 N   0  3  2  0  0  0  0  0  0  0  0  0
  150.2140  140.4914  155.4363 C   0  0  0  0  0  0  0  0  0  0  0  0
  150.1143  141.3760  156.6948 C   0  0  2  0  0  0  0  0  0  0  0  0
  149.2144  142.4373  156.4356 O   0  0  0  0  0  0  0  0  0  0  0  0
  151.4863  141.9513  157.0965 C   0  0  0  0  0  0  0  0  0  0  0  0
  151.4530  142.6308  158.3797 N   0  0  0  0  0  0  0  0  0  0  0  0
  150.7179  143.7117  158.7050 C   0  0  0  0  0  0  0  0  0  0  0  0
  150.8367  144.1793  159.9443 N   0  0  0  0  0  0  0  0  0  0  0  0
  151.7551  143.2984  160.4892 C   0  0  0  0  0  0  0  0  0  0  0  0
  152.3138  143.2412  161.7861 C   0  0  0  0  0  0  0  0  0  0  0  0
  153.2464  142.2368  162.1196 C   0  0  0  0  0  0  0  0  0  0  0  0
  153.7711  142.1957  163.3673 F   0  0  0  0  0  0  0  0  0  0  0  0
  153.6346  141.2763  161.1617 C   0  0  0  0  0  0  0  0  0  0  0  0
  154.5303  140.3150  161.4894 F   0  0  0  0  0  0  0  0  0  0  0  0
  153.0921  141.3136  159.8629 C   0  0  0  0  0  0  0  0  0  0  0  0
  152.1608  142.3165  159.5353 C   0  0  0  0  0  0  0  0  0  0  0  0
  152.2004  139.0876  155.9459 C   0  0  0  0  0  0  0  0  0  0  0  0
  152.6640  137.6649  156.3152 C   0  0  1  0  0  0  0  0  0  0  0  0
  152.2951  137.2519  157.7512 C   0  0  0  0  0  0  0  0  0  0  0  0
  152.1986  136.7271  155.3444 O   0  0  0  0  0  0  0  0  0  0  0  0
  149.3961  135.6186  153.8806 H   0  0  0  0  0  0  0  0  0  0  0  0
  150.7994  134.6836  154.3876 H   0  0  0  0  0  0  0  0  0  0  0  0
  150.9649  135.9035  153.1279 H   0  0  0  0  0  0  0  0  0  0  0  0
  150.2822  136.4336  156.0606 H   0  0  0  0  0  0  0  0  0  0  0  0
  150.7580  138.4015  153.7528 H   0  0  0  0  0  0  0  0  0  0  0  0
  149.2446  138.1415  154.6032 H   0  0  0  0  0  0  0  0  0  0  0  0
  150.8517  140.9613  154.6859 H   0  0  0  0  0  0  0  0  0  0  0  0
  149.2225  140.4170  154.9868 H   0  0  0  0  0  0  0  0  0  0  0  0
  149.7240  140.7998  157.5333 H   0  0  0  0  0  0  0  0  0  0  0  0
  149.6625  143.2575  156.5776 H   0  0  0  0  0  0  0  0  0  0  0  0
  152.2260  141.1518  157.1549 H   0  0  0  0  0  0  0  0  0  0  0  0
  151.8454  142.6503  156.3400 H   0  0  0  0  0  0  0  0  0  0  0  0
  150.0585  144.1830  157.9907 H   0  0  0  0  0  0  0  0  0  0  0  0
  152.0248  143.9713  162.5275 H   0  0  0  0  0  0  0  0  0  0  0  0
  153.3895  140.5796  159.1294 H   0  0  0  0  0  0  0  0  0  0  0  0
  152.7004  139.4067  155.0301 H   0  0  0  0  0  0  0  0  0  0  0  0
  152.5043  139.7843  156.7264 H   0  0  0  0  0  0  0  0  0  0  0  0
  153.7527  137.6456  156.2536 H   0  0  0  0  0  0  0  0  0  0  0  0
  152.7715  137.9117  158.4769 H   0  0  0  0  0  0  0  0  0  0  0  0
  152.6308  136.2361  157.9614 H   0  0  0  0  0  0  0  0  0  0  0  0
  151.2216  137.2944  157.9333 H   0  0  0  0  0  0  0  0  0  0  0  0
  150.2979  138.8470  156.6018 H   0  0  0  0  0  0  0  0  0  0  0  0
  1  2  1  0  0  0  0
  1 24  1  0  0  0  0
  1 25  1  0  0  0  0
  1 26  1  0  0  0  0
  2 23  1  0  0  0  0
  2  3  1  0  0  0  0
  2 27  1  0  0  0  0
  3  4  1  0  0  0  0
  3 28  1  0  0  0  0
  3 29  1  0  0  0  0
  4  5  1  0  0  0  0
  4 20  1  0  0  0  0
  4 45  1  0  0  0  0
  5  6  1  0  0  0  0
  5 30  1  0  0  0  0
  5 31  1  0  0  0  0
  6  7  1  0  0  0  0
  6  8  1  0  0  0  0
  6 32  1  0  0  0  0
  7 33  1  0  0  0  0
  8  9  1  0  0  0  0
  8 34  1  0  0  0  0
  8 35  1  0  0  0  0
  9 19  1  0  0  0  0
  9 10  1  0  0  0  0
 10 11  2  0  0  0  0
 10 36  1  0  0  0  0
 11 12  1  0  0  0  0
 12 19  2  0  0  0  0
 12 13  1  0  0  0  0
 13 14  2  0  0  0  0
 13 37  1  0  0  0  0
 14 15  1  0  0  0  0
 14 16  1  0  0  0  0
 16 17  1  0  0  0  0
 16 18  2  0  0  0  0
 18 19  1  0  0  0  0
 18 38  1  0  0  0  0
 20 21  1  0  0  0  0
 20 39  1  0  0  0  0
 20 40  1  0  0  0  0
 21 22  1  0  0  0  0
 21 23  1  0  0  0  0
 21 41  1  0  0  0  0
 22 42  1  0  0  0  0
 22 43  1  0  0  0  0
 22 44  1  0  0  0  0
M  CHG  1   4   1
M  END
> <s_m_source_file>
AV-unprocessed.smi

> <i_m_source_file_index>
1824

> <i_lp_mmshare_version>
43012

> <i_f3d_flags>
0

> <s_epik_input>
W0NIM11bQ0BASF0xW0NIMl1OKFtDSDJdW0NASF0oTzEpW0NIM10pW0NIMl1bQ0BIXShbT0hdKVtDSDJdbihbY0hdbjIpYyhjMjMpW2NIXWMoRiljKEYpW2NIXTM=

> <s_epik_cmdline>
J2VwaWtfcHl0aG9uJywgJy1waCcsICc3LjAnLCAnLXRuJywgJzgnLCAnLW1hJywgJzIwMCcsICctbWV0YWxfYmluZGluZycsICctaW1hZScsICc8aW5maWxlLm1hZT4nLCAnLW9tYWUnLCAnPG91dGZpbGUubWFlPic=

> <r_epik_Ionization_Penalty>
0.61967

> <r_epik_Ionization_Penalty_Charging>
0.608065

> <r_epik_Ionization_Penalty_Neutral>
0.0116057

> <r_epik_State_Penalty>
0.664205

> <r_epik_Charging_Adjusted_Penalty>
1.27227

> <i_epik_Tot_Q>
1

> <i_epik_Tot_abs_Q>
1

> <r_epik_Metal_State_Penalty>
0.654947

> <b_epik_Metal_Only>
0

> <s_lp_Force_Field>
OPLS_2005

> <r_lp_Energy>
23.0723

> <b_lp_Chiralities_Consistent>
1

> <s_lp_Variant>
AV-unprocessed.smi:1824-7

> <Gold.Version>
5.8.1

> <Gold.Id.Protein>
6NUR|6NUR_protein|mol2

> <Gold.PLP.Fitness>
55.8626

> <Gold.PLP.PLP>
-49.3038

> <Gold.PLP.part.hbond>
-1.5602

> <Gold.PLP.part.metal>
0.0000

> <Gold.PLP.part.buried>
-7.1404

> <Gold.PLP.part.nonpolar>
-40.6875

> <Gold.PLP.part.repulsive>
0.1962

> <Gold.PLP.ligand.clash>
0.0000

> <Gold.PLP.ligand.torsion>
0.4060

> <Gold.PLP.Chemscore.Hbond>
1.3680

> <Gold.PLP.Chemscore.CHOScore>
1.0758

> <Gold.PLP.Chemscore.Metal>
0.0000

> <Gold.Chemscore.Hbonds>
donor molecule, donor type, donor heavy atom, donor atom, acceptor molecule, acceptor atom, score
      L1  H     7    33       P1  8028  0.29
      P1  H 10752 10763       L1    23  0.69
      L1  C    10    36       P1  8028  0.74
      L1  C    10    36       P1  8029  0.07

> <Gold.PLP.Chemscore.Internal.Correction>
0.0394

> <Gold.Rescore>
     Score         DG    S(hbond)    S(metal)    S(lipo)     H(rot)  DE(clash)    DE(int)     intcor
     16.90     -17.93       1.64        0.00     110.37       2.33       0.03       1.00       ----

> <Gold.Chemscore.Fitness>
16.9031

> <Gold.Chemscore.DG>
-17.9308

> <Gold.Chemscore.ZeroCoef>
-5.4800

> <Gold.Chemscore.Hbond>
1.6438

> <Gold.Chemscore.Metal>
0.0000

> <Gold.Chemscore.Lipo>
110.3656

> <Gold.Chemscore.Internal_Hbond>
0.0000

> <Gold.Chemscore.DEClash>
0.0319

> <Gold.Chemscore.DEInternal>
0.9959

> <Gold.Chemscore.Rot>
2.3251

> <Gold.Chemscore.Internal.Correction>
   9.000000E+99

> <Gold.Chemscore.Hbonds>
donor molecule, donor type, donor heavy atom, donor atom, acceptor molecule, acceptor atom, score
      L1  H     7    33       P1  8028  0.28
      P1  H 10752 10763       L1    23  0.61

> <Gold.Chemscore.Hbond.Weighted>
-5.4904

> <Gold.Chemscore.Metal.Weighted>
-0.0000

> <Gold.Chemscore.Lipo.Weighted>
-12.9128

> <Gold.Chemscore.Internal_Hbond.Weighted>
0.0000

> <Gold.Chemscore.DEClash.Weighted>
0.0319

> <Gold.Chemscore.DEInternal.Weighted>
0.9959

> <Gold.Chemscore.Rot.Weighted>
5.9523

> <Gold.Chemscore.Internal.Correction.Weighted>
   9.000000E+99

> <Gold.Protein.RotatedTorsions>
[ 6907 6896 6895 6894 ] final -138.25 input  -60.11 | X-H torsion
[ 7974 7965 7964 7962 ] final  -25.45 input  175.53 | X-H torsion
[ 8008 7997 7996 7995 ] final   69.37 input   59.86 | X-H torsion
[ 10167 10162 10161 10158 ] final  105.66 input  -65.29 | X-H torsion
[ 10718 10713 10712 10709 ] final  -34.44 input   66.30 | X-H torsion
[ 10763 10752 10751 10750 ] final   95.49 input  -60.55 | X-H torsion
[ 11005 11000 10999 10996 ] final -157.44 input  -57.11 | X-H torsion

> <Gold.Protein.ActiveResidues>
 VAL166  LYS551  ARG553  GLY616  TRP617  ASP618  TYR619  PRO620  LYS621  CYS622 
 ASP623  PHE694  ASN695  SER759  ASP760  ASP761  ALA762  ILE779  LEU786  VAL792 
 PHE793  MET794  SER795  GLU796  ALA797  LYS798  CYS799  TRP800  GLU811  SER814 

> <Gold.Protein.RotatedAtoms>
  151.0327  133.5776  159.2658 H   0  0  0  0  0  0  0  0  0  0  0  0  # atno 6907 bound_to 6896
  151.2851  135.0724  159.9193 H   0  0  0  0  0  0  0  0  0  0  0  0  # atno 6908 bound_to 6896
  152.5348  134.0035  159.7959 H   0  0  0  0  0  0  0  0  0  0  0  0  # atno 6909 bound_to 6896
  146.1490  140.4888  142.8619 H   0  0  0  0  0  0  0  0  0  0  0  0  # atno 7974 bound_to 7965
  155.7226  140.3493  155.5023 H   0  0  0  0  0  0  0  0  0  0  0  0  # atno 8008 bound_to 7997
  155.9255  140.1075  157.1195 H   0  0  0  0  0  0  0  0  0  0  0  0  # atno 8009 bound_to 7997
  154.4076  140.1241  156.4722 H   0  0  0  0  0  0  0  0  0  0  0  0  # atno 8010 bound_to 7997
  139.7074  144.7084  151.1084 H   0  0  0  0  0  0  0  0  0  0  0  0  # atno 10167 bound_to 10162
  156.3506  130.4308  149.7708 H   0  0  0  0  0  0  0  0  0  0  0  0  # atno 10718 bound_to 10713
  153.2538  135.4252  155.0825 H   0  0  0  0  0  0  0  0  0  0  0  0  # atno 10763 bound_to 10752
  154.8393  135.3432  154.6474 H   0  0  0  0  0  0  0  0  0  0  0  0  # atno 10764 bound_to 10752
  153.6895  135.7034  153.5151 H   0  0  0  0  0  0  0  0  0  0  0  0  # atno 10765 bound_to 10752
  140.6646  134.4313  157.5233 H   0  0  0  0  0  0  0  0  0  0  0  0  # atno 11005 bound_to 11000
  144.7881  140.5976  143.6560 LP  0  0  0  0  0  0  0  0  0  0  0  0  # atno 17320 bound_to 7965
  145.4869  139.1491  143.3731 LP  0  0  0  0  0  0  0  0  0  0  0  0  # atno 17321 bound_to 7965
  140.7725  143.5340  150.9390 LP  0  0  0  0  0  0  0  0  0  0  0  0  # atno 17342 bound_to 10162
  139.9023  143.6820  152.3129 LP  0  0  0  0  0  0  0  0  0  0  0  0  # atno 17343 bound_to 10162
  156.4910  130.8085  151.3094 LP  0  0  0  0  0  0  0  0  0  0  0  0  # atno 17370 bound_to 10713
  157.7460  130.9975  150.2820 LP  0  0  0  0  0  0  0  0  0  0  0  0  # atno 17371 bound_to 10713
  139.9001  134.8575  156.1931 LP  0  0  0  0  0  0  0  0  0  0  0  0  # atno 17394 bound_to 11000
  141.0439  133.6923  156.1648 LP  0  0  0  0  0  0  0  0  0  0  0  0  # atno 17395 bound_to 11000

$$$$
