AV-unprocessed.smi:199|AV-procd|sdf|1570|dock3
  -GOLD-   2262019453D 1   1.00000     0.00000
 Structure written by MMmdl.
 51 55  0  0  0  0  0  0  0  0  1 V2000
  149.6159  138.8655  153.5684 C   0  0  0  0  0  0  0  0  0  0  0  0
  150.3894  138.6316  154.8763 C   0  0  2  0  0  0  0  0  0  0  0  0
  151.4782  139.5477  154.9863 O   0  0  0  0  0  0  0  0  0  0  0  0
  152.7020  138.8380  155.1104 C   0  0  0  0  0  0  0  0  0  0  0  0
  152.3046  137.5206  155.7622 C   0  0  0  0  0  0  0  0  0  0  0  0
  150.9702  137.2139  155.0962 C   0  0  2  0  0  0  0  0  0  0  0  0
  151.2292  136.5748  153.8562 O   0  0  0  0  0  0  0  0  0  0  0  0
  150.0424  136.3001  155.9322 C   0  0  0  0  0  0  0  0  0  0  0  0
  148.9250  135.7592  155.1734 N   0  0  0  0  0  0  0  0  0  0  0  0
  147.7171  136.3744  154.9391 C   0  0  0  0  0  0  0  0  0  0  0  0
  146.8707  135.6817  154.2286 N   0  0  0  0  0  0  0  0  0  0  0  0
  147.5464  134.5024  153.9347 C   0  0  0  0  0  0  0  0  0  0  0  0
  147.2271  133.3204  153.2024 C   0  0  0  0  0  0  0  0  0  0  0  0
  146.0420  133.1076  152.5646 N   0  0  0  0  0  0  0  0  0  0  0  0
  144.9704  134.0915  152.6300 C   0  0  1  0  0  0  0  0  0  0  0  0
  145.4553  135.2310  151.7124 C   0  0  0  0  0  0  0  0  0  0  0  0
  146.2058  134.4418  150.6290 C   0  0  0  0  0  0  0  0  0  0  0  0
  145.9973  132.9875  151.1124 C   0  0  2  0  0  0  0  0  0  0  0  0
  144.5418  132.5157  150.8919 C   0  0  2  0  0  0  0  0  0  0  0  0
  143.9709  132.6137  149.4646 C   0  0  0  0  0  0  0  0  0  0  0  0
  143.6357  133.9507  149.1604 O   0  0  0  0  0  0  0  0  0  0  0  0
  143.8016  133.3629  151.9416 C   0  0  0  0  0  0  0  0  0  0  0  0
  148.1692  132.3401  153.1689 N   0  0  0  0  0  0  0  0  0  0  0  0
  149.3477  132.5064  153.7746 C   0  0  0  0  0  0  0  0  0  0  0  0
  149.7859  133.5560  154.4698 N   0  0  0  0  0  0  0  0  0  0  0  0
  148.8413  134.5368  154.5299 C   0  0  0  0  0  0  0  0  0  0  0  0
  148.7915  138.1591  153.4679 H   0  0  0  0  0  0  0  0  0  0  0  0
  150.2607  138.7606  152.6953 H   0  0  0  0  0  0  0  0  0  0  0  0
  149.1960  139.8711  153.5444 H   0  0  0  0  0  0  0  0  0  0  0  0
  149.7255  138.8735  155.7072 H   0  0  0  0  0  0  0  0  0  0  0  0
  153.1190  138.6669  154.1171 H   0  0  0  0  0  0  0  0  0  0  0  0
  153.4324  139.3959  155.6964 H   0  0  0  0  0  0  0  0  0  0  0  0
  153.0524  136.7364  155.6347 H   0  0  0  0  0  0  0  0  0  0  0  0
  152.1641  137.6794  156.8322 H   0  0  0  0  0  0  0  0  0  0  0  0
  150.4995  136.7341  153.2771 H   0  0  0  0  0  0  0  0  0  0  0  0
  150.6080  135.4580  156.3332 H   0  0  0  0  0  0  0  0  0  0  0  0
  149.6504  136.8409  156.7949 H   0  0  0  0  0  0  0  0  0  0  0  0
  147.4793  137.3575  155.3188 H   0  0  0  0  0  0  0  0  0  0  0  0
  144.6962  134.4309  153.6269 H   0  0  0  0  0  0  0  0  0  0  0  0
  144.6356  135.8281  151.3115 H   0  0  0  0  0  0  0  0  0  0  0  0
  146.1345  135.9001  152.2424 H   0  0  0  0  0  0  0  0  0  0  0  0
  145.8380  134.6316  149.6221 H   0  0  0  0  0  0  0  0  0  0  0  0
  147.2645  134.7039  150.6384 H   0  0  0  0  0  0  0  0  0  0  0  0
  146.7210  132.2873  150.6931 H   0  0  0  0  0  0  0  0  0  0  0  0
  144.4824  131.4703  151.2017 H   0  0  0  0  0  0  0  0  0  0  0  0
  144.7183  132.2763  148.7457 H   0  0  0  0  0  0  0  0  0  0  0  0
  143.0991  131.9757  149.3254 H   0  0  0  0  0  0  0  0  0  0  0  0
  142.7277  134.0910  149.3822 H   0  0  0  0  0  0  0  0  0  0  0  0
  143.2710  132.7202  152.6454 H   0  0  0  0  0  0  0  0  0  0  0  0
  143.0781  134.0554  151.5090 H   0  0  0  0  0  0  0  0  0  0  0  0
  150.0376  131.6796  153.6899 H   0  0  0  0  0  0  0  0  0  0  0  0
  1  2  1  0  0  0  0
  1 27  1  0  0  0  0
  1 28  1  0  0  0  0
  1 29  1  0  0  0  0
  2  6  1  0  0  0  0
  2  3  1  0  0  0  0
  2 30  1  0  0  0  0
  3  4  1  0  0  0  0
  4  5  1  0  0  0  0
  4 31  1  0  0  0  0
  4 32  1  0  0  0  0
  5  6  1  0  0  0  0
  5 33  1  0  0  0  0
  5 34  1  0  0  0  0
  6  7  1  0  0  0  0
  6  8  1  0  0  0  0
  7 35  1  0  0  0  0
  8  9  1  0  0  0  0
  8 36  1  0  0  0  0
  8 37  1  0  0  0  0
  9 26  1  0  0  0  0
  9 10  1  0  0  0  0
 10 11  2  0  0  0  0
 10 38  1  0  0  0  0
 11 12  1  0  0  0  0
 12 26  2  0  0  0  0
 12 13  1  0  0  0  0
 13 14  1  0  0  0  0
 13 23  2  0  0  0  0
 14 18  1  0  0  0  0
 14 15  1  0  0  0  0
 15 22  1  0  0  0  0
 15 16  1  0  0  0  0
 15 39  1  0  0  0  0
 16 17  1  0  0  0  0
 16 40  1  0  0  0  0
 16 41  1  0  0  0  0
 17 18  1  0  0  0  0
 17 42  1  0  0  0  0
 17 43  1  0  0  0  0
 18 19  1  0  0  0  0
 18 44  1  0  0  0  0
 19 20  1  0  0  0  0
 19 22  1  0  0  0  0
 19 45  1  0  0  0  0
 20 21  1  0  0  0  0
 20 46  1  0  0  0  0
 20 47  1  0  0  0  0
 21 48  1  0  0  0  0
 22 49  1  0  0  0  0
 22 50  1  0  0  0  0
 23 24  1  0  0  0  0
 24 25  2  0  0  0  0
 24 51  1  0  0  0  0
 25 26  1  0  0  0  0
M  END
> <s_m_source_file>
AV-unprocessed.smi

> <i_m_source_file_index>
199

> <i_lp_mmshare_version>
43012

> <i_f3d_flags>
0

> <s_epik_input>
W0NIMl0xW0NIMl1PW0NAQEhdKFtDSDNdKVtDQEBdMShbT0hdKVtDSDJdbihbY0hdbjIpYyhjMjMpbltjSF1uYzNOKFtDQEBIXTQ1KVtDQEhdKFtDSDJdW0NIMl00KVtDQEhdKFtDSDJdNSlbQ0gyXVtPSF0=

> <s_epik_cmdline>
J2VwaWtfcHl0aG9uJywgJy1waCcsICc3LjAnLCAnLXRuJywgJzgnLCAnLW1hJywgJzIwMCcsICctbWV0YWxfYmluZGluZycsICctaW1hZScsICc8aW5maWxlLm1hZT4nLCAnLW9tYWUnLCAnPG91dGZpbGUubWFlPic=

> <r_lp_tautomer_probability>
1

> <r_epik_Ionization_Penalty>
0.00583903

> <r_epik_Ionization_Penalty_Charging>
0

> <r_epik_Ionization_Penalty_Neutral>
0.00583903

> <r_epik_State_Penalty>
-0

> <r_epik_Charging_Adjusted_Penalty>
0

> <i_epik_Tot_Q>
0

> <i_epik_Tot_abs_Q>
0

> <r_epik_Metal_State_Penalty>
-0

> <b_epik_Metal_Only>
0

> <s_lp_Force_Field>
OPLS_2005

> <r_lp_Energy>
84.2729

> <b_lp_Chiralities_Consistent>
1

> <s_lp_Variant>
AV-unprocessed.smi:199-11

> <Gold.Version>
5.8.1

> <Gold.Id.Protein>
6NUR|6NUR_protein|mol2

> <Gold.PLP.Fitness>
44.3777

> <Gold.PLP.PLP>
-36.0518

> <Gold.PLP.part.hbond>
-5.8035

> <Gold.PLP.part.metal>
0.0000

> <Gold.PLP.part.buried>
-1.5614

> <Gold.PLP.part.nonpolar>
-29.3603

> <Gold.PLP.part.repulsive>
0.4380

> <Gold.PLP.ligand.clash>
0.0000

> <Gold.PLP.ligand.torsion>
0.7082

> <Gold.PLP.Chemscore.Hbond>
3.2318

> <Gold.PLP.Chemscore.CHOScore>
0.0000

> <Gold.PLP.Chemscore.Metal>
0.0000

> <Gold.Chemscore.Hbonds>
donor molecule, donor type, donor heavy atom, donor atom, acceptor molecule, acceptor atom, score
      L1  H     7    35       P1  7948  0.17
      L1  H    21    48       P1 10186  1.00
      P1  H  7989  7998       L1     3  1.00
      P1  H 10752 10765       L1     7  1.00

> <Gold.PLP.Chemscore.Internal.Correction>
0.0472

> <Gold.Rescore>
     Score         DG    S(hbond)    S(metal)    S(lipo)     H(rot)  DE(clash)    DE(int)     intcor
     13.03     -17.48       2.89        0.00      87.46       3.07       2.46       1.99       ----

> <Gold.Chemscore.Fitness>
13.0308

> <Gold.Chemscore.DG>
-17.4827

> <Gold.Chemscore.ZeroCoef>
-5.4800

> <Gold.Chemscore.Hbond>
2.8852

> <Gold.Chemscore.Metal>
0.0000

> <Gold.Chemscore.Lipo>
87.4593

> <Gold.Chemscore.Internal_Hbond>
0.0000

> <Gold.Chemscore.DEClash>
2.4616

> <Gold.Chemscore.DEInternal>
1.9903

> <Gold.Chemscore.Rot>
3.0729

> <Gold.Chemscore.Internal.Correction>
   9.000000E+99

> <Gold.Chemscore.Hbonds>
donor molecule, donor type, donor heavy atom, donor atom, acceptor molecule, acceptor atom, score
      L1  H    21    48       P1 10186  1.00
      P1  H  7989  7998       L1     3  0.58
      P1  H 10752 10765       L1     7  0.44

> <Gold.Chemscore.Hbond.Weighted>
-9.6367

> <Gold.Chemscore.Metal.Weighted>
-0.0000

> <Gold.Chemscore.Lipo.Weighted>
-10.2327

> <Gold.Chemscore.Internal_Hbond.Weighted>
0.0000

> <Gold.Chemscore.DEClash.Weighted>
2.4616

> <Gold.Chemscore.DEInternal.Weighted>
1.9903

> <Gold.Chemscore.Rot.Weighted>
7.8667

> <Gold.Chemscore.Internal.Correction.Weighted>
   9.000000E+99

> <Gold.Protein.RotatedTorsions>
[ 6907 6896 6895 6894 ] final  144.40 input  -60.11 | X-H torsion
[ 7974 7965 7964 7962 ] final    6.74 input  175.53 | X-H torsion
[ 8008 7997 7996 7995 ] final  114.26 input   59.86 | X-H torsion
[ 10167 10162 10161 10158 ] final   -1.54 input  -65.29 | X-H torsion
[ 10718 10713 10712 10709 ] final   35.92 input   66.30 | X-H torsion
[ 10763 10752 10751 10750 ] final  152.77 input  -60.55 | X-H torsion
[ 11005 11000 10999 10996 ] final   86.63 input  -57.11 | X-H torsion

> <Gold.Protein.ActiveResidues>
 VAL166  LYS551  ARG553  GLY616  TRP617  ASP618  TYR619  PRO620  LYS621  CYS622 
 ASP623  PHE694  ASN695  SER759  ASP760  ASP761  ALA762  ILE779  LEU786  VAL792 
 PHE793  MET794  SER795  GLU796  ALA797  LYS798  CYS799  TRP800  GLU811  SER814 

> <Gold.Protein.RotatedAtoms>
  152.1942  133.4794  159.5023 H   0  0  0  0  0  0  0  0  0  0  0  0  # atno 6907 bound_to 6896
  150.6957  134.1674  159.4208 H   0  0  0  0  0  0  0  0  0  0  0  0  # atno 6908 bound_to 6896
  151.9590  135.0133  160.0597 H   0  0  0  0  0  0  0  0  0  0  0  0  # atno 6909 bound_to 6896
  146.2432  140.0189  142.8400 H   0  0  0  0  0  0  0  0  0  0  0  0  # atno 7974 bound_to 7965
  156.2310  140.2963  156.0188 H   0  0  0  0  0  0  0  0  0  0  0  0  # atno 8008 bound_to 7997
  155.2225  140.0416  157.2967 H   0  0  0  0  0  0  0  0  0  0  0  0  # atno 8009 bound_to 7997
  154.5996  140.2423  155.7818 H   0  0  0  0  0  0  0  0  0  0  0  0  # atno 8010 bound_to 7997
  140.6814  143.6763  150.8142 H   0  0  0  0  0  0  0  0  0  0  0  0  # atno 10167 bound_to 10162
  157.3286  130.7485  149.6832 H   0  0  0  0  0  0  0  0  0  0  0  0  # atno 10718 bound_to 10713
  154.1253  135.2830  155.3198 H   0  0  0  0  0  0  0  0  0  0  0  0  # atno 10763 bound_to 10752
  154.6394  135.5408  153.7775 H   0  0  0  0  0  0  0  0  0  0  0  0  # atno 10764 bound_to 10752
  153.0299  135.6482  154.1406 H   0  0  0  0  0  0  0  0  0  0  0  0  # atno 10765 bound_to 10752
  139.8940  134.8368  156.2747 H   0  0  0  0  0  0  0  0  0  0  0  0  # atno 11005 bound_to 11000
  145.1259  140.9490  143.4573 LP  0  0  0  0  0  0  0  0  0  0  0  0  # atno 17320 bound_to 7965
  145.0435  139.3240  143.5965 LP  0  0  0  0  0  0  0  0  0  0  0  0  # atno 17321 bound_to 7965
  140.0464  143.5294  152.2694 LP  0  0  0  0  0  0  0  0  0  0  0  0  # atno 17342 bound_to 10162
  139.6140  144.7615  151.2888 LP  0  0  0  0  0  0  0  0  0  0  0  0  # atno 17343 bound_to 10162
  155.9693  130.4202  150.4411 LP  0  0  0  0  0  0  0  0  0  0  0  0  # atno 17370 bound_to 10713
  157.2439  131.0531  151.2420 LP  0  0  0  0  0  0  0  0  0  0  0  0  # atno 17371 bound_to 10713
  141.0078  133.7113  156.1062 LP  0  0  0  0  0  0  0  0  0  0  0  0  # atno 17394 bound_to 11000
  140.7410  134.4150  157.5555 LP  0  0  0  0  0  0  0  0  0  0  0  0  # atno 17395 bound_to 11000

$$$$
