AV-unprocessed.smi:2062|AV-procd|sdf|8405|dock3
  -GOLD-   2272011 93D 1   1.00000     0.00000
 Structure written by MMmdl.
 42 43  0  0  0  0  0  0  0  0  3 V2000
  152.9531  142.5439  159.7432 C   0  0  0  0  0  0  0  0  0  0  0  0
  152.1109  143.2275  158.6529 C   0  0  0  0  0  0  0  0  0  0  0  0
  151.8028  144.6799  159.0461 C   0  0  0  0  0  0  0  0  0  0  0  0
  150.8054  142.4548  158.3645 C   0  0  0  0  0  0  0  0  0  0  0  0
  151.0376  141.1496  157.6946 N   0  3  2  0  0  0  0  0  0  0  0  0
  151.5803  141.2718  156.3190 C   0  0  0  0  0  0  0  0  0  0  0  0
  151.8328  139.8794  155.7186 C   0  0  0  0  0  0  0  0  0  0  0  0
  150.6275  139.1272  155.7443 O   0  0  0  0  0  0  0  0  0  0  0  0
  150.1493  138.9161  157.0692 C   0  0  2  0  0  0  0  0  0  0  0  0
  148.9111  138.0125  156.9980 C   0  0  0  0  0  0  0  0  0  0  0  0
  148.3035  137.8863  158.3177 N   0  0  0  0  0  0  0  0  0  0  0  0
  148.6399  137.0012  159.2649 C   0  0  0  0  0  0  0  0  0  0  0  0
  149.5259  136.1707  159.0509 O   0  0  0  0  0  0  0  0  0  0  0  0
  147.9261  137.1379  160.4048 N   0  5  0  0  0  0  0  0  0  0  0  0
  147.5702  136.0518  161.1102 C   0  0  0  0  0  0  0  0  0  0  0  0
  147.3504  136.0797  162.4295 N   0  0  0  0  0  0  0  0  0  0  0  0
  146.9981  134.8373  162.9600 C   0  0  0  0  0  0  0  0  0  0  0  0
  146.9570  133.8384  162.0239 C   0  0  0  0  0  0  0  0  0  0  0  0
  147.3631  134.4315  160.4387 S   0  0  0  0  0  0  0  0  0  0  0  0
  149.8326  140.2865  157.6983 C   0  0  0  0  0  0  0  0  0  0  0  0
  152.4010  142.4655  160.6803 H   0  0  0  0  0  0  0  0  0  0  0  0
  153.8661  143.1058  159.9429 H   0  0  0  0  0  0  0  0  0  0  0  0
  153.2513  141.5380  159.4467 H   0  0  0  0  0  0  0  0  0  0  0  0
  152.7098  143.2706  157.7437 H   0  0  0  0  0  0  0  0  0  0  0  0
  151.2105  144.7271  159.9605 H   0  0  0  0  0  0  0  0  0  0  0  0
  151.2446  145.1904  158.2608 H   0  0  0  0  0  0  0  0  0  0  0  0
  152.7198  145.2452  159.2153 H   0  0  0  0  0  0  0  0  0  0  0  0
  150.2915  142.2884  159.3125 H   0  0  0  0  0  0  0  0  0  0  0  0
  150.1286  143.0556  157.7546 H   0  0  0  0  0  0  0  0  0  0  0  0
  150.8753  141.8224  155.6940 H   0  0  0  0  0  0  0  0  0  0  0  0
  152.5127  141.8349  156.3214 H   0  0  0  0  0  0  0  0  0  0  0  0
  152.1697  139.9705  154.6858 H   0  0  0  0  0  0  0  0  0  0  0  0
  152.6177  139.3537  156.2650 H   0  0  0  0  0  0  0  0  0  0  0  0
  150.9192  138.4151  157.6598 H   0  0  0  0  0  0  0  0  0  0  0  0
  148.1683  138.4442  156.3266 H   0  0  0  0  0  0  0  0  0  0  0  0
  149.1876  137.0422  156.5824 H   0  0  0  0  0  0  0  0  0  0  0  0
  147.5690  138.5402  158.5449 H   0  0  0  0  0  0  0  0  0  0  0  0
  146.7951  134.7553  164.0173 H   0  0  0  0  0  0  0  0  0  0  0  0
  146.7161  132.7961  162.1682 H   0  0  0  0  0  0  0  0  0  0  0  0
  149.4854  140.1463  158.7228 H   0  0  0  0  0  0  0  0  0  0  0  0
  149.0276  140.7796  157.1505 H   0  0  0  0  0  0  0  0  0  0  0  0
  151.7314  140.6641  158.2451 H   0  0  0  0  0  0  0  0  0  0  0  0
  1  2  1  0  0  0  0
  1 21  1  0  0  0  0
  1 22  1  0  0  0  0
  1 23  1  0  0  0  0
  2  3  1  0  0  0  0
  2  4  1  0  0  0  0
  2 24  1  0  0  0  0
  3 25  1  0  0  0  0
  3 26  1  0  0  0  0
  3 27  1  0  0  0  0
  4  5  1  0  0  0  0
  4 28  1  0  0  0  0
  4 29  1  0  0  0  0
  5 20  1  0  0  0  0
  5  6  1  0  0  0  0
  5 42  1  0  0  0  0
  6  7  1  0  0  0  0
  6 30  1  0  0  0  0
  6 31  1  0  0  0  0
  7  8  1  0  0  0  0
  7 32  1  0  0  0  0
  7 33  1  0  0  0  0
  8  9  1  0  0  0  0
  9 10  1  0  0  0  0
  9 20  1  0  0  0  0
  9 34  1  0  0  0  0
 10 11  1  0  0  0  0
 10 35  1  0  0  0  0
 10 36  1  0  0  0  0
 11 12  1  0  0  0  0
 11 37  1  0  0  0  0
 12 13  2  0  0  0  0
 12 14  1  0  0  0  0
 14 15  1  0  0  0  0
 15 19  1  0  0  0  0
 15 16  2  0  0  0  0
 16 17  1  0  0  0  0
 17 18  2  0  0  0  0
 17 38  1  0  0  0  0
 18 19  1  0  0  0  0
 18 39  1  0  0  0  0
 20 40  1  0  0  0  0
 20 41  1  0  0  0  0
M  CHG  1   5   1
M  CHG  1  14  -1
M  END
> <s_m_source_file>
AV-unprocessed.smi

> <i_m_source_file_index>
2062

> <i_lp_mmshare_version>
43012

> <i_f3d_flags>
0

> <s_epik_input>
W0NIM11bQ0hdKFtDSDNdKVtDSDJdTjFbQ0gyXVtDSDJdT1tDQEhdKFtDSDJdMSlbQ0gyXVtOSF1DKD1PKVtOSF1jMm5bY0hdW2NIXXMy

> <s_epik_cmdline>
J2VwaWtfcHl0aG9uJywgJy1waCcsICc3LjAnLCAnLXRuJywgJzgnLCAnLW1hJywgJzIwMCcsICctbWV0YWxfYmluZGluZycsICctaW1hZScsICc8aW5maWxlLm1hZT4nLCAnLW9tYWUnLCAnPG91dGZpbGUubWFlPic=

> <r_lp_tautomer_probability>
0.999

> <r_epik_Ionization_Penalty>
6.35835

> <r_epik_Ionization_Penalty_Charging>
5.49938

> <r_epik_Ionization_Penalty_Neutral>
0.858963

> <r_epik_State_Penalty>
5.49328

> <r_epik_Charging_Adjusted_Penalty>
10.9927

> <i_epik_Tot_Q>
0

> <i_epik_Tot_abs_Q>
2

> <r_epik_Metal_State_Penalty>
1.51523

> <b_epik_Metal_Only>
1

> <s_lp_Force_Field>
OPLS_2005

> <r_lp_Energy>
7.82162

> <b_lp_Chiralities_Consistent>
1

> <s_lp_Variant>
AV-unprocessed.smi:2062-10

> <Gold.Version>
5.8.1

> <Gold.Id.Protein>
6NUR|6NUR_protein|mol2

> <Gold.PLP.Fitness>
49.0837

> <Gold.PLP.PLP>
-38.2581

> <Gold.PLP.part.hbond>
-3.0000

> <Gold.PLP.part.metal>
0.0000

> <Gold.PLP.part.buried>
-5.4751

> <Gold.PLP.part.nonpolar>
-30.1940

> <Gold.PLP.part.repulsive>
0.1983

> <Gold.PLP.ligand.clash>
0.0000

> <Gold.PLP.ligand.torsion>
0.7220

> <Gold.PLP.Chemscore.Hbond>
4.0266

> <Gold.PLP.Chemscore.CHOScore>
0.0000

> <Gold.PLP.Chemscore.Metal>
0.0000

> <Gold.Chemscore.Hbonds>
donor molecule, donor type, donor heavy atom, donor atom, acceptor molecule, acceptor atom, score
      P1  H  6896  6909       L1    13  1.00
      P1  H  6931  6943       L1    14  1.00
      P1  H  6934  6947       L1    14  1.38

> <Gold.PLP.Chemscore.Internal.Correction>
0.1899

> <Gold.Rescore>
     Score         DG    S(hbond)    S(metal)    S(lipo)     H(rot)  DE(clash)    DE(int)     intcor
     16.81     -18.49       2.05        0.00      90.26       1.72       0.47       1.21       ----

> <Gold.Chemscore.Fitness>
16.8127

> <Gold.Chemscore.DG>
-18.4882

> <Gold.Chemscore.ZeroCoef>
-5.4800

> <Gold.Chemscore.Hbond>
2.0508

> <Gold.Chemscore.Metal>
0.0000

> <Gold.Chemscore.Lipo>
90.2578

> <Gold.Chemscore.Internal_Hbond>
0.0000

> <Gold.Chemscore.DEClash>
0.4660

> <Gold.Chemscore.DEInternal>
1.2095

> <Gold.Chemscore.Rot>
1.7194

> <Gold.Chemscore.Internal.Correction>
   9.000000E+99

> <Gold.Chemscore.Hbonds>
donor molecule, donor type, donor heavy atom, donor atom, acceptor molecule, acceptor atom, score
      P1  H  6896  6909       L1    13  0.91
      P1  H  6931  6943       L1    14  0.12
      P1  H  6934  6947       L1    14  0.64

> <Gold.Chemscore.Hbond.Weighted>
-6.8498

> <Gold.Chemscore.Metal.Weighted>
-0.0000

> <Gold.Chemscore.Lipo.Weighted>
-10.5602

> <Gold.Chemscore.Internal_Hbond.Weighted>
0.0000

> <Gold.Chemscore.DEClash.Weighted>
0.4660

> <Gold.Chemscore.DEInternal.Weighted>
1.2095

> <Gold.Chemscore.Rot.Weighted>
4.4017

> <Gold.Chemscore.Internal.Correction.Weighted>
   9.000000E+99

> <Gold.Protein.RotatedTorsions>
[ 6907 6896 6895 6894 ] final   48.69 input  -60.11 | X-H torsion
[ 7974 7965 7964 7962 ] final    9.76 input  175.53 | X-H torsion
[ 8008 7997 7996 7995 ] final  -16.17 input   59.86 | X-H torsion
[ 10167 10162 10161 10158 ] final  175.29 input  -65.29 | X-H torsion
[ 10718 10713 10712 10709 ] final -134.32 input   66.30 | X-H torsion
[ 10763 10752 10751 10750 ] final -110.21 input  -60.55 | X-H torsion
[ 11005 11000 10999 10996 ] final  -88.65 input  -57.11 | X-H torsion

> <Gold.Protein.ActiveResidues>
 VAL166  LYS551  ARG553  GLY616  TRP617  ASP618  TYR619  PRO620  LYS621  CYS622 
 ASP623  PHE694  ASN695  SER759  ASP760  ASP761  ALA762  ILE779  LEU786  VAL792 
 PHE793  MET794  SER795  GLU796  ALA797  LYS798  CYS799  TRP800  GLU811  SER814 

> <Gold.Protein.RotatedAtoms>
  152.2824  134.7814  160.0393 H   0  0  0  0  0  0  0  0  0  0  0  0  # atno 6907 bound_to 6896
  151.8388  133.3415  159.3644 H   0  0  0  0  0  0  0  0  0  0  0  0  # atno 6908 bound_to 6896
  150.7195  134.5340  159.5758 H   0  0  0  0  0  0  0  0  0  0  0  0  # atno 6909 bound_to 6896
  146.2399  139.9736  142.8444 H   0  0  0  0  0  0  0  0  0  0  0  0  # atno 7974 bound_to 7965
  154.5073  140.2176  155.9225 H   0  0  0  0  0  0  0  0  0  0  0  0  # atno 8008 bound_to 7997
  156.1510  140.3161  155.8614 H   0  0  0  0  0  0  0  0  0  0  0  0  # atno 8009 bound_to 7997
  155.3939  140.0480  157.3030 H   0  0  0  0  0  0  0  0  0  0  0  0  # atno 8010 bound_to 7997
  139.5172  144.3048  152.0345 H   0  0  0  0  0  0  0  0  0  0  0  0  # atno 10167 bound_to 10162
  156.2543  130.7171  151.1082 H   0  0  0  0  0  0  0  0  0  0  0  0  # atno 10718 bound_to 10713
  154.8236  135.4572  154.0851 H   0  0  0  0  0  0  0  0  0  0  0  0  # atno 10763 bound_to 10752
  153.2184  135.6891  153.8036 H   0  0  0  0  0  0  0  0  0  0  0  0  # atno 10764 bound_to 10752
  153.7462  135.3305  155.3289 H   0  0  0  0  0  0  0  0  0  0  0  0  # atno 10765 bound_to 10752
  141.1598  133.7583  156.9482 H   0  0  0  0  0  0  0  0  0  0  0  0  # atno 11005 bound_to 11000
  145.1658  140.9696  143.4350 LP  0  0  0  0  0  0  0  0  0  0  0  0  # atno 17320 bound_to 7965
  145.0074  139.3542  143.6137 LP  0  0  0  0  0  0  0  0  0  0  0  0  # atno 17321 bound_to 7965
  140.2495  144.4184  150.6227 LP  0  0  0  0  0  0  0  0  0  0  0  0  # atno 17342 bound_to 10162
  140.6235  143.2178  151.6646 LP  0  0  0  0  0  0  0  0  0  0  0  0  # atno 17343 bound_to 10162
  157.7226  131.0671  150.6070 LP  0  0  0  0  0  0  0  0  0  0  0  0  # atno 17370 bound_to 10713
  156.6152  130.4391  149.5843 LP  0  0  0  0  0  0  0  0  0  0  0  0  # atno 17371 bound_to 10713
  140.1275  134.9377  157.2291 LP  0  0  0  0  0  0  0  0  0  0  0  0  # atno 17394 bound_to 11000
  140.2994  134.3149  155.7294 LP  0  0  0  0  0  0  0  0  0  0  0  0  # atno 17395 bound_to 11000

$$$$
