AV-unprocessed.smi:2761|AV-procd|sdf|10632|dock2
  -GOLD-   2272015 83D 1   1.00000     0.00000
 Structure written by MMmdl.
 27 28  0  0  0  0  0  0  0  0  1 V2000
  153.5126  140.0599  159.5172 O   0  0  0  0  0  0  0  0  0  0  0  0
  152.9237  140.9662  158.9241 C   0  0  0  0  0  0  0  0  0  0  0  0
  152.2288  140.8145  157.7750 N   0  0  0  0  0  0  0  0  0  0  0  0
  152.0121  139.6448  157.0383 C   0  0  0  0  0  0  0  0  0  0  0  0
  151.8437  139.9265  155.6328 C   0  0  0  0  0  0  0  0  0  0  0  0
  151.6255  138.8813  154.8056 C   0  0  0  0  0  0  0  0  0  0  0  0
  151.5628  137.5132  155.3184 C   0  0  0  0  0  0  0  0  0  0  0  0
  151.3687  136.5165  154.6267 O   0  0  0  0  0  0  0  0  0  0  0  0
  151.7429  137.4344  156.6635 N   0  0  0  0  0  0  0  0  0  0  0  0
  151.9706  138.4595  157.5742 N   0  0  0  0  0  0  0  0  0  0  0  0
  152.9761  142.3966  159.4845 C   0  0  2  0  0  0  0  0  0  0  0  0
  152.4534  142.4892  160.9370 C   0  0  0  0  0  0  0  0  0  0  0  0
  152.4983  143.8430  161.3688 O   0  0  0  0  0  0  0  0  0  0  0  0
  151.7000  144.6781  160.5424 C   0  0  0  0  0  0  0  0  0  0  0  0
  152.2270  144.6005  159.1010 C   0  0  0  0  0  0  0  0  0  0  0  0
  152.1791  143.2491  158.6638 O   0  0  0  0  0  0  0  0  0  0  0  0
  151.8099  141.6601  157.4161 H   0  0  0  0  0  0  0  0  0  0  0  0
  151.8838  140.9239  155.2191 H   0  0  0  0  0  0  0  0  0  0  0  0
  151.4949  139.0560  153.7479 H   0  0  0  0  0  0  0  0  0  0  0  0
  151.7129  136.5205  157.0923 H   0  0  0  0  0  0  0  0  0  0  0  0
  154.0153  142.7275  159.4447 H   0  0  0  0  0  0  0  0  0  0  0  0
  151.4344  142.1060  161.0158 H   0  0  0  0  0  0  0  0  0  0  0  0
  153.0730  141.8962  161.6107 H   0  0  0  0  0  0  0  0  0  0  0  0
  150.6540  144.3717  160.5925 H   0  0  0  0  0  0  0  0  0  0  0  0
  151.7544  145.7022  160.9120 H   0  0  0  0  0  0  0  0  0  0  0  0
  151.6125  145.2110  158.4392 H   0  0  0  0  0  0  0  0  0  0  0  0
  153.2470  144.9823  159.0371 H   0  0  0  0  0  0  0  0  0  0  0  0
  1  2  2  0  0  0  0
  2  3  1  0  0  0  0
  2 11  1  0  0  0  0
  3 17  1  0  0  0  0
  3  4  1  0  0  0  0
  4  5  1  0  0  0  0
  4 10  2  0  0  0  0
  5  6  2  0  0  0  0
  5 18  1  0  0  0  0
  6  7  1  0  0  0  0
  6 19  1  0  0  0  0
  7  8  2  0  0  0  0
  7  9  1  0  0  0  0
  9 10  1  0  0  0  0
  9 20  1  0  0  0  0
 11 16  1  0  0  0  0
 11 12  1  0  0  0  0
 11 21  1  0  0  0  0
 12 13  1  0  0  0  0
 12 22  1  0  0  0  0
 12 23  1  0  0  0  0
 13 14  1  0  0  0  0
 14 15  1  0  0  0  0
 14 24  1  0  0  0  0
 14 25  1  0  0  0  0
 15 16  1  0  0  0  0
 15 26  1  0  0  0  0
 15 27  1  0  0  0  0
M  END
> <s_m_source_file>
AV-unprocessed.smi

> <i_m_source_file_index>
2761

> <i_lp_mmshare_version>
43012

> <i_f3d_flags>
0

> <s_epik_input>
TzFbQ0gyXVtDSDJdT1tDSDJdW0NASF0xQyg9TylbTkhdYzJbY0hdW2NIXWMoW09IXSlubjI=

> <s_epik_cmdline>
J2VwaWtfcHl0aG9uJywgJy1waCcsICc3LjAnLCAnLXRuJywgJzgnLCAnLW1hJywgJzIwMCcsICctbWV0YWxfYmluZGluZycsICctaW1hZScsICc8aW5maWxlLm1hZT4nLCAnLW9tYWUnLCAnPG91dGZpbGUubWFlPic=

> <r_lp_tautomer_probability>
1

> <r_epik_Ionization_Penalty>
0.000593199

> <r_epik_Ionization_Penalty_Charging>
0.000590119

> <r_epik_Ionization_Penalty_Neutral>
3.08036e-06

> <r_epik_State_Penalty>
-0

> <r_epik_Charging_Adjusted_Penalty>
0.000590119

> <i_epik_Tot_Q>
0

> <i_epik_Tot_abs_Q>
0

> <r_epik_Metal_State_Penalty>
0.240077

> <b_epik_Metal_Only>
0

> <s_lp_Force_Field>
OPLS_2005

> <r_lp_Energy>
26.3482

> <b_lp_Chiralities_Consistent>
1

> <s_lp_Variant>
AV-unprocessed.smi:2761-1

> <Gold.Version>
5.8.1

> <Gold.Id.Protein>
6NUR|6NUR_protein|mol2

> <Gold.PLP.Fitness>
33.2719

> <Gold.PLP.PLP>
-30.6637

> <Gold.PLP.part.hbond>
-1.0000

> <Gold.PLP.part.metal>
0.0000

> <Gold.PLP.part.buried>
-4.3364

> <Gold.PLP.part.nonpolar>
-26.0316

> <Gold.PLP.part.repulsive>
0.4865

> <Gold.PLP.ligand.clash>
0.0000

> <Gold.PLP.ligand.torsion>
0.1967

> <Gold.PLP.Chemscore.Hbond>
1.0000

> <Gold.PLP.Chemscore.CHOScore>
0.0000

> <Gold.PLP.Chemscore.Metal>
0.0000

> <Gold.Chemscore.Hbonds>
donor molecule, donor type, donor heavy atom, donor atom, acceptor molecule, acceptor atom, score
      P1  H 10752 10763       L1     8  1.00

> <Gold.PLP.Chemscore.Internal.Correction>
0.0015

> <Gold.Rescore>
     Score         DG    S(hbond)    S(metal)    S(lipo)     H(rot)  DE(clash)    DE(int)     intcor
     12.55     -13.80       0.99        0.00      64.85       1.00       0.02       1.22       ----

> <Gold.Chemscore.Fitness>
12.5549

> <Gold.Chemscore.DG>
-13.8026

> <Gold.Chemscore.ZeroCoef>
-5.4800

> <Gold.Chemscore.Hbond>
0.9867

> <Gold.Chemscore.Metal>
0.0000

> <Gold.Chemscore.Lipo>
64.8454

> <Gold.Chemscore.Internal_Hbond>
0.0000

> <Gold.Chemscore.DEClash>
0.0243

> <Gold.Chemscore.DEInternal>
1.2234

> <Gold.Chemscore.Rot>
1.0000

> <Gold.Chemscore.Internal.Correction>
   9.000000E+99

> <Gold.Chemscore.Hbonds>
donor molecule, donor type, donor heavy atom, donor atom, acceptor molecule, acceptor atom, score
      P1  H 10752 10763       L1     8  0.65

> <Gold.Chemscore.Hbond.Weighted>
-3.2957

> <Gold.Chemscore.Metal.Weighted>
-0.0000

> <Gold.Chemscore.Lipo.Weighted>
-7.5869

> <Gold.Chemscore.Internal_Hbond.Weighted>
0.0000

> <Gold.Chemscore.DEClash.Weighted>
0.0243

> <Gold.Chemscore.DEInternal.Weighted>
1.2234

> <Gold.Chemscore.Rot.Weighted>
2.5600

> <Gold.Chemscore.Internal.Correction.Weighted>
   9.000000E+99

> <Gold.Protein.RotatedTorsions>
[ 6907 6896 6895 6894 ] final    6.46 input  -60.11 | X-H torsion
[ 7974 7965 7964 7962 ] final  110.11 input  175.53 | X-H torsion
[ 8008 7997 7996 7995 ] final  -89.10 input   59.86 | X-H torsion
[ 10167 10162 10161 10158 ] final   -1.01 input  -65.29 | X-H torsion
[ 10718 10713 10712 10709 ] final  -35.01 input   66.30 | X-H torsion
[ 10763 10752 10751 10750 ] final   55.85 input  -60.55 | X-H torsion
[ 11005 11000 10999 10996 ] final -104.59 input  -57.11 | X-H torsion

> <Gold.Protein.ActiveResidues>
 VAL166  LYS551  ARG553  GLY616  TRP617  ASP618  TYR619  PRO620  LYS621  CYS622 
 ASP623  PHE694  ASN695  SER759  ASP760  ASP761  ALA762  ILE779  LEU786  VAL792 
 PHE793  MET794  SER795  GLU796  ALA797  LYS798  CYS799  TRP800  GLU811  SER814 

> <Gold.Protein.RotatedAtoms>
  151.6741  135.0972  160.0203 H   0  0  0  0  0  0  0  0  0  0  0  0  # atno 6907 bound_to 6896
  152.3874  133.6627  159.6218 H   0  0  0  0  0  0  0  0  0  0  0  0  # atno 6908 bound_to 6896
  150.7797  133.8928  159.3359 H   0  0  0  0  0  0  0  0  0  0  0  0  # atno 6909 bound_to 6896
  145.2591  139.2709  143.4026 H   0  0  0  0  0  0  0  0  0  0  0  0  # atno 7974 bound_to 7965
  154.6826  140.0546  157.0281 H   0  0  0  0  0  0  0  0  0  0  0  0  # atno 8008 bound_to 7997
  155.0930  140.3221  155.4549 H   0  0  0  0  0  0  0  0  0  0  0  0  # atno 8009 bound_to 7997
  156.2699  140.2044  156.6057 H   0  0  0  0  0  0  0  0  0  0  0  0  # atno 8010 bound_to 7997
  140.6792  143.6826  150.8093 H   0  0  0  0  0  0  0  0  0  0  0  0  # atno 10167 bound_to 10162
  156.3438  130.4297  149.7764 H   0  0  0  0  0  0  0  0  0  0  0  0  # atno 10718 bound_to 10713
  152.9823  135.5696  154.5133 H   0  0  0  0  0  0  0  0  0  0  0  0  # atno 10763 bound_to 10752
  154.4634  135.2782  155.1698 H   0  0  0  0  0  0  0  0  0  0  0  0  # atno 10764 bound_to 10752
  154.3277  135.6256  153.5590 H   0  0  0  0  0  0  0  0  0  0  0  0  # atno 10765 bound_to 10752
  141.1093  133.8736  157.1629 H   0  0  0  0  0  0  0  0  0  0  0  0  # atno 11005 bound_to 11000
  146.3280  140.3003  142.8620 LP  0  0  0  0  0  0  0  0  0  0  0  0  # atno 17320 bound_to 7965
  144.9434  140.8103  143.5616 LP  0  0  0  0  0  0  0  0  0  0  0  0  # atno 17321 bound_to 7965
  140.0524  143.5237  152.2667 LP  0  0  0  0  0  0  0  0  0  0  0  0  # atno 17342 bound_to 10162
  139.6103  144.7607  151.2967 LP  0  0  0  0  0  0  0  0  0  0  0  0  # atno 17343 bound_to 10162
  156.4991  130.8120  151.3125 LP  0  0  0  0  0  0  0  0  0  0  0  0  # atno 17370 bound_to 10713
  157.7451  130.9950  150.2730 LP  0  0  0  0  0  0  0  0  0  0  0  0  # atno 17371 bound_to 10713
  139.9979  135.0039  157.0124 LP  0  0  0  0  0  0  0  0  0  0  0  0  # atno 17394 bound_to 11000
  140.4817  134.1282  155.7218 LP  0  0  0  0  0  0  0  0  0  0  0  0  # atno 17395 bound_to 11000

$$$$
