AV-unprocessed.smi:1612|AV-procd|sdf|6476|dock7
  -GOLD-   22720 7133D 1   1.00000     0.00000
 Structure written by MMmdl.
 37 38  0  0  0  0  0  0  0  0  1 V2000
  148.7763  141.1556  153.7835 C   0  0  0  0  0  0  0  0  0  0  0  0
  149.2064  140.6507  155.1712 C   0  0  2  0  0  0  0  0  0  0  0  0
  149.5054  141.8185  156.0001 N   0  0  0  0  0  0  0  0  0  0  0  0
  150.2390  141.7999  157.1234 C   0  0  0  0  0  0  0  0  0  0  0  0
  150.7273  140.7729  157.5964 O   0  0  0  0  0  0  0  0  0  0  0  0
  150.3650  143.0338  157.6427 N   0  0  0  0  0  0  0  0  0  0  0  0
  151.0581  143.4243  158.8195 C   0  0  0  0  0  0  0  0  0  0  0  0
  151.1096  144.8181  159.0487 C   0  0  0  0  0  0  0  0  0  0  0  0
  151.7728  145.3086  160.1901 C   0  0  0  0  0  0  0  0  0  0  0  0
  152.3688  144.3918  161.0743 C   0  0  0  0  0  0  0  0  0  0  0  0
  152.2717  143.0209  160.7724 C   0  0  0  0  0  0  0  0  0  0  0  0
  151.6358  142.5485  159.6795 N   0  0  0  0  0  0  0  0  0  0  0  0
  150.4669  139.7755  154.9917 C   0  0  0  0  0  0  0  0  0  0  0  0
  151.5500  140.3199  154.7669 O   0  0  0  0  0  0  0  0  0  0  0  0
  150.3499  138.4323  155.0671 N   0  0  0  0  0  0  0  0  0  0  0  0
  151.4838  137.5205  154.9243 C   0  0  0  0  0  0  0  0  0  0  0  0
  150.9640  136.1430  155.3347 C   0  0  0  0  0  0  0  0  0  0  0  0
  149.4690  136.2143  155.0585 C   0  0  0  0  0  0  0  0  0  0  0  0
  149.1152  137.6824  155.2973 C   0  0  0  0  0  0  0  0  0  0  0  0
  148.5280  140.3278  153.1183 H   0  0  0  0  0  0  0  0  0  0  0  0
  149.5601  141.7439  153.3033 H   0  0  0  0  0  0  0  0  0  0  0  0
  147.8901  141.7867  153.8571 H   0  0  0  0  0  0  0  0  0  0  0  0
  148.3874  140.0959  155.6297 H   0  0  0  0  0  0  0  0  0  0  0  0
  149.1478  142.7059  155.6784 H   0  0  0  0  0  0  0  0  0  0  0  0
  149.9138  143.7815  157.1367 H   0  0  0  0  0  0  0  0  0  0  0  0
  150.6468  145.5089  158.3587 H   0  0  0  0  0  0  0  0  0  0  0  0
  151.8234  146.3700  160.3830 H   0  0  0  0  0  0  0  0  0  0  0  0
  152.8860  144.7292  161.9602 H   0  0  0  0  0  0  0  0  0  0  0  0
  152.7154  142.2842  161.4258 H   0  0  0  0  0  0  0  0  0  0  0  0
  151.8044  137.5143  153.8815 H   0  0  0  0  0  0  0  0  0  0  0  0
  152.3338  137.8213  155.5389 H   0  0  0  0  0  0  0  0  0  0  0  0
  151.4562  135.3288  154.8019 H   0  0  0  0  0  0  0  0  0  0  0  0
  151.1305  135.9930  156.4022 H   0  0  0  0  0  0  0  0  0  0  0  0
  149.2788  135.9567  154.0157 H   0  0  0  0  0  0  0  0  0  0  0  0
  148.8897  135.5326  155.6819 H   0  0  0  0  0  0  0  0  0  0  0  0
  148.7956  137.8320  156.3299 H   0  0  0  0  0  0  0  0  0  0  0  0
  148.3069  138.0012  154.6379 H   0  0  0  0  0  0  0  0  0  0  0  0
  1  2  1  0  0  0  0
  1 20  1  0  0  0  0
  1 21  1  0  0  0  0
  1 22  1  0  0  0  0
  2  3  1  0  0  0  0
  2 13  1  0  0  0  0
  2 23  1  0  0  0  0
  3  4  1  0  0  0  0
  3 24  1  0  0  0  0
  4  5  2  0  0  0  0
  4  6  1  0  0  0  0
  6  7  1  0  0  0  0
  6 25  1  0  0  0  0
  7 12  1  0  0  0  0
  7  8  2  0  0  0  0
  8  9  1  0  0  0  0
  8 26  1  0  0  0  0
  9 10  2  0  0  0  0
  9 27  1  0  0  0  0
 10 11  1  0  0  0  0
 10 28  1  0  0  0  0
 11 12  2  0  0  0  0
 11 29  1  0  0  0  0
 13 14  2  0  0  0  0
 13 15  1  0  0  0  0
 15 19  1  0  0  0  0
 15 16  1  0  0  0  0
 16 17  1  0  0  0  0
 16 30  1  0  0  0  0
 16 31  1  0  0  0  0
 17 18  1  0  0  0  0
 17 32  1  0  0  0  0
 17 33  1  0  0  0  0
 18 19  1  0  0  0  0
 18 34  1  0  0  0  0
 18 35  1  0  0  0  0
 19 36  1  0  0  0  0
 19 37  1  0  0  0  0
M  END
> <s_m_source_file>
AV-unprocessed.smi

> <i_m_source_file_index>
1612

> <i_lp_mmshare_version>
43012

> <i_f3d_flags>
0

> <s_epik_input>
W0NIMl0xW0NIMl1bQ0gyXVtDSDJdTjFDKD1PKVtDQEhdKFtDSDNdKVtOSF1DKD1PKVtOSF1jMltjSF1bY0hdW2NIXVtjSF1uMg==

> <s_epik_cmdline>
J2VwaWtfcHl0aG9uJywgJy1waCcsICc3LjAnLCAnLXRuJywgJzgnLCAnLW1hJywgJzIwMCcsICctbWV0YWxfYmluZGluZycsICctaW1hZScsICc8aW5maWxlLm1hZT4nLCAnLW9tYWUnLCAnPG91dGZpbGUubWFlPic=

> <r_lp_tautomer_probability>
1

> <r_epik_Ionization_Penalty>
3.95281e-05

> <r_epik_Ionization_Penalty_Charging>
0

> <r_epik_Ionization_Penalty_Neutral>
3.95281e-05

> <r_epik_State_Penalty>
-0

> <r_epik_Charging_Adjusted_Penalty>
0

> <i_epik_Tot_Q>
0

> <i_epik_Tot_abs_Q>
0

> <r_epik_Metal_State_Penalty>
-0

> <b_epik_Metal_Only>
0

> <s_lp_Force_Field>
OPLS_2005

> <r_lp_Energy>
30.1614

> <b_lp_Chiralities_Consistent>
1

> <s_lp_Variant>
AV-unprocessed.smi:1612-1

> <Gold.Version>
5.8.1

> <Gold.Id.Protein>
6NUR|6NUR_protein|mol2

> <Gold.PLP.Fitness>
42.6994

> <Gold.PLP.PLP>
-35.0766

> <Gold.PLP.part.hbond>
-2.9934

> <Gold.PLP.part.metal>
0.0000

> <Gold.PLP.part.buried>
-4.4172

> <Gold.PLP.part.nonpolar>
-28.2876

> <Gold.PLP.part.repulsive>
0.1788

> <Gold.PLP.ligand.clash>
0.0000

> <Gold.PLP.ligand.torsion>
0.6808

> <Gold.PLP.Chemscore.Hbond>
2.9913

> <Gold.PLP.Chemscore.CHOScore>
0.0000

> <Gold.PLP.Chemscore.Metal>
0.0000

> <Gold.Chemscore.Hbonds>
donor molecule, donor type, donor heavy atom, donor atom, acceptor molecule, acceptor atom, score
      L1  H     3    24       P1  8028  1.00
      L1  H     6    25       P1  8028  1.00
      P1  H  7989  7998       L1    14  0.62

> <Gold.PLP.Chemscore.Internal.Correction>
0.0105

> <Gold.Rescore>
     Score         DG    S(hbond)    S(metal)    S(lipo)     H(rot)  DE(clash)    DE(int)     intcor
     17.45     -20.63       2.82        0.00      77.34       1.30       0.03       3.16       ----

> <Gold.Chemscore.Fitness>
17.4483

> <Gold.Chemscore.DG>
-20.6320

> <Gold.Chemscore.ZeroCoef>
-5.4800

> <Gold.Chemscore.Hbond>
2.8250

> <Gold.Chemscore.Metal>
0.0000

> <Gold.Chemscore.Lipo>
77.3394

> <Gold.Chemscore.Internal_Hbond>
0.0000

> <Gold.Chemscore.DEClash>
0.0265

> <Gold.Chemscore.DEInternal>
3.1573

> <Gold.Chemscore.Rot>
1.3016

> <Gold.Chemscore.Internal.Correction>
   9.000000E+99

> <Gold.Chemscore.Hbonds>
donor molecule, donor type, donor heavy atom, donor atom, acceptor molecule, acceptor atom, score
      L1  H     3    24       P1  8028  0.93
      L1  H     6    25       P1  8028  0.88
      P1  H  7989  7998       L1    14  0.53

> <Gold.Chemscore.Hbond.Weighted>
-9.4354

> <Gold.Chemscore.Metal.Weighted>
-0.0000

> <Gold.Chemscore.Lipo.Weighted>
-9.0487

> <Gold.Chemscore.Internal_Hbond.Weighted>
0.0000

> <Gold.Chemscore.DEClash.Weighted>
0.0265

> <Gold.Chemscore.DEInternal.Weighted>
3.1573

> <Gold.Chemscore.Rot.Weighted>
3.3322

> <Gold.Chemscore.Internal.Correction.Weighted>
   9.000000E+99

> <Gold.Protein.RotatedTorsions>
[ 6907 6896 6895 6894 ] final  108.12 input  -60.11 | X-H torsion
[ 7974 7965 7964 7962 ] final  125.79 input  175.53 | X-H torsion
[ 8008 7997 7996 7995 ] final   -8.42 input   59.86 | X-H torsion
[ 10167 10162 10161 10158 ] final    5.38 input  -65.29 | X-H torsion
[ 10718 10713 10712 10709 ] final  -79.83 input   66.30 | X-H torsion
[ 10763 10752 10751 10750 ] final  167.53 input  -60.55 | X-H torsion
[ 11005 11000 10999 10996 ] final -109.67 input  -57.11 | X-H torsion

> <Gold.Protein.ActiveResidues>
 VAL166  LYS551  ARG553  GLY616  TRP617  ASP618  TYR619  PRO620  LYS621  CYS622 
 ASP623  PHE694  ASN695  SER759  ASP760  ASP761  ALA762  ILE779  LEU786  VAL792 
 PHE793  MET794  SER795  GLU796  ALA797  LYS798  CYS799  TRP800  GLU811  SER814 

> <Gold.Protein.RotatedAtoms>
  152.5125  133.9135  159.7498 H   0  0  0  0  0  0  0  0  0  0  0  0  # atno 6907 bound_to 6896
  150.9523  133.6528  159.2776 H   0  0  0  0  0  0  0  0  0  0  0  0  # atno 6908 bound_to 6896
  151.3802  135.0943  159.9546 H   0  0  0  0  0  0  0  0  0  0  0  0  # atno 6909 bound_to 6896
  145.0691  139.3744  143.4967 H   0  0  0  0  0  0  0  0  0  0  0  0  # atno 7974 bound_to 7965
  154.5743  140.2381  155.8145 H   0  0  0  0  0  0  0  0  0  0  0  0  # atno 8008 bound_to 7997
  156.2131  140.3020  155.9735 H   0  0  0  0  0  0  0  0  0  0  0  0  # atno 8009 bound_to 7997
  155.2655  140.0416  157.2992 H   0  0  0  0  0  0  0  0  0  0  0  0  # atno 8010 bound_to 7997
  140.6485  143.7603  150.7537 H   0  0  0  0  0  0  0  0  0  0  0  0  # atno 10167 bound_to 10162
  156.0083  130.4557  150.3708 H   0  0  0  0  0  0  0  0  0  0  0  0  # atno 10718 bound_to 10713
  154.3553  135.2753  155.2350 H   0  0  0  0  0  0  0  0  0  0  0  0  # atno 10763 bound_to 10752
  154.4562  135.5918  153.6228 H   0  0  0  0  0  0  0  0  0  0  0  0  # atno 10764 bound_to 10752
  152.9847  135.6054  154.3767 H   0  0  0  0  0  0  0  0  0  0  0  0  # atno 10765 bound_to 10752
  141.0835  133.9179  157.2237 H   0  0  0  0  0  0  0  0  0  0  0  0  # atno 11005 bound_to 11000
  146.3528  140.0426  142.8642 LP  0  0  0  0  0  0  0  0  0  0  0  0  # atno 17320 bound_to 7965
  145.1315  140.9520  143.4541 LP  0  0  0  0  0  0  0  0  0  0  0  0  # atno 17321 bound_to 7965
  140.1249  143.4578  152.2290 LP  0  0  0  0  0  0  0  0  0  0  0  0  # atno 17342 bound_to 10162
  139.5698  144.7456  151.3923 LP  0  0  0  0  0  0  0  0  0  0  0  0  # atno 17343 bound_to 10162
  157.1793  131.0388  151.2756 LP  0  0  0  0  0  0  0  0  0  0  0  0  # atno 17370 bound_to 10713
  157.4160  130.7411  149.6876 LP  0  0  0  0  0  0  0  0  0  0  0  0  # atno 17371 bound_to 10713
  139.9651  135.0144  156.9364 LP  0  0  0  0  0  0  0  0  0  0  0  0  # atno 17394 bound_to 11000
  140.5416  134.0715  155.7343 LP  0  0  0  0  0  0  0  0  0  0  0  0  # atno 17395 bound_to 11000

$$$$
