AV-unprocessed.smi:867|AV-procd|sdf|3997|dock7
  -GOLD-   22720 1483D 1   1.00000     0.00000
 Structure written by MMmdl.
 53 56  0  0  0  0  0  0  0  0  2 V2000
  152.7841  139.5853  155.8931 O   0  0  0  0  0  0  0  0  0  0  0  0
  151.5695  139.5534  155.6921 C   0  0  0  0  0  0  0  0  0  0  0  0
  150.6934  140.2202  156.4636 N   0  0  0  0  0  0  0  0  0  0  0  0
  151.0308  141.0471  157.6200 C   0  0  0  0  0  0  0  0  0  0  0  0
  150.9213  142.5524  157.3107 C   0  0  0  0  0  0  0  0  0  0  0  0
  151.3147  143.4431  158.4761 C   0  0  0  0  0  0  0  0  0  0  0  0
  152.1770  142.9760  159.4898 C   0  0  0  0  0  0  0  0  0  0  0  0
  152.5314  143.8500  160.5351 C   0  0  0  0  0  0  0  0  0  0  0  0
  152.0024  145.1561  160.5251 C   0  0  0  0  0  0  0  0  0  0  0  0
  151.1732  145.6130  159.5625 N   0  0  0  0  0  0  0  0  0  0  0  0
  150.8402  144.7693  158.5623 C   0  0  0  0  0  0  0  0  0  0  0  0
  150.9992  138.7757  154.7393 N   0  0  0  0  0  0  0  0  0  0  0  0
  151.5117  137.4845  154.2635 C   0  0  0  0  0  0  0  0  0  0  0  0
  150.6584  136.3522  154.8659 C   0  0  0  0  0  0  0  0  0  0  0  0
  149.2087  136.5268  154.5605 N   0  3  0  0  0  0  0  0  0  0  0  0
  148.3516  135.4529  155.1397 C   0  0  1  0  0  0  0  0  0  0  0  0
  147.0605  135.1622  154.3354 C   0  0  0  0  0  0  0  0  0  0  0  0
  147.0813  133.6296  154.1814 C   0  0  1  0  0  0  0  0  0  0  0  0
  148.1197  133.2541  153.1107 C   0  0  0  0  0  0  0  0  0  0  0  0
  149.4520  133.5585  153.8175 C   0  0  0  0  0  0  0  0  0  0  0  0
  149.0025  134.0485  155.2119 C   0  0  2  0  0  0  0  0  0  0  0  0
  147.7767  133.1758  155.4593 C   0  0  0  0  0  0  0  0  0  0  0  0
  148.7231  137.8939  154.9050 C   0  0  0  0  0  0  0  0  0  0  0  0
  149.6204  138.9833  154.2929 C   0  0  0  0  0  0  0  0  0  0  0  0
  149.7111  140.1199  156.2534 H   0  0  0  0  0  0  0  0  0  0  0  0
  150.4016  140.7923  158.4744 H   0  0  0  0  0  0  0  0  0  0  0  0
  152.0527  140.8111  157.9176 H   0  0  0  0  0  0  0  0  0  0  0  0
  151.5543  142.7969  156.4569 H   0  0  0  0  0  0  0  0  0  0  0  0
  149.9010  142.7915  157.0081 H   0  0  0  0  0  0  0  0  0  0  0  0
  152.5686  141.9697  159.4638 H   0  0  0  0  0  0  0  0  0  0  0  0
  153.1927  143.5280  161.3255 H   0  0  0  0  0  0  0  0  0  0  0  0
  152.2526  145.8526  161.3117 H   0  0  0  0  0  0  0  0  0  0  0  0
  150.1821  145.1669  157.8037 H   0  0  0  0  0  0  0  0  0  0  0  0
  151.4513  137.4579  153.1745 H   0  0  0  0  0  0  0  0  0  0  0  0
  152.5615  137.3128  154.5010 H   0  0  0  0  0  0  0  0  0  0  0  0
  151.0192  135.4026  154.4721 H   0  0  0  0  0  0  0  0  0  0  0  0
  150.7972  136.3203  155.9480 H   0  0  0  0  0  0  0  0  0  0  0  0
  148.0768  135.7542  156.1527 H   0  0  0  0  0  0  0  0  0  0  0  0
  146.1820  135.4900  154.8925 H   0  0  0  0  0  0  0  0  0  0  0  0
  147.0352  135.6483  153.3596 H   0  0  0  0  0  0  0  0  0  0  0  0
  146.0979  133.1918  154.0081 H   0  0  0  0  0  0  0  0  0  0  0  0
  148.0522  132.1943  152.8604 H   0  0  0  0  0  0  0  0  0  0  0  0
  147.9953  133.8230  152.1885 H   0  0  0  0  0  0  0  0  0  0  0  0
  150.0500  132.6504  153.9037 H   0  0  0  0  0  0  0  0  0  0  0  0
  150.0489  134.2941  153.2784 H   0  0  0  0  0  0  0  0  0  0  0  0
  149.7718  133.9564  155.9793 H   0  0  0  0  0  0  0  0  0  0  0  0
  147.2300  133.4381  156.3670 H   0  0  0  0  0  0  0  0  0  0  0  0
  148.0003  132.1074  155.4737 H   0  0  0  0  0  0  0  0  0  0  0  0
  147.7029  138.0408  154.5526 H   0  0  0  0  0  0  0  0  0  0  0  0
  148.6982  138.0057  155.9904 H   0  0  0  0  0  0  0  0  0  0  0  0
  149.2412  139.9730  154.5524 H   0  0  0  0  0  0  0  0  0  0  0  0
  149.5832  138.9316  153.2036 H   0  0  0  0  0  0  0  0  0  0  0  0
  149.1264  136.4441  153.5571 H   0  0  0  0  0  0  0  0  0  0  0  0
  1  2  2  0  0  0  0
  2  3  1  0  0  0  0
  2 12  1  0  0  0  0
  3  4  1  0  0  0  0
  3 25  1  0  0  0  0
  4  5  1  0  0  0  0
  4 26  1  0  0  0  0
  4 27  1  0  0  0  0
  5  6  1  0  0  0  0
  5 28  1  0  0  0  0
  5 29  1  0  0  0  0
  6 11  1  0  0  0  0
  6  7  2  0  0  0  0
  7  8  1  0  0  0  0
  7 30  1  0  0  0  0
  8  9  2  0  0  0  0
  8 31  1  0  0  0  0
  9 10  1  0  0  0  0
  9 32  1  0  0  0  0
 10 11  2  0  0  0  0
 11 33  1  0  0  0  0
 12 24  1  0  0  0  0
 12 13  1  0  0  0  0
 13 14  1  0  0  0  0
 13 34  1  0  0  0  0
 13 35  1  0  0  0  0
 14 15  1  0  0  0  0
 14 36  1  0  0  0  0
 14 37  1  0  0  0  0
 15 16  1  0  0  0  0
 15 23  1  0  0  0  0
 15 53  1  0  0  0  0
 16 21  1  0  0  0  0
 16 17  1  0  0  0  0
 16 38  1  0  0  0  0
 17 18  1  0  0  0  0
 17 39  1  0  0  0  0
 17 40  1  0  0  0  0
 18 22  1  0  0  0  0
 18 19  1  0  0  0  0
 18 41  1  0  0  0  0
 19 20  1  0  0  0  0
 19 42  1  0  0  0  0
 19 43  1  0  0  0  0
 20 21  1  0  0  0  0
 20 44  1  0  0  0  0
 20 45  1  0  0  0  0
 21 22  1  0  0  0  0
 21 46  1  0  0  0  0
 22 47  1  0  0  0  0
 22 48  1  0  0  0  0
 23 24  1  0  0  0  0
 23 49  1  0  0  0  0
 23 50  1  0  0  0  0
 24 51  1  0  0  0  0
 24 52  1  0  0  0  0
M  CHG  1  15   1
M  END
> <s_m_source_file>
AV-unprocessed.smi

> <i_m_source_file_index>
867

> <i_lp_mmshare_version>
43012

> <i_f3d_flags>
0

> <s_epik_input>
W0NIMl0xW0NIMl1bQ0BASF0oW0NIMl0yKVtDQEBIXShbQ0gyXVtDQEhdMTIpTihbQ0gyXVtDSDJdMylbQ0gyXVtDSDJdTjNDKD1PKVtOSF1bQ0gyXVtDSDJdYzRbY0hdW2NIXVtjSF1uW2NIXTQ=

> <s_epik_cmdline>
J2VwaWtfcHl0aG9uJywgJy1waCcsICc3LjAnLCAnLXRuJywgJzgnLCAnLW1hJywgJzIwMCcsICctbWV0YWxfYmluZGluZycsICctaW1hZScsICc8aW5maWxlLm1hZT4nLCAnLW9tYWUnLCAnPG91dGZpbGUubWFlPic=

> <r_epik_Ionization_Penalty>
0.0161279

> <r_epik_Ionization_Penalty_Charging>
0.00262064

> <r_epik_Ionization_Penalty_Neutral>
0.0135072

> <r_epik_State_Penalty>
0.0104914

> <r_epik_Charging_Adjusted_Penalty>
0.013112

> <i_epik_Tot_Q>
1

> <i_epik_Tot_abs_Q>
1

> <r_epik_Metal_State_Penalty>
0.0102536

> <b_epik_Metal_Only>
0

> <s_lp_Force_Field>
OPLS_2005

> <r_lp_Energy>
96.5484

> <b_lp_Chiralities_Consistent>
1

> <s_lp_Variant>
AV-unprocessed.smi:867-4

> <Gold.Version>
5.8.1

> <Gold.Id.Protein>
6NUR|6NUR_protein|mol2

> <Gold.PLP.Fitness>
54.3124

> <Gold.PLP.PLP>
-46.0276

> <Gold.PLP.part.hbond>
-2.9158

> <Gold.PLP.part.metal>
0.0000

> <Gold.PLP.part.buried>
-5.0428

> <Gold.PLP.part.nonpolar>
-40.3476

> <Gold.PLP.part.repulsive>
0.2646

> <Gold.PLP.ligand.clash>
1.1193

> <Gold.PLP.ligand.torsion>
1.2202

> <Gold.PLP.Chemscore.Hbond>
3.0000

> <Gold.PLP.Chemscore.CHOScore>
0.9107

> <Gold.PLP.Chemscore.Metal>
0.0000

> <Gold.Chemscore.Hbonds>
donor molecule, donor type, donor heavy atom, donor atom, acceptor molecule, acceptor atom, score
      L1  H    15    53       P1  7948  2.00
      P1  H  7997  8008       L1     1  1.00
      L1  C    11    33       P1  8028  0.40
      L1  C    11    33       P1  8029  0.50

> <Gold.PLP.Chemscore.Internal.Correction>
0.1125

> <Gold.Rescore>
     Score         DG    S(hbond)    S(metal)    S(lipo)     H(rot)  DE(clash)    DE(int)     intcor
     21.41     -22.89       1.95        0.00     123.32       1.37       0.30       1.19       ----

> <Gold.Chemscore.Fitness>
21.4137

> <Gold.Chemscore.DG>
-22.8949

> <Gold.Chemscore.ZeroCoef>
-5.4800

> <Gold.Chemscore.Hbond>
1.9466

> <Gold.Chemscore.Metal>
0.0000

> <Gold.Chemscore.Lipo>
123.3207

> <Gold.Chemscore.Internal_Hbond>
0.0000

> <Gold.Chemscore.DEClash>
0.2961

> <Gold.Chemscore.DEInternal>
1.1850

> <Gold.Chemscore.Rot>
1.3731

> <Gold.Chemscore.Internal.Correction>
   9.000000E+99

> <Gold.Chemscore.Hbonds>
donor molecule, donor type, donor heavy atom, donor atom, acceptor molecule, acceptor atom, score
      L1  H    15    53       P1  7948  0.98
      P1  H  7997  8008       L1     1  1.00

> <Gold.Chemscore.Hbond.Weighted>
-6.5016

> <Gold.Chemscore.Metal.Weighted>
-0.0000

> <Gold.Chemscore.Lipo.Weighted>
-14.4285

> <Gold.Chemscore.Internal_Hbond.Weighted>
0.0000

> <Gold.Chemscore.DEClash.Weighted>
0.2961

> <Gold.Chemscore.DEInternal.Weighted>
1.1850

> <Gold.Chemscore.Rot.Weighted>
3.5152

> <Gold.Chemscore.Internal.Correction.Weighted>
   9.000000E+99

> <Gold.Protein.RotatedTorsions>
[ 6907 6896 6895 6894 ] final  -34.96 input  -60.11 | X-H torsion
[ 7974 7965 7964 7962 ] final  -33.98 input  175.53 | X-H torsion
[ 8008 7997 7996 7995 ] final  -46.83 input   59.86 | X-H torsion
[ 10167 10162 10161 10158 ] final  -10.32 input  -65.29 | X-H torsion
[ 10718 10713 10712 10709 ] final  -96.27 input   66.30 | X-H torsion
[ 10763 10752 10751 10750 ] final    0.67 input  -60.55 | X-H torsion
[ 11005 11000 10999 10996 ] final  101.34 input  -57.11 | X-H torsion

> <Gold.Protein.ActiveResidues>
 VAL166  LYS551  ARG553  GLY616  TRP617  ASP618  TYR619  PRO620  LYS621  CYS622 
 ASP623  PHE694  ASN695  SER759  ASP760  ASP761  ALA762  ILE779  LEU786  VAL792 
 PHE793  MET794  SER795  GLU796  ALA797  LYS798  CYS799  TRP800  GLU811  SER814 

> <Gold.Protein.RotatedAtoms>
  151.0459  134.9639  159.8185 H   0  0  0  0  0  0  0  0  0  0  0  0  # atno 6907 bound_to 6896
  152.5372  134.2599  159.8941 H   0  0  0  0  0  0  0  0  0  0  0  0  # atno 6908 bound_to 6896
  151.2613  133.4258  159.2650 H   0  0  0  0  0  0  0  0  0  0  0  0  # atno 6909 bound_to 6896
  146.0867  140.5982  142.8883 H   0  0  0  0  0  0  0  0  0  0  0  0  # atno 7974 bound_to 7965
  154.4011  140.1362  156.4075 H   0  0  0  0  0  0  0  0  0  0  0  0  # atno 8008 bound_to 7997
  155.7765  140.3482  155.5254 H   0  0  0  0  0  0  0  0  0  0  0  0  # atno 8009 bound_to 7997
  155.8715  140.0972  157.1537 H   0  0  0  0  0  0  0  0  0  0  0  0  # atno 8010 bound_to 7997
  140.7111  143.5761  150.9041 H   0  0  0  0  0  0  0  0  0  0  0  0  # atno 10167 bound_to 10162
  156.0059  130.5144  150.6201 H   0  0  0  0  0  0  0  0  0  0  0  0  # atno 10718 bound_to 10713
  153.3177  135.6967  153.7058 H   0  0  0  0  0  0  0  0  0  0  0  0  # atno 10763 bound_to 10752
  153.5910  135.3480  155.2911 H   0  0  0  0  0  0  0  0  0  0  0  0  # atno 10764 bound_to 10752
  154.8590  135.4318  154.2333 H   0  0  0  0  0  0  0  0  0  0  0  0  # atno 10765 bound_to 10752
  139.8773  134.9179  156.4892 H   0  0  0  0  0  0  0  0  0  0  0  0  # atno 11005 bound_to 11000
  144.7331  140.4729  143.6924 LP  0  0  0  0  0  0  0  0  0  0  0  0  # atno 17320 bound_to 7965
  145.6117  139.1514  143.3072 LP  0  0  0  0  0  0  0  0  0  0  0  0  # atno 17321 bound_to 7965
  139.9487  143.6298  152.3035 LP  0  0  0  0  0  0  0  0  0  0  0  0  # atno 17342 bound_to 10162
  139.6808  144.7655  151.1612 LP  0  0  0  0  0  0  0  0  0  0  0  0  # atno 17343 bound_to 10162
  157.4018  131.0811  151.1302 LP  0  0  0  0  0  0  0  0  0  0  0  0  # atno 17370 bound_to 10713
  157.1961  130.6373  149.5721 LP  0  0  0  0  0  0  0  0  0  0  0  0  # atno 17371 bound_to 10713
  140.8671  133.8016  155.9325 LP  0  0  0  0  0  0  0  0  0  0  0  0  # atno 17394 bound_to 11000
  140.8991  134.2401  157.5052 LP  0  0  0  0  0  0  0  0  0  0  0  0  # atno 17395 bound_to 11000

$$$$
