AV-unprocessed.smi:1251|AV-procd|sdf|5262|dock4
  -GOLD-   22720 4373D 1   1.00000     0.00000
 Structure written by MMmdl.
 38 39  0  0  0  0  0  0  0  0  2 V2000
  151.9074  143.1950  159.8285 C   0  0  0  0  0  0  0  0  0  0  0  0
  153.1556  142.3329  160.0450 C   0  0  0  0  0  0  0  0  0  0  0  0
  152.8936  140.8419  159.7907 C   0  0  0  0  0  0  0  0  0  0  0  0
  152.4644  140.5674  158.3882 C   0  0  0  0  0  0  0  0  0  0  0  0
  153.1817  139.8217  157.5439 N   0  0  0  0  0  0  0  0  0  0  0  0
  152.5620  139.6862  156.3103 N   0  0  0  0  0  0  0  0  0  0  0  0
  151.3845  140.3231  156.2404 C   0  0  0  0  0  0  0  0  0  0  0  0
  150.6229  140.3086  155.1342 N   0  5  0  0  0  0  0  0  0  0  0  0
  149.2771  140.3955  155.2382 C   0  0  0  0  0  0  0  0  0  0  0  0
  148.6329  140.5404  156.2797 O   0  0  0  0  0  0  0  0  0  0  0  0
  148.6402  140.3082  154.0620 N   0  0  0  0  0  0  0  0  0  0  0  0
  147.1956  140.3872  153.8483 C   0  0  2  0  0  0  0  0  0  0  0  0
  146.6070  141.5933  154.5980 C   0  0  0  0  0  0  0  0  0  0  0  0
  146.5199  139.0618  154.2556 C   0  0  1  0  0  0  0  0  0  0  0  0
  147.0538  137.8205  153.5182 C   0  0  0  0  0  0  0  0  0  0  0  0
  147.7087  136.9991  154.6114 C   0  0  0  0  0  0  0  0  0  0  0  0
  146.9180  137.4183  155.8413 C   0  0  0  0  0  0  0  0  0  0  0  0
  146.7328  138.8105  155.6449 O   0  0  0  0  0  0  0  0  0  0  0  0
  150.9376  141.1399  157.7380 S   0  0  0  0  0  0  0  0  0  0  0  0
  152.1262  144.2471  160.0118 H   0  0  0  0  0  0  0  0  0  0  0  0
  151.1034  142.8997  160.5032 H   0  0  0  0  0  0  0  0  0  0  0  0
  151.5388  143.1049  158.8064 H   0  0  0  0  0  0  0  0  0  0  0  0
  153.9519  142.6813  159.3862 H   0  0  0  0  0  0  0  0  0  0  0  0
  153.5158  142.4720  161.0649 H   0  0  0  0  0  0  0  0  0  0  0  0
  153.7942  140.2630  159.9964 H   0  0  0  0  0  0  0  0  0  0  0  0
  152.1247  140.4742  160.4713 H   0  0  0  0  0  0  0  0  0  0  0  0
  149.2104  140.1867  153.2378 H   0  0  0  0  0  0  0  0  0  0  0  0
  147.0028  140.5308  152.7838 H   0  0  0  0  0  0  0  0  0  0  0  0
  145.5327  141.6718  154.4313 H   0  0  0  0  0  0  0  0  0  0  0  0
  147.0603  142.5260  154.2608 H   0  0  0  0  0  0  0  0  0  0  0  0
  146.7729  141.5136  155.6728 H   0  0  0  0  0  0  0  0  0  0  0  0
  145.4449  139.1343  154.0839 H   0  0  0  0  0  0  0  0  0  0  0  0
  146.2220  137.2646  153.0841 H   0  0  0  0  0  0  0  0  0  0  0  0
  147.7468  138.0574  152.7099 H   0  0  0  0  0  0  0  0  0  0  0  0
  147.6718  135.9261  154.4229 H   0  0  0  0  0  0  0  0  0  0  0  0
  148.7535  137.2923  154.7232 H   0  0  0  0  0  0  0  0  0  0  0  0
  145.9475  136.9205  155.8695 H   0  0  0  0  0  0  0  0  0  0  0  0
  147.4427  137.2098  156.7738 H   0  0  0  0  0  0  0  0  0  0  0  0
  1  2  1  0  0  0  0
  1 20  1  0  0  0  0
  1 21  1  0  0  0  0
  1 22  1  0  0  0  0
  2  3  1  0  0  0  0
  2 23  1  0  0  0  0
  2 24  1  0  0  0  0
  3  4  1  0  0  0  0
  3 25  1  0  0  0  0
  3 26  1  0  0  0  0
  4 19  1  0  0  0  0
  4  5  2  0  0  0  0
  5  6  1  0  0  0  0
  6  7  2  0  0  0  0
  7  8  1  0  0  0  0
  7 19  1  0  0  0  0
  8  9  1  0  0  0  0
  9 10  2  0  0  0  0
  9 11  1  0  0  0  0
 11 12  1  0  0  0  0
 11 27  1  0  0  0  0
 12 13  1  0  0  0  0
 12 14  1  0  0  0  0
 12 28  1  0  0  0  0
 13 29  1  0  0  0  0
 13 30  1  0  0  0  0
 13 31  1  0  0  0  0
 14 18  1  0  0  0  0
 14 15  1  0  0  0  0
 14 32  1  0  0  0  0
 15 16  1  0  0  0  0
 15 33  1  0  0  0  0
 15 34  1  0  0  0  0
 16 17  1  0  0  0  0
 16 35  1  0  0  0  0
 16 36  1  0  0  0  0
 17 18  1  0  0  0  0
 17 37  1  0  0  0  0
 17 38  1  0  0  0  0
M  CHG  1   8  -1
M  END
> <s_m_source_file>
AV-unprocessed.smi

> <i_m_source_file_index>
1251

> <i_lp_mmshare_version>
43012

> <i_f3d_flags>
0

> <s_epik_input>
W0NIM11bQ0gyXVtDSDJdYzFubmMoczEpW05IXUMoPU8pW05IXVtDQEhdKFtDSDNdKVtDQEBIXTJbQ0gyXVtDSDJdW0NIMl1PMg==

> <s_epik_cmdline>
J2VwaWtfcHl0aG9uJywgJy1waCcsICc3LjAnLCAnLXRuJywgJzgnLCAnLW1hJywgJzIwMCcsICctbWV0YWxfYmluZGluZycsICctaW1hZScsICc8aW5maWxlLm1hZT4nLCAnLW9tYWUnLCAnPG91dGZpbGUubWFlPic=

> <r_lp_tautomer_probability>
1

> <r_epik_Ionization_Penalty>
4.22551

> <r_epik_Ionization_Penalty_Charging>
4.21437

> <r_epik_Ionization_Penalty_Neutral>
0.0111434

> <r_epik_State_Penalty>
4.21389

> <r_epik_Charging_Adjusted_Penalty>
8.42826

> <i_epik_Tot_Q>
-1

> <i_epik_Tot_abs_Q>
1

> <r_epik_Metal_State_Penalty>
0.69377

> <b_epik_Metal_Only>
1

> <s_lp_Force_Field>
OPLS_2005

> <r_lp_Energy>
12.7313

> <b_lp_Chiralities_Consistent>
1

> <s_lp_Variant>
AV-unprocessed.smi:1251-7

> <Gold.Version>
5.8.1

> <Gold.Id.Protein>
6NUR|6NUR_protein|mol2

> <Gold.PLP.Fitness>
39.5891

> <Gold.PLP.PLP>
-34.1767

> <Gold.PLP.part.hbond>
-4.0000

> <Gold.PLP.part.metal>
0.0000

> <Gold.PLP.part.buried>
-4.7966

> <Gold.PLP.part.nonpolar>
-26.1579

> <Gold.PLP.part.repulsive>
0.3566

> <Gold.PLP.ligand.clash>
0.0000

> <Gold.PLP.ligand.torsion>
0.3881

> <Gold.PLP.Chemscore.Hbond>
2.0000

> <Gold.PLP.Chemscore.CHOScore>
0.0000

> <Gold.PLP.Chemscore.Metal>
0.0000

> <Gold.Chemscore.Hbonds>
donor molecule, donor type, donor heavy atom, donor atom, acceptor molecule, acceptor atom, score
      L1  H    11    27       P1  7957  0.78
      P1  H  7989  7998       L1     8  1.00

> <Gold.PLP.Chemscore.Internal.Correction>
0.1886

> <Gold.Rescore>
     Score         DG    S(hbond)    S(metal)    S(lipo)     H(rot)  DE(clash)    DE(int)     intcor
     11.27     -16.15       1.73        0.00      75.74       1.55       0.19       4.69       ----

> <Gold.Chemscore.Fitness>
11.2719

> <Gold.Chemscore.DG>
-16.1495

> <Gold.Chemscore.ZeroCoef>
-5.4800

> <Gold.Chemscore.Hbond>
1.7270

> <Gold.Chemscore.Metal>
0.0000

> <Gold.Chemscore.Lipo>
75.7379

> <Gold.Chemscore.Internal_Hbond>
0.0000

> <Gold.Chemscore.DEClash>
0.1874

> <Gold.Chemscore.DEInternal>
4.6902

> <Gold.Chemscore.Rot>
1.5469

> <Gold.Chemscore.Internal.Correction>
   9.000000E+99

> <Gold.Chemscore.Hbonds>
donor molecule, donor type, donor heavy atom, donor atom, acceptor molecule, acceptor atom, score
      L1  H    11    27       P1  7957  0.76
      P1  H  7989  7998       L1     8  0.80

> <Gold.Chemscore.Hbond.Weighted>
-5.7682

> <Gold.Chemscore.Metal.Weighted>
-0.0000

> <Gold.Chemscore.Lipo.Weighted>
-8.8613

> <Gold.Chemscore.Internal_Hbond.Weighted>
0.0000

> <Gold.Chemscore.DEClash.Weighted>
0.1874

> <Gold.Chemscore.DEInternal.Weighted>
4.6902

> <Gold.Chemscore.Rot.Weighted>
3.9600

> <Gold.Chemscore.Internal.Correction.Weighted>
   9.000000E+99

> <Gold.Protein.RotatedTorsions>
[ 6907 6896 6895 6894 ] final  -70.72 input  -60.11 | X-H torsion
[ 7974 7965 7964 7962 ] final   15.18 input  175.53 | X-H torsion
[ 8008 7997 7996 7995 ] final  -43.48 input   59.86 | X-H torsion
[ 10167 10162 10161 10158 ] final   51.08 input  -65.29 | X-H torsion
[ 10718 10713 10712 10709 ] final  -87.36 input   66.30 | X-H torsion
[ 10763 10752 10751 10750 ] final   89.38 input  -60.55 | X-H torsion
[ 11005 11000 10999 10996 ] final   89.84 input  -57.11 | X-H torsion

> <Gold.Protein.ActiveResidues>
 VAL166  LYS551  ARG553  GLY616  TRP617  ASP618  TYR619  PRO620  LYS621  CYS622 
 ASP623  PHE694  ASN695  SER759  ASP760  ASP761  ALA762  ILE779  LEU786  VAL792 
 PHE793  MET794  SER795  GLU796  ALA797  LYS798  CYS799  TRP800  GLU811  SER814 

> <Gold.Protein.RotatedAtoms>
  150.7245  134.5413  159.5748 H   0  0  0  0  0  0  0  0  0  0  0  0  # atno 6907 bound_to 6896
  152.2923  134.7705  160.0384 H   0  0  0  0  0  0  0  0  0  0  0  0  # atno 6908 bound_to 6896
  151.8314  133.3373  159.3651 H   0  0  0  0  0  0  0  0  0  0  0  0  # atno 6909 bound_to 6896
  146.2285  139.8931  142.8551 H   0  0  0  0  0  0  0  0  0  0  0  0  # atno 7974 bound_to 7965
  154.3997  140.1447  156.3526 H   0  0  0  0  0  0  0  0  0  0  0  0  # atno 8008 bound_to 7997
  155.8255  140.3468  155.5519 H   0  0  0  0  0  0  0  0  0  0  0  0  # atno 8009 bound_to 7997
  155.8243  140.0902  157.1821 H   0  0  0  0  0  0  0  0  0  0  0  0  # atno 8010 bound_to 7997
  140.2657  144.3323  150.6305 H   0  0  0  0  0  0  0  0  0  0  0  0  # atno 10167 bound_to 10162
  155.9986  130.4797  150.4855 H   0  0  0  0  0  0  0  0  0  0  0  0  # atno 10718 bound_to 10713
  153.1865  135.4472  155.0095 H   0  0  0  0  0  0  0  0  0  0  0  0  # atno 10763 bound_to 10752
  154.8063  135.3276  154.7424 H   0  0  0  0  0  0  0  0  0  0  0  0  # atno 10764 bound_to 10752
  153.7883  135.6972  153.4931 H   0  0  0  0  0  0  0  0  0  0  0  0  # atno 10765 bound_to 10752
  139.8867  134.8577  156.3200 H   0  0  0  0  0  0  0  0  0  0  0  0  # atno 11005 bound_to 11000
  145.2397  141.0005  143.3943 LP  0  0  0  0  0  0  0  0  0  0  0  0  # atno 17320 bound_to 7965
  144.9462  139.4134  143.6425 LP  0  0  0  0  0  0  0  0  0  0  0  0  # atno 17321 bound_to 7965
  140.5930  143.2167  151.7217 LP  0  0  0  0  0  0  0  0  0  0  0  0  # atno 17342 bound_to 10162
  139.5003  144.3910  152.0280 LP  0  0  0  0  0  0  0  0  0  0  0  0  # atno 17343 bound_to 10162
  157.2856  131.0615  151.2169 LP  0  0  0  0  0  0  0  0  0  0  0  0  # atno 17370 bound_to 10713
  157.3200  130.6932  149.6263 LP  0  0  0  0  0  0  0  0  0  0  0  0  # atno 17371 bound_to 10713
  140.9793  133.7277  156.0649 LP  0  0  0  0  0  0  0  0  0  0  0  0  # atno 17394 bound_to 11000
  140.7770  134.3769  157.5496 LP  0  0  0  0  0  0  0  0  0  0  0  0  # atno 17395 bound_to 11000

$$$$
