AV-unprocessed.smi:2630|AV-procd|sdf|10246|dock1
  -GOLD-   2272014253D 1   1.00000     0.00000
 Structure written by MMmdl.
 35 36  0  0  0  0  0  0  0  0  1 V2000
  144.3519  144.7921  154.0655 C   0  0  0  0  0  0  0  0  0  0  0  0
  144.5992  143.6134  154.8106 O   0  0  0  0  0  0  0  0  0  0  0  0
  145.9817  143.3127  154.9108 C   0  0  0  0  0  0  0  0  0  0  0  0
  146.1729  142.0468  155.7628 C   0  0  0  0  0  0  0  0  0  0  0  0
  147.4894  141.4582  155.6161 N   0  0  0  0  0  0  0  0  0  0  0  0
  148.3572  141.2185  156.6849 C   0  0  0  0  0  0  0  0  0  0  0  0
  147.9522  141.5433  157.9685 N   0  0  0  0  0  0  0  0  0  0  0  0
  149.5920  140.6915  156.4781 C   0  0  0  0  0  0  0  0  0  0  0  0
  150.7961  140.3659  157.7440 S   0  0  0  0  0  0  0  0  0  0  0  0
  151.2889  142.0042  158.1712 C   0  0  0  0  0  0  0  0  0  0  0  0
  151.0811  143.0611  157.2622 C   0  0  0  0  0  0  0  0  0  0  0  0
  151.4835  144.3676  157.6012 C   0  0  0  0  0  0  0  0  0  0  0  0
  152.0901  144.6169  158.8479 C   0  0  0  0  0  0  0  0  0  0  0  0
  152.2956  143.5597  159.7565 C   0  0  0  0  0  0  0  0  0  0  0  0
  151.8947  142.2522  159.4189 C   0  0  0  0  0  0  0  0  0  0  0  0
  150.0811  140.3419  155.1427 C   0  0  0  0  0  0  0  0  0  0  0  0
  151.1743  139.8491  154.8651 O   0  0  0  0  0  0  0  0  0  0  0  0
  149.1729  140.6209  154.1218 N   0  0  0  0  0  0  0  0  0  0  0  0
  147.9033  141.1713  154.2905 C   0  0  0  0  0  0  0  0  0  0  0  0
  147.2032  141.3869  153.3006 O   0  0  0  0  0  0  0  0  0  0  0  0
  149.4618  140.4104  153.1776 H   0  0  0  0  0  0  0  0  0  0  0  0
  143.2790  144.9782  154.0190 H   0  0  0  0  0  0  0  0  0  0  0  0
  144.7222  144.6985  153.0437 H   0  0  0  0  0  0  0  0  0  0  0  0
  144.8234  145.6582  154.5319 H   0  0  0  0  0  0  0  0  0  0  0  0
  146.3896  143.1443  153.9134 H   0  0  0  0  0  0  0  0  0  0  0  0
  146.5248  144.1541  155.3438 H   0  0  0  0  0  0  0  0  0  0  0  0
  146.0199  142.2503  156.8219 H   0  0  0  0  0  0  0  0  0  0  0  0
  145.4403  141.2778  155.5124 H   0  0  0  0  0  0  0  0  0  0  0  0
  147.0457  141.9489  158.1518 H   0  0  0  0  0  0  0  0  0  0  0  0
  148.5028  141.2940  158.7776 H   0  0  0  0  0  0  0  0  0  0  0  0
  150.6180  142.8735  156.3047 H   0  0  0  0  0  0  0  0  0  0  0  0
  151.3273  145.1781  156.9047 H   0  0  0  0  0  0  0  0  0  0  0  0
  152.3981  145.6192  159.1070 H   0  0  0  0  0  0  0  0  0  0  0  0
  152.7616  143.7514  160.7118 H   0  0  0  0  0  0  0  0  0  0  0  0
  152.0565  141.4424  160.1153 H   0  0  0  0  0  0  0  0  0  0  0  0
  1  2  1  0  0  0  0
  1 22  1  0  0  0  0
  1 23  1  0  0  0  0
  1 24  1  0  0  0  0
  2  3  1  0  0  0  0
  3  4  1  0  0  0  0
  3 25  1  0  0  0  0
  3 26  1  0  0  0  0
  4  5  1  0  0  0  0
  4 27  1  0  0  0  0
  4 28  1  0  0  0  0
  5 19  1  0  0  0  0
  5  6  1  0  0  0  0
  6  7  1  0  0  0  0
  6  8  2  0  0  0  0
  7 29  1  0  0  0  0
  7 30  1  0  0  0  0
  8  9  1  0  0  0  0
  8 16  1  0  0  0  0
  9 10  1  0  0  0  0
 10 15  1  0  0  0  0
 10 11  2  0  0  0  0
 11 12  1  0  0  0  0
 11 31  1  0  0  0  0
 12 13  2  0  0  0  0
 12 32  1  0  0  0  0
 13 14  1  0  0  0  0
 13 33  1  0  0  0  0
 14 15  2  0  0  0  0
 14 34  1  0  0  0  0
 15 35  1  0  0  0  0
 16 17  2  0  0  0  0
 16 18  1  0  0  0  0
 18 21  1  0  0  0  0
 18 19  1  0  0  0  0
 19 20  2  0  0  0  0
M  END
> <s_m_source_file>
AV-unprocessed.smi

> <i_m_source_file_index>
2630

> <i_lp_mmshare_version>
43012

> <i_f3d_flags>
0

> <s_epik_input>
W0NIM11PW0NIMl1bQ0gyXW4xYyhbTkgyXSljKGMoPU8pW25IXWMxPU8pU2MyW2NIXVtjSF1bY0hdW2NIXVtjSF0y

> <s_epik_cmdline>
J2VwaWtfcHl0aG9uJywgJy1waCcsICc3LjAnLCAnLXRuJywgJzgnLCAnLW1hJywgJzIwMCcsICctbWV0YWxfYmluZGluZycsICctaW1hZScsICc8aW5maWxlLm1hZT4nLCAnLW9tYWUnLCAnPG91dGZpbGUubWFlPic=

> <r_lp_tautomer_probability>
1

> <r_epik_Ionization_Penalty>
1.3786e-05

> <r_epik_Ionization_Penalty_Charging>
1.17844e-05

> <r_epik_Ionization_Penalty_Neutral>
2.00164e-06

> <r_epik_State_Penalty>
-0

> <r_epik_Charging_Adjusted_Penalty>
1.17844e-05

> <i_epik_Tot_Q>
0

> <i_epik_Tot_abs_Q>
0

> <r_epik_Metal_State_Penalty>
0.0115847

> <b_epik_Metal_Only>
0

> <s_epik_Chemistry_Notes>
This compound has an imine and may undergo hydrolysis.

> <s_lp_Force_Field>
OPLS_2005

> <r_lp_Energy>
18.8348

> <b_lp_Chiralities_Consistent>
1

> <s_lp_Variant>
AV-unprocessed.smi:2630-1

> <Gold.Version>
5.8.1

> <Gold.Id.Protein>
6NUR|6NUR_protein|mol2

> <Gold.PLP.Fitness>
42.5827

> <Gold.PLP.PLP>
-37.5718

> <Gold.PLP.part.hbond>
-2.0000

> <Gold.PLP.part.metal>
0.0000

> <Gold.PLP.part.buried>
-4.4188

> <Gold.PLP.part.nonpolar>
-31.8281

> <Gold.PLP.part.repulsive>
0.7537

> <Gold.PLP.ligand.clash>
0.0000

> <Gold.PLP.ligand.torsion>
0.5184

> <Gold.PLP.Chemscore.Hbond>
2.0000

> <Gold.PLP.Chemscore.CHOScore>
0.0000

> <Gold.PLP.Chemscore.Metal>
0.0000

> <Gold.Chemscore.Hbonds>
donor molecule, donor type, donor heavy atom, donor atom, acceptor molecule, acceptor atom, score
      L1  H    18    21       P1  7957  0.94
      P1  H  7989  7998       L1    17  1.00

> <Gold.PLP.Chemscore.Internal.Correction>
0.0477

> <Gold.Rescore>
     Score         DG    S(hbond)    S(metal)    S(lipo)     H(rot)  DE(clash)    DE(int)     intcor
     14.29     -16.02       1.65        0.00      88.17       2.07       0.07       1.66       ----

> <Gold.Chemscore.Fitness>
14.2930

> <Gold.Chemscore.DG>
-16.0155

> <Gold.Chemscore.ZeroCoef>
-5.4800

> <Gold.Chemscore.Hbond>
1.6508

> <Gold.Chemscore.Metal>
0.0000

> <Gold.Chemscore.Lipo>
88.1713

> <Gold.Chemscore.Internal_Hbond>
0.0000

> <Gold.Chemscore.DEClash>
0.0669

> <Gold.Chemscore.DEInternal>
1.6556

> <Gold.Chemscore.Rot>
2.0680

> <Gold.Chemscore.Internal.Correction>
   9.000000E+99

> <Gold.Chemscore.Hbonds>
donor molecule, donor type, donor heavy atom, donor atom, acceptor molecule, acceptor atom, score
      L1  H    18    21       P1  7957  0.90
      P1  H  7989  7998       L1    17  0.26

> <Gold.Chemscore.Hbond.Weighted>
-5.5136

> <Gold.Chemscore.Metal.Weighted>
-0.0000

> <Gold.Chemscore.Lipo.Weighted>
-10.3160

> <Gold.Chemscore.Internal_Hbond.Weighted>
0.0000

> <Gold.Chemscore.DEClash.Weighted>
0.0669

> <Gold.Chemscore.DEInternal.Weighted>
1.6556

> <Gold.Chemscore.Rot.Weighted>
5.2941

> <Gold.Chemscore.Internal.Correction.Weighted>
   9.000000E+99

> <Gold.Protein.RotatedTorsions>
[ 6907 6896 6895 6894 ] final   54.79 input  -60.11 | X-H torsion
[ 7974 7965 7964 7962 ] final   62.80 input  175.53 | X-H torsion
[ 8008 7997 7996 7995 ] final   74.85 input   59.86 | X-H torsion
[ 10167 10162 10161 10158 ] final -162.39 input  -65.29 | X-H torsion
[ 10718 10713 10712 10709 ] final  137.97 input   66.30 | X-H torsion
[ 10763 10752 10751 10750 ] final  -42.09 input  -60.55 | X-H torsion
[ 11005 11000 10999 10996 ] final -129.87 input  -57.11 | X-H torsion

> <Gold.Protein.ActiveResidues>
 VAL166  LYS551  ARG553  GLY616  TRP617  ASP618  TYR619  PRO620  LYS621  CYS622 
 ASP623  PHE694  ASN695  SER759  ASP760  ASP761  ALA762  ILE779  LEU786  VAL792 
 PHE793  MET794  SER795  GLU796  ALA797  LYS798  CYS799  TRP800  GLU811  SER814 

> <Gold.Protein.RotatedAtoms>
  152.3474  134.7053  160.0246 H   0  0  0  0  0  0  0  0  0  0  0  0  # atno 6907 bound_to 6896
  151.7418  133.3317  159.3376 H   0  0  0  0  0  0  0  0  0  0  0  0  # atno 6908 bound_to 6896
  150.7518  134.6204  159.6178 H   0  0  0  0  0  0  0  0  0  0  0  0  # atno 6909 bound_to 6896
  145.8692  139.3366  143.0772 H   0  0  0  0  0  0  0  0  0  0  0  0  # atno 7974 bound_to 7965
  155.8043  140.3475  155.5421 H   0  0  0  0  0  0  0  0  0  0  0  0  # atno 8008 bound_to 7997
  155.8506  140.0955  157.1698 H   0  0  0  0  0  0  0  0  0  0  0  0  # atno 8009 bound_to 7997
  154.4007  140.1377  156.3826 H   0  0  0  0  0  0  0  0  0  0  0  0  # atno 8010 bound_to 7997
  139.6395  144.0286  152.2081 H   0  0  0  0  0  0  0  0  0  0  0  0  # atno 10167 bound_to 10162
  157.4304  131.1048  151.0256 H   0  0  0  0  0  0  0  0  0  0  0  0  # atno 10718 bound_to 10713
  153.9733  135.6726  153.4747 H   0  0  0  0  0  0  0  0  0  0  0  0  # atno 10763 bound_to 10752
  153.0783  135.4937  154.8446 H   0  0  0  0  0  0  0  0  0  0  0  0  # atno 10764 bound_to 10752
  154.7207  135.3116  154.9013 H   0  0  0  0  0  0  0  0  0  0  0  0  # atno 10765 bound_to 10752
  140.9394  134.1213  157.4164 H   0  0  0  0  0  0  0  0  0  0  0  0  # atno 11005 bound_to 11000
  145.9156  140.9150  143.0431 LP  0  0  0  0  0  0  0  0  0  0  0  0  # atno 17320 bound_to 7965
  144.6726  140.1220  143.7449 LP  0  0  0  0  0  0  0  0  0  0  0  0  # atno 17321 bound_to 7965
  139.9972  144.6320  150.7762 LP  0  0  0  0  0  0  0  0  0  0  0  0  # atno 17342 bound_to 10162
  140.7483  143.2921  151.3303 LP  0  0  0  0  0  0  0  0  0  0  0  0  # atno 17343 bound_to 10162
  157.1155  130.6039  149.5492 LP  0  0  0  0  0  0  0  0  0  0  0  0  # atno 17370 bound_to 10713
  155.9911  130.4965  150.7285 LP  0  0  0  0  0  0  0  0  0  0  0  0  # atno 17371 bound_to 10713
  139.8816  135.0031  156.6170 LP  0  0  0  0  0  0  0  0  0  0  0  0  # atno 17394 bound_to 11000
  140.7754  133.8703  155.8525 LP  0  0  0  0  0  0  0  0  0  0  0  0  # atno 17395 bound_to 11000

$$$$
