AV-unprocessed.smi:952|AV-procd|sdf|4256|dock10
  -GOLD-   22720 2163D 1   1.00000     0.00000
 Structure written by MMmdl.
 35 35  0  0  0  0  0  0  0  0  1 V2000
  145.5170  133.2694  150.7760 C   0  0  0  0  0  0  0  0  0  0  0  0
  144.5193  134.4209  150.9377 C   0  0  0  0  0  0  0  0  0  0  0  0
  145.1986  135.7988  150.8796 C   0  0  0  0  0  0  0  0  0  0  0  0
  145.9841  136.0598  152.0800 N   0  0  0  0  0  0  0  0  0  0  0  0
  145.4742  136.3318  153.2909 C   0  0  0  0  0  0  0  0  0  0  0  0
  144.2647  136.4073  153.5127 O   0  0  0  0  0  0  0  0  0  0  0  0
  146.4937  136.5734  154.4110 C   0  0  0  0  0  0  0  0  0  0  0  0
  147.5288  137.5358  154.0427 N   0  0  0  0  0  0  0  0  0  0  0  0
  147.7389  138.7172  154.6459 C   0  0  0  0  0  0  0  0  0  0  0  0
  147.0698  139.1121  155.6019 O   0  0  0  0  0  0  0  0  0  0  0  0
  148.8819  139.5736  154.0791 C   0  0  1  0  0  0  0  0  0  0  0  0
  148.7165  141.0723  154.3911 C   0  0  0  0  0  0  0  0  0  0  0  0
  150.1687  139.0803  154.5525 N   0  0  0  0  0  0  0  0  0  0  0  0
  150.6625  137.7899  154.5366 C   0  0  0  0  0  0  0  0  0  0  0  0
  151.9095  137.8218  155.0914 C   0  0  0  0  0  0  0  0  0  0  0  0
  152.0953  139.1921  155.4247 C   0  0  0  0  0  0  0  0  0  0  0  0
  151.0530  139.9412  155.1034 N   0  0  0  0  0  0  0  0  0  0  0  0
  145.0097  132.3059  150.8300 H   0  0  0  0  0  0  0  0  0  0  0  0
  146.2751  133.2913  151.5596 H   0  0  0  0  0  0  0  0  0  0  0  0
  146.0267  133.3234  149.8135 H   0  0  0  0  0  0  0  0  0  0  0  0
  143.7620  134.3469  150.1563 H   0  0  0  0  0  0  0  0  0  0  0  0
  143.9941  134.3107  151.8873 H   0  0  0  0  0  0  0  0  0  0  0  0
  145.8689  135.8459  150.0207 H   0  0  0  0  0  0  0  0  0  0  0  0
  144.4566  136.5865  150.7374 H   0  0  0  0  0  0  0  0  0  0  0  0
  146.9888  136.0223  151.9854 H   0  0  0  0  0  0  0  0  0  0  0  0
  145.9843  136.9022  155.3189 H   0  0  0  0  0  0  0  0  0  0  0  0
  146.9767  135.6257  154.6491 H   0  0  0  0  0  0  0  0  0  0  0  0
  148.1226  137.2904  153.2637 H   0  0  0  0  0  0  0  0  0  0  0  0
  148.8553  139.4647  152.9927 H   0  0  0  0  0  0  0  0  0  0  0  0
  147.7584  141.4478  154.0300 H   0  0  0  0  0  0  0  0  0  0  0  0
  149.4991  141.6571  153.9072 H   0  0  0  0  0  0  0  0  0  0  0  0
  148.7710  141.2723  155.4620 H   0  0  0  0  0  0  0  0  0  0  0  0
  150.0912  136.9659  154.1350 H   0  0  0  0  0  0  0  0  0  0  0  0
  152.5855  136.9925  155.2377 H   0  0  0  0  0  0  0  0  0  0  0  0
  152.9505  139.6617  155.8882 H   0  0  0  0  0  0  0  0  0  0  0  0
  1  2  1  0  0  0  0
  1 18  1  0  0  0  0
  1 19  1  0  0  0  0
  1 20  1  0  0  0  0
  2  3  1  0  0  0  0
  2 21  1  0  0  0  0
  2 22  1  0  0  0  0
  3  4  1  0  0  0  0
  3 23  1  0  0  0  0
  3 24  1  0  0  0  0
  4  5  1  0  0  0  0
  4 25  1  0  0  0  0
  5  6  2  0  0  0  0
  5  7  1  0  0  0  0
  7  8  1  0  0  0  0
  7 26  1  0  0  0  0
  7 27  1  0  0  0  0
  8  9  1  0  0  0  0
  8 28  1  0  0  0  0
  9 10  2  0  0  0  0
  9 11  1  0  0  0  0
 11 12  1  0  0  0  0
 11 13  1  0  0  0  0
 11 29  1  0  0  0  0
 12 30  1  0  0  0  0
 12 31  1  0  0  0  0
 12 32  1  0  0  0  0
 13 17  1  0  0  0  0
 13 14  1  0  0  0  0
 14 15  2  0  0  0  0
 14 33  1  0  0  0  0
 15 16  1  0  0  0  0
 15 34  1  0  0  0  0
 16 17  2  0  0  0  0
 16 35  1  0  0  0  0
M  END
> <s_m_source_file>
AV-unprocessed.smi

> <i_m_source_file_index>
952

> <i_lp_mmshare_version>
43012

> <i_f3d_flags>
0

> <s_epik_input>
W0NIM11bQ0gyXVtDSDJdW05IXUMoPU8pW0NIMl1bTkhdQyg9TylbQ0BIXShbQ0gzXSluMVtjSF1bY0hdW2NIXW4x

> <s_epik_cmdline>
J2VwaWtfcHl0aG9uJywgJy1waCcsICc3LjAnLCAnLXRuJywgJzgnLCAnLW1hJywgJzIwMCcsICctbWV0YWxfYmluZGluZycsICctaW1hZScsICc8aW5maWxlLm1hZT4nLCAnLW9tYWUnLCAnPG91dGZpbGUubWFlPic=

> <r_lp_tautomer_probability>
1

> <r_epik_Ionization_Penalty>
2.62173e-05

> <r_epik_Ionization_Penalty_Charging>
0

> <r_epik_Ionization_Penalty_Neutral>
2.62173e-05

> <r_epik_State_Penalty>
-0

> <r_epik_Charging_Adjusted_Penalty>
0

> <i_epik_Tot_Q>
0

> <i_epik_Tot_abs_Q>
0

> <r_epik_Metal_State_Penalty>
-0

> <b_epik_Metal_Only>
0

> <s_lp_Force_Field>
OPLS_2005

> <r_lp_Energy>
2.421

> <b_lp_Chiralities_Consistent>
1

> <s_lp_Variant>
AV-unprocessed.smi:952-2

> <Gold.Version>
5.8.1

> <Gold.Id.Protein>
6NUR|6NUR_protein|mol2

> <Gold.PLP.Fitness>
40.1880

> <Gold.PLP.PLP>
-29.8206

> <Gold.PLP.part.hbond>
-3.0000

> <Gold.PLP.part.metal>
0.0000

> <Gold.PLP.part.buried>
-3.1551

> <Gold.PLP.part.nonpolar>
-25.3404

> <Gold.PLP.part.repulsive>
0.1546

> <Gold.PLP.ligand.clash>
0.0000

> <Gold.PLP.ligand.torsion>
0.8935

> <Gold.PLP.Chemscore.Hbond>
3.0000

> <Gold.PLP.Chemscore.CHOScore>
1.0229

> <Gold.PLP.Chemscore.Metal>
0.0000

> <Gold.Chemscore.Hbonds>
donor molecule, donor type, donor heavy atom, donor atom, acceptor molecule, acceptor atom, score
      L1  H     4    25       P1  7948  1.00
      L1  H     8    28       P1  7948  1.00
      P1  H  7989  7998       L1    17  1.00
      L1  C    14    33       P1  7948  0.80

> <Gold.PLP.Chemscore.Internal.Correction>
0.0856

> <Gold.Rescore>
     Score         DG    S(hbond)    S(metal)    S(lipo)     H(rot)  DE(clash)    DE(int)     intcor
     12.73     -13.29       1.94        0.00      60.23       2.24       0.03       0.53       ----

> <Gold.Chemscore.Fitness>
12.7261

> <Gold.Chemscore.DG>
-13.2923

> <Gold.Chemscore.ZeroCoef>
-5.4800

> <Gold.Chemscore.Hbond>
1.9434

> <Gold.Chemscore.Metal>
0.0000

> <Gold.Chemscore.Lipo>
60.2254

> <Gold.Chemscore.Internal_Hbond>
0.0000

> <Gold.Chemscore.DEClash>
0.0328

> <Gold.Chemscore.DEInternal>
0.5334

> <Gold.Chemscore.Rot>
2.2364

> <Gold.Chemscore.Internal.Correction>
   9.000000E+99

> <Gold.Chemscore.Hbonds>
donor molecule, donor type, donor heavy atom, donor atom, acceptor molecule, acceptor atom, score
      L1  H     4    25       P1  7948  0.99
      L1  H     8    28       P1  7948  0.99
      P1  H  7989  7998       L1    17  0.10

> <Gold.Chemscore.Hbond.Weighted>
-6.4910

> <Gold.Chemscore.Metal.Weighted>
-0.0000

> <Gold.Chemscore.Lipo.Weighted>
-7.0464

> <Gold.Chemscore.Internal_Hbond.Weighted>
0.0000

> <Gold.Chemscore.DEClash.Weighted>
0.0328

> <Gold.Chemscore.DEInternal.Weighted>
0.5334

> <Gold.Chemscore.Rot.Weighted>
5.7251

> <Gold.Chemscore.Internal.Correction.Weighted>
   9.000000E+99

> <Gold.Protein.RotatedTorsions>
[ 6907 6896 6895 6894 ] final  -71.07 input  -60.11 | X-H torsion
[ 7974 7965 7964 7962 ] final -159.87 input  175.53 | X-H torsion
[ 8008 7997 7996 7995 ] final   94.03 input   59.86 | X-H torsion
[ 10167 10162 10161 10158 ] final  -39.19 input  -65.29 | X-H torsion
[ 10718 10713 10712 10709 ] final  161.97 input   66.30 | X-H torsion
[ 10763 10752 10751 10750 ] final   20.11 input  -60.55 | X-H torsion
[ 11005 11000 10999 10996 ] final  -94.37 input  -57.11 | X-H torsion

> <Gold.Protein.ActiveResidues>
 VAL166  LYS551  ARG553  GLY616  TRP617  ASP618  TYR619  PRO620  LYS621  CYS622 
 ASP623  PHE694  ASN695  SER759  ASP760  ASP761  ALA762  ILE779  LEU786  VAL792 
 PHE793  MET794  SER795  GLU796  ALA797  LYS798  CYS799  TRP800  GLU811  SER814 

> <Gold.Protein.RotatedAtoms>
  150.7229  134.5362  159.5724 H   0  0  0  0  0  0  0  0  0  0  0  0  # atno 6907 bound_to 6896
  152.2883  134.7747  160.0392 H   0  0  0  0  0  0  0  0  0  0  0  0  # atno 6908 bound_to 6896
  151.8369  133.3382  159.3667 H   0  0  0  0  0  0  0  0  0  0  0  0  # atno 6909 bound_to 6896
  144.7449  140.3624  143.6093 H   0  0  0  0  0  0  0  0  0  0  0  0  # atno 7974 bound_to 7965
  156.0533  140.3305  155.7377 H   0  0  0  0  0  0  0  0  0  0  0  0  # atno 8008 bound_to 7997
  155.5567  140.0615  157.2855 H   0  0  0  0  0  0  0  0  0  0  0  0  # atno 8009 bound_to 7997
  154.4446  140.1884  156.0729 H   0  0  0  0  0  0  0  0  0  0  0  0  # atno 8010 bound_to 7997
  140.7071  143.3230  151.2747 H   0  0  0  0  0  0  0  0  0  0  0  0  # atno 10167 bound_to 10162
  157.1291  131.0512  151.2380 H   0  0  0  0  0  0  0  0  0  0  0  0  # atno 10718 bound_to 10713
  153.1105  135.6695  153.9509 H   0  0  0  0  0  0  0  0  0  0  0  0  # atno 10763 bound_to 10752
  153.9054  135.3031  155.3450 H   0  0  0  0  0  0  0  0  0  0  0  0  # atno 10764 bound_to 10752
  154.7525  135.5028  153.9391 H   0  0  0  0  0  0  0  0  0  0  0  0  # atno 10765 bound_to 10752
  141.1472  133.7952  157.0289 H   0  0  0  0  0  0  0  0  0  0  0  0  # atno 11005 bound_to 11000
  145.7164  139.1698  143.2510 LP  0  0  0  0  0  0  0  0  0  0  0  0  # atno 17320 bound_to 7965
  146.1309  140.7186  142.9412 LP  0  0  0  0  0  0  0  0  0  0  0  0  # atno 17321 bound_to 7965
  139.6690  144.0054  152.2741 LP  0  0  0  0  0  0  0  0  0  0  0  0  # atno 17342 bound_to 10162
  139.9647  144.6534  150.8046 LP  0  0  0  0  0  0  0  0  0  0  0  0  # atno 17343 bound_to 10162
  157.4408  130.7543  149.7068 LP  0  0  0  0  0  0  0  0  0  0  0  0  # atno 17370 bound_to 10713
  155.9812  130.4022  150.3487 LP  0  0  0  0  0  0  0  0  0  0  0  0  # atno 17371 bound_to 10713
  140.0767  134.9671  157.1557 LP  0  0  0  0  0  0  0  0  0  0  0  0  # atno 17394 bound_to 11000
  140.3634  134.2469  155.7185 LP  0  0  0  0  0  0  0  0  0  0  0  0  # atno 17395 bound_to 11000

$$$$
