AV-unprocessed.smi:437|AV-procd|sdf|2562|dock3
  -GOLD-   2262022533D 1   1.00000     0.00000
 Structure written by MMmdl.
 48 49  0  0  0  0  0  0  0  0  1 V2000
  150.9041  142.3740  156.8215 C   0  0  0  0  0  0  0  0  0  0  0  0
  150.8075  140.8743  156.9031 C   0  0  0  0  0  0  0  0  0  0  0  0
  150.2365  140.2751  155.9104 N   0  0  0  0  0  0  0  0  0  0  0  0
  150.0894  138.9017  155.8870 N   0  0  0  0  0  0  0  0  0  0  0  0
  149.4093  138.3936  154.6863 C   0  0  0  0  0  0  0  0  0  0  0  0
  148.2095  137.4874  155.0033 C   0  0  0  0  0  0  0  0  0  0  0  0
  147.7127  137.4829  156.1330 O   0  0  0  0  0  0  0  0  0  0  0  0
  147.7738  136.7443  153.9661 N   0  0  0  0  0  0  0  0  0  0  0  0
  146.7487  135.8709  153.9539 C   0  0  0  0  0  0  0  0  0  0  0  0
  145.9567  135.6770  154.8788 O   0  0  0  0  0  0  0  0  0  0  0  0
  146.6876  135.2207  152.7826 N   0  0  0  0  0  0  0  0  0  0  0  0
  145.8040  134.0956  152.4821 C   0  0  1  0  0  0  0  0  0  0  0  0
  144.7521  134.5174  151.4333 C   0  0  0  0  0  0  0  0  0  0  0  0
  143.8392  133.3463  151.0428 C   0  0  0  0  0  0  0  0  0  0  0  0
  144.6613  132.1529  150.5385 C   0  0  0  0  0  0  0  0  0  0  0  0
  145.6994  131.7187  151.5840 C   0  0  0  0  0  0  0  0  0  0  0  0
  146.6295  132.8804  151.9894 C   0  0  2  0  0  0  0  0  0  0  0  0
  147.6619  132.4069  153.0283 C   0  0  0  0  0  0  0  0  0  0  0  0
  150.5188  138.0577  156.8689 C   0  0  0  0  0  0  0  0  0  0  0  0
  150.3669  136.8367  156.8059 O   0  0  0  0  0  0  0  0  0  0  0  0
  151.1667  138.7430  157.9895 C   0  0  0  0  0  0  0  0  0  0  0  0
  151.6265  137.8967  159.0429 C   0  0  0  0  0  0  0  0  0  0  0  0
  151.9894  137.1942  159.8884 N   0  0  0  0  0  0  0  0  0  0  0  0
  151.3179  140.0907  158.0235 C   0  0  0  0  0  0  0  0  0  0  0  0
  151.9838  140.8498  159.1631 C   0  0  0  0  0  0  0  0  0  0  0  0
  151.9449  142.6901  156.7481 H   0  0  0  0  0  0  0  0  0  0  0  0
  150.4700  142.8398  157.7065 H   0  0  0  0  0  0  0  0  0  0  0  0
  150.3770  142.7691  155.9515 H   0  0  0  0  0  0  0  0  0  0  0  0
  149.0530  139.2275  154.0786 H   0  0  0  0  0  0  0  0  0  0  0  0
  150.1145  137.8526  154.0521 H   0  0  0  0  0  0  0  0  0  0  0  0
  148.2736  136.8585  153.0967 H   0  0  0  0  0  0  0  0  0  0  0  0
  147.3047  135.5184  152.0413 H   0  0  0  0  0  0  0  0  0  0  0  0
  145.2848  133.8027  153.3970 H   0  0  0  0  0  0  0  0  0  0  0  0
  144.1428  135.3367  151.8169 H   0  0  0  0  0  0  0  0  0  0  0  0
  145.2517  134.8981  150.5411 H   0  0  0  0  0  0  0  0  0  0  0  0
  143.2432  133.0435  151.9047 H   0  0  0  0  0  0  0  0  0  0  0  0
  143.1340  133.6640  150.2742 H   0  0  0  0  0  0  0  0  0  0  0  0
  143.9999  131.3189  150.3028 H   0  0  0  0  0  0  0  0  0  0  0  0
  145.1657  132.4209  149.6093 H   0  0  0  0  0  0  0  0  0  0  0  0
  145.1856  131.3337  152.4659 H   0  0  0  0  0  0  0  0  0  0  0  0
  146.2881  130.8913  151.1863 H   0  0  0  0  0  0  0  0  0  0  0  0
  147.1802  133.1857  151.0979 H   0  0  0  0  0  0  0  0  0  0  0  0
  147.1782  132.1162  153.9614 H   0  0  0  0  0  0  0  0  0  0  0  0
  148.3893  133.1854  153.2591 H   0  0  0  0  0  0  0  0  0  0  0  0
  148.2190  131.5446  152.6612 H   0  0  0  0  0  0  0  0  0  0  0  0
  152.4307  140.1805  159.8978 H   0  0  0  0  0  0  0  0  0  0  0  0
  151.2543  141.4721  159.6824 H   0  0  0  0  0  0  0  0  0  0  0  0
  152.7790  141.4937  158.7861 H   0  0  0  0  0  0  0  0  0  0  0  0
  1  2  1  0  0  0  0
  1 26  1  0  0  0  0
  1 27  1  0  0  0  0
  1 28  1  0  0  0  0
  2 24  1  0  0  0  0
  2  3  2  0  0  0  0
  3  4  1  0  0  0  0
  4  5  1  0  0  0  0
  4 19  1  0  0  0  0
  5  6  1  0  0  0  0
  5 29  1  0  0  0  0
  5 30  1  0  0  0  0
  6  7  2  0  0  0  0
  6  8  1  0  0  0  0
  8  9  1  0  0  0  0
  8 31  1  0  0  0  0
  9 10  2  0  0  0  0
  9 11  1  0  0  0  0
 11 12  1  0  0  0  0
 11 32  1  0  0  0  0
 12 17  1  0  0  0  0
 12 13  1  0  0  0  0
 12 33  1  0  0  0  0
 13 14  1  0  0  0  0
 13 34  1  0  0  0  0
 13 35  1  0  0  0  0
 14 15  1  0  0  0  0
 14 36  1  0  0  0  0
 14 37  1  0  0  0  0
 15 16  1  0  0  0  0
 15 38  1  0  0  0  0
 15 39  1  0  0  0  0
 16 17  1  0  0  0  0
 16 40  1  0  0  0  0
 16 41  1  0  0  0  0
 17 18  1  0  0  0  0
 17 42  1  0  0  0  0
 18 43  1  0  0  0  0
 18 44  1  0  0  0  0
 18 45  1  0  0  0  0
 19 20  2  0  0  0  0
 19 21  1  0  0  0  0
 21 22  1  0  0  0  0
 21 24  2  0  0  0  0
 22 23  3  0  0  0  0
 24 25  1  0  0  0  0
 25 46  1  0  0  0  0
 25 47  1  0  0  0  0
 25 48  1  0  0  0  0
M  END
> <s_m_source_file>
AV-unprocessed.smi

> <i_m_source_file_index>
437

> <i_lp_mmshare_version>
43012

> <i_f3d_flags>
0

> <s_epik_input>
TiNDYyhjMVtDSDNdKWMoPU8pbihuYzFbQ0gzXSlbQ0gyXUMoPU8pW05IXUMoPU8pW05IXVtDQEBIXTJbQ0gyXVtDSDJdW0NIMl1bQ0gyXVtDQEhdMltDSDNd

> <s_epik_cmdline>
J2VwaWtfcHl0aG9uJywgJy1waCcsICc3LjAnLCAnLXRuJywgJzgnLCAnLW1hJywgJzIwMCcsICctbWV0YWxfYmluZGluZycsICctaW1hZScsICc8aW5maWxlLm1hZT4nLCAnLW9tYWUnLCAnPG91dGZpbGUubWFlPic=

> <r_lp_tautomer_probability>
1

> <r_epik_Ionization_Penalty>
3.27035e-05

> <r_epik_Ionization_Penalty_Charging>
1.6965e-11

> <r_epik_Ionization_Penalty_Neutral>
3.27035e-05

> <r_epik_State_Penalty>
-0

> <r_epik_Charging_Adjusted_Penalty>
1.6965e-11

> <i_epik_Tot_Q>
0

> <i_epik_Tot_abs_Q>
0

> <r_epik_Metal_State_Penalty>
-0

> <b_epik_Metal_Only>
0

> <s_lp_Force_Field>
OPLS_2005

> <r_lp_Energy>
26.7465

> <b_lp_Chiralities_Consistent>
1

> <s_lp_Variant>
AV-unprocessed.smi:437-4

> <Gold.Version>
5.8.1

> <Gold.Id.Protein>
6NUR|6NUR_protein|mol2

> <Gold.PLP.Fitness>
41.2538

> <Gold.PLP.PLP>
-33.4868

> <Gold.PLP.part.hbond>
-2.7392

> <Gold.PLP.part.metal>
0.0000

> <Gold.PLP.part.buried>
-5.4148

> <Gold.PLP.part.nonpolar>
-26.0424

> <Gold.PLP.part.repulsive>
0.0723

> <Gold.PLP.ligand.clash>
0.0000

> <Gold.PLP.ligand.torsion>
0.3163

> <Gold.PLP.Chemscore.Hbond>
2.7920

> <Gold.PLP.Chemscore.CHOScore>
0.0000

> <Gold.PLP.Chemscore.Metal>
0.0000

> <Gold.Chemscore.Hbonds>
donor molecule, donor type, donor heavy atom, donor atom, acceptor molecule, acceptor atom, score
      L1  H     8    31       P1  7948  0.99
      L1  H    11    32       P1  7948  0.80
      P1  H  6896  6908       L1    23  0.93

> <Gold.PLP.Chemscore.Internal.Correction>
0.0237

> <Gold.Rescore>
     Score         DG    S(hbond)    S(metal)    S(lipo)     H(rot)  DE(clash)    DE(int)     intcor
     17.69     -19.39       2.85        0.00      71.64       1.57       0.00       1.70       ----

> <Gold.Chemscore.Fitness>
17.6859

> <Gold.Chemscore.DG>
-19.3886

> <Gold.Chemscore.ZeroCoef>
-5.4800

> <Gold.Chemscore.Hbond>
2.8546

> <Gold.Chemscore.Metal>
0.0000

> <Gold.Chemscore.Lipo>
71.6426

> <Gold.Chemscore.Internal_Hbond>
0.0000

> <Gold.Chemscore.DEClash>
0.0048

> <Gold.Chemscore.DEInternal>
1.6979

> <Gold.Chemscore.Rot>
1.5656

> <Gold.Chemscore.Internal.Correction>
   9.000000E+99

> <Gold.Chemscore.Hbonds>
donor molecule, donor type, donor heavy atom, donor atom, acceptor molecule, acceptor atom, score
      L1  H     8    31       P1  7948  0.89
      L1  H    11    32       P1  7948  0.80
      P1  H  6896  6908       L1    23  0.89

> <Gold.Chemscore.Hbond.Weighted>
-9.5343

> <Gold.Chemscore.Metal.Weighted>
-0.0000

> <Gold.Chemscore.Lipo.Weighted>
-8.3822

> <Gold.Chemscore.Internal_Hbond.Weighted>
0.0000

> <Gold.Chemscore.DEClash.Weighted>
0.0048

> <Gold.Chemscore.DEInternal.Weighted>
1.6979

> <Gold.Chemscore.Rot.Weighted>
4.0079

> <Gold.Chemscore.Internal.Correction.Weighted>
   9.000000E+99

> <Gold.Protein.RotatedTorsions>
[ 6907 6896 6895 6894 ] final -108.48 input  -60.11 | X-H torsion
[ 7974 7965 7964 7962 ] final  -97.57 input  175.53 | X-H torsion
[ 8008 7997 7996 7995 ] final   32.16 input   59.86 | X-H torsion
[ 10167 10162 10161 10158 ] final  171.08 input  -65.29 | X-H torsion
[ 10718 10713 10712 10709 ] final    4.02 input   66.30 | X-H torsion
[ 10763 10752 10751 10750 ] final -145.24 input  -60.55 | X-H torsion
[ 11005 11000 10999 10996 ] final  -49.85 input  -57.11 | X-H torsion

> <Gold.Protein.ActiveResidues>
 VAL166  LYS551  ARG553  GLY616  TRP617  ASP618  TYR619  PRO620  LYS621  CYS622 
 ASP623  PHE694  ASN695  SER759  ASP760  ASP761  ALA762  ILE779  LEU786  VAL792 
 PHE793  MET794  SER795  GLU796  ALA797  LYS798  CYS799  TRP800  GLU811  SER814 

> <Gold.Protein.RotatedAtoms>
  150.7504  133.9671  159.3533 H   0  0  0  0  0  0  0  0  0  0  0  0  # atno 6907 bound_to 6896
  151.7602  135.0810  160.0354 H   0  0  0  0  0  0  0  0  0  0  0  0  # atno 6908 bound_to 6896
  152.3408  133.6028  159.5911 H   0  0  0  0  0  0  0  0  0  0  0  0  # atno 6909 bound_to 6896
  145.3319  140.9443  143.2657 H   0  0  0  0  0  0  0  0  0  0  0  0  # atno 7974 bound_to 7965
  155.1180  140.3245  155.4504 H   0  0  0  0  0  0  0  0  0  0  0  0  # atno 8008 bound_to 7997
  156.2671  140.2032  156.6251 H   0  0  0  0  0  0  0  0  0  0  0  0  # atno 8009 bound_to 7997
  154.6705  140.0537  157.0147 H   0  0  0  0  0  0  0  0  0  0  0  0  # atno 8010 bound_to 7997
  139.5036  144.3525  151.9908 H   0  0  0  0  0  0  0  0  0  0  0  0  # atno 10167 bound_to 10162
  156.8864  130.5672  149.5651 H   0  0  0  0  0  0  0  0  0  0  0  0  # atno 10718 bound_to 10713
  154.8392  135.3418  154.6473 H   0  0  0  0  0  0  0  0  0  0  0  0  # atno 10763 bound_to 10752
  153.7085  135.6965  153.5048 H   0  0  0  0  0  0  0  0  0  0  0  0  # atno 10764 bound_to 10752
  153.2469  135.4366  155.0711 H   0  0  0  0  0  0  0  0  0  0  0  0  # atno 10765 bound_to 10752
  141.0783  133.6660  156.3646 H   0  0  0  0  0  0  0  0  0  0  0  0  # atno 11005 bound_to 11000
  144.8857  139.4842  143.6702 LP  0  0  0  0  0  0  0  0  0  0  0  0  # atno 17320 bound_to 7965
  146.3042  139.7525  142.9069 LP  0  0  0  0  0  0  0  0  0  0  0  0  # atno 17321 bound_to 7965
  140.2962  144.3698  150.6074 LP  0  0  0  0  0  0  0  0  0  0  0  0  # atno 17342 bound_to 10162
  140.5909  143.2168  151.7255 LP  0  0  0  0  0  0  0  0  0  0  0  0  # atno 17343 bound_to 10162
  156.0651  130.5696  150.9272 LP  0  0  0  0  0  0  0  0  0  0  0  0  # atno 17370 bound_to 10713
  157.6110  131.0936  150.8795 LP  0  0  0  0  0  0  0  0  0  0  0  0  # atno 17371 bound_to 10713
  140.5525  134.6013  157.5411 LP  0  0  0  0  0  0  0  0  0  0  0  0  # atno 17394 bound_to 11000
  139.9596  134.7476  156.0267 LP  0  0  0  0  0  0  0  0  0  0  0  0  # atno 17395 bound_to 11000

$$$$
