AV-unprocessed.smi:1008|AV-procd|sdf|4413|dock4
  -GOLD-   22720 2353D 1   1.00000     0.00000
 Structure written by MMmdl.
 22 22  0  0  0  0  0  0  0  0  2 V2000
  149.2162  141.4020  154.7783 C   0  0  0  0  0  0  0  0  0  0  0  0
  150.4062  140.7993  155.5038 C   0  0  0  0  0  0  0  0  0  0  0  0
  151.1723  139.8817  154.7677 N   0  0  0  0  0  0  0  0  0  0  0  0
  152.2055  139.3272  155.3188 C   0  0  0  0  0  0  0  0  0  0  0  0
  152.9899  138.4211  154.6392 N   0  0  0  0  0  0  0  0  0  0  0  0
  152.6136  139.5845  156.6119 N   0  5  0  0  0  0  0  0  0  0  0  0
  151.9165  140.4681  157.3827 C   0  0  0  0  0  0  0  0  0  0  0  0
  152.2503  140.7307  158.5376 O   0  0  0  0  0  0  0  0  0  0  0  0
  150.7343  141.1196  156.7883 C   0  0  0  0  0  0  0  0  0  0  0  0
  149.9314  142.1010  157.6394 C   0  0  0  0  0  0  0  0  0  0  0  0
  150.8047  143.2393  158.1855 C   0  0  0  0  0  0  0  0  0  0  0  0
  151.2608  144.0485  157.1230 O   0  0  0  0  0  0  0  0  0  0  0  0
  149.2473  142.4908  154.8274 H   0  0  0  0  0  0  0  0  0  0  0  0
  148.2840  141.0585  155.2269 H   0  0  0  0  0  0  0  0  0  0  0  0
  149.2083  141.1153  153.7262 H   0  0  0  0  0  0  0  0  0  0  0  0
  152.8079  138.1410  153.6867 H   0  0  0  0  0  0  0  0  0  0  0  0
  153.7996  137.9728  155.0413 H   0  0  0  0  0  0  0  0  0  0  0  0
  149.1116  142.5187  157.0557 H   0  0  0  0  0  0  0  0  0  0  0  0
  149.4517  141.5662  158.4605 H   0  0  0  0  0  0  0  0  0  0  0  0
  150.2423  143.8582  158.8854 H   0  0  0  0  0  0  0  0  0  0  0  0
  151.6655  142.8396  158.7222 H   0  0  0  0  0  0  0  0  0  0  0  0
  150.5367  144.5705  156.8132 H   0  0  0  0  0  0  0  0  0  0  0  0
  1  2  1  0  0  0  0
  1 13  1  0  0  0  0
  1 14  1  0  0  0  0
  1 15  1  0  0  0  0
  2  9  2  0  0  0  0
  2  3  1  0  0  0  0
  3  4  2  0  0  0  0
  4  5  1  0  0  0  0
  4  6  1  0  0  0  0
  5 16  1  0  0  0  0
  5 17  1  0  0  0  0
  6  7  1  0  0  0  0
  7  8  2  0  0  0  0
  7  9  1  0  0  0  0
  9 10  1  0  0  0  0
 10 11  1  0  0  0  0
 10 18  1  0  0  0  0
 10 19  1  0  0  0  0
 11 12  1  0  0  0  0
 11 20  1  0  0  0  0
 11 21  1  0  0  0  0
 12 22  1  0  0  0  0
M  CHG  1   6  -1
M  END
> <s_m_source_file>
AV-unprocessed.smi

> <i_m_source_file_index>
1008

> <i_lp_mmshare_version>
43012

> <i_f3d_flags>
0

> <s_epik_input>
W0NIM11jMW5jKFtOSDJdKVtuSF1jKD1PKWMxW0NIMl1bQ0gyXVtPSF0=

> <s_epik_cmdline>
J2VwaWtfcHl0aG9uJywgJy1waCcsICc3LjAnLCAnLXRuJywgJzgnLCAnLW1hJywgJzIwMCcsICctbWV0YWxfYmluZGluZycsICctaW1hZScsICc8aW5maWxlLm1hZT4nLCAnLW9tYWUnLCAnPG91dGZpbGUubWFlPic=

> <r_lp_tautomer_probability>
0.878315

> <r_epik_Ionization_Penalty>
8.31336

> <r_epik_Ionization_Penalty_Charging>
3.16854e-07

> <r_epik_Ionization_Penalty_Neutral>
8.31336

> <r_epik_State_Penalty>
5.82337

> <r_epik_Charging_Adjusted_Penalty>
5.82337

> <i_epik_Tot_Q>
-1

> <i_epik_Tot_abs_Q>
1

> <r_epik_Metal_State_Penalty>
1.89563

> <b_epik_Metal_Only>
1

> <s_lp_Force_Field>
OPLS_2005

> <r_lp_Energy>
6.72114

> <b_lp_Chiralities_Consistent>
1

> <s_lp_Variant>
AV-unprocessed.smi:1008-4

> <Gold.Version>
5.8.1

> <Gold.Id.Protein>
6NUR|6NUR_protein|mol2

> <Gold.PLP.Fitness>
34.5487

> <Gold.PLP.PLP>
-22.6050

> <Gold.PLP.part.hbond>
-3.0000

> <Gold.PLP.part.metal>
0.0000

> <Gold.PLP.part.buried>
-4.7258

> <Gold.PLP.part.nonpolar>
-15.5809

> <Gold.PLP.part.repulsive>
0.3024

> <Gold.PLP.ligand.clash>
0.0000

> <Gold.PLP.ligand.torsion>
0.0284

> <Gold.PLP.Chemscore.Hbond>
4.0000

> <Gold.PLP.Chemscore.CHOScore>
0.0000

> <Gold.PLP.Chemscore.Metal>
0.0000

> <Gold.Chemscore.Hbonds>
donor molecule, donor type, donor heavy atom, donor atom, acceptor molecule, acceptor atom, score
      L1  H    12    22       P1  8028  1.00
      P1  H  7989  7998       L1     3  1.00
      P1  H  7997  8009       L1     6  2.00

> <Gold.PLP.Chemscore.Internal.Correction>
0.0005

> <Gold.Rescore>
     Score         DG    S(hbond)    S(metal)    S(lipo)     H(rot)  DE(clash)    DE(int)     intcor
     10.66     -10.72       1.83        0.00      36.83       2.03       0.02       0.05       ----

> <Gold.Chemscore.Fitness>
10.6567

> <Gold.Chemscore.DG>
-10.7189

> <Gold.Chemscore.ZeroCoef>
-5.4800

> <Gold.Chemscore.Hbond>
1.8347

> <Gold.Chemscore.Metal>
0.0000

> <Gold.Chemscore.Lipo>
36.8347

> <Gold.Chemscore.Internal_Hbond>
0.0000

> <Gold.Chemscore.DEClash>
0.0166

> <Gold.Chemscore.DEInternal>
0.0456

> <Gold.Chemscore.Rot>
2.0307

> <Gold.Chemscore.Internal.Correction>
   9.000000E+99

> <Gold.Chemscore.Hbonds>
donor molecule, donor type, donor heavy atom, donor atom, acceptor molecule, acceptor atom, score
      L1  H    12    22       P1  8028  0.83
      P1  H  7989  7998       L1     3  0.19
      P1  H  7997  8009       L1     6  0.37

> <Gold.Chemscore.Hbond.Weighted>
-6.1277

> <Gold.Chemscore.Metal.Weighted>
-0.0000

> <Gold.Chemscore.Lipo.Weighted>
-4.3097

> <Gold.Chemscore.Internal_Hbond.Weighted>
0.0000

> <Gold.Chemscore.DEClash.Weighted>
0.0166

> <Gold.Chemscore.DEInternal.Weighted>
0.0456

> <Gold.Chemscore.Rot.Weighted>
5.1985

> <Gold.Chemscore.Internal.Correction.Weighted>
   9.000000E+99

> <Gold.Protein.RotatedTorsions>
[ 6907 6896 6895 6894 ] final   33.38 input  -60.11 | X-H torsion
[ 7974 7965 7964 7962 ] final   59.44 input  175.53 | X-H torsion
[ 8008 7997 7996 7995 ] final -169.91 input   59.86 | X-H torsion
[ 10167 10162 10161 10158 ] final   16.67 input  -65.29 | X-H torsion
[ 10718 10713 10712 10709 ] final -120.16 input   66.30 | X-H torsion
[ 10763 10752 10751 10750 ] final  -48.76 input  -60.55 | X-H torsion
[ 11005 11000 10999 10996 ] final -174.71 input  -57.11 | X-H torsion

> <Gold.Protein.ActiveResidues>
 VAL166  LYS551  ARG553  GLY616  TRP617  ASP618  TYR619  PRO620  LYS621  CYS622 
 ASP623  PHE694  ASN695  SER759  ASP760  ASP761  ALA762  ILE779  LEU786  VAL792 
 PHE793  MET794  SER795  GLU796  ALA797  LYS798  CYS799  TRP800  GLU811  SER814 

> <Gold.Protein.RotatedAtoms>
  152.0877  134.9428  160.0572 H   0  0  0  0  0  0  0  0  0  0  0  0  # atno 6907 bound_to 6896
  152.0692  133.4093  159.4460 H   0  0  0  0  0  0  0  0  0  0  0  0  # atno 6908 bound_to 6896
  150.6836  134.3031  159.4758 H   0  0  0  0  0  0  0  0  0  0  0  0  # atno 6909 bound_to 6896
  145.9072  139.3626  143.0557 H   0  0  0  0  0  0  0  0  0  0  0  0  # atno 7974 bound_to 7965
  155.9113  140.1058  157.1277 H   0  0  0  0  0  0  0  0  0  0  0  0  # atno 8008 bound_to 7997
  154.4040  140.1274  156.4625 H   0  0  0  0  0  0  0  0  0  0  0  0  # atno 8009 bound_to 7997
  155.7307  140.3468  155.5060 H   0  0  0  0  0  0  0  0  0  0  0  0  # atno 8010 bound_to 7997
  140.5780  143.9034  150.6766 H   0  0  0  0  0  0  0  0  0  0  0  0  # atno 10167 bound_to 10162
  156.1236  130.6342  150.9506 H   0  0  0  0  0  0  0  0  0  0  0  0  # atno 10718 bound_to 10713
  154.0831  135.6588  153.4841 H   0  0  0  0  0  0  0  0  0  0  0  0  # atno 10763 bound_to 10752
  153.0348  135.5184  154.7454 H   0  0  0  0  0  0  0  0  0  0  0  0  # atno 10764 bound_to 10752
  154.6555  135.3007  154.9901 H   0  0  0  0  0  0  0  0  0  0  0  0  # atno 10765 bound_to 10752
  140.4714  134.6162  157.4883 H   0  0  0  0  0  0  0  0  0  0  0  0  # atno 11005 bound_to 11000
  145.8717  140.9415  143.0647 LP  0  0  0  0  0  0  0  0  0  0  0  0  # atno 17320 bound_to 7965
  144.6740  140.0664  143.7474 LP  0  0  0  0  0  0  0  0  0  0  0  0  # atno 17321 bound_to 7965
  140.2527  143.3581  152.1392 LP  0  0  0  0  0  0  0  0  0  0  0  0  # atno 17342 bound_to 10162
  139.5154  144.6962  151.5624 LP  0  0  0  0  0  0  0  0  0  0  0  0  # atno 17343 bound_to 10162
  157.6419  131.0909  150.8234 LP  0  0  0  0  0  0  0  0  0  0  0  0  # atno 17370 bound_to 10713
  156.8327  130.5021  149.5330 LP  0  0  0  0  0  0  0  0  0  0  0  0  # atno 17371 bound_to 10713
  139.9883  134.7026  155.9735 LP  0  0  0  0  0  0  0  0  0  0  0  0  # atno 17394 bound_to 11000
  141.1575  133.6541  156.4209 LP  0  0  0  0  0  0  0  0  0  0  0  0  # atno 17395 bound_to 11000

$$$$
