AV-unprocessed.smi:513|AV-procd|sdf|2775|dock8
  -GOLD-   2262023243D 1   1.00000     0.00000
 Structure written by MMmdl.
 41 43  0  0  0  0  0  0  0  0  2 V2000
  150.2932  134.9872  155.0489 C   0  0  0  0  0  0  0  0  0  0  0  0
  150.9503  136.2382  154.9603 O   0  0  0  0  0  0  0  0  0  0  0  0
  150.2275  137.2816  155.5923 C   0  0  0  0  0  0  0  0  0  0  0  0
  150.4779  138.6155  154.8729 C   0  0  0  0  0  0  0  0  0  0  0  0
  150.6449  139.7255  155.8076 N   0  0  0  0  0  0  0  0  0  0  0  0
  149.8952  140.8535  155.8803 C   0  0  0  0  0  0  0  0  0  0  0  0
  148.8254  141.0542  155.0157 N   0  0  0  0  0  0  0  0  0  0  0  0
  147.6775  141.9047  155.3086 C   0  0  0  0  0  0  0  0  0  0  0  0
  146.3638  141.2488  154.8414 C   0  0  0  0  0  0  0  0  0  0  0  0
  146.4141  141.0160  153.4021 N   0  0  0  0  0  0  0  0  0  0  0  0
  147.5348  140.1266  153.1182 C   0  0  0  0  0  0  0  0  0  0  0  0
  148.8512  140.7798  153.5837 C   0  0  0  0  0  0  0  0  0  0  0  0
  150.2615  141.7184  156.8264 N   0  0  0  0  0  0  0  0  0  0  0  0
  151.3475  141.0810  157.4095 C   0  0  0  0  0  0  0  0  0  0  0  0
  151.6006  139.8833  156.8159 C   0  0  0  0  0  0  0  0  0  0  0  0
  152.7019  138.9828  157.2208 C   0  0  0  0  0  0  0  0  0  0  0  0
  152.8890  137.9097  156.6512 O   0  0  0  0  0  0  0  0  0  0  0  0
  153.4327  139.4976  158.2601 N   0  5  0  0  0  0  0  0  0  0  0  0
  153.2108  140.7036  158.8907 C   0  0  0  0  0  0  0  0  0  0  0  0
  153.9242  141.0851  159.8189 O   0  0  0  0  0  0  0  0  0  0  0  0
  152.1748  141.5048  158.4826 N   0  0  0  0  0  0  0  0  0  0  0  0
  151.8689  142.7972  159.1039 C   0  0  0  0  0  0  0  0  0  0  0  0
  150.8930  134.2233  154.5542 H   0  0  0  0  0  0  0  0  0  0  0  0
  149.3185  135.0197  154.5603 H   0  0  0  0  0  0  0  0  0  0  0  0
  150.1555  134.6862  156.0881 H   0  0  0  0  0  0  0  0  0  0  0  0
  149.1626  137.0481  155.5806 H   0  0  0  0  0  0  0  0  0  0  0  0
  150.5301  137.3646  156.6369 H   0  0  0  0  0  0  0  0  0  0  0  0
  151.3696  138.5369  154.2513 H   0  0  0  0  0  0  0  0  0  0  0  0
  149.6672  138.8384  154.1819 H   0  0  0  0  0  0  0  0  0  0  0  0
  147.6347  142.0891  156.3825 H   0  0  0  0  0  0  0  0  0  0  0  0
  147.8136  142.8751  154.8292 H   0  0  0  0  0  0  0  0  0  0  0  0
  146.1911  140.3080  155.3659 H   0  0  0  0  0  0  0  0  0  0  0  0
  145.5193  141.9008  155.0652 H   0  0  0  0  0  0  0  0  0  0  0  0
  145.5531  140.5840  153.0987 H   0  0  0  0  0  0  0  0  0  0  0  0
  147.3803  139.1665  153.6122 H   0  0  0  0  0  0  0  0  0  0  0  0
  147.5705  139.9339  152.0459 H   0  0  0  0  0  0  0  0  0  0  0  0
  149.0319  141.7082  153.0402 H   0  0  0  0  0  0  0  0  0  0  0  0
  149.6894  140.1188  153.3611 H   0  0  0  0  0  0  0  0  0  0  0  0
  152.5254  143.0669  159.9315 H   0  0  0  0  0  0  0  0  0  0  0  0
  150.8489  142.7903  159.4892 H   0  0  0  0  0  0  0  0  0  0  0  0
  151.9403  143.5914  158.3602 H   0  0  0  0  0  0  0  0  0  0  0  0
  1  2  1  0  0  0  0
  1 23  1  0  0  0  0
  1 24  1  0  0  0  0
  1 25  1  0  0  0  0
  2  3  1  0  0  0  0
  3  4  1  0  0  0  0
  3 26  1  0  0  0  0
  3 27  1  0  0  0  0
  4  5  1  0  0  0  0
  4 28  1  0  0  0  0
  4 29  1  0  0  0  0
  5 15  1  0  0  0  0
  5  6  1  0  0  0  0
  6  7  1  0  0  0  0
  6 13  2  0  0  0  0
  7 12  1  0  0  0  0
  7  8  1  0  0  0  0
  8  9  1  0  0  0  0
  8 30  1  0  0  0  0
  8 31  1  0  0  0  0
  9 10  1  0  0  0  0
  9 32  1  0  0  0  0
  9 33  1  0  0  0  0
 10 11  1  0  0  0  0
 10 34  1  0  0  0  0
 11 12  1  0  0  0  0
 11 35  1  0  0  0  0
 11 36  1  0  0  0  0
 12 37  1  0  0  0  0
 12 38  1  0  0  0  0
 13 14  1  0  0  0  0
 14 21  1  0  0  0  0
 14 15  2  0  0  0  0
 15 16  1  0  0  0  0
 16 17  2  0  0  0  0
 16 18  1  0  0  0  0
 18 19  1  0  0  0  0
 19 20  2  0  0  0  0
 19 21  1  0  0  0  0
 21 22  1  0  0  0  0
 22 39  1  0  0  0  0
 22 40  1  0  0  0  0
 22 41  1  0  0  0  0
M  CHG  1  18  -1
M  END
> <s_m_source_file>
AV-unprocessed.smi

> <i_m_source_file_index>
513

> <i_lp_mmshare_version>
43012

> <i_f3d_flags>
0

> <s_epik_input>
W0NIM11uMWMoPU8pW25IXWMoPU8pYyhjMTIpbihbQ0gyXVtDSDJdT1tDSDNdKWMobjIpTjNbQ0gyXVtDSDJdW05IXVtDSDJdW0NIMl0z

> <s_epik_cmdline>
J2VwaWtfcHl0aG9uJywgJy1waCcsICc3LjAnLCAnLXRuJywgJzgnLCAnLW1hJywgJzIwMCcsICctbWV0YWxfYmluZGluZycsICctaW1hZScsICc8aW5maWxlLm1hZT4nLCAnLW9tYWUnLCAnPG91dGZpbGUubWFlPic=

> <r_epik_Ionization_Penalty>
8.82084

> <r_epik_Ionization_Penalty_Charging>
0.08198

> <r_epik_Ionization_Penalty_Neutral>
8.73886

> <r_epik_State_Penalty>
8.90453

> <r_epik_Charging_Adjusted_Penalty>
8.98651

> <i_epik_Tot_Q>
-1

> <i_epik_Tot_abs_Q>
1

> <r_epik_Metal_State_Penalty>
4.85612

> <b_epik_Metal_Only>
1

> <s_lp_Force_Field>
OPLS_2005

> <r_lp_Energy>
54.8501

> <b_lp_Chiralities_Consistent>
1

> <s_lp_Variant>
AV-unprocessed.smi:513-4

> <Gold.Version>
5.8.1

> <Gold.Id.Protein>
6NUR|6NUR_protein|mol2

> <Gold.PLP.Fitness>
37.7064

> <Gold.PLP.PLP>
-28.5069

> <Gold.PLP.part.hbond>
-2.9552

> <Gold.PLP.part.metal>
0.0000

> <Gold.PLP.part.buried>
4.2331

> <Gold.PLP.part.nonpolar>
-29.1985

> <Gold.PLP.part.repulsive>
0.2400

> <Gold.PLP.ligand.clash>
0.0420

> <Gold.PLP.ligand.torsion>
0.9835

> <Gold.PLP.Chemscore.Hbond>
3.4000

> <Gold.PLP.Chemscore.CHOScore>
0.0000

> <Gold.PLP.Chemscore.Metal>
0.0000

> <Gold.Chemscore.Hbonds>
donor molecule, donor type, donor heavy atom, donor atom, acceptor molecule, acceptor atom, score
      L1  H    10    34       P1 10175  1.00
      P1  H  7997  8009       L1    18  1.43
      P1  H 10752 10763       L1     2  0.78

> <Gold.PLP.Chemscore.Internal.Correction>
1.0086

> <Gold.Rescore>
     Score         DG    S(hbond)    S(metal)    S(lipo)     H(rot)  DE(clash)    DE(int)     intcor
      8.30     -13.75       1.66        0.00      56.75       1.53       2.16       3.30       ----

> <Gold.Chemscore.Fitness>
8.2950

> <Gold.Chemscore.DG>
-13.7479

> <Gold.Chemscore.ZeroCoef>
-5.4800

> <Gold.Chemscore.Hbond>
1.6638

> <Gold.Chemscore.Metal>
0.0000

> <Gold.Chemscore.Lipo>
56.7505

> <Gold.Chemscore.Internal_Hbond>
0.0000

> <Gold.Chemscore.DEClash>
2.1569

> <Gold.Chemscore.DEInternal>
3.2961

> <Gold.Chemscore.Rot>
1.5348

> <Gold.Chemscore.Internal.Correction>
   9.000000E+99

> <Gold.Chemscore.Hbonds>
donor molecule, donor type, donor heavy atom, donor atom, acceptor molecule, acceptor atom, score
      L1  H    10    34       P1 10175  0.80
      P1  H  7997  8009       L1    18  0.02
      P1  H 10752 10763       L1     2  0.20

> <Gold.Chemscore.Hbond.Weighted>
-5.5571

> <Gold.Chemscore.Metal.Weighted>
-0.0000

> <Gold.Chemscore.Lipo.Weighted>
-6.6398

> <Gold.Chemscore.Internal_Hbond.Weighted>
0.0000

> <Gold.Chemscore.DEClash.Weighted>
2.1569

> <Gold.Chemscore.DEInternal.Weighted>
3.2961

> <Gold.Chemscore.Rot.Weighted>
3.9290

> <Gold.Chemscore.Internal.Correction.Weighted>
   9.000000E+99

> <Gold.Protein.RotatedTorsions>
[ 6907 6896 6895 6894 ] final  148.58 input  -60.11 | X-H torsion
[ 7974 7965 7964 7962 ] final  174.73 input  175.53 | X-H torsion
[ 8008 7997 7996 7995 ] final  130.98 input   59.86 | X-H torsion
[ 10167 10162 10161 10158 ] final  -64.44 input  -65.29 | X-H torsion
[ 10718 10713 10712 10709 ] final  -81.19 input   66.30 | X-H torsion
[ 10763 10752 10751 10750 ] final   53.88 input  -60.55 | X-H torsion
[ 11005 11000 10999 10996 ] final  -94.23 input  -57.11 | X-H torsion

> <Gold.Protein.ActiveResidues>
 VAL166  LYS551  ARG553  GLY616  TRP617  ASP618  TYR619  PRO620  LYS621  CYS622 
 ASP623  PHE694  ASN695  SER759  ASP760  ASP761  ALA762  ILE779  LEU786  VAL792 
 PHE793  MET794  SER795  GLU796  ALA797  LYS798  CYS799  TRP800  GLU811  SER814 

> <Gold.Protein.RotatedAtoms>
  152.1395  133.4455  159.4759 H   0  0  0  0  0  0  0  0  0  0  0  0  # atno 6907 bound_to 6896
  150.6885  134.2322  159.4448 H   0  0  0  0  0  0  0  0  0  0  0  0  # atno 6908 bound_to 6896
  152.0212  134.9821  160.0621 H   0  0  0  0  0  0  0  0  0  0  0  0  # atno 6909 bound_to 6896
  144.7215  139.9841  143.6439 H   0  0  0  0  0  0  0  0  0  0  0  0  # atno 7974 bound_to 7965
  156.2963  140.2582  156.2850 H   0  0  0  0  0  0  0  0  0  0  0  0  # atno 8008 bound_to 7997
  154.9565  140.0393  157.2188 H   0  0  0  0  0  0  0  0  0  0  0  0  # atno 8009 bound_to 7997
  154.7987  140.2824  155.5942 H   0  0  0  0  0  0  0  0  0  0  0  0  # atno 8010 bound_to 7997
  140.5800  143.2326  151.6362 H   0  0  0  0  0  0  0  0  0  0  0  0  # atno 10167 bound_to 10162
  156.0055  130.4596  150.3915 H   0  0  0  0  0  0  0  0  0  0  0  0  # atno 10718 bound_to 10713
  152.9799  135.5764  154.4813 H   0  0  0  0  0  0  0  0  0  0  0  0  # atno 10763 bound_to 10752
  154.4362  135.2774  155.1881 H   0  0  0  0  0  0  0  0  0  0  0  0  # atno 10764 bound_to 10752
  154.3569  135.6197  153.5724 H   0  0  0  0  0  0  0  0  0  0  0  0  # atno 10765 bound_to 10752
  141.1476  133.7942  157.0270 H   0  0  0  0  0  0  0  0  0  0  0  0  # atno 11005 bound_to 11000
  146.0464  139.3469  143.0666 LP  0  0  0  0  0  0  0  0  0  0  0  0  # atno 17320 bound_to 7965
  145.8270  140.9650  143.0869 LP  0  0  0  0  0  0  0  0  0  0  0  0  # atno 17321 bound_to 7965
  139.5164  144.3347  152.0795 LP  0  0  0  0  0  0  0  0  0  0  0  0  # atno 17342 bound_to 10162
  140.2495  144.4184  150.6227 LP  0  0  0  0  0  0  0  0  0  0  0  0  # atno 17343 bound_to 10162
  157.1989  131.0433  151.2661 LP  0  0  0  0  0  0  0  0  0  0  0  0  # atno 17370 bound_to 10713
  157.3993  130.7324  149.6755 LP  0  0  0  0  0  0  0  0  0  0  0  0  # atno 17371 bound_to 10713
  140.0779  134.9665  157.1575 LP  0  0  0  0  0  0  0  0  0  0  0  0  # atno 17394 bound_to 11000
  140.3618  134.2485  155.7186 LP  0  0  0  0  0  0  0  0  0  0  0  0  # atno 17395 bound_to 11000

$$$$
