AV-unprocessed.smi:2827|AV-procd|sdf|10896|dock10
  -GOLD-   2272015343D 1   1.00000     0.00000
 Structure written by MMmdl.
 48 51  0  0  0  0  0  0  0  0  3 V2000
  144.7744  137.7464  153.5991 O   0  0  0  0  0  0  0  0  0  0  0  0
  145.8245  137.6190  152.9701 C   0  0  0  0  0  0  0  0  0  0  0  0
  146.4415  138.8230  152.2562 C   0  0  0  0  0  0  0  0  0  0  0  0
  147.1768  139.6389  153.2178 N   0  0  0  0  0  0  0  0  0  0  0  0
  146.8700  140.9825  153.4089 C   0  0  0  0  0  0  0  0  0  0  0  0
  147.6787  141.8599  154.0326 C   0  0  0  0  0  0  0  0  0  0  0  0
  148.9827  141.4018  154.5532 C   0  0  0  0  0  0  0  0  0  0  0  0
  149.7591  142.1937  155.0850 O   0  0  0  0  0  0  0  0  0  0  0  0
  149.3028  139.9547  154.3885 C   0  0  0  0  0  0  0  0  0  0  0  0
  150.5149  139.3126  154.8517 N   0  3  0  0  0  0  0  0  0  0  0  0
  150.5320  138.0908  154.9761 O   0  0  0  0  0  0  0  0  0  0  0  0
  151.4914  140.0100  155.1055 O   0  5  0  0  0  0  0  0  0  0  0  0
  148.3852  139.1875  153.7491 C   0  0  0  0  0  0  0  0  0  0  0  0
  146.4682  136.4515  152.8189 N   0  0  0  0  0  0  0  0  0  0  0  0
  145.9512  135.1429  153.2036 C   0  0  0  0  0  0  0  0  0  0  0  0
  144.9789  134.5931  152.1303 C   0  0  2  0  0  0  0  0  0  0  0  0
  144.3547  133.2050  152.4541 C   0  0  2  0  0  0  0  0  0  0  0  0
  145.4245  132.0910  152.3855 C   0  0  0  0  0  0  0  0  0  0  0  0
  146.0311  132.0474  150.9668 C   0  0  1  0  0  0  0  0  0  0  0  0
  144.9182  131.7463  149.9399 C   0  0  0  0  0  0  0  0  0  0  0  0
  143.8476  132.8562  150.0089 C   0  0  1  0  0  0  0  0  0  0  0  0
  143.2413  132.8969  151.4283 C   0  0  0  0  0  0  0  0  0  0  0  0
  144.4967  134.2195  149.6823 C   0  0  0  0  0  0  0  0  0  0  0  0
  145.6077  134.5230  150.7140 C   0  0  2  0  0  0  0  0  0  0  0  0
  146.6790  133.4093  150.6376 C   0  0  0  0  0  0  0  0  0  0  0  0
  147.1076  138.4755  151.4654 H   0  0  0  0  0  0  0  0  0  0  0  0
  145.6668  139.4175  151.7691 H   0  0  0  0  0  0  0  0  0  0  0  0
  145.9106  141.2815  153.0124 H   0  0  0  0  0  0  0  0  0  0  0  0
  147.3974  142.8954  154.1559 H   0  0  0  0  0  0  0  0  0  0  0  0
  148.5410  138.1288  153.5977 H   0  0  0  0  0  0  0  0  0  0  0  0
  147.3341  136.4574  152.2994 H   0  0  0  0  0  0  0  0  0  0  0  0
  146.8036  134.4702  153.3009 H   0  0  0  0  0  0  0  0  0  0  0  0
  145.4864  135.1801  154.1886 H   0  0  0  0  0  0  0  0  0  0  0  0
  144.1604  135.3140  152.0843 H   0  0  0  0  0  0  0  0  0  0  0  0
  143.9064  133.2108  153.4462 H   0  0  0  0  0  0  0  0  0  0  0  0
  146.2056  132.2575  153.1270 H   0  0  0  0  0  0  0  0  0  0  0  0
  144.9766  131.1276  152.6319 H   0  0  0  0  0  0  0  0  0  0  0  0
  146.7886  131.2644  150.9199 H   0  0  0  0  0  0  0  0  0  0  0  0
  145.3372  131.6873  148.9344 H   0  0  0  0  0  0  0  0  0  0  0  0
  144.4686  130.7738  150.1437 H   0  0  0  0  0  0  0  0  0  0  0  0
  143.0603  132.6457  149.2844 H   0  0  0  0  0  0  0  0  0  0  0  0
  142.7647  131.9444  151.6640 H   0  0  0  0  0  0  0  0  0  0  0  0
  142.4566  133.6523  151.4822 H   0  0  0  0  0  0  0  0  0  0  0  0
  144.9113  134.2070  148.6735 H   0  0  0  0  0  0  0  0  0  0  0  0
  143.7431  135.0078  149.6939 H   0  0  0  0  0  0  0  0  0  0  0  0
  146.0643  135.4825  150.4692 H   0  0  0  0  0  0  0  0  0  0  0  0
  147.5027  133.6131  151.3215 H   0  0  0  0  0  0  0  0  0  0  0  0
  147.1187  133.3822  149.6399 H   0  0  0  0  0  0  0  0  0  0  0  0
  1  2  2  0  0  0  0
  2  3  1  0  0  0  0
  2 14  1  0  0  0  0
  3  4  1  0  0  0  0
  3 26  1  0  0  0  0
  3 27  1  0  0  0  0
  4 13  1  0  0  0  0
  4  5  1  0  0  0  0
  5  6  2  0  0  0  0
  5 28  1  0  0  0  0
  6  7  1  0  0  0  0
  6 29  1  0  0  0  0
  7  8  2  0  0  0  0
  7  9  1  0  0  0  0
  9 10  1  0  0  0  0
  9 13  2  0  0  0  0
 10 11  2  0  0  0  0
 10 12  1  0  0  0  0
 13 30  1  0  0  0  0
 14 15  1  0  0  0  0
 14 31  1  0  0  0  0
 15 16  1  0  0  0  0
 15 32  1  0  0  0  0
 15 33  1  0  0  0  0
 16 24  1  0  0  0  0
 16 17  1  0  0  0  0
 16 34  1  0  0  0  0
 17 22  1  0  0  0  0
 17 18  1  0  0  0  0
 17 35  1  0  0  0  0
 18 19  1  0  0  0  0
 18 36  1  0  0  0  0
 18 37  1  0  0  0  0
 19 25  1  0  0  0  0
 19 20  1  0  0  0  0
 19 38  1  0  0  0  0
 20 21  1  0  0  0  0
 20 39  1  0  0  0  0
 20 40  1  0  0  0  0
 21 22  1  0  0  0  0
 21 23  1  0  0  0  0
 21 41  1  0  0  0  0
 22 42  1  0  0  0  0
 22 43  1  0  0  0  0
 23 24  1  0  0  0  0
 23 44  1  0  0  0  0
 23 45  1  0  0  0  0
 24 25  1  0  0  0  0
 24 46  1  0  0  0  0
 25 47  1  0  0  0  0
 25 48  1  0  0  0  0
M  CHG  1  10   1
M  CHG  1  12  -1
M  END
> <s_m_source_file>
AV-unprocessed.smi

> <i_m_source_file_index>
2827

> <i_lp_mmshare_version>
43012

> <i_f3d_flags>
0

> <s_epik_input>
Tz1bTitdKFtPLV0pYyhbY0hdMSljKD1PKVtjSF1bY0hdbjFbQ0gyXUMoPU8pW05IXVtDSDJdW0NASF0oW0NASF0yMylbQ0BASF00W0NIMl1bQ0BIXShbQ0gyXTMpW0NIMl1bQ0BIXShbQ0gyXTIpW0NIMl00

> <s_epik_cmdline>
J2VwaWtfcHl0aG9uJywgJy1waCcsICc3LjAnLCAnLXRuJywgJzgnLCAnLW1hJywgJzIwMCcsICctbWV0YWxfYmluZGluZycsICctaW1hZScsICc8aW5maWxlLm1hZT4nLCAnLW9tYWUnLCAnPG91dGZpbGUubWFlPic=

> <r_lp_tautomer_probability>
1

> <r_epik_Ionization_Penalty>
3.31423e-08

> <r_epik_Ionization_Penalty_Charging>
1.04538e-08

> <r_epik_Ionization_Penalty_Neutral>
2.26885e-08

> <r_epik_State_Penalty>
-0

> <r_epik_Charging_Adjusted_Penalty>
1.04538e-08

> <i_epik_Tot_Q>
0

> <i_epik_Tot_abs_Q>
2

> <r_epik_Metal_State_Penalty>
-0

> <b_epik_Metal_Only>
0

> <s_lp_Force_Field>
OPLS_2005

> <r_lp_Energy>
36.4142

> <b_lp_Chiralities_Consistent>
1

> <s_lp_Variant>
AV-unprocessed.smi:2827-1

> <Gold.Version>
5.8.1

> <Gold.Id.Protein>
6NUR|6NUR_protein|mol2

> <Gold.PLP.Fitness>
52.1046

> <Gold.PLP.PLP>
-41.3148

> <Gold.PLP.part.hbond>
-3.0268

> <Gold.PLP.part.metal>
0.0000

> <Gold.PLP.part.buried>
4.3767

> <Gold.PLP.part.nonpolar>
-44.6530

> <Gold.PLP.part.repulsive>
1.1919

> <Gold.PLP.ligand.clash>
0.0000

> <Gold.PLP.ligand.torsion>
0.6452

> <Gold.PLP.Chemscore.Hbond>
2.0000

> <Gold.PLP.Chemscore.CHOScore>
1.9828

> <Gold.PLP.Chemscore.Metal>
0.0000

> <Gold.Chemscore.Hbonds>
donor molecule, donor type, donor heavy atom, donor atom, acceptor molecule, acceptor atom, score
      L1  H    14    31       P1  7948  1.00
      P1  H  7989  7998       L1    12  0.95
      L1  C     5    28       P1 10175  0.81
      L1  C    13    30       P1  7948  0.85

> <Gold.PLP.Chemscore.Internal.Correction>
0.1319

> <Gold.Rescore>
     Score         DG    S(hbond)    S(metal)    S(lipo)     H(rot)  DE(clash)    DE(int)     intcor
     13.89     -17.28       1.00        0.00     110.59       1.75       1.39       1.99       ----

> <Gold.Chemscore.Fitness>
13.8899

> <Gold.Chemscore.DG>
-17.2757

> <Gold.Chemscore.ZeroCoef>
-5.4800

> <Gold.Chemscore.Hbond>
1.0021

> <Gold.Chemscore.Metal>
0.0000

> <Gold.Chemscore.Lipo>
110.5896

> <Gold.Chemscore.Internal_Hbond>
0.0000

> <Gold.Chemscore.DEClash>
1.3934

> <Gold.Chemscore.DEInternal>
1.9924

> <Gold.Chemscore.Rot>
1.7540

> <Gold.Chemscore.Internal.Correction>
   9.000000E+99

> <Gold.Chemscore.Hbonds>
donor molecule, donor type, donor heavy atom, donor atom, acceptor molecule, acceptor atom, score
      L1  H    14    31       P1  7948  1.00
      P1  H  7989  7998       L1    12  0.21

> <Gold.Chemscore.Hbond.Weighted>
-3.3469

> <Gold.Chemscore.Metal.Weighted>
-0.0000

> <Gold.Chemscore.Lipo.Weighted>
-12.9390

> <Gold.Chemscore.Internal_Hbond.Weighted>
0.0000

> <Gold.Chemscore.DEClash.Weighted>
1.3934

> <Gold.Chemscore.DEInternal.Weighted>
1.9924

> <Gold.Chemscore.Rot.Weighted>
4.4902

> <Gold.Chemscore.Internal.Correction.Weighted>
   9.000000E+99

> <Gold.Protein.RotatedTorsions>
[ 6907 6896 6895 6894 ] final  129.99 input  -60.11 | X-H torsion
[ 7974 7965 7964 7962 ] final  -54.95 input  175.53 | X-H torsion
[ 8008 7997 7996 7995 ] final -114.14 input   59.86 | X-H torsion
[ 10167 10162 10161 10158 ] final    3.35 input  -65.29 | X-H torsion
[ 10718 10713 10712 10709 ] final  -62.22 input   66.30 | X-H torsion
[ 10763 10752 10751 10750 ] final  174.91 input  -60.55 | X-H torsion
[ 11005 11000 10999 10996 ] final  -45.83 input  -57.11 | X-H torsion

> <Gold.Protein.ActiveResidues>
 VAL166  LYS551  ARG553  GLY616  TRP617  ASP618  TYR619  PRO620  LYS621  CYS622 
 ASP623  PHE694  ASN695  SER759  ASP760  ASP761  ALA762  ILE779  LEU786  VAL792 
 PHE793  MET794  SER795  GLU796  ALA797  LYS798  CYS799  TRP800  GLU811  SER814 

> <Gold.Protein.RotatedAtoms>
  152.3570  133.6249  159.5986 H   0  0  0  0  0  0  0  0  0  0  0  0  # atno 6907 bound_to 6896
  150.7575  133.9484  159.3487 H   0  0  0  0  0  0  0  0  0  0  0  0  # atno 6908 bound_to 6896
  151.7328  135.0872  160.0354 H   0  0  0  0  0  0  0  0  0  0  0  0  # atno 6909 bound_to 6896
  145.8797  140.8154  142.9846 H   0  0  0  0  0  0  0  0  0  0  0  0  # atno 7974 bound_to 7965
  155.0317  140.0393  157.2476 H   0  0  0  0  0  0  0  0  0  0  0  0  # atno 8008 bound_to 7997
  154.7291  140.2727  155.6448 H   0  0  0  0  0  0  0  0  0  0  0  0  # atno 8009 bound_to 7997
  156.2837  140.2687  156.1986 H   0  0  0  0  0  0  0  0  0  0  0  0  # atno 8010 bound_to 7997
  140.6590  143.7353  150.7705 H   0  0  0  0  0  0  0  0  0  0  0  0  # atno 10167 bound_to 10162
  156.0869  130.4206  150.1104 H   0  0  0  0  0  0  0  0  0  0  0  0  # atno 10718 bound_to 10713
  154.4604  135.2767  155.1717 H   0  0  0  0  0  0  0  0  0  0  0  0  # atno 10763 bound_to 10752
  154.3507  135.6150  153.5645 H   0  0  0  0  0  0  0  0  0  0  0  0  # atno 10764 bound_to 10752
  152.9854  135.5811  154.4965 H   0  0  0  0  0  0  0  0  0  0  0  0  # atno 10765 bound_to 10752
  141.0540  133.6732  156.3068 H   0  0  0  0  0  0  0  0  0  0  0  0  # atno 11005 bound_to 11000
  144.6727  140.1365  143.7440 LP  0  0  0  0  0  0  0  0  0  0  0  0  # atno 17320 bound_to 7965
  145.9038  139.2446  143.1478 LP  0  0  0  0  0  0  0  0  0  0  0  0  # atno 17321 bound_to 7965
  140.1018  143.4781  152.2421 LP  0  0  0  0  0  0  0  0  0  0  0  0  # atno 17342 bound_to 10162
  139.5819  144.7514  151.3618 LP  0  0  0  0  0  0  0  0  0  0  0  0  # atno 17343 bound_to 10162
  156.9123  130.9656  151.3561 LP  0  0  0  0  0  0  0  0  0  0  0  0  # atno 17370 bound_to 10713
  157.6007  130.8510  149.8797 LP  0  0  0  0  0  0  0  0  0  0  0  0  # atno 17371 bound_to 10713
  140.5999  134.5565  157.5515 LP  0  0  0  0  0  0  0  0  0  0  0  0  # atno 17394 bound_to 11000
  139.9374  134.7849  156.0766 LP  0  0  0  0  0  0  0  0  0  0  0  0  # atno 17395 bound_to 11000

$$$$
