AV-unprocessed.smi:2784|AV-procd|sdf|10745|dock1
  -GOLD-   2272015183D 1   1.00000     0.00000
 Structure written by MMmdl.
 30 31  0  0  0  0  0  0  0  0  2 V2000
  152.8426  142.5630  162.2639 C   0  0  0  0  0  0  0  0  0  0  0  0
  152.9944  142.3869  160.8645 O   0  0  0  0  0  0  0  0  0  0  0  0
  152.0433  143.1064  160.0903 C   0  0  1  0  0  0  0  0  0  0  0  0
  151.9212  144.5663  160.5515 C   0  0  0  0  0  0  0  0  0  0  0  0
  151.6076  145.3471  159.2808 C   0  0  0  0  0  0  0  0  0  0  0  0
  152.4501  144.6540  158.2123 C   0  0  0  0  0  0  0  0  0  0  0  0
  152.4932  143.1661  158.6136 C   0  0  2  0  0  0  0  0  0  0  0  0
  151.6037  142.3671  157.7724 N   0  0  0  0  0  0  0  0  0  0  0  0
  151.7751  141.0780  157.4455 C   0  0  0  0  0  0  0  0  0  0  0  0
  152.7587  140.4633  157.8645 O   0  0  0  0  0  0  0  0  0  0  0  0
  150.7996  140.5838  156.6502 N   0  5  0  0  0  0  0  0  0  0  0  0
  151.0991  139.6660  155.7167 C   0  0  0  0  0  0  0  0  0  0  0  0
  150.2421  139.0845  154.8755 N   0  0  0  0  0  0  0  0  0  0  0  0
  150.9998  138.2214  154.0989 C   0  0  0  0  0  0  0  0  0  0  0  0
  152.3023  138.3259  154.5044 C   0  0  0  0  0  0  0  0  0  0  0  0
  152.3782  139.2363  155.5218 O   0  0  0  0  0  0  0  0  0  0  0  0
  153.5904  141.9679  162.7879 H   0  0  0  0  0  0  0  0  0  0  0  0
  151.8582  142.2331  162.5987 H   0  0  0  0  0  0  0  0  0  0  0  0
  152.9814  143.6044  162.5561 H   0  0  0  0  0  0  0  0  0  0  0  0
  151.0649  142.6253  160.1572 H   0  0  0  0  0  0  0  0  0  0  0  0
  151.1645  144.7018  161.3246 H   0  0  0  0  0  0  0  0  0  0  0  0
  152.8748  144.9094  160.9557 H   0  0  0  0  0  0  0  0  0  0  0  0
  150.5487  145.2483  159.0378 H   0  0  0  0  0  0  0  0  0  0  0  0
  151.8348  146.4095  159.3714 H   0  0  0  0  0  0  0  0  0  0  0  0
  152.0625  144.8260  157.2072 H   0  0  0  0  0  0  0  0  0  0  0  0
  153.4625  145.0590  158.2371 H   0  0  0  0  0  0  0  0  0  0  0  0
  153.5143  142.7922  158.5161 H   0  0  0  0  0  0  0  0  0  0  0  0
  150.7844  142.8308  157.4081 H   0  0  0  0  0  0  0  0  0  0  0  0
  150.5578  137.6104  153.3262 H   0  0  0  0  0  0  0  0  0  0  0  0
  153.2265  137.8601  154.1969 H   0  0  0  0  0  0  0  0  0  0  0  0
  1  2  1  0  0  0  0
  1 17  1  0  0  0  0
  1 18  1  0  0  0  0
  1 19  1  0  0  0  0
  2  3  1  0  0  0  0
  3  7  1  0  0  0  0
  3  4  1  0  0  0  0
  3 20  1  0  0  0  0
  4  5  1  0  0  0  0
  4 21  1  0  0  0  0
  4 22  1  0  0  0  0
  5  6  1  0  0  0  0
  5 23  1  0  0  0  0
  5 24  1  0  0  0  0
  6  7  1  0  0  0  0
  6 25  1  0  0  0  0
  6 26  1  0  0  0  0
  7  8  1  0  0  0  0
  7 27  1  0  0  0  0
  8 28  1  0  0  0  0
  8  9  1  0  0  0  0
  9 11  1  0  0  0  0
  9 10  2  0  0  0  0
 11 12  1  0  0  0  0
 12 16  1  0  0  0  0
 12 13  2  0  0  0  0
 13 14  1  0  0  0  0
 14 29  1  0  0  0  0
 14 15  2  0  0  0  0
 15 30  1  0  0  0  0
 15 16  1  0  0  0  0
M  CHG  1  11  -1
M  END
> <s_m_source_file>
AV-unprocessed.smi

> <i_m_source_file_index>
2784

> <i_lp_mmshare_version>
43012

> <i_f3d_flags>
0

> <s_epik_input>
W0NIM11PW0NAQEhdMVtDSDJdW0NIMl1bQ0gyXVtDQEhdMVtOSF1DKD1PKVtOSF1jMm5bY0hdW2NIXW8y

> <s_epik_cmdline>
J2VwaWtfcHl0aG9uJywgJy1waCcsICc3LjAnLCAnLXRuJywgJzgnLCAnLW1hJywgJzIwMCcsICctbWV0YWxfYmluZGluZycsICctaW1hZScsICc8aW5maWxlLm1hZT4nLCAnLW9tYWUnLCAnPG91dGZpbGUubWFlPic=

> <r_lp_tautomer_probability>
0.107061

> <r_epik_Ionization_Penalty>
10.8857

> <r_epik_Ionization_Penalty_Charging>
7.67908

> <r_epik_Ionization_Penalty_Neutral>
3.20665

> <r_epik_State_Penalty>
5.80296

> <r_epik_Charging_Adjusted_Penalty>
13.482

> <i_epik_Tot_Q>
-1

> <i_epik_Tot_abs_Q>
1

> <r_epik_Metal_State_Penalty>
1.73217

> <b_epik_Metal_Only>
1

> <s_lp_Force_Field>
OPLS_2005

> <r_lp_Energy>
14.4725

> <b_lp_Chiralities_Consistent>
1

> <s_lp_Variant>
AV-unprocessed.smi:2784-20

> <Gold.Version>
5.8.1

> <Gold.Id.Protein>
6NUR|6NUR_protein|mol2

> <Gold.PLP.Fitness>
44.1482

> <Gold.PLP.PLP>
-39.3795

> <Gold.PLP.part.hbond>
-1.2140

> <Gold.PLP.part.metal>
0.0000

> <Gold.PLP.part.buried>
-4.9873

> <Gold.PLP.part.nonpolar>
-32.6170

> <Gold.PLP.part.repulsive>
0.1773

> <Gold.PLP.ligand.clash>
0.0000

> <Gold.PLP.ligand.torsion>
0.7031

> <Gold.PLP.Chemscore.Hbond>
0.8480

> <Gold.PLP.Chemscore.CHOScore>
1.1878

> <Gold.PLP.Chemscore.Metal>
0.0000

> <Gold.Chemscore.Hbonds>
donor molecule, donor type, donor heavy atom, donor atom, acceptor molecule, acceptor atom, score
      P1  H  7997  8010       L1    10  0.85
      L1  C    14    29       P1  7948  0.60
      L1  C    14    29       P1  7949  0.58

> <Gold.PLP.Chemscore.Internal.Correction>
0.0676

> <Gold.Rescore>
     Score         DG    S(hbond)    S(metal)    S(lipo)     H(rot)  DE(clash)    DE(int)     intcor
     13.67     -15.88       0.86        0.00      93.13       1.31       0.00       2.21       ----

> <Gold.Chemscore.Fitness>
13.6700

> <Gold.Chemscore.DG>
-15.8846

> <Gold.Chemscore.ZeroCoef>
-5.4800

> <Gold.Chemscore.Hbond>
0.8572

> <Gold.Chemscore.Metal>
0.0000

> <Gold.Chemscore.Lipo>
93.1319

> <Gold.Chemscore.Internal_Hbond>
0.0000

> <Gold.Chemscore.DEClash>
0.0025

> <Gold.Chemscore.DEInternal>
2.2120

> <Gold.Chemscore.Rot>
1.3106

> <Gold.Chemscore.Internal.Correction>
   9.000000E+99

> <Gold.Chemscore.Hbonds>
donor molecule, donor type, donor heavy atom, donor atom, acceptor molecule, acceptor atom, score
      P1  H  7997  8010       L1    10  0.78

> <Gold.Chemscore.Hbond.Weighted>
-2.8632

> <Gold.Chemscore.Metal.Weighted>
-0.0000

> <Gold.Chemscore.Lipo.Weighted>
-10.8964

> <Gold.Chemscore.Internal_Hbond.Weighted>
0.0000

> <Gold.Chemscore.DEClash.Weighted>
0.0025

> <Gold.Chemscore.DEInternal.Weighted>
2.2120

> <Gold.Chemscore.Rot.Weighted>
3.3550

> <Gold.Chemscore.Internal.Correction.Weighted>
   9.000000E+99

> <Gold.Protein.RotatedTorsions>
[ 6907 6896 6895 6894 ] final   77.61 input  -60.11 | X-H torsion
[ 7974 7965 7964 7962 ] final -137.07 input  175.53 | X-H torsion
[ 8008 7997 7996 7995 ] final   43.41 input   59.86 | X-H torsion
[ 10167 10162 10161 10158 ] final  140.31 input  -65.29 | X-H torsion
[ 10718 10713 10712 10709 ] final  -52.10 input   66.30 | X-H torsion
[ 10763 10752 10751 10750 ] final   74.92 input  -60.55 | X-H torsion
[ 11005 11000 10999 10996 ] final -163.07 input  -57.11 | X-H torsion

> <Gold.Protein.ActiveResidues>
 VAL166  LYS551  ARG553  GLY616  TRP617  ASP618  TYR619  PRO620  LYS621  CYS622 
 ASP623  PHE694  ASN695  SER759  ASP760  ASP761  ALA762  ILE779  LEU786  VAL792 
 PHE793  MET794  SER795  GLU796  ALA797  LYS798  CYS799  TRP800  GLU811  SER814 

> <Gold.Protein.RotatedAtoms>
  152.5125  134.3790  159.9344 H   0  0  0  0  0  0  0  0  0  0  0  0  # atno 6907 bound_to 6896
  151.3746  133.3836  159.2711 H   0  0  0  0  0  0  0  0  0  0  0  0  # atno 6908 bound_to 6896
  150.9551  134.8966  159.7755 H   0  0  0  0  0  0  0  0  0  0  0  0  # atno 6909 bound_to 6896
  144.8873  140.6592  143.5168 H   0  0  0  0  0  0  0  0  0  0  0  0  # atno 7974 bound_to 7965
  155.3023  140.3386  155.4247 H   0  0  0  0  0  0  0  0  0  0  0  0  # atno 8008 bound_to 7997
  156.1995  140.1727  156.7967 H   0  0  0  0  0  0  0  0  0  0  0  0  # atno 8009 bound_to 7997
  154.5541  140.0700  156.8699 H   0  0  0  0  0  0  0  0  0  0  0  0  # atno 8010 bound_to 7997
  139.5053  144.6242  151.5978 H   0  0  0  0  0  0  0  0  0  0  0  0  # atno 10167 bound_to 10162
  156.1651  130.4149  149.9733 H   0  0  0  0  0  0  0  0  0  0  0  0  # atno 10718 bound_to 10713
  153.0619  135.5008  154.8114 H   0  0  0  0  0  0  0  0  0  0  0  0  # atno 10763 bound_to 10752
  154.6896  135.2982  154.9500 H   0  0  0  0  0  0  0  0  0  0  0  0  # atno 10764 bound_to 10752
  154.0260  135.6736  153.4829 H   0  0  0  0  0  0  0  0  0  0  0  0  # atno 10765 bound_to 10752
  140.6022  134.4936  157.5206 H   0  0  0  0  0  0  0  0  0  0  0  0  # atno 11005 bound_to 11000
  145.3846  139.1629  143.4262 LP  0  0  0  0  0  0  0  0  0  0  0  0  # atno 17320 bound_to 7965
  146.3032  140.3930  142.8696 LP  0  0  0  0  0  0  0  0  0  0  0  0  # atno 17321 bound_to 7965
  140.5954  143.9706  150.6351 LP  0  0  0  0  0  0  0  0  0  0  0  0  # atno 17342 bound_to 10162
  140.2900  143.3331  152.1071 LP  0  0  0  0  0  0  0  0  0  0  0  0  # atno 17343 bound_to 10162
  156.7550  130.9129  151.3639 LP  0  0  0  0  0  0  0  0  0  0  0  0  # atno 17370 bound_to 10713
  157.6762  130.9096  150.0155 LP  0  0  0  0  0  0  0  0  0  0  0  0  # atno 17371 bound_to 10713
  139.9227  134.8116  156.1160 LP  0  0  0  0  0  0  0  0  0  0  0  0  # atno 17394 bound_to 11000
  141.0864  133.6732  156.2446 LP  0  0  0  0  0  0  0  0  0  0  0  0  # atno 17395 bound_to 11000

$$$$
