AV-unprocessed.smi:1725|AV-procd|sdf|6956|dock5
  -GOLD-   22720 8173D 1   1.00000     0.00000
 Structure written by MMmdl.
 35 36  0  0  0  0  0  0  0  0  2 V2000
  151.3919  137.0550  155.2584 C   0  0  0  0  0  0  0  0  0  0  0  0
  151.0517  138.4776  154.7921 C   0  0  1  0  0  0  0  0  0  0  0  0
  149.6504  138.6627  154.9718 O   0  0  0  0  0  0  0  0  0  0  0  0
  149.2051  140.0155  154.9499 C   0  0  0  0  0  0  0  0  0  0  0  0
  147.6904  140.0919  154.8919 C   0  0  0  0  0  0  0  0  0  0  0  0
  146.9747  141.4106  155.1003 C   0  0  0  0  0  0  0  0  0  0  0  0
  146.8657  140.3289  156.1408 C   0  0  0  0  0  0  0  0  0  0  0  0
  151.8342  139.5284  155.5958 C   0  0  0  0  0  0  0  0  0  0  0  0
  152.7087  140.1898  155.0358 O   0  0  0  0  0  0  0  0  0  0  0  0
  151.4849  139.6423  156.8920 N   0  0  0  0  0  0  0  0  0  0  0  0
  152.0419  140.4532  157.8950 C   0  0  0  0  0  0  0  0  0  0  0  0
  151.6102  141.7075  158.2035 C   0  0  0  0  0  0  0  0  0  0  0  0
  152.2400  142.5138  159.2422 C   0  0  0  0  0  0  0  0  0  0  0  0
  151.7995  143.9151  159.6240 C   0  0  0  0  0  0  0  0  0  0  0  0
  152.1259  144.7787  158.6629 F   0  0  0  0  0  0  0  0  0  0  0  0
  150.4768  143.9555  159.7825 F   0  0  0  0  0  0  0  0  0  0  0  0
  152.3717  144.3137  160.7602 F   0  0  0  0  0  0  0  0  0  0  0  0
  153.2998  141.8635  159.8418 C   0  0  0  0  0  0  0  0  0  0  0  0
  153.7946  140.6314  159.5908 N   0  5  0  0  0  0  0  0  0  0  0  0
  153.1999  139.8862  158.6166 C   0  0  0  0  0  0  0  0  0  0  0  0
  153.6056  138.7594  158.3287 O   0  0  0  0  0  0  0  0  0  0  0  0
  152.4573  136.8486  155.1506 H   0  0  0  0  0  0  0  0  0  0  0  0
  150.8522  136.3158  154.6666 H   0  0  0  0  0  0  0  0  0  0  0  0
  151.1238  136.8991  156.3041 H   0  0  0  0  0  0  0  0  0  0  0  0
  151.2942  138.5592  153.7305 H   0  0  0  0  0  0  0  0  0  0  0  0
  149.5382  140.5558  155.8363 H   0  0  0  0  0  0  0  0  0  0  0  0
  149.6148  140.5271  154.0783 H   0  0  0  0  0  0  0  0  0  0  0  0
  147.2504  139.4264  154.1516 H   0  0  0  0  0  0  0  0  0  0  0  0
  147.5744  142.2850  155.3457 H   0  0  0  0  0  0  0  0  0  0  0  0
  146.0983  141.6072  154.4862 H   0  0  0  0  0  0  0  0  0  0  0  0
  145.9149  139.8059  156.2206 H   0  0  0  0  0  0  0  0  0  0  0  0
  147.3899  140.4831  157.0819 H   0  0  0  0  0  0  0  0  0  0  0  0
  150.6890  139.0976  157.1915 H   0  0  0  0  0  0  0  0  0  0  0  0
  150.7915  142.1543  157.6636 H   0  0  0  0  0  0  0  0  0  0  0  0
  153.8310  142.4211  160.6426 H   0  0  0  0  0  0  0  0  0  0  0  0
  1  2  1  0  0  0  0
  1 22  1  0  0  0  0
  1 23  1  0  0  0  0
  1 24  1  0  0  0  0
  2  3  1  0  0  0  0
  2  8  1  0  0  0  0
  2 25  1  0  0  0  0
  3  4  1  0  0  0  0
  4  5  1  0  0  0  0
  4 26  1  0  0  0  0
  4 27  1  0  0  0  0
  5  7  1  0  0  0  0
  5  6  1  0  0  0  0
  5 28  1  0  0  0  0
  6  7  1  0  0  0  0
  6 29  1  0  0  0  0
  6 30  1  0  0  0  0
  7 31  1  0  0  0  0
  7 32  1  0  0  0  0
  8  9  2  0  0  0  0
  8 10  1  0  0  0  0
 10 11  1  0  0  0  0
 10 33  1  0  0  0  0
 11 20  1  0  0  0  0
 11 12  2  0  0  0  0
 12 13  1  0  0  0  0
 12 34  1  0  0  0  0
 13 14  1  0  0  0  0
 13 18  2  0  0  0  0
 14 15  1  0  0  0  0
 14 16  1  0  0  0  0
 14 17  1  0  0  0  0
 18 19  1  0  0  0  0
 18 35  1  0  0  0  0
 19 20  1  0  0  0  0
 20 21  2  0  0  0  0
M  CHG  1  19  -1
M  END
> <s_m_source_file>
AV-unprocessed.smi

> <i_m_source_file_index>
1725

> <i_lp_mmshare_version>
43012

> <i_f3d_flags>
0

> <s_epik_input>
W0NIMl0xW0NIMl1bQ0hdMVtDSDJdT1tDQEBIXShbQ0gzXSlDKD1PKVtOSF1jMltjSF1jKEMoRikoRilGKVtjSF1bbkhdYzI9Tw==

> <s_epik_cmdline>
J2VwaWtfcHl0aG9uJywgJy1waCcsICc3LjAnLCAnLXRuJywgJzgnLCAnLW1hJywgJzIwMCcsICctbWV0YWxfYmluZGluZycsICctaW1hZScsICc8aW5maWxlLm1hZT4nLCAnLW9tYWUnLCAnPG91dGZpbGUubWFlPic=

> <r_lp_tautomer_probability>
0.999

> <r_epik_Ionization_Penalty>
2.64397

> <r_epik_Ionization_Penalty_Charging>
0.0618254

> <r_epik_Ionization_Penalty_Neutral>
2.58215

> <r_epik_State_Penalty>
2.58023

> <r_epik_Charging_Adjusted_Penalty>
2.64205

> <i_epik_Tot_Q>
-1

> <i_epik_Tot_abs_Q>
1

> <r_epik_Metal_State_Penalty>
0.429101

> <b_epik_Metal_Only>
1

> <s_lp_Force_Field>
OPLS_2005

> <r_lp_Energy>
29.0368

> <b_lp_Chiralities_Consistent>
1

> <s_lp_Variant>
AV-unprocessed.smi:1725-4

> <Gold.Version>
5.8.1

> <Gold.Id.Protein>
6NUR|6NUR_protein|mol2

> <Gold.PLP.Fitness>
47.3388

> <Gold.PLP.PLP>
-46.6952

> <Gold.PLP.part.hbond>
-2.0000

> <Gold.PLP.part.metal>
0.0000

> <Gold.PLP.part.buried>
-6.0496

> <Gold.PLP.part.nonpolar>
-39.0302

> <Gold.PLP.part.repulsive>
0.2591

> <Gold.PLP.ligand.clash>
0.0000

> <Gold.PLP.ligand.torsion>
1.7738

> <Gold.PLP.Chemscore.Hbond>
1.1810

> <Gold.PLP.Chemscore.CHOScore>
0.0000

> <Gold.PLP.Chemscore.Metal>
0.0000

> <Gold.Chemscore.Hbonds>
donor molecule, donor type, donor heavy atom, donor atom, acceptor molecule, acceptor atom, score
      P1  H  7989  7998       L1     9  0.42
      P1  H  7997  8009       L1     9  0.96

> <Gold.PLP.Chemscore.Internal.Correction>
0.6483

> <Gold.Rescore>
     Score         DG    S(hbond)    S(metal)    S(lipo)     H(rot)  DE(clash)    DE(int)     intcor
     12.87     -14.19       1.01        0.00      84.00       1.76       0.05       1.27       ----

> <Gold.Chemscore.Fitness>
12.8688

> <Gold.Chemscore.DG>
-14.1903

> <Gold.Chemscore.ZeroCoef>
-5.4800

> <Gold.Chemscore.Hbond>
1.0146

> <Gold.Chemscore.Metal>
0.0000

> <Gold.Chemscore.Lipo>
84.0000

> <Gold.Chemscore.Internal_Hbond>
0.0000

> <Gold.Chemscore.DEClash>
0.0492

> <Gold.Chemscore.DEInternal>
1.2724

> <Gold.Chemscore.Rot>
1.7604

> <Gold.Chemscore.Internal.Correction>
   9.000000E+99

> <Gold.Chemscore.Hbonds>
donor molecule, donor type, donor heavy atom, donor atom, acceptor molecule, acceptor atom, score
      P1  H  7989  7998       L1     9  0.11
      P1  H  7997  8009       L1     9  0.88

> <Gold.Chemscore.Hbond.Weighted>
-3.3889

> <Gold.Chemscore.Metal.Weighted>
-0.0000

> <Gold.Chemscore.Lipo.Weighted>
-9.8280

> <Gold.Chemscore.Internal_Hbond.Weighted>
0.0000

> <Gold.Chemscore.DEClash.Weighted>
0.0492

> <Gold.Chemscore.DEInternal.Weighted>
1.2724

> <Gold.Chemscore.Rot.Weighted>
4.5065

> <Gold.Chemscore.Internal.Correction.Weighted>
   9.000000E+99

> <Gold.Protein.RotatedTorsions>
[ 6907 6896 6895 6894 ] final   33.43 input  -60.11 | X-H torsion
[ 7974 7965 7964 7962 ] final   67.53 input  175.53 | X-H torsion
[ 8008 7997 7996 7995 ] final -118.57 input   59.86 | X-H torsion
[ 10167 10162 10161 10158 ] final   94.34 input  -65.29 | X-H torsion
[ 10718 10713 10712 10709 ] final  156.61 input   66.30 | X-H torsion
[ 10763 10752 10751 10750 ] final  158.55 input  -60.55 | X-H torsion
[ 11005 11000 10999 10996 ] final  -86.78 input  -57.11 | X-H torsion

> <Gold.Protein.ActiveResidues>
 VAL166  LYS551  ARG553  GLY616  TRP617  ASP618  TYR619  PRO620  LYS621  CYS622 
 ASP623  PHE694  ASN695  SER759  ASP760  ASP761  ALA762  ILE779  LEU786  VAL792 
 PHE793  MET794  SER795  GLU796  ALA797  LYS798  CYS799  TRP800  GLU811  SER814 

> <Gold.Protein.RotatedAtoms>
  152.0883  134.9424  160.0572 H   0  0  0  0  0  0  0  0  0  0  0  0  # atno 6907 bound_to 6896
  152.0686  133.4091  159.4457 H   0  0  0  0  0  0  0  0  0  0  0  0  # atno 6908 bound_to 6896
  150.6836  134.3038  159.4761 H   0  0  0  0  0  0  0  0  0  0  0  0  # atno 6909 bound_to 6896
  145.8136  139.3046  143.1085 H   0  0  0  0  0  0  0  0  0  0  0  0  # atno 7974 bound_to 7965
  155.1018  140.0396  157.2699 H   0  0  0  0  0  0  0  0  0  0  0  0  # atno 8008 bound_to 7997
  154.6752  140.2621  155.6940 H   0  0  0  0  0  0  0  0  0  0  0  0  # atno 8009 bound_to 7997
  156.2674  140.2789  156.1276 H   0  0  0  0  0  0  0  0  0  0  0  0  # atno 8010 bound_to 7997
  139.8093  144.6780  150.9662 H   0  0  0  0  0  0  0  0  0  0  0  0  # atno 10167 bound_to 10162
  157.2026  131.0679  151.2016 H   0  0  0  0  0  0  0  0  0  0  0  0  # atno 10718 bound_to 10713
  154.2178  135.2783  155.2935 H   0  0  0  0  0  0  0  0  0  0  0  0  # atno 10763 bound_to 10752
  154.5726  135.5614  153.7113 H   0  0  0  0  0  0  0  0  0  0  0  0  # atno 10764 bound_to 10752
  153.0049  135.6325  154.2318 H   0  0  0  0  0  0  0  0  0  0  0  0  # atno 10765 bound_to 10752
  141.1625  133.7474  156.9212 H   0  0  0  0  0  0  0  0  0  0  0  0  # atno 11005 bound_to 11000
  145.9751  140.8729  143.0143 LP  0  0  0  0  0  0  0  0  0  0  0  0  # atno 17320 bound_to 7965
  144.6755  140.2000  143.7388 LP  0  0  0  0  0  0  0  0  0  0  0  0  # atno 17321 bound_to 7965
  140.7818  143.4202  151.0854 LP  0  0  0  0  0  0  0  0  0  0  0  0  # atno 17342 bound_to 10162
  139.7869  143.8274  152.3146 LP  0  0  0  0  0  0  0  0  0  0  0  0  # atno 17343 bound_to 10162
  157.3752  130.7202  149.6592 LP  0  0  0  0  0  0  0  0  0  0  0  0  # atno 17370 bound_to 10713
  155.9699  130.4188  150.4343 LP  0  0  0  0  0  0  0  0  0  0  0  0  # atno 17371 bound_to 10713
  140.1450  134.9268  157.2518 LP  0  0  0  0  0  0  0  0  0  0  0  0  # atno 17394 bound_to 11000
  140.2791  134.3371  155.7349 LP  0  0  0  0  0  0  0  0  0  0  0  0  # atno 17395 bound_to 11000

$$$$
