AV-unprocessed.smi:72|AV-procd|sdf|692|dock8
  -GOLD-   2262017 03D 1   1.00000     0.00000
 Structure written by MMmdl.
 29 30  0  0  0  0  0  0  0  0  1 V2000
  147.5593  143.0441  157.8799 N   0  0  0  0  0  0  0  0  0  0  0  0
  147.9809  142.0268  157.2183 C   0  0  0  0  0  0  0  0  0  0  0  0
  148.0180  140.7078  157.6935 N   0  0  0  0  0  0  0  0  0  0  0  0
  148.4567  139.7747  156.9061 C   0  0  0  0  0  0  0  0  0  0  0  0
  148.8932  140.0482  155.5419 N   0  0  0  0  0  0  0  0  0  0  0  0
  149.4206  138.9668  154.6124 C   0  0  1  0  0  0  0  0  0  0  0  0
  150.7739  139.1922  154.3365 O   0  0  0  0  0  0  0  0  0  0  0  0
  151.5813  138.3728  155.1772 C   0  0  2  0  0  0  0  0  0  0  0  0
  153.0179  138.2626  154.6384 C   0  0  0  0  0  0  0  0  0  0  0  0
  153.5982  139.5465  154.5556 O   0  0  0  0  0  0  0  0  0  0  0  0
  150.7784  137.0692  155.2093 C   0  0  2  0  0  0  0  0  0  0  0  0
  151.0305  136.3042  154.0416 O   0  0  0  0  0  0  0  0  0  0  0  0
  149.3379  137.5760  155.2806 C   0  0  2  0  0  0  0  0  0  0  0  0
  148.4241  136.7000  154.6475 O   0  0  0  0  0  0  0  0  0  0  0  0
  148.8971  141.3831  155.0651 C   0  0  0  0  0  0  0  0  0  0  0  0
  149.2952  141.6788  153.9384 O   0  0  0  0  0  0  0  0  0  0  0  0
  148.4312  142.3143  155.9244 N   0  0  0  0  0  0  0  0  0  0  0  0
  148.8377  139.0658  153.6949 H   0  0  0  0  0  0  0  0  0  0  0  0
  151.5941  138.7869  156.1873 H   0  0  0  0  0  0  0  0  0  0  0  0
  151.0320  136.4584  156.0764 H   0  0  0  0  0  0  0  0  0  0  0  0
  149.0533  137.6933  156.3276 H   0  0  0  0  0  0  0  0  0  0  0  0
  147.2532  142.7569  158.7986 H   0  0  0  0  0  0  0  0  0  0  0  0
  148.5222  138.7346  157.2250 H   0  0  0  0  0  0  0  0  0  0  0  0
  153.6294  137.6701  155.3194 H   0  0  0  0  0  0  0  0  0  0  0  0
  153.0448  137.7729  153.6644 H   0  0  0  0  0  0  0  0  0  0  0  0
  152.9901  140.1206  154.1149 H   0  0  0  0  0  0  0  0  0  0  0  0
  150.2762  136.3713  153.4759 H   0  0  0  0  0  0  0  0  0  0  0  0
  148.7391  136.5213  153.7740 H   0  0  0  0  0  0  0  0  0  0  0  0
  148.4131  143.2741  155.6114 H   0  0  0  0  0  0  0  0  0  0  0  0
  1  2  2  0  0  0  0
  1 22  1  0  0  0  0
  2 17  1  0  0  0  0
  2  3  1  0  0  0  0
  3  4  2  0  0  0  0
  4  5  1  0  0  0  0
  4 23  1  0  0  0  0
  5  6  1  0  0  0  0
  5 15  1  0  0  0  0
  6 18  1  0  0  0  0
  6 13  1  0  0  0  0
  6  7  1  0  0  0  0
  7  8  1  0  0  0  0
  8 19  1  0  0  0  0
  8  9  1  0  0  0  0
  8 11  1  0  0  0  0
  9 10  1  0  0  0  0
  9 24  1  0  0  0  0
  9 25  1  0  0  0  0
 10 26  1  0  0  0  0
 11 20  1  0  0  0  0
 11 12  1  0  0  0  0
 11 13  1  0  0  0  0
 12 27  1  0  0  0  0
 13 21  1  0  0  0  0
 13 14  1  0  0  0  0
 14 28  1  0  0  0  0
 15 16  2  0  0  0  0
 15 17  1  0  0  0  0
 17 29  1  0  0  0  0
M  END
> <s_m_source_file>
AV-unprocessed.smi

> <i_m_source_file_index>
72

> <i_lp_mmshare_version>
43012

> <i_f3d_flags>
0

> <s_epik_input>
W05IMl1jMW5bY0hdbihjKD1PKW4xKVtDQEBIXTJPW0NASF0oW0NIMl1bT0hdKVtDQEBIXShbT0hdKVtDQEhdMltPSF0=

> <s_epik_cmdline>
J2VwaWtfcHl0aG9uJywgJy1waCcsICc3LjAnLCAnLXRuJywgJzgnLCAnLW1hJywgJzIwMCcsICctbWV0YWxfYmluZGluZycsICctaW1hZScsICc8aW5maWxlLm1hZT4nLCAnLW9tYWUnLCAnPG91dGZpbGUubWFlPic=

> <r_lp_tautomer_probability>
7.17554e-07

> <r_epik_Ionization_Penalty>
0.0066451

> <r_epik_Ionization_Penalty_Charging>
0.00663793

> <r_epik_Ionization_Penalty_Neutral>
7.17052e-06

> <r_epik_State_Penalty>
0.419231

> <r_epik_Charging_Adjusted_Penalty>
0.425868

> <i_epik_Tot_Q>
0

> <i_epik_Tot_abs_Q>
0

> <r_epik_Metal_State_Penalty>
1.44144

> <b_epik_Metal_Only>
0

> <s_epik_Chemistry_Notes>
This compound contains an acetal/aminal-like group ( X-CH(R)-Y where X, Y are N, S, or O) that may be acid/base labile, releasing an aldehyde.

> <s_lp_Force_Field>
OPLS_2005

> <r_lp_Energy>
42.1685

> <b_lp_Chiralities_Consistent>
1

> <s_lp_Variant>
AV-unprocessed.smi:72-30

> <Gold.Version>
5.8.1

> <Gold.Id.Protein>
6NUR|6NUR_protein|mol2

> <Gold.PLP.Fitness>
41.5358

> <Gold.PLP.PLP>
-24.0128

> <Gold.PLP.part.hbond>
-11.6134

> <Gold.PLP.part.metal>
0.0000

> <Gold.PLP.part.buried>
-0.0738

> <Gold.PLP.part.nonpolar>
-12.9274

> <Gold.PLP.part.repulsive>
0.4623

> <Gold.PLP.ligand.clash>
0.0000

> <Gold.PLP.ligand.torsion>
0.0370

> <Gold.PLP.Chemscore.Hbond>
5.8582

> <Gold.PLP.Chemscore.CHOScore>
0.0000

> <Gold.PLP.Chemscore.Metal>
0.0000

> <Gold.Chemscore.Hbonds>
donor molecule, donor type, donor heavy atom, donor atom, acceptor molecule, acceptor atom, score
      L1  H    12    27       P1  7948  0.39
      L1  H    14    28       P1  7948  1.00
      L1  H    17    29       P1  8028  0.94
      P1  H  7989  7998       L1     7  0.94
      P1  H  7997  8010       L1    10  1.00
      P1  H  8011  8017       L1    16  0.61
      P1  H 10752 10764       L1    12  0.99

> <Gold.PLP.Chemscore.Internal.Correction>
0.0223

> <Gold.Rescore>
     Score         DG    S(hbond)    S(metal)    S(lipo)     H(rot)  DE(clash)    DE(int)     intcor
     14.03     -15.65       5.26        0.00      25.59       4.06       0.31       1.30       ----

> <Gold.Chemscore.Fitness>
14.0335

> <Gold.Chemscore.DG>
-15.6486

> <Gold.Chemscore.ZeroCoef>
-5.4800

> <Gold.Chemscore.Hbond>
5.2600

> <Gold.Chemscore.Metal>
0.0000

> <Gold.Chemscore.Lipo>
25.5878

> <Gold.Chemscore.Internal_Hbond>
0.0000

> <Gold.Chemscore.DEClash>
0.3122

> <Gold.Chemscore.DEInternal>
1.3029

> <Gold.Chemscore.Rot>
4.0600

> <Gold.Chemscore.Internal.Correction>
   9.000000E+99

> <Gold.Chemscore.Hbonds>
donor molecule, donor type, donor heavy atom, donor atom, acceptor molecule, acceptor atom, score
      L1  H    12    27       P1  7948  0.01
      L1  H    14    28       P1  7948  0.99
      L1  H    17    29       P1  8028  0.86
      P1  H  7989  7998       L1     7  0.86
      P1  H  7997  8010       L1    10  0.94
      P1  H  8011  8017       L1    16  0.62
      P1  H 10752 10764       L1    12  0.32

> <Gold.Chemscore.Hbond.Weighted>
-17.5685

> <Gold.Chemscore.Metal.Weighted>
-0.0000

> <Gold.Chemscore.Lipo.Weighted>
-2.9938

> <Gold.Chemscore.Internal_Hbond.Weighted>
0.0000

> <Gold.Chemscore.DEClash.Weighted>
0.3122

> <Gold.Chemscore.DEInternal.Weighted>
1.3029

> <Gold.Chemscore.Rot.Weighted>
10.3936

> <Gold.Chemscore.Internal.Correction.Weighted>
   9.000000E+99

> <Gold.Protein.RotatedTorsions>
[ 6907 6896 6895 6894 ] final  -93.27 input  -60.11 | X-H torsion
[ 7974 7965 7964 7962 ] final  -99.66 input  175.53 | X-H torsion
[ 8008 7997 7996 7995 ] final  121.52 input   59.86 | X-H torsion
[ 10167 10162 10161 10158 ] final -174.12 input  -65.29 | X-H torsion
[ 10718 10713 10712 10709 ] final -177.86 input   66.30 | X-H torsion
[ 10763 10752 10751 10750 ] final  -70.31 input  -60.55 | X-H torsion
[ 11005 11000 10999 10996 ] final   44.67 input  -57.11 | X-H torsion

> <Gold.Protein.ActiveResidues>
 VAL166  LYS551  ARG553  GLY616  TRP617  ASP618  TYR619  PRO620  LYS621  CYS622 
 ASP623  PHE694  ASN695  SER759  ASP760  ASP761  ALA762  ILE779  LEU786  VAL792 
 PHE793  MET794  SER795  GLU796  ALA797  LYS798  CYS799  TRP800  GLU811  SER814 

> <Gold.Protein.RotatedAtoms>
  150.6920  134.1993  159.4315 H   0  0  0  0  0  0  0  0  0  0  0  0  # atno 6907 bound_to 6896
  151.9960  134.9951  160.0572 H   0  0  0  0  0  0  0  0  0  0  0  0  # atno 6908 bound_to 6896
  152.1623  133.4555  159.4904 H   0  0  0  0  0  0  0  0  0  0  0  0  # atno 6909 bound_to 6896
  145.3047  140.9386  143.2803 H   0  0  0  0  0  0  0  0  0  0  0  0  # atno 7974 bound_to 7965
  156.2690  140.2806  156.1321 H   0  0  0  0  0  0  0  0  0  0  0  0  # atno 8008 bound_to 7997
  155.1044  140.0390  157.2723 H   0  0  0  0  0  0  0  0  0  0  0  0  # atno 8009 bound_to 7997
  154.6791  140.2604  155.6933 H   0  0  0  0  0  0  0  0  0  0  0  0  # atno 8010 bound_to 7997
  139.5651  144.1775  152.1300 H   0  0  0  0  0  0  0  0  0  0  0  0  # atno 10167 bound_to 10162
  156.8358  130.9669  151.3103 H   0  0  0  0  0  0  0  0  0  0  0  0  # atno 10718 bound_to 10713
  154.4158  135.5998  153.5980 H   0  0  0  0  0  0  0  0  0  0  0  0  # atno 10763 bound_to 10752
  152.9792  135.5940  154.4014 H   0  0  0  0  0  0  0  0  0  0  0  0  # atno 10764 bound_to 10752
  154.3833  135.2841  155.2177 H   0  0  0  0  0  0  0  0  0  0  0  0  # atno 10765 bound_to 10752
  140.1530  134.4437  155.8368 H   0  0  0  0  0  0  0  0  0  0  0  0  # atno 11005 bound_to 11000
  144.9065  139.4583  143.6608 LP  0  0  0  0  0  0  0  0  0  0  0  0  # atno 17320 bound_to 7965
  146.3139  139.7848  142.8998 LP  0  0  0  0  0  0  0  0  0  0  0  0  # atno 17321 bound_to 7965
  140.1296  144.5300  150.6811 LP  0  0  0  0  0  0  0  0  0  0  0  0  # atno 17342 bound_to 10162
  140.6934  143.2389  151.5068 LP  0  0  0  0  0  0  0  0  0  0  0  0  # atno 17343 bound_to 10162
  157.6382  130.8784  149.9399 LP  0  0  0  0  0  0  0  0  0  0  0  0  # atno 17370 bound_to 10713
  156.0908  130.3663  150.0398 LP  0  0  0  0  0  0  0  0  0  0  0  0  # atno 17371 bound_to 10713
  141.2201  133.6880  156.7457 LP  0  0  0  0  0  0  0  0  0  0  0  0  # atno 17394 bound_to 11000
  140.2581  134.8488  157.3732 LP  0  0  0  0  0  0  0  0  0  0  0  0  # atno 17395 bound_to 11000

$$$$
