AV-unprocessed.smi:2196|AV-procd|sdf|8908|dock5
  -GOLD-   2272012123D 1   1.00000     0.00000
 Structure written by MMmdl.
 45 46  0  0  0  0  0  0  0  0  1 V2000
  147.8993  141.7154  155.4424 C   0  0  0  0  0  0  0  0  0  0  0  0
  148.1512  141.6494  156.9544 C   0  0  0  0  0  0  0  0  0  0  0  0
  149.5142  141.2303  157.2699 N   0  0  0  0  0  0  0  0  0  0  0  0
  150.5854  142.1441  156.8719 C   0  0  0  0  0  0  0  0  0  0  0  0
  150.8619  143.2439  157.8820 C   0  0  0  0  0  0  0  0  0  0  0  0
  152.0108  144.0512  157.7490 C   0  0  0  0  0  0  0  0  0  0  0  0
  152.2548  145.0913  158.6669 C   0  0  0  0  0  0  0  0  0  0  0  0
  151.3499  145.3281  159.7196 C   0  0  0  0  0  0  0  0  0  0  0  0
  150.2010  144.5249  159.8543 C   0  0  0  0  0  0  0  0  0  0  0  0
  149.9569  143.4844  158.9372 C   0  0  0  0  0  0  0  0  0  0  0  0
  149.7808  139.9790  157.8267 C   0  0  0  0  0  0  0  0  0  0  0  0
  148.8199  139.0409  158.0752 C   0  0  0  0  0  0  0  0  0  0  0  0
  147.4894  139.3239  157.8092 N   0  0  0  0  0  0  0  0  0  0  0  0
  149.1327  137.7809  158.5930 N   0  0  0  0  0  0  0  0  0  0  0  0
  148.1466  136.7499  158.8461 C   0  0  0  0  0  0  0  0  0  0  0  0
  148.1999  136.2299  160.2899 C   0  0  0  0  0  0  0  0  0  0  0  0
  147.5862  137.1822  161.1413 O   0  0  0  0  0  0  0  0  0  0  0  0
  147.0589  136.5957  162.3182 C   0  0  0  0  0  0  0  0  0  0  0  0
  150.4814  137.4297  158.8373 C   0  0  0  0  0  0  0  0  0  0  0  0
  150.8337  136.3235  159.2480 O   0  0  0  0  0  0  0  0  0  0  0  0
  151.4426  138.4018  158.5874 N   0  0  0  0  0  0  0  0  0  0  0  0
  151.1935  139.6805  158.0962 C   0  0  0  0  0  0  0  0  0  0  0  0
  152.1378  140.4477  157.9108 O   0  0  0  0  0  0  0  0  0  0  0  0
  152.4051  138.1563  158.7669 H   0  0  0  0  0  0  0  0  0  0  0  0
  146.8693  142.0059  155.2352 H   0  0  0  0  0  0  0  0  0  0  0  0
  148.0715  140.7461  154.9738 H   0  0  0  0  0  0  0  0  0  0  0  0
  148.5506  142.4434  154.9584 H   0  0  0  0  0  0  0  0  0  0  0  0
  147.9572  142.6207  157.4110 H   0  0  0  0  0  0  0  0  0  0  0  0
  147.4373  140.9574  157.4033 H   0  0  0  0  0  0  0  0  0  0  0  0
  151.4964  141.5756  156.6845 H   0  0  0  0  0  0  0  0  0  0  0  0
  150.3360  142.6228  155.9239 H   0  0  0  0  0  0  0  0  0  0  0  0
  152.7017  143.8796  156.9365 H   0  0  0  0  0  0  0  0  0  0  0  0
  153.1337  145.7098  158.5605 H   0  0  0  0  0  0  0  0  0  0  0  0
  151.5357  146.1273  160.4217 H   0  0  0  0  0  0  0  0  0  0  0  0
  149.5050  144.7089  160.6593 H   0  0  0  0  0  0  0  0  0  0  0  0
  149.0687  142.8785  159.0403 H   0  0  0  0  0  0  0  0  0  0  0  0
  147.2051  140.2162  157.4315 H   0  0  0  0  0  0  0  0  0  0  0  0
  146.7486  138.6799  158.0468 H   0  0  0  0  0  0  0  0  0  0  0  0
  147.1625  137.1448  158.5874 H   0  0  0  0  0  0  0  0  0  0  0  0
  148.3274  135.9512  158.1275 H   0  0  0  0  0  0  0  0  0  0  0  0
  147.6791  135.2737  160.3641 H   0  0  0  0  0  0  0  0  0  0  0  0
  149.2341  136.0664  160.5971 H   0  0  0  0  0  0  0  0  0  0  0  0
  146.6000  137.3661  162.9377 H   0  0  0  0  0  0  0  0  0  0  0  0
  147.8430  136.1154  162.9049 H   0  0  0  0  0  0  0  0  0  0  0  0
  146.2946  135.8545  162.0811 H   0  0  0  0  0  0  0  0  0  0  0  0
  1  2  1  0  0  0  0
  1 25  1  0  0  0  0
  1 26  1  0  0  0  0
  1 27  1  0  0  0  0
  2  3  1  0  0  0  0
  2 28  1  0  0  0  0
  2 29  1  0  0  0  0
  3  4  1  0  0  0  0
  3 11  1  0  0  0  0
  4  5  1  0  0  0  0
  4 30  1  0  0  0  0
  4 31  1  0  0  0  0
  5 10  1  0  0  0  0
  5  6  2  0  0  0  0
  6  7  1  0  0  0  0
  6 32  1  0  0  0  0
  7  8  2  0  0  0  0
  7 33  1  0  0  0  0
  8  9  1  0  0  0  0
  8 34  1  0  0  0  0
  9 10  2  0  0  0  0
  9 35  1  0  0  0  0
 10 36  1  0  0  0  0
 11 22  1  0  0  0  0
 11 12  2  0  0  0  0
 12 13  1  0  0  0  0
 12 14  1  0  0  0  0
 13 37  1  0  0  0  0
 13 38  1  0  0  0  0
 14 15  1  0  0  0  0
 14 19  1  0  0  0  0
 15 16  1  0  0  0  0
 15 39  1  0  0  0  0
 15 40  1  0  0  0  0
 16 17  1  0  0  0  0
 16 41  1  0  0  0  0
 16 42  1  0  0  0  0
 17 18  1  0  0  0  0
 18 43  1  0  0  0  0
 18 44  1  0  0  0  0
 18 45  1  0  0  0  0
 19 20  2  0  0  0  0
 19 21  1  0  0  0  0
 21 24  1  0  0  0  0
 21 22  1  0  0  0  0
 22 23  2  0  0  0  0
M  END
> <s_m_source_file>
AV-unprocessed.smi

> <i_m_source_file_index>
2196

> <i_lp_mmshare_version>
43012

> <i_f3d_flags>
0

> <s_epik_input>
W0NIM11PW0NIMl1bQ0gyXW4oYyg9TylbbkhdYzE9TyljKFtOSDJdKWMxTihbQ0gyXVtDSDNdKVtDSDJdYzJbY0hdW2NIXVtjSF1bY0hdW2NIXTI=

> <s_epik_cmdline>
J2VwaWtfcHl0aG9uJywgJy1waCcsICc3LjAnLCAnLXRuJywgJzgnLCAnLW1hJywgJzIwMCcsICctbWV0YWxfYmluZGluZycsICctaW1hZScsICc8aW5maWxlLm1hZT4nLCAnLW9tYWUnLCAnPG91dGZpbGUubWFlPic=

> <r_lp_tautomer_probability>
1

> <r_epik_Ionization_Penalty>
0.000571321

> <r_epik_Ionization_Penalty_Charging>
3.00664e-06

> <r_epik_Ionization_Penalty_Neutral>
0.000568314

> <r_epik_State_Penalty>
-0

> <r_epik_Charging_Adjusted_Penalty>
3.00664e-06

> <i_epik_Tot_Q>
0

> <i_epik_Tot_abs_Q>
0

> <r_epik_Metal_State_Penalty>
-0

> <b_epik_Metal_Only>
0

> <s_lp_Force_Field>
OPLS_2005

> <r_lp_Energy>
20.6449

> <b_lp_Chiralities_Consistent>
1

> <s_lp_Variant>
AV-unprocessed.smi:2196-1

> <Gold.Version>
5.8.1

> <Gold.Id.Protein>
6NUR|6NUR_protein|mol2

> <Gold.PLP.Fitness>
47.0282

> <Gold.PLP.PLP>
-39.9812

> <Gold.PLP.part.hbond>
-2.6836

> <Gold.PLP.part.metal>
0.0000

> <Gold.PLP.part.buried>
-5.8162

> <Gold.PLP.part.nonpolar>
-32.8999

> <Gold.PLP.part.repulsive>
0.1988

> <Gold.PLP.ligand.clash>
21.3695

> <Gold.PLP.ligand.torsion>
0.7546

> <Gold.PLP.Chemscore.Hbond>
2.8076

> <Gold.PLP.Chemscore.CHOScore>
0.0000

> <Gold.PLP.Chemscore.Metal>
0.0000

> <Gold.Chemscore.Hbonds>
donor molecule, donor type, donor heavy atom, donor atom, acceptor molecule, acceptor atom, score
      P1  H  6896  6909       L1    20  0.78
      P1  H  6931  6943       L1    17  0.91
      P1  H  6934  6947       L1    17  0.93

> <Gold.PLP.Chemscore.Internal.Correction>
21.5029

> <Gold.Rescore>
     Score         DG    S(hbond)    S(metal)    S(lipo)     H(rot)  DE(clash)    DE(int)     intcor
     12.04     -17.63       1.87        0.00      95.43       2.06       0.20       5.38       ----

> <Gold.Chemscore.Fitness>
12.0426

> <Gold.Chemscore.DG>
-17.6255

> <Gold.Chemscore.ZeroCoef>
-5.4800

> <Gold.Chemscore.Hbond>
1.8702

> <Gold.Chemscore.Metal>
0.0000

> <Gold.Chemscore.Lipo>
95.4302

> <Gold.Chemscore.Internal_Hbond>
0.0000

> <Gold.Chemscore.DEClash>
0.2045

> <Gold.Chemscore.DEInternal>
5.3784

> <Gold.Chemscore.Rot>
2.0571

> <Gold.Chemscore.Internal.Correction>
   9.000000E+99

> <Gold.Chemscore.Hbonds>
donor molecule, donor type, donor heavy atom, donor atom, acceptor molecule, acceptor atom, score
      P1  H  6896  6909       L1    20  0.73
      P1  H  6931  6943       L1    17  0.13
      P1  H  6934  6947       L1    17  0.79

> <Gold.Chemscore.Hbond.Weighted>
-6.2463

> <Gold.Chemscore.Metal.Weighted>
-0.0000

> <Gold.Chemscore.Lipo.Weighted>
-11.1653

> <Gold.Chemscore.Internal_Hbond.Weighted>
0.0000

> <Gold.Chemscore.DEClash.Weighted>
0.2045

> <Gold.Chemscore.DEInternal.Weighted>
5.3784

> <Gold.Chemscore.Rot.Weighted>
5.2661

> <Gold.Chemscore.Internal.Correction.Weighted>
   9.000000E+99

> <Gold.Protein.RotatedTorsions>
[ 6907 6896 6895 6894 ] final  106.52 input  -60.11 | X-H torsion
[ 7974 7965 7964 7962 ] final  -34.74 input  175.53 | X-H torsion
[ 8008 7997 7996 7995 ] final  111.67 input   59.86 | X-H torsion
[ 10167 10162 10161 10158 ] final  128.53 input  -65.29 | X-H torsion
[ 10718 10713 10712 10709 ] final   33.41 input   66.30 | X-H torsion
[ 10763 10752 10751 10750 ] final -153.43 input  -60.55 | X-H torsion
[ 11005 11000 10999 10996 ] final   33.02 input  -57.11 | X-H torsion

> <Gold.Protein.ActiveResidues>
 VAL166  LYS551  ARG553  GLY616  TRP617  ASP618  TYR619  PRO620  LYS621  CYS622 
 ASP623  PHE694  ASN695  SER759  ASP760  ASP761  ALA762  ILE779  LEU786  VAL792 
 PHE793  MET794  SER795  GLU796  ALA797  LYS798  CYS799  TRP800  GLU811  SER814 

> <Gold.Protein.RotatedAtoms>
  152.5190  133.9370  159.7607 H   0  0  0  0  0  0  0  0  0  0  0  0  # atno 6907 bound_to 6896
  150.9708  133.6338  159.2745 H   0  0  0  0  0  0  0  0  0  0  0  0  # atno 6908 bound_to 6896
  151.3550  135.0898  159.9468 H   0  0  0  0  0  0  0  0  0  0  0  0  # atno 6909 bound_to 6896
  146.0804  140.6075  142.8911 H   0  0  0  0  0  0  0  0  0  0  0  0  # atno 7974 bound_to 7965
  156.2140  140.3015  155.9796 H   0  0  0  0  0  0  0  0  0  0  0  0  # atno 8008 bound_to 7997
  155.2653  140.0431  157.3018 H   0  0  0  0  0  0  0  0  0  0  0  0  # atno 8009 bound_to 7997
  154.5740  140.2356  155.8158 H   0  0  0  0  0  0  0  0  0  0  0  0  # atno 8010 bound_to 7997
  139.5522  144.6822  151.4289 H   0  0  0  0  0  0  0  0  0  0  0  0  # atno 10167 bound_to 10162
  157.2975  130.7334  149.6647 H   0  0  0  0  0  0  0  0  0  0  0  0  # atno 10718 bound_to 10713
  154.7928  135.3213  154.7738 H   0  0  0  0  0  0  0  0  0  0  0  0  # atno 10763 bound_to 10752
  153.8423  135.6870  153.4806 H   0  0  0  0  0  0  0  0  0  0  0  0  # atno 10764 bound_to 10752
  153.1605  135.4662  154.9707 H   0  0  0  0  0  0  0  0  0  0  0  0  # atno 10765 bound_to 10752
  140.2675  134.3121  155.7838 H   0  0  0  0  0  0  0  0  0  0  0  0  # atno 11005 bound_to 11000
  144.7289  140.4612  143.6952 LP  0  0  0  0  0  0  0  0  0  0  0  0  # atno 17320 bound_to 7965
  145.6228  139.1526  143.3013 LP  0  0  0  0  0  0  0  0  0  0  0  0  # atno 17321 bound_to 7965
  140.6787  143.8130  150.7093 LP  0  0  0  0  0  0  0  0  0  0  0  0  # atno 17342 bound_to 10162
  140.1577  143.4302  152.2088 LP  0  0  0  0  0  0  0  0  0  0  0  0  # atno 17343 bound_to 10162
  155.9670  130.4290  150.4813 LP  0  0  0  0  0  0  0  0  0  0  0  0  # atno 17370 bound_to 10713
  157.2788  131.0602  151.2212 LP  0  0  0  0  0  0  0  0  0  0  0  0  # atno 17371 bound_to 10713
  141.2182  133.7446  156.9282 LP  0  0  0  0  0  0  0  0  0  0  0  0  # atno 17394 bound_to 11000
  140.1405  134.9296  157.2460 LP  0  0  0  0  0  0  0  0  0  0  0  0  # atno 17395 bound_to 11000

$$$$
