AV-unprocessed.smi:177|AV-procd|sdf|1437|dock10
  -GOLD-   2262019223D 1   1.00000     0.00000
 Structure written by MMmdl.
 61 65  0  0  0  0  0  0  0  0  1 V2000
  153.2403  144.9068  158.3101 C   0  0  0  0  0  0  0  0  0  0  0  0
  152.0092  144.4590  158.8563 O   0  0  0  0  0  0  0  0  0  0  0  0
  152.0561  143.1546  159.4214 C   0  0  2  0  0  0  0  0  0  0  0  0
  152.9763  143.2230  160.6524 C   0  0  0  0  0  0  0  0  0  0  0  0
  153.1660  141.8383  161.2890 C   0  0  0  0  0  0  0  0  0  0  0  0
  153.6999  140.8361  160.2555 C   0  0  1  0  0  0  0  0  0  0  0  0
  153.8482  139.5625  160.8720 O   0  0  0  0  0  0  0  0  0  0  0  0
  154.4374  138.6188  159.9857 C   0  0  0  0  0  0  0  0  0  0  0  0
  153.5240  138.4246  158.7659 C   0  0  0  0  0  0  0  0  0  0  0  0
  153.2415  139.7028  158.1183 N   0  0  0  0  0  0  0  0  0  0  0  0
  152.5528  139.4980  156.9690 C   0  0  0  0  0  0  0  0  0  0  0  0
  153.1088  139.8086  155.7672 N   0  0  0  0  0  0  0  0  0  0  0  0
  152.4163  139.6199  154.6399 C   0  0  0  0  0  0  0  0  0  0  0  0
  151.1743  139.1540  154.4907 N   0  0  0  0  0  0  0  0  0  0  0  0
  150.6073  138.8594  155.6962 C   0  0  0  0  0  0  0  0  0  0  0  0
  151.2226  138.9997  156.9715 C   0  0  0  0  0  0  0  0  0  0  0  0
  150.3468  138.5958  157.9707 N   0  0  0  0  0  0  0  0  0  0  0  0
  149.2735  138.2338  157.3219 C   0  0  0  0  0  0  0  0  0  0  0  0
  149.3359  138.3743  155.9529 N   0  0  0  0  0  0  0  0  0  0  0  0
  148.2934  138.0373  154.9932 C   0  0  0  0  0  0  0  0  0  0  0  0
  148.1505  136.5224  154.6474 C   0  0  0  0  0  0  0  0  0  0  0  0
  147.0395  136.3944  153.5657 C   0  0  0  0  0  0  0  0  0  0  0  0
  147.2490  137.2616  152.4686 O   0  0  0  0  0  0  0  0  0  0  0  0
  149.4920  135.9200  154.1528 C   0  0  0  0  0  0  0  0  0  0  0  0
  149.4285  134.3904  153.9889 C   0  0  0  0  0  0  0  0  0  0  0  0
  149.0588  133.7870  155.2227 O   0  0  0  0  0  0  0  0  0  0  0  0
  147.7714  134.1884  155.6748 C   0  0  0  0  0  0  0  0  0  0  0  0
  147.7439  135.7113  155.9053 C   0  0  0  0  0  0  0  0  0  0  0  0
  152.7392  140.7226  159.0482 C   0  0  2  0  0  0  0  0  0  0  0  0
  152.5792  142.1204  158.4002 C   0  0  0  0  0  0  0  0  0  0  0  0
  153.0966  145.8838  157.8492 H   0  0  0  0  0  0  0  0  0  0  0  0
  153.6020  144.2261  157.5388 H   0  0  0  0  0  0  0  0  0  0  0  0
  154.0107  145.0127  159.0733 H   0  0  0  0  0  0  0  0  0  0  0  0
  151.0596  142.8636  159.7589 H   0  0  0  0  0  0  0  0  0  0  0  0
  153.9484  143.6238  160.3621 H   0  0  0  0  0  0  0  0  0  0  0  0
  152.5645  143.9152  161.3876 H   0  0  0  0  0  0  0  0  0  0  0  0
  153.8551  141.9088  162.1309 H   0  0  0  0  0  0  0  0  0  0  0  0
  152.2164  141.4847  161.6925 H   0  0  0  0  0  0  0  0  0  0  0  0
  154.6803  141.1791  159.9175 H   0  0  0  0  0  0  0  0  0  0  0  0
  155.4297  138.9544  159.6801 H   0  0  0  0  0  0  0  0  0  0  0  0
  154.5695  137.6729  160.5109 H   0  0  0  0  0  0  0  0  0  0  0  0
  153.9997  137.7391  158.0631 H   0  0  0  0  0  0  0  0  0  0  0  0
  152.5854  137.9630  159.0769 H   0  0  0  0  0  0  0  0  0  0  0  0
  152.9308  139.8818  153.7270 H   0  0  0  0  0  0  0  0  0  0  0  0
  148.3972  137.8555  157.8279 H   0  0  0  0  0  0  0  0  0  0  0  0
  147.3484  138.4171  155.3842 H   0  0  0  0  0  0  0  0  0  0  0  0
  148.4915  138.6135  154.0888 H   0  0  0  0  0  0  0  0  0  0  0  0
  146.9632  135.3837  153.1695 H   0  0  0  0  0  0  0  0  0  0  0  0
  146.0649  136.6241  153.9975 H   0  0  0  0  0  0  0  0  0  0  0  0
  147.9804  136.9377  151.9654 H   0  0  0  0  0  0  0  0  0  0  0  0
  149.8042  136.3840  153.2169 H   0  0  0  0  0  0  0  0  0  0  0  0
  150.2840  136.1314  154.8701 H   0  0  0  0  0  0  0  0  0  0  0  0
  148.7357  134.0968  153.1999 H   0  0  0  0  0  0  0  0  0  0  0  0
  150.4076  134.0092  153.6984 H   0  0  0  0  0  0  0  0  0  0  0  0
  147.0059  133.8692  154.9677 H   0  0  0  0  0  0  0  0  0  0  0  0
  147.5585  133.6718  156.6108 H   0  0  0  0  0  0  0  0  0  0  0  0
  148.4326  135.9172  156.7240 H   0  0  0  0  0  0  0  0  0  0  0  0
  146.7575  136.0189  156.2540 H   0  0  0  0  0  0  0  0  0  0  0  0
  151.7661  140.3931  159.4166 H   0  0  0  0  0  0  0  0  0  0  0  0
  151.8960  142.0720  157.5543 H   0  0  0  0  0  0  0  0  0  0  0  0
  153.5382  142.4527  158.0001 H   0  0  0  0  0  0  0  0  0  0  0  0
  1  2  1  0  0  0  0
  1 31  1  0  0  0  0
  1 32  1  0  0  0  0
  1 33  1  0  0  0  0
  2  3  1  0  0  0  0
  3 30  1  0  0  0  0
  3  4  1  0  0  0  0
  3 34  1  0  0  0  0
  4  5  1  0  0  0  0
  4 35  1  0  0  0  0
  4 36  1  0  0  0  0
  5  6  1  0  0  0  0
  5 37  1  0  0  0  0
  5 38  1  0  0  0  0
  6 29  1  0  0  0  0
  6  7  1  0  0  0  0
  6 39  1  0  0  0  0
  7  8  1  0  0  0  0
  8  9  1  0  0  0  0
  8 40  1  0  0  0  0
  8 41  1  0  0  0  0
  9 10  1  0  0  0  0
  9 42  1  0  0  0  0
  9 43  1  0  0  0  0
 10 11  1  0  0  0  0
 10 29  1  0  0  0  0
 11 16  1  0  0  0  0
 11 12  2  0  0  0  0
 12 13  1  0  0  0  0
 13 14  2  0  0  0  0
 13 44  1  0  0  0  0
 14 15  1  0  0  0  0
 15 19  1  0  0  0  0
 15 16  2  0  0  0  0
 16 17  1  0  0  0  0
 17 18  2  0  0  0  0
 18 19  1  0  0  0  0
 18 45  1  0  0  0  0
 19 20  1  0  0  0  0
 20 21  1  0  0  0  0
 20 46  1  0  0  0  0
 20 47  1  0  0  0  0
 21 28  1  0  0  0  0
 21 22  1  0  0  0  0
 21 24  1  0  0  0  0
 22 23  1  0  0  0  0
 22 48  1  0  0  0  0
 22 49  1  0  0  0  0
 23 50  1  0  0  0  0
 24 25  1  0  0  0  0
 24 51  1  0  0  0  0
 24 52  1  0  0  0  0
 25 26  1  0  0  0  0
 25 53  1  0  0  0  0
 25 54  1  0  0  0  0
 26 27  1  0  0  0  0
 27 28  1  0  0  0  0
 27 55  1  0  0  0  0
 27 56  1  0  0  0  0
 28 57  1  0  0  0  0
 28 58  1  0  0  0  0
 29 30  1  0  0  0  0
 29 59  1  0  0  0  0
 30 60  1  0  0  0  0
 30 61  1  0  0  0  0
M  END
> <s_m_source_file>
AV-unprocessed.smi

> <i_m_source_file_index>
177

> <i_lp_mmshare_version>
43012

> <i_f3d_flags>
0

> <s_epik_input>
W0NIM11PW0NASF0oW0NIMl1bQ0gyXTEpW0NIMl1bQ0BIXShbQ0BASF0xMilOKFtDSDJdW0NIMl1PMiljKG5bY0hdbjMpYyhjMzQpbltjSF1uNFtDSDJdQzUoW0NIMl1bT0hdKVtDSDJdW0NIMl1PW0NIMl1bQ0gyXTU=

> <s_epik_cmdline>
J2VwaWtfcHl0aG9uJywgJy1waCcsICc3LjAnLCAnLXRuJywgJzgnLCAnLW1hJywgJzIwMCcsICctbWV0YWxfYmluZGluZycsICctaW1hZScsICc8aW5maWxlLm1hZT4nLCAnLW9tYWUnLCAnPG91dGZpbGUubWFlPic=

> <r_lp_tautomer_probability>
1

> <r_epik_Ionization_Penalty>
0.0065899

> <r_epik_Ionization_Penalty_Charging>
0

> <r_epik_Ionization_Penalty_Neutral>
0.0065899

> <r_epik_State_Penalty>
0.00470042

> <r_epik_Charging_Adjusted_Penalty>
0.00470042

> <i_epik_Tot_Q>
0

> <i_epik_Tot_abs_Q>
0

> <r_epik_Metal_State_Penalty>
-0

> <b_epik_Metal_Only>
0

> <s_lp_Force_Field>
OPLS_2005

> <r_lp_Energy>
44.8058

> <b_lp_Chiralities_Consistent>
1

> <s_lp_Variant>
AV-unprocessed.smi:177-1

> <Gold.Version>
5.8.1

> <Gold.Id.Protein>
6NUR|6NUR_protein|mol2

> <Gold.PLP.Fitness>
47.1102

> <Gold.PLP.PLP>
-41.2550

> <Gold.PLP.part.hbond>
-3.0000

> <Gold.PLP.part.metal>
0.0000

> <Gold.PLP.part.buried>
-6.5867

> <Gold.PLP.part.nonpolar>
-31.5957

> <Gold.PLP.part.repulsive>
0.1585

> <Gold.PLP.ligand.clash>
0.0000

> <Gold.PLP.ligand.torsion>
0.4444

> <Gold.PLP.Chemscore.Hbond>
2.1968

> <Gold.PLP.Chemscore.CHOScore>
0.0000

> <Gold.PLP.Chemscore.Metal>
0.0000

> <Gold.Chemscore.Hbonds>
donor molecule, donor type, donor heavy atom, donor atom, acceptor molecule, acceptor atom, score
      L1  H    23    50       P1  7948  0.15
      P1  H  7997  8008       L1    12  0.48
      P1  H  7997  8010       L1    10  0.56

> <Gold.PLP.Chemscore.Internal.Correction>
0.1536

> <Gold.Rescore>
     Score         DG    S(hbond)    S(metal)    S(lipo)     H(rot)  DE(clash)    DE(int)     intcor
     16.67     -17.22       1.65        0.00     109.59       2.58       0.07       0.48       ----

> <Gold.Chemscore.Fitness>
16.6684

> <Gold.Chemscore.DG>
-17.2229

> <Gold.Chemscore.ZeroCoef>
-5.4800

> <Gold.Chemscore.Hbond>
1.6549

> <Gold.Chemscore.Metal>
0.0000

> <Gold.Chemscore.Lipo>
109.5893

> <Gold.Chemscore.Internal_Hbond>
0.0000

> <Gold.Chemscore.DEClash>
0.0748

> <Gold.Chemscore.DEInternal>
0.4798

> <Gold.Chemscore.Rot>
2.5806

> <Gold.Chemscore.Internal.Correction>
   9.000000E+99

> <Gold.Chemscore.Hbonds>
donor molecule, donor type, donor heavy atom, donor atom, acceptor molecule, acceptor atom, score
      L1  H    23    50       P1  7948  0.15
      P1  H  7997  8008       L1    12  0.45
      P1  H  7997  8010       L1    10  0.02

> <Gold.Chemscore.Hbond.Weighted>
-5.5272

> <Gold.Chemscore.Metal.Weighted>
-0.0000

> <Gold.Chemscore.Lipo.Weighted>
-12.8220

> <Gold.Chemscore.Internal_Hbond.Weighted>
0.0000

> <Gold.Chemscore.DEClash.Weighted>
0.0748

> <Gold.Chemscore.DEInternal.Weighted>
0.4798

> <Gold.Chemscore.Rot.Weighted>
6.6062

> <Gold.Chemscore.Internal.Correction.Weighted>
   9.000000E+99

> <Gold.Protein.RotatedTorsions>
[ 6907 6896 6895 6894 ] final -168.89 input  -60.11 | X-H torsion
[ 7974 7965 7964 7962 ] final    8.13 input  175.53 | X-H torsion
[ 8008 7997 7996 7995 ] final    6.99 input   59.86 | X-H torsion
[ 10167 10162 10161 10158 ] final  165.73 input  -65.29 | X-H torsion
[ 10718 10713 10712 10709 ] final   -7.04 input   66.30 | X-H torsion
[ 10763 10752 10751 10750 ] final -179.37 input  -60.55 | X-H torsion
[ 11005 11000 10999 10996 ] final -168.73 input  -57.11 | X-H torsion

> <Gold.Protein.ActiveResidues>
 VAL166  LYS551  ARG553  GLY616  TRP617  ASP618  TYR619  PRO620  LYS621  CYS622 
 ASP623  PHE694  ASN695  SER759  ASP760  ASP761  ALA762  ILE779  LEU786  VAL792 
 PHE793  MET794  SER795  GLU796  ALA797  LYS798  CYS799  TRP800  GLU811  SER814 

> <Gold.Protein.RotatedAtoms>
  151.4828  133.3542  159.2840 H   0  0  0  0  0  0  0  0  0  0  0  0  # atno 6907 bound_to 6896
  150.8886  134.8289  159.7288 H   0  0  0  0  0  0  0  0  0  0  0  0  # atno 6908 bound_to 6896
  152.4809  134.4734  159.9695 H   0  0  0  0  0  0  0  0  0  0  0  0  # atno 6909 bound_to 6896
  146.2419  139.9979  142.8419 H   0  0  0  0  0  0  0  0  0  0  0  0  # atno 7974 bound_to 7965
  154.7481  140.2761  155.6316 H   0  0  0  0  0  0  0  0  0  0  0  0  # atno 8008 bound_to 7997
  156.2889  140.2684  156.2153 H   0  0  0  0  0  0  0  0  0  0  0  0  # atno 8009 bound_to 7997
  155.0172  140.0372  157.2412 H   0  0  0  0  0  0  0  0  0  0  0  0  # atno 8010 bound_to 7997
  139.4911  144.4101  151.9309 H   0  0  0  0  0  0  0  0  0  0  0  0  # atno 10167 bound_to 10162
  156.7230  130.5156  149.5863 H   0  0  0  0  0  0  0  0  0  0  0  0  # atno 10718 bound_to 10713
  154.5360  135.2803  155.1138 H   0  0  0  0  0  0  0  0  0  0  0  0  # atno 10763 bound_to 10752
  154.2640  135.6316  153.5289 H   0  0  0  0  0  0  0  0  0  0  0  0  # atno 10764 bound_to 10752
  152.9967  135.5612  154.5886 H   0  0  0  0  0  0  0  0  0  0  0  0  # atno 10765 bound_to 10752
  140.5388  134.5543  157.5094 H   0  0  0  0  0  0  0  0  0  0  0  0  # atno 11005 bound_to 11000
  145.1442  140.9588  143.4470 LP  0  0  0  0  0  0  0  0  0  0  0  0  # atno 17320 bound_to 7965
  145.0266  139.3377  143.6045 LP  0  0  0  0  0  0  0  0  0  0  0  0  # atno 17321 bound_to 7965
  140.3542  144.3051  150.5944 LP  0  0  0  0  0  0  0  0  0  0  0  0  # atno 17342 bound_to 10162
  140.5459  143.2215  151.8008 LP  0  0  0  0  0  0  0  0  0  0  0  0  # atno 17343 bound_to 10162
  156.1581  130.6356  151.0684 LP  0  0  0  0  0  0  0  0  0  0  0  0  # atno 17370 bound_to 10713
  157.6890  131.0816  150.7161 LP  0  0  0  0  0  0  0  0  0  0  0  0  # atno 17371 bound_to 10713
  139.9515  134.7608  156.0437 LP  0  0  0  0  0  0  0  0  0  0  0  0  # atno 17394 bound_to 11000
  141.1239  133.6605  156.3287 LP  0  0  0  0  0  0  0  0  0  0  0  0  # atno 17395 bound_to 11000

$$$$
