AV-unprocessed.smi:2925|AV-procd|sdf|11222|dock3
  -GOLD-   2272016113D 1   1.00000     0.00000
 Structure written by MMmdl.
 44 45  0  0  0  0  0  0  0  0  1 V2000
  145.5511  143.1813  156.9221 C   0  0  0  0  0  0  0  0  0  0  0  0
  146.2200  142.5201  155.7080 C   0  0  0  0  0  0  0  0  0  0  0  0
  147.4227  141.6159  156.0587 C   0  0  2  0  0  0  0  0  0  0  0  0
  148.5218  142.4202  156.5924 N   0  0  0  0  0  0  0  0  0  0  0  0
  149.2489  142.1310  157.6814 C   0  0  0  0  0  0  0  0  0  0  0  0
  149.0522  141.1493  158.3989 O   0  0  0  0  0  0  0  0  0  0  0  0
  150.1900  143.0659  157.9019 N   0  0  0  0  0  0  0  0  0  0  0  0
  151.0804  143.1081  158.9864 C   0  0  0  0  0  0  0  0  0  0  0  0
  150.9751  144.1250  159.8821 C   0  0  0  0  0  0  0  0  0  0  0  0
  149.8943  145.1879  159.7629 C   0  0  0  0  0  0  0  0  0  0  0  0
  151.9027  144.1847  160.9927 C   0  0  0  0  0  0  0  0  0  0  0  0
  152.8510  143.2459  161.1102 C   0  0  0  0  0  0  0  0  0  0  0  0
  152.9811  142.2091  160.1751 N   0  0  0  0  0  0  0  0  0  0  0  0
  154.0611  141.2404  160.3817 C   0  0  0  0  0  0  0  0  0  0  0  0
  152.1634  142.0994  159.0885 C   0  0  0  0  0  0  0  0  0  0  0  0
  152.3476  141.2166  158.2475 O   0  0  0  0  0  0  0  0  0  0  0  0
  147.9345  140.8333  154.8325 C   0  0  2  0  0  0  0  0  0  0  0  0
  146.8797  139.9787  154.1259 C   0  0  0  0  0  0  0  0  0  0  0  0
  147.6883  138.8701  153.4686 C   0  0  0  0  0  0  0  0  0  0  0  0
  149.0704  138.9802  154.1169 C   0  0  0  0  0  0  0  0  0  0  0  0
  148.8881  139.8552  155.2201 O   0  0  0  0  0  0  0  0  0  0  0  0
  144.6657  143.7398  156.6181 H   0  0  0  0  0  0  0  0  0  0  0  0
  146.2224  143.8802  157.4208 H   0  0  0  0  0  0  0  0  0  0  0  0
  145.2387  142.4351  157.6532 H   0  0  0  0  0  0  0  0  0  0  0  0
  145.4642  141.9304  155.1893 H   0  0  0  0  0  0  0  0  0  0  0  0
  146.5322  143.2937  155.0054 H   0  0  0  0  0  0  0  0  0  0  0  0
  147.1002  140.8886  156.8062 H   0  0  0  0  0  0  0  0  0  0  0  0
  148.7600  143.2534  156.0748 H   0  0  0  0  0  0  0  0  0  0  0  0
  150.1762  143.8848  157.3123 H   0  0  0  0  0  0  0  0  0  0  0  0
  149.9544  145.9063  160.5810 H   0  0  0  0  0  0  0  0  0  0  0  0
  148.9041  144.7319  159.7902 H   0  0  0  0  0  0  0  0  0  0  0  0
  149.9984  145.7363  158.8263 H   0  0  0  0  0  0  0  0  0  0  0  0
  151.8310  144.9735  161.7272 H   0  0  0  0  0  0  0  0  0  0  0  0
  153.5684  143.2368  161.9179 H   0  0  0  0  0  0  0  0  0  0  0  0
  153.6602  140.2280  160.4496 H   0  0  0  0  0  0  0  0  0  0  0  0
  154.6263  141.4270  161.2954 H   0  0  0  0  0  0  0  0  0  0  0  0
  154.7666  141.2714  159.5502 H   0  0  0  0  0  0  0  0  0  0  0  0
  148.4017  141.5120  154.1158 H   0  0  0  0  0  0  0  0  0  0  0  0
  146.1949  139.5442  154.8557 H   0  0  0  0  0  0  0  0  0  0  0  0
  146.2882  140.5491  153.4092 H   0  0  0  0  0  0  0  0  0  0  0  0
  147.2332  137.8969  153.6569 H   0  0  0  0  0  0  0  0  0  0  0  0
  147.7560  139.0067  152.3891 H   0  0  0  0  0  0  0  0  0  0  0  0
  149.4625  138.0153  154.4390 H   0  0  0  0  0  0  0  0  0  0  0  0
  149.7851  139.4233  153.4218 H   0  0  0  0  0  0  0  0  0  0  0  0
  1  2  1  0  0  0  0
  1 22  1  0  0  0  0
  1 23  1  0  0  0  0
  1 24  1  0  0  0  0
  2  3  1  0  0  0  0
  2 25  1  0  0  0  0
  2 26  1  0  0  0  0
  3  4  1  0  0  0  0
  3 17  1  0  0  0  0
  3 27  1  0  0  0  0
  4  5  1  0  0  0  0
  4 28  1  0  0  0  0
  5  6  2  0  0  0  0
  5  7  1  0  0  0  0
  7  8  1  0  0  0  0
  7 29  1  0  0  0  0
  8 15  1  0  0  0  0
  8  9  2  0  0  0  0
  9 10  1  0  0  0  0
  9 11  1  0  0  0  0
 10 30  1  0  0  0  0
 10 31  1  0  0  0  0
 10 32  1  0  0  0  0
 11 12  2  0  0  0  0
 11 33  1  0  0  0  0
 12 13  1  0  0  0  0
 12 34  1  0  0  0  0
 13 14  1  0  0  0  0
 13 15  1  0  0  0  0
 14 35  1  0  0  0  0
 14 36  1  0  0  0  0
 14 37  1  0  0  0  0
 15 16  2  0  0  0  0
 17 21  1  0  0  0  0
 17 18  1  0  0  0  0
 17 38  1  0  0  0  0
 18 19  1  0  0  0  0
 18 39  1  0  0  0  0
 18 40  1  0  0  0  0
 19 20  1  0  0  0  0
 19 41  1  0  0  0  0
 19 42  1  0  0  0  0
 20 21  1  0  0  0  0
 20 43  1  0  0  0  0
 20 44  1  0  0  0  0
M  END
> <s_m_source_file>
AV-unprocessed.smi

> <i_m_source_file_index>
2925

> <i_lp_mmshare_version>
43012

> <i_f3d_flags>
0

> <s_epik_input>
TzFbQ0gyXVtDSDJdW0NIMl1bQ0BIXTFbQ0BIXShbQ0gyXVtDSDNdKVtOSF1DKD1PKVtOSF1jMmMoW0NIM10pW2NIXVtjSF1uKFtDSDNdKWMyPU8=

> <s_epik_cmdline>
J2VwaWtfcHl0aG9uJywgJy1waCcsICc3LjAnLCAnLXRuJywgJzgnLCAnLW1hJywgJzIwMCcsICctbWV0YWxfYmluZGluZycsICctaW1hZScsICc8aW5maWxlLm1hZT4nLCAnLW9tYWUnLCAnPG91dGZpbGUubWFlPic=

> <r_lp_tautomer_probability>
1

> <r_epik_Ionization_Penalty>
2.58789e-05

> <r_epik_Ionization_Penalty_Charging>
6.72534e-06

> <r_epik_Ionization_Penalty_Neutral>
1.91535e-05

> <r_epik_State_Penalty>
-0

> <r_epik_Charging_Adjusted_Penalty>
6.72534e-06

> <i_epik_Tot_Q>
0

> <i_epik_Tot_abs_Q>
0

> <r_epik_Metal_State_Penalty>
-0

> <b_epik_Metal_Only>
0

> <s_lp_Force_Field>
OPLS_2005

> <r_lp_Energy>
35.6543

> <b_lp_Chiralities_Consistent>
1

> <s_lp_Variant>
AV-unprocessed.smi:2925-1

> <Gold.Version>
5.8.1

> <Gold.Id.Protein>
6NUR|6NUR_protein|mol2

> <Gold.PLP.Fitness>
38.4053

> <Gold.PLP.PLP>
-35.6602

> <Gold.PLP.part.hbond>
-2.2087

> <Gold.PLP.part.metal>
0.0000

> <Gold.PLP.part.buried>
-3.8592

> <Gold.PLP.part.nonpolar>
-30.6073

> <Gold.PLP.part.repulsive>
0.1276

> <Gold.PLP.ligand.clash>
0.0000

> <Gold.PLP.ligand.torsion>
0.9111

> <Gold.PLP.Chemscore.Hbond>
1.3282

> <Gold.PLP.Chemscore.CHOScore>
0.0000

> <Gold.PLP.Chemscore.Metal>
0.0000

> <Gold.Chemscore.Hbonds>
donor molecule, donor type, donor heavy atom, donor atom, acceptor molecule, acceptor atom, score
      L1  H     4    28       P1  8028  0.99
      L1  H     7    29       P1  8028  0.37

> <Gold.PLP.Chemscore.Internal.Correction>
0.5827

> <Gold.Rescore>
     Score         DG    S(hbond)    S(metal)    S(lipo)     H(rot)  DE(clash)    DE(int)     intcor
     16.46     -17.36       1.39        0.00      91.60       1.36       0.04       0.86       ----

> <Gold.Chemscore.Fitness>
16.4600

> <Gold.Chemscore.DG>
-17.3602

> <Gold.Chemscore.ZeroCoef>
-5.4800

> <Gold.Chemscore.Hbond>
1.3890

> <Gold.Chemscore.Metal>
0.0000

> <Gold.Chemscore.Lipo>
91.5990

> <Gold.Chemscore.Internal_Hbond>
0.0000

> <Gold.Chemscore.DEClash>
0.0412

> <Gold.Chemscore.DEInternal>
0.8590

> <Gold.Chemscore.Rot>
1.3579

> <Gold.Chemscore.Internal.Correction>
   9.000000E+99

> <Gold.Chemscore.Hbonds>
donor molecule, donor type, donor heavy atom, donor atom, acceptor molecule, acceptor atom, score
      L1  H     4    28       P1  8028  0.91
      L1  H     7    29       P1  8028  0.32

> <Gold.Chemscore.Hbond.Weighted>
-4.6394

> <Gold.Chemscore.Metal.Weighted>
-0.0000

> <Gold.Chemscore.Lipo.Weighted>
-10.7171

> <Gold.Chemscore.Internal_Hbond.Weighted>
0.0000

> <Gold.Chemscore.DEClash.Weighted>
0.0412

> <Gold.Chemscore.DEInternal.Weighted>
0.8590

> <Gold.Chemscore.Rot.Weighted>
3.4763

> <Gold.Chemscore.Internal.Correction.Weighted>
   9.000000E+99

> <Gold.Protein.RotatedTorsions>
[ 6907 6896 6895 6894 ] final  -74.49 input  -60.11 | X-H torsion
[ 7974 7965 7964 7962 ] final -143.31 input  175.53 | X-H torsion
[ 8008 7997 7996 7995 ] final   25.48 input   59.86 | X-H torsion
[ 10167 10162 10161 10158 ] final  -22.66 input  -65.29 | X-H torsion
[ 10718 10713 10712 10709 ] final  162.74 input   66.30 | X-H torsion
[ 10763 10752 10751 10750 ] final   -8.42 input  -60.55 | X-H torsion
[ 11005 11000 10999 10996 ] final  169.28 input  -57.11 | X-H torsion

> <Gold.Protein.ActiveResidues>
 VAL166  LYS551  ARG553  GLY616  TRP617  ASP618  TYR619  PRO620  LYS621  CYS622 
 ASP623  PHE694  ASN695  SER759  ASP760  ASP761  ALA762  ILE779  LEU786  VAL792 
 PHE793  MET794  SER795  GLU796  ALA797  LYS798  CYS799  TRP800  GLU811  SER814 

> <Gold.Protein.RotatedAtoms>
  150.7091  134.4862  159.5493 H   0  0  0  0  0  0  0  0  0  0  0  0  # atno 6907 bound_to 6896
  152.2489  134.8150  160.0458 H   0  0  0  0  0  0  0  0  0  0  0  0  # atno 6908 bound_to 6896
  151.8905  133.3480  159.3833 H   0  0  0  0  0  0  0  0  0  0  0  0  # atno 6909 bound_to 6896
  144.8378  140.5850  143.5472 H   0  0  0  0  0  0  0  0  0  0  0  0  # atno 7974 bound_to 7965
  155.0124  140.3138  155.4824 H   0  0  0  0  0  0  0  0  0  0  0  0  # atno 8008 bound_to 7997
  156.2907  140.2212  156.5180 H   0  0  0  0  0  0  0  0  0  0  0  0  # atno 8009 bound_to 7997
  154.7523  140.0465  157.0891 H   0  0  0  0  0  0  0  0  0  0  0  0  # atno 8010 bound_to 7997
  140.7286  143.4514  151.0511 H   0  0  0  0  0  0  0  0  0  0  0  0  # atno 10167 bound_to 10162
  157.1182  131.0485  151.2427 H   0  0  0  0  0  0  0  0  0  0  0  0  # atno 10718 bound_to 10713
  153.4403  135.7013  153.6173 H   0  0  0  0  0  0  0  0  0  0  0  0  # atno 10763 bound_to 10752
  153.4551  135.3749  155.2306 H   0  0  0  0  0  0  0  0  0  0  0  0  # atno 10764 bound_to 10752
  154.8727  135.4006  154.3800 H   0  0  0  0  0  0  0  0  0  0  0  0  # atno 10765 bound_to 10752
  140.2961  134.7633  157.3878 H   0  0  0  0  0  0  0  0  0  0  0  0  # atno 11005 bound_to 11000
  145.4757  139.1499  143.3790 LP  0  0  0  0  0  0  0  0  0  0  0  0  # atno 17320 bound_to 7965
  146.2675  140.4891  142.8828 LP  0  0  0  0  0  0  0  0  0  0  0  0  # atno 17321 bound_to 7965
  139.8190  143.7846  152.3176 LP  0  0  0  0  0  0  0  0  0  0  0  0  # atno 17342 bound_to 10162
  139.7922  144.7406  150.9940 LP  0  0  0  0  0  0  0  0  0  0  0  0  # atno 17343 bound_to 10162
  157.4499  130.7592  149.7142 LP  0  0  0  0  0  0  0  0  0  0  0  0  # atno 17370 bound_to 10713
  155.9834  130.4000  150.3363 LP  0  0  0  0  0  0  0  0  0  0  0  0  # atno 17371 bound_to 10713
  140.1151  134.5294  155.8232 LP  0  0  0  0  0  0  0  0  0  0  0  0  # atno 17394 bound_to 11000
  141.2137  133.6737  156.6761 LP  0  0  0  0  0  0  0  0  0  0  0  0  # atno 17395 bound_to 11000

$$$$
