AV-unprocessed.smi:2801|AV-procd|sdf|10798|dock8
  -GOLD-   2272015233D 1   1.00000     0.00000
 Structure written by MMmdl.
 32 32  0  0  0  0  0  0  0  0  3 V2000
  153.0612  142.4530  161.0437 C   0  0  0  0  0  0  0  0  0  0  0  0
  152.7630  141.4454  159.9315 C   0  0  0  0  0  0  0  0  0  0  0  0
  152.1232  142.1294  158.8610 O   0  0  0  0  0  0  0  0  0  0  0  0
  150.7111  142.2808  158.9879 C   0  0  1  0  0  0  0  0  0  0  0  0
  150.3570  143.7352  158.6245 C   0  0  0  0  0  0  0  0  0  0  0  0
  150.6759  144.7243  159.7525 C   0  0  0  0  0  0  0  0  0  0  0  0
  149.9887  141.2858  158.0648 C   0  0  0  0  0  0  0  0  0  0  0  0
  148.7818  141.0915  158.2076 O   0  0  0  0  0  0  0  0  0  0  0  0
  150.7552  140.7084  157.1215 N   0  0  0  0  0  0  0  0  0  0  0  0
  150.4046  139.7604  156.1186 C   0  0  0  0  0  0  0  0  0  0  0  0
  149.0777  139.3151  155.8856 C   0  0  0  0  0  0  0  0  0  0  0  0
  148.8333  138.3600  154.8785 C   0  0  0  0  0  0  0  0  0  0  0  0
  149.8579  137.8690  154.1506 N   0  3  0  0  0  0  0  0  0  0  0  0
  151.1373  138.2511  154.3429 C   0  0  0  0  0  0  0  0  0  0  0  0
  151.4468  139.2046  155.3340 C   0  0  0  0  0  0  0  0  0  0  0  0
  152.7503  139.5742  155.5155 O   0  5  0  0  0  0  0  0  0  0  0  0
  153.5526  141.9685  161.8874 H   0  0  0  0  0  0  0  0  0  0  0  0
  152.1437  142.9144  161.4098 H   0  0  0  0  0  0  0  0  0  0  0  0
  153.7165  143.2475  160.6854 H   0  0  0  0  0  0  0  0  0  0  0  0
  153.6928  140.9797  159.6033 H   0  0  0  0  0  0  0  0  0  0  0  0
  152.1144  140.6554  160.3127 H   0  0  0  0  0  0  0  0  0  0  0  0
  150.4152  142.0999  160.0236 H   0  0  0  0  0  0  0  0  0  0  0  0
  150.8907  144.0356  157.7216 H   0  0  0  0  0  0  0  0  0  0  0  0
  149.2939  143.8078  158.3904 H   0  0  0  0  0  0  0  0  0  0  0  0
  150.3992  145.7395  159.4680 H   0  0  0  0  0  0  0  0  0  0  0  0
  151.7402  144.7246  159.9894 H   0  0  0  0  0  0  0  0  0  0  0  0
  150.1296  144.4734  160.6620 H   0  0  0  0  0  0  0  0  0  0  0  0
  151.7125  141.0283  157.0772 H   0  0  0  0  0  0  0  0  0  0  0  0
  148.2418  139.6741  156.4643 H   0  0  0  0  0  0  0  0  0  0  0  0
  147.8542  137.9718  154.6398 H   0  0  0  0  0  0  0  0  0  0  0  0
  151.8720  137.7836  153.7034 H   0  0  0  0  0  0  0  0  0  0  0  0
  149.6589  137.1771  153.4283 H   0  0  0  0  0  0  0  0  0  0  0  0
  1  2  1  0  0  0  0
  1 17  1  0  0  0  0
  1 18  1  0  0  0  0
  1 19  1  0  0  0  0
  2  3  1  0  0  0  0
  2 20  1  0  0  0  0
  2 21  1  0  0  0  0
  3  4  1  0  0  0  0
  4  5  1  0  0  0  0
  4  7  1  0  0  0  0
  4 22  1  0  0  0  0
  5  6  1  0  0  0  0
  5 23  1  0  0  0  0
  5 24  1  0  0  0  0
  6 25  1  0  0  0  0
  6 26  1  0  0  0  0
  6 27  1  0  0  0  0
  7  8  2  0  0  0  0
  7  9  1  0  0  0  0
  9 28  1  0  0  0  0
  9 10  1  0  0  0  0
 10 11  2  0  0  0  0
 10 15  1  0  0  0  0
 11 12  1  0  0  0  0
 11 29  1  0  0  0  0
 12 13  2  0  0  0  0
 12 30  1  0  0  0  0
 13 14  1  0  0  0  0
 13 32  1  0  0  0  0
 14 15  2  0  0  0  0
 14 31  1  0  0  0  0
 15 16  1  0  0  0  0
M  CHG  1  13   1
M  CHG  1  16  -1
M  END
> <s_m_source_file>
AV-unprocessed.smi

> <i_m_source_file_index>
2801

> <i_lp_mmshare_version>
43012

> <i_f3d_flags>
0

> <s_epik_input>
W0NIM11bQ0gyXU9bQ0BIXShbQ0gyXVtDSDNdKUMoPU8pW05IXWMxW2NIXVtjSF1uW2NIXWMxW09IXQ==

> <s_epik_cmdline>
J2VwaWtfcHl0aG9uJywgJy1waCcsICc3LjAnLCAnLXRuJywgJzgnLCAnLW1hJywgJzIwMCcsICctbWV0YWxfYmluZGluZycsICctaW1hZScsICc8aW5maWxlLm1hZT4nLCAnLW9tYWUnLCAnPG91dGZpbGUubWFlPic=

> <r_lp_tautomer_probability>
0.56342

> <r_epik_Ionization_Penalty>
0.0170685

> <r_epik_Ionization_Penalty_Charging>
0.0170685

> <r_epik_Ionization_Penalty_Neutral>
1.5328e-09

> <r_epik_State_Penalty>
0.331557

> <r_epik_Charging_Adjusted_Penalty>
0.348625

> <i_epik_Tot_Q>
0

> <i_epik_Tot_abs_Q>
2

> <r_epik_Metal_State_Penalty>
0.590147

> <b_epik_Metal_Only>
0

> <s_lp_Force_Field>
OPLS_2005

> <r_lp_Energy>
9.87866

> <b_lp_Chiralities_Consistent>
1

> <s_lp_Variant>
AV-unprocessed.smi:2801-2

> <Gold.Version>
5.8.1

> <Gold.Id.Protein>
6NUR|6NUR_protein|mol2

> <Gold.PLP.Fitness>
46.7187

> <Gold.PLP.PLP>
-37.2440

> <Gold.PLP.part.hbond>
-2.3246

> <Gold.PLP.part.metal>
0.0000

> <Gold.PLP.part.buried>
-4.1509

> <Gold.PLP.part.nonpolar>
-32.2125

> <Gold.PLP.part.repulsive>
1.4675

> <Gold.PLP.ligand.clash>
0.0000

> <Gold.PLP.ligand.torsion>
1.2799

> <Gold.PLP.Chemscore.Hbond>
4.0000

> <Gold.PLP.Chemscore.CHOScore>
0.0000

> <Gold.PLP.Chemscore.Metal>
0.0000

> <Gold.Chemscore.Hbonds>
donor molecule, donor type, donor heavy atom, donor atom, acceptor molecule, acceptor atom, score
      L1  H    13    32       P1  7948  2.00
      P1  H  7997  8009       L1    16  2.00

> <Gold.PLP.Chemscore.Internal.Correction>
0.0346

> <Gold.Rescore>
     Score         DG    S(hbond)    S(metal)    S(lipo)     H(rot)  DE(clash)    DE(int)     intcor
     14.41     -18.11       1.81        0.00      91.05       1.59       1.34       2.36       ----

> <Gold.Chemscore.Fitness>
14.4121

> <Gold.Chemscore.DG>
-18.1106

> <Gold.Chemscore.ZeroCoef>
-5.4800

> <Gold.Chemscore.Hbond>
1.8134

> <Gold.Chemscore.Metal>
0.0000

> <Gold.Chemscore.Lipo>
91.0496

> <Gold.Chemscore.Internal_Hbond>
0.0000

> <Gold.Chemscore.DEClash>
1.3409

> <Gold.Chemscore.DEInternal>
2.3577

> <Gold.Chemscore.Rot>
1.5933

> <Gold.Chemscore.Internal.Correction>
   9.000000E+99

> <Gold.Chemscore.Hbonds>
donor molecule, donor type, donor heavy atom, donor atom, acceptor molecule, acceptor atom, score
      L1  H    13    32       P1  7948  0.74
      P1  H  7997  8009       L1    16  0.96

> <Gold.Chemscore.Hbond.Weighted>
-6.0567

> <Gold.Chemscore.Metal.Weighted>
-0.0000

> <Gold.Chemscore.Lipo.Weighted>
-10.6528

> <Gold.Chemscore.Internal_Hbond.Weighted>
0.0000

> <Gold.Chemscore.DEClash.Weighted>
1.3409

> <Gold.Chemscore.DEInternal.Weighted>
2.3577

> <Gold.Chemscore.Rot.Weighted>
4.0789

> <Gold.Chemscore.Internal.Correction.Weighted>
   9.000000E+99

> <Gold.Protein.RotatedTorsions>
[ 6907 6896 6895 6894 ] final -128.39 input  -60.11 | X-H torsion
[ 7974 7965 7964 7962 ] final  130.74 input  175.53 | X-H torsion
[ 8008 7997 7996 7995 ] final -167.24 input   59.86 | X-H torsion
[ 10167 10162 10161 10158 ] final   89.74 input  -65.29 | X-H torsion
[ 10718 10713 10712 10709 ] final  -40.39 input   66.30 | X-H torsion
[ 10763 10752 10751 10750 ] final   25.71 input  -60.55 | X-H torsion
[ 11005 11000 10999 10996 ] final   34.48 input  -57.11 | X-H torsion

> <Gold.Protein.ActiveResidues>
 VAL166  LYS551  ARG553  GLY616  TRP617  ASP618  TYR619  PRO620  LYS621  CYS622 
 ASP623  PHE694  ASN695  SER759  ASP760  ASP761  ALA762  ILE779  LEU786  VAL792 
 PHE793  MET794  SER795  GLU796  ALA797  LYS798  CYS799  TRP800  GLU811  SER814 

> <Gold.Protein.RotatedAtoms>
  150.9174  133.6922  159.2839 H   0  0  0  0  0  0  0  0  0  0  0  0  # atno 6907 bound_to 6896
  151.4388  135.1016  159.9674 H   0  0  0  0  0  0  0  0  0  0  0  0  # atno 6908 bound_to 6896
  152.4962  133.8587  159.7294 H   0  0  0  0  0  0  0  0  0  0  0  0  # atno 6909 bound_to 6896
  145.0147  139.4187  143.5227 H   0  0  0  0  0  0  0  0  0  0  0  0  # atno 7974 bound_to 7965
  155.8750  140.0999  157.1524 H   0  0  0  0  0  0  0  0  0  0  0  0  # atno 8008 bound_to 7997
  154.4000  140.1340  156.4189 H   0  0  0  0  0  0  0  0  0  0  0  0  # atno 8009 bound_to 7997
  155.7707  140.3461  155.5248 H   0  0  0  0  0  0  0  0  0  0  0  0  # atno 8010 bound_to 7997
  139.8542  144.6578  150.9133 H   0  0  0  0  0  0  0  0  0  0  0  0  # atno 10167 bound_to 10162
  156.2818  130.4218  149.8329 H   0  0  0  0  0  0  0  0  0  0  0  0  # atno 10718 bound_to 10713
  153.0673  135.6577  154.0327 H   0  0  0  0  0  0  0  0  0  0  0  0  # atno 10763 bound_to 10752
  153.9981  135.2939  155.3407 H   0  0  0  0  0  0  0  0  0  0  0  0  # atno 10764 bound_to 10752
  154.7035  135.5235  153.8630 H   0  0  0  0  0  0  0  0  0  0  0  0  # atno 10765 bound_to 10752
  140.2524  134.3287  155.7885 H   0  0  0  0  0  0  0  0  0  0  0  0  # atno 11005 bound_to 11000
  146.3476  139.9611  142.8717 LP  0  0  0  0  0  0  0  0  0  0  0  0  # atno 17320 bound_to 7965
  145.1976  140.9840  143.4175 LP  0  0  0  0  0  0  0  0  0  0  0  0  # atno 17321 bound_to 7965
  140.7783  143.3800  151.1493 LP  0  0  0  0  0  0  0  0  0  0  0  0  # atno 17342 bound_to 10162
  139.7436  143.8887  152.3057 LP  0  0  0  0  0  0  0  0  0  0  0  0  # atno 17343 bound_to 10162
  156.5773  130.8450  151.3373 LP  0  0  0  0  0  0  0  0  0  0  0  0  # atno 17370 bound_to 10713
  157.7317  130.9703  150.1891 LP  0  0  0  0  0  0  0  0  0  0  0  0  # atno 17371 bound_to 10713
  141.2200  133.7361  156.9058 LP  0  0  0  0  0  0  0  0  0  0  0  0  # atno 17394 bound_to 11000
  140.1545  134.9208  157.2635 LP  0  0  0  0  0  0  0  0  0  0  0  0  # atno 17395 bound_to 11000

$$$$
