AV-unprocessed.smi:157|AV-procd|sdf|1292|dock1
  -GOLD-   2262018573D 1   1.00000     0.00000
 Structure written by MMmdl.
 35 37  0  0  0  0  0  0  0  0  1 V2000
  150.3771  144.7573  158.1875 O   0  0  0  0  0  0  0  0  0  0  0  0
  151.7756  144.7731  158.3802 C   0  0  0  0  0  0  0  0  0  0  0  0
  152.3054  143.3441  158.5919 C   0  0  2  0  0  0  0  0  0  0  0  0
  151.3556  142.3789  158.1497 O   0  0  0  0  0  0  0  0  0  0  0  0
  151.4647  141.2076  158.9047 C   0  0  1  0  0  0  0  0  0  0  0  0
  151.8232  140.0783  157.9884 N   0  0  0  0  0  0  0  0  0  0  0  0
  152.8069  139.1877  158.1728 C   0  0  0  0  0  0  0  0  0  0  0  0
  152.9119  138.2789  157.2182 N   0  0  0  0  0  0  0  0  0  0  0  0
  151.8961  138.6123  156.3240 C   0  0  0  0  0  0  0  0  0  0  0  0
  151.2064  139.7249  156.7849 C   0  0  0  0  0  0  0  0  0  0  0  0
  150.1300  140.4763  156.3538 N   0  0  0  0  0  0  0  0  0  0  0  0
  149.7983  140.3994  155.1036 C   0  0  0  0  0  0  0  0  0  0  0  0
  150.2969  139.5876  154.0949 N   0  0  0  0  0  0  0  0  0  0  0  0
  150.4698  138.1526  154.2429 C   0  0  0  0  0  0  0  0  0  0  0  0
  151.6798  137.7655  155.1027 C   0  0  1  0  0  0  0  0  0  0  0  0
  152.8540  137.8595  154.3220 O   0  0  0  0  0  0  0  0  0  0  0  0
  152.5745  141.4209  159.9393 C   0  0  0  0  0  0  0  0  0  0  0  0
  152.6365  142.9314  160.0331 C   0  0  2  0  0  0  0  0  0  0  0  0
  151.6887  143.4170  160.9653 O   0  0  0  0  0  0  0  0  0  0  0  0
  153.1976  143.2011  157.9796 H   0  0  0  0  0  0  0  0  0  0  0  0
  150.4956  140.9581  159.3375 H   0  0  0  0  0  0  0  0  0  0  0  0
  151.5769  136.7192  155.3914 H   0  0  0  0  0  0  0  0  0  0  0  0
  153.6250  143.2785  160.3354 H   0  0  0  0  0  0  0  0  0  0  0  0
  150.2028  144.7670  157.2587 H   0  0  0  0  0  0  0  0  0  0  0  0
  152.2597  145.2597  157.5332 H   0  0  0  0  0  0  0  0  0  0  0  0
  151.9915  145.3809  159.2591 H   0  0  0  0  0  0  0  0  0  0  0  0
  153.4611  139.2018  159.0319 H   0  0  0  0  0  0  0  0  0  0  0  0
  149.0024  141.0496  154.7377 H   0  0  0  0  0  0  0  0  0  0  0  0
  150.0987  139.8352  153.1363 H   0  0  0  0  0  0  0  0  0  0  0  0
  149.5659  137.7662  154.7160 H   0  0  0  0  0  0  0  0  0  0  0  0
  150.5238  137.6809  153.2612 H   0  0  0  0  0  0  0  0  0  0  0  0
  153.1893  138.7398  154.3994 H   0  0  0  0  0  0  0  0  0  0  0  0
  152.3468  140.9171  160.8796 H   0  0  0  0  0  0  0  0  0  0  0  0
  153.5190  141.0340  159.5530 H   0  0  0  0  0  0  0  0  0  0  0  0
  151.1019  144.0049  160.5146 H   0  0  0  0  0  0  0  0  0  0  0  0
  1  2  1  0  0  0  0
  1 24  1  0  0  0  0
  2  3  1  0  0  0  0
  2 25  1  0  0  0  0
  2 26  1  0  0  0  0
  3 20  1  0  0  0  0
  3 18  1  0  0  0  0
  3  4  1  0  0  0  0
  4  5  1  0  0  0  0
  5 21  1  0  0  0  0
  5  6  1  0  0  0  0
  5 17  1  0  0  0  0
  6 10  1  0  0  0  0
  6  7  1  0  0  0  0
  7  8  2  0  0  0  0
  7 27  1  0  0  0  0
  8  9  1  0  0  0  0
  9 15  1  0  0  0  0
  9 10  2  0  0  0  0
 10 11  1  0  0  0  0
 11 12  2  0  0  0  0
 12 13  1  0  0  0  0
 12 28  1  0  0  0  0
 13 14  1  0  0  0  0
 13 29  1  0  0  0  0
 14 15  1  0  0  0  0
 14 30  1  0  0  0  0
 14 31  1  0  0  0  0
 15 22  1  0  0  0  0
 15 16  1  0  0  0  0
 16 32  1  0  0  0  0
 17 18  1  0  0  0  0
 17 33  1  0  0  0  0
 17 34  1  0  0  0  0
 18 23  1  0  0  0  0
 18 19  1  0  0  0  0
 19 35  1  0  0  0  0
M  END
> <s_m_source_file>
AV-unprocessed.smi

> <i_m_source_file_index>
157

> <i_lp_mmshare_version>
43012

> <i_f3d_flags>
0

> <s_epik_input>
W09IXVtDSDJdW0NASF0xT1tDQEhdKFtDSDJdW0NAQEhdMVtPSF0pbihbY0hdbjIpYyhjMjMpTj1bQ0hdW05IXVtDSDJdW0NASF0zW09IXQ==

> <s_epik_cmdline>
J2VwaWtfcHl0aG9uJywgJy1waCcsICc3LjAnLCAnLXRuJywgJzgnLCAnLW1hJywgJzIwMCcsICctbWV0YWxfYmluZGluZycsICctaW1hZScsICc8aW5maWxlLm1hZT4nLCAnLW9tYWUnLCAnPG91dGZpbGUubWFlPic=

> <r_lp_tautomer_probability>
1

> <r_epik_Ionization_Penalty>
0.0357149

> <r_epik_Ionization_Penalty_Charging>
0.0355056

> <r_epik_Ionization_Penalty_Neutral>
0.000209255

> <r_epik_State_Penalty>
0.0296046

> <r_epik_Charging_Adjusted_Penalty>
0.0651102

> <i_epik_Tot_Q>
0

> <i_epik_Tot_abs_Q>
0

> <r_epik_Metal_State_Penalty>
3.03559e-05

> <b_epik_Metal_Only>
0

> <s_epik_Chemistry_Notes>
This compound has an imine and may undergo hydrolysis. This compound contains an acetal/aminal-like group ( X-CH(R)-Y where X, Y are N, S, or O) that may be acid/base labile, releasing an aldehyde.

> <s_lp_Force_Field>
OPLS_2005

> <r_lp_Energy>
45.9661

> <b_lp_Chiralities_Consistent>
1

> <s_lp_Variant>
AV-unprocessed.smi:157-2

> <Gold.Version>
5.8.1

> <Gold.Id.Protein>
6NUR|6NUR_protein|mol2

> <Gold.PLP.Fitness>
40.5136

> <Gold.PLP.PLP>
-35.4621

> <Gold.PLP.part.hbond>
-4.3553

> <Gold.PLP.part.metal>
0.0000

> <Gold.PLP.part.buried>
-6.2708

> <Gold.PLP.part.nonpolar>
-27.4074

> <Gold.PLP.part.repulsive>
1.7780

> <Gold.PLP.ligand.clash>
0.0000

> <Gold.PLP.ligand.torsion>
0.8442

> <Gold.PLP.Chemscore.Hbond>
2.2448

> <Gold.PLP.Chemscore.CHOScore>
0.0000

> <Gold.PLP.Chemscore.Metal>
0.0000

> <Gold.Chemscore.Hbonds>
donor molecule, donor type, donor heavy atom, donor atom, acceptor molecule, acceptor atom, score
      L1  H     1    24       P1  8028  1.00
      L1  H    13    29       P1  7957  0.98
      P1  H 10752 10765       L1    16  0.25

> <Gold.PLP.Chemscore.Internal.Correction>
0.0058

> <Gold.Rescore>
     Score         DG    S(hbond)    S(metal)    S(lipo)     H(rot)  DE(clash)    DE(int)     intcor
      8.62     -10.79       2.07        0.00      65.92       3.64       0.09       2.09       ----

> <Gold.Chemscore.Fitness>
8.6165

> <Gold.Chemscore.DG>
-10.7941

> <Gold.Chemscore.ZeroCoef>
-5.4800

> <Gold.Chemscore.Hbond>
2.0688

> <Gold.Chemscore.Metal>
0.0000

> <Gold.Chemscore.Lipo>
65.9236

> <Gold.Chemscore.Internal_Hbond>
0.0000

> <Gold.Chemscore.DEClash>
0.0875

> <Gold.Chemscore.DEInternal>
2.0901

> <Gold.Chemscore.Rot>
3.6362

> <Gold.Chemscore.Internal.Correction>
   9.000000E+99

> <Gold.Chemscore.Hbonds>
donor molecule, donor type, donor heavy atom, donor atom, acceptor molecule, acceptor atom, score
      L1  H     1    24       P1  8028  0.23
      L1  H    13    29       P1  7957  0.92
      P1  H 10752 10765       L1    16  0.07

> <Gold.Chemscore.Hbond.Weighted>
-6.9098

> <Gold.Chemscore.Metal.Weighted>
-0.0000

> <Gold.Chemscore.Lipo.Weighted>
-7.7131

> <Gold.Chemscore.Internal_Hbond.Weighted>
0.0000

> <Gold.Chemscore.DEClash.Weighted>
0.0875

> <Gold.Chemscore.DEInternal.Weighted>
2.0901

> <Gold.Chemscore.Rot.Weighted>
9.3087

> <Gold.Chemscore.Internal.Correction.Weighted>
   9.000000E+99

> <Gold.Protein.RotatedTorsions>
[ 6907 6896 6895 6894 ] final  -97.94 input  -60.11 | X-H torsion
[ 7974 7965 7964 7962 ] final   -4.98 input  175.53 | X-H torsion
[ 8008 7997 7996 7995 ] final   55.53 input   59.86 | X-H torsion
[ 10167 10162 10161 10158 ] final -163.64 input  -65.29 | X-H torsion
[ 10718 10713 10712 10709 ] final  159.35 input   66.30 | X-H torsion
[ 10763 10752 10751 10750 ] final  132.52 input  -60.55 | X-H torsion
[ 11005 11000 10999 10996 ] final -179.55 input  -57.11 | X-H torsion

> <Gold.Protein.ActiveResidues>
 VAL166  LYS551  ARG553  GLY616  TRP617  ASP618  TYR619  PRO620  LYS621  CYS622 
 ASP623  PHE694  ASN695  SER759  ASP760  ASP761  ALA762  ILE779  LEU786  VAL792 
 PHE793  MET794  SER795  GLU796  ALA797  LYS798  CYS799  TRP800  GLU811  SER814 

> <Gold.Protein.RotatedAtoms>
  150.7031  134.1271  159.4055 H   0  0  0  0  0  0  0  0  0  0  0  0  # atno 6907 bound_to 6896
  151.9257  135.0276  160.0534 H   0  0  0  0  0  0  0  0  0  0  0  0  # atno 6908 bound_to 6896
  152.2219  133.4955  159.5204 H   0  0  0  0  0  0  0  0  0  0  0  0  # atno 6909 bound_to 6896
  146.2362  140.1952  142.8333 H   0  0  0  0  0  0  0  0  0  0  0  0  # atno 7974 bound_to 7965
  155.5026  140.3475  155.4374 H   0  0  0  0  0  0  0  0  0  0  0  0  # atno 8008 bound_to 7997
  156.0903  140.1409  156.9628 H   0  0  0  0  0  0  0  0  0  0  0  0  # atno 8009 bound_to 7997
  154.4631  140.0927  156.6924 H   0  0  0  0  0  0  0  0  0  0  0  0  # atno 8010 bound_to 7997
  139.6306  144.0446  152.2013 H   0  0  0  0  0  0  0  0  0  0  0  0  # atno 10167 bound_to 10162
  157.1654  131.0597  151.2210 H   0  0  0  0  0  0  0  0  0  0  0  0  # atno 10718 bound_to 10713
  153.7920  135.3153  155.3379 H   0  0  0  0  0  0  0  0  0  0  0  0  # atno 10763 bound_to 10752
  154.8122  135.4660  154.0549 H   0  0  0  0  0  0  0  0  0  0  0  0  # atno 10764 bound_to 10752
  153.1870  135.6902  153.8488 H   0  0  0  0  0  0  0  0  0  0  0  0  # atno 10765 bound_to 10752
  140.4174  134.6637  157.4646 H   0  0  0  0  0  0  0  0  0  0  0  0  # atno 11005 bound_to 11000
  144.9826  140.8473  143.5388 LP  0  0  0  0  0  0  0  0  0  0  0  0  # atno 17320 bound_to 7965
  145.1947  139.2283  143.5224 LP  0  0  0  0  0  0  0  0  0  0  0  0  # atno 17321 bound_to 7965
  140.0111  144.6223  150.7647 LP  0  0  0  0  0  0  0  0  0  0  0  0  # atno 17342 bound_to 10162
  140.7437  143.2850  151.3490 LP  0  0  0  0  0  0  0  0  0  0  0  0  # atno 17343 bound_to 10162
  157.4093  130.7376  149.6826 LP  0  0  0  0  0  0  0  0  0  0  0  0  # atno 17370 bound_to 10713
  155.9747  130.4100  150.3905 LP  0  0  0  0  0  0  0  0  0  0  0  0  # atno 17371 bound_to 10713
  140.0224  134.6527  155.9220 LP  0  0  0  0  0  0  0  0  0  0  0  0  # atno 17394 bound_to 11000
  141.1798  133.6545  156.4972 LP  0  0  0  0  0  0  0  0  0  0  0  0  # atno 17395 bound_to 11000

$$$$
