AV-unprocessed.smi:565|AV-procd|sdf|2952|dock8
  -GOLD-   2262023453D 1   1.00000     0.00000
 Structure written by MMmdl.
 50 51  0  0  0  0  0  0  0  0  2 V2000
  149.9610  141.7385  156.3725 C   0  0  0  0  0  0  0  0  0  0  0  0
  150.8524  142.2916  157.4477 C   0  0  0  0  0  0  0  0  0  0  0  0
  151.1628  143.5767  157.4302 N   0  0  0  0  0  0  0  0  0  0  0  0
  151.9671  143.7517  158.4977 N   0  0  0  0  0  0  0  0  0  0  0  0
  152.4955  145.0721  158.7811 C   0  0  0  0  0  0  0  0  0  0  0  0
  152.1723  142.5723  159.1869 C   0  0  0  0  0  0  0  0  0  0  0  0
  153.0377  142.5004  160.4038 C   0  0  0  0  0  0  0  0  0  0  0  0
  151.4598  141.5995  158.5374 C   0  0  0  0  0  0  0  0  0  0  0  0
  151.3435  140.1350  158.8763 C   0  0  0  0  0  0  0  0  0  0  0  0
  152.6742  139.4434  158.5846 C   0  0  0  0  0  0  0  0  0  0  0  0
  153.1784  139.5222  157.4643 O   0  0  0  0  0  0  0  0  0  0  0  0
  153.2210  138.7474  159.5932 N   0  0  0  0  0  0  0  0  0  0  0  0
  154.4430  137.9599  159.4959 C   0  0  0  0  0  0  0  0  0  0  0  0
  154.1947  136.4972  159.9128 C   0  0  0  0  0  0  0  0  0  0  0  0
  154.7995  136.1697  161.2281 N   0  3  2  0  0  0  0  0  0  0  0  0
  154.9418  134.7046  161.4304 C   0  0  0  0  0  0  0  0  0  0  0  0
  155.7174  134.3957  162.7208 C   0  0  0  0  0  0  0  0  0  0  0  0
  155.0528  135.0584  163.9358 C   0  0  0  0  0  0  0  0  0  0  0  0
  154.8443  136.5665  163.7057 C   0  0  1  0  0  0  0  0  0  0  0  0
  156.1528  137.3714  163.7991 C   0  0  0  0  0  0  0  0  0  0  0  0
  154.1031  136.8134  162.3754 C   0  0  0  0  0  0  0  0  0  0  0  0
  149.2831  140.9843  156.7720 H   0  0  0  0  0  0  0  0  0  0  0  0
  150.5505  141.2713  155.5836 H   0  0  0  0  0  0  0  0  0  0  0  0
  149.3510  142.5182  155.9146 H   0  0  0  0  0  0  0  0  0  0  0  0
  152.2421  145.3568  159.8026 H   0  0  0  0  0  0  0  0  0  0  0  0
  152.0767  145.8106  158.0961 H   0  0  0  0  0  0  0  0  0  0  0  0
  153.5800  145.0637  158.6717 H   0  0  0  0  0  0  0  0  0  0  0  0
  153.2684  141.4676  160.6648 H   0  0  0  0  0  0  0  0  0  0  0  0
  152.5411  142.9609  161.2580 H   0  0  0  0  0  0  0  0  0  0  0  0
  153.9837  143.0177  160.2417 H   0  0  0  0  0  0  0  0  0  0  0  0
  151.0915  139.9835  159.9262 H   0  0  0  0  0  0  0  0  0  0  0  0
  150.5463  139.6560  158.3068 H   0  0  0  0  0  0  0  0  0  0  0  0
  152.7394  138.7412  160.4810 H   0  0  0  0  0  0  0  0  0  0  0  0
  154.8417  138.0082  158.4811 H   0  0  0  0  0  0  0  0  0  0  0  0
  155.1815  138.4313  160.1429 H   0  0  0  0  0  0  0  0  0  0  0  0
  153.1265  136.2737  159.9291 H   0  0  0  0  0  0  0  0  0  0  0  0
  154.6315  135.8474  159.1531 H   0  0  0  0  0  0  0  0  0  0  0  0
  153.9534  134.2431  161.4627 H   0  0  0  0  0  0  0  0  0  0  0  0
  155.4705  134.2625  160.5851 H   0  0  0  0  0  0  0  0  0  0  0  0
  155.7718  133.3172  162.8713 H   0  0  0  0  0  0  0  0  0  0  0  0
  156.7469  134.7414  162.6233 H   0  0  0  0  0  0  0  0  0  0  0  0
  154.0859  134.5858  164.1135 H   0  0  0  0  0  0  0  0  0  0  0  0
  155.6463  134.8849  164.8343 H   0  0  0  0  0  0  0  0  0  0  0  0
  154.2031  136.9310  164.5094 H   0  0  0  0  0  0  0  0  0  0  0  0
  156.8586  137.0958  163.0154 H   0  0  0  0  0  0  0  0  0  0  0  0
  156.6443  137.2103  164.7590 H   0  0  0  0  0  0  0  0  0  0  0  0
  155.9612  138.4408  163.7063 H   0  0  0  0  0  0  0  0  0  0  0  0
  154.0061  137.8866  162.2163 H   0  0  0  0  0  0  0  0  0  0  0  0
  153.0876  136.4191  162.4406 H   0  0  0  0  0  0  0  0  0  0  0  0
  155.7389  136.5408  161.2081 H   0  0  0  0  0  0  0  0  0  0  0  0
  1  2  1  0  0  0  0
  1 22  1  0  0  0  0
  1 23  1  0  0  0  0
  1 24  1  0  0  0  0
  2  8  1  0  0  0  0
  2  3  2  0  0  0  0
  3  4  1  0  0  0  0
  4  5  1  0  0  0  0
  4  6  1  0  0  0  0
  5 25  1  0  0  0  0
  5 26  1  0  0  0  0
  5 27  1  0  0  0  0
  6  7  1  0  0  0  0
  6  8  2  0  0  0  0
  7 28  1  0  0  0  0
  7 29  1  0  0  0  0
  7 30  1  0  0  0  0
  8  9  1  0  0  0  0
  9 10  1  0  0  0  0
  9 31  1  0  0  0  0
  9 32  1  0  0  0  0
 10 11  2  0  0  0  0
 10 12  1  0  0  0  0
 12 13  1  0  0  0  0
 12 33  1  0  0  0  0
 13 14  1  0  0  0  0
 13 34  1  0  0  0  0
 13 35  1  0  0  0  0
 14 15  1  0  0  0  0
 14 36  1  0  0  0  0
 14 37  1  0  0  0  0
 15 21  1  0  0  0  0
 15 16  1  0  0  0  0
 15 50  1  0  0  0  0
 16 17  1  0  0  0  0
 16 38  1  0  0  0  0
 16 39  1  0  0  0  0
 17 18  1  0  0  0  0
 17 40  1  0  0  0  0
 17 41  1  0  0  0  0
 18 19  1  0  0  0  0
 18 42  1  0  0  0  0
 18 43  1  0  0  0  0
 19 20  1  0  0  0  0
 19 21  1  0  0  0  0
 19 44  1  0  0  0  0
 20 45  1  0  0  0  0
 20 46  1  0  0  0  0
 20 47  1  0  0  0  0
 21 48  1  0  0  0  0
 21 49  1  0  0  0  0
M  CHG  1  15   1
M  END
> <s_m_source_file>
AV-unprocessed.smi

> <i_m_source_file_index>
565

> <i_lp_mmshare_version>
43012

> <i_f3d_flags>
0

> <s_epik_input>
W0NIM11jMW5uKFtDSDNdKWMoW0NIM10pYzFbQ0gyXUMoPU8pW05IXVtDSDJdW0NIMl1OMltDSDJdW0NIMl1bQ0gyXVtDQEBIXShbQ0gzXSlbQ0gyXTI=

> <s_epik_cmdline>
J2VwaWtfcHl0aG9uJywgJy1waCcsICc3LjAnLCAnLXRuJywgJzgnLCAnLW1hJywgJzIwMCcsICctbWV0YWxfYmluZGluZycsICctaW1hZScsICc8aW5maWxlLm1hZT4nLCAnLW9tYWUnLCAnPG91dGZpbGUubWFlPic=

> <r_lp_tautomer_probability>
1

> <r_epik_Ionization_Penalty>
0.00411138

> <r_epik_Ionization_Penalty_Charging>
0.0019503

> <r_epik_Ionization_Penalty_Neutral>
0.00216107

> <r_epik_State_Penalty>
-0

> <r_epik_Charging_Adjusted_Penalty>
0.0019503

> <i_epik_Tot_Q>
1

> <i_epik_Tot_abs_Q>
1

> <r_epik_Metal_State_Penalty>
-0

> <b_epik_Metal_Only>
0

> <s_lp_Force_Field>
OPLS_2005

> <r_lp_Energy>
12.6128

> <b_lp_Chiralities_Consistent>
1

> <s_lp_Variant>
AV-unprocessed.smi:565-2

> <Gold.Version>
5.8.1

> <Gold.Id.Protein>
6NUR|6NUR_protein|mol2

> <Gold.PLP.Fitness>
46.2051

> <Gold.PLP.PLP>
-44.3331

> <Gold.PLP.part.hbond>
-0.8273

> <Gold.PLP.part.metal>
0.0000

> <Gold.PLP.part.buried>
-4.7284

> <Gold.PLP.part.nonpolar>
-40.2682

> <Gold.PLP.part.repulsive>
0.2643

> <Gold.PLP.ligand.clash>
0.0000

> <Gold.PLP.ligand.torsion>
0.5868

> <Gold.PLP.Chemscore.Hbond>
1.0000

> <Gold.PLP.Chemscore.CHOScore>
0.0000

> <Gold.PLP.Chemscore.Metal>
0.0000

> <Gold.Chemscore.Hbonds>
donor molecule, donor type, donor heavy atom, donor atom, acceptor molecule, acceptor atom, score
      P1  H  7997  8009       L1    11  0.77

> <Gold.PLP.Chemscore.Internal.Correction>
0.0456

> <Gold.Rescore>
     Score         DG    S(hbond)    S(metal)    S(lipo)     H(rot)  DE(clash)    DE(int)     intcor
     18.11     -18.57       0.99        0.00     118.99       1.61       0.03       0.43       ----

> <Gold.Chemscore.Fitness>
18.1107

> <Gold.Chemscore.DG>
-18.5654

> <Gold.Chemscore.ZeroCoef>
-5.4800

> <Gold.Chemscore.Hbond>
0.9868

> <Gold.Chemscore.Metal>
0.0000

> <Gold.Chemscore.Lipo>
118.9900

> <Gold.Chemscore.Internal_Hbond>
0.0000

> <Gold.Chemscore.DEClash>
0.0294

> <Gold.Chemscore.DEInternal>
0.4253

> <Gold.Chemscore.Rot>
1.6142

> <Gold.Chemscore.Internal.Correction>
   9.000000E+99

> <Gold.Chemscore.Hbonds>
donor molecule, donor type, donor heavy atom, donor atom, acceptor molecule, acceptor atom, score
      P1  H  7997  8009       L1    11  0.76

> <Gold.Chemscore.Hbond.Weighted>
-3.2960

> <Gold.Chemscore.Metal.Weighted>
-0.0000

> <Gold.Chemscore.Lipo.Weighted>
-13.9218

> <Gold.Chemscore.Internal_Hbond.Weighted>
0.0000

> <Gold.Chemscore.DEClash.Weighted>
0.0294

> <Gold.Chemscore.DEInternal.Weighted>
0.4253

> <Gold.Chemscore.Rot.Weighted>
4.1324

> <Gold.Chemscore.Internal.Correction.Weighted>
   9.000000E+99

> <Gold.Protein.RotatedTorsions>
[ 6907 6896 6895 6894 ] final  -67.26 input  -60.11 | X-H torsion
[ 7974 7965 7964 7962 ] final -121.28 input  175.53 | X-H torsion
[ 8008 7997 7996 7995 ] final  140.31 input   59.86 | X-H torsion
[ 10167 10162 10161 10158 ] final  -82.28 input  -65.29 | X-H torsion
[ 10718 10713 10712 10709 ] final  -63.85 input   66.30 | X-H torsion
[ 10763 10752 10751 10750 ] final   80.71 input  -60.55 | X-H torsion
[ 11005 11000 10999 10996 ] final  -62.48 input  -57.11 | X-H torsion

> <Gold.Protein.ActiveResidues>
 VAL166  LYS551  ARG553  GLY616  TRP617  ASP618  TYR619  PRO620  LYS621  CYS622 
 ASP623  PHE694  ASN695  SER759  ASP760  ASP761  ALA762  ILE779  LEU786  VAL792 
 PHE793  MET794  SER795  GLU796  ALA797  LYS798  CYS799  TRP800  GLU811  SER814 

> <Gold.Protein.RotatedAtoms>
  150.7419  134.5905  159.5984 H   0  0  0  0  0  0  0  0  0  0  0  0  # atno 6907 bound_to 6896
  152.3294  134.7275  160.0302 H   0  0  0  0  0  0  0  0  0  0  0  0  # atno 6908 bound_to 6896
  151.7764  133.3310  159.3495 H   0  0  0  0  0  0  0  0  0  0  0  0  # atno 6909 bound_to 6896
  145.0420  140.8152  143.4260 H   0  0  0  0  0  0  0  0  0  0  0  0  # atno 7974 bound_to 7965
  156.2980  140.2345  156.4380 H   0  0  0  0  0  0  0  0  0  0  0  0  # atno 8008 bound_to 7997
  154.8211  140.0438  157.1432 H   0  0  0  0  0  0  0  0  0  0  0  0  # atno 8009 bound_to 7997
  154.9313  140.3017  155.5170 H   0  0  0  0  0  0  0  0  0  0  0  0  # atno 8010 bound_to 7997
  140.4334  143.2540  151.8727 H   0  0  0  0  0  0  0  0  0  0  0  0  # atno 10167 bound_to 10162
  156.0765  130.4226  150.1336 H   0  0  0  0  0  0  0  0  0  0  0  0  # atno 10718 bound_to 10713
  153.1056  135.4792  154.8945 H   0  0  0  0  0  0  0  0  0  0  0  0  # atno 10763 bound_to 10752
  154.7426  135.3086  154.8704 H   0  0  0  0  0  0  0  0  0  0  0  0  # atno 10764 bound_to 10752
  153.9307  135.6845  153.4799 H   0  0  0  0  0  0  0  0  0  0  0  0  # atno 10765 bound_to 10752
  141.1361  133.6640  156.5533 H   0  0  0  0  0  0  0  0  0  0  0  0  # atno 11005 bound_to 11000
  145.1635  139.2444  143.5379 LP  0  0  0  0  0  0  0  0  0  0  0  0  # atno 17320 bound_to 7965
  146.3510  140.1368  142.8595 LP  0  0  0  0  0  0  0  0  0  0  0  0  # atno 17321 bound_to 7965
  139.4786  144.5309  151.8668 LP  0  0  0  0  0  0  0  0  0  0  0  0  # atno 17342 bound_to 10162
  140.4401  144.1998  150.5891 LP  0  0  0  0  0  0  0  0  0  0  0  0  # atno 17343 bound_to 10162
  156.9376  130.9734  151.3522 LP  0  0  0  0  0  0  0  0  0  0  0  0  # atno 17370 bound_to 10713
  157.5863  130.8412  149.8594 LP  0  0  0  0  0  0  0  0  0  0  0  0  # atno 17371 bound_to 10713
  140.4046  134.7326  157.4800 LP  0  0  0  0  0  0  0  0  0  0  0  0  # atno 17394 bound_to 11000
  140.0471  134.6184  155.8907 LP  0  0  0  0  0  0  0  0  0  0  0  0  # atno 17395 bound_to 11000

$$$$
