AV-unprocessed.smi:2339|AV-procd|sdf|9336|dock8
  -GOLD-   2272012553D 1   1.00000     0.00000
 Structure written by MMmdl.
 49 52  0  0  0  0  0  0  0  0  1 V2000
  148.1144  131.3465  161.4021 C   0  0  0  0  0  0  0  0  0  0  0  0
  147.5419  132.3256  160.3713 C   0  0  0  0  0  0  0  0  0  0  0  0
  147.4812  133.6836  160.8922 N   0  0  0  0  0  0  0  0  0  0  0  0
  146.6488  134.0131  161.9566 C   0  0  0  0  0  0  0  0  0  0  0  0
  146.5053  135.2605  162.4439 C   0  0  0  0  0  0  0  0  0  0  0  0
  147.2610  136.3695  161.8278 C   0  0  0  0  0  0  0  0  0  0  0  0
  147.1550  137.5205  162.2506 O   0  0  0  0  0  0  0  0  0  0  0  0
  148.1441  136.0193  160.6839 C   0  0  0  0  0  0  0  0  0  0  0  0
  148.8704  137.0769  160.1131 N   0  0  0  0  0  0  0  0  0  0  0  0
  149.1203  137.3446  158.8150 C   0  0  0  0  0  0  0  0  0  0  0  0
  148.6846  136.7057  157.8597 O   0  0  0  0  0  0  0  0  0  0  0  0
  149.9229  138.4068  158.6254 N   0  0  0  0  0  0  0  0  0  0  0  0
  150.3862  138.9608  157.3518 C   0  0  2  0  0  0  0  0  0  0  0  0
  151.5181  138.1252  156.7369 C   0  0  1  0  0  0  0  0  0  0  0  0
  151.2749  137.3606  155.4644 C   0  0  0  0  0  0  0  0  0  0  0  0
  151.7580  138.3336  154.3845 C   0  0  0  0  0  0  0  0  0  0  0  0
  151.7195  139.6148  155.0096 O   0  0  0  0  0  0  0  0  0  0  0  0
  152.1614  139.4472  156.3550 C   0  0  1  0  0  0  0  0  0  0  0  0
  151.3505  140.1778  157.4494 C   0  0  0  0  0  0  0  0  0  0  0  0
  152.1160  140.4405  158.7655 C   0  0  0  0  0  0  0  0  0  0  0  0
  152.2449  141.9524  158.9352 C   0  0  0  0  0  0  0  0  0  0  0  0
  151.0008  142.4993  158.2524 C   0  0  0  0  0  0  0  0  0  0  0  0
  150.7910  141.5568  157.0694 C   0  0  0  0  0  0  0  0  0  0  0  0
  148.1991  134.7191  160.2971 C   0  0  0  0  0  0  0  0  0  0  0  0
  148.1489  130.3350  160.9976 H   0  0  0  0  0  0  0  0  0  0  0  0
  147.5039  131.3237  162.3051 H   0  0  0  0  0  0  0  0  0  0  0  0
  149.1289  131.6254  161.6885 H   0  0  0  0  0  0  0  0  0  0  0  0
  148.1513  132.3102  159.4669 H   0  0  0  0  0  0  0  0  0  0  0  0
  146.5432  132.0054  160.0722 H   0  0  0  0  0  0  0  0  0  0  0  0
  146.1153  133.1750  162.3812 H   0  0  0  0  0  0  0  0  0  0  0  0
  145.8484  135.4695  163.2755 H   0  0  0  0  0  0  0  0  0  0  0  0
  149.2652  137.7216  160.7826 H   0  0  0  0  0  0  0  0  0  0  0  0
  150.2619  138.8703  159.4558 H   0  0  0  0  0  0  0  0  0  0  0  0
  149.5820  139.1284  156.6314 H   0  0  0  0  0  0  0  0  0  0  0  0
  152.1073  137.5944  157.4870 H   0  0  0  0  0  0  0  0  0  0  0  0
  151.8230  136.4189  155.4292 H   0  0  0  0  0  0  0  0  0  0  0  0
  150.2147  137.1367  155.3407 H   0  0  0  0  0  0  0  0  0  0  0  0
  152.7868  138.1092  154.0995 H   0  0  0  0  0  0  0  0  0  0  0  0
  151.1409  138.3067  153.4864 H   0  0  0  0  0  0  0  0  0  0  0  0
  153.2470  139.4640  156.4607 H   0  0  0  0  0  0  0  0  0  0  0  0
  151.5801  140.0534  159.6304 H   0  0  0  0  0  0  0  0  0  0  0  0
  153.0970  139.9647  158.7795 H   0  0  0  0  0  0  0  0  0  0  0  0
  152.3232  142.2562  159.9795 H   0  0  0  0  0  0  0  0  0  0  0  0
  153.1352  142.3074  158.4144 H   0  0  0  0  0  0  0  0  0  0  0  0
  150.1498  142.4323  158.9317 H   0  0  0  0  0  0  0  0  0  0  0  0
  151.1064  143.5413  157.9494 H   0  0  0  0  0  0  0  0  0  0  0  0
  151.3282  141.9533  156.2071 H   0  0  0  0  0  0  0  0  0  0  0  0
  149.7406  141.5145  156.7836 H   0  0  0  0  0  0  0  0  0  0  0  0
  148.8287  134.3704  159.4943 H   0  0  0  0  0  0  0  0  0  0  0  0
  1  2  1  0  0  0  0
  1 25  1  0  0  0  0
  1 26  1  0  0  0  0
  1 27  1  0  0  0  0
  2  3  1  0  0  0  0
  2 28  1  0  0  0  0
  2 29  1  0  0  0  0
  3 24  1  0  0  0  0
  3  4  1  0  0  0  0
  4  5  2  0  0  0  0
  4 30  1  0  0  0  0
  5  6  1  0  0  0  0
  5 31  1  0  0  0  0
  6  7  2  0  0  0  0
  6  8  1  0  0  0  0
  8  9  1  0  0  0  0
  8 24  2  0  0  0  0
  9 10  1  0  0  0  0
  9 32  1  0  0  0  0
 10 11  2  0  0  0  0
 10 12  1  0  0  0  0
 12 13  1  0  0  0  0
 12 33  1  0  0  0  0
 13 19  1  0  0  0  0
 13 14  1  0  0  0  0
 13 34  1  0  0  0  0
 14 18  1  0  0  0  0
 14 15  1  0  0  0  0
 14 35  1  0  0  0  0
 15 16  1  0  0  0  0
 15 36  1  0  0  0  0
 15 37  1  0  0  0  0
 16 17  1  0  0  0  0
 16 38  1  0  0  0  0
 16 39  1  0  0  0  0
 17 18  1  0  0  0  0
 18 19  1  0  0  0  0
 18 40  1  0  0  0  0
 19 23  1  0  0  0  0
 19 20  1  0  0  0  0
 20 21  1  0  0  0  0
 20 41  1  0  0  0  0
 20 42  1  0  0  0  0
 21 22  1  0  0  0  0
 21 43  1  0  0  0  0
 21 44  1  0  0  0  0
 22 23  1  0  0  0  0
 22 45  1  0  0  0  0
 22 46  1  0  0  0  0
 23 47  1  0  0  0  0
 23 48  1  0  0  0  0
 24 49  1  0  0  0  0
M  END
> <s_m_source_file>
AV-unprocessed.smi

> <i_m_source_file_index>
2339

> <i_lp_mmshare_version>
43012

> <i_f3d_flags>
0

> <s_epik_input>
W0NIM11bQ0gyXW4xW2NIXVtjSF1jKD1PKWMoW2NIXTEpW05IXUMoPU8pW05IXVtDQEBIXTJbQ0BASF0oW0NIMl1bQ0gyXU8zKVtDQEBIXTNDMjRbQ0gyXVtDSDJdW0NIMl1bQ0gyXTQ=

> <s_epik_cmdline>
J2VwaWtfcHl0aG9uJywgJy1waCcsICc3LjAnLCAnLXRuJywgJzgnLCAnLW1hJywgJzIwMCcsICctbWV0YWxfYmluZGluZycsICctaW1hZScsICc8aW5maWxlLm1hZT4nLCAnLW9tYWUnLCAnPG91dGZpbGUubWFlPic=

> <r_lp_tautomer_probability>
1

> <r_epik_Ionization_Penalty>
0.00145966

> <r_epik_Ionization_Penalty_Charging>
0.00143969

> <r_epik_Ionization_Penalty_Neutral>
1.99697e-05

> <r_epik_State_Penalty>
0.000961843

> <r_epik_Charging_Adjusted_Penalty>
0.00240153

> <i_epik_Tot_Q>
0

> <i_epik_Tot_abs_Q>
0

> <r_epik_Metal_State_Penalty>
-0

> <b_epik_Metal_Only>
0

> <s_lp_Force_Field>
OPLS_2005

> <r_lp_Energy>
57.0786

> <b_lp_Chiralities_Consistent>
1

> <s_lp_Variant>
AV-unprocessed.smi:2339-1

> <Gold.Version>
5.8.1

> <Gold.Id.Protein>
6NUR|6NUR_protein|mol2

> <Gold.PLP.Fitness>
46.8934

> <Gold.PLP.PLP>
-40.7963

> <Gold.PLP.part.hbond>
-3.0000

> <Gold.PLP.part.metal>
0.0000

> <Gold.PLP.part.buried>
-5.8367

> <Gold.PLP.part.nonpolar>
-32.7187

> <Gold.PLP.part.repulsive>
2.0223

> <Gold.PLP.ligand.clash>
0.0000

> <Gold.PLP.ligand.torsion>
0.4616

> <Gold.PLP.Chemscore.Hbond>
2.2800

> <Gold.PLP.Chemscore.CHOScore>
0.0000

> <Gold.PLP.Chemscore.Metal>
0.0000

> <Gold.Chemscore.Hbonds>
donor molecule, donor type, donor heavy atom, donor atom, acceptor molecule, acceptor atom, score
      P1  H  6931  6943       L1     7  0.64
      P1  H  6934  6947       L1     7  0.59
      P1  H  7989  7998       L1    17  1.00

> <Gold.PLP.Chemscore.Internal.Correction>
0.1803

> <Gold.Rescore>
     Score         DG    S(hbond)    S(metal)    S(lipo)     H(rot)  DE(clash)    DE(int)     intcor
     20.81     -21.32       2.17        0.00      98.90       1.17       0.02       0.48       ----

> <Gold.Chemscore.Fitness>
20.8131

> <Gold.Chemscore.DG>
-21.3189

> <Gold.Chemscore.ZeroCoef>
-5.4800

> <Gold.Chemscore.Hbond>
2.1723

> <Gold.Chemscore.Metal>
0.0000

> <Gold.Chemscore.Lipo>
98.8963

> <Gold.Chemscore.Internal_Hbond>
0.0000

> <Gold.Chemscore.DEClash>
0.0237

> <Gold.Chemscore.DEInternal>
0.4821

> <Gold.Chemscore.Rot>
1.1670

> <Gold.Chemscore.Internal.Correction>
   9.000000E+99

> <Gold.Chemscore.Hbonds>
donor molecule, donor type, donor heavy atom, donor atom, acceptor molecule, acceptor atom, score
      P1  H  6931  6943       L1     7  0.21
      P1  H  6934  6947       L1     7  0.55
      P1  H  7989  7998       L1    17  0.43

> <Gold.Chemscore.Hbond.Weighted>
-7.2555

> <Gold.Chemscore.Metal.Weighted>
-0.0000

> <Gold.Chemscore.Lipo.Weighted>
-11.5709

> <Gold.Chemscore.Internal_Hbond.Weighted>
0.0000

> <Gold.Chemscore.DEClash.Weighted>
0.0237

> <Gold.Chemscore.DEInternal.Weighted>
0.4821

> <Gold.Chemscore.Rot.Weighted>
2.9874

> <Gold.Chemscore.Internal.Correction.Weighted>
   9.000000E+99

> <Gold.Protein.RotatedTorsions>
[ 6907 6896 6895 6894 ] final  132.43 input  -60.11 | X-H torsion
[ 7974 7965 7964 7962 ] final  -24.85 input  175.53 | X-H torsion
[ 8008 7997 7996 7995 ] final  171.04 input   59.86 | X-H torsion
[ 10167 10162 10161 10158 ] final    8.50 input  -65.29 | X-H torsion
[ 10718 10713 10712 10709 ] final  -53.72 input   66.30 | X-H torsion
[ 10763 10752 10751 10750 ] final -161.60 input  -60.55 | X-H torsion
[ 11005 11000 10999 10996 ] final  -51.17 input  -57.11 | X-H torsion

> <Gold.Protein.ActiveResidues>
 VAL166  LYS551  ARG553  GLY616  TRP617  ASP618  TYR619  PRO620  LYS621  CYS622 
 ASP623  PHE694  ASN695  SER759  ASP760  ASP761  ALA762  ILE779  LEU786  VAL792 
 PHE793  MET794  SER795  GLU796  ALA797  LYS798  CYS799  TRP800  GLU811  SER814 

> <Gold.Protein.RotatedAtoms>
  152.3325  133.5974  159.5819 H   0  0  0  0  0  0  0  0  0  0  0  0  # atno 6907 bound_to 6896
  150.7431  133.9846  159.3596 H   0  0  0  0  0  0  0  0  0  0  0  0  # atno 6908 bound_to 6896
  151.7720  135.0784  160.0412 H   0  0  0  0  0  0  0  0  0  0  0  0  # atno 6909 bound_to 6896
  146.1528  140.4808  142.8604 H   0  0  0  0  0  0  0  0  0  0  0  0  # atno 7974 bound_to 7965
  156.1309  140.1522  156.9067 H   0  0  0  0  0  0  0  0  0  0  0  0  # atno 8008 bound_to 7997
  154.4908  140.0852  156.7630 H   0  0  0  0  0  0  0  0  0  0  0  0  # atno 8009 bound_to 7997
  155.4258  140.3425  155.4277 H   0  0  0  0  0  0  0  0  0  0  0  0  # atno 8010 bound_to 7997
  140.6310  143.7992  150.7296 H   0  0  0  0  0  0  0  0  0  0  0  0  # atno 10167 bound_to 10162
  156.1511  130.4151  149.9944 H   0  0  0  0  0  0  0  0  0  0  0  0  # atno 10718 bound_to 10713
  154.7289  135.3042  154.8925 H   0  0  0  0  0  0  0  0  0  0  0  0  # atno 10763 bound_to 10752
  153.9774  135.6734  153.4753 H   0  0  0  0  0  0  0  0  0  0  0  0  # atno 10764 bound_to 10752
  153.0900  135.4964  154.8591 H   0  0  0  0  0  0  0  0  0  0  0  0  # atno 10765 bound_to 10752
  141.0856  133.6643  156.3838 H   0  0  0  0  0  0  0  0  0  0  0  0  # atno 11005 bound_to 11000
  144.7926  140.6060  143.6531 LP  0  0  0  0  0  0  0  0  0  0  0  0  # atno 17320 bound_to 7965
  145.4781  139.1497  143.3777 LP  0  0  0  0  0  0  0  0  0  0  0  0  # atno 17321 bound_to 7965
  140.1604  143.4280  152.2071 LP  0  0  0  0  0  0  0  0  0  0  0  0  # atno 17342 bound_to 10162
  139.5525  144.7348  151.4393 LP  0  0  0  0  0  0  0  0  0  0  0  0  # atno 17343 bound_to 10162
  156.7801  130.9218  151.3646 LP  0  0  0  0  0  0  0  0  0  0  0  0  # atno 17370 bound_to 10713
  157.6657  130.9006  149.9928 LP  0  0  0  0  0  0  0  0  0  0  0  0  # atno 17371 bound_to 10713
  140.5370  134.6158  157.5368 LP  0  0  0  0  0  0  0  0  0  0  0  0  # atno 17394 bound_to 11000
  139.9674  134.7349  156.0110 LP  0  0  0  0  0  0  0  0  0  0  0  0  # atno 17395 bound_to 11000

$$$$
