AV-unprocessed.smi:2775|AV-procd|sdf|10691|dock1
  -GOLD-   2272015133D 1   1.00000     0.00000
 Structure written by MMmdl.
 42 45  0  0  0  0  0  0  0  0  1 V2000
  145.6819  131.0291  151.1058 C   0  0  0  0  0  0  0  0  0  0  0  0
  145.2476  132.4285  151.4997 C   0  0  0  0  0  0  0  0  0  0  0  0
  143.9355  132.7036  151.3311 N   0  0  0  0  0  0  0  0  0  0  0  0
  143.4945  133.9314  151.6741 C   0  0  0  0  0  0  0  0  0  0  0  0
  144.3313  134.9381  152.1922 C   0  0  0  0  0  0  0  0  0  0  0  0
  145.7087  134.6578  152.3537 C   0  0  0  0  0  0  0  0  0  0  0  0
  146.6380  135.5915  152.8859 N   0  0  0  0  0  0  0  0  0  0  0  0
  146.4753  136.4547  153.9067 C   0  0  0  0  0  0  0  0  0  0  0  0
  145.4677  136.5351  154.6060 O   0  0  0  0  0  0  0  0  0  0  0  0
  147.5183  137.2838  154.0856 N   0  0  0  0  0  0  0  0  0  0  0  0
  147.6563  138.3315  155.1005 C   0  0  1  0  0  0  0  0  0  0  0  0
  149.0530  138.4004  155.7632 C   0  0  1  0  0  0  0  0  0  0  0  0
  150.2545  137.6583  155.2352 C   0  0  0  0  0  0  0  0  0  0  0  0
  150.7364  138.5543  154.0992 C   0  0  0  0  0  0  0  0  0  0  0  0
  150.3726  139.8750  154.5005 O   0  0  0  0  0  0  0  0  0  0  0  0
  149.1789  139.8460  155.2876 C   0  0  1  0  0  0  0  0  0  0  0  0
  147.8622  139.7308  154.4973 C   0  0  0  0  0  0  0  0  0  0  0  0
  147.7969  140.0309  152.9848 C   0  0  0  0  0  0  0  0  0  0  0  0
  147.2244  141.4060  153.3353 C   0  0  0  0  0  0  0  0  0  0  0  0
  146.7865  140.8137  154.6767 C   0  0  0  0  0  0  0  0  0  0  0  0
  146.1743  133.3675  152.0100 C   0  0  0  0  0  0  0  0  0  0  0  0
  147.8451  132.9505  152.2001 Cl  0  0  0  0  0  0  0  0  0  0  0  0
  146.4304  131.0735  150.3142 H   0  0  0  0  0  0  0  0  0  0  0  0
  144.8423  130.4349  150.7423 H   0  0  0  0  0  0  0  0  0  0  0  0
  146.1145  130.5115  151.9621 H   0  0  0  0  0  0  0  0  0  0  0  0
  142.4394  134.1162  151.5373 H   0  0  0  0  0  0  0  0  0  0  0  0
  143.9036  135.8912  152.4635 H   0  0  0  0  0  0  0  0  0  0  0  0
  147.4890  135.6995  152.3539 H   0  0  0  0  0  0  0  0  0  0  0  0
  148.2715  137.2169  153.4162 H   0  0  0  0  0  0  0  0  0  0  0  0
  146.8538  138.3382  155.8406 H   0  0  0  0  0  0  0  0  0  0  0  0
  148.9589  138.3363  156.8481 H   0  0  0  0  0  0  0  0  0  0  0  0
  151.0217  137.5949  156.0074 H   0  0  0  0  0  0  0  0  0  0  0  0
  150.0404  136.6422  154.9055 H   0  0  0  0  0  0  0  0  0  0  0  0
  151.8086  138.4700  153.9223 H   0  0  0  0  0  0  0  0  0  0  0  0
  150.2209  138.3018  153.1721 H   0  0  0  0  0  0  0  0  0  0  0  0
  149.1591  140.5841  156.0904 H   0  0  0  0  0  0  0  0  0  0  0  0
  148.7533  140.0639  152.4638 H   0  0  0  0  0  0  0  0  0  0  0  0
  147.0734  139.4126  152.4510 H   0  0  0  0  0  0  0  0  0  0  0  0
  147.9968  142.1695  153.4421 H   0  0  0  0  0  0  0  0  0  0  0  0
  146.4084  141.7399  152.6938 H   0  0  0  0  0  0  0  0  0  0  0  0
  145.7728  140.4105  154.6452 H   0  0  0  0  0  0  0  0  0  0  0  0
  146.9297  141.4714  155.5343 H   0  0  0  0  0  0  0  0  0  0  0  0
  1  2  1  0  0  0  0
  1 23  1  0  0  0  0
  1 24  1  0  0  0  0
  1 25  1  0  0  0  0
  2 21  1  0  0  0  0
  2  3  2  0  0  0  0
  3  4  1  0  0  0  0
  4  5  2  0  0  0  0
  4 26  1  0  0  0  0
  5  6  1  0  0  0  0
  5 27  1  0  0  0  0
  6  7  1  0  0  0  0
  6 21  2  0  0  0  0
  7  8  1  0  0  0  0
  7 28  1  0  0  0  0
  8  9  2  0  0  0  0
  8 10  1  0  0  0  0
 10 11  1  0  0  0  0
 10 29  1  0  0  0  0
 11 17  1  0  0  0  0
 11 12  1  0  0  0  0
 11 30  1  0  0  0  0
 12 16  1  0  0  0  0
 12 13  1  0  0  0  0
 12 31  1  0  0  0  0
 13 14  1  0  0  0  0
 13 32  1  0  0  0  0
 13 33  1  0  0  0  0
 14 15  1  0  0  0  0
 14 34  1  0  0  0  0
 14 35  1  0  0  0  0
 15 16  1  0  0  0  0
 16 17  1  0  0  0  0
 16 36  1  0  0  0  0
 17 20  1  0  0  0  0
 17 18  1  0  0  0  0
 18 19  1  0  0  0  0
 18 37  1  0  0  0  0
 18 38  1  0  0  0  0
 19 20  1  0  0  0  0
 19 39  1  0  0  0  0
 19 40  1  0  0  0  0
 20 41  1  0  0  0  0
 20 42  1  0  0  0  0
 21 22  1  0  0  0  0
M  END
> <s_m_source_file>
AV-unprocessed.smi

> <i_m_source_file_index>
2775

> <i_lp_mmshare_version>
43012

> <i_f3d_flags>
0

> <s_epik_input>
W0NIM11jMW5bY0hdW2NIXWMoYzFDbClbTkhdQyg9TylbTkhdW0NAQEhdMltDQEhdKFtDSDJdW0NIMl1PMylbQ0BASF0zQzI0W0NIMl1bQ0gyXVtDSDJdNA==

> <s_epik_cmdline>
J2VwaWtfcHl0aG9uJywgJy1waCcsICc3LjAnLCAnLXRuJywgJzgnLCAnLW1hJywgJzIwMCcsICctbWV0YWxfYmluZGluZycsICctaW1hZScsICc8aW5maWxlLm1hZT4nLCAnLW9tYWUnLCAnPG91dGZpbGUubWFlPic=

> <r_epik_Ionization_Penalty>
0.01026

> <r_epik_Ionization_Penalty_Charging>
0

> <r_epik_Ionization_Penalty_Neutral>
0.01026

> <r_epik_State_Penalty>
0.00780685

> <r_epik_Charging_Adjusted_Penalty>
0.00780685

> <i_epik_Tot_Q>
0

> <i_epik_Tot_abs_Q>
0

> <r_epik_Metal_State_Penalty>
0.00767411

> <b_epik_Metal_Only>
0

> <s_lp_Force_Field>
OPLS_2005

> <r_lp_Energy>
57.8128

> <b_lp_Chiralities_Consistent>
1

> <s_lp_Variant>
AV-unprocessed.smi:2775-4

> <Gold.Version>
5.8.1

> <Gold.Id.Protein>
6NUR|6NUR_protein|mol2

> <Gold.PLP.Fitness>
37.6312

> <Gold.PLP.PLP>
-27.4898

> <Gold.PLP.part.hbond>
-3.0000

> <Gold.PLP.part.metal>
0.0000

> <Gold.PLP.part.buried>
-1.2382

> <Gold.PLP.part.nonpolar>
-23.1714

> <Gold.PLP.part.repulsive>
0.3165

> <Gold.PLP.ligand.clash>
0.0000

> <Gold.PLP.ligand.torsion>
0.4394

> <Gold.PLP.Chemscore.Hbond>
2.9120

> <Gold.PLP.Chemscore.CHOScore>
0.7075

> <Gold.PLP.Chemscore.Metal>
0.0000

> <Gold.Chemscore.Hbonds>
donor molecule, donor type, donor heavy atom, donor atom, acceptor molecule, acceptor atom, score
      L1  H     7    28       P1  7948  1.00
      L1  H    10    29       P1  7948  0.91
      P1  H  7989  7998       L1    15  1.00
      L1  C     4    26       P1 10186  0.69

> <Gold.PLP.Chemscore.Internal.Correction>
0.1616

> <Gold.Rescore>
     Score         DG    S(hbond)    S(metal)    S(lipo)     H(rot)  DE(clash)    DE(int)     intcor
     20.61     -22.78       2.85        0.00      88.50       1.00       1.73       0.44       ----

> <Gold.Chemscore.Fitness>
20.6144

> <Gold.Chemscore.DG>
-22.7809

> <Gold.Chemscore.ZeroCoef>
-5.4800

> <Gold.Chemscore.Hbond>
2.8463

> <Gold.Chemscore.Metal>
0.0000

> <Gold.Chemscore.Lipo>
88.4994

> <Gold.Chemscore.Internal_Hbond>
0.0000

> <Gold.Chemscore.DEClash>
1.7293

> <Gold.Chemscore.DEInternal>
0.4372

> <Gold.Chemscore.Rot>
1.0000

> <Gold.Chemscore.Internal.Correction>
   9.000000E+99

> <Gold.Chemscore.Hbonds>
donor molecule, donor type, donor heavy atom, donor atom, acceptor molecule, acceptor atom, score
      L1  H     7    28       P1  7948  0.99
      L1  H    10    29       P1  7948  0.88
      P1  H  7989  7998       L1    15  0.26

> <Gold.Chemscore.Hbond.Weighted>
-9.5065

> <Gold.Chemscore.Metal.Weighted>
-0.0000

> <Gold.Chemscore.Lipo.Weighted>
-10.3544

> <Gold.Chemscore.Internal_Hbond.Weighted>
0.0000

> <Gold.Chemscore.DEClash.Weighted>
1.7293

> <Gold.Chemscore.DEInternal.Weighted>
0.4372

> <Gold.Chemscore.Rot.Weighted>
2.5600

> <Gold.Chemscore.Internal.Correction.Weighted>
   9.000000E+99

> <Gold.Protein.RotatedTorsions>
[ 6907 6896 6895 6894 ] final  -15.78 input  -60.11 | X-H torsion
[ 7974 7965 7964 7962 ] final -177.58 input  175.53 | X-H torsion
[ 8008 7997 7996 7995 ] final   15.81 input   59.86 | X-H torsion
[ 10167 10162 10161 10158 ] final  -76.85 input  -65.29 | X-H torsion
[ 10718 10713 10712 10709 ] final   32.49 input   66.30 | X-H torsion
[ 10763 10752 10751 10750 ] final   54.63 input  -60.55 | X-H torsion
[ 11005 11000 10999 10996 ] final  -24.05 input  -57.11 | X-H torsion

> <Gold.Protein.ActiveResidues>
 VAL166  LYS551  ARG553  GLY616  TRP617  ASP618  TYR619  PRO620  LYS621  CYS622 
 ASP623  PHE694  ASN695  SER759  ASP760  ASP761  ALA762  ILE779  LEU786  VAL792 
 PHE793  MET794  SER795  GLU796  ALA797  LYS798  CYS799  TRP800  GLU811  SER814 

> <Gold.Protein.RotatedAtoms>
  151.3187  135.0813  159.9297 H   0  0  0  0  0  0  0  0  0  0  0  0  # atno 6907 bound_to 6896
  152.5261  133.9661  159.7750 H   0  0  0  0  0  0  0  0  0  0  0  0  # atno 6908 bound_to 6896
  150.9978  133.6034  159.2729 H   0  0  0  0  0  0  0  0  0  0  0  0  # atno 6909 bound_to 6896
  144.7128  140.0997  143.6417 H   0  0  0  0  0  0  0  0  0  0  0  0  # atno 7974 bound_to 7965
  154.8680  140.2954  155.5498 H   0  0  0  0  0  0  0  0  0  0  0  0  # atno 8008 bound_to 7997
  156.3021  140.2465  156.3598 H   0  0  0  0  0  0  0  0  0  0  0  0  # atno 8009 bound_to 7997
  154.8847  140.0396  157.1792 H   0  0  0  0  0  0  0  0  0  0  0  0  # atno 8010 bound_to 7997
  140.4821  143.2399  151.8041 H   0  0  0  0  0  0  0  0  0  0  0  0  # atno 10167 bound_to 10162
  157.2859  130.7278  149.6583 H   0  0  0  0  0  0  0  0  0  0  0  0  # atno 10718 bound_to 10713
  152.9807  135.5738  154.4936 H   0  0  0  0  0  0  0  0  0  0  0  0  # atno 10763 bound_to 10752
  154.4466  135.2777  155.1812 H   0  0  0  0  0  0  0  0  0  0  0  0  # atno 10764 bound_to 10752
  154.3457  135.6220  153.5672 H   0  0  0  0  0  0  0  0  0  0  0  0  # atno 10765 bound_to 10752
  140.8809  133.7655  156.0301 H   0  0  0  0  0  0  0  0  0  0  0  0  # atno 11005 bound_to 11000
  145.9548  139.2759  143.1190 LP  0  0  0  0  0  0  0  0  0  0  0  0  # atno 17320 bound_to 7965
  145.9284  140.9066  143.0369 LP  0  0  0  0  0  0  0  0  0  0  0  0  # atno 17321 bound_to 7965
  139.4835  144.4758  151.9368 LP  0  0  0  0  0  0  0  0  0  0  0  0  # atno 17342 bound_to 10162
  140.3844  144.2695  150.5905 LP  0  0  0  0  0  0  0  0  0  0  0  0  # atno 17343 bound_to 10162
  155.9665  130.4324  150.4961 LP  0  0  0  0  0  0  0  0  0  0  0  0  # atno 17370 bound_to 10713
  157.2913  131.0627  151.2131 LP  0  0  0  0  0  0  0  0  0  0  0  0  # atno 17371 bound_to 10713
  140.8462  134.3008  157.5294 LP  0  0  0  0  0  0  0  0  0  0  0  0  # atno 17394 bound_to 11000
  139.8719  134.9443  156.3878 LP  0  0  0  0  0  0  0  0  0  0  0  0  # atno 17395 bound_to 11000

$$$$
