AV-unprocessed.smi:2923|AV-procd|sdf|11205|dock1
  -GOLD-   2272016 93D 1   1.00000     0.00000
 Structure written by MMmdl.
 47 49  0  0  0  0  0  0  0  0  2 V2000
  143.4293  132.6843  149.4018 C   0  0  0  0  0  0  0  0  0  0  0  0
  144.5867  132.8960  150.2638 N   0  0  0  0  0  0  0  0  0  0  0  0
  145.5752  131.8401  150.4400 C   0  0  0  0  0  0  0  0  0  0  0  0
  144.7099  134.1013  150.9886 C   0  0  0  0  0  0  0  0  0  0  0  0
  145.8898  134.4759  151.6764 C   0  0  0  0  0  0  0  0  0  0  0  0
  145.9330  135.6962  152.3813 C   0  0  0  0  0  0  0  0  0  0  0  0
  144.8007  136.5369  152.4043 C   0  0  0  0  0  0  0  0  0  0  0  0
  144.9023  137.7570  153.1275 N   0  0  0  0  0  0  0  0  0  0  0  0
  145.5502  138.0069  154.2785 C   0  0  0  0  0  0  0  0  0  0  0  0
  146.2010  137.1870  154.9254 O   0  0  0  0  0  0  0  0  0  0  0  0
  145.4050  139.2867  154.6462 N   0  0  0  0  0  0  0  0  0  0  0  0
  145.9771  139.8755  155.8583 C   0  0  1  0  0  0  0  0  0  0  0  0
  146.8725  141.1011  155.5680 C   0  0  1  0  0  0  0  0  0  0  0  0
  147.3107  141.4888  154.1764 C   0  0  0  0  0  0  0  0  0  0  0  0
  146.2977  142.5708  153.7914 C   0  0  0  0  0  0  0  0  0  0  0  0
  145.1820  142.3475  154.6508 O   0  0  0  0  0  0  0  0  0  0  0  0
  145.6859  141.9781  155.9325 C   0  0  1  0  0  0  0  0  0  0  0  0
  144.9858  140.7913  156.6264 C   0  0  0  0  0  0  0  0  0  0  0  0
  143.4801  140.6482  156.3644 C   0  0  0  0  0  0  0  0  0  0  0  0
  145.1604  140.7635  158.1476 C   0  0  0  0  0  0  0  0  0  0  0  0
  143.6494  136.1237  151.6919 C   0  0  0  0  0  0  0  0  0  0  0  0
  143.6517  134.9469  151.0294 N   0  3  0  0  0  0  0  0  0  0  0  0
  143.4089  133.4236  148.6004 H   0  0  0  0  0  0  0  0  0  0  0  0
  142.5044  132.7664  149.9736 H   0  0  0  0  0  0  0  0  0  0  0  0
  143.4505  131.6954  148.9438 H   0  0  0  0  0  0  0  0  0  0  0  0
  145.5945  131.5030  151.4766 H   0  0  0  0  0  0  0  0  0  0  0  0
  146.5694  132.1964  150.1690 H   0  0  0  0  0  0  0  0  0  0  0  0
  145.3500  130.9773  149.8128 H   0  0  0  0  0  0  0  0  0  0  0  0
  146.7665  133.8460  151.6770 H   0  0  0  0  0  0  0  0  0  0  0  0
  146.8343  135.9798  152.9050 H   0  0  0  0  0  0  0  0  0  0  0  0
  144.4503  138.5512  152.6985 H   0  0  0  0  0  0  0  0  0  0  0  0
  144.8505  139.8965  154.0633 H   0  0  0  0  0  0  0  0  0  0  0  0
  146.4791  139.1507  156.5023 H   0  0  0  0  0  0  0  0  0  0  0  0
  147.6631  141.1865  156.3150 H   0  0  0  0  0  0  0  0  0  0  0  0
  148.3278  141.8811  154.1587 H   0  0  0  0  0  0  0  0  0  0  0  0
  147.2764  140.6483  153.4837 H   0  0  0  0  0  0  0  0  0  0  0  0
  146.7043  143.5634  153.9903 H   0  0  0  0  0  0  0  0  0  0  0  0
  146.0093  142.5236  152.7410 H   0  0  0  0  0  0  0  0  0  0  0  0
  145.9373  142.8292  156.5672 H   0  0  0  0  0  0  0  0  0  0  0  0
  142.9108  141.4270  156.8728 H   0  0  0  0  0  0  0  0  0  0  0  0
  143.1039  139.6858  156.7129 H   0  0  0  0  0  0  0  0  0  0  0  0
  143.2364  140.7252  155.3048 H   0  0  0  0  0  0  0  0  0  0  0  0
  144.6182  141.5779  158.6292 H   0  0  0  0  0  0  0  0  0  0  0  0
  146.2077  140.8620  158.4350 H   0  0  0  0  0  0  0  0  0  0  0  0
  144.7976  139.8274  158.5733 H   0  0  0  0  0  0  0  0  0  0  0  0
  142.7281  136.6795  151.6119 H   0  0  0  0  0  0  0  0  0  0  0  0
  142.8042  134.6800  150.5283 H   0  0  0  0  0  0  0  0  0  0  0  0
  1  2  1  0  0  0  0
  1 23  1  0  0  0  0
  1 24  1  0  0  0  0
  1 25  1  0  0  0  0
  2  3  1  0  0  0  0
  2  4  1  0  0  0  0
  3 26  1  0  0  0  0
  3 27  1  0  0  0  0
  3 28  1  0  0  0  0
  4 22  1  0  0  0  0
  4  5  2  0  0  0  0
  5  6  1  0  0  0  0
  5 29  1  0  0  0  0
  6  7  2  0  0  0  0
  6 30  1  0  0  0  0
  7  8  1  0  0  0  0
  7 21  1  0  0  0  0
  8  9  1  0  0  0  0
  8 31  1  0  0  0  0
  9 10  2  0  0  0  0
  9 11  1  0  0  0  0
 11 12  1  0  0  0  0
 11 32  1  0  0  0  0
 12 18  1  0  0  0  0
 12 13  1  0  0  0  0
 12 33  1  0  0  0  0
 13 17  1  0  0  0  0
 13 14  1  0  0  0  0
 13 34  1  0  0  0  0
 14 15  1  0  0  0  0
 14 35  1  0  0  0  0
 14 36  1  0  0  0  0
 15 16  1  0  0  0  0
 15 37  1  0  0  0  0
 15 38  1  0  0  0  0
 16 17  1  0  0  0  0
 17 18  1  0  0  0  0
 17 39  1  0  0  0  0
 18 19  1  0  0  0  0
 18 20  1  0  0  0  0
 19 40  1  0  0  0  0
 19 41  1  0  0  0  0
 19 42  1  0  0  0  0
 20 43  1  0  0  0  0
 20 44  1  0  0  0  0
 20 45  1  0  0  0  0
 21 22  2  0  0  0  0
 21 46  1  0  0  0  0
 22 47  1  0  0  0  0
M  CHG  1  22   1
M  END
> <s_m_source_file>
AV-unprocessed.smi

> <i_m_source_file_index>
2923

> <i_lp_mmshare_version>
43012

> <i_f3d_flags>
0

> <s_epik_input>
W0NIM11OKFtDSDNdKWMxW2NIXVtjSF1jKFtjSF1uMSlbTkhdQyg9TylbTkhdW0NASF0yQyhbQ0gzXSkoW0NIM10pW0NAQEhdKFtDQEhdMjMpT1tDSDJdW0NIMl0z

> <s_epik_cmdline>
J2VwaWtfcHl0aG9uJywgJy1waCcsICc3LjAnLCAnLXRuJywgJzgnLCAnLW1hJywgJzIwMCcsICctbWV0YWxfYmluZGluZycsICctaW1hZScsICc8aW5maWxlLm1hZT4nLCAnLW9tYWUnLCAnPG91dGZpbGUubWFlPic=

> <r_lp_tautomer_probability>
0.999994

> <r_epik_Ionization_Penalty>
0.252205

> <r_epik_Ionization_Penalty_Charging>
0.252185

> <r_epik_Ionization_Penalty_Neutral>
1.99479e-05

> <r_epik_State_Penalty>
0.243573

> <r_epik_Charging_Adjusted_Penalty>
0.495758

> <i_epik_Tot_Q>
1

> <i_epik_Tot_abs_Q>
1

> <r_epik_Metal_State_Penalty>
0.534372

> <b_epik_Metal_Only>
0

> <s_lp_Force_Field>
OPLS_2005

> <r_lp_Energy>
46.5408

> <b_lp_Chiralities_Consistent>
1

> <s_lp_Variant>
AV-unprocessed.smi:2923-4

> <Gold.Version>
5.8.1

> <Gold.Id.Protein>
6NUR|6NUR_protein|mol2

> <Gold.PLP.Fitness>
39.3617

> <Gold.PLP.PLP>
-28.1972

> <Gold.PLP.part.hbond>
-2.9281

> <Gold.PLP.part.metal>
0.0000

> <Gold.PLP.part.buried>
-2.9166

> <Gold.PLP.part.nonpolar>
-23.8773

> <Gold.PLP.part.repulsive>
0.2643

> <Gold.PLP.ligand.clash>
0.0000

> <Gold.PLP.ligand.torsion>
0.4366

> <Gold.PLP.Chemscore.Hbond>
3.9500

> <Gold.PLP.Chemscore.CHOScore>
0.0000

> <Gold.PLP.Chemscore.Metal>
0.0000

> <Gold.Chemscore.Hbonds>
donor molecule, donor type, donor heavy atom, donor atom, acceptor molecule, acceptor atom, score
      L1  H     8    31       P1 10175  0.93
      L1  H    11    32       P1 10175  0.94
      L1  H    22    47       P1 10186  1.92

> <Gold.PLP.Chemscore.Internal.Correction>
0.1877

> <Gold.Rescore>
     Score         DG    S(hbond)    S(metal)    S(lipo)     H(rot)  DE(clash)    DE(int)     intcor
     16.19     -18.18       2.36        0.00      63.03       1.00       0.42       1.56       ----

> <Gold.Chemscore.Fitness>
16.1902

> <Gold.Chemscore.DG>
-18.1750

> <Gold.Chemscore.ZeroCoef>
-5.4800

> <Gold.Chemscore.Hbond>
2.3596

> <Gold.Chemscore.Metal>
0.0000

> <Gold.Chemscore.Lipo>
63.0258

> <Gold.Chemscore.Internal_Hbond>
0.0000

> <Gold.Chemscore.DEClash>
0.4232

> <Gold.Chemscore.DEInternal>
1.5616

> <Gold.Chemscore.Rot>
1.0000

> <Gold.Chemscore.Internal.Correction>
   9.000000E+99

> <Gold.Chemscore.Hbonds>
donor molecule, donor type, donor heavy atom, donor atom, acceptor molecule, acceptor atom, score
      L1  H     8    31       P1 10175  0.88
      L1  H    11    32       P1 10175  0.89
      L1  H    22    47       P1 10186  0.23

> <Gold.Chemscore.Hbond.Weighted>
-7.8810

> <Gold.Chemscore.Metal.Weighted>
-0.0000

> <Gold.Chemscore.Lipo.Weighted>
-7.3740

> <Gold.Chemscore.Internal_Hbond.Weighted>
0.0000

> <Gold.Chemscore.DEClash.Weighted>
0.4232

> <Gold.Chemscore.DEInternal.Weighted>
1.5616

> <Gold.Chemscore.Rot.Weighted>
2.5600

> <Gold.Chemscore.Internal.Correction.Weighted>
   9.000000E+99

> <Gold.Protein.RotatedTorsions>
[ 6907 6896 6895 6894 ] final  -44.87 input  -60.11 | X-H torsion
[ 7974 7965 7964 7962 ] final -161.33 input  175.53 | X-H torsion
[ 8008 7997 7996 7995 ] final  138.41 input   59.86 | X-H torsion
[ 10167 10162 10161 10158 ] final   11.86 input  -65.29 | X-H torsion
[ 10718 10713 10712 10709 ] final  -24.02 input   66.30 | X-H torsion
[ 10763 10752 10751 10750 ] final  -92.90 input  -60.55 | X-H torsion
[ 11005 11000 10999 10996 ] final    7.67 input  -57.11 | X-H torsion

> <Gold.Protein.ActiveResidues>
 VAL166  LYS551  ARG553  GLY616  TRP617  ASP618  TYR619  PRO620  LYS621  CYS622 
 ASP623  PHE694  ASN695  SER759  ASP760  ASP761  ALA762  ILE779  LEU786  VAL792 
 PHE793  MET794  SER795  GLU796  ALA797  LYS798  CYS799  TRP800  GLU811  SER814 

> <Gold.Protein.RotatedAtoms>
  150.9281  134.8697  159.7533 H   0  0  0  0  0  0  0  0  0  0  0  0  # atno 6907 bound_to 6896
  152.5025  134.4119  159.9461 H   0  0  0  0  0  0  0  0  0  0  0  0  # atno 6908 bound_to 6896
  151.4148  133.3676  159.2783 H   0  0  0  0  0  0  0  0  0  0  0  0  # atno 6909 bound_to 6896
  144.7395  140.3413  143.6134 H   0  0  0  0  0  0  0  0  0  0  0  0  # atno 7974 bound_to 7965
  156.2997  140.2394  156.4069 H   0  0  0  0  0  0  0  0  0  0  0  0  # atno 8008 bound_to 7997
  154.8477  140.0425  157.1603 H   0  0  0  0  0  0  0  0  0  0  0  0  # atno 8009 bound_to 7997
  154.9033  140.2980  155.5309 H   0  0  0  0  0  0  0  0  0  0  0  0  # atno 8010 bound_to 7997
  140.6105  143.8417  150.7060 H   0  0  0  0  0  0  0  0  0  0  0  0  # atno 10167 bound_to 10162
  156.4832  130.4550  149.6799 H   0  0  0  0  0  0  0  0  0  0  0  0  # atno 10718 bound_to 10713
  154.6906  135.5214  153.8388 H   0  0  0  0  0  0  0  0  0  0  0  0  # atno 10763 bound_to 10752
  153.0630  135.6575  154.0429 H   0  0  0  0  0  0  0  0  0  0  0  0  # atno 10764 bound_to 10752
  154.0303  135.2986  155.3349 H   0  0  0  0  0  0  0  0  0  0  0  0  # atno 10765 bound_to 10752
  140.5457  134.0332  155.7919 H   0  0  0  0  0  0  0  0  0  0  0  0  # atno 11005 bound_to 11000
  145.7371  139.1753  143.2397 LP  0  0  0  0  0  0  0  0  0  0  0  0  # atno 17320 bound_to 7965
  146.1162  140.7367  142.9479 LP  0  0  0  0  0  0  0  0  0  0  0  0  # atno 17321 bound_to 7965
  140.1985  143.3979  152.1810 LP  0  0  0  0  0  0  0  0  0  0  0  0  # atno 17342 bound_to 10162
  139.5358  144.7207  151.4900 LP  0  0  0  0  0  0  0  0  0  0  0  0  # atno 17343 bound_to 10162
  156.3500  130.7427  151.2385 LP  0  0  0  0  0  0  0  0  0  0  0  0  # atno 17370 bound_to 10713
  157.7481  131.0379  150.4480 LP  0  0  0  0  0  0  0  0  0  0  0  0  # atno 17371 bound_to 10713
  141.1201  133.9475  157.2745 LP  0  0  0  0  0  0  0  0  0  0  0  0  # atno 17394 bound_to 11000
  139.9481  135.0180  156.8913 LP  0  0  0  0  0  0  0  0  0  0  0  0  # atno 17395 bound_to 11000

$$$$
