AV-unprocessed.smi:2438|AV-procd|sdf|9596|dock3
  -GOLD-   2272013233D 1   1.00000     0.00000
 Structure written by MMmdl.
 43 44  0  0  0  0  0  0  0  0  1 V2000
  151.2025  138.9437  154.7130 C   0  0  0  0  0  0  0  0  0  0  0  0
  150.3363  137.7732  154.6845 N   0  0  0  0  0  0  0  0  0  0  0  0
  148.9025  138.0344  154.7061 C   0  0  0  0  0  0  0  0  0  0  0  0
  150.7930  136.7245  155.5080 C   0  0  0  0  0  0  0  0  0  0  0  0
  151.6741  137.0283  156.4920 N   0  0  0  0  0  0  0  0  0  0  0  0
  152.1167  136.0284  157.2557 C   0  0  0  0  0  0  0  0  0  0  0  0
  151.7776  134.7431  157.1599 N   0  0  0  0  0  0  0  0  0  0  0  0
  150.9002  134.4173  156.1884 C   0  0  0  0  0  0  0  0  0  0  0  0
  150.3655  135.3861  155.3029 C   0  0  0  0  0  0  0  0  0  0  0  0
  149.4011  135.0849  154.3009 N   0  0  0  0  0  0  0  0  0  0  0  0
  148.4422  134.1450  154.3281 C   0  0  0  0  0  0  0  0  0  0  0  0
  148.2347  133.3688  155.2605 O   0  0  0  0  0  0  0  0  0  0  0  0
  147.7393  134.1387  153.1869 N   0  0  0  0  0  0  0  0  0  0  0  0
  146.6396  133.2295  152.8783 C   0  0  1  0  0  0  0  0  0  0  0  0
  146.0711  133.5617  151.4874 C   0  0  0  0  0  0  0  0  0  0  0  0
  144.9480  132.5893  151.0985 C   0  0  0  0  0  0  0  0  0  0  0  0
  145.4272  131.1306  151.1614 C   0  0  0  0  0  0  0  0  0  0  0  0
  145.9908  130.7758  152.5537 C   0  0  1  0  0  0  0  0  0  0  0  0
  146.4602  129.3081  152.6307 C   0  0  0  0  0  0  0  0  0  0  0  0
  146.8309  128.9934  153.8722 F   0  0  0  0  0  0  0  0  0  0  0  0
  145.4744  128.4928  152.2557 F   0  0  0  0  0  0  0  0  0  0  0  0
  147.4933  129.1153  151.8106 F   0  0  0  0  0  0  0  0  0  0  0  0
  147.1139  131.7625  152.9395 C   0  0  0  0  0  0  0  0  0  0  0  0
  152.2106  138.7059  154.3742 H   0  0  0  0  0  0  0  0  0  0  0  0
  151.2683  139.3457  155.7248 H   0  0  0  0  0  0  0  0  0  0  0  0
  150.8096  139.7256  154.0626 H   0  0  0  0  0  0  0  0  0  0  0  0
  148.3356  137.1044  154.6477 H   0  0  0  0  0  0  0  0  0  0  0  0
  148.6190  138.6525  153.8539 H   0  0  0  0  0  0  0  0  0  0  0  0
  148.6159  138.5598  155.6178 H   0  0  0  0  0  0  0  0  0  0  0  0
  152.8186  136.2877  158.0342 H   0  0  0  0  0  0  0  0  0  0  0  0
  150.6141  133.3776  156.1518 H   0  0  0  0  0  0  0  0  0  0  0  0
  149.5101  135.5885  153.4325 H   0  0  0  0  0  0  0  0  0  0  0  0
  147.9852  134.8109  152.4749 H   0  0  0  0  0  0  0  0  0  0  0  0
  145.8438  133.3743  153.6118 H   0  0  0  0  0  0  0  0  0  0  0  0
  145.6923  134.5844  151.4717 H   0  0  0  0  0  0  0  0  0  0  0  0
  146.8650  133.5137  150.7402 H   0  0  0  0  0  0  0  0  0  0  0  0
  144.0980  132.7248  151.7684 H   0  0  0  0  0  0  0  0  0  0  0  0
  144.5898  132.8192  150.0948 H   0  0  0  0  0  0  0  0  0  0  0  0
  144.5982  130.4678  150.9119 H   0  0  0  0  0  0  0  0  0  0  0  0
  146.1911  130.9673  150.4002 H   0  0  0  0  0  0  0  0  0  0  0  0
  145.1834  130.8966  153.2779 H   0  0  0  0  0  0  0  0  0  0  0  0
  147.9657  131.6256  152.2718 H   0  0  0  0  0  0  0  0  0  0  0  0
  147.4724  131.5350  153.9440 H   0  0  0  0  0  0  0  0  0  0  0  0
  1  2  1  0  0  0  0
  1 24  1  0  0  0  0
  1 25  1  0  0  0  0
  1 26  1  0  0  0  0
  2  3  1  0  0  0  0
  2  4  1  0  0  0  0
  3 27  1  0  0  0  0
  3 28  1  0  0  0  0
  3 29  1  0  0  0  0
  4  9  1  0  0  0  0
  4  5  2  0  0  0  0
  5  6  1  0  0  0  0
  6  7  2  0  0  0  0
  6 30  1  0  0  0  0
  7  8  1  0  0  0  0
  8  9  2  0  0  0  0
  8 31  1  0  0  0  0
  9 10  1  0  0  0  0
 10 11  1  0  0  0  0
 10 32  1  0  0  0  0
 11 12  2  0  0  0  0
 11 13  1  0  0  0  0
 13 14  1  0  0  0  0
 13 33  1  0  0  0  0
 14 23  1  0  0  0  0
 14 15  1  0  0  0  0
 14 34  1  0  0  0  0
 15 16  1  0  0  0  0
 15 35  1  0  0  0  0
 15 36  1  0  0  0  0
 16 17  1  0  0  0  0
 16 37  1  0  0  0  0
 16 38  1  0  0  0  0
 17 18  1  0  0  0  0
 17 39  1  0  0  0  0
 17 40  1  0  0  0  0
 18 19  1  0  0  0  0
 18 23  1  0  0  0  0
 18 41  1  0  0  0  0
 19 20  1  0  0  0  0
 19 21  1  0  0  0  0
 19 22  1  0  0  0  0
 23 42  1  0  0  0  0
 23 43  1  0  0  0  0
M  END
> <s_m_source_file>
AV-unprocessed.smi

> <i_m_source_file_index>
2438

> <i_lp_mmshare_version>
43012

> <i_f3d_flags>
0

> <s_epik_input>
W0NIM11OKFtDSDNdKWMxbltjSF1uW2NIXWMxW05IXUMoPU8pW05IXVtDQEBIXTJbQ0gyXVtDSDJdW0NIMl1bQ0BASF0oQyhGKShGKUYpW0NIMl0y

> <s_epik_cmdline>
J2VwaWtfcHl0aG9uJywgJy1waCcsICc3LjAnLCAnLXRuJywgJzgnLCAnLW1hJywgJzIwMCcsICctbWV0YWxfYmluZGluZycsICctaW1hZScsICc8aW5maWxlLm1hZT4nLCAnLW9tYWUnLCAnPG91dGZpbGUubWFlPic=

> <r_lp_tautomer_probability>
1

> <r_epik_Ionization_Penalty>
0.01759

> <r_epik_Ionization_Penalty_Charging>
0

> <r_epik_Ionization_Penalty_Neutral>
0.01759

> <r_epik_State_Penalty>
0.0133536

> <r_epik_Charging_Adjusted_Penalty>
0.0133536

> <i_epik_Tot_Q>
0

> <i_epik_Tot_abs_Q>
0

> <r_epik_Metal_State_Penalty>
0.0129828

> <b_epik_Metal_Only>
0

> <s_lp_Force_Field>
OPLS_2005

> <r_lp_Energy>
11.3681

> <b_lp_Chiralities_Consistent>
1

> <s_lp_Variant>
AV-unprocessed.smi:2438-2

> <Gold.Version>
5.8.1

> <Gold.Id.Protein>
6NUR|6NUR_protein|mol2

> <Gold.PLP.Fitness>
38.6091

> <Gold.PLP.PLP>
-33.7817

> <Gold.PLP.part.hbond>
-3.0000

> <Gold.PLP.part.metal>
0.0000

> <Gold.PLP.part.buried>
-2.2358

> <Gold.PLP.part.nonpolar>
-29.5517

> <Gold.PLP.part.repulsive>
0.2425

> <Gold.PLP.ligand.clash>
0.0000

> <Gold.PLP.ligand.torsion>
0.5340

> <Gold.PLP.Chemscore.Hbond>
1.8500

> <Gold.PLP.Chemscore.CHOScore>
0.0000

> <Gold.PLP.Chemscore.Metal>
0.0000

> <Gold.Chemscore.Hbonds>
donor molecule, donor type, donor heavy atom, donor atom, acceptor molecule, acceptor atom, score
      L1  H    10    32       P1  7948  0.85
      L1  H    13    33       P1  7948  1.00

> <Gold.PLP.Chemscore.Internal.Correction>
0.3453

> <Gold.Rescore>
     Score         DG    S(hbond)    S(metal)    S(lipo)     H(rot)  DE(clash)    DE(int)     intcor
     12.09     -15.33       1.74        0.00      63.03       1.30       0.89       2.35       ----

> <Gold.Chemscore.Fitness>
12.0944

> <Gold.Chemscore.DG>
-15.3310

> <Gold.Chemscore.ZeroCoef>
-5.4800

> <Gold.Chemscore.Hbond>
1.7368

> <Gold.Chemscore.Metal>
0.0000

> <Gold.Chemscore.Lipo>
63.0320

> <Gold.Chemscore.Internal_Hbond>
0.0000

> <Gold.Chemscore.DEClash>
0.8861

> <Gold.Chemscore.DEInternal>
2.3505

> <Gold.Chemscore.Rot>
1.2987

> <Gold.Chemscore.Internal.Correction>
   9.000000E+99

> <Gold.Chemscore.Hbonds>
donor molecule, donor type, donor heavy atom, donor atom, acceptor molecule, acceptor atom, score
      L1  H    10    32       P1  7948  0.14
      L1  H    13    33       P1  7948  0.68

> <Gold.Chemscore.Hbond.Weighted>
-5.8008

> <Gold.Chemscore.Metal.Weighted>
-0.0000

> <Gold.Chemscore.Lipo.Weighted>
-7.3747

> <Gold.Chemscore.Internal_Hbond.Weighted>
0.0000

> <Gold.Chemscore.DEClash.Weighted>
0.8861

> <Gold.Chemscore.DEInternal.Weighted>
2.3505

> <Gold.Chemscore.Rot.Weighted>
3.3246

> <Gold.Chemscore.Internal.Correction.Weighted>
   9.000000E+99

> <Gold.Protein.RotatedTorsions>
[ 6907 6896 6895 6894 ] final -109.00 input  -60.11 | X-H torsion
[ 7974 7965 7964 7962 ] final  139.14 input  175.53 | X-H torsion
[ 8008 7997 7996 7995 ] final  -41.40 input   59.86 | X-H torsion
[ 10167 10162 10161 10158 ] final   45.94 input  -65.29 | X-H torsion
[ 10718 10713 10712 10709 ] final    3.10 input   66.30 | X-H torsion
[ 10763 10752 10751 10750 ] final   26.86 input  -60.55 | X-H torsion
[ 11005 11000 10999 10996 ] final -117.34 input  -57.11 | X-H torsion

> <Gold.Protein.ActiveResidues>
 VAL166  LYS551  ARG553  GLY616  TRP617  ASP618  TYR619  PRO620  LYS621  CYS622 
 ASP623  PHE694  ASN695  SER759  ASP760  ASP761  ALA762  ILE779  LEU786  VAL792 
 PHE793  MET794  SER795  GLU796  ALA797  LYS798  CYS799  TRP800  GLU811  SER814 

> <Gold.Protein.RotatedAtoms>
  150.7535  133.9594  159.3510 H   0  0  0  0  0  0  0  0  0  0  0  0  # atno 6907 bound_to 6896
  151.7519  135.0829  160.0341 H   0  0  0  0  0  0  0  0  0  0  0  0  # atno 6908 bound_to 6896
  152.3461  133.6086  159.5947 H   0  0  0  0  0  0  0  0  0  0  0  0  # atno 6909 bound_to 6896
  144.9307  139.5051  143.5619 H   0  0  0  0  0  0  0  0  0  0  0  0  # atno 7974 bound_to 7965
  154.4004  140.1500  156.3185 H   0  0  0  0  0  0  0  0  0  0  0  0  # atno 8008 bound_to 7997
  155.8551  140.3456  155.5697 H   0  0  0  0  0  0  0  0  0  0  0  0  # atno 8009 bound_to 7997
  155.7942  140.0861  157.1983 H   0  0  0  0  0  0  0  0  0  0  0  0  # atno 8010 bound_to 7997
  140.3190  144.2729  150.6186 H   0  0  0  0  0  0  0  0  0  0  0  0  # atno 10167 bound_to 10162
  156.8728  130.5626  149.5656 H   0  0  0  0  0  0  0  0  0  0  0  0  # atno 10718 bound_to 10713
  153.0594  135.6550  154.0499 H   0  0  0  0  0  0  0  0  0  0  0  0  # atno 10763 bound_to 10752
  154.0170  135.2923  155.3387 H   0  0  0  0  0  0  0  0  0  0  0  0  # atno 10764 bound_to 10752
  154.6925  135.5277  153.8480 H   0  0  0  0  0  0  0  0  0  0  0  0  # atno 10765 bound_to 10752
  141.0361  133.9907  157.3068 H   0  0  0  0  0  0  0  0  0  0  0  0  # atno 11005 bound_to 11000
  146.3245  139.8254  142.8918 LP  0  0  0  0  0  0  0  0  0  0  0  0  # atno 17320 bound_to 7965
  145.3147  141.0229  143.3534 LP  0  0  0  0  0  0  0  0  0  0  0  0  # atno 17321 bound_to 7965
  140.5501  143.2208  151.7942 LP  0  0  0  0  0  0  0  0  0  0  0  0  # atno 17342 bound_to 10162
  139.4878  144.4488  151.9678 LP  0  0  0  0  0  0  0  0  0  0  0  0  # atno 17343 bound_to 10162
  156.0717  130.5748  150.9396 LP  0  0  0  0  0  0  0  0  0  0  0  0  # atno 17370 bound_to 10713
  157.6185  131.0931  150.8665 LP  0  0  0  0  0  0  0  0  0  0  0  0  # atno 17371 bound_to 10713
  139.9242  135.0201  156.8173 LP  0  0  0  0  0  0  0  0  0  0  0  0  # atno 17394 bound_to 11000
  140.6319  133.9897  155.7666 LP  0  0  0  0  0  0  0  0  0  0  0  0  # atno 17395 bound_to 11000

$$$$
