AV-unprocessed.smi:2346|AV-procd|sdf|9367|dock2
  -GOLD-   2272012593D 1   1.00000     0.00000
 Structure written by MMmdl.
 45 47  0  0  0  0  0  0  0  0  2 V2000
  152.0416  145.4255  159.2996 C   0  0  0  0  0  0  0  0  0  0  0  0
  151.2843  144.3952  158.6821 O   0  0  0  0  0  0  0  0  0  0  0  0
  151.6223  143.0839  158.9473 C   0  0  0  0  0  0  0  0  0  0  0  0
  152.6967  142.7055  159.7923 C   0  0  0  0  0  0  0  0  0  0  0  0
  152.9848  141.3456  160.0188 C   0  0  0  0  0  0  0  0  0  0  0  0
  154.0894  140.9687  160.8849 C   0  0  0  0  0  0  0  0  0  0  0  0
  154.9690  140.6685  161.5740 N   0  0  0  0  0  0  0  0  0  0  0  0
  152.2016  140.3523  159.4032 C   0  0  0  0  0  0  0  0  0  0  0  0
  151.1333  140.7178  158.5647 C   0  0  0  0  0  0  0  0  0  0  0  0
  150.8350  142.0839  158.3310 C   0  0  0  0  0  0  0  0  0  0  0  0
  149.8034  142.5138  157.5221 O   0  0  0  0  0  0  0  0  0  0  0  0
  148.8970  141.5489  157.0091 C   0  0  0  0  0  0  0  0  0  0  0  0
  148.8835  141.6642  155.4805 C   0  0  0  0  0  0  0  0  0  0  0  0
  149.0687  140.3583  154.8338 N   0  0  0  0  0  0  0  0  0  0  0  0
  148.2011  139.6072  154.0943 C   0  0  0  0  0  0  0  0  0  0  0  0
  146.7921  139.9614  153.7275 C   0  0  2  0  0  0  0  0  0  0  0  0
  145.8936  140.0867  154.9671 C   0  0  0  0  0  0  0  0  0  0  0  0
  146.2274  139.0070  152.8552 O   0  0  0  0  0  0  0  0  0  0  0  0
  148.8748  138.4869  153.7047 N   0  3  0  0  0  0  0  0  0  0  0  0
  150.1690  138.5055  154.2247 C   0  0  0  0  0  0  0  0  0  0  0  0
  151.2091  137.5882  154.1125 C   0  0  0  0  0  0  0  0  0  0  0  0
  152.4114  137.9109  154.7754 C   0  0  0  0  0  0  0  0  0  0  0  0
  152.5453  139.1054  155.5127 C   0  0  0  0  0  0  0  0  0  0  0  0
  151.4841  140.0296  155.6163 C   0  0  0  0  0  0  0  0  0  0  0  0
  150.2994  139.7033  154.9564 C   0  0  0  0  0  0  0  0  0  0  0  0
  151.6491  146.3939  158.9896 H   0  0  0  0  0  0  0  0  0  0  0  0
  153.0898  145.3841  159.0007 H   0  0  0  0  0  0  0  0  0  0  0  0
  151.9726  145.3749  160.3871 H   0  0  0  0  0  0  0  0  0  0  0  0
  153.3136  143.4475  160.2771 H   0  0  0  0  0  0  0  0  0  0  0  0
  152.4146  139.3058  159.5691 H   0  0  0  0  0  0  0  0  0  0  0  0
  150.5568  139.9265  158.1103 H   0  0  0  0  0  0  0  0  0  0  0  0
  149.2042  140.5444  157.3041 H   0  0  0  0  0  0  0  0  0  0  0  0
  147.8939  141.7296  157.3993 H   0  0  0  0  0  0  0  0  0  0  0  0
  147.9314  142.0731  155.1412 H   0  0  0  0  0  0  0  0  0  0  0  0
  149.6528  142.3526  155.1297 H   0  0  0  0  0  0  0  0  0  0  0  0
  146.7935  140.9208  153.2102 H   0  0  0  0  0  0  0  0  0  0  0  0
  146.2806  140.8380  155.6562 H   0  0  0  0  0  0  0  0  0  0  0  0
  145.8186  139.1432  155.5087 H   0  0  0  0  0  0  0  0  0  0  0  0
  144.8830  140.3875  154.6888 H   0  0  0  0  0  0  0  0  0  0  0  0
  145.4373  139.3697  152.4841 H   0  0  0  0  0  0  0  0  0  0  0  0
  151.1081  136.6721  153.5489 H   0  0  0  0  0  0  0  0  0  0  0  0
  153.2469  137.2283  154.7175 H   0  0  0  0  0  0  0  0  0  0  0  0
  153.4813  139.3183  156.0084 H   0  0  0  0  0  0  0  0  0  0  0  0
  151.5980  140.9410  156.1842 H   0  0  0  0  0  0  0  0  0  0  0  0
  148.4706  137.7615  153.1265 H   0  0  0  0  0  0  0  0  0  0  0  0
  1  2  1  0  0  0  0
  1 26  1  0  0  0  0
  1 27  1  0  0  0  0
  1 28  1  0  0  0  0
  2  3  1  0  0  0  0
  3 10  1  0  0  0  0
  3  4  2  0  0  0  0
  4  5  1  0  0  0  0
  4 29  1  0  0  0  0
  5  6  1  0  0  0  0
  5  8  2  0  0  0  0
  6  7  3  0  0  0  0
  8  9  1  0  0  0  0
  8 30  1  0  0  0  0
  9 10  2  0  0  0  0
  9 31  1  0  0  0  0
 10 11  1  0  0  0  0
 11 12  1  0  0  0  0
 12 13  1  0  0  0  0
 12 32  1  0  0  0  0
 12 33  1  0  0  0  0
 13 14  1  0  0  0  0
 13 34  1  0  0  0  0
 13 35  1  0  0  0  0
 14 25  1  0  0  0  0
 14 15  1  0  0  0  0
 15 16  1  0  0  0  0
 15 19  2  0  0  0  0
 16 17  1  0  0  0  0
 16 18  1  0  0  0  0
 16 36  1  0  0  0  0
 17 37  1  0  0  0  0
 17 38  1  0  0  0  0
 17 39  1  0  0  0  0
 18 40  1  0  0  0  0
 19 20  1  0  0  0  0
 19 45  1  0  0  0  0
 20 25  2  0  0  0  0
 20 21  1  0  0  0  0
 21 22  2  0  0  0  0
 21 41  1  0  0  0  0
 22 23  1  0  0  0  0
 22 42  1  0  0  0  0
 23 24  2  0  0  0  0
 23 43  1  0  0  0  0
 24 25  1  0  0  0  0
 24 44  1  0  0  0  0
M  CHG  1  19   1
M  END
> <s_m_source_file>
AV-unprocessed.smi

> <i_m_source_file_index>
2346

> <i_lp_mmshare_version>
43012

> <i_f3d_flags>
0

> <s_epik_input>
W0NIM11PYzFbY0hdYyhDI04pW2NIXVtjSF1jMU9bQ0gyXVtDSDJdbihjKG4yKVtDQEhdKFtDSDNdKVtPSF0pYyhjMjMpW2NIXVtjSF1bY0hdW2NIXTM=

> <s_epik_cmdline>
J2VwaWtfcHl0aG9uJywgJy1waCcsICc3LjAnLCAnLXRuJywgJzgnLCAnLW1hJywgJzIwMCcsICctbWV0YWxfYmluZGluZycsICctaW1hZScsICc8aW5maWxlLm1hZT4nLCAnLW9tYWUnLCAnPG91dGZpbGUubWFlPic=

> <r_epik_Ionization_Penalty>
1.58928

> <r_epik_Ionization_Penalty_Charging>
1.58925

> <r_epik_Ionization_Penalty_Neutral>
2.92192e-05

> <r_epik_State_Penalty>
1.68649

> <r_epik_Charging_Adjusted_Penalty>
3.27574

> <i_epik_Tot_Q>
1

> <i_epik_Tot_abs_Q>
1

> <r_epik_Metal_State_Penalty>
5.74385

> <b_epik_Metal_Only>
0

> <s_lp_Force_Field>
OPLS_2005

> <r_lp_Energy>
24.6554

> <b_lp_Chiralities_Consistent>
1

> <s_lp_Variant>
AV-unprocessed.smi:2346-3

> <Gold.Version>
5.8.1

> <Gold.Id.Protein>
6NUR|6NUR_protein|mol2

> <Gold.PLP.Fitness>
57.1284

> <Gold.PLP.PLP>
-50.7168

> <Gold.PLP.part.hbond>
-4.0000

> <Gold.PLP.part.metal>
0.0000

> <Gold.PLP.part.buried>
-0.4700

> <Gold.PLP.part.nonpolar>
-48.2728

> <Gold.PLP.part.repulsive>
1.5067

> <Gold.PLP.ligand.clash>
0.0000

> <Gold.PLP.ligand.torsion>
0.8558

> <Gold.PLP.Chemscore.Hbond>
2.6360

> <Gold.PLP.Chemscore.CHOScore>
0.0000

> <Gold.PLP.Chemscore.Metal>
0.0000

> <Gold.Chemscore.Hbonds>
donor molecule, donor type, donor heavy atom, donor atom, acceptor molecule, acceptor atom, score
      L1  H    18    40       P1 10175  0.91
      L1  H    19    45       P1  7948  1.66

> <Gold.PLP.Chemscore.Internal.Correction>
0.2151

> <Gold.Rescore>
     Score         DG    S(hbond)    S(metal)    S(lipo)     H(rot)  DE(clash)    DE(int)     intcor
     17.39     -19.17       1.68        0.00     127.00       2.65       0.90       0.89       ----

> <Gold.Chemscore.Fitness>
17.3869

> <Gold.Chemscore.DG>
-19.1721

> <Gold.Chemscore.ZeroCoef>
-5.4800

> <Gold.Chemscore.Hbond>
1.6792

> <Gold.Chemscore.Metal>
0.0000

> <Gold.Chemscore.Lipo>
127.0026

> <Gold.Chemscore.Internal_Hbond>
0.0000

> <Gold.Chemscore.DEClash>
0.8976

> <Gold.Chemscore.DEInternal>
0.8875

> <Gold.Chemscore.Rot>
2.6467

> <Gold.Chemscore.Internal.Correction>
   9.000000E+99

> <Gold.Chemscore.Hbonds>
donor molecule, donor type, donor heavy atom, donor atom, acceptor molecule, acceptor atom, score
      L1  H    18    40       P1 10175  0.86
      L1  H    19    45       P1  7948  0.78

> <Gold.Chemscore.Hbond.Weighted>
-5.6084

> <Gold.Chemscore.Metal.Weighted>
-0.0000

> <Gold.Chemscore.Lipo.Weighted>
-14.8593

> <Gold.Chemscore.Internal_Hbond.Weighted>
0.0000

> <Gold.Chemscore.DEClash.Weighted>
0.8976

> <Gold.Chemscore.DEInternal.Weighted>
0.8875

> <Gold.Chemscore.Rot.Weighted>
6.7756

> <Gold.Chemscore.Internal.Correction.Weighted>
   9.000000E+99

> <Gold.Protein.RotatedTorsions>
[ 6907 6896 6895 6894 ] final   59.11 input  -60.11 | X-H torsion
[ 7974 7965 7964 7962 ] final  -30.22 input  175.53 | X-H torsion
[ 8008 7997 7996 7995 ] final  -62.56 input   59.86 | X-H torsion
[ 10167 10162 10161 10158 ] final  140.83 input  -65.29 | X-H torsion
[ 10718 10713 10712 10709 ] final   43.60 input   66.30 | X-H torsion
[ 10763 10752 10751 10750 ] final  165.85 input  -60.55 | X-H torsion
[ 11005 11000 10999 10996 ] final -133.51 input  -57.11 | X-H torsion

> <Gold.Protein.ActiveResidues>
 VAL166  LYS551  ARG553  GLY616  TRP617  ASP618  TYR619  PRO620  LYS621  CYS622 
 ASP623  PHE694  ASN695  SER759  ASP760  ASP761  ALA762  ILE779  LEU786  VAL792 
 PHE793  MET794  SER795  GLU796  ALA797  LYS798  CYS799  TRP800  GLU811  SER814 

> <Gold.Protein.RotatedAtoms>
  152.3885  134.6479  160.0116 H   0  0  0  0  0  0  0  0  0  0  0  0  # atno 6907 bound_to 6896
  151.6720  133.3308  159.3207 H   0  0  0  0  0  0  0  0  0  0  0  0  # atno 6908 bound_to 6896
  150.7806  134.6791  159.6478 H   0  0  0  0  0  0  0  0  0  0  0  0  # atno 6909 bound_to 6896
  146.1159  140.5512  142.8757 H   0  0  0  0  0  0  0  0  0  0  0  0  # atno 7974 bound_to 7965
  154.4506  140.0993  156.6606 H   0  0  0  0  0  0  0  0  0  0  0  0  # atno 8008 bound_to 7997
  155.5297  140.3481  155.4405 H   0  0  0  0  0  0  0  0  0  0  0  0  # atno 8009 bound_to 7997
  156.0673  140.1341  156.9860 H   0  0  0  0  0  0  0  0  0  0  0  0  # atno 8010 bound_to 7997
  139.5037  144.6210  151.6052 H   0  0  0  0  0  0  0  0  0  0  0  0  # atno 10167 bound_to 10162
  157.4177  130.7951  149.7487 H   0  0  0  0  0  0  0  0  0  0  0  0  # atno 10718 bound_to 10713
  154.3303  135.2755  155.2475 H   0  0  0  0  0  0  0  0  0  0  0  0  # atno 10763 bound_to 10752
  154.4790  135.5863  153.6379 H   0  0  0  0  0  0  0  0  0  0  0  0  # atno 10764 bound_to 10752
  152.9867  135.6107  154.3495 H   0  0  0  0  0  0  0  0  0  0  0  0  # atno 10765 bound_to 10752
  140.9074  134.1612  157.4415 H   0  0  0  0  0  0  0  0  0  0  0  0  # atno 11005 bound_to 11000
  144.7553  140.5291  143.6773 LP  0  0  0  0  0  0  0  0  0  0  0  0  # atno 17320 bound_to 7965
  145.5567  139.1478  143.3364 LP  0  0  0  0  0  0  0  0  0  0  0  0  # atno 17321 bound_to 7965
  140.5912  143.9777  150.6326 LP  0  0  0  0  0  0  0  0  0  0  0  0  # atno 17342 bound_to 10162
  140.2958  143.3294  152.1019 LP  0  0  0  0  0  0  0  0  0  0  0  0  # atno 17343 bound_to 10162
  155.9870  130.3970  150.3184 LP  0  0  0  0  0  0  0  0  0  0  0  0  # atno 17370 bound_to 10713
  157.1329  131.0276  151.2961 LP  0  0  0  0  0  0  0  0  0  0  0  0  # atno 17371 bound_to 10713
  139.8752  134.9922  156.5587 LP  0  0  0  0  0  0  0  0  0  0  0  0  # atno 17394 bound_to 11000
  140.8153  133.8396  155.8846 LP  0  0  0  0  0  0  0  0  0  0  0  0  # atno 17395 bound_to 11000

$$$$
