AV-unprocessed.smi:2877|AV-procd|sdf|11043|dock9
  -GOLD-   2272015513D 1   1.00000     0.00000
 Structure written by MMmdl.
 41 42  0  0  0  0  0  0  0  0  1 V2000
  151.5108  141.3782  157.6960 O   0  0  0  0  0  0  0  0  0  0  0  0
  152.2558  141.2232  158.6653 C   0  0  0  0  0  0  0  0  0  0  0  0
  152.6332  139.7941  159.0934 C   0  0  0  0  0  0  0  0  0  0  0  0
  152.3360  138.7199  158.0264 C   0  0  0  0  0  0  0  0  0  0  0  0
  150.9288  138.3356  158.0318 N   0  0  0  0  0  0  0  0  0  0  0  0
  150.3562  137.4984  158.9126 C   0  0  0  0  0  0  0  0  0  0  0  0
  150.9856  136.9560  159.8228 O   0  0  0  0  0  0  0  0  0  0  0  0
  148.8447  137.2666  158.7442 C   0  0  0  0  0  0  0  0  0  0  0  0
  148.2619  138.4575  158.5926 F   0  0  0  0  0  0  0  0  0  0  0  0
  148.6362  136.5675  157.6257 F   0  0  0  0  0  0  0  0  0  0  0  0
  148.2351  136.5279  159.9356 C   0  0  0  0  0  0  0  0  0  0  0  0
  148.0031  135.1340  159.8873 C   0  0  0  0  0  0  0  0  0  0  0  0
  147.4297  134.5052  161.0091 C   0  0  0  0  0  0  0  0  0  0  0  0
  147.1088  135.2869  162.1349 C   0  0  0  0  0  0  0  0  0  0  0  0
  147.3741  136.6694  162.0874 C   0  0  0  0  0  0  0  0  0  0  0  0
  147.9232  137.2822  161.0170 N   0  0  0  0  0  0  0  0  0  0  0  0
  152.7508  142.2710  159.3695 N   0  0  0  0  0  0  0  0  0  0  0  0
  152.3871  143.6644  159.0780 C   0  0  0  0  0  0  0  0  0  0  0  0
  151.5044  144.1988  160.2212 C   0  0  0  0  0  0  0  0  0  0  0  0
  152.2157  144.0567  161.5801 C   0  0  0  0  0  0  0  0  0  0  0  0
  152.7576  142.6306  161.7916 C   0  0  0  0  0  0  0  0  0  0  0  0
  153.5842  142.1720  160.5766 C   0  0  0  0  0  0  0  0  0  0  0  0
  153.6966  139.7742  159.3340 H   0  0  0  0  0  0  0  0  0  0  0  0
  152.0883  139.5510  160.0066 H   0  0  0  0  0  0  0  0  0  0  0  0
  152.5692  139.1011  157.0314 H   0  0  0  0  0  0  0  0  0  0  0  0
  152.9614  137.8383  158.1789 H   0  0  0  0  0  0  0  0  0  0  0  0
  150.3431  138.7396  157.3151 H   0  0  0  0  0  0  0  0  0  0  0  0
  148.2514  134.5559  159.0096 H   0  0  0  0  0  0  0  0  0  0  0  0
  147.2384  133.4422  161.0051 H   0  0  0  0  0  0  0  0  0  0  0  0
  146.6681  134.8378  163.0127 H   0  0  0  0  0  0  0  0  0  0  0  0
  147.1392  137.3002  162.9320 H   0  0  0  0  0  0  0  0  0  0  0  0
  153.2943  144.2643  158.9923 H   0  0  0  0  0  0  0  0  0  0  0  0
  151.8675  143.7779  158.1256 H   0  0  0  0  0  0  0  0  0  0  0  0
  151.2478  145.2431  160.0415 H   0  0  0  0  0  0  0  0  0  0  0  0
  150.5636  143.6471  160.2411 H   0  0  0  0  0  0  0  0  0  0  0  0
  153.0464  144.7623  161.6222 H   0  0  0  0  0  0  0  0  0  0  0  0
  151.5396  144.3285  162.3912 H   0  0  0  0  0  0  0  0  0  0  0  0
  153.3658  142.5934  162.6958 H   0  0  0  0  0  0  0  0  0  0  0  0
  151.9265  141.9416  161.9478 H   0  0  0  0  0  0  0  0  0  0  0  0
  153.9824  141.1753  160.7587 H   0  0  0  0  0  0  0  0  0  0  0  0
  154.4586  142.8139  160.4592 H   0  0  0  0  0  0  0  0  0  0  0  0
  1  2  2  0  0  0  0
  2  3  1  0  0  0  0
  2 17  1  0  0  0  0
  3  4  1  0  0  0  0
  3 23  1  0  0  0  0
  3 24  1  0  0  0  0
  4  5  1  0  0  0  0
  4 25  1  0  0  0  0
  4 26  1  0  0  0  0
  5  6  1  0  0  0  0
  5 27  1  0  0  0  0
  6  7  2  0  0  0  0
  6  8  1  0  0  0  0
  8  9  1  0  0  0  0
  8 10  1  0  0  0  0
  8 11  1  0  0  0  0
 11 16  1  0  0  0  0
 11 12  2  0  0  0  0
 12 13  1  0  0  0  0
 12 28  1  0  0  0  0
 13 14  2  0  0  0  0
 13 29  1  0  0  0  0
 14 15  1  0  0  0  0
 14 30  1  0  0  0  0
 15 16  2  0  0  0  0
 15 31  1  0  0  0  0
 17 22  1  0  0  0  0
 17 18  1  0  0  0  0
 18 19  1  0  0  0  0
 18 32  1  0  0  0  0
 18 33  1  0  0  0  0
 19 20  1  0  0  0  0
 19 34  1  0  0  0  0
 19 35  1  0  0  0  0
 20 21  1  0  0  0  0
 20 36  1  0  0  0  0
 20 37  1  0  0  0  0
 21 22  1  0  0  0  0
 21 38  1  0  0  0  0
 21 39  1  0  0  0  0
 22 40  1  0  0  0  0
 22 41  1  0  0  0  0
M  END
> <s_m_source_file>
AV-unprocessed.smi

> <i_m_source_file_index>
2877

> <i_lp_mmshare_version>
43012

> <i_f3d_flags>
0

> <s_epik_input>
W0NIMl0xW0NIMl1bQ0gyXVtDSDJdW0NIMl1OMUMoPU8pW0NIMl1bQ0gyXVtOSF1DKD1PKUMoRikoRiljMltjSF1bY0hdW2NIXVtjSF1uMg==

> <s_epik_cmdline>
J2VwaWtfcHl0aG9uJywgJy1waCcsICc3LjAnLCAnLXRuJywgJzgnLCAnLW1hJywgJzIwMCcsICctbWV0YWxfYmluZGluZycsICctaW1hZScsICc8aW5maWxlLm1hZT4nLCAnLW9tYWUnLCAnPG91dGZpbGUubWFlPic=

> <r_lp_tautomer_probability>
1

> <r_epik_Ionization_Penalty>
7.88991e-05

> <r_epik_Ionization_Penalty_Charging>
0

> <r_epik_Ionization_Penalty_Neutral>
7.88991e-05

> <r_epik_State_Penalty>
-0

> <r_epik_Charging_Adjusted_Penalty>
0

> <i_epik_Tot_Q>
0

> <i_epik_Tot_abs_Q>
0

> <r_epik_Metal_State_Penalty>
0.0639978

> <b_epik_Metal_Only>
0

> <s_lp_Force_Field>
OPLS_2005

> <r_lp_Energy>
32.8241

> <b_lp_Chiralities_Consistent>
1

> <s_lp_Variant>
AV-unprocessed.smi:2877-1

> <Gold.Version>
5.8.1

> <Gold.Id.Protein>
6NUR|6NUR_protein|mol2

> <Gold.PLP.Fitness>
50.6343

> <Gold.PLP.PLP>
-45.8908

> <Gold.PLP.part.hbond>
-3.0000

> <Gold.PLP.part.metal>
0.0000

> <Gold.PLP.part.buried>
-1.9658

> <Gold.PLP.part.nonpolar>
-40.6708

> <Gold.PLP.part.repulsive>
0.0775

> <Gold.PLP.ligand.clash>
0.0000

> <Gold.PLP.ligand.torsion>
1.6790

> <Gold.PLP.Chemscore.Hbond>
2.6880

> <Gold.PLP.Chemscore.CHOScore>
0.0000

> <Gold.PLP.Chemscore.Metal>
0.0000

> <Gold.Chemscore.Hbonds>
donor molecule, donor type, donor heavy atom, donor atom, acceptor molecule, acceptor atom, score
      P1  H  6896  6909       L1     7  1.00
      P1  H  6931  6943       L1    16  0.76
      P1  H  6934  6947       L1    16  0.75

> <Gold.PLP.Chemscore.Internal.Correction>
0.0375

> <Gold.Rescore>
     Score         DG    S(hbond)    S(metal)    S(lipo)     H(rot)  DE(clash)    DE(int)     intcor
     18.06     -20.36       2.24        0.00     105.71       1.95       0.67       1.63       ----

> <Gold.Chemscore.Fitness>
18.0577

> <Gold.Chemscore.DG>
-20.3569

> <Gold.Chemscore.ZeroCoef>
-5.4800

> <Gold.Chemscore.Hbond>
2.2447

> <Gold.Chemscore.Metal>
0.0000

> <Gold.Chemscore.Lipo>
105.7109

> <Gold.Chemscore.Internal_Hbond>
0.0000

> <Gold.Chemscore.DEClash>
0.6684

> <Gold.Chemscore.DEInternal>
1.6308

> <Gold.Chemscore.Rot>
1.9487

> <Gold.Chemscore.Internal.Correction>
   9.000000E+99

> <Gold.Chemscore.Hbonds>
donor molecule, donor type, donor heavy atom, donor atom, acceptor molecule, acceptor atom, score
      P1  H  6896  6909       L1     7  0.97
      P1  H  6931  6943       L1    16  0.13
      P1  H  6934  6947       L1    16  0.46

> <Gold.Chemscore.Hbond.Weighted>
-7.4974

> <Gold.Chemscore.Metal.Weighted>
-0.0000

> <Gold.Chemscore.Lipo.Weighted>
-12.3682

> <Gold.Chemscore.Internal_Hbond.Weighted>
0.0000

> <Gold.Chemscore.DEClash.Weighted>
0.6684

> <Gold.Chemscore.DEInternal.Weighted>
1.6308

> <Gold.Chemscore.Rot.Weighted>
4.9886

> <Gold.Chemscore.Internal.Correction.Weighted>
   9.000000E+99

> <Gold.Protein.RotatedTorsions>
[ 6907 6896 6895 6894 ] final   91.79 input  -60.11 | X-H torsion
[ 7974 7965 7964 7962 ] final -153.32 input  175.53 | X-H torsion
[ 8008 7997 7996 7995 ] final  107.63 input   59.86 | X-H torsion
[ 10167 10162 10161 10158 ] final  -66.20 input  -65.29 | X-H torsion
[ 10718 10713 10712 10709 ] final  -63.38 input   66.30 | X-H torsion
[ 10763 10752 10751 10750 ] final  151.15 input  -60.55 | X-H torsion
[ 11005 11000 10999 10996 ] final  -23.98 input  -57.11 | X-H torsion

> <Gold.Protein.ActiveResidues>
 VAL166  LYS551  ARG553  GLY616  TRP617  ASP618  TYR619  PRO620  LYS621  CYS622 
 ASP623  PHE694  ASN695  SER759  ASP760  ASP761  ALA762  ILE779  LEU786  VAL792 
 PHE793  MET794  SER795  GLU796  ALA797  LYS798  CYS799  TRP800  GLU811  SER814 

> <Gold.Protein.RotatedAtoms>
  152.5451  134.1603  159.8554 H   0  0  0  0  0  0  0  0  0  0  0  0  # atno 6907 bound_to 6896
  151.1622  133.4831  159.2601 H   0  0  0  0  0  0  0  0  0  0  0  0  # atno 6908 bound_to 6896
  151.1361  135.0167  159.8660 H   0  0  0  0  0  0  0  0  0  0  0  0  # atno 6909 bound_to 6896
  144.7747  140.4541  143.5882 H   0  0  0  0  0  0  0  0  0  0  0  0  # atno 7974 bound_to 7965
  156.1839  140.3091  155.9201 H   0  0  0  0  0  0  0  0  0  0  0  0  # atno 8008 bound_to 7997
  155.3323  140.0461  157.3060 H   0  0  0  0  0  0  0  0  0  0  0  0  # atno 8009 bound_to 7997
  154.5374  140.2250  155.8709 H   0  0  0  0  0  0  0  0  0  0  0  0  # atno 8010 bound_to 7997
  140.5674  143.2315  151.6606 H   0  0  0  0  0  0  0  0  0  0  0  0  # atno 10167 bound_to 10162
  156.0795  130.4220  150.1269 H   0  0  0  0  0  0  0  0  0  0  0  0  # atno 10718 bound_to 10713
  154.0990  135.2847  155.3255 H   0  0  0  0  0  0  0  0  0  0  0  0  # atno 10763 bound_to 10752
  154.6568  135.5349  153.7972 H   0  0  0  0  0  0  0  0  0  0  0  0  # atno 10764 bound_to 10752
  153.0385  135.6524  154.1155 H   0  0  0  0  0  0  0  0  0  0  0  0  # atno 10765 bound_to 10752
  140.8803  133.7659  156.0293 H   0  0  0  0  0  0  0  0  0  0  0  0  # atno 11005 bound_to 11000
  145.6222  139.1525  143.3016 LP  0  0  0  0  0  0  0  0  0  0  0  0  # atno 17320 bound_to 7965
  146.1918  140.6331  142.9142 LP  0  0  0  0  0  0  0  0  0  0  0  0  # atno 17321 bound_to 7965
  139.5100  144.3558  152.0609 LP  0  0  0  0  0  0  0  0  0  0  0  0  # atno 17342 bound_to 10162
  140.2691  144.3984  150.6158 LP  0  0  0  0  0  0  0  0  0  0  0  0  # atno 17343 bound_to 10162
  156.9303  130.9712  151.3534 LP  0  0  0  0  0  0  0  0  0  0  0  0  # atno 17370 bound_to 10713
  157.5905  130.8440  149.8652 LP  0  0  0  0  0  0  0  0  0  0  0  0  # atno 17371 bound_to 10713
  140.8470  134.2999  157.5291 LP  0  0  0  0  0  0  0  0  0  0  0  0  # atno 17394 bound_to 11000
  139.8719  134.9447  156.3888 LP  0  0  0  0  0  0  0  0  0  0  0  0  # atno 17395 bound_to 11000

$$$$
