AV-unprocessed.smi:35|AV-procd|sdf|274|dock2
  -GOLD-   2262016 43D 1   1.00000     0.00000
 Structure written by MMmdl.
 28 29  0  0  0  0  0  0  0  0  2 V2000
  152.8443  135.8009  157.0073 O   0  0  0  0  0  0  0  0  0  0  0  0
  152.4515  136.9062  156.6381 C   0  0  0  0  0  0  0  0  0  0  0  0
  153.1899  137.7252  155.8358 N   0  5  0  0  0  0  0  0  0  0  0  0
  152.7539  138.9568  155.4381 C   0  0  0  0  0  0  0  0  0  0  0  0
  153.4022  139.6862  154.6880 O   0  0  0  0  0  0  0  0  0  0  0  0
  151.4923  139.4281  155.9001 N   0  0  0  0  0  0  0  0  0  0  0  0
  151.0086  140.7941  155.4372 C   0  0  1  0  0  0  0  0  0  0  0  0
  150.0596  140.6497  154.4229 O   0  0  0  0  0  0  0  0  0  0  0  0
  148.7545  140.6535  154.9852 C   0  0  2  0  0  0  0  0  0  0  0  0
  147.7322  140.9953  153.8899 C   0  0  0  0  0  0  0  0  0  0  0  0
  147.6837  139.9729  152.9172 O   0  0  0  0  0  0  0  0  0  0  0  0
  148.8625  141.6872  156.1094 C   0  0  1  0  0  0  0  0  0  0  0  0
  147.9711  141.3588  157.1567 O   0  0  0  0  0  0  0  0  0  0  0  0
  150.3130  141.5694  156.5799 C   0  0  2  0  0  0  0  0  0  0  0  0
  150.8737  142.8566  156.7450 O   0  0  0  0  0  0  0  0  0  0  0  0
  150.7044  138.5973  156.6826 C   0  0  0  0  0  0  0  0  0  0  0  0
  151.1370  137.3780  157.0623 C   0  0  0  0  0  0  0  0  0  0  0  0
  149.9032  136.3052  158.1822 Br  0  0  0  0  0  0  0  0  0  0  0  0
  151.9022  141.2793  155.0399 H   0  0  0  0  0  0  0  0  0  0  0  0
  148.5503  139.6638  155.3970 H   0  0  0  0  0  0  0  0  0  0  0  0
  146.7389  141.1450  154.3139 H   0  0  0  0  0  0  0  0  0  0  0  0
  148.0139  141.9250  153.3947 H   0  0  0  0  0  0  0  0  0  0  0  0
  148.4961  139.9796  152.4340 H   0  0  0  0  0  0  0  0  0  0  0  0
  148.6494  142.6877  155.7291 H   0  0  0  0  0  0  0  0  0  0  0  0
  147.0894  141.5255  156.8599 H   0  0  0  0  0  0  0  0  0  0  0  0
  150.3889  141.0142  157.5163 H   0  0  0  0  0  0  0  0  0  0  0  0
  150.2549  143.4951  156.4264 H   0  0  0  0  0  0  0  0  0  0  0  0
  149.7208  138.9068  156.9990 H   0  0  0  0  0  0  0  0  0  0  0  0
  1  2  2  0  0  0  0
  2 17  1  0  0  0  0
  2  3  1  0  0  0  0
  3  4  1  0  0  0  0
  4  5  2  0  0  0  0
  4  6  1  0  0  0  0
  6  7  1  0  0  0  0
  6 16  1  0  0  0  0
  7 14  1  0  0  0  0
  7  8  1  0  0  0  0
  7 19  1  0  0  0  0
  8  9  1  0  0  0  0
  9 10  1  0  0  0  0
  9 12  1  0  0  0  0
  9 20  1  0  0  0  0
 10 11  1  0  0  0  0
 10 21  1  0  0  0  0
 10 22  1  0  0  0  0
 11 23  1  0  0  0  0
 12 13  1  0  0  0  0
 12 14  1  0  0  0  0
 12 24  1  0  0  0  0
 13 25  1  0  0  0  0
 14 15  1  0  0  0  0
 14 26  1  0  0  0  0
 15 27  1  0  0  0  0
 16 17  2  0  0  0  0
 16 28  1  0  0  0  0
 17 18  1  0  0  0  0
M  CHG  1   3  -1
M  END
> <s_m_source_file>
AV-unprocessed.smi

> <i_m_source_file_index>
35

> <i_lp_mmshare_version>
43012

> <i_f3d_flags>
0

> <s_epik_input>
Tz1jMVtuSF1jKD1PKW4oW2NIXWMxQnIpW0NAQEhdMk9bQ0BASF0oW0NIMl1bT0hdKVtDQEBIXShbT0hdKVtDQEhdMltPSF0=

> <s_epik_cmdline>
J2VwaWtfcHl0aG9uJywgJy1waCcsICc3LjAnLCAnLXRuJywgJzgnLCAnLW1hJywgJzIwMCcsICctbWV0YWxfYmluZGluZycsICctaW1hZScsICc8aW5maWxlLm1hZT4nLCAnLW9tYWUnLCAnPG91dGZpbGUubWFlPic=

> <r_epik_Ionization_Penalty>
1.06112

> <r_epik_Ionization_Penalty_Charging>
2.1796e-09

> <r_epik_Ionization_Penalty_Neutral>
1.06112

> <r_epik_State_Penalty>
1.11484

> <r_epik_Charging_Adjusted_Penalty>
1.11484

> <i_epik_Tot_Q>
-1

> <i_epik_Tot_abs_Q>
1

> <r_epik_Metal_State_Penalty>
0.0032876

> <b_epik_Metal_Only>
0

> <s_epik_Chemistry_Notes>
This compound contains an acetal/aminal-like group ( X-CH(R)-Y where X, Y are N, S, or O) that may be acid/base labile, releasing an aldehyde.

> <s_lp_Force_Field>
OPLS_2005

> <r_lp_Energy>
36.7062

> <b_lp_Chiralities_Consistent>
1

> <s_lp_Variant>
AV-unprocessed.smi:35-28

> <Gold.Version>
5.8.1

> <Gold.Id.Protein>
6NUR|6NUR_protein|mol2

> <Gold.PLP.Fitness>
36.4635

> <Gold.PLP.PLP>
-25.1640

> <Gold.PLP.part.hbond>
-7.0000

> <Gold.PLP.part.metal>
0.0000

> <Gold.PLP.part.buried>
-1.8097

> <Gold.PLP.part.nonpolar>
-16.0571

> <Gold.PLP.part.repulsive>
0.1707

> <Gold.PLP.ligand.clash>
0.0000

> <Gold.PLP.ligand.torsion>
0.4614

> <Gold.PLP.Chemscore.Hbond>
4.0644

> <Gold.PLP.Chemscore.CHOScore>
0.0000

> <Gold.PLP.Chemscore.Metal>
0.0000

> <Gold.Chemscore.Hbonds>
donor molecule, donor type, donor heavy atom, donor atom, acceptor molecule, acceptor atom, score
      L1  H    11    23       P1  7957  1.00
      L1  H    15    27       P1  8028  1.00
      P1  H  7989  7998       L1     5  0.02
      P1  H  7997  8010       L1     5  1.00
      P1  H 10752 10764       L1     1  0.75

> <Gold.PLP.Chemscore.Internal.Correction>
0.0292

> <Gold.Rescore>
     Score         DG    S(hbond)    S(metal)    S(lipo)     H(rot)  DE(clash)    DE(int)     intcor
     10.09     -10.63       3.23        0.00      30.99       3.63       0.06       0.47       ----

> <Gold.Chemscore.Fitness>
10.0944

> <Gold.Chemscore.DG>
-10.6266

> <Gold.Chemscore.ZeroCoef>
-5.4800

> <Gold.Chemscore.Hbond>
3.2347

> <Gold.Chemscore.Metal>
0.0000

> <Gold.Chemscore.Lipo>
30.9858

> <Gold.Chemscore.Internal_Hbond>
0.0000

> <Gold.Chemscore.DEClash>
0.0582

> <Gold.Chemscore.DEInternal>
0.4739

> <Gold.Chemscore.Rot>
3.6261

> <Gold.Chemscore.Internal.Correction>
   9.000000E+99

> <Gold.Chemscore.Hbonds>
donor molecule, donor type, donor heavy atom, donor atom, acceptor molecule, acceptor atom, score
      L1  H    11    23       P1  7957  1.00
      L1  H    15    27       P1  8028  0.97
      P1  H  7989  7998       L1     5  0.01
      P1  H  7997  8010       L1     5  0.55
      P1  H 10752 10764       L1     1  0.09

> <Gold.Chemscore.Hbond.Weighted>
-10.8040

> <Gold.Chemscore.Metal.Weighted>
-0.0000

> <Gold.Chemscore.Lipo.Weighted>
-3.6253

> <Gold.Chemscore.Internal_Hbond.Weighted>
0.0000

> <Gold.Chemscore.DEClash.Weighted>
0.0582

> <Gold.Chemscore.DEInternal.Weighted>
0.4739

> <Gold.Chemscore.Rot.Weighted>
9.2828

> <Gold.Chemscore.Internal.Correction.Weighted>
   9.000000E+99

> <Gold.Protein.RotatedTorsions>
[ 6907 6896 6895 6894 ] final -122.01 input  -60.11 | X-H torsion
[ 7974 7965 7964 7962 ] final  -94.39 input  175.53 | X-H torsion
[ 8008 7997 7996 7995 ] final  126.41 input   59.86 | X-H torsion
[ 10167 10162 10161 10158 ] final  177.24 input  -65.29 | X-H torsion
[ 10718 10713 10712 10709 ] final -133.96 input   66.30 | X-H torsion
[ 10763 10752 10751 10750 ] final    3.13 input  -60.55 | X-H torsion
[ 11005 11000 10999 10996 ] final  103.86 input  -57.11 | X-H torsion

> <Gold.Protein.ActiveResidues>
 VAL166  LYS551  ARG553  GLY616  TRP617  ASP618  TYR619  PRO620  LYS621  CYS622 
 ASP623  PHE694  ASN695  SER759  ASP760  ASP761  ALA762  ILE779  LEU786  VAL792 
 PHE793  MET794  SER795  GLU796  ALA797  LYS798  CYS799  TRP800  GLU811  SER814 

> <Gold.Protein.RotatedAtoms>
  150.8536  133.7750  159.3016 H   0  0  0  0  0  0  0  0  0  0  0  0  # atno 6907 bound_to 6896
  151.5414  135.1067  159.9937 H   0  0  0  0  0  0  0  0  0  0  0  0  # atno 6908 bound_to 6896
  152.4572  133.7704  159.6851 H   0  0  0  0  0  0  0  0  0  0  0  0  # atno 6909 bound_to 6896
  145.3740  140.9509  143.2431 H   0  0  0  0  0  0  0  0  0  0  0  0  # atno 7974 bound_to 7965
  156.2863  140.2693  156.2106 H   0  0  0  0  0  0  0  0  0  0  0  0  # atno 8008 bound_to 7997
  155.0268  140.0386  157.2477 H   0  0  0  0  0  0  0  0  0  0  0  0  # atno 8009 bound_to 7997
  154.7388  140.2721  155.6396 H   0  0  0  0  0  0  0  0  0  0  0  0  # atno 8010 bound_to 7997
  139.5245  144.2821  152.0537 H   0  0  0  0  0  0  0  0  0  0  0  0  # atno 10167 bound_to 10162
  156.2504  130.7150  151.1046 H   0  0  0  0  0  0  0  0  0  0  0  0  # atno 10718 bound_to 10713
  153.2871  135.6945  153.7329 H   0  0  0  0  0  0  0  0  0  0  0  0  # atno 10763 bound_to 10752
  153.6294  135.3413  155.3037 H   0  0  0  0  0  0  0  0  0  0  0  0  # atno 10764 bound_to 10752
  154.8513  135.4405  154.1942 H   0  0  0  0  0  0  0  0  0  0  0  0  # atno 10765 bound_to 10752
  139.8787  134.9279  156.5274 H   0  0  0  0  0  0  0  0  0  0  0  0  # atno 11005 bound_to 11000
  144.8556  139.5255  143.6836 LP  0  0  0  0  0  0  0  0  0  0  0  0  # atno 17320 bound_to 7965
  146.2872  139.7038  142.9186 LP  0  0  0  0  0  0  0  0  0  0  0  0  # atno 17321 bound_to 7965
  140.2276  144.4402  150.6314 LP  0  0  0  0  0  0  0  0  0  0  0  0  # atno 17342 bound_to 10162
  140.6377  143.2198  151.6359 LP  0  0  0  0  0  0  0  0  0  0  0  0  # atno 17343 bound_to 10162
  157.7212  131.0680  150.6127 LP  0  0  0  0  0  0  0  0  0  0  0  0  # atno 17370 bound_to 10713
  156.6207  130.4405  149.5823 LP  0  0  0  0  0  0  0  0  0  0  0  0  # atno 17371 bound_to 10713
  140.8406  133.8208  155.9071 LP  0  0  0  0  0  0  0  0  0  0  0  0  # atno 17394 bound_to 11000
  140.9241  134.2104  157.4907 LP  0  0  0  0  0  0  0  0  0  0  0  0  # atno 17395 bound_to 11000

$$$$
