AV-unprocessed.smi:3056|AV-procd|sdf|11656|dock10
  -GOLD-   2272017 53D 1   1.00000     0.00000
 Structure written by MMmdl.
 47 48  0  0  0  0  0  0  0  0  1 V2000
  151.9143  144.5620  159.0439 C   0  0  0  0  0  0  0  0  0  0  0  0
  151.7265  143.1825  158.4813 C   0  0  0  0  0  0  0  0  0  0  0  0
  152.0187  141.9358  159.1025 C   0  0  0  0  0  0  0  0  0  0  0  0
  151.7458  140.8989  158.3277 N   0  0  0  0  0  0  0  0  0  0  0  0
  151.2531  141.4395  157.1922 N   0  0  0  0  0  0  0  0  0  0  0  0
  150.8807  140.5657  156.0828 C   0  0  1  0  0  0  0  0  0  0  0  0
  152.0425  139.6275  155.6925 C   0  0  0  0  0  0  0  0  0  0  0  0
  149.5382  139.8358  156.3589 C   0  0  1  0  0  0  0  0  0  0  0  0
  148.9470  139.1939  155.0876 C   0  0  0  0  0  0  0  0  0  0  0  0
  149.7378  138.8508  157.4191 N   0  0  0  0  0  0  0  0  0  0  0  0
  148.6192  137.9166  157.5978 C   0  0  0  0  0  0  0  0  0  0  0  0
  148.8846  136.9597  158.7663 C   0  0  0  0  0  0  0  0  0  0  0  0
  150.0496  136.8185  159.1382 O   0  0  0  0  0  0  0  0  0  0  0  0
  147.8530  136.2927  159.3403 N   0  0  0  0  0  0  0  0  0  0  0  0
  146.4509  136.5439  159.0013 C   0  0  0  0  0  0  0  0  0  0  0  0
  145.7824  137.2083  160.2194 C   0  0  0  0  0  0  0  0  0  0  0  0
  145.9235  136.3728  161.3685 O   0  0  0  0  0  0  0  0  0  0  0  0
  147.2815  136.0731  161.6923 C   0  0  1  0  0  0  0  0  0  0  0  0
  147.3021  135.1948  162.9473 C   0  0  0  0  0  0  0  0  0  0  0  0
  147.9378  135.3783  160.4825 C   0  0  0  0  0  0  0  0  0  0  0  0
  151.2443  142.8199  157.2563 C   0  0  0  0  0  0  0  0  0  0  0  0
  152.6357  144.5712  159.8611 H   0  0  0  0  0  0  0  0  0  0  0  0
  150.9806  144.9668  159.4345 H   0  0  0  0  0  0  0  0  0  0  0  0
  152.2770  145.2594  158.2887 H   0  0  0  0  0  0  0  0  0  0  0  0
  152.4260  141.7553  160.0865 H   0  0  0  0  0  0  0  0  0  0  0  0
  150.7180  141.2164  155.2214 H   0  0  0  0  0  0  0  0  0  0  0  0
  151.8313  139.0958  154.7649 H   0  0  0  0  0  0  0  0  0  0  0  0
  152.2414  138.8804  156.4612 H   0  0  0  0  0  0  0  0  0  0  0  0
  152.9619  140.1918  155.5345 H   0  0  0  0  0  0  0  0  0  0  0  0
  148.8296  140.5824  156.7212 H   0  0  0  0  0  0  0  0  0  0  0  0
  148.9431  139.9034  154.2597 H   0  0  0  0  0  0  0  0  0  0  0  0
  147.9139  138.8799  155.2353 H   0  0  0  0  0  0  0  0  0  0  0  0
  149.5175  138.3195  154.7729 H   0  0  0  0  0  0  0  0  0  0  0  0
  149.9161  139.3544  158.2766 H   0  0  0  0  0  0  0  0  0  0  0  0
  147.7063  138.4794  157.7994 H   0  0  0  0  0  0  0  0  0  0  0  0
  148.4389  137.3366  156.6934 H   0  0  0  0  0  0  0  0  0  0  0  0
  146.3324  137.1771  158.1212 H   0  0  0  0  0  0  0  0  0  0  0  0
  145.9556  135.6010  158.7651 H   0  0  0  0  0  0  0  0  0  0  0  0
  146.2239  138.1865  160.4171 H   0  0  0  0  0  0  0  0  0  0  0  0
  144.7216  137.3696  160.0274 H   0  0  0  0  0  0  0  0  0  0  0  0
  147.8062  137.0043  161.9134 H   0  0  0  0  0  0  0  0  0  0  0  0
  148.3249  134.9560  163.2401 H   0  0  0  0  0  0  0  0  0  0  0  0
  146.7720  134.2565  162.7818 H   0  0  0  0  0  0  0  0  0  0  0  0
  146.8269  135.7033  163.7865 H   0  0  0  0  0  0  0  0  0  0  0  0
  147.4079  134.4546  160.2453 H   0  0  0  0  0  0  0  0  0  0  0  0
  148.9547  135.0753  160.7255 H   0  0  0  0  0  0  0  0  0  0  0  0
  150.9041  143.4282  156.4311 H   0  0  0  0  0  0  0  0  0  0  0  0
  1  2  1  0  0  0  0
  1 22  1  0  0  0  0
  1 23  1  0  0  0  0
  1 24  1  0  0  0  0
  2 21  2  0  0  0  0
  2  3  1  0  0  0  0
  3  4  2  0  0  0  0
  3 25  1  0  0  0  0
  4  5  1  0  0  0  0
  5  6  1  0  0  0  0
  5 21  1  0  0  0  0
  6  7  1  0  0  0  0
  6  8  1  0  0  0  0
  6 26  1  0  0  0  0
  7 27  1  0  0  0  0
  7 28  1  0  0  0  0
  7 29  1  0  0  0  0
  8  9  1  0  0  0  0
  8 10  1  0  0  0  0
  8 30  1  0  0  0  0
  9 31  1  0  0  0  0
  9 32  1  0  0  0  0
  9 33  1  0  0  0  0
 10 11  1  0  0  0  0
 10 34  1  0  0  0  0
 11 12  1  0  0  0  0
 11 35  1  0  0  0  0
 11 36  1  0  0  0  0
 12 13  2  0  0  0  0
 12 14  1  0  0  0  0
 14 20  1  0  0  0  0
 14 15  1  0  0  0  0
 15 16  1  0  0  0  0
 15 37  1  0  0  0  0
 15 38  1  0  0  0  0
 16 17  1  0  0  0  0
 16 39  1  0  0  0  0
 16 40  1  0  0  0  0
 17 18  1  0  0  0  0
 18 19  1  0  0  0  0
 18 20  1  0  0  0  0
 18 41  1  0  0  0  0
 19 42  1  0  0  0  0
 19 43  1  0  0  0  0
 19 44  1  0  0  0  0
 20 45  1  0  0  0  0
 20 46  1  0  0  0  0
 21 47  1  0  0  0  0
M  END
> <s_m_source_file>
AV-unprocessed.smi

> <i_m_source_file_index>
3056

> <i_lp_mmshare_version>
43012

> <i_f3d_flags>
0

> <s_epik_input>
W0NIM11jMVtjSF1ubihbY0hdMSlbQ0BIXShbQ0gzXSlbQ0BIXShbQ0gzXSlbTkhdW0NIMl1DKD1PKU4yW0NIMl1bQ0gyXU9bQ0BASF0oW0NIM10pW0NIMl0y

> <s_epik_cmdline>
J2VwaWtfcHl0aG9uJywgJy1waCcsICc3LjAnLCAnLXRuJywgJzgnLCAnLW1hJywgJzIwMCcsICctbWV0YWxfYmluZGluZycsICctaW1hZScsICc8aW5maWxlLm1hZT4nLCAnLW9tYWUnLCAnPG91dGZpbGUubWFlPic=

> <r_lp_tautomer_probability>
1

> <r_epik_Ionization_Penalty>
0.667689

> <r_epik_Ionization_Penalty_Charging>
0

> <r_epik_Ionization_Penalty_Neutral>
0.667689

> <r_epik_State_Penalty>
0.684601

> <r_epik_Charging_Adjusted_Penalty>
0.684601

> <i_epik_Tot_Q>
0

> <i_epik_Tot_abs_Q>
0

> <r_epik_Metal_State_Penalty>
0.681448

> <b_epik_Metal_Only>
0

> <s_lp_Force_Field>
OPLS_2005

> <r_lp_Energy>
30.7947

> <b_lp_Chiralities_Consistent>
1

> <s_lp_Variant>
AV-unprocessed.smi:3056-12

> <Gold.Version>
5.8.1

> <Gold.Id.Protein>
6NUR|6NUR_protein|mol2

> <Gold.PLP.Fitness>
41.2006

> <Gold.PLP.PLP>
-36.8498

> <Gold.PLP.part.hbond>
-0.7676

> <Gold.PLP.part.metal>
0.0000

> <Gold.PLP.part.buried>
-5.5854

> <Gold.PLP.part.nonpolar>
-31.2668

> <Gold.PLP.part.repulsive>
0.0000

> <Gold.PLP.ligand.clash>
0.0000

> <Gold.PLP.ligand.torsion>
0.6578

> <Gold.PLP.Chemscore.Hbond>
0.8288

> <Gold.PLP.Chemscore.CHOScore>
0.9972

> <Gold.PLP.Chemscore.Metal>
0.0000

> <Gold.Chemscore.Hbonds>
donor molecule, donor type, donor heavy atom, donor atom, acceptor molecule, acceptor atom, score
      P1  H  6896  6909       L1    13  0.71
      L1  C    21    47       P1  8028  1.00

> <Gold.PLP.Chemscore.Internal.Correction>
0.1884

> <Gold.Rescore>
     Score         DG    S(hbond)    S(metal)    S(lipo)     H(rot)  DE(clash)    DE(int)     intcor
     14.76     -15.40       0.96        0.00      94.19       1.68       0.02       0.62       ----

> <Gold.Chemscore.Fitness>
14.7556

> <Gold.Chemscore.DG>
-15.3968

> <Gold.Chemscore.ZeroCoef>
-5.4800

> <Gold.Chemscore.Hbond>
0.9566

> <Gold.Chemscore.Metal>
0.0000

> <Gold.Chemscore.Lipo>
94.1945

> <Gold.Chemscore.Internal_Hbond>
0.0000

> <Gold.Chemscore.DEClash>
0.0174

> <Gold.Chemscore.DEInternal>
0.6238

> <Gold.Chemscore.Rot>
1.6793

> <Gold.Chemscore.Internal.Correction>
   9.000000E+99

> <Gold.Chemscore.Hbonds>
donor molecule, donor type, donor heavy atom, donor atom, acceptor molecule, acceptor atom, score
      P1  H  6896  6909       L1    13  0.71

> <Gold.Chemscore.Hbond.Weighted>
-3.1951

> <Gold.Chemscore.Metal.Weighted>
-0.0000

> <Gold.Chemscore.Lipo.Weighted>
-11.0208

> <Gold.Chemscore.Internal_Hbond.Weighted>
0.0000

> <Gold.Chemscore.DEClash.Weighted>
0.0174

> <Gold.Chemscore.DEInternal.Weighted>
0.6238

> <Gold.Chemscore.Rot.Weighted>
4.2990

> <Gold.Chemscore.Internal.Correction.Weighted>
   9.000000E+99

> <Gold.Protein.RotatedTorsions>
[ 6907 6896 6895 6894 ] final   81.83 input  -60.11 | X-H torsion
[ 7974 7965 7964 7962 ] final   33.93 input  175.53 | X-H torsion
[ 8008 7997 7996 7995 ] final  -44.27 input   59.86 | X-H torsion
[ 10167 10162 10161 10158 ] final    4.44 input  -65.29 | X-H torsion
[ 10718 10713 10712 10709 ] final  170.89 input   66.30 | X-H torsion
[ 10763 10752 10751 10750 ] final -135.96 input  -60.55 | X-H torsion
[ 11005 11000 10999 10996 ] final  130.25 input  -57.11 | X-H torsion

> <Gold.Protein.ActiveResidues>
 VAL166  LYS551  ARG553  GLY616  TRP617  ASP618  TYR619  PRO620  LYS621  CYS622 
 ASP623  PHE694  ASN695  SER759  ASP760  ASP761  ALA762  ILE779  LEU786  VAL792 
 PHE793  MET794  SER795  GLU796  ALA797  LYS798  CYS799  TRP800  GLU811  SER814 

> <Gold.Protein.RotatedAtoms>
  152.5280  134.3144  159.9124 H   0  0  0  0  0  0  0  0  0  0  0  0  # atno 6907 bound_to 6896
  151.3093  133.4081  159.2653 H   0  0  0  0  0  0  0  0  0  0  0  0  # atno 6908 bound_to 6896
  151.0052  134.9370  159.8033 H   0  0  0  0  0  0  0  0  0  0  0  0  # atno 6909 bound_to 6896
  146.1387  139.6334  142.9177 H   0  0  0  0  0  0  0  0  0  0  0  0  # atno 7974 bound_to 7965
  154.3997  140.1426  156.3656 H   0  0  0  0  0  0  0  0  0  0  0  0  # atno 8008 bound_to 7997
  155.8140  140.3472  155.5454 H   0  0  0  0  0  0  0  0  0  0  0  0  # atno 8009 bound_to 7997
  155.8357  140.0919  157.1756 H   0  0  0  0  0  0  0  0  0  0  0  0  # atno 8010 bound_to 7997
  140.6534  143.7487  150.7613 H   0  0  0  0  0  0  0  0  0  0  0  0  # atno 10167 bound_to 10162
  157.0016  131.0177  151.2829 H   0  0  0  0  0  0  0  0  0  0  0  0  # atno 10718 bound_to 10713
  154.8693  135.3687  154.4984 H   0  0  0  0  0  0  0  0  0  0  0  0  # atno 10763 bound_to 10752
  153.5626  135.7022  153.5545 H   0  0  0  0  0  0  0  0  0  0  0  0  # atno 10764 bound_to 10752
  153.3614  135.4045  155.1684 H   0  0  0  0  0  0  0  0  0  0  0  0  # atno 10765 bound_to 10752
  139.9661  134.9590  156.9267 H   0  0  0  0  0  0  0  0  0  0  0  0  # atno 11005 bound_to 11000
  145.5096  141.0436  143.2495 LP  0  0  0  0  0  0  0  0  0  0  0  0  # atno 17320 bound_to 7965
  144.7768  139.6611  143.7171 LP  0  0  0  0  0  0  0  0  0  0  0  0  # atno 17321 bound_to 7965
  140.1142  143.4671  152.2352 LP  0  0  0  0  0  0  0  0  0  0  0  0  # atno 17342 bound_to 10162
  139.5753  144.7484  151.3782 LP  0  0  0  0  0  0  0  0  0  0  0  0  # atno 17343 bound_to 10162
  157.5386  130.8105  149.8002 LP  0  0  0  0  0  0  0  0  0  0  0  0  # atno 17370 bound_to 10713
  156.0169  130.3810  150.2082 LP  0  0  0  0  0  0  0  0  0  0  0  0  # atno 17371 bound_to 10713
  140.5393  134.0736  155.7337 LP  0  0  0  0  0  0  0  0  0  0  0  0  # atno 17394 bound_to 11000
  141.1341  133.9252  157.2472 LP  0  0  0  0  0  0  0  0  0  0  0  0  # atno 17395 bound_to 11000

$$$$
