AV-unprocessed.smi:528|AV-procd|sdf|2835|dock2
  -GOLD-   2262023323D 1   1.00000     0.00000
 Structure written by MMmdl.
 45 47  0  0  0  0  0  0  0  0  1 V2000
  149.9901  138.8192  155.7128 C   0  0  0  0  0  0  0  0  0  0  0  0
  150.1500  138.5919  157.2258 C   0  0  2  0  0  0  0  0  0  0  0  0
  148.9177  137.9947  157.7383 N   0  0  0  0  0  0  0  0  0  0  0  0
  148.8355  136.9194  158.5370 C   0  0  0  0  0  0  0  0  0  0  0  0
  149.8199  136.3098  158.9576 O   0  0  0  0  0  0  0  0  0  0  0  0
  147.4142  136.4845  158.9232 C   0  0  0  0  0  0  0  0  0  0  0  0
  147.3736  135.5477  160.0589 N   0  0  0  0  0  0  0  0  0  0  0  0
  147.2699  134.1758  159.7557 C   0  0  0  0  0  0  0  0  0  0  0  0
  147.2361  133.2166  160.7005 C   0  0  0  0  0  0  0  0  0  0  0  0
  147.0635  131.7482  160.3443 C   0  0  0  0  0  0  0  0  0  0  0  0
  146.9873  130.9943  161.4412 F   0  0  0  0  0  0  0  0  0  0  0  0
  145.9581  131.5531  159.6244 F   0  0  0  0  0  0  0  0  0  0  0  0
  148.1052  131.3313  159.6259 F   0  0  0  0  0  0  0  0  0  0  0  0
  147.2787  133.6664  162.0781 C   0  0  0  0  0  0  0  0  0  0  0  0
  147.3648  134.9754  162.3858 C   0  0  0  0  0  0  0  0  0  0  0  0
  147.4212  136.0055  161.3460 C   0  0  0  0  0  0  0  0  0  0  0  0
  147.5049  137.2041  161.6147 O   0  0  0  0  0  0  0  0  0  0  0  0
  150.4603  139.9020  157.9908 C   0  0  2  0  0  0  0  0  0  0  0  0
  149.2676  140.8884  158.0435 C   0  0  0  0  0  0  0  0  0  0  0  0
  149.8619  142.1957  157.4908 C   0  0  1  0  0  0  0  0  0  0  0  0
  150.8675  142.7739  158.5028 C   0  0  0  0  0  0  0  0  0  0  0  0
  152.0599  141.8071  158.3819 C   0  0  0  0  0  0  0  0  0  0  0  0
  151.5631  140.7812  157.3450 C   0  0  2  0  0  0  0  0  0  0  0  0
  150.7768  141.6743  156.3912 C   0  0  0  0  0  0  0  0  0  0  0  0
  150.9027  139.2114  155.2649 H   0  0  0  0  0  0  0  0  0  0  0  0
  149.1867  139.5255  155.5003 H   0  0  0  0  0  0  0  0  0  0  0  0
  149.7558  137.8862  155.1991 H   0  0  0  0  0  0  0  0  0  0  0  0
  150.9824  137.9027  157.3758 H   0  0  0  0  0  0  0  0  0  0  0  0
  148.0535  138.4309  157.4510 H   0  0  0  0  0  0  0  0  0  0  0  0
  146.8332  137.3806  159.1446 H   0  0  0  0  0  0  0  0  0  0  0  0
  146.9270  136.0372  158.0546 H   0  0  0  0  0  0  0  0  0  0  0  0
  147.2101  133.9523  158.7003 H   0  0  0  0  0  0  0  0  0  0  0  0
  147.2440  132.9415  162.8780 H   0  0  0  0  0  0  0  0  0  0  0  0
  147.3949  135.2742  163.4235 H   0  0  0  0  0  0  0  0  0  0  0  0
  150.7611  139.6355  159.0056 H   0  0  0  0  0  0  0  0  0  0  0  0
  148.4468  140.5611  157.4041 H   0  0  0  0  0  0  0  0  0  0  0  0
  148.8719  141.0064  159.0529 H   0  0  0  0  0  0  0  0  0  0  0  0
  149.1093  142.9132  157.1629 H   0  0  0  0  0  0  0  0  0  0  0  0
  151.1640  143.7861  158.2245 H   0  0  0  0  0  0  0  0  0  0  0  0
  150.4599  142.8094  159.5137 H   0  0  0  0  0  0  0  0  0  0  0  0
  152.9411  142.3333  158.0125 H   0  0  0  0  0  0  0  0  0  0  0  0
  152.3237  141.3462  159.3345 H   0  0  0  0  0  0  0  0  0  0  0  0
  152.3766  140.2245  156.8800 H   0  0  0  0  0  0  0  0  0  0  0  0
  150.2487  141.1241  155.6109 H   0  0  0  0  0  0  0  0  0  0  0  0
  151.3845  142.4540  155.9286 H   0  0  0  0  0  0  0  0  0  0  0  0
  1  2  1  0  0  0  0
  1 25  1  0  0  0  0
  1 26  1  0  0  0  0
  1 27  1  0  0  0  0
  2  3  1  0  0  0  0
  2 18  1  0  0  0  0
  2 28  1  0  0  0  0
  3  4  1  0  0  0  0
  3 29  1  0  0  0  0
  4  5  2  0  0  0  0
  4  6  1  0  0  0  0
  6  7  1  0  0  0  0
  6 30  1  0  0  0  0
  6 31  1  0  0  0  0
  7 16  1  0  0  0  0
  7  8  1  0  0  0  0
  8  9  2  0  0  0  0
  8 32  1  0  0  0  0
  9 10  1  0  0  0  0
  9 14  1  0  0  0  0
 10 11  1  0  0  0  0
 10 12  1  0  0  0  0
 10 13  1  0  0  0  0
 14 15  2  0  0  0  0
 14 33  1  0  0  0  0
 15 16  1  0  0  0  0
 15 34  1  0  0  0  0
 16 17  2  0  0  0  0
 18 23  1  0  0  0  0
 18 19  1  0  0  0  0
 18 35  1  0  0  0  0
 19 20  1  0  0  0  0
 19 36  1  0  0  0  0
 19 37  1  0  0  0  0
 20 24  1  0  0  0  0
 20 21  1  0  0  0  0
 20 38  1  0  0  0  0
 21 22  1  0  0  0  0
 21 39  1  0  0  0  0
 21 40  1  0  0  0  0
 22 23  1  0  0  0  0
 22 41  1  0  0  0  0
 22 42  1  0  0  0  0
 23 24  1  0  0  0  0
 23 43  1  0  0  0  0
 24 44  1  0  0  0  0
 24 45  1  0  0  0  0
M  END
> <s_m_source_file>
AV-unprocessed.smi

> <i_m_source_file_index>
528

> <i_lp_mmshare_version>
43012

> <i_f3d_flags>
0

> <s_epik_input>
W0NIMl0xW0NIMl1bQ0BASF0oW0NIMl0yKVtDQEBIXShbQ0gyXVtDQEhdMTIpW0NASF0oW0NIM10pW05IXUMoPU8pW0NIMl1uM1tjSF1jKEMoRikoRilGKVtjSF1bY0hdYzM9Tw==

> <s_epik_cmdline>
J2VwaWtfcHl0aG9uJywgJy1waCcsICc3LjAnLCAnLXRuJywgJzgnLCAnLW1hJywgJzIwMCcsICctbWV0YWxfYmluZGluZycsICctaW1hZScsICc8aW5maWxlLm1hZT4nLCAnLW9tYWUnLCAnPG91dGZpbGUubWFlPic=

> <r_lp_tautomer_probability>
1

> <r_epik_Ionization_Penalty>
4.09479e-08

> <r_epik_Ionization_Penalty_Charging>
1.9321e-08

> <r_epik_Ionization_Penalty_Neutral>
2.16269e-08

> <r_epik_State_Penalty>
-0

> <r_epik_Charging_Adjusted_Penalty>
1.9321e-08

> <i_epik_Tot_Q>
0

> <i_epik_Tot_abs_Q>
0

> <r_epik_Metal_State_Penalty>
-0

> <b_epik_Metal_Only>
0

> <s_lp_Force_Field>
OPLS_2005

> <r_lp_Energy>
63.0094

> <b_lp_Chiralities_Consistent>
1

> <s_lp_Variant>
AV-unprocessed.smi:528-5

> <Gold.Version>
5.8.1

> <Gold.Id.Protein>
6NUR|6NUR_protein|mol2

> <Gold.PLP.Fitness>
44.8480

> <Gold.PLP.PLP>
-37.9574

> <Gold.PLP.part.hbond>
-3.0000

> <Gold.PLP.part.metal>
0.0000

> <Gold.PLP.part.buried>
-5.3315

> <Gold.PLP.part.nonpolar>
-29.9838

> <Gold.PLP.part.repulsive>
0.0777

> <Gold.PLP.ligand.clash>
0.0000

> <Gold.PLP.ligand.torsion>
0.8137

> <Gold.PLP.Chemscore.Hbond>
2.8080

> <Gold.PLP.Chemscore.CHOScore>
0.0000

> <Gold.PLP.Chemscore.Metal>
0.0000

> <Gold.Chemscore.Hbonds>
donor molecule, donor type, donor heavy atom, donor atom, acceptor molecule, acceptor atom, score
      P1  H  6896  6908       L1     5  1.00
      P1  H  6931  6943       L1    17  0.94
      P1  H  6934  6947       L1    17  0.82

> <Gold.PLP.Chemscore.Internal.Correction>
0.0939

> <Gold.Rescore>
     Score         DG    S(hbond)    S(metal)    S(lipo)     H(rot)  DE(clash)    DE(int)     intcor
     18.72     -20.44       2.76        0.00      86.62       1.71       0.04       1.69       ----

> <Gold.Chemscore.Fitness>
18.7179

> <Gold.Chemscore.DG>
-20.4440

> <Gold.Chemscore.ZeroCoef>
-5.4800

> <Gold.Chemscore.Hbond>
2.7586

> <Gold.Chemscore.Metal>
0.0000

> <Gold.Chemscore.Lipo>
86.6177

> <Gold.Chemscore.Internal_Hbond>
0.0000

> <Gold.Chemscore.DEClash>
0.0402

> <Gold.Chemscore.DEInternal>
1.6859

> <Gold.Chemscore.Rot>
1.7125

> <Gold.Chemscore.Internal.Correction>
   9.000000E+99

> <Gold.Chemscore.Hbonds>
donor molecule, donor type, donor heavy atom, donor atom, acceptor molecule, acceptor atom, score
      P1  H  6896  6908       L1     5  1.00
      P1  H  6931  6943       L1    17  0.91
      P1  H  6934  6947       L1    17  0.80

> <Gold.Chemscore.Hbond.Weighted>
-9.2137

> <Gold.Chemscore.Metal.Weighted>
-0.0000

> <Gold.Chemscore.Lipo.Weighted>
-10.1343

> <Gold.Chemscore.Internal_Hbond.Weighted>
0.0000

> <Gold.Chemscore.DEClash.Weighted>
0.0402

> <Gold.Chemscore.DEInternal.Weighted>
1.6859

> <Gold.Chemscore.Rot.Weighted>
4.3840

> <Gold.Chemscore.Internal.Correction.Weighted>
   9.000000E+99

> <Gold.Protein.RotatedTorsions>
[ 6907 6896 6895 6894 ] final -173.58 input  -60.11 | X-H torsion
[ 7974 7965 7964 7962 ] final  133.04 input  175.53 | X-H torsion
[ 8008 7997 7996 7995 ] final  -18.00 input   59.86 | X-H torsion
[ 10167 10162 10161 10158 ] final  155.00 input  -65.29 | X-H torsion
[ 10718 10713 10712 10709 ] final -141.56 input   66.30 | X-H torsion
[ 10763 10752 10751 10750 ] final -159.23 input  -60.55 | X-H torsion
[ 11005 11000 10999 10996 ] final   14.11 input  -57.11 | X-H torsion

> <Gold.Protein.ActiveResidues>
 VAL166  LYS551  ARG553  GLY616  TRP617  ASP618  TYR619  PRO620  LYS621  CYS622 
 ASP623  PHE694  ASN695  SER759  ASP760  ASP761  ALA762  ILE779  LEU786  VAL792 
 PHE793  MET794  SER795  GLU796  ALA797  LYS798  CYS799  TRP800  GLU811  SER814 

> <Gold.Protein.RotatedAtoms>
  151.5585  133.3407  159.2966 H   0  0  0  0  0  0  0  0  0  0  0  0  # atno 6907 bound_to 6896
  150.8437  134.7740  159.6964 H   0  0  0  0  0  0  0  0  0  0  0  0  # atno 6908 bound_to 6896
  152.4499  134.5423  159.9894 H   0  0  0  0  0  0  0  0  0  0  0  0  # atno 6909 bound_to 6896
  144.9906  139.4410  143.5341 H   0  0  0  0  0  0  0  0  0  0  0  0  # atno 7974 bound_to 7965
  154.4937  140.2127  155.9493 H   0  0  0  0  0  0  0  0  0  0  0  0  # atno 8008 bound_to 7997
  156.1341  140.3191  155.8362 H   0  0  0  0  0  0  0  0  0  0  0  0  # atno 8009 bound_to 7997
  155.4242  140.0499  157.3014 H   0  0  0  0  0  0  0  0  0  0  0  0  # atno 8010 bound_to 7997
  139.4822  144.5137  151.7985 H   0  0  0  0  0  0  0  0  0  0  0  0  # atno 10167 bound_to 10162
  156.3355  130.7609  151.1735 H   0  0  0  0  0  0  0  0  0  0  0  0  # atno 10718 bound_to 10713
  154.7491  135.3088  154.8590 H   0  0  0  0  0  0  0  0  0  0  0  0  # atno 10763 bound_to 10752
  153.9382  135.6777  153.4749 H   0  0  0  0  0  0  0  0  0  0  0  0  # atno 10764 bound_to 10752
  153.1087  135.4876  154.8925 H   0  0  0  0  0  0  0  0  0  0  0  0  # atno 10765 bound_to 10752
  140.4732  134.1010  155.7736 H   0  0  0  0  0  0  0  0  0  0  0  0  # atno 11005 bound_to 11000
  146.3430  139.9235  142.8763 LP  0  0  0  0  0  0  0  0  0  0  0  0  # atno 17320 bound_to 7965
  145.2291  140.9966  143.4001 LP  0  0  0  0  0  0  0  0  0  0  0  0  # atno 17321 bound_to 7965
  140.4643  144.1678  150.5910 LP  0  0  0  0  0  0  0  0  0  0  0  0  # atno 17342 bound_to 10162
  140.4451  143.2510  151.9422 LP  0  0  0  0  0  0  0  0  0  0  0  0  # atno 17343 bound_to 10162
  157.7438  131.0469  150.4918 LP  0  0  0  0  0  0  0  0  0  0  0  0  # atno 17370 bound_to 10713
  156.5090  130.4135  149.6311 LP  0  0  0  0  0  0  0  0  0  0  0  0  # atno 17371 bound_to 10713
  141.1567  133.8869  157.1958 LP  0  0  0  0  0  0  0  0  0  0  0  0  # atno 17394 bound_to 11000
  139.9872  135.0077  156.9891 LP  0  0  0  0  0  0  0  0  0  0  0  0  # atno 17395 bound_to 11000

$$$$
