AV-unprocessed.smi:3336|AV-procd|sdf|12860|dock9
  -GOLD-   2272019253D 1   1.00000     0.00000
 Structure written by MMmdl.
 41 42  0  0  0  0  0  0  0  0  1 V2000
  146.2783  137.2825  155.2361 C   0  0  0  0  0  0  0  0  0  0  0  0
  146.6260  136.0533  154.3811 C   0  0  1  0  0  0  0  0  0  0  0  0
  145.8375  136.0144  153.0466 C   0  0  0  0  0  0  0  0  0  0  0  0
  145.9706  134.7653  152.3133 N   0  0  0  0  0  0  0  0  0  0  0  0
  145.3197  134.3725  151.1623 C   0  0  0  0  0  0  0  0  0  0  0  0
  145.7626  133.1189  150.8512 C   0  0  0  0  0  0  0  0  0  0  0  0
  146.6917  132.8222  151.8872 C   0  0  0  0  0  0  0  0  0  0  0  0
  146.8097  133.8065  152.7631 N   0  0  0  0  0  0  0  0  0  0  0  0
  148.0799  136.0594  154.1910 N   0  0  0  0  0  0  0  0  0  0  0  0
  148.9152  135.9843  155.4085 C   0  0  1  0  0  0  0  0  0  0  0  0
  148.8640  134.5534  155.9671 C   0  0  0  0  0  0  0  0  0  0  0  0
  150.3851  136.4136  155.1890 C   0  0  0  0  0  0  0  0  0  0  0  0
  151.2733  135.6425  155.5579 O   0  0  0  0  0  0  0  0  0  0  0  0
  150.6733  137.6085  154.6132 N   0  0  0  0  0  0  0  0  0  0  0  0
  149.7270  138.6799  154.2768 C   0  0  0  0  0  0  0  0  0  0  0  0
  150.0658  139.9177  155.1278 C   0  0  0  0  0  0  0  0  0  0  0  0
  151.4147  140.3127  154.8957 O   0  0  0  0  0  0  0  0  0  0  0  0
  152.3527  139.2841  155.1982 C   0  0  0  0  0  0  0  0  0  0  0  0
  152.0476  138.0442  154.3404 C   0  0  0  0  0  0  0  0  0  0  0  0
  145.2037  137.3461  155.4094 H   0  0  0  0  0  0  0  0  0  0  0  0
  146.5937  138.2118  154.7605 H   0  0  0  0  0  0  0  0  0  0  0  0
  146.7631  137.2316  156.2117 H   0  0  0  0  0  0  0  0  0  0  0  0
  146.3395  135.1783  154.9634 H   0  0  0  0  0  0  0  0  0  0  0  0
  144.7791  136.2258  153.2005 H   0  0  0  0  0  0  0  0  0  0  0  0
  146.1963  136.8154  152.3993 H   0  0  0  0  0  0  0  0  0  0  0  0
  144.6057  135.0126  150.6652 H   0  0  0  0  0  0  0  0  0  0  0  0
  145.4676  132.5069  150.0119 H   0  0  0  0  0  0  0  0  0  0  0  0
  147.2778  131.9261  152.0292 H   0  0  0  0  0  0  0  0  0  0  0  0
  148.3377  136.8555  153.6252 H   0  0  0  0  0  0  0  0  0  0  0  0
  148.4486  136.6383  156.1390 H   0  0  0  0  0  0  0  0  0  0  0  0
  149.4283  134.4631  156.8955 H   0  0  0  0  0  0  0  0  0  0  0  0
  149.2739  133.8324  155.2585 H   0  0  0  0  0  0  0  0  0  0  0  0
  147.8371  134.2572  156.1835 H   0  0  0  0  0  0  0  0  0  0  0  0
  149.8153  138.9168  153.2156 H   0  0  0  0  0  0  0  0  0  0  0  0
  148.6824  138.4303  154.4414 H   0  0  0  0  0  0  0  0  0  0  0  0
  149.4067  140.7459  154.8674 H   0  0  0  0  0  0  0  0  0  0  0  0
  149.9158  139.7114  156.1888 H   0  0  0  0  0  0  0  0  0  0  0  0
  153.3576  139.6509  154.9887 H   0  0  0  0  0  0  0  0  0  0  0  0
  152.3144  139.0416  156.2613 H   0  0  0  0  0  0  0  0  0  0  0  0
  152.7910  137.2708  154.5370 H   0  0  0  0  0  0  0  0  0  0  0  0
  152.1441  138.2883  153.2812 H   0  0  0  0  0  0  0  0  0  0  0  0
  1  2  1  0  0  0  0
  1 20  1  0  0  0  0
  1 21  1  0  0  0  0
  1 22  1  0  0  0  0
  2  3  1  0  0  0  0
  2  9  1  0  0  0  0
  2 23  1  0  0  0  0
  3  4  1  0  0  0  0
  3 24  1  0  0  0  0
  3 25  1  0  0  0  0
  4  8  1  0  0  0  0
  4  5  1  0  0  0  0
  5  6  2  0  0  0  0
  5 26  1  0  0  0  0
  6  7  1  0  0  0  0
  6 27  1  0  0  0  0
  7  8  2  0  0  0  0
  7 28  1  0  0  0  0
  9 10  1  0  0  0  0
  9 29  1  0  0  0  0
 10 11  1  0  0  0  0
 10 12  1  0  0  0  0
 10 30  1  0  0  0  0
 11 31  1  0  0  0  0
 11 32  1  0  0  0  0
 11 33  1  0  0  0  0
 12 13  2  0  0  0  0
 12 14  1  0  0  0  0
 14 19  1  0  0  0  0
 14 15  1  0  0  0  0
 15 16  1  0  0  0  0
 15 34  1  0  0  0  0
 15 35  1  0  0  0  0
 16 17  1  0  0  0  0
 16 36  1  0  0  0  0
 16 37  1  0  0  0  0
 17 18  1  0  0  0  0
 18 19  1  0  0  0  0
 18 38  1  0  0  0  0
 18 39  1  0  0  0  0
 19 40  1  0  0  0  0
 19 41  1  0  0  0  0
M  END
> <s_m_source_file>
AV-unprocessed.smi

> <i_m_source_file_index>
3336

> <i_lp_mmshare_version>
43012

> <i_f3d_flags>
0

> <s_epik_input>
bjFbY0hdW2NIXVtjSF1uMVtDSDJdW0NAQEhdKFtDSDNdKVtOSF1bQ0BIXShbQ0gzXSlDKD1PKU4yW0NIMl1bQ0gyXU9bQ0gyXVtDSDJdMg==

> <s_epik_cmdline>
J2VwaWtfcHl0aG9uJywgJy1waCcsICc3LjAnLCAnLXRuJywgJzgnLCAnLW1hJywgJzIwMCcsICctbWV0YWxfYmluZGluZycsICctaW1hZScsICc8aW5maWxlLm1hZT4nLCAnLW9tYWUnLCAnPG91dGZpbGUubWFlPic=

> <r_lp_tautomer_probability>
1

> <r_epik_Ionization_Penalty>
0.739958

> <r_epik_Ionization_Penalty_Charging>
0

> <r_epik_Ionization_Penalty_Neutral>
0.739958

> <r_epik_State_Penalty>
0.765967

> <r_epik_Charging_Adjusted_Penalty>
0.765967

> <i_epik_Tot_Q>
0

> <i_epik_Tot_abs_Q>
0

> <r_epik_Metal_State_Penalty>
0.765947

> <b_epik_Metal_Only>
0

> <s_lp_Force_Field>
OPLS_2005

> <r_lp_Energy>
28.3858

> <b_lp_Chiralities_Consistent>
1

> <s_lp_Variant>
AV-unprocessed.smi:3336-8

> <Gold.Version>
5.8.1

> <Gold.Id.Protein>
6NUR|6NUR_protein|mol2

> <Gold.PLP.Fitness>
38.9699

> <Gold.PLP.PLP>
-30.2097

> <Gold.PLP.part.hbond>
-2.5193

> <Gold.PLP.part.metal>
0.0000

> <Gold.PLP.part.buried>
-3.6320

> <Gold.PLP.part.nonpolar>
-24.3986

> <Gold.PLP.part.repulsive>
0.2698

> <Gold.PLP.ligand.clash>
0.0000

> <Gold.PLP.ligand.torsion>
0.2902

> <Gold.PLP.Chemscore.Hbond>
2.0960

> <Gold.PLP.Chemscore.CHOScore>
1.0000

> <Gold.PLP.Chemscore.Metal>
0.0000

> <Gold.Chemscore.Hbonds>
donor molecule, donor type, donor heavy atom, donor atom, acceptor molecule, acceptor atom, score
      L1  H     9    29       P1  7948  0.19
      P1  H  7989  7998       L1    17  0.96
      P1  H 10752 10764       L1    13  1.00
      L1  C     7    28       P1 10747  0.62

> <Gold.PLP.Chemscore.Internal.Correction>
0.0525

> <Gold.Rescore>
     Score         DG    S(hbond)    S(metal)    S(lipo)     H(rot)  DE(clash)    DE(int)     intcor
     14.88     -15.35       2.29        0.00      58.20       1.79       0.09       0.39       ----

> <Gold.Chemscore.Fitness>
14.8763

> <Gold.Chemscore.DG>
-15.3537

> <Gold.Chemscore.ZeroCoef>
-5.4800

> <Gold.Chemscore.Hbond>
2.2920

> <Gold.Chemscore.Metal>
0.0000

> <Gold.Chemscore.Lipo>
58.2018

> <Gold.Chemscore.Internal_Hbond>
0.0000

> <Gold.Chemscore.DEClash>
0.0851

> <Gold.Chemscore.DEInternal>
0.3923

> <Gold.Chemscore.Rot>
1.7935

> <Gold.Chemscore.Internal.Correction>
   9.000000E+99

> <Gold.Chemscore.Hbonds>
donor molecule, donor type, donor heavy atom, donor atom, acceptor molecule, acceptor atom, score
      L1  H     9    29       P1  7948  0.20
      P1  H  7989  7998       L1    17  0.61
      P1  H 10752 10764       L1    13  0.99

> <Gold.Chemscore.Hbond.Weighted>
-7.6553

> <Gold.Chemscore.Metal.Weighted>
-0.0000

> <Gold.Chemscore.Lipo.Weighted>
-6.8096

> <Gold.Chemscore.Internal_Hbond.Weighted>
0.0000

> <Gold.Chemscore.DEClash.Weighted>
0.0851

> <Gold.Chemscore.DEInternal.Weighted>
0.3923

> <Gold.Chemscore.Rot.Weighted>
4.5912

> <Gold.Chemscore.Internal.Correction.Weighted>
   9.000000E+99

> <Gold.Protein.RotatedTorsions>
[ 6907 6896 6895 6894 ] final   77.64 input  -60.11 | X-H torsion
[ 7974 7965 7964 7962 ] final   15.94 input  175.53 | X-H torsion
[ 8008 7997 7996 7995 ] final -170.26 input   59.86 | X-H torsion
[ 10167 10162 10161 10158 ] final   74.52 input  -65.29 | X-H torsion
[ 10718 10713 10712 10709 ] final   84.91 input   66.30 | X-H torsion
[ 10763 10752 10751 10750 ] final  -37.02 input  -60.55 | X-H torsion
[ 11005 11000 10999 10996 ] final  122.64 input  -57.11 | X-H torsion

> <Gold.Protein.ActiveResidues>
 VAL166  LYS551  ARG553  GLY616  TRP617  ASP618  TYR619  PRO620  LYS621  CYS622 
 ASP623  PHE694  ASN695  SER759  ASP760  ASP761  ALA762  ILE779  LEU786  VAL792 
 PHE793  MET794  SER795  GLU796  ALA797  LYS798  CYS799  TRP800  GLU811  SER814 

> <Gold.Protein.RotatedAtoms>
  152.5126  134.3785  159.9342 H   0  0  0  0  0  0  0  0  0  0  0  0  # atno 6907 bound_to 6896
  151.3742  133.3838  159.2710 H   0  0  0  0  0  0  0  0  0  0  0  0  # atno 6908 bound_to 6896
  150.9554  134.8969  159.7756 H   0  0  0  0  0  0  0  0  0  0  0  0  # atno 6909 bound_to 6896
  146.2264  139.8820  142.8569 H   0  0  0  0  0  0  0  0  0  0  0  0  # atno 7974 bound_to 7965
  155.9160  140.1066  157.1243 H   0  0  0  0  0  0  0  0  0  0  0  0  # atno 8008 bound_to 7997
  154.4046  140.1265  156.4683 H   0  0  0  0  0  0  0  0  0  0  0  0  # atno 8009 bound_to 7997
  155.7253  140.3469  155.5037 H   0  0  0  0  0  0  0  0  0  0  0  0  # atno 8010 bound_to 7997
  140.0128  144.5601  150.7644 H   0  0  0  0  0  0  0  0  0  0  0  0  # atno 10167 bound_to 10162
  157.6906  131.0153  150.2743 H   0  0  0  0  0  0  0  0  0  0  0  0  # atno 10718 bound_to 10713
  153.8893  135.6814  153.4761 H   0  0  0  0  0  0  0  0  0  0  0  0  # atno 10763 bound_to 10752
  153.1190  135.4748  154.9161 H   0  0  0  0  0  0  0  0  0  0  0  0  # atno 10764 bound_to 10752
  154.7630  135.3216  154.8294 H   0  0  0  0  0  0  0  0  0  0  0  0  # atno 10765 bound_to 10752
  139.9277  134.9641  156.8140 H   0  0  0  0  0  0  0  0  0  0  0  0  # atno 11005 bound_to 11000
  145.2503  141.0041  143.3885 LP  0  0  0  0  0  0  0  0  0  0  0  0  # atno 17320 bound_to 7965
  144.9380  139.4222  143.6463 LP  0  0  0  0  0  0  0  0  0  0  0  0  # atno 17321 bound_to 7965
  140.7374  143.2765  151.3725 LP  0  0  0  0  0  0  0  0  0  0  0  0  # atno 17342 bound_to 10162
  139.6193  144.0939  152.2376 LP  0  0  0  0  0  0  0  0  0  0  0  0  # atno 17343 bound_to 10162
  156.3301  130.3799  149.7499 LP  0  0  0  0  0  0  0  0  0  0  0  0  # atno 17370 bound_to 10713
  156.5041  130.8142  151.3144 LP  0  0  0  0  0  0  0  0  0  0  0  0  # atno 17371 bound_to 10713
  140.6289  133.9924  155.7652 LP  0  0  0  0  0  0  0  0  0  0  0  0  # atno 17394 bound_to 11000
  141.0846  134.0010  157.3333 LP  0  0  0  0  0  0  0  0  0  0  0  0  # atno 17395 bound_to 11000

$$$$
