AV-unprocessed.smi:243|AV-procd|sdf|1855|dock6
  -GOLD-   2262020483D 1   1.00000     0.00000
 Structure written by MMmdl.
 58 61  0  0  0  0  0  0  0  0  2 V2000
  152.6528  143.5864  161.9054 C   0  0  0  0  0  0  0  0  0  0  0  0
  152.5403  143.9633  160.4209 C   0  0  0  0  0  0  0  0  0  0  0  0
  151.8551  142.9198  159.6167 N   0  3  1  0  0  0  0  0  0  0  0  0
  151.6066  143.3328  158.2126 C   0  0  0  0  0  0  0  0  0  0  0  0
  150.7618  142.2829  157.4808 C   0  0  0  0  0  0  0  0  0  0  0  0
  151.4337  140.8923  157.5088 C   0  0  2  0  0  0  0  0  0  0  0  0
  150.6601  139.8829  156.7682 N   0  0  0  0  0  0  0  0  0  0  0  0
  150.7378  139.9310  155.3126 C   0  0  0  0  0  0  0  0  0  0  0  0
  149.4320  139.5590  157.2456 C   0  0  0  0  0  0  0  0  0  0  0  0
  148.4190  140.4324  157.0206 N   0  0  0  0  0  0  0  0  0  0  0  0
  147.1878  140.1659  157.4657 C   0  0  0  0  0  0  0  0  0  0  0  0
  146.7594  139.1017  158.1467 N   0  0  0  0  0  0  0  0  0  0  0  0
  147.7753  138.2241  158.3859 C   0  0  0  0  0  0  0  0  0  0  0  0
  149.1309  138.3728  157.9770 C   0  0  0  0  0  0  0  0  0  0  0  0
  149.8709  137.2710  158.3911 N   0  0  0  0  0  0  0  0  0  0  0  0
  149.0046  136.5182  159.0119 C   0  0  0  0  0  0  0  0  0  0  0  0
  147.7225  137.0164  159.0597 N   0  0  0  0  0  0  0  0  0  0  0  0
  146.5658  136.3888  159.6795 C   0  0  0  0  0  0  0  0  0  0  0  0
  146.8115  135.9499  161.1421 C   0  0  2  0  0  0  0  0  0  0  0  0
  147.4761  136.9924  161.8343 O   0  0  0  0  0  0  0  0  0  0  0  0
  147.6382  134.6739  161.2809 C   0  0  0  0  0  0  0  0  0  0  0  0
  147.0625  134.0292  162.5339 C   0  0  0  0  0  0  0  0  0  0  0  0
  145.6759  134.2881  162.4014 O   0  0  0  0  0  0  0  0  0  0  0  0
  145.5128  135.6108  161.9007 C   0  0  0  0  0  0  0  0  0  0  0  0
  151.7668  140.4933  158.9708 C   0  0  1  0  0  0  0  0  0  0  0  0
  152.5660  139.1792  159.0439 C   0  0  0  0  0  0  0  0  0  0  0  0
  152.5627  141.6158  159.6714 C   0  0  0  0  0  0  0  0  0  0  0  0
  153.2404  144.3297  162.4449 H   0  0  0  0  0  0  0  0  0  0  0  0
  153.1468  142.6225  162.0309 H   0  0  0  0  0  0  0  0  0  0  0  0
  151.6794  143.5333  162.3919 H   0  0  0  0  0  0  0  0  0  0  0  0
  152.0316  144.9212  160.3036 H   0  0  0  0  0  0  0  0  0  0  0  0
  153.5526  144.1033  160.0396 H   0  0  0  0  0  0  0  0  0  0  0  0
  151.0808  144.2864  158.1824 H   0  0  0  0  0  0  0  0  0  0  0  0
  152.5572  143.4797  157.6972 H   0  0  0  0  0  0  0  0  0  0  0  0
  149.7792  142.2395  157.9517 H   0  0  0  0  0  0  0  0  0  0  0  0
  150.5986  142.6067  156.4528 H   0  0  0  0  0  0  0  0  0  0  0  0
  152.3849  140.9874  156.9828 H   0  0  0  0  0  0  0  0  0  0  0  0
  150.1442  139.1353  154.8599 H   0  0  0  0  0  0  0  0  0  0  0  0
  151.7703  139.7955  154.9903 H   0  0  0  0  0  0  0  0  0  0  0  0
  150.3873  140.8866  154.9231 H   0  0  0  0  0  0  0  0  0  0  0  0
  146.4388  140.9119  157.2451 H   0  0  0  0  0  0  0  0  0  0  0  0
  149.2795  135.5722  159.4553 H   0  0  0  0  0  0  0  0  0  0  0  0
  145.7264  137.0835  159.6288 H   0  0  0  0  0  0  0  0  0  0  0  0
  146.2845  135.5270  159.0728 H   0  0  0  0  0  0  0  0  0  0  0  0
  147.2002  136.9763  162.7379 H   0  0  0  0  0  0  0  0  0  0  0  0
  147.4561  134.0119  160.4334 H   0  0  0  0  0  0  0  0  0  0  0  0
  148.7134  134.8481  161.3409 H   0  0  0  0  0  0  0  0  0  0  0  0
  147.2695  132.9605  162.5943 H   0  0  0  0  0  0  0  0  0  0  0  0
  147.4443  134.5096  163.4362 H   0  0  0  0  0  0  0  0  0  0  0  0
  145.3323  136.2941  162.7323 H   0  0  0  0  0  0  0  0  0  0  0  0
  144.6335  135.6435  161.2568 H   0  0  0  0  0  0  0  0  0  0  0  0
  150.8382  140.3615  159.5270 H   0  0  0  0  0  0  0  0  0  0  0  0
  153.5152  139.2647  158.5140 H   0  0  0  0  0  0  0  0  0  0  0  0
  152.0206  138.3441  158.6054 H   0  0  0  0  0  0  0  0  0  0  0  0
  152.7865  138.9116  160.0775 H   0  0  0  0  0  0  0  0  0  0  0  0
  153.5490  141.7234  159.2164 H   0  0  0  0  0  0  0  0  0  0  0  0
  152.7259  141.3373  160.7134 H   0  0  0  0  0  0  0  0  0  0  0  0
  150.9535  142.7711  160.0479 H   0  0  0  0  0  0  0  0  0  0  0  0
  1  2  1  0  0  0  0
  1 28  1  0  0  0  0
  1 29  1  0  0  0  0
  1 30  1  0  0  0  0
  2  3  1  0  0  0  0
  2 31  1  0  0  0  0
  2 32  1  0  0  0  0
  3 27  1  0  0  0  0
  3  4  1  0  0  0  0
  3 58  1  0  0  0  0
  4  5  1  0  0  0  0
  4 33  1  0  0  0  0
  4 34  1  0  0  0  0
  5  6  1  0  0  0  0
  5 35  1  0  0  0  0
  5 36  1  0  0  0  0
  6  7  1  0  0  0  0
  6 25  1  0  0  0  0
  6 37  1  0  0  0  0
  7  8  1  0  0  0  0
  7  9  1  0  0  0  0
  8 38  1  0  0  0  0
  8 39  1  0  0  0  0
  8 40  1  0  0  0  0
  9 14  1  0  0  0  0
  9 10  2  0  0  0  0
 10 11  1  0  0  0  0
 11 12  2  0  0  0  0
 11 41  1  0  0  0  0
 12 13  1  0  0  0  0
 13 17  1  0  0  0  0
 13 14  2  0  0  0  0
 14 15  1  0  0  0  0
 15 16  2  0  0  0  0
 16 17  1  0  0  0  0
 16 42  1  0  0  0  0
 17 18  1  0  0  0  0
 18 19  1  0  0  0  0
 18 43  1  0  0  0  0
 18 44  1  0  0  0  0
 19 24  1  0  0  0  0
 19 20  1  0  0  0  0
 19 21  1  0  0  0  0
 20 45  1  0  0  0  0
 21 22  1  0  0  0  0
 21 46  1  0  0  0  0
 21 47  1  0  0  0  0
 22 23  1  0  0  0  0
 22 48  1  0  0  0  0
 22 49  1  0  0  0  0
 23 24  1  0  0  0  0
 24 50  1  0  0  0  0
 24 51  1  0  0  0  0
 25 26  1  0  0  0  0
 25 27  1  0  0  0  0
 25 52  1  0  0  0  0
 26 53  1  0  0  0  0
 26 54  1  0  0  0  0
 26 55  1  0  0  0  0
 27 56  1  0  0  0  0
 27 57  1  0  0  0  0
M  CHG  1   3   1
M  END
> <s_m_source_file>
AV-unprocessed.smi

> <i_m_source_file_index>
243

> <i_lp_mmshare_version>
43012

> <i_f3d_flags>
0

> <s_epik_input>
W0NIM11bQ0gyXU4xW0NIMl1bQ0gyXVtDQEhdKFtDQEBIXShbQ0gzXSlbQ0gyXTEpTihbQ0gzXSljKG5bY0hdbjIpYyhjMjMpbltjSF1uM1tDSDJdW0NAQF00KFtPSF0pW0NIMl1bQ0gyXU9bQ0gyXTQ=

> <s_epik_cmdline>
J2VwaWtfcHl0aG9uJywgJy1waCcsICc3LjAnLCAnLXRuJywgJzgnLCAnLW1hJywgJzIwMCcsICctbWV0YWxfYmluZGluZycsICctaW1hZScsICc8aW5maWxlLm1hZT4nLCAnLW9tYWUnLCAnPG91dGZpbGUubWFlPic=

> <r_lp_tautomer_probability>
1

> <r_epik_Ionization_Penalty>
0.00253099

> <r_epik_Ionization_Penalty_Charging>
0.00137877

> <r_epik_Ionization_Penalty_Neutral>
0.00115221

> <r_epik_State_Penalty>
-0

> <r_epik_Charging_Adjusted_Penalty>
0.00137877

> <i_epik_Tot_Q>
1

> <i_epik_Tot_abs_Q>
1

> <r_epik_Metal_State_Penalty>
-0

> <b_epik_Metal_Only>
0

> <s_lp_Force_Field>
OPLS_2005

> <r_lp_Energy>
45.753

> <b_lp_Chiralities_Consistent>
1

> <s_lp_Variant>
AV-unprocessed.smi:243-8

> <Gold.Version>
5.8.1

> <Gold.Id.Protein>
6NUR|6NUR_protein|mol2

> <Gold.PLP.Fitness>
48.5956

> <Gold.PLP.PLP>
-44.1737

> <Gold.PLP.part.hbond>
-2.0000

> <Gold.PLP.part.metal>
0.0000

> <Gold.PLP.part.buried>
-7.1224

> <Gold.PLP.part.nonpolar>
-35.6438

> <Gold.PLP.part.repulsive>
0.0899

> <Gold.PLP.ligand.clash>
0.0000

> <Gold.PLP.ligand.torsion>
0.6969

> <Gold.PLP.Chemscore.Hbond>
1.6960

> <Gold.PLP.Chemscore.CHOScore>
0.0000

> <Gold.PLP.Chemscore.Metal>
0.0000

> <Gold.Chemscore.Hbonds>
donor molecule, donor type, donor heavy atom, donor atom, acceptor molecule, acceptor atom, score
      P1  H  6931  6943       L1    20  1.00
      P1  H  6934  6947       L1    20  0.38

> <Gold.PLP.Chemscore.Internal.Correction>
0.7277

> <Gold.Rescore>
     Score         DG    S(hbond)    S(metal)    S(lipo)     H(rot)  DE(clash)    DE(int)     intcor
     15.65     -16.37       1.26        0.00     112.40       2.53       0.01       0.70       ----

> <Gold.Chemscore.Fitness>
15.6534

> <Gold.Chemscore.DG>
-16.3690

> <Gold.Chemscore.ZeroCoef>
-5.4800

> <Gold.Chemscore.Hbond>
1.2622

> <Gold.Chemscore.Metal>
0.0000

> <Gold.Chemscore.Lipo>
112.4038

> <Gold.Chemscore.Internal_Hbond>
0.0000

> <Gold.Chemscore.DEClash>
0.0127

> <Gold.Chemscore.DEInternal>
0.7029

> <Gold.Chemscore.Rot>
2.5305

> <Gold.Chemscore.Internal.Correction>
   9.000000E+99

> <Gold.Chemscore.Hbonds>
donor molecule, donor type, donor heavy atom, donor atom, acceptor molecule, acceptor atom, score
      P1  H  6931  6943       L1    20  0.27
      P1  H  6934  6947       L1    20  0.28

> <Gold.Chemscore.Hbond.Weighted>
-4.2157

> <Gold.Chemscore.Metal.Weighted>
-0.0000

> <Gold.Chemscore.Lipo.Weighted>
-13.1512

> <Gold.Chemscore.Internal_Hbond.Weighted>
0.0000

> <Gold.Chemscore.DEClash.Weighted>
0.0127

> <Gold.Chemscore.DEInternal.Weighted>
0.7029

> <Gold.Chemscore.Rot.Weighted>
6.4780

> <Gold.Chemscore.Internal.Correction.Weighted>
   9.000000E+99

> <Gold.Protein.RotatedTorsions>
[ 6907 6896 6895 6894 ] final  146.52 input  -60.11 | X-H torsion
[ 7974 7965 7964 7962 ] final   16.36 input  175.53 | X-H torsion
[ 8008 7997 7996 7995 ] final  140.74 input   59.86 | X-H torsion
[ 10167 10162 10161 10158 ] final  112.53 input  -65.29 | X-H torsion
[ 10718 10713 10712 10709 ] final   -0.94 input   66.30 | X-H torsion
[ 10763 10752 10751 10750 ] final  -85.50 input  -60.55 | X-H torsion
[ 11005 11000 10999 10996 ] final -143.63 input  -57.11 | X-H torsion

> <Gold.Protein.ActiveResidues>
 VAL166  LYS551  ARG553  GLY616  TRP617  ASP618  TYR619  PRO620  LYS621  CYS622 
 ASP623  PHE694  ASN695  SER759  ASP760  ASP761  ALA762  ILE779  LEU786  VAL792 
 PHE793  MET794  SER795  GLU796  ALA797  LYS798  CYS799  TRP800  GLU811  SER814 

> <Gold.Protein.RotatedAtoms>
  152.1668  133.4617  159.4888 H   0  0  0  0  0  0  0  0  0  0  0  0  # atno 6907 bound_to 6896
  150.6914  134.2003  159.4328 H   0  0  0  0  0  0  0  0  0  0  0  0  # atno 6908 bound_to 6896
  151.9908  134.9980  160.0612 H   0  0  0  0  0  0  0  0  0  0  0  0  # atno 6909 bound_to 6896
  146.2252  139.8759  142.8579 H   0  0  0  0  0  0  0  0  0  0  0  0  # atno 7974 bound_to 7965
  156.2975  140.2333  156.4451 H   0  0  0  0  0  0  0  0  0  0  0  0  # atno 8008 bound_to 7997
  154.8151  140.0441  157.1391 H   0  0  0  0  0  0  0  0  0  0  0  0  # atno 8009 bound_to 7997
  154.9378  140.3025  155.5139 H   0  0  0  0  0  0  0  0  0  0  0  0  # atno 8010 bound_to 7997
  139.6529  144.7128  151.2014 H   0  0  0  0  0  0  0  0  0  0  0  0  # atno 10167 bound_to 10162
  156.8130  130.5431  149.5706 H   0  0  0  0  0  0  0  0  0  0  0  0  # atno 10718 bound_to 10713
  154.6118  135.5483  153.7481 H   0  0  0  0  0  0  0  0  0  0  0  0  # atno 10763 bound_to 10752
  153.0198  135.6391  154.1568 H   0  0  0  0  0  0  0  0  0  0  0  0  # atno 10764 bound_to 10752
  154.1505  135.2903  155.3116 H   0  0  0  0  0  0  0  0  0  0  0  0  # atno 10765 bound_to 10752
  140.8105  134.2750  157.4942 H   0  0  0  0  0  0  0  0  0  0  0  0  # atno 11005 bound_to 11000
  145.2561  141.0061  143.3853 LP  0  0  0  0  0  0  0  0  0  0  0  0  # atno 17320 bound_to 7965
  144.9336  139.4270  143.6483 LP  0  0  0  0  0  0  0  0  0  0  0  0  # atno 17321 bound_to 7965
  140.7546  143.6121  150.8595 LP  0  0  0  0  0  0  0  0  0  0  0  0  # atno 17342 bound_to 10162
  139.9771  143.5993  152.2955 LP  0  0  0  0  0  0  0  0  0  0  0  0  # atno 17343 bound_to 10162
  156.1033  130.5985  150.9930 LP  0  0  0  0  0  0  0  0  0  0  0  0  # atno 17370 bound_to 10713
  157.6496  131.0899  150.8079 LP  0  0  0  0  0  0  0  0  0  0  0  0  # atno 17371 bound_to 10713
  139.8714  134.9480  156.3985 LP  0  0  0  0  0  0  0  0  0  0  0  0  # atno 17394 bound_to 11000
  140.9202  133.7650  155.9897 LP  0  0  0  0  0  0  0  0  0  0  0  0  # atno 17395 bound_to 11000

$$$$
