AV-unprocessed.smi:1208|AV-procd|sdf|5066|dock7
  -GOLD-   22720 4103D 1   1.00000     0.00000
 Structure written by MMmdl.
 36 37  0  0  0  0  0  0  0  0  1 V2000
  151.5392  139.6671  159.3657 C   0  0  0  0  0  0  0  0  0  0  0  0
  152.0424  140.6449  158.2941 C   0  0  1  0  0  0  0  0  0  0  0  0
  151.6795  140.1282  156.9758 N   0  0  0  0  0  0  0  0  0  0  0  0
  152.1723  139.0198  156.4012 C   0  0  0  0  0  0  0  0  0  0  0  0
  152.9832  138.2730  156.9506 O   0  0  0  0  0  0  0  0  0  0  0  0
  151.6573  138.7065  154.9896 C   0  0  0  0  0  0  0  0  0  0  0  0
  150.3012  139.2190  154.7486 N   0  0  0  0  0  0  0  0  0  0  0  0
  150.2526  140.5653  154.4200 N   0  0  0  0  0  0  0  0  0  0  0  0
  149.1160  141.1340  154.1985 C   0  0  0  0  0  0  0  0  0  0  0  0
  149.1134  142.4698  153.8809 O   0  0  0  0  0  0  0  0  0  0  0  0
  147.8780  140.3906  154.2805 C   0  0  0  0  0  0  0  0  0  0  0  0
  147.9357  139.0786  154.5975 C   0  0  0  0  0  0  0  0  0  0  0  0
  149.2078  138.4026  154.8580 C   0  0  0  0  0  0  0  0  0  0  0  0
  149.2901  137.2096  155.1506 O   0  0  0  0  0  0  0  0  0  0  0  0
  151.4633  142.0607  158.4940 C   0  0  2  0  0  0  0  0  0  0  0  0
  151.6280  143.0071  157.3039 C   0  0  0  0  0  0  0  0  0  0  0  0
  151.5355  144.3844  157.9379 C   0  0  0  0  0  0  0  0  0  0  0  0
  151.8317  144.1314  159.4192 C   0  0  0  0  0  0  0  0  0  0  0  0
  152.1681  142.7531  159.5125 O   0  0  0  0  0  0  0  0  0  0  0  0
  149.3608  142.9165  154.6759 H   0  0  0  0  0  0  0  0  0  0  0  0
  151.8176  140.0014  160.3654 H   0  0  0  0  0  0  0  0  0  0  0  0
  151.9663  138.6739  159.2228 H   0  0  0  0  0  0  0  0  0  0  0  0
  150.4532  139.5707  159.3381 H   0  0  0  0  0  0  0  0  0  0  0  0
  153.1289  140.6993  158.3839 H   0  0  0  0  0  0  0  0  0  0  0  0
  151.0142  140.6734  156.4471 H   0  0  0  0  0  0  0  0  0  0  0  0
  152.3594  139.1351  154.2723 H   0  0  0  0  0  0  0  0  0  0  0  0
  151.6811  137.6289  154.8151 H   0  0  0  0  0  0  0  0  0  0  0  0
  146.9350  140.8816  154.0907 H   0  0  0  0  0  0  0  0  0  0  0  0
  147.0188  138.5112  154.6621 H   0  0  0  0  0  0  0  0  0  0  0  0
  150.4092  142.0028  158.7728 H   0  0  0  0  0  0  0  0  0  0  0  0
  152.6136  142.8782  156.8547 H   0  0  0  0  0  0  0  0  0  0  0  0
  150.8799  142.8469  156.5269 H   0  0  0  0  0  0  0  0  0  0  0  0
  152.2480  145.0768  157.4885 H   0  0  0  0  0  0  0  0  0  0  0  0
  150.5363  144.8046  157.8175 H   0  0  0  0  0  0  0  0  0  0  0  0
  152.6459  144.7527  159.7934 H   0  0  0  0  0  0  0  0  0  0  0  0
  150.9470  144.3289  160.0260 H   0  0  0  0  0  0  0  0  0  0  0  0
  1  2  1  0  0  0  0
  1 21  1  0  0  0  0
  1 22  1  0  0  0  0
  1 23  1  0  0  0  0
  2  3  1  0  0  0  0
  2 15  1  0  0  0  0
  2 24  1  0  0  0  0
  3  4  1  0  0  0  0
  3 25  1  0  0  0  0
  4  5  2  0  0  0  0
  4  6  1  0  0  0  0
  6 26  1  0  0  0  0
  6 27  1  0  0  0  0
  6  7  1  0  0  0  0
  7  8  1  0  0  0  0
  7 13  1  0  0  0  0
  8  9  2  0  0  0  0
  9 10  1  0  0  0  0
  9 11  1  0  0  0  0
 10 20  1  0  0  0  0
 11 28  1  0  0  0  0
 11 12  2  0  0  0  0
 12 29  1  0  0  0  0
 12 13  1  0  0  0  0
 13 14  2  0  0  0  0
 15 19  1  0  0  0  0
 15 16  1  0  0  0  0
 15 30  1  0  0  0  0
 16 17  1  0  0  0  0
 16 31  1  0  0  0  0
 16 32  1  0  0  0  0
 17 18  1  0  0  0  0
 17 33  1  0  0  0  0
 17 34  1  0  0  0  0
 18 19  1  0  0  0  0
 18 35  1  0  0  0  0
 18 36  1  0  0  0  0
M  END
> <s_m_source_file>
AV-unprocessed.smi

> <i_m_source_file_index>
1208

> <i_lp_mmshare_version>
43012

> <i_f3d_flags>
0

> <s_epik_input>
TzFbQ0gyXVtDSDJdW0NIMl1bQ0BIXTFbQ0BIXShbQ0gzXSlbTkhdQyg9TylbQ0gyXW4yW25IXWMoPU8pW2NIXVtjSF1jMj1P

> <s_epik_cmdline>
J2VwaWtfcHl0aG9uJywgJy1waCcsICc3LjAnLCAnLXRuJywgJzgnLCAnLW1hJywgJzIwMCcsICctbWV0YWxfYmluZGluZycsICctaW1hZScsICc8aW5maWxlLm1hZT4nLCAnLW9tYWUnLCAnPG91dGZpbGUubWFlPic=

> <r_lp_tautomer_probability>
0.9996

> <r_epik_Ionization_Penalty>
2.12735

> <r_epik_Ionization_Penalty_Charging>
3.86665e-08

> <r_epik_Ionization_Penalty_Neutral>
2.12735

> <r_epik_State_Penalty>
1.70441

> <r_epik_Charging_Adjusted_Penalty>
1.70441

> <i_epik_Tot_Q>
0

> <i_epik_Tot_abs_Q>
0

> <r_epik_Metal_State_Penalty>
1.70441

> <b_epik_Metal_Only>
0

> <s_lp_Force_Field>
OPLS_2005

> <r_lp_Energy>
29.1408

> <b_lp_Chiralities_Consistent>
1

> <s_lp_Variant>
AV-unprocessed.smi:1208-6

> <Gold.Version>
5.8.1

> <Gold.Id.Protein>
6NUR|6NUR_protein|mol2

> <Gold.PLP.Fitness>
39.4155

> <Gold.PLP.PLP>
-34.7386

> <Gold.PLP.part.hbond>
-4.0000

> <Gold.PLP.part.metal>
0.0000

> <Gold.PLP.part.buried>
-5.4179

> <Gold.PLP.part.nonpolar>
-26.0653

> <Gold.PLP.part.repulsive>
0.3768

> <Gold.PLP.ligand.clash>
0.0000

> <Gold.PLP.ligand.torsion>
1.0459

> <Gold.PLP.Chemscore.Hbond>
2.2443

> <Gold.PLP.Chemscore.CHOScore>
0.0000

> <Gold.PLP.Chemscore.Metal>
0.0000

> <Gold.Chemscore.Hbonds>
donor molecule, donor type, donor heavy atom, donor atom, acceptor molecule, acceptor atom, score
      L1  H    10    20       P1  8028  0.62
      P1  H  7989  7998       L1     8  0.88
      P1  H  7997  8009       L1     5  0.05
      P1  H  8011  8017       L1    10  0.14

> <Gold.PLP.Chemscore.Internal.Correction>
0.0358

> <Gold.Rescore>
     Score         DG    S(hbond)    S(metal)    S(lipo)     H(rot)  DE(clash)    DE(int)     intcor
     10.20     -11.41       1.35        0.00      69.55       2.63       0.06       1.15       ----

> <Gold.Chemscore.Fitness>
10.2007

> <Gold.Chemscore.DG>
-11.4087

> <Gold.Chemscore.ZeroCoef>
-5.4800

> <Gold.Chemscore.Hbond>
1.3517

> <Gold.Chemscore.Metal>
0.0000

> <Gold.Chemscore.Lipo>
69.5520

> <Gold.Chemscore.Internal_Hbond>
0.0000

> <Gold.Chemscore.DEClash>
0.0588

> <Gold.Chemscore.DEInternal>
1.1492

> <Gold.Chemscore.Rot>
2.6264

> <Gold.Chemscore.Internal.Correction>
   9.000000E+99

> <Gold.Chemscore.Hbonds>
donor molecule, donor type, donor heavy atom, donor atom, acceptor molecule, acceptor atom, score
      L1  H    10    20       P1  8028  0.59
      P1  H  7989  7998       L1     8  0.52
      P1  H  8011  8017       L1    10  0.05

> <Gold.Chemscore.Hbond.Weighted>
-4.5148

> <Gold.Chemscore.Metal.Weighted>
-0.0000

> <Gold.Chemscore.Lipo.Weighted>
-8.1376

> <Gold.Chemscore.Internal_Hbond.Weighted>
0.0000

> <Gold.Chemscore.DEClash.Weighted>
0.0588

> <Gold.Chemscore.DEInternal.Weighted>
1.1492

> <Gold.Chemscore.Rot.Weighted>
6.7237

> <Gold.Chemscore.Internal.Correction.Weighted>
   9.000000E+99

> <Gold.Protein.RotatedTorsions>
[ 6907 6896 6895 6894 ] final  -21.26 input  -60.11 | X-H torsion
[ 7974 7965 7964 7962 ] final   60.85 input  175.53 | X-H torsion
[ 8008 7997 7996 7995 ] final  151.29 input   59.86 | X-H torsion
[ 10167 10162 10161 10158 ] final  106.81 input  -65.29 | X-H torsion
[ 10718 10713 10712 10709 ] final  166.83 input   66.30 | X-H torsion
[ 10763 10752 10751 10750 ] final  158.41 input  -60.55 | X-H torsion
[ 11005 11000 10999 10996 ] final  160.92 input  -57.11 | X-H torsion

> <Gold.Protein.ActiveResidues>
 VAL166  LYS551  ARG553  GLY616  TRP617  ASP618  TYR619  PRO620  LYS621  CYS622 
 ASP623  PHE694  ASN695  SER759  ASP760  ASP761  ALA762  ILE779  LEU786  VAL792 
 PHE793  MET794  SER795  GLU796  ALA797  LYS798  CYS799  TRP800  GLU811  SER814 

> <Gold.Protein.RotatedAtoms>
  151.2359  135.0571  159.9005 H   0  0  0  0  0  0  0  0  0  0  0  0  # atno 6907 bound_to 6896
  152.5399  134.0486  159.8110 H   0  0  0  0  0  0  0  0  0  0  0  0  # atno 6908 bound_to 6896
  151.0673  133.5446  159.2661 H   0  0  0  0  0  0  0  0  0  0  0  0  # atno 6909 bound_to 6896
  145.8913  139.3513  143.0647 H   0  0  0  0  0  0  0  0  0  0  0  0  # atno 7974 bound_to 7965
  156.2680  140.2051  156.6153 H   0  0  0  0  0  0  0  0  0  0  0  0  # atno 8008 bound_to 7997
  154.6799  140.0541  157.0279 H   0  0  0  0  0  0  0  0  0  0  0  0  # atno 8009 bound_to 7997
  155.1015  140.3206  155.4548 H   0  0  0  0  0  0  0  0  0  0  0  0  # atno 8010 bound_to 7997
  139.6978  144.7099  151.1236 H   0  0  0  0  0  0  0  0  0  0  0  0  # atno 10167 bound_to 10162
  157.0602  131.0338  151.2649 H   0  0  0  0  0  0  0  0  0  0  0  0  # atno 10718 bound_to 10713
  154.2156  135.2784  155.2943 H   0  0  0  0  0  0  0  0  0  0  0  0  # atno 10763 bound_to 10752
  154.5743  135.5609  153.7128 H   0  0  0  0  0  0  0  0  0  0  0  0  # atno 10764 bound_to 10752
  153.0053  135.6329  154.2296 H   0  0  0  0  0  0  0  0  0  0  0  0  # atno 10765 bound_to 10752
  140.2106  134.8270  157.3117 H   0  0  0  0  0  0  0  0  0  0  0  0  # atno 11005 bound_to 11000
  145.8904  140.9307  143.0555 LP  0  0  0  0  0  0  0  0  0  0  0  0  # atno 17320 bound_to 7965
  144.6730  140.0898  143.7465 LP  0  0  0  0  0  0  0  0  0  0  0  0  # atno 17321 bound_to 7965
  140.7701  143.5466  150.9252 LP  0  0  0  0  0  0  0  0  0  0  0  0  # atno 17342 bound_to 10162
  139.9146  143.6678  152.3108 LP  0  0  0  0  0  0  0  0  0  0  0  0  # atno 17343 bound_to 10162
  157.4960  130.7851  149.7556 LP  0  0  0  0  0  0  0  0  0  0  0  0  # atno 17370 bound_to 10713
  155.9980  130.3896  150.2716 LP  0  0  0  0  0  0  0  0  0  0  0  0  # atno 17371 bound_to 10713
  140.1954  134.4319  155.7692 LP  0  0  0  0  0  0  0  0  0  0  0  0  # atno 17394 bound_to 11000
  141.2226  133.7047  156.8097 LP  0  0  0  0  0  0  0  0  0  0  0  0  # atno 17395 bound_to 11000

$$$$
