AV-unprocessed.smi:1596|AV-procd|sdf|6419|dock1
  -GOLD-   22720 7 53D 1   1.00000     0.00000
 Structure written by MMmdl.
 48 49  0  0  0  0  0  0  0  0  1 V2000
  147.7333  131.8687  161.2762 C   0  0  0  0  0  0  0  0  0  0  0  0
  148.1201  133.3509  161.4070 C   0  0  0  0  0  0  0  0  0  0  0  0
  147.0855  134.2663  160.9257 N   0  0  0  0  0  0  0  0  0  0  0  0
  147.3877  135.6842  161.1194 C   0  0  0  0  0  0  0  0  0  0  0  0
  147.8258  136.0286  162.5524 C   0  0  0  0  0  0  0  0  0  0  0  0
  146.6476  133.9758  159.6211 C   0  0  0  0  0  0  0  0  0  0  0  0
  147.5284  134.1848  158.5394 C   0  0  0  0  0  0  0  0  0  0  0  0
  147.0872  133.8889  157.2357 C   0  0  0  0  0  0  0  0  0  0  0  0
  145.7771  133.3855  157.0549 C   0  0  0  0  0  0  0  0  0  0  0  0
  145.2089  133.0727  155.7905 N   0  0  0  0  0  0  0  0  0  0  0  0
  145.6914  133.3489  154.5670 C   0  0  0  0  0  0  0  0  0  0  0  0
  146.7710  133.8926  154.3342 O   0  0  0  0  0  0  0  0  0  0  0  0
  144.8505  132.9321  153.6094 N   0  0  0  0  0  0  0  0  0  0  0  0
  145.0750  133.0645  152.1729 C   0  0  2  0  0  0  0  0  0  0  0  0
  143.9720  133.9432  151.5558 C   0  0  0  0  0  0  0  0  0  0  0  0
  144.1404  134.0721  150.0316 C   0  0  0  0  0  0  0  0  0  0  0  0
  144.2107  132.7006  149.3341 C   0  0  2  0  0  0  0  0  0  0  0  0
  142.9459  132.0698  149.3786 O   0  0  0  0  0  0  0  0  0  0  0  0
  145.2771  131.7925  149.9754 C   0  0  0  0  0  0  0  0  0  0  0  0
  145.1070  131.6775  151.5007 C   0  0  0  0  0  0  0  0  0  0  0  0
  144.9712  133.2263  158.2011 C   0  0  0  0  0  0  0  0  0  0  0  0
  145.3887  133.5055  159.4538 N   0  0  0  0  0  0  0  0  0  0  0  0
  148.5052  131.2321  161.7088 H   0  0  0  0  0  0  0  0  0  0  0  0
  147.6113  131.5703  160.2348 H   0  0  0  0  0  0  0  0  0  0  0  0
  146.7998  131.6587  161.7988 H   0  0  0  0  0  0  0  0  0  0  0  0
  148.3128  133.5682  162.4580 H   0  0  0  0  0  0  0  0  0  0  0  0
  149.0561  133.5399  160.8797 H   0  0  0  0  0  0  0  0  0  0  0  0
  148.1880  135.9657  160.4342 H   0  0  0  0  0  0  0  0  0  0  0  0
  146.5212  136.2856  160.8416 H   0  0  0  0  0  0  0  0  0  0  0  0
  148.1009  137.0808  162.6252 H   0  0  0  0  0  0  0  0  0  0  0  0
  148.6928  135.4381  162.8503 H   0  0  0  0  0  0  0  0  0  0  0  0
  147.0304  135.8499  163.2766 H   0  0  0  0  0  0  0  0  0  0  0  0
  148.5242  134.5693  158.7048 H   0  0  0  0  0  0  0  0  0  0  0  0
  147.7531  134.0675  156.4061 H   0  0  0  0  0  0  0  0  0  0  0  0
  144.3549  132.5351  155.8207 H   0  0  0  0  0  0  0  0  0  0  0  0
  143.9897  132.4880  153.8937 H   0  0  0  0  0  0  0  0  0  0  0  0
  146.0332  133.5604  152.0048 H   0  0  0  0  0  0  0  0  0  0  0  0
  142.9917  133.5196  151.7788 H   0  0  0  0  0  0  0  0  0  0  0  0
  143.9879  134.9350  152.0092 H   0  0  0  0  0  0  0  0  0  0  0  0
  143.3286  134.6684  149.6135 H   0  0  0  0  0  0  0  0  0  0  0  0
  145.0588  134.6229  149.8242 H   0  0  0  0  0  0  0  0  0  0  0  0
  144.4546  132.8483  148.2815 H   0  0  0  0  0  0  0  0  0  0  0  0
  142.2808  132.7358  149.4661 H   0  0  0  0  0  0  0  0  0  0  0  0
  145.2552  130.8020  149.5198 H   0  0  0  0  0  0  0  0  0  0  0  0
  146.2654  132.2018  149.7624 H   0  0  0  0  0  0  0  0  0  0  0  0
  145.9210  131.0794  151.9119 H   0  0  0  0  0  0  0  0  0  0  0  0
  144.1862  131.1370  151.7244 H   0  0  0  0  0  0  0  0  0  0  0  0
  143.9593  132.8581  158.1133 H   0  0  0  0  0  0  0  0  0  0  0  0
  1  2  1  0  0  0  0
  1 23  1  0  0  0  0
  1 24  1  0  0  0  0
  1 25  1  0  0  0  0
  2  3  1  0  0  0  0
  2 26  1  0  0  0  0
  2 27  1  0  0  0  0
  3  4  1  0  0  0  0
  3  6  1  0  0  0  0
  4  5  1  0  0  0  0
  4 28  1  0  0  0  0
  4 29  1  0  0  0  0
  5 30  1  0  0  0  0
  5 31  1  0  0  0  0
  5 32  1  0  0  0  0
  6 22  1  0  0  0  0
  6  7  2  0  0  0  0
  7  8  1  0  0  0  0
  7 33  1  0  0  0  0
  8  9  2  0  0  0  0
  8 34  1  0  0  0  0
  9 10  1  0  0  0  0
  9 21  1  0  0  0  0
 10 11  1  0  0  0  0
 10 35  1  0  0  0  0
 11 12  2  0  0  0  0
 11 13  1  0  0  0  0
 13 14  1  0  0  0  0
 13 36  1  0  0  0  0
 14 20  1  0  0  0  0
 14 15  1  0  0  0  0
 14 37  1  0  0  0  0
 15 16  1  0  0  0  0
 15 38  1  0  0  0  0
 15 39  1  0  0  0  0
 16 17  1  0  0  0  0
 16 40  1  0  0  0  0
 16 41  1  0  0  0  0
 17 18  1  0  0  0  0
 17 19  1  0  0  0  0
 17 42  1  0  0  0  0
 18 43  1  0  0  0  0
 19 20  1  0  0  0  0
 19 44  1  0  0  0  0
 19 45  1  0  0  0  0
 20 46  1  0  0  0  0
 20 47  1  0  0  0  0
 21 22  2  0  0  0  0
 21 48  1  0  0  0  0
M  END
> <s_m_source_file>
AV-unprocessed.smi

> <i_m_source_file_index>
1596

> <i_lp_mmshare_version>
43012

> <i_f3d_flags>
0

> <s_epik_input>
W0NIM11bQ0gyXU4oW0NIMl1bQ0gzXSljMVtjSF1bY0hdYyhbY0hdbjEpW05IXUMoPU8pW05IXVtDQEBIXTJbQ0gyXVtDSDJdW0NAQEhdKFtPSF0pW0NIMl1bQ0gyXTI=

> <s_epik_cmdline>
J2VwaWtfcHl0aG9uJywgJy1waCcsICc3LjAnLCAnLXRuJywgJzgnLCAnLW1hJywgJzIwMCcsICctbWV0YWxfYmluZGluZycsICctaW1hZScsICc8aW5maWxlLm1hZT4nLCAnLW9tYWUnLCAnPG91dGZpbGUubWFlPic=

> <r_lp_tautomer_probability>
1

> <r_epik_Ionization_Penalty>
0.709395

> <r_epik_Ionization_Penalty_Charging>
0

> <r_epik_Ionization_Penalty_Neutral>
0.709395

> <r_epik_State_Penalty>
2.20721

> <r_epik_Charging_Adjusted_Penalty>
2.20721

> <i_epik_Tot_Q>
0

> <i_epik_Tot_abs_Q>
0

> <r_epik_Metal_State_Penalty>
1.55411

> <b_epik_Metal_Only>
0

> <s_lp_Force_Field>
OPLS_2005

> <r_lp_Energy>
19.3677

> <b_lp_Chiralities_Consistent>
1

> <s_lp_Variant>
AV-unprocessed.smi:1596-4

> <Gold.Version>
5.8.1

> <Gold.Id.Protein>
6NUR|6NUR_protein|mol2

> <Gold.PLP.Fitness>
43.4039

> <Gold.PLP.PLP>
-32.0595

> <Gold.PLP.part.hbond>
-4.9356

> <Gold.PLP.part.metal>
0.0000

> <Gold.PLP.part.buried>
-4.7524

> <Gold.PLP.part.nonpolar>
-23.3640

> <Gold.PLP.part.repulsive>
0.0669

> <Gold.PLP.ligand.clash>
0.0000

> <Gold.PLP.ligand.torsion>
0.1594

> <Gold.PLP.Chemscore.Hbond>
3.7958

> <Gold.PLP.Chemscore.CHOScore>
0.0000

> <Gold.PLP.Chemscore.Metal>
0.0000

> <Gold.Chemscore.Hbonds>
donor molecule, donor type, donor heavy atom, donor atom, acceptor molecule, acceptor atom, score
      L1  H    10    35       P1 10957  0.84
      L1  H    13    36       P1 10957  1.00
      L1  H    18    43       P1 10186  0.81
      P1  H 10785 10796       L1    18  0.96

> <Gold.PLP.Chemscore.Internal.Correction>
0.2759

> <Gold.Rescore>
     Score         DG    S(hbond)    S(metal)    S(lipo)     H(rot)  DE(clash)    DE(int)     intcor
     18.98     -20.43       3.16        0.00      81.56       2.01       0.00       1.44       ----

> <Gold.Chemscore.Fitness>
18.9836

> <Gold.Chemscore.DG>
-20.4277

> <Gold.Chemscore.ZeroCoef>
-5.4800

> <Gold.Chemscore.Hbond>
3.1552

> <Gold.Chemscore.Metal>
0.0000

> <Gold.Chemscore.Lipo>
81.5628

> <Gold.Chemscore.Internal_Hbond>
0.0000

> <Gold.Chemscore.DEClash>
0.0000

> <Gold.Chemscore.DEInternal>
1.4441

> <Gold.Chemscore.Rot>
2.0052

> <Gold.Chemscore.Internal.Correction>
   9.000000E+99

> <Gold.Chemscore.Hbonds>
donor molecule, donor type, donor heavy atom, donor atom, acceptor molecule, acceptor atom, score
      L1  H    10    35       P1 10957  0.77
      L1  H    13    36       P1 10957  0.55
      L1  H    18    43       P1 10186  0.80
      P1  H 10785 10796       L1    18  0.59

> <Gold.Chemscore.Hbond.Weighted>
-10.5382

> <Gold.Chemscore.Metal.Weighted>
-0.0000

> <Gold.Chemscore.Lipo.Weighted>
-9.5429

> <Gold.Chemscore.Internal_Hbond.Weighted>
0.0000

> <Gold.Chemscore.DEClash.Weighted>
0.0000

> <Gold.Chemscore.DEInternal.Weighted>
1.4441

> <Gold.Chemscore.Rot.Weighted>
5.1334

> <Gold.Chemscore.Internal.Correction.Weighted>
   9.000000E+99

> <Gold.Protein.RotatedTorsions>
[ 6907 6896 6895 6894 ] final  165.42 input  -60.11 | X-H torsion
[ 7974 7965 7964 7962 ] final  150.86 input  175.53 | X-H torsion
[ 8008 7997 7996 7995 ] final  -89.40 input   59.86 | X-H torsion
[ 10167 10162 10161 10158 ] final  148.91 input  -65.29 | X-H torsion
[ 10718 10713 10712 10709 ] final  -91.39 input   66.30 | X-H torsion
[ 10763 10752 10751 10750 ] final  -13.55 input  -60.55 | X-H torsion
[ 11005 11000 10999 10996 ] final  162.74 input  -57.11 | X-H torsion

> <Gold.Protein.ActiveResidues>
 VAL166  LYS551  ARG553  GLY616  TRP617  ASP618  TYR619  PRO620  LYS621  CYS622 
 ASP623  PHE694  ASN695  SER759  ASP760  ASP761  ALA762  ILE779  LEU786  VAL792 
 PHE793  MET794  SER795  GLU796  ALA797  LYS798  CYS799  TRP800  GLU811  SER814 

> <Gold.Protein.RotatedAtoms>
  151.8946  133.3524  159.3809 H   0  0  0  0  0  0  0  0  0  0  0  0  # atno 6907 bound_to 6896
  150.7095  134.4889  159.5515 H   0  0  0  0  0  0  0  0  0  0  0  0  # atno 6908 bound_to 6896
  152.2466  134.8175  160.0503 H   0  0  0  0  0  0  0  0  0  0  0  0  # atno 6909 bound_to 6896
  144.8334  139.6463  143.6049 H   0  0  0  0  0  0  0  0  0  0  0  0  # atno 7974 bound_to 7965
  154.6862  140.0542  157.0316 H   0  0  0  0  0  0  0  0  0  0  0  0  # atno 8008 bound_to 7997
  155.0882  140.3216  155.4563 H   0  0  0  0  0  0  0  0  0  0  0  0  # atno 8009 bound_to 7997
  156.2712  140.2053  156.6009 H   0  0  0  0  0  0  0  0  0  0  0  0  # atno 8010 bound_to 7997
  139.4868  144.5643  151.7173 H   0  0  0  0  0  0  0  0  0  0  0  0  # atno 10167 bound_to 10162
  155.9993  130.4946  150.5468 H   0  0  0  0  0  0  0  0  0  0  0  0  # atno 10718 bound_to 10713
  153.5149  135.7016  153.5761 H   0  0  0  0  0  0  0  0  0  0  0  0  # atno 10763 bound_to 10752
  153.3835  135.3914  155.1873 H   0  0  0  0  0  0  0  0  0  0  0  0  # atno 10764 bound_to 10752
  154.8700  135.3841  154.4633 H   0  0  0  0  0  0  0  0  0  0  0  0  # atno 10765 bound_to 10752
  140.2287  134.8140  157.3295 H   0  0  0  0  0  0  0  0  0  0  0  0  # atno 11005 bound_to 11000
  146.2635  139.6464  142.9346 LP  0  0  0  0  0  0  0  0  0  0  0  0  # atno 17320 bound_to 7965
  145.4847  141.0438  143.2626 LP  0  0  0  0  0  0  0  0  0  0  0  0  # atno 17321 bound_to 7965
  140.5218  144.0867  150.6025 LP  0  0  0  0  0  0  0  0  0  0  0  0  # atno 17342 bound_to 10162
  140.3827  143.2794  152.0151 LP  0  0  0  0  0  0  0  0  0  0  0  0  # atno 17343 bound_to 10162
  157.3396  131.0714  151.1798 LP  0  0  0  0  0  0  0  0  0  0  0  0  # atno 17370 bound_to 10713
  157.2651  130.6677  149.5993 LP  0  0  0  0  0  0  0  0  0  0  0  0  # atno 17371 bound_to 10713
  140.1773  134.4534  155.7794 LP  0  0  0  0  0  0  0  0  0  0  0  0  # atno 17394 bound_to 11000
  141.2219  133.6968  156.7809 LP  0  0  0  0  0  0  0  0  0  0  0  0  # atno 17395 bound_to 11000

$$$$
