AV-unprocessed.smi:2143|AV-procd|sdf|8726|dock7
  -GOLD-   2272011493D 1   1.00000     0.00000
 Structure written by MMmdl.
 44 45  0  0  0  0  0  0  0  0  1 V2000
  152.4853  144.7495  158.1029 C   0  0  0  0  0  0  0  0  0  0  0  0
  151.3532  144.0408  158.8750 C   0  0  2  0  0  0  0  0  0  0  0  0
  151.2855  144.5120  160.3421 C   0  0  0  0  0  0  0  0  0  0  0  0
  152.4469  143.9591  161.1830 C   0  0  0  0  0  0  0  0  0  0  0  0
  152.5000  142.4268  161.1130 C   0  0  0  0  0  0  0  0  0  0  0  0
  152.5701  141.9173  159.6602 C   0  0  1  0  0  0  0  0  0  0  0  0
  152.5274  140.4555  159.6760 N   0  0  0  0  0  0  0  0  0  0  0  0
  153.4966  139.6415  160.1223 C   0  0  0  0  0  0  0  0  0  0  0  0
  154.5744  140.0445  160.5620 O   0  0  0  0  0  0  0  0  0  0  0  0
  153.1994  138.1384  160.0321 C   0  0  0  0  0  0  0  0  0  0  0  0
  153.7606  137.3700  161.1510 N   0  0  0  0  0  0  0  0  0  0  0  0
  153.7874  137.9247  162.4175 C   0  0  0  0  0  0  0  0  0  0  0  0
  154.2667  137.2795  163.5032 C   0  0  0  0  0  0  0  0  0  0  0  0
  154.7999  135.9269  163.3956 C   0  0  0  0  0  0  0  0  0  0  0  0
  155.2248  135.2931  164.3625 O   0  0  0  0  0  0  0  0  0  0  0  0
  154.7776  135.3898  162.0863 N   0  0  0  0  0  0  0  0  0  0  0  0
  155.2704  134.0416  161.8928 C   0  0  0  0  0  0  0  0  0  0  0  0
  154.2575  136.0628  160.9577 C   0  0  0  0  0  0  0  0  0  0  0  0
  154.2242  135.5390  159.8414 O   0  0  0  0  0  0  0  0  0  0  0  0
  151.4092  142.4909  158.8054 C   0  0  2  0  0  0  0  0  0  0  0  0
  151.4136  141.9690  157.3548 C   0  0  0  0  0  0  0  0  0  0  0  0
  153.4731  144.4582  158.4583 H   0  0  0  0  0  0  0  0  0  0  0  0
  152.4070  145.8318  158.2067 H   0  0  0  0  0  0  0  0  0  0  0  0
  152.4404  144.5313  157.0363 H   0  0  0  0  0  0  0  0  0  0  0  0
  150.4212  144.3537  158.4020 H   0  0  0  0  0  0  0  0  0  0  0  0
  151.2759  145.6014  160.3898 H   0  0  0  0  0  0  0  0  0  0  0  0
  150.3422  144.1840  160.7809 H   0  0  0  0  0  0  0  0  0  0  0  0
  153.3929  144.3767  160.8372 H   0  0  0  0  0  0  0  0  0  0  0  0
  152.3353  144.2767  162.2202 H   0  0  0  0  0  0  0  0  0  0  0  0
  153.3608  142.0650  161.6766 H   0  0  0  0  0  0  0  0  0  0  0  0
  151.6167  142.0170  161.6051 H   0  0  0  0  0  0  0  0  0  0  0  0
  153.5137  142.2568  159.2311 H   0  0  0  0  0  0  0  0  0  0  0  0
  151.6832  140.0274  159.3246 H   0  0  0  0  0  0  0  0  0  0  0  0
  152.1210  137.9781  159.9743 H   0  0  0  0  0  0  0  0  0  0  0  0
  153.6028  137.7693  159.0881 H   0  0  0  0  0  0  0  0  0  0  0  0
  153.3984  138.9238  162.5506 H   0  0  0  0  0  0  0  0  0  0  0  0
  154.2516  137.7691  164.4660 H   0  0  0  0  0  0  0  0  0  0  0  0
  155.7528  133.9735  160.9166 H   0  0  0  0  0  0  0  0  0  0  0  0
  154.4080  133.3770  161.9603 H   0  0  0  0  0  0  0  0  0  0  0  0
  156.0160  133.8042  162.6525 H   0  0  0  0  0  0  0  0  0  0  0  0
  150.4799  142.1325  159.2517 H   0  0  0  0  0  0  0  0  0  0  0  0
  152.3646  142.1672  156.8598 H   0  0  0  0  0  0  0  0  0  0  0  0
  150.6243  142.4374  156.7666 H   0  0  0  0  0  0  0  0  0  0  0  0
  151.2455  140.8925  157.3173 H   0  0  0  0  0  0  0  0  0  0  0  0
  1  2  1  0  0  0  0
  1 22  1  0  0  0  0
  1 23  1  0  0  0  0
  1 24  1  0  0  0  0
  2 20  1  0  0  0  0
  2  3  1  0  0  0  0
  2 25  1  0  0  0  0
  3  4  1  0  0  0  0
  3 26  1  0  0  0  0
  3 27  1  0  0  0  0
  4  5  1  0  0  0  0
  4 28  1  0  0  0  0
  4 29  1  0  0  0  0
  5  6  1  0  0  0  0
  5 30  1  0  0  0  0
  5 31  1  0  0  0  0
  6  7  1  0  0  0  0
  6 20  1  0  0  0  0
  6 32  1  0  0  0  0
  7  8  1  0  0  0  0
  7 33  1  0  0  0  0
  8  9  2  0  0  0  0
  8 10  1  0  0  0  0
 10 11  1  0  0  0  0
 10 34  1  0  0  0  0
 10 35  1  0  0  0  0
 11 18  1  0  0  0  0
 11 12  1  0  0  0  0
 12 13  2  0  0  0  0
 12 36  1  0  0  0  0
 13 14  1  0  0  0  0
 13 37  1  0  0  0  0
 14 15  2  0  0  0  0
 14 16  1  0  0  0  0
 16 17  1  0  0  0  0
 16 18  1  0  0  0  0
 17 38  1  0  0  0  0
 17 39  1  0  0  0  0
 17 40  1  0  0  0  0
 18 19  2  0  0  0  0
 20 21  1  0  0  0  0
 20 41  1  0  0  0  0
 21 42  1  0  0  0  0
 21 43  1  0  0  0  0
 21 44  1  0  0  0  0
M  END
> <s_m_source_file>
AV-unprocessed.smi

> <i_m_source_file_index>
2143

> <i_lp_mmshare_version>
43012

> <i_f3d_flags>
0

> <s_epik_input>
W0NIM11bQ0BASF0xW0NIMl1bQ0gyXVtDSDJdW0NASF0oW0NASF0xW0NIM10pW05IXUMoPU8pW0NIMl1uMltjSF1bY0hdYyg9TyluKFtDSDNdKWMyPU8=

> <s_epik_cmdline>
J2VwaWtfcHl0aG9uJywgJy1waCcsICc3LjAnLCAnLXRuJywgJzgnLCAnLW1hJywgJzIwMCcsICctbWV0YWxfYmluZGluZycsICctaW1hZScsICc8aW5maWxlLm1hZT4nLCAnLW9tYWUnLCAnPG91dGZpbGUubWFlPic=

> <r_lp_tautomer_probability>
1

> <r_epik_Ionization_Penalty>
3.18445e-08

> <r_epik_Ionization_Penalty_Charging>
1.27977e-08

> <r_epik_Ionization_Penalty_Neutral>
1.90469e-08

> <r_epik_State_Penalty>
-0

> <r_epik_Charging_Adjusted_Penalty>
1.27977e-08

> <i_epik_Tot_Q>
0

> <i_epik_Tot_abs_Q>
0

> <r_epik_Metal_State_Penalty>
-0

> <b_epik_Metal_Only>
0

> <s_lp_Force_Field>
OPLS_2005

> <r_lp_Energy>
21.4841

> <b_lp_Chiralities_Consistent>
1

> <s_lp_Variant>
AV-unprocessed.smi:2143-5

> <Gold.Version>
5.8.1

> <Gold.Id.Protein>
6NUR|6NUR_protein|mol2

> <Gold.PLP.Fitness>
45.0716

> <Gold.PLP.PLP>
-43.6472

> <Gold.PLP.part.hbond>
-1.0000

> <Gold.PLP.part.metal>
0.0000

> <Gold.PLP.part.buried>
-6.2712

> <Gold.PLP.part.nonpolar>
-36.3794

> <Gold.PLP.part.repulsive>
0.2145

> <Gold.PLP.ligand.clash>
0.0000

> <Gold.PLP.ligand.torsion>
0.7913

> <Gold.PLP.Chemscore.Hbond>
1.0000

> <Gold.PLP.Chemscore.CHOScore>
0.0000

> <Gold.PLP.Chemscore.Metal>
0.0000

> <Gold.Chemscore.Hbonds>
donor molecule, donor type, donor heavy atom, donor atom, acceptor molecule, acceptor atom, score
      P1  H  6896  6907       L1    19  1.00

> <Gold.PLP.Chemscore.Internal.Correction>
0.0069

> <Gold.Rescore>
     Score         DG    S(hbond)    S(metal)    S(lipo)     H(rot)  DE(clash)    DE(int)     intcor
     16.02     -18.23       0.98        0.00     114.01       1.51       0.08       2.12       ----

> <Gold.Chemscore.Fitness>
16.0239

> <Gold.Chemscore.DG>
-18.2275

> <Gold.Chemscore.ZeroCoef>
-5.4800

> <Gold.Chemscore.Hbond>
0.9825

> <Gold.Chemscore.Metal>
0.0000

> <Gold.Chemscore.Lipo>
114.0111

> <Gold.Chemscore.Internal_Hbond>
0.0000

> <Gold.Chemscore.DEClash>
0.0803

> <Gold.Chemscore.DEInternal>
2.1233

> <Gold.Chemscore.Rot>
1.5131

> <Gold.Chemscore.Internal.Correction>
   9.000000E+99

> <Gold.Chemscore.Hbonds>
donor molecule, donor type, donor heavy atom, donor atom, acceptor molecule, acceptor atom, score
      P1  H  6896  6907       L1    19  0.34

> <Gold.Chemscore.Hbond.Weighted>
-3.2817

> <Gold.Chemscore.Metal.Weighted>
-0.0000

> <Gold.Chemscore.Lipo.Weighted>
-13.3393

> <Gold.Chemscore.Internal_Hbond.Weighted>
0.0000

> <Gold.Chemscore.DEClash.Weighted>
0.0803

> <Gold.Chemscore.DEInternal.Weighted>
2.1233

> <Gold.Chemscore.Rot.Weighted>
3.8734

> <Gold.Chemscore.Internal.Correction.Weighted>
   9.000000E+99

> <Gold.Protein.RotatedTorsions>
[ 6907 6896 6895 6894 ] final   73.91 input  -60.11 | X-H torsion
[ 7974 7965 7964 7962 ] final  146.40 input  175.53 | X-H torsion
[ 8008 7997 7996 7995 ] final  -42.14 input   59.86 | X-H torsion
[ 10167 10162 10161 10158 ] final -150.42 input  -65.29 | X-H torsion
[ 10718 10713 10712 10709 ] final -162.52 input   66.30 | X-H torsion
[ 10763 10752 10751 10750 ] final   29.69 input  -60.55 | X-H torsion
[ 11005 11000 10999 10996 ] final   -0.66 input  -57.11 | X-H torsion

> <Gold.Protein.ActiveResidues>
 VAL166  LYS551  ARG553  GLY616  TRP617  ASP618  TYR619  PRO620  LYS621  CYS622 
 ASP623  PHE694  ASN695  SER759  ASP760  ASP761  ALA762  ILE779  LEU786  VAL792 
 PHE793  MET794  SER795  GLU796  ALA797  LYS798  CYS799  TRP800  GLU811  SER814 

> <Gold.Protein.RotatedAtoms>
  152.4948  134.4351  159.9524 H   0  0  0  0  0  0  0  0  0  0  0  0  # atno 6907 bound_to 6896
  151.4332  133.3658  159.2779 H   0  0  0  0  0  0  0  0  0  0  0  0  # atno 6908 bound_to 6896
  150.9140  134.8580  159.7504 H   0  0  0  0  0  0  0  0  0  0  0  0  # atno 6909 bound_to 6896
  144.8674  139.5900  143.5902 H   0  0  0  0  0  0  0  0  0  0  0  0  # atno 7974 bound_to 7965
  154.4000  140.1481  156.3305 H   0  0  0  0  0  0  0  0  0  0  0  0  # atno 8008 bound_to 7997
  155.8447  140.3460  155.5633 H   0  0  0  0  0  0  0  0  0  0  0  0  # atno 8009 bound_to 7997
  155.8049  140.0875  157.1927 H   0  0  0  0  0  0  0  0  0  0  0  0  # atno 8010 bound_to 7997
  139.7356  143.8741  152.2547 H   0  0  0  0  0  0  0  0  0  0  0  0  # atno 10167 bound_to 10162
  156.6117  130.8853  151.2938 H   0  0  0  0  0  0  0  0  0  0  0  0  # atno 10718 bound_to 10713
  153.0415  135.6483  154.0929 H   0  0  0  0  0  0  0  0  0  0  0  0  # atno 10763 bound_to 10752
  154.0634  135.2886  155.3322 H   0  0  0  0  0  0  0  0  0  0  0  0  # atno 10764 bound_to 10752
  154.6642  135.5380  153.8121 H   0  0  0  0  0  0  0  0  0  0  0  0  # atno 10765 bound_to 10752
  140.6387  133.9509  155.8314 H   0  0  0  0  0  0  0  0  0  0  0  0  # atno 11005 bound_to 11000
  146.2906  139.7128  142.9164 LP  0  0  0  0  0  0  0  0  0  0  0  0  # atno 17320 bound_to 7965
  145.4195  141.0405  143.2972 LP  0  0  0  0  0  0  0  0  0  0  0  0  # atno 17321 bound_to 7965
  139.8677  144.7084  150.9024 LP  0  0  0  0  0  0  0  0  0  0  0  0  # atno 17342 bound_to 10162
  140.7778  143.3764  151.1555 LP  0  0  0  0  0  0  0  0  0  0  0  0  # atno 17343 bound_to 10162
  157.7252  130.9613  150.1606 LP  0  0  0  0  0  0  0  0  0  0  0  0  # atno 17370 bound_to 10713
  156.2384  130.3688  149.8364 LP  0  0  0  0  0  0  0  0  0  0  0  0  # atno 17371 bound_to 10713
  141.0622  134.0329  157.3642 LP  0  0  0  0  0  0  0  0  0  0  0  0  # atno 17394 bound_to 11000
  139.9088  135.0186  156.7603 LP  0  0  0  0  0  0  0  0  0  0  0  0  # atno 17395 bound_to 11000

$$$$
