AV-unprocessed.smi:1986|AV-procd|sdf|8050|dock8
  -GOLD-   2272010253D 1   1.00000     0.00000
 Structure written by MMmdl.
 47 48  0  0  0  0  0  0  0  0  1 V2000
  146.9481  139.1043  153.1152 C   0  0  0  0  0  0  0  0  0  0  0  0
  146.9913  138.5565  154.5533 C   0  0  0  0  0  0  0  0  0  0  0  0
  147.6521  139.4942  155.6141 C   0  0  1  0  0  0  0  0  0  0  0  0
  147.2085  140.9397  155.2601 C   0  0  0  0  0  0  0  0  0  0  0  0
  147.0668  139.1318  157.0151 C   0  0  0  0  0  0  0  0  0  0  0  0
  147.5457  137.8439  157.5134 N   0  0  0  0  0  0  0  0  0  0  0  0
  147.2573  137.3110  158.7092 C   0  0  0  0  0  0  0  0  0  0  0  0
  146.5001  137.8397  159.5240 O   0  0  0  0  0  0  0  0  0  0  0  0
  147.9170  135.9595  159.0182 C   0  0  0  0  0  0  0  0  0  0  0  0
  147.4633  135.3735  160.2874 N   0  0  0  0  0  0  0  0  0  0  0  0
  146.9497  134.0909  160.1698 N   0  0  0  0  0  0  0  0  0  0  0  0
  146.5131  133.4734  161.2149 C   0  0  0  0  0  0  0  0  0  0  0  0
  146.0108  132.2058  161.0528 O   0  0  0  0  0  0  0  0  0  0  0  0
  146.5499  134.0933  162.5212 C   0  0  0  0  0  0  0  0  0  0  0  0
  147.0569  135.3411  162.6265 C   0  0  0  0  0  0  0  0  0  0  0  0
  147.5628  136.0695  161.4618 C   0  0  0  0  0  0  0  0  0  0  0  0
  148.0358  137.2042  161.5291 O   0  0  0  0  0  0  0  0  0  0  0  0
  149.1382  139.3824  155.5791 N   0  0  0  0  0  0  0  0  0  0  0  0
  149.7019  138.9443  154.2967 C   0  0  0  0  0  0  0  0  0  0  0  0
  151.2202  138.7131  154.3834 C   0  0  0  0  0  0  0  0  0  0  0  0
  151.8618  139.9004  154.8332 O   0  0  0  0  0  0  0  0  0  0  0  0
  151.3826  140.3291  156.1021 C   0  0  0  0  0  0  0  0  0  0  0  0
  149.8667  140.5763  156.0257 C   0  0  0  0  0  0  0  0  0  0  0  0
  146.6522  131.7471  160.5322 H   0  0  0  0  0  0  0  0  0  0  0  0
  146.4797  138.3814  152.4473 H   0  0  0  0  0  0  0  0  0  0  0  0
  147.9463  139.3051  152.7264 H   0  0  0  0  0  0  0  0  0  0  0  0
  146.3703  140.0257  153.0503 H   0  0  0  0  0  0  0  0  0  0  0  0
  145.9649  138.3292  154.8431 H   0  0  0  0  0  0  0  0  0  0  0  0
  147.4884  137.5864  154.5452 H   0  0  0  0  0  0  0  0  0  0  0  0
  146.1428  141.0000  155.0367 H   0  0  0  0  0  0  0  0  0  0  0  0
  147.7395  141.3208  154.3874 H   0  0  0  0  0  0  0  0  0  0  0  0
  147.3903  141.6350  156.0799 H   0  0  0  0  0  0  0  0  0  0  0  0
  147.3092  139.9141  157.7350 H   0  0  0  0  0  0  0  0  0  0  0  0
  145.9794  139.0708  156.9819 H   0  0  0  0  0  0  0  0  0  0  0  0
  148.1705  137.3314  156.9081 H   0  0  0  0  0  0  0  0  0  0  0  0
  147.7032  135.2834  158.1884 H   0  0  0  0  0  0  0  0  0  0  0  0
  149.0031  136.0709  159.0327 H   0  0  0  0  0  0  0  0  0  0  0  0
  146.1789  133.5631  163.3857 H   0  0  0  0  0  0  0  0  0  0  0  0
  147.0904  135.8162  163.5959 H   0  0  0  0  0  0  0  0  0  0  0  0
  149.2431  138.0144  153.9654 H   0  0  0  0  0  0  0  0  0  0  0  0
  149.5068  139.6874  153.5237 H   0  0  0  0  0  0  0  0  0  0  0  0
  151.4475  137.8885  155.0611 H   0  0  0  0  0  0  0  0  0  0  0  0
  151.6184  138.4427  153.4054 H   0  0  0  0  0  0  0  0  0  0  0  0
  151.6135  139.5789  156.8601 H   0  0  0  0  0  0  0  0  0  0  0  0
  151.9016  141.2439  156.3881 H   0  0  0  0  0  0  0  0  0  0  0  0
  149.6834  141.4083  155.3460 H   0  0  0  0  0  0  0  0  0  0  0  0
  149.5319  140.8940  157.0114 H   0  0  0  0  0  0  0  0  0  0  0  0
  1  2  1  0  0  0  0
  1 25  1  0  0  0  0
  1 26  1  0  0  0  0
  1 27  1  0  0  0  0
  2  3  1  0  0  0  0
  2 28  1  0  0  0  0
  2 29  1  0  0  0  0
  3  4  1  0  0  0  0
  3  5  1  0  0  0  0
  3 18  1  0  0  0  0
  4 30  1  0  0  0  0
  4 31  1  0  0  0  0
  4 32  1  0  0  0  0
  5  6  1  0  0  0  0
  5 33  1  0  0  0  0
  5 34  1  0  0  0  0
  6  7  1  0  0  0  0
  6 35  1  0  0  0  0
  7  8  2  0  0  0  0
  7  9  1  0  0  0  0
  9 36  1  0  0  0  0
  9 37  1  0  0  0  0
  9 10  1  0  0  0  0
 10 11  1  0  0  0  0
 10 16  1  0  0  0  0
 11 12  2  0  0  0  0
 12 13  1  0  0  0  0
 12 14  1  0  0  0  0
 13 24  1  0  0  0  0
 14 38  1  0  0  0  0
 14 15  2  0  0  0  0
 15 39  1  0  0  0  0
 15 16  1  0  0  0  0
 16 17  2  0  0  0  0
 18 23  1  0  0  0  0
 18 19  1  0  0  0  0
 19 20  1  0  0  0  0
 19 40  1  0  0  0  0
 19 41  1  0  0  0  0
 20 21  1  0  0  0  0
 20 42  1  0  0  0  0
 20 43  1  0  0  0  0
 21 22  1  0  0  0  0
 22 23  1  0  0  0  0
 22 44  1  0  0  0  0
 22 45  1  0  0  0  0
 23 46  1  0  0  0  0
 23 47  1  0  0  0  0
M  END
> <s_m_source_file>
AV-unprocessed.smi

> <i_m_source_file_index>
1986

> <i_lp_mmshare_version>
43012

> <i_f3d_flags>
0

> <s_epik_input>
W0NIMl0xW0NIMl1PW0NIMl1bQ0gyXU4xW0NAQF0oW0NIM10pKFtDSDJdW0NIM10pW0NIMl1bTkhdQyg9TylbQ0gyXW4yW25IXWMoPU8pW2NIXVtjSF1jMj1P

> <s_epik_cmdline>
J2VwaWtfcHl0aG9uJywgJy1waCcsICc3LjAnLCAnLXRuJywgJzgnLCAnLW1hJywgJzIwMCcsICctbWV0YWxfYmluZGluZycsICctaW1hZScsICc8aW5maWxlLm1hZT4nLCAnLW9tYWUnLCAnPG91dGZpbGUubWFlPic=

> <r_epik_Ionization_Penalty>
2.44436

> <r_epik_Ionization_Penalty_Charging>
3.63754e-08

> <r_epik_Ionization_Penalty_Neutral>
2.44436

> <r_epik_State_Penalty>
2.04701

> <r_epik_Charging_Adjusted_Penalty>
2.04701

> <i_epik_Tot_Q>
0

> <i_epik_Tot_abs_Q>
0

> <r_epik_Metal_State_Penalty>
2.04701

> <b_epik_Metal_Only>
0

> <s_lp_Force_Field>
OPLS_2005

> <r_lp_Energy>
55.4417

> <b_lp_Chiralities_Consistent>
1

> <s_lp_Variant>
AV-unprocessed.smi:1986-5

> <Gold.Version>
5.8.1

> <Gold.Id.Protein>
6NUR|6NUR_protein|mol2

> <Gold.PLP.Fitness>
39.2003

> <Gold.PLP.PLP>
-33.8133

> <Gold.PLP.part.hbond>
-3.8639

> <Gold.PLP.part.metal>
0.0000

> <Gold.PLP.part.buried>
-5.0173

> <Gold.PLP.part.nonpolar>
-25.4732

> <Gold.PLP.part.repulsive>
0.1266

> <Gold.PLP.ligand.clash>
0.0000

> <Gold.PLP.ligand.torsion>
1.5835

> <Gold.PLP.Chemscore.Hbond>
2.8080

> <Gold.PLP.Chemscore.CHOScore>
0.0000

> <Gold.PLP.Chemscore.Metal>
0.0000

> <Gold.Chemscore.Hbonds>
donor molecule, donor type, donor heavy atom, donor atom, acceptor molecule, acceptor atom, score
      P1  H  6931  6943       L1    17  0.91
      P1  H  6934  6947       L1     8  0.85
      P1  H  7989  7998       L1    21  0.96

> <Gold.PLP.Chemscore.Internal.Correction>
0.1300

> <Gold.Rescore>
     Score         DG    S(hbond)    S(metal)    S(lipo)     H(rot)  DE(clash)    DE(int)     intcor
     11.61     -13.63       2.73        0.00      58.84       3.06       0.19       1.83       ----

> <Gold.Chemscore.Fitness>
11.6115

> <Gold.Chemscore.DG>
-13.6277

> <Gold.Chemscore.ZeroCoef>
-5.4800

> <Gold.Chemscore.Hbond>
2.7252

> <Gold.Chemscore.Metal>
0.0000

> <Gold.Chemscore.Lipo>
58.8402

> <Gold.Chemscore.Internal_Hbond>
0.0000

> <Gold.Chemscore.DEClash>
0.1887

> <Gold.Chemscore.DEInternal>
1.8275

> <Gold.Chemscore.Rot>
3.0620

> <Gold.Chemscore.Internal.Correction>
   9.000000E+99

> <Gold.Chemscore.Hbonds>
donor molecule, donor type, donor heavy atom, donor atom, acceptor molecule, acceptor atom, score
      P1  H  6931  6943       L1    17  0.86
      P1  H  6934  6947       L1     8  0.82
      P1  H  7989  7998       L1    21  0.23

> <Gold.Chemscore.Hbond.Weighted>
-9.1021

> <Gold.Chemscore.Metal.Weighted>
-0.0000

> <Gold.Chemscore.Lipo.Weighted>
-6.8843

> <Gold.Chemscore.Internal_Hbond.Weighted>
0.0000

> <Gold.Chemscore.DEClash.Weighted>
0.1887

> <Gold.Chemscore.DEInternal.Weighted>
1.8275

> <Gold.Chemscore.Rot.Weighted>
7.8387

> <Gold.Chemscore.Internal.Correction.Weighted>
   9.000000E+99

> <Gold.Protein.RotatedTorsions>
[ 6907 6896 6895 6894 ] final -177.46 input  -60.11 | X-H torsion
[ 7974 7965 7964 7962 ] final  156.12 input  175.53 | X-H torsion
[ 8008 7997 7996 7995 ] final -144.24 input   59.86 | X-H torsion
[ 10167 10162 10161 10158 ] final  178.07 input  -65.29 | X-H torsion
[ 10718 10713 10712 10709 ] final   24.22 input   66.30 | X-H torsion
[ 10763 10752 10751 10750 ] final   97.35 input  -60.55 | X-H torsion
[ 11005 11000 10999 10996 ] final -151.82 input  -57.11 | X-H torsion

> <Gold.Protein.ActiveResidues>
 VAL166  LYS551  ARG553  GLY616  TRP617  ASP618  TYR619  PRO620  LYS621  CYS622 
 ASP623  PHE694  ASN695  SER759  ASP760  ASP761  ALA762  ILE779  LEU786  VAL792 
 PHE793  MET794  SER795  GLU796  ALA797  LYS798  CYS799  TRP800  GLU811  SER814 

> <Gold.Protein.RotatedAtoms>
  151.6214  133.3339  159.3088 H   0  0  0  0  0  0  0  0  0  0  0  0  # atno 6907 bound_to 6896
  150.8104  134.7259  159.6694 H   0  0  0  0  0  0  0  0  0  0  0  0  # atno 6908 bound_to 6896
  152.4201  134.5976  160.0043 H   0  0  0  0  0  0  0  0  0  0  0  0  # atno 6909 bound_to 6896
  144.7982  139.7161  143.6193 H   0  0  0  0  0  0  0  0  0  0  0  0  # atno 7974 bound_to 7965
  155.5237  140.0593  157.2902 H   0  0  0  0  0  0  0  0  0  0  0  0  # atno 8008 bound_to 7997
  154.4508  140.1948  156.0469 H   0  0  0  0  0  0  0  0  0  0  0  0  # atno 8009 bound_to 7997
  156.0701  140.3261  155.7569 H   0  0  0  0  0  0  0  0  0  0  0  0  # atno 8010 bound_to 7997
  139.5279  144.2723  152.0617 H   0  0  0  0  0  0  0  0  0  0  0  0  # atno 10167 bound_to 10162
  157.1768  130.6784  149.6098 H   0  0  0  0  0  0  0  0  0  0  0  0  # atno 10718 bound_to 10713
  153.2758  135.4186  155.1032 H   0  0  0  0  0  0  0  0  0  0  0  0  # atno 10763 bound_to 10752
  154.8472  135.3483  154.6180 H   0  0  0  0  0  0  0  0  0  0  0  0  # atno 10764 bound_to 10752
  153.6600  135.7049  153.5238 H   0  0  0  0  0  0  0  0  0  0  0  0  # atno 10765 bound_to 10752
  140.7255  134.3679  157.5176 H   0  0  0  0  0  0  0  0  0  0  0  0  # atno 11005 bound_to 11000
  146.2256  139.5717  142.9589 LP  0  0  0  0  0  0  0  0  0  0  0  0  # atno 17320 bound_to 7965
  145.5619  141.0403  143.2221 LP  0  0  0  0  0  0  0  0  0  0  0  0  # atno 17321 bound_to 7965
  140.2182  144.4493  150.6354 LP  0  0  0  0  0  0  0  0  0  0  0  0  # atno 17342 bound_to 10162
  140.6436  143.2208  151.6236 LP  0  0  0  0  0  0  0  0  0  0  0  0  # atno 17343 bound_to 10162
  155.9730  130.4660  150.6274 LP  0  0  0  0  0  0  0  0  0  0  0  0  # atno 17370 bound_to 10713
  157.3991  131.0807  151.1325 LP  0  0  0  0  0  0  0  0  0  0  0  0  # atno 17371 bound_to 10713
  139.8838  134.8983  156.2743 LP  0  0  0  0  0  0  0  0  0  0  0  0  # atno 17394 bound_to 11000
  140.9966  133.7176  156.0896 LP  0  0  0  0  0  0  0  0  0  0  0  0  # atno 17395 bound_to 11000

$$$$
