AV-unprocessed.smi:2477|AV-procd|sdf|9761|dock8
  -GOLD-   2272013403D 1   1.00000     0.00000
 Structure written by MMmdl.
 51 53  0  0  0  0  0  0  0  0  1 V2000
  146.0840  130.4259  151.5549 C   0  0  0  0  0  0  0  0  0  0  0  0
  145.5452  131.7560  151.2593 N   0  0  0  0  0  0  0  0  0  0  0  0
  144.3541  131.8245  150.5175 C   0  0  0  0  0  0  0  0  0  0  0  0
  143.7903  132.9981  150.2005 C   0  0  0  0  0  0  0  0  0  0  0  0
  144.4361  134.2117  150.6400 C   0  0  0  0  0  0  0  0  0  0  0  0
  145.5879  134.1694  151.3571 C   0  0  0  0  0  0  0  0  0  0  0  0
  146.2899  135.2938  151.8282 N   0  0  0  0  0  0  0  0  0  0  0  0
  145.8312  136.4500  152.3416 C   0  0  0  0  0  0  0  0  0  0  0  0
  144.6505  136.7578  152.4996 O   0  0  0  0  0  0  0  0  0  0  0  0
  146.8491  137.2510  152.6854 N   0  0  0  0  0  0  0  0  0  0  0  0
  146.7184  138.5681  153.3024 C   0  0  2  0  0  0  0  0  0  0  0  0
  147.0598  139.6634  152.2742 C   0  0  0  0  0  0  0  0  0  0  0  0
  146.9481  141.0658  152.8920 C   0  0  0  0  0  0  0  0  0  0  0  0
  147.8329  141.1948  154.1410 C   0  0  0  0  0  0  0  0  0  0  0  0
  147.5040  140.1040  155.1738 C   0  0  0  0  0  0  0  0  0  0  0  0
  147.5977  138.6900  154.5706 C   0  0  2  0  0  0  0  0  0  0  0  0
  148.9613  138.4456  154.2368 O   0  0  0  0  0  0  0  0  0  0  0  0
  149.7553  137.9012  155.2845 C   0  0  0  0  0  0  0  0  0  0  0  0
  150.0531  138.9631  156.3478 C   0  0  0  0  0  0  0  0  0  0  0  0
  151.1792  139.8144  155.7523 C   0  0  0  0  0  0  0  0  0  0  0  0
  151.8969  138.9206  154.7288 C   0  0  0  0  0  0  0  0  0  0  0  0
  151.1370  137.5884  154.7108 C   0  0  0  0  0  0  0  0  0  0  0  0
  146.2010  132.8706  151.7001 C   0  0  0  0  0  0  0  0  0  0  0  0
  147.2469  132.7794  152.3480 O   0  0  0  0  0  0  0  0  0  0  0  0
  145.4529  129.6213  151.1761 H   0  0  0  0  0  0  0  0  0  0  0  0
  146.1813  130.2811  152.6319 H   0  0  0  0  0  0  0  0  0  0  0  0
  147.0703  130.3049  151.1047 H   0  0  0  0  0  0  0  0  0  0  0  0
  143.9321  130.8739  150.2251 H   0  0  0  0  0  0  0  0  0  0  0  0
  142.8746  133.0356  149.6292 H   0  0  0  0  0  0  0  0  0  0  0  0
  143.9598  135.1386  150.3690 H   0  0  0  0  0  0  0  0  0  0  0  0
  147.2943  135.2037  151.7755 H   0  0  0  0  0  0  0  0  0  0  0  0
  147.7890  136.9189  152.5264 H   0  0  0  0  0  0  0  0  0  0  0  0
  145.6752  138.7059  153.5939 H   0  0  0  0  0  0  0  0  0  0  0  0
  148.0713  139.5146  151.8933 H   0  0  0  0  0  0  0  0  0  0  0  0
  146.3931  139.5892  151.4145 H   0  0  0  0  0  0  0  0  0  0  0  0
  147.2311  141.8194  152.1565 H   0  0  0  0  0  0  0  0  0  0  0  0
  145.9094  141.2668  153.1571 H   0  0  0  0  0  0  0  0  0  0  0  0
  148.8830  141.1240  153.8543 H   0  0  0  0  0  0  0  0  0  0  0  0
  147.7025  142.1805  154.5884 H   0  0  0  0  0  0  0  0  0  0  0  0
  148.1730  140.1898  156.0306 H   0  0  0  0  0  0  0  0  0  0  0  0
  146.4953  140.2647  155.5565 H   0  0  0  0  0  0  0  0  0  0  0  0
  147.2468  137.9810  155.3229 H   0  0  0  0  0  0  0  0  0  0  0  0
  149.2924  137.0061  155.7024 H   0  0  0  0  0  0  0  0  0  0  0  0
  149.1825  139.5558  156.6283 H   0  0  0  0  0  0  0  0  0  0  0  0
  150.4140  138.4714  157.2521 H   0  0  0  0  0  0  0  0  0  0  0  0
  150.7577  140.6840  155.2464 H   0  0  0  0  0  0  0  0  0  0  0  0
  151.8562  140.1817  156.5241 H   0  0  0  0  0  0  0  0  0  0  0  0
  151.8629  139.3879  153.7438 H   0  0  0  0  0  0  0  0  0  0  0  0
  152.9467  138.7722  154.9836 H   0  0  0  0  0  0  0  0  0  0  0  0
  151.6441  136.8770  155.3640 H   0  0  0  0  0  0  0  0  0  0  0  0
  151.0900  137.1422  153.7168 H   0  0  0  0  0  0  0  0  0  0  0  0
  1  2  1  0  0  0  0
  1 25  1  0  0  0  0
  1 26  1  0  0  0  0
  1 27  1  0  0  0  0
  2 23  1  0  0  0  0
  2  3  1  0  0  0  0
  3  4  2  0  0  0  0
  3 28  1  0  0  0  0
  4  5  1  0  0  0  0
  4 29  1  0  0  0  0
  5  6  2  0  0  0  0
  5 30  1  0  0  0  0
  6  7  1  0  0  0  0
  6 23  1  0  0  0  0
  7  8  1  0  0  0  0
  7 31  1  0  0  0  0
  8  9  2  0  0  0  0
  8 10  1  0  0  0  0
 10 11  1  0  0  0  0
 10 32  1  0  0  0  0
 11 16  1  0  0  0  0
 11 12  1  0  0  0  0
 11 33  1  0  0  0  0
 12 13  1  0  0  0  0
 12 34  1  0  0  0  0
 12 35  1  0  0  0  0
 13 14  1  0  0  0  0
 13 36  1  0  0  0  0
 13 37  1  0  0  0  0
 14 15  1  0  0  0  0
 14 38  1  0  0  0  0
 14 39  1  0  0  0  0
 15 16  1  0  0  0  0
 15 40  1  0  0  0  0
 15 41  1  0  0  0  0
 16 17  1  0  0  0  0
 16 42  1  0  0  0  0
 17 18  1  0  0  0  0
 18 22  1  0  0  0  0
 18 19  1  0  0  0  0
 18 43  1  0  0  0  0
 19 20  1  0  0  0  0
 19 44  1  0  0  0  0
 19 45  1  0  0  0  0
 20 21  1  0  0  0  0
 20 46  1  0  0  0  0
 20 47  1  0  0  0  0
 21 22  1  0  0  0  0
 21 48  1  0  0  0  0
 21 49  1  0  0  0  0
 22 50  1  0  0  0  0
 22 51  1  0  0  0  0
 23 24  2  0  0  0  0
M  END
> <s_m_source_file>
AV-unprocessed.smi

> <i_m_source_file_index>
2477

> <i_lp_mmshare_version>
43012

> <i_f3d_flags>
0

> <s_epik_input>
W0NIM11uMVtjSF1bY0hdW2NIXWMoYzE9TylbTkhdQyg9TylbTkhdW0NAQEhdMltDSDJdW0NIMl1bQ0gyXVtDSDJdW0NASF0yT1tDSF0zW0NIMl1bQ0gyXVtDSDJdW0NIMl0z

> <s_epik_cmdline>
J2VwaWtfcHl0aG9uJywgJy1waCcsICc3LjAnLCAnLXRuJywgJzgnLCAnLW1hJywgJzIwMCcsICctbWV0YWxfYmluZGluZycsICctaW1hZScsICc8aW5maWxlLm1hZT4nLCAnLW9tYWUnLCAnPG91dGZpbGUubWFlPic=

> <r_lp_tautomer_probability>
1

> <r_epik_Ionization_Penalty>
2.40753e-05

> <r_epik_Ionization_Penalty_Charging>
4.84018e-06

> <r_epik_Ionization_Penalty_Neutral>
1.92352e-05

> <r_epik_State_Penalty>
-0

> <r_epik_Charging_Adjusted_Penalty>
4.84018e-06

> <i_epik_Tot_Q>
0

> <i_epik_Tot_abs_Q>
0

> <r_epik_Metal_State_Penalty>
-0

> <b_epik_Metal_Only>
0

> <s_lp_Force_Field>
OPLS_2005

> <r_lp_Energy>
42.349

> <b_lp_Chiralities_Consistent>
1

> <s_lp_Variant>
AV-unprocessed.smi:2477-3

> <Gold.Version>
5.8.1

> <Gold.Id.Protein>
6NUR|6NUR_protein|mol2

> <Gold.PLP.Fitness>
42.7683

> <Gold.PLP.PLP>
-38.7197

> <Gold.PLP.part.hbond>
-1.8652

> <Gold.PLP.part.metal>
0.0000

> <Gold.PLP.part.buried>
-3.4841

> <Gold.PLP.part.nonpolar>
-34.3564

> <Gold.PLP.part.repulsive>
0.6153

> <Gold.PLP.ligand.clash>
0.0000

> <Gold.PLP.ligand.torsion>
0.7994

> <Gold.PLP.Chemscore.Hbond>
1.8713

> <Gold.PLP.Chemscore.CHOScore>
0.0000

> <Gold.PLP.Chemscore.Metal>
0.0000

> <Gold.Chemscore.Hbonds>
donor molecule, donor type, donor heavy atom, donor atom, acceptor molecule, acceptor atom, score
      L1  H     7    31       P1  7948  0.88
      L1  H    10    32       P1  7948  0.93

> <Gold.PLP.Chemscore.Internal.Correction>
0.0337

> <Gold.Rescore>
     Score         DG    S(hbond)    S(metal)    S(lipo)     H(rot)  DE(clash)    DE(int)     intcor
     17.96     -20.36       1.85        0.00     104.16       1.36       1.53       0.88       ----

> <Gold.Chemscore.Fitness>
17.9551

> <Gold.Chemscore.DG>
-20.3641

> <Gold.Chemscore.ZeroCoef>
-5.4800

> <Gold.Chemscore.Hbond>
1.8471

> <Gold.Chemscore.Metal>
0.0000

> <Gold.Chemscore.Lipo>
104.1633

> <Gold.Chemscore.Internal_Hbond>
0.0000

> <Gold.Chemscore.DEClash>
1.5281

> <Gold.Chemscore.DEInternal>
0.8809

> <Gold.Chemscore.Rot>
1.3564

> <Gold.Chemscore.Internal.Correction>
   9.000000E+99

> <Gold.Chemscore.Hbonds>
donor molecule, donor type, donor heavy atom, donor atom, acceptor molecule, acceptor atom, score
      L1  H     7    31       P1  7948  0.83
      L1  H    10    32       P1  7948  0.88

> <Gold.Chemscore.Hbond.Weighted>
-6.1694

> <Gold.Chemscore.Metal.Weighted>
-0.0000

> <Gold.Chemscore.Lipo.Weighted>
-12.1871

> <Gold.Chemscore.Internal_Hbond.Weighted>
0.0000

> <Gold.Chemscore.DEClash.Weighted>
1.5281

> <Gold.Chemscore.DEInternal.Weighted>
0.8809

> <Gold.Chemscore.Rot.Weighted>
3.4724

> <Gold.Chemscore.Internal.Correction.Weighted>
   9.000000E+99

> <Gold.Protein.RotatedTorsions>
[ 6907 6896 6895 6894 ] final  -77.26 input  -60.11 | X-H torsion
[ 7974 7965 7964 7962 ] final  163.80 input  175.53 | X-H torsion
[ 8008 7997 7996 7995 ] final -143.95 input   59.86 | X-H torsion
[ 10167 10162 10161 10158 ] final -125.79 input  -65.29 | X-H torsion
[ 10718 10713 10712 10709 ] final   24.56 input   66.30 | X-H torsion
[ 10763 10752 10751 10750 ] final   60.36 input  -60.55 | X-H torsion
[ 11005 11000 10999 10996 ] final   78.20 input  -57.11 | X-H torsion

> <Gold.Protein.ActiveResidues>
 VAL166  LYS551  ARG553  GLY616  TRP617  ASP618  TYR619  PRO620  LYS621  CYS622 
 ASP623  PHE694  ASN695  SER759  ASP760  ASP761  ALA762  ILE779  LEU786  VAL792 
 PHE793  MET794  SER795  GLU796  ALA797  LYS798  CYS799  TRP800  GLU811  SER814 

> <Gold.Protein.RotatedAtoms>
  150.7004  134.4450  159.5309 H   0  0  0  0  0  0  0  0  0  0  0  0  # atno 6907 bound_to 6896
  152.2153  134.8461  160.0501 H   0  0  0  0  0  0  0  0  0  0  0  0  # atno 6908 bound_to 6896
  151.9331  133.3582  159.3975 H   0  0  0  0  0  0  0  0  0  0  0  0  # atno 6909 bound_to 6896
  144.7573  139.8234  143.6345 H   0  0  0  0  0  0  0  0  0  0  0  0  # atno 7974 bound_to 7965
  155.5189  140.0590  157.2910 H   0  0  0  0  0  0  0  0  0  0  0  0  # atno 8008 bound_to 7997
  154.4524  140.1956  156.0425 H   0  0  0  0  0  0  0  0  0  0  0  0  # atno 8009 bound_to 7997
  156.0732  140.3257  155.7606 H   0  0  0  0  0  0  0  0  0  0  0  0  # atno 8010 bound_to 7997
  139.9784  143.5769  152.2387 H   0  0  0  0  0  0  0  0  0  0  0  0  # atno 10167 bound_to 10162
  157.1814  130.6804  149.6114 H   0  0  0  0  0  0  0  0  0  0  0  0  # atno 10718 bound_to 10713
  152.9919  135.5539  154.5862 H   0  0  0  0  0  0  0  0  0  0  0  0  # atno 10763 bound_to 10752
  154.5233  135.2809  155.1246 H   0  0  0  0  0  0  0  0  0  0  0  0  # atno 10764 bound_to 10752
  154.2590  135.6384  153.5320 H   0  0  0  0  0  0  0  0  0  0  0  0  # atno 10765 bound_to 10752
  139.9222  134.7744  156.1619 H   0  0  0  0  0  0  0  0  0  0  0  0  # atno 11005 bound_to 11000
  146.1598  139.4709  142.9995 LP  0  0  0  0  0  0  0  0  0  0  0  0  # atno 17320 bound_to 7965
  145.6735  141.0210  143.1645 LP  0  0  0  0  0  0  0  0  0  0  0  0  # atno 17321 bound_to 7965
  139.6428  144.7656  151.2304 LP  0  0  0  0  0  0  0  0  0  0  0  0  # atno 17342 bound_to 10162
  140.7498  143.6288  150.8442 LP  0  0  0  0  0  0  0  0  0  0  0  0  # atno 17343 bound_to 10162
  155.9724  130.4645  150.6221 LP  0  0  0  0  0  0  0  0  0  0  0  0  # atno 17370 bound_to 10713
  157.3949  131.0801  151.1361 LP  0  0  0  0  0  0  0  0  0  0  0  0  # atno 17371 bound_to 10713
  141.0753  133.6778  156.2223 LP  0  0  0  0  0  0  0  0  0  0  0  0  # atno 17394 bound_to 11000
  140.6440  134.5137  157.5572 LP  0  0  0  0  0  0  0  0  0  0  0  0  # atno 17395 bound_to 11000

$$$$
