AV-unprocessed.smi:629|AV-procd|sdf|3115|dock9
  -GOLD-   22720 0 43D 1   1.00000     0.00000
 Structure written by MMmdl.
 31 32  0  0  0  0  0  0  0  0  1 V2000
  150.1044  134.5060  155.0946 C   0  0  0  0  0  0  0  0  0  0  0  0
  150.2640  135.8160  154.4827 N   0  0  0  0  0  0  0  0  0  0  0  0
  151.1075  136.7596  154.9273 C   0  0  0  0  0  0  0  0  0  0  0  0
  151.8449  136.6020  155.9001 O   0  0  0  0  0  0  0  0  0  0  0  0
  151.1316  138.0800  154.1541 C   0  0  0  0  0  0  0  0  0  0  0  0
  150.7072  139.2165  155.0291 C   0  0  0  0  0  0  0  0  0  0  0  0
  149.5104  139.2338  155.6053 N   0  0  0  0  0  0  0  0  0  0  0  0
  149.5106  140.4411  156.3180 O   0  0  0  0  0  0  0  0  0  0  0  0
  150.7217  141.0041  156.0912 C   0  0  0  0  0  0  0  0  0  0  0  0
  151.0188  142.3418  156.6839 C   0  0  0  0  0  0  0  0  0  0  0  0
  150.9931  142.3339  158.2233 C   0  0  2  0  0  0  0  0  0  0  0  0
  151.3890  143.6600  158.8219 C   0  0  0  0  0  0  0  0  0  0  0  0
  152.3613  143.5507  159.7243 C   0  0  0  0  0  0  0  0  0  0  0  0
  152.8150  142.1300  159.9095 C   0  0  0  0  0  0  0  0  0  0  0  0
  152.0169  141.3473  158.8434 C   0  0  0  0  0  0  0  0  0  0  0  0
  151.5005  140.2958  155.2774 N   0  0  0  0  0  0  0  0  0  0  0  0
  149.3528  133.9319  154.5529 H   0  0  0  0  0  0  0  0  0  0  0  0
  149.7804  134.5987  156.1320 H   0  0  0  0  0  0  0  0  0  0  0  0
  151.0421  133.9493  155.0706 H   0  0  0  0  0  0  0  0  0  0  0  0
  149.6900  136.0232  153.6779 H   0  0  0  0  0  0  0  0  0  0  0  0
  152.1372  138.2679  153.7756 H   0  0  0  0  0  0  0  0  0  0  0  0
  150.4748  138.0120  153.2858 H   0  0  0  0  0  0  0  0  0  0  0  0
  152.0100  142.6358  156.3361 H   0  0  0  0  0  0  0  0  0  0  0  0
  150.3223  143.0806  156.2851 H   0  0  0  0  0  0  0  0  0  0  0  0
  149.9951  142.0752  158.5804 H   0  0  0  0  0  0  0  0  0  0  0  0
  150.9045  144.5839  158.5413 H   0  0  0  0  0  0  0  0  0  0  0  0
  152.7862  144.3698  160.2858 H   0  0  0  0  0  0  0  0  0  0  0  0
  153.8912  142.0433  159.7567 H   0  0  0  0  0  0  0  0  0  0  0  0
  152.5764  141.7946  160.9193 H   0  0  0  0  0  0  0  0  0  0  0  0
  151.5209  140.4772  159.2751 H   0  0  0  0  0  0  0  0  0  0  0  0
  152.7047  140.9754  158.0824 H   0  0  0  0  0  0  0  0  0  0  0  0
  1  2  1  0  0  0  0
  1 17  1  0  0  0  0
  1 18  1  0  0  0  0
  1 19  1  0  0  0  0
  2  3  1  0  0  0  0
  2 20  1  0  0  0  0
  3  4  2  0  0  0  0
  3  5  1  0  0  0  0
  5  6  1  0  0  0  0
  5 21  1  0  0  0  0
  5 22  1  0  0  0  0
  6 16  1  0  0  0  0
  6  7  2  0  0  0  0
  7  8  1  0  0  0  0
  8  9  1  0  0  0  0
  9 10  1  0  0  0  0
  9 16  2  0  0  0  0
 10 11  1  0  0  0  0
 10 23  1  0  0  0  0
 10 24  1  0  0  0  0
 11 15  1  0  0  0  0
 11 12  1  0  0  0  0
 11 25  1  0  0  0  0
 12 13  2  0  0  0  0
 12 26  1  0  0  0  0
 13 14  1  0  0  0  0
 13 27  1  0  0  0  0
 14 15  1  0  0  0  0
 14 28  1  0  0  0  0
 14 29  1  0  0  0  0
 15 30  1  0  0  0  0
 15 31  1  0  0  0  0
M  END
> <s_m_source_file>
AV-unprocessed.smi

> <i_m_source_file_index>
629

> <i_lp_mmshare_version>
43012

> <i_f3d_flags>
0

> <s_epik_input>
W0NIM11bTkhdQyg9TylbQ0gyXWMxbm9jKG4xKVtDSDJdW0NAQEhdMltDSF09W0NIXVtDSDJdW0NIMl0y

> <s_epik_cmdline>
J2VwaWtfcHl0aG9uJywgJy1waCcsICc3LjAnLCAnLXRuJywgJzgnLCAnLW1hJywgJzIwMCcsICctbWV0YWxfYmluZGluZycsICctaW1hZScsICc8aW5maWxlLm1hZT4nLCAnLW9tYWUnLCAnPG91dGZpbGUubWFlPic=

> <r_lp_tautomer_probability>
1

> <r_epik_Ionization_Penalty>
1.02915e-07

> <r_epik_Ionization_Penalty_Charging>
0

> <r_epik_Ionization_Penalty_Neutral>
1.02915e-07

> <r_epik_State_Penalty>
-0

> <r_epik_Charging_Adjusted_Penalty>
0

> <i_epik_Tot_Q>
0

> <i_epik_Tot_abs_Q>
0

> <r_epik_Metal_State_Penalty>
-0

> <b_epik_Metal_Only>
0

> <s_lp_Force_Field>
OPLS_2005

> <r_lp_Energy>
15.6926

> <b_lp_Chiralities_Consistent>
1

> <s_lp_Variant>
AV-unprocessed.smi:629-1

> <Gold.Version>
5.8.1

> <Gold.Id.Protein>
6NUR|6NUR_protein|mol2

> <Gold.PLP.Fitness>
42.5679

> <Gold.PLP.PLP>
-33.6075

> <Gold.PLP.part.hbond>
-3.8218

> <Gold.PLP.part.metal>
0.0000

> <Gold.PLP.part.buried>
-3.8871

> <Gold.PLP.part.nonpolar>
-26.7140

> <Gold.PLP.part.repulsive>
0.1924

> <Gold.PLP.ligand.clash>
0.0000

> <Gold.PLP.ligand.torsion>
0.0151

> <Gold.PLP.Chemscore.Hbond>
2.9920

> <Gold.PLP.Chemscore.CHOScore>
0.0000

> <Gold.PLP.Chemscore.Metal>
0.0000

> <Gold.Chemscore.Hbonds>
donor molecule, donor type, donor heavy atom, donor atom, acceptor molecule, acceptor atom, score
      L1  H     2    20       P1  7948  1.00
      P1  H  7989  7998       L1    16  0.80
      P1  H 10752 10765       L1     4  0.50

> <Gold.PLP.Chemscore.Internal.Correction>
0.0147

> <Gold.Rescore>
     Score         DG    S(hbond)    S(metal)    S(lipo)     H(rot)  DE(clash)    DE(int)     intcor
     17.43     -17.58       2.43        0.00      75.30       1.89       0.07       0.07       ----

> <Gold.Chemscore.Fitness>
17.4329

> <Gold.Chemscore.DG>
-17.5797

> <Gold.Chemscore.ZeroCoef>
-5.4800

> <Gold.Chemscore.Hbond>
2.4317

> <Gold.Chemscore.Metal>
0.0000

> <Gold.Chemscore.Lipo>
75.3015

> <Gold.Chemscore.Internal_Hbond>
0.0000

> <Gold.Chemscore.DEClash>
0.0722

> <Gold.Chemscore.DEInternal>
0.0746

> <Gold.Chemscore.Rot>
1.8877

> <Gold.Chemscore.Internal.Correction>
   9.000000E+99

> <Gold.Chemscore.Hbonds>
donor molecule, donor type, donor heavy atom, donor atom, acceptor molecule, acceptor atom, score
      L1  H     2    20       P1  7948  0.25
      P1  H  7989  7998       L1    16  0.13
      P1  H 10752 10765       L1     4  0.02

> <Gold.Chemscore.Hbond.Weighted>
-8.1219

> <Gold.Chemscore.Metal.Weighted>
-0.0000

> <Gold.Chemscore.Lipo.Weighted>
-8.8103

> <Gold.Chemscore.Internal_Hbond.Weighted>
0.0000

> <Gold.Chemscore.DEClash.Weighted>
0.0722

> <Gold.Chemscore.DEInternal.Weighted>
0.0746

> <Gold.Chemscore.Rot.Weighted>
4.8325

> <Gold.Chemscore.Internal.Correction.Weighted>
   9.000000E+99

> <Gold.Protein.RotatedTorsions>
[ 6907 6896 6895 6894 ] final -178.92 input  -60.11 | X-H torsion
[ 7974 7965 7964 7962 ] final  -76.06 input  175.53 | X-H torsion
[ 8008 7997 7996 7995 ] final  -28.59 input   59.86 | X-H torsion
[ 10167 10162 10161 10158 ] final   67.53 input  -65.29 | X-H torsion
[ 10718 10713 10712 10709 ] final  -66.18 input   66.30 | X-H torsion
[ 10763 10752 10751 10750 ] final -166.00 input  -60.55 | X-H torsion
[ 11005 11000 10999 10996 ] final   35.29 input  -57.11 | X-H torsion

> <Gold.Protein.ActiveResidues>
 VAL166  LYS551  ARG553  GLY616  TRP617  ASP618  TYR619  PRO620  LYS621  CYS622 
 ASP623  PHE694  ASN695  SER759  ASP760  ASP761  ALA762  ILE779  LEU786  VAL792 
 PHE793  MET794  SER795  GLU796  ALA797  LYS798  CYS799  TRP800  GLU811  SER814 

> <Gold.Protein.RotatedAtoms>
  151.6450  133.3324  159.3138 H   0  0  0  0  0  0  0  0  0  0  0  0  # atno 6907 bound_to 6896
  150.7988  134.7072  159.6592 H   0  0  0  0  0  0  0  0  0  0  0  0  # atno 6908 bound_to 6896
  152.4079  134.6180  160.0094 H   0  0  0  0  0  0  0  0  0  0  0  0  # atno 6909 bound_to 6896
  145.6178  140.9370  143.1154 H   0  0  0  0  0  0  0  0  0  0  0  0  # atno 7974 bound_to 7965
  154.4326  140.1841  156.1113 H   0  0  0  0  0  0  0  0  0  0  0  0  # atno 8008 bound_to 7997
  156.0215  140.3340  155.7018 H   0  0  0  0  0  0  0  0  0  0  0  0  # atno 8009 bound_to 7997
  155.5969  140.0636  157.2734 H   0  0  0  0  0  0  0  0  0  0  0  0  # atno 8010 bound_to 7997
  140.0886  144.5008  150.7114 H   0  0  0  0  0  0  0  0  0  0  0  0  # atno 10167 bound_to 10162
  156.0627  130.4258  150.1671 H   0  0  0  0  0  0  0  0  0  0  0  0  # atno 10718 bound_to 10713
  154.6876  135.2965  154.9525 H   0  0  0  0  0  0  0  0  0  0  0  0  # atno 10763 bound_to 10752
  154.0498  135.6646  153.4803 H   0  0  0  0  0  0  0  0  0  0  0  0  # atno 10764 bound_to 10752
  153.0590  135.5127  154.7952 H   0  0  0  0  0  0  0  0  0  0  0  0  # atno 10765 bound_to 10752
  140.2441  134.3380  155.7914 H   0  0  0  0  0  0  0  0  0  0  0  0  # atno 11005 bound_to 11000
  144.7243  139.7926  143.7370 LP  0  0  0  0  0  0  0  0  0  0  0  0  # atno 17320 bound_to 7965
  146.1455  139.4523  143.0082 LP  0  0  0  0  0  0  0  0  0  0  0  0  # atno 17321 bound_to 7965
  140.7040  143.2455  151.4780 LP  0  0  0  0  0  0  0  0  0  0  0  0  # atno 17342 bound_to 10162
  139.5738  144.1867  152.1874 LP  0  0  0  0  0  0  0  0  0  0  0  0  # atno 17343 bound_to 10162
  156.9737  130.9842  151.3453 LP  0  0  0  0  0  0  0  0  0  0  0  0  # atno 17370 bound_to 10713
  157.5647  130.8269  149.8312 LP  0  0  0  0  0  0  0  0  0  0  0  0  # atno 17371 bound_to 10713
  141.2208  133.7316  156.8933 LP  0  0  0  0  0  0  0  0  0  0  0  0  # atno 17394 bound_to 11000
  140.1623  134.9157  157.2730 LP  0  0  0  0  0  0  0  0  0  0  0  0  # atno 17395 bound_to 11000

$$$$
