AV-unprocessed.smi:2557|AV-procd|sdf|10028|dock1
  -GOLD-   2272014 73D 1   1.00000     0.00000
 Structure written by MMmdl.
 39 41  0  0  0  0  0  0  0  0  3 V2000
  150.7629  133.3290  157.3092 O   0  5  0  0  0  0  0  0  0  0  0  0
  149.9707  132.5688  156.7043 C   0  0  0  0  0  0  0  0  0  0  0  0
  149.2271  132.7261  155.5326 C   0  0  0  0  0  0  0  0  0  0  0  0
  149.3073  133.9605  154.7349 C   0  0  0  0  0  0  0  0  0  0  0  0
  149.9938  134.9450  155.0041 O   0  0  0  0  0  0  0  0  0  0  0  0
  148.5424  133.9548  153.6262 N   0  0  0  0  0  0  0  0  0  0  0  0
  147.7369  132.8792  153.2461 C   0  0  0  0  0  0  0  0  0  0  0  0
  146.9803  133.1755  151.9500 C   0  0  0  0  0  0  0  0  0  0  0  0
  146.1803  134.4946  152.0441 C   0  0  0  0  0  0  0  0  0  0  0  0
  145.4567  134.8152  150.7254 C   0  0  0  0  0  0  0  0  0  0  0  0
  144.5499  133.6552  150.2870 C   0  0  0  0  0  0  0  0  0  0  0  0
  145.3421  132.3434  150.1815 C   0  0  0  0  0  0  0  0  0  0  0  0
  146.0547  132.0184  151.5042 C   0  0  0  0  0  0  0  0  0  0  0  0
  147.6216  131.7696  153.9111 N   0  0  0  0  0  0  0  0  0  0  0  0
  148.3792  131.7003  155.0567 N   0  0  0  0  0  0  0  0  0  0  0  0
  149.8227  131.3255  157.4828 C   0  0  0  0  0  0  0  0  0  0  0  0
  149.3991  131.3652  158.8313 C   0  0  0  0  0  0  0  0  0  0  0  0
  149.2761  130.1626  159.5556 C   0  0  0  0  0  0  0  0  0  0  0  0
  149.5678  128.9861  158.9594 N   0  3  0  0  0  0  0  0  0  0  0  0
  149.9828  128.8997  157.6770 C   0  0  0  0  0  0  0  0  0  0  0  0
  150.1234  130.0703  156.9050 C   0  0  0  0  0  0  0  0  0  0  0  0
  147.7293  133.3033  151.1665 H   0  0  0  0  0  0  0  0  0  0  0  0
  145.4486  134.4252  152.8505 H   0  0  0  0  0  0  0  0  0  0  0  0
  146.8392  135.3260  152.2984 H   0  0  0  0  0  0  0  0  0  0  0  0
  144.8669  135.7254  150.8372 H   0  0  0  0  0  0  0  0  0  0  0  0
  146.1924  135.0182  149.9461 H   0  0  0  0  0  0  0  0  0  0  0  0
  143.7370  133.5346  151.0044 H   0  0  0  0  0  0  0  0  0  0  0  0
  144.0851  133.8878  149.3283 H   0  0  0  0  0  0  0  0  0  0  0  0
  144.6733  131.5262  149.9099 H   0  0  0  0  0  0  0  0  0  0  0  0
  146.0766  132.4217  149.3789 H   0  0  0  0  0  0  0  0  0  0  0  0
  146.6302  131.0990  151.3868 H   0  0  0  0  0  0  0  0  0  0  0  0
  145.3043  131.8196  152.2711 H   0  0  0  0  0  0  0  0  0  0  0  0
  148.2962  130.8323  155.5738 H   0  0  0  0  0  0  0  0  0  0  0  0
  149.1715  132.3113  159.3008 H   0  0  0  0  0  0  0  0  0  0  0  0
  148.9578  130.1075  160.5862 H   0  0  0  0  0  0  0  0  0  0  0  0
  150.1893  127.9052  157.3099 H   0  0  0  0  0  0  0  0  0  0  0  0
  150.4567  130.0106  155.8791 H   0  0  0  0  0  0  0  0  0  0  0  0
  148.5584  134.7778  153.0424 H   0  0  0  0  0  0  0  0  0  0  0  0
  149.4733  128.1271  159.5014 H   0  0  0  0  0  0  0  0  0  0  0  0
  1  2  1  0  0  0  0
  2  3  2  0  0  0  0
  2 16  1  0  0  0  0
  3 15  1  0  0  0  0
  3  4  1  0  0  0  0
  4  5  2  0  0  0  0
  4  6  1  0  0  0  0
  6  7  1  0  0  0  0
  6 38  1  0  0  0  0
  7  8  1  0  0  0  0
  7 14  2  0  0  0  0
  8 13  1  0  0  0  0
  8  9  1  0  0  0  0
  8 22  1  0  0  0  0
  9 10  1  0  0  0  0
  9 23  1  0  0  0  0
  9 24  1  0  0  0  0
 10 11  1  0  0  0  0
 10 25  1  0  0  0  0
 10 26  1  0  0  0  0
 11 12  1  0  0  0  0
 11 27  1  0  0  0  0
 11 28  1  0  0  0  0
 12 13  1  0  0  0  0
 12 29  1  0  0  0  0
 12 30  1  0  0  0  0
 13 31  1  0  0  0  0
 13 32  1  0  0  0  0
 14 15  1  0  0  0  0
 15 33  1  0  0  0  0
 16 21  1  0  0  0  0
 16 17  2  0  0  0  0
 17 18  1  0  0  0  0
 17 34  1  0  0  0  0
 18 19  2  0  0  0  0
 18 35  1  0  0  0  0
 19 20  1  0  0  0  0
 19 39  1  0  0  0  0
 20 21  2  0  0  0  0
 20 36  1  0  0  0  0
 21 37  1  0  0  0  0
M  CHG  1   1  -1
M  CHG  1  19   1
M  END
> <s_m_source_file>
AV-unprocessed.smi

> <i_m_source_file_index>
2557

> <i_lp_mmshare_version>
43012

> <i_f3d_flags>
0

> <s_epik_input>
W2NIXTFbY0hdbltjSF1bY0hdYzFDKD1PKUMyPUMoW09IXSlOPUMoW05IXVtOSF0yKVtDSF0zW0NIMl1bQ0gyXVtDSDJdW0NIMl1bQ0gyXTM=

> <s_epik_cmdline>
J2VwaWtfcHl0aG9uJywgJy1waCcsICc3LjAnLCAnLXRuJywgJzgnLCAnLW1hJywgJzIwMCcsICctbWV0YWxfYmluZGluZycsICctaW1hZScsICc8aW5maWxlLm1hZT4nLCAnLW9tYWUnLCAnPG91dGZpbGUubWFlPic=

> <r_epik_Ionization_Penalty>
1.90808

> <r_epik_Ionization_Penalty_Charging>
1.90154

> <r_epik_Ionization_Penalty_Neutral>
0.00653609

> <r_epik_State_Penalty>
1.20174

> <r_epik_Charging_Adjusted_Penalty>
3.10328

> <i_epik_Tot_Q>
0

> <i_epik_Tot_abs_Q>
2

> <r_epik_Metal_State_Penalty>
5.22546

> <b_epik_Metal_Only>
0

> <s_epik_Chemistry_Notes>
This compound has an imine and may undergo hydrolysis.

> <s_lp_Force_Field>
OPLS_2005

> <r_lp_Energy>
32.353

> <b_lp_Chiralities_Consistent>
1

> <s_lp_Variant>
AV-unprocessed.smi:2557-2

> <Gold.Version>
5.8.1

> <Gold.Id.Protein>
6NUR|6NUR_protein|mol2

> <Gold.PLP.Fitness>
35.4888

> <Gold.PLP.PLP>
-27.2698

> <Gold.PLP.part.hbond>
-2.0000

> <Gold.PLP.part.metal>
0.0000

> <Gold.PLP.part.buried>
-3.7545

> <Gold.PLP.part.nonpolar>
-22.0209

> <Gold.PLP.part.repulsive>
0.2046

> <Gold.PLP.ligand.clash>
0.0000

> <Gold.PLP.ligand.torsion>
1.1137

> <Gold.PLP.Chemscore.Hbond>
2.7600

> <Gold.PLP.Chemscore.CHOScore>
0.0000

> <Gold.PLP.Chemscore.Metal>
0.0000

> <Gold.Chemscore.Hbonds>
donor molecule, donor type, donor heavy atom, donor atom, acceptor molecule, acceptor atom, score
      L1  H     6    38       P1  7948  1.00
      P1  H  6896  6909       L1     1  1.73

> <Gold.PLP.Chemscore.Internal.Correction>
2.1665

> <Gold.Rescore>
     Score         DG    S(hbond)    S(metal)    S(lipo)     H(rot)  DE(clash)    DE(int)     intcor
     14.24     -15.53       1.58        0.00      62.67       1.00       0.00       1.29       ----

> <Gold.Chemscore.Fitness>
14.2365

> <Gold.Chemscore.DG>
-15.5262

> <Gold.Chemscore.ZeroCoef>
-5.4800

> <Gold.Chemscore.Hbond>
1.5790

> <Gold.Chemscore.Metal>
0.0000

> <Gold.Chemscore.Lipo>
62.6706

> <Gold.Chemscore.Internal_Hbond>
0.0000

> <Gold.Chemscore.DEClash>
0.0042

> <Gold.Chemscore.DEInternal>
1.2855

> <Gold.Chemscore.Rot>
1.0000

> <Gold.Chemscore.Internal.Correction>
   9.000000E+99

> <Gold.Chemscore.Hbonds>
donor molecule, donor type, donor heavy atom, donor atom, acceptor molecule, acceptor atom, score
      L1  H     6    38       P1  7948  0.45
      P1  H  6896  6909       L1     1  0.86

> <Gold.Chemscore.Hbond.Weighted>
-5.2738

> <Gold.Chemscore.Metal.Weighted>
-0.0000

> <Gold.Chemscore.Lipo.Weighted>
-7.3325

> <Gold.Chemscore.Internal_Hbond.Weighted>
0.0000

> <Gold.Chemscore.DEClash.Weighted>
0.0042

> <Gold.Chemscore.DEInternal.Weighted>
1.2855

> <Gold.Chemscore.Rot.Weighted>
2.5600

> <Gold.Chemscore.Internal.Correction.Weighted>
   9.000000E+99

> <Gold.Protein.RotatedTorsions>
[ 6907 6896 6895 6894 ] final  -27.07 input  -60.11 | X-H torsion
[ 7974 7965 7964 7962 ] final  -36.72 input  175.53 | X-H torsion
[ 8008 7997 7996 7995 ] final  -94.97 input   59.86 | X-H torsion
[ 10167 10162 10161 10158 ] final -176.27 input  -65.29 | X-H torsion
[ 10718 10713 10712 10709 ] final    3.54 input   66.30 | X-H torsion
[ 10763 10752 10751 10750 ] final -174.77 input  -60.55 | X-H torsion
[ 11005 11000 10999 10996 ] final -102.53 input  -57.11 | X-H torsion

> <Gold.Protein.ActiveResidues>
 VAL166  LYS551  ARG553  GLY616  TRP617  ASP618  TYR619  PRO620  LYS621  CYS622 
 ASP623  PHE694  ASN695  SER759  ASP760  ASP761  ALA762  ILE779  LEU786  VAL792 
 PHE793  MET794  SER795  GLU796  ALA797  LYS798  CYS799  TRP800  GLU811  SER814 

> <Gold.Protein.RotatedAtoms>
  151.1520  135.0232  159.8672 H   0  0  0  0  0  0  0  0  0  0  0  0  # atno 6907 bound_to 6896
  152.5452  134.1377  159.8476 H   0  0  0  0  0  0  0  0  0  0  0  0  # atno 6908 bound_to 6896
  151.1463  133.4891  159.2628 H   0  0  0  0  0  0  0  0  0  0  0  0  # atno 6909 bound_to 6896
  146.0637  140.6311  142.8985 H   0  0  0  0  0  0  0  0  0  0  0  0  # atno 7974 bound_to 7965
  154.7553  140.0484  157.0928 H   0  0  0  0  0  0  0  0  0  0  0  0  # atno 8008 bound_to 7997
  155.0006  140.3124  155.4849 H   0  0  0  0  0  0  0  0  0  0  0  0  # atno 8009 bound_to 7997
  156.2893  140.2202  156.5115 H   0  0  0  0  0  0  0  0  0  0  0  0  # atno 8010 bound_to 7997
  139.5538  144.2041  152.1124 H   0  0  0  0  0  0  0  0  0  0  0  0  # atno 10167 bound_to 10162
  156.8793  130.5648  149.5654 H   0  0  0  0  0  0  0  0  0  0  0  0  # atno 10718 bound_to 10713
  154.5923  135.2846  155.0622 H   0  0  0  0  0  0  0  0  0  0  0  0  # atno 10763 bound_to 10752
  154.1918  135.6439  153.5066 H   0  0  0  0  0  0  0  0  0  0  0  0  # atno 10764 bound_to 10752
  153.0126  135.5448  154.6613 H   0  0  0  0  0  0  0  0  0  0  0  0  # atno 10765 bound_to 10752
  141.1185  133.8566  157.1371 H   0  0  0  0  0  0  0  0  0  0  0  0  # atno 11005 bound_to 11000
  144.7190  140.4309  143.7022 LP  0  0  0  0  0  0  0  0  0  0  0  0  # atno 17320 bound_to 7965
  145.6514  139.1565  143.2860 LP  0  0  0  0  0  0  0  0  0  0  0  0  # atno 17321 bound_to 7965
  140.1542  144.5087  150.6670 LP  0  0  0  0  0  0  0  0  0  0  0  0  # atno 17342 bound_to 10162
  140.6806  143.2325  151.5393 LP  0  0  0  0  0  0  0  0  0  0  0  0  # atno 17343 bound_to 10162
  156.0685  130.5723  150.9337 LP  0  0  0  0  0  0  0  0  0  0  0  0  # atno 17370 bound_to 10713
  157.6150  131.0934  150.8727 LP  0  0  0  0  0  0  0  0  0  0  0  0  # atno 17371 bound_to 10713
  140.0125  134.9982  157.0424 LP  0  0  0  0  0  0  0  0  0  0  0  0  # atno 17394 bound_to 11000
  140.4576  134.1518  155.7188 LP  0  0  0  0  0  0  0  0  0  0  0  0  # atno 17395 bound_to 11000

$$$$
