AV-unprocessed.smi:610|AV-procd|sdf|3055|dock3
  -GOLD-   2262023573D 1   1.00000     0.00000
 Structure written by MMmdl.
 38 39  0  0  0  0  0  0  0  0  2 V2000
  144.1504  136.4912  154.4080 C   0  0  0  0  0  0  0  0  0  0  0  0
  143.8696  137.8432  153.7356 C   0  0  2  0  0  0  0  0  0  0  0  0
  142.8614  137.7059  152.5785 C   0  0  0  0  0  0  0  0  0  0  0  0
  141.5146  137.4504  153.0565 N   0  0  0  0  0  0  0  0  0  0  0  0
  140.4031  138.2693  152.9083 C   0  0  0  0  0  0  0  0  0  0  0  0
  139.3487  137.6114  153.5003 C   0  0  0  0  0  0  0  0  0  0  0  0
  139.7861  136.3935  154.0164 N   0  0  0  0  0  0  0  0  0  0  0  0
  141.0795  136.3718  153.7225 C   0  0  0  0  0  0  0  0  0  0  0  0
  145.1153  138.4213  153.2374 N   0  0  0  0  0  0  0  0  0  0  0  0
  146.2543  138.5608  153.9348 C   0  0  0  0  0  0  0  0  0  0  0  0
  146.3756  138.1496  155.0893 O   0  0  0  0  0  0  0  0  0  0  0  0
  147.4390  139.2945  153.2629 C   0  0  0  0  0  0  0  0  0  0  0  0
  147.7767  138.5447  152.0385 N   0  3  0  0  0  0  0  0  0  0  0  0
  147.0678  140.7521  152.9402 C   0  0  0  0  0  0  0  0  0  0  0  0
  147.3428  141.5358  154.2316 C   0  0  0  0  0  0  0  0  0  0  0  0
  148.3978  140.7291  155.0057 C   0  0  0  0  0  0  0  0  0  0  0  0
  148.6824  139.4807  154.1583 C   0  0  0  0  0  0  0  0  0  0  0  0
  143.2309  136.0436  154.7863 H   0  0  0  0  0  0  0  0  0  0  0  0
  144.8305  136.6041  155.2531 H   0  0  0  0  0  0  0  0  0  0  0  0
  144.6011  135.7858  153.7092 H   0  0  0  0  0  0  0  0  0  0  0  0
  143.4337  138.5101  154.4821 H   0  0  0  0  0  0  0  0  0  0  0  0
  142.8524  138.6084  151.9653 H   0  0  0  0  0  0  0  0  0  0  0  0
  143.1492  136.8837  151.9223 H   0  0  0  0  0  0  0  0  0  0  0  0
  140.4524  139.2235  152.4044 H   0  0  0  0  0  0  0  0  0  0  0  0
  138.3170  137.9176  153.5927 H   0  0  0  0  0  0  0  0  0  0  0  0
  141.7231  135.5457  153.9878 H   0  0  0  0  0  0  0  0  0  0  0  0
  145.0979  138.7762  152.2921 H   0  0  0  0  0  0  0  0  0  0  0  0
  148.1619  137.6445  152.2858 H   0  0  0  0  0  0  0  0  0  0  0  0
  148.4563  139.0694  151.5062 H   0  0  0  0  0  0  0  0  0  0  0  0
  147.7136  141.1336  152.1476 H   0  0  0  0  0  0  0  0  0  0  0  0
  146.0393  140.8790  152.5985 H   0  0  0  0  0  0  0  0  0  0  0  0
  147.6786  142.5511  154.0185 H   0  0  0  0  0  0  0  0  0  0  0  0
  146.4309  141.6132  154.8253 H   0  0  0  0  0  0  0  0  0  0  0  0
  149.3067  141.3069  155.1773 H   0  0  0  0  0  0  0  0  0  0  0  0
  148.0043  140.4459  155.9828 H   0  0  0  0  0  0  0  0  0  0  0  0
  148.9349  138.6098  154.7650 H   0  0  0  0  0  0  0  0  0  0  0  0
  149.5544  139.6775  153.5321 H   0  0  0  0  0  0  0  0  0  0  0  0
  146.9437  138.4166  151.4820 H   0  0  0  0  0  0  0  0  0  0  0  0
  1  2  1  0  0  0  0
  1 18  1  0  0  0  0
  1 19  1  0  0  0  0
  1 20  1  0  0  0  0
  2  3  1  0  0  0  0
  2  9  1  0  0  0  0
  2 21  1  0  0  0  0
  3  4  1  0  0  0  0
  3 22  1  0  0  0  0
  3 23  1  0  0  0  0
  4  8  1  0  0  0  0
  4  5  1  0  0  0  0
  5  6  2  0  0  0  0
  5 24  1  0  0  0  0
  6  7  1  0  0  0  0
  6 25  1  0  0  0  0
  7  8  2  0  0  0  0
  8 26  1  0  0  0  0
  9 10  1  0  0  0  0
  9 27  1  0  0  0  0
 10 11  2  0  0  0  0
 10 12  1  0  0  0  0
 12 17  1  0  0  0  0
 12 13  1  0  0  0  0
 12 14  1  0  0  0  0
 13 28  1  0  0  0  0
 13 29  1  0  0  0  0
 13 38  1  0  0  0  0
 14 15  1  0  0  0  0
 14 30  1  0  0  0  0
 14 31  1  0  0  0  0
 15 16  1  0  0  0  0
 15 32  1  0  0  0  0
 15 33  1  0  0  0  0
 16 17  1  0  0  0  0
 16 34  1  0  0  0  0
 16 35  1  0  0  0  0
 17 36  1  0  0  0  0
 17 37  1  0  0  0  0
M  CHG  1  13   1
M  END
> <s_m_source_file>
AV-unprocessed.smi

> <i_m_source_file_index>
610

> <i_lp_mmshare_version>
43012

> <i_f3d_flags>
0

> <s_epik_input>
W2NIXTFuW2NIXVtjSF1uMVtDSDJdW0NAQEhdKFtDSDNdKVtOSF1DKD1PKUMyKFtOSDJdKVtDSDJdW0NIMl1bQ0gyXVtDSDJdMg==

> <s_epik_cmdline>
J2VwaWtfcHl0aG9uJywgJy1waCcsICc3LjAnLCAnLXRuJywgJzgnLCAnLW1hJywgJzIwMCcsICctbWV0YWxfYmluZGluZycsICctaW1hZScsICc8aW5maWxlLm1hZT4nLCAnLW9tYWUnLCAnPG91dGZpbGUubWFlPic=

> <r_lp_tautomer_probability>
1

> <r_epik_Ionization_Penalty>
0.661147

> <r_epik_Ionization_Penalty_Charging>
0.661145

> <r_epik_Ionization_Penalty_Neutral>
1.19451e-06

> <r_epik_State_Penalty>
0.679243

> <r_epik_Charging_Adjusted_Penalty>
1.34039

> <i_epik_Tot_Q>
1

> <i_epik_Tot_abs_Q>
1

> <r_epik_Metal_State_Penalty>
0.372892

> <b_epik_Metal_Only>
0

> <s_lp_Force_Field>
OPLS_2005

> <r_lp_Energy>
25.3563

> <b_lp_Chiralities_Consistent>
1

> <s_lp_Variant>
AV-unprocessed.smi:610-3

> <Gold.Version>
5.8.1

> <Gold.Id.Protein>
6NUR|6NUR_protein|mol2

> <Gold.PLP.Fitness>
42.1144

> <Gold.PLP.PLP>
-27.3032

> <Gold.PLP.part.hbond>
-3.9185

> <Gold.PLP.part.metal>
0.0000

> <Gold.PLP.part.buried>
-2.1200

> <Gold.PLP.part.nonpolar>
-21.6334

> <Gold.PLP.part.repulsive>
0.2519

> <Gold.PLP.ligand.clash>
0.0000

> <Gold.PLP.ligand.torsion>
0.1945

> <Gold.PLP.Chemscore.Hbond>
4.0390

> <Gold.PLP.Chemscore.CHOScore>
1.0000

> <Gold.PLP.Chemscore.Metal>
0.0000

> <Gold.Chemscore.Hbonds>
donor molecule, donor type, donor heavy atom, donor atom, acceptor molecule, acceptor atom, score
      L1  H     9    27       P1 10175  0.03
      L1  H    13    28       P1  7948  1.95
      L1  H    13    29       P1  7957  0.94
      L1  C     5    24       P1 10160  0.94

> <Gold.PLP.Chemscore.Internal.Correction>
0.0832

> <Gold.Rescore>
     Score         DG    S(hbond)    S(metal)    S(lipo)     H(rot)  DE(clash)    DE(int)     intcor
     15.61     -17.09       3.25        0.00      50.06       2.00       0.01       1.47       ----

> <Gold.Chemscore.Fitness>
15.6093

> <Gold.Chemscore.DG>
-17.0881

> <Gold.Chemscore.ZeroCoef>
-5.4800

> <Gold.Chemscore.Hbond>
3.2527

> <Gold.Chemscore.Metal>
0.0000

> <Gold.Chemscore.Lipo>
50.0594

> <Gold.Chemscore.Internal_Hbond>
0.0000

> <Gold.Chemscore.DEClash>
0.0135

> <Gold.Chemscore.DEInternal>
1.4653

> <Gold.Chemscore.Rot>
1.9972

> <Gold.Chemscore.Internal.Correction>
   9.000000E+99

> <Gold.Chemscore.Hbonds>
donor molecule, donor type, donor heavy atom, donor atom, acceptor molecule, acceptor atom, score
      L1  H     9    27       P1 10175  0.04
      L1  H    13    28       P1  7948  0.93
      L1  H    13    29       P1  7957  0.63

> <Gold.Chemscore.Hbond.Weighted>
-10.8639

> <Gold.Chemscore.Metal.Weighted>
-0.0000

> <Gold.Chemscore.Lipo.Weighted>
-5.8570

> <Gold.Chemscore.Internal_Hbond.Weighted>
0.0000

> <Gold.Chemscore.DEClash.Weighted>
0.0135

> <Gold.Chemscore.DEInternal.Weighted>
1.4653

> <Gold.Chemscore.Rot.Weighted>
5.1127

> <Gold.Chemscore.Internal.Correction.Weighted>
   9.000000E+99

> <Gold.Protein.RotatedTorsions>
[ 6907 6896 6895 6894 ] final  -95.31 input  -60.11 | X-H torsion
[ 7974 7965 7964 7962 ] final   99.16 input  175.53 | X-H torsion
[ 8008 7997 7996 7995 ] final   84.21 input   59.86 | X-H torsion
[ 10167 10162 10161 10158 ] final   92.08 input  -65.29 | X-H torsion
[ 10718 10713 10712 10709 ] final -122.70 input   66.30 | X-H torsion
[ 10763 10752 10751 10750 ] final  178.22 input  -60.55 | X-H torsion
[ 11005 11000 10999 10996 ] final   67.44 input  -57.11 | X-H torsion

> <Gold.Protein.ActiveResidues>
 VAL166  LYS551  ARG553  GLY616  TRP617  ASP618  TYR619  PRO620  LYS621  CYS622 
 ASP623  PHE694  ASN695  SER759  ASP760  ASP761  ALA762  ILE779  LEU786  VAL792 
 PHE793  MET794  SER795  GLU796  ALA797  LYS798  CYS799  TRP800  GLU811  SER814 

> <Gold.Protein.RotatedAtoms>
  150.6961  134.1677  159.4199 H   0  0  0  0  0  0  0  0  0  0  0  0  # atno 6907 bound_to 6896
  151.9655  135.0100  160.0559 H   0  0  0  0  0  0  0  0  0  0  0  0  # atno 6908 bound_to 6896
  152.1888  133.4723  159.5034 H   0  0  0  0  0  0  0  0  0  0  0  0  # atno 6909 bound_to 6896
  145.4026  139.2345  143.3292 H   0  0  0  0  0  0  0  0  0  0  0  0  # atno 7974 bound_to 7965
  155.9340  140.3413  155.6273 H   0  0  0  0  0  0  0  0  0  0  0  0  # atno 8008 bound_to 7997
  155.7122  140.0773  157.2385 H   0  0  0  0  0  0  0  0  0  0  0  0  # atno 8009 bound_to 7997
  154.4090  140.1620  156.2296 H   0  0  0  0  0  0  0  0  0  0  0  0  # atno 8010 bound_to 7997
  139.8312  144.6686  150.9398 H   0  0  0  0  0  0  0  0  0  0  0  0  # atno 10167 bound_to 10162
  156.1440  130.6487  150.9815 H   0  0  0  0  0  0  0  0  0  0  0  0  # atno 10718 bound_to 10713
  154.5048  135.2785  155.1391 H   0  0  0  0  0  0  0  0  0  0  0  0  # atno 10763 bound_to 10752
  154.3010  135.6248  153.5428 H   0  0  0  0  0  0  0  0  0  0  0  0  # atno 10764 bound_to 10752
  152.9908  135.5697  154.5500 H   0  0  0  0  0  0  0  0  0  0  0  0  # atno 10765 bound_to 10752
  139.9771  134.6805  156.0334 H   0  0  0  0  0  0  0  0  0  0  0  0  # atno 11005 bound_to 11000
  146.2744  140.4725  142.8801 LP  0  0  0  0  0  0  0  0  0  0  0  0  # atno 17320 bound_to 7965
  144.8364  140.6788  143.6258 LP  0  0  0  0  0  0  0  0  0  0  0  0  # atno 17321 bound_to 7965
  140.7806  143.3999  151.1166 LP  0  0  0  0  0  0  0  0  0  0  0  0  # atno 17342 bound_to 10162
  139.7653  143.8575  152.3109 LP  0  0  0  0  0  0  0  0  0  0  0  0  # atno 17343 bound_to 10162
  157.6601  131.0882  150.7858 LP  0  0  0  0  0  0  0  0  0  0  0  0  # atno 17370 bound_to 10713
  156.7931  130.4896  149.5381 LP  0  0  0  0  0  0  0  0  0  0  0  0  # atno 17371 bound_to 10713
  141.1447  133.6558  156.3831 LP  0  0  0  0  0  0  0  0  0  0  0  0  # atno 17394 bound_to 11000
  140.5173  134.6338  157.5306 LP  0  0  0  0  0  0  0  0  0  0  0  0  # atno 17395 bound_to 11000

$$$$
