AV-unprocessed.smi:3097|AV-procd|sdf|11799|dock5
  -GOLD-   2272017173D 1   1.00000     0.00000
 Structure written by MMmdl.
 35 35  0  0  0  0  0  0  0  0  2 V2000
  152.1948  138.3818  154.8481 C   0  0  0  0  0  0  0  0  0  0  0  0
  150.8308  137.9985  154.2655 C   0  0  0  0  0  0  0  0  0  0  0  0
  149.8526  139.1791  154.2415 C   0  0  0  0  0  0  0  0  0  0  0  0
  148.6020  138.8169  153.5638 N   0  0  0  0  0  0  0  0  0  0  0  0
  147.4940  139.5797  153.4898 C   0  0  0  0  0  0  0  0  0  0  0  0
  147.4706  140.7880  154.0853 N   0  3  0  0  0  0  0  0  0  0  0  0
  146.3373  141.7206  154.0838 C   0  0  0  0  0  0  0  0  0  0  0  0
  146.4093  139.1405  152.8199 N   0  0  0  0  0  0  0  0  0  0  0  0
  146.2903  137.8647  152.0969 C   0  0  0  0  0  0  0  0  0  0  0  0
  145.0509  137.0706  152.5410 C   0  0  0  0  0  0  0  0  0  0  0  0
  145.0082  135.7422  151.9584 N   0  0  0  0  0  0  0  0  0  0  0  0
  145.9824  134.7660  151.9763 C   0  0  0  0  0  0  0  0  0  0  0  0
  145.4875  133.6865  151.3023 C   0  0  0  0  0  0  0  0  0  0  0  0
  144.1896  134.1062  150.8976 C   0  0  0  0  0  0  0  0  0  0  0  0
  143.9038  135.3356  151.2957 N   0  0  0  0  0  0  0  0  0  0  0  0
  152.8698  137.5258  154.8531 H   0  0  0  0  0  0  0  0  0  0  0  0
  152.0991  138.7356  155.8750 H   0  0  0  0  0  0  0  0  0  0  0  0
  152.6647  139.1727  154.2626 H   0  0  0  0  0  0  0  0  0  0  0  0
  150.9688  137.6155  153.2541 H   0  0  0  0  0  0  0  0  0  0  0  0
  150.4061  137.1809  154.8493 H   0  0  0  0  0  0  0  0  0  0  0  0
  149.6247  139.4994  155.2587 H   0  0  0  0  0  0  0  0  0  0  0  0
  150.3002  140.0289  153.7251 H   0  0  0  0  0  0  0  0  0  0  0  0
  148.5933  137.9228  153.0928 H   0  0  0  0  0  0  0  0  0  0  0  0
  146.5928  142.6234  154.6385 H   0  0  0  0  0  0  0  0  0  0  0  0
  145.4660  141.2622  154.5519 H   0  0  0  0  0  0  0  0  0  0  0  0
  146.0779  142.0040  153.0634 H   0  0  0  0  0  0  0  0  0  0  0  0
  145.6064  139.7515  152.7737 H   0  0  0  0  0  0  0  0  0  0  0  0
  146.2934  138.0274  151.0189 H   0  0  0  0  0  0  0  0  0  0  0  0
  147.1831  137.2810  152.3211 H   0  0  0  0  0  0  0  0  0  0  0  0
  145.0381  136.9726  153.6272 H   0  0  0  0  0  0  0  0  0  0  0  0
  144.1389  137.6020  152.2660 H   0  0  0  0  0  0  0  0  0  0  0  0
  146.9343  134.9177  152.4637 H   0  0  0  0  0  0  0  0  0  0  0  0
  145.9793  132.7420  151.1220 H   0  0  0  0  0  0  0  0  0  0  0  0
  143.4500  133.5565  150.3345 H   0  0  0  0  0  0  0  0  0  0  0  0
  148.2980  141.0899  154.5798 H   0  0  0  0  0  0  0  0  0  0  0  0
  1  2  1  0  0  0  0
  1 16  1  0  0  0  0
  1 17  1  0  0  0  0
  1 18  1  0  0  0  0
  2  3  1  0  0  0  0
  2 19  1  0  0  0  0
  2 20  1  0  0  0  0
  3  4  1  0  0  0  0
  3 21  1  0  0  0  0
  3 22  1  0  0  0  0
  4  5  1  0  0  0  0
  4 23  1  0  0  0  0
  5  6  2  0  0  0  0
  5  8  1  0  0  0  0
  6  7  1  0  0  0  0
  6 35  1  0  0  0  0
  7 24  1  0  0  0  0
  7 25  1  0  0  0  0
  7 26  1  0  0  0  0
  8  9  1  0  0  0  0
  8 27  1  0  0  0  0
  9 10  1  0  0  0  0
  9 28  1  0  0  0  0
  9 29  1  0  0  0  0
 10 11  1  0  0  0  0
 10 30  1  0  0  0  0
 10 31  1  0  0  0  0
 11 15  1  0  0  0  0
 11 12  1  0  0  0  0
 12 13  2  0  0  0  0
 12 32  1  0  0  0  0
 13 14  1  0  0  0  0
 13 33  1  0  0  0  0
 14 15  2  0  0  0  0
 14 34  1  0  0  0  0
M  CHG  1   6   1
M  END
> <s_m_source_file>
AV-unprocessed.smi

> <i_m_source_file_index>
3097

> <i_lp_mmshare_version>
43012

> <i_f3d_flags>
0

> <s_epik_input>
W0NIM11bQ0gyXVtDSDJdW05IXS9DKD1OXFtDSDNdKVtOSF1bQ0gyXVtDSDJdbjFbY0hdW2NIXVtjSF1uMQ==

> <s_epik_cmdline>
J2VwaWtfcHl0aG9uJywgJy1waCcsICc3LjAnLCAnLXRuJywgJzgnLCAnLW1hJywgJzIwMCcsICctbWV0YWxfYmluZGluZycsICctaW1hZScsICc8aW5maWxlLm1hZT4nLCAnLW9tYWUnLCAnPG91dGZpbGUubWFlPic=

> <r_lp_tautomer_probability>
1

> <r_epik_Ionization_Penalty>
4.40305e-05

> <r_epik_Ionization_Penalty_Charging>
1.64417e-07

> <r_epik_Ionization_Penalty_Neutral>
4.38661e-05

> <r_epik_State_Penalty>
-0

> <r_epik_Charging_Adjusted_Penalty>
1.64417e-07

> <i_epik_Tot_Q>
1

> <i_epik_Tot_abs_Q>
1

> <r_epik_Metal_State_Penalty>
-0

> <b_epik_Metal_Only>
0

> <s_epik_Chemistry_Notes>
This compound has an imine and may undergo hydrolysis.

> <s_lp_Force_Field>
OPLS_2005

> <r_lp_Energy>
5.03608

> <b_lp_Chiralities_Consistent>
1

> <s_lp_Variant>
AV-unprocessed.smi:3097-2

> <Gold.Version>
5.8.1

> <Gold.Id.Protein>
6NUR|6NUR_protein|mol2

> <Gold.PLP.Fitness>
45.5709

> <Gold.PLP.PLP>
-27.9460

> <Gold.PLP.part.hbond>
-3.0000

> <Gold.PLP.part.metal>
0.0000

> <Gold.PLP.part.buried>
-1.5007

> <Gold.PLP.part.nonpolar>
-25.6777

> <Gold.PLP.part.repulsive>
0.3608

> <Gold.PLP.ligand.clash>
0.0000

> <Gold.PLP.ligand.torsion>
0.1182

> <Gold.PLP.Chemscore.Hbond>
3.9825

> <Gold.PLP.Chemscore.CHOScore>
1.9673

> <Gold.PLP.Chemscore.Metal>
0.0000

> <Gold.Chemscore.Hbonds>
donor molecule, donor type, donor heavy atom, donor atom, acceptor molecule, acceptor atom, score
      L1  H     4    23       P1  7948  1.62
      L1  H     8    27       P1 10175  1.79
      L1  C    12    32       P1  7948  1.00
      L1  C    14    34       P1 10186  0.53

> <Gold.PLP.Chemscore.Internal.Correction>
0.0120

> <Gold.Rescore>
     Score         DG    S(hbond)    S(metal)    S(lipo)     H(rot)  DE(clash)    DE(int)     intcor
     13.87     -13.97       1.90        0.00      58.88       1.86       0.03       0.07       ----

> <Gold.Chemscore.Fitness>
13.8703

> <Gold.Chemscore.DG>
-13.9681

> <Gold.Chemscore.ZeroCoef>
-5.4800

> <Gold.Chemscore.Hbond>
1.9013

> <Gold.Chemscore.Metal>
0.0000

> <Gold.Chemscore.Lipo>
58.8846

> <Gold.Chemscore.Internal_Hbond>
0.0000

> <Gold.Chemscore.DEClash>
0.0256

> <Gold.Chemscore.DEInternal>
0.0722

> <Gold.Chemscore.Rot>
1.8561

> <Gold.Chemscore.Internal.Correction>
   9.000000E+99

> <Gold.Chemscore.Hbonds>
donor molecule, donor type, donor heavy atom, donor atom, acceptor molecule, acceptor atom, score
      L1  H     4    23       P1  7948  0.80
      L1  H     8    27       P1 10175  0.85

> <Gold.Chemscore.Hbond.Weighted>
-6.3503

> <Gold.Chemscore.Metal.Weighted>
-0.0000

> <Gold.Chemscore.Lipo.Weighted>
-6.8895

> <Gold.Chemscore.Internal_Hbond.Weighted>
0.0000

> <Gold.Chemscore.DEClash.Weighted>
0.0256

> <Gold.Chemscore.DEInternal.Weighted>
0.0722

> <Gold.Chemscore.Rot.Weighted>
4.7517

> <Gold.Chemscore.Internal.Correction.Weighted>
   9.000000E+99

> <Gold.Protein.RotatedTorsions>
[ 6907 6896 6895 6894 ] final  -48.57 input  -60.11 | X-H torsion
[ 7974 7965 7964 7962 ] final  -85.23 input  175.53 | X-H torsion
[ 8008 7997 7996 7995 ] final -133.48 input   59.86 | X-H torsion
[ 10167 10162 10161 10158 ] final   86.66 input  -65.29 | X-H torsion
[ 10718 10713 10712 10709 ] final  -55.47 input   66.30 | X-H torsion
[ 10763 10752 10751 10750 ] final  126.87 input  -60.55 | X-H torsion
[ 11005 11000 10999 10996 ] final  129.69 input  -57.11 | X-H torsion

> <Gold.Protein.ActiveResidues>
 VAL166  LYS551  ARG553  GLY616  TRP617  ASP618  TYR619  PRO620  LYS621  CYS622 
 ASP623  PHE694  ASN695  SER759  ASP760  ASP761  ALA762  ILE779  LEU786  VAL792 
 PHE793  MET794  SER795  GLU796  ALA797  LYS798  CYS799  TRP800  GLU811  SER814 

> <Gold.Protein.RotatedAtoms>
  150.8892  134.8294  159.7280 H   0  0  0  0  0  0  0  0  0  0  0  0  # atno 6907 bound_to 6896
  152.4826  134.4674  159.9634 H   0  0  0  0  0  0  0  0  0  0  0  0  # atno 6908 bound_to 6896
  151.4739  133.3523  159.2863 H   0  0  0  0  0  0  0  0  0  0  0  0  # atno 6909 bound_to 6896
  145.4960  140.9550  143.1786 H   0  0  0  0  0  0  0  0  0  0  0  0  # atno 7974 bound_to 7965
  155.3462  140.0475  157.3045 H   0  0  0  0  0  0  0  0  0  0  0  0  # atno 8008 bound_to 7997
  154.5251  140.2238  155.8869 H   0  0  0  0  0  0  0  0  0  0  0  0  # atno 8009 bound_to 7997
  156.1731  140.3091  155.9016 H   0  0  0  0  0  0  0  0  0  0  0  0  # atno 8010 bound_to 7997
  139.8852  144.6417  150.8799 H   0  0  0  0  0  0  0  0  0  0  0  0  # atno 10167 bound_to 10162
  156.1366  130.4156  150.0175 H   0  0  0  0  0  0  0  0  0  0  0  0  # atno 10718 bound_to 10713
  153.7003  135.3284  155.3223 H   0  0  0  0  0  0  0  0  0  0  0  0  # atno 10763 bound_to 10752
  154.8415  135.4452  154.1418 H   0  0  0  0  0  0  0  0  0  0  0  0  # atno 10764 bound_to 10752
  153.2484  135.6978  153.7785 H   0  0  0  0  0  0  0  0  0  0  0  0  # atno 10765 bound_to 10752
  139.9629  134.9598  156.9185 H   0  0  0  0  0  0  0  0  0  0  0  0  # atno 11005 bound_to 11000
  144.7807  139.6532  143.7155 LP  0  0  0  0  0  0  0  0  0  0  0  0  # atno 17320 bound_to 7965
  146.2255  139.5715  142.9590 LP  0  0  0  0  0  0  0  0  0  0  0  0  # atno 17321 bound_to 7965
  140.7737  143.3553  151.1933 LP  0  0  0  0  0  0  0  0  0  0  0  0  # atno 17342 bound_to 10162
  139.7159  143.9301  152.2966 LP  0  0  0  0  0  0  0  0  0  0  0  0  # atno 17343 bound_to 10162
  156.8072  130.9312  151.3645 LP  0  0  0  0  0  0  0  0  0  0  0  0  # atno 17370 bound_to 10713
  157.6538  130.8907  149.9687 LP  0  0  0  0  0  0  0  0  0  0  0  0  # atno 17371 bound_to 10713
  140.5459  134.0674  155.7355 LP  0  0  0  0  0  0  0  0  0  0  0  0  # atno 17394 bound_to 11000
  141.1308  133.9306  157.2540 LP  0  0  0  0  0  0  0  0  0  0  0  0  # atno 17395 bound_to 11000

$$$$
