AV-unprocessed.smi:227|AV-procd|sdf|1728|dock6
  -GOLD-   2262020213D 1   1.00000     0.00000
 Structure written by MMmdl.
 54 58  0  0  0  0  0  0  0  0  1 V2000
  147.8078  137.2950  161.8366 O   0  0  0  0  0  0  0  0  0  0  0  0
  147.6423  136.0273  162.4381 C   0  0  0  0  0  0  0  0  0  0  0  0
  146.9902  135.0135  161.4630 C   0  0  1  0  0  0  0  0  0  0  0  0
  147.8874  134.7814  160.2107 C   0  0  0  0  0  0  0  0  0  0  0  0
  147.8669  135.8742  159.2489 N   0  0  0  0  0  0  0  0  0  0  0  0
  146.7953  136.2815  158.4887 C   0  0  0  0  0  0  0  0  0  0  0  0
  147.0270  137.2937  157.6999 N   0  0  0  0  0  0  0  0  0  0  0  0
  148.3648  137.6051  157.9157 C   0  0  0  0  0  0  0  0  0  0  0  0
  149.2631  138.5879  157.4007 C   0  0  0  0  0  0  0  0  0  0  0  0
  148.9345  139.5457  156.4885 N   0  0  0  0  0  0  0  0  0  0  0  0
  148.0895  140.6775  156.8429 C   0  0  2  0  0  0  0  0  0  0  0  0
  147.8599  141.3575  155.4823 C   0  0  0  0  0  0  0  0  0  0  0  0
  149.2073  141.1092  154.7904 C   0  0  0  0  0  0  0  0  0  0  0  0
  149.9824  140.3684  155.8959 C   0  0  1  0  0  0  0  0  0  0  0  0
  150.3772  141.3233  157.0528 C   0  0  1  0  0  0  0  0  0  0  0  0
  151.1637  142.5868  156.6592 C   0  0  0  0  0  0  0  0  0  0  0  0
  150.8967  143.6233  157.5795 O   0  0  0  0  0  0  0  0  0  0  0  0
  149.0024  141.5777  157.7006 C   0  0  0  0  0  0  0  0  0  0  0  0
  150.5467  138.5479  157.8479 N   0  0  0  0  0  0  0  0  0  0  0  0
  150.9269  137.6381  158.7477 C   0  0  0  0  0  0  0  0  0  0  0  0
  150.1977  136.6837  159.3249 N   0  0  0  0  0  0  0  0  0  0  0  0
  148.9109  136.7039  158.8759 C   0  0  0  0  0  0  0  0  0  0  0  0
  146.6067  133.6809  162.1816 C   0  0  2  0  0  0  0  0  0  0  0  0
  147.6961  132.6125  162.1285 C   0  0  0  0  0  0  0  0  0  0  0  0
  147.4366  131.8766  160.8122 C   0  0  0  0  0  0  0  0  0  0  0  0
  146.1030  132.2011  160.4377 O   0  0  0  0  0  0  0  0  0  0  0  0
  145.4783  132.8804  161.5153 C   0  0  0  0  0  0  0  0  0  0  0  0
  147.0557  137.8277  162.0464 H   0  0  0  0  0  0  0  0  0  0  0  0
  148.6054  135.6671  162.7990 H   0  0  0  0  0  0  0  0  0  0  0  0
  147.0220  136.1952  163.3156 H   0  0  0  0  0  0  0  0  0  0  0  0
  146.0665  135.4716  161.1068 H   0  0  0  0  0  0  0  0  0  0  0  0
  148.9213  134.5973  160.4979 H   0  0  0  0  0  0  0  0  0  0  0  0
  147.5867  133.8727  159.6887 H   0  0  0  0  0  0  0  0  0  0  0  0
  145.8265  135.8063  158.5431 H   0  0  0  0  0  0  0  0  0  0  0  0
  147.1451  140.4320  157.3244 H   0  0  0  0  0  0  0  0  0  0  0  0
  147.0528  140.8711  154.9334 H   0  0  0  0  0  0  0  0  0  0  0  0
  147.6174  142.4168  155.5748 H   0  0  0  0  0  0  0  0  0  0  0  0
  149.0707  140.4610  153.9239 H   0  0  0  0  0  0  0  0  0  0  0  0
  149.6902  142.0212  154.4422 H   0  0  0  0  0  0  0  0  0  0  0  0
  150.8291  139.8096  155.4958 H   0  0  0  0  0  0  0  0  0  0  0  0
  150.9918  140.7556  157.7538 H   0  0  0  0  0  0  0  0  0  0  0  0
  152.2351  142.3846  156.6654 H   0  0  0  0  0  0  0  0  0  0  0  0
  150.8996  142.9329  155.6602 H   0  0  0  0  0  0  0  0  0  0  0  0
  150.2460  144.1966  157.2044 H   0  0  0  0  0  0  0  0  0  0  0  0
  148.6953  142.6240  157.6743 H   0  0  0  0  0  0  0  0  0  0  0  0
  149.0059  141.2565  158.7431 H   0  0  0  0  0  0  0  0  0  0  0  0
  151.9629  137.6829  159.0498 H   0  0  0  0  0  0  0  0  0  0  0  0
  146.3344  133.9001  163.2146 H   0  0  0  0  0  0  0  0  0  0  0  0
  148.7163  132.9835  162.1986 H   0  0  0  0  0  0  0  0  0  0  0  0
  147.5557  131.9201  162.9600 H   0  0  0  0  0  0  0  0  0  0  0  0
  148.1161  132.2137  160.0289 H   0  0  0  0  0  0  0  0  0  0  0  0
  147.5576  130.7990  160.9264 H   0  0  0  0  0  0  0  0  0  0  0  0
  145.0939  132.1334  162.2120 H   0  0  0  0  0  0  0  0  0  0  0  0
  144.6221  133.4624  161.1829 H   0  0  0  0  0  0  0  0  0  0  0  0
  1  2  1  0  0  0  0
  1 28  1  0  0  0  0
  2  3  1  0  0  0  0
  2 29  1  0  0  0  0
  2 30  1  0  0  0  0
  3  4  1  0  0  0  0
  3 23  1  0  0  0  0
  3 31  1  0  0  0  0
  4  5  1  0  0  0  0
  4 32  1  0  0  0  0
  4 33  1  0  0  0  0
  5 22  1  0  0  0  0
  5  6  1  0  0  0  0
  6  7  2  0  0  0  0
  6 34  1  0  0  0  0
  7  8  1  0  0  0  0
  8 22  2  0  0  0  0
  8  9  1  0  0  0  0
  9 10  1  0  0  0  0
  9 19  2  0  0  0  0
 10 14  1  0  0  0  0
 10 11  1  0  0  0  0
 11 18  1  0  0  0  0
 11 12  1  0  0  0  0
 11 35  1  0  0  0  0
 12 13  1  0  0  0  0
 12 36  1  0  0  0  0
 12 37  1  0  0  0  0
 13 14  1  0  0  0  0
 13 38  1  0  0  0  0
 13 39  1  0  0  0  0
 14 15  1  0  0  0  0
 14 40  1  0  0  0  0
 15 16  1  0  0  0  0
 15 18  1  0  0  0  0
 15 41  1  0  0  0  0
 16 17  1  0  0  0  0
 16 42  1  0  0  0  0
 16 43  1  0  0  0  0
 17 44  1  0  0  0  0
 18 45  1  0  0  0  0
 18 46  1  0  0  0  0
 19 20  1  0  0  0  0
 20 21  2  0  0  0  0
 20 47  1  0  0  0  0
 21 22  1  0  0  0  0
 23 27  1  0  0  0  0
 23 24  1  0  0  0  0
 23 48  1  0  0  0  0
 24 25  1  0  0  0  0
 24 49  1  0  0  0  0
 24 50  1  0  0  0  0
 25 26  1  0  0  0  0
 25 51  1  0  0  0  0
 25 52  1  0  0  0  0
 26 27  1  0  0  0  0
 27 53  1  0  0  0  0
 27 54  1  0  0  0  0
M  END
> <s_m_source_file>
AV-unprocessed.smi

> <i_m_source_file_index>
227

> <i_lp_mmshare_version>
43012

> <i_f3d_flags>
0

> <s_epik_input>
W0NIMl0xT1tDSDJdW0NIMl1bQ0BIXTFbQ0BIXShbQ0gyXVtPSF0pW0NIMl1uKFtjSF1uMiljKGMyMyluW2NIXW5jM04oW0NASF00NSlbQ0BASF0oW0NIMl1bQ0gyXTQpW0NASF0oW0NIMl01KVtDSDJdW09IXQ==

> <s_epik_cmdline>
J2VwaWtfcHl0aG9uJywgJy1waCcsICc3LjAnLCAnLXRuJywgJzgnLCAnLW1hJywgJzIwMCcsICctbWV0YWxfYmluZGluZycsICctaW1hZScsICc8aW5maWxlLm1hZT4nLCAnLW9tYWUnLCAnPG91dGZpbGUubWFlPic=

> <r_lp_tautomer_probability>
1

> <r_epik_Ionization_Penalty>
0.0055791

> <r_epik_Ionization_Penalty_Charging>
0

> <r_epik_Ionization_Penalty_Neutral>
0.0055791

> <r_epik_State_Penalty>
0.00401299

> <r_epik_Charging_Adjusted_Penalty>
0.00401299

> <i_epik_Tot_Q>
0

> <i_epik_Tot_abs_Q>
0

> <r_epik_Metal_State_Penalty>
-0

> <b_epik_Metal_Only>
0

> <s_lp_Force_Field>
OPLS_2005

> <r_lp_Energy>
90.5153

> <b_lp_Chiralities_Consistent>
1

> <s_lp_Variant>
AV-unprocessed.smi:227-2

> <Gold.Version>
5.8.1

> <Gold.Id.Protein>
6NUR|6NUR_protein|mol2

> <Gold.PLP.Fitness>
45.1582

> <Gold.PLP.PLP>
-38.5739

> <Gold.PLP.part.hbond>
-3.8242

> <Gold.PLP.part.metal>
0.0000

> <Gold.PLP.part.buried>
-5.5154

> <Gold.PLP.part.nonpolar>
-29.5492

> <Gold.PLP.part.repulsive>
0.0000

> <Gold.PLP.ligand.clash>
0.0000

> <Gold.PLP.ligand.torsion>
1.2954

> <Gold.PLP.Chemscore.Hbond>
3.0000

> <Gold.PLP.Chemscore.CHOScore>
0.0000

> <Gold.PLP.Chemscore.Metal>
0.0000

> <Gold.Chemscore.Hbonds>
donor molecule, donor type, donor heavy atom, donor atom, acceptor molecule, acceptor atom, score
      L1  H    17    44       P1  8028  0.83
      P1  H  6896  6909       L1    21  1.00
      P1  H  6931  6943       L1     1  1.00

> <Gold.PLP.Chemscore.Internal.Correction>
0.1751

> <Gold.Rescore>
     Score         DG    S(hbond)    S(metal)    S(lipo)     H(rot)  DE(clash)    DE(int)     intcor
     10.52     -15.47       2.73        0.00      86.31       3.61       0.02       4.93       ----

> <Gold.Chemscore.Fitness>
10.5178

> <Gold.Chemscore.DG>
-15.4716

> <Gold.Chemscore.ZeroCoef>
-5.4800

> <Gold.Chemscore.Hbond>
2.7328

> <Gold.Chemscore.Metal>
0.0000

> <Gold.Chemscore.Lipo>
86.3105

> <Gold.Chemscore.Internal_Hbond>
0.0000

> <Gold.Chemscore.DEClash>
0.0241

> <Gold.Chemscore.DEInternal>
4.9297

> <Gold.Chemscore.Rot>
3.6071

> <Gold.Chemscore.Internal.Correction>
   9.000000E+99

> <Gold.Chemscore.Hbonds>
donor molecule, donor type, donor heavy atom, donor atom, acceptor molecule, acceptor atom, score
      L1  H    17    44       P1  8028  0.65
      P1  H  6896  6909       L1    21  0.90
      P1  H  6931  6943       L1     1  0.45

> <Gold.Chemscore.Hbond.Weighted>
-9.1274

> <Gold.Chemscore.Metal.Weighted>
-0.0000

> <Gold.Chemscore.Lipo.Weighted>
-10.0983

> <Gold.Chemscore.Internal_Hbond.Weighted>
0.0000

> <Gold.Chemscore.DEClash.Weighted>
0.0241

> <Gold.Chemscore.DEInternal.Weighted>
4.9297

> <Gold.Chemscore.Rot.Weighted>
9.2342

> <Gold.Chemscore.Internal.Correction.Weighted>
   9.000000E+99

> <Gold.Protein.RotatedTorsions>
[ 6907 6896 6895 6894 ] final   97.21 input  -60.11 | X-H torsion
[ 7974 7965 7964 7962 ] final    3.09 input  175.53 | X-H torsion
[ 8008 7997 7996 7995 ] final -156.44 input   59.86 | X-H torsion
[ 10167 10162 10161 10158 ] final    0.59 input  -65.29 | X-H torsion
[ 10718 10713 10712 10709 ] final   18.27 input   66.30 | X-H torsion
[ 10763 10752 10751 10750 ] final  -66.84 input  -60.55 | X-H torsion
[ 11005 11000 10999 10996 ] final    6.93 input  -57.11 | X-H torsion

> <Gold.Protein.ActiveResidues>
 VAL166  LYS551  ARG553  GLY616  TRP617  ASP618  TYR619  PRO620  LYS621  CYS622 
 ASP623  PHE694  ASN695  SER759  ASP760  ASP761  ALA762  ILE779  LEU786  VAL792 
 PHE793  MET794  SER795  GLU796  ALA797  LYS798  CYS799  TRP800  GLU811  SER814 

> <Gold.Protein.RotatedAtoms>
  152.5426  134.0768  159.8217 H   0  0  0  0  0  0  0  0  0  0  0  0  # atno 6907 bound_to 6896
  151.0875  133.5334  159.2624 H   0  0  0  0  0  0  0  0  0  0  0  0  # atno 6908 bound_to 6896
  151.2138  135.0500  159.8976 H   0  0  0  0  0  0  0  0  0  0  0  0  # atno 6909 bound_to 6896
  146.2445  140.0737  142.8361 H   0  0  0  0  0  0  0  0  0  0  0  0  # atno 7974 bound_to 7965
  155.7172  140.0785  157.2346 H   0  0  0  0  0  0  0  0  0  0  0  0  # atno 8008 bound_to 7997
  154.4050  140.1619  156.2416 H   0  0  0  0  0  0  0  0  0  0  0  0  # atno 8009 bound_to 7997
  155.9229  140.3396  155.6190 H   0  0  0  0  0  0  0  0  0  0  0  0  # atno 8010 bound_to 7997
  140.6722  143.7017  150.7946 H   0  0  0  0  0  0  0  0  0  0  0  0  # atno 10167 bound_to 10162
  157.0939  130.6439  149.5855 H   0  0  0  0  0  0  0  0  0  0  0  0  # atno 10718 bound_to 10713
  154.3657  135.6106  153.5713 H   0  0  0  0  0  0  0  0  0  0  0  0  # atno 10763 bound_to 10752
  152.9792  135.5826  154.4581 H   0  0  0  0  0  0  0  0  0  0  0  0  # atno 10764 bound_to 10752
  154.4326  135.2848  155.1879 H   0  0  0  0  0  0  0  0  0  0  0  0  # atno 10765 bound_to 10752
  140.5539  134.0257  155.7947 H   0  0  0  0  0  0  0  0  0  0  0  0  # atno 11005 bound_to 11000
  145.0793  140.9210  143.4835 LP  0  0  0  0  0  0  0  0  0  0  0  0  # atno 17320 bound_to 7965
  145.0887  139.2906  143.5746 LP  0  0  0  0  0  0  0  0  0  0  0  0  # atno 17321 bound_to 7965
  140.0704  143.5066  152.2582 LP  0  0  0  0  0  0  0  0  0  0  0  0  # atno 17342 bound_to 10162
  139.5996  144.7578  151.3204 LP  0  0  0  0  0  0  0  0  0  0  0  0  # atno 17343 bound_to 10162
  155.9891  130.4937  150.7198 LP  0  0  0  0  0  0  0  0  0  0  0  0  # atno 17370 bound_to 10713
  157.4698  131.0892  151.0655 LP  0  0  0  0  0  0  0  0  0  0  0  0  # atno 17371 bound_to 10713
  141.1155  133.9547  157.2830 LP  0  0  0  0  0  0  0  0  0  0  0  0  # atno 17394 bound_to 11000
  139.9441  135.0187  156.8799 LP  0  0  0  0  0  0  0  0  0  0  0  0  # atno 17395 bound_to 11000

$$$$
