AV-unprocessed.smi:1248|AV-procd|sdf|5251|dock7
  -GOLD-   22720 4363D 1   1.00000     0.00000
 Structure written by MMmdl.
 44 46  0  0  0  0  0  0  0  0  2 V2000
  150.7849  142.0116  157.0627 C   0  0  0  0  0  0  0  0  0  0  0  0
  151.2728  140.6713  156.5006 C   0  0  0  0  0  0  0  0  0  0  0  0
  150.3231  140.1052  155.5627 N   0  0  0  0  0  0  0  0  0  0  0  0
  149.7183  138.8645  155.6032 C   0  0  0  0  0  0  0  0  0  0  0  0
  148.9145  138.8067  154.5046 C   0  0  0  0  0  0  0  0  0  0  0  0
  148.1054  137.6979  154.1513 N   0  0  0  0  0  0  0  0  0  0  0  0
  146.9801  137.7147  153.4191 C   0  0  0  0  0  0  0  0  0  0  0  0
  146.4551  138.7240  152.9493 O   0  0  0  0  0  0  0  0  0  0  0  0
  146.4869  136.4788  153.2536 N   0  0  0  0  0  0  0  0  0  0  0  0
  145.2768  136.1508  152.5048 C   0  0  2  0  0  0  0  0  0  0  0  0
  144.6847  134.8291  153.0234 C   0  0  0  0  0  0  0  0  0  0  0  0
  143.4598  134.3997  152.1927 C   0  0  0  0  0  0  0  0  0  0  0  0
  143.7702  134.3105  150.7427 N   0  3  2  0  0  0  0  0  0  0  0  0
  144.5757  133.1185  150.3871 C   0  0  0  0  0  0  0  0  0  0  0  0
  144.1162  132.4301  149.1231 C   0  0  0  0  0  0  0  0  0  0  0  0
  143.8063  131.8210  150.4723 C   0  0  0  0  0  0  0  0  0  0  0  0
  144.3319  135.5796  150.2138 C   0  0  0  0  0  0  0  0  0  0  0  0
  145.5771  136.0334  150.9980 C   0  0  0  0  0  0  0  0  0  0  0  0
  149.0772  140.0542  153.8383 C   0  0  0  0  0  0  0  0  0  0  0  0
  149.9305  140.8319  154.4876 N   0  0  0  0  0  0  0  0  0  0  0  0
  151.5093  142.4244  157.7646 H   0  0  0  0  0  0  0  0  0  0  0  0
  149.8386  141.8946  157.5914 H   0  0  0  0  0  0  0  0  0  0  0  0
  150.6376  142.7433  156.2677 H   0  0  0  0  0  0  0  0  0  0  0  0
  152.2326  140.7975  155.9976 H   0  0  0  0  0  0  0  0  0  0  0  0
  151.4310  139.9578  157.3103 H   0  0  0  0  0  0  0  0  0  0  0  0
  149.9097  138.1505  156.3906 H   0  0  0  0  0  0  0  0  0  0  0  0
  148.4239  136.7983  154.4803 H   0  0  0  0  0  0  0  0  0  0  0  0
  146.9842  135.7094  153.6779 H   0  0  0  0  0  0  0  0  0  0  0  0
  144.5385  136.9400  152.6600 H   0  0  0  0  0  0  0  0  0  0  0  0
  145.4418  134.0444  152.9967 H   0  0  0  0  0  0  0  0  0  0  0  0
  144.3959  134.9363  154.0696 H   0  0  0  0  0  0  0  0  0  0  0  0
  143.0735  133.4443  152.5495 H   0  0  0  0  0  0  0  0  0  0  0  0
  142.6565  135.1251  152.3281 H   0  0  0  0  0  0  0  0  0  0  0  0
  145.6341  133.1465  150.6392 H   0  0  0  0  0  0  0  0  0  0  0  0
  143.2887  132.8679  148.5679 H   0  0  0  0  0  0  0  0  0  0  0  0
  144.8741  131.9383  148.5166 H   0  0  0  0  0  0  0  0  0  0  0  0
  144.3588  130.9267  150.7535 H   0  0  0  0  0  0  0  0  0  0  0  0
  142.7724  131.8544  150.8114 H   0  0  0  0  0  0  0  0  0  0  0  0
  144.5682  135.4706  149.1548 H   0  0  0  0  0  0  0  0  0  0  0  0
  143.5619  136.3494  150.2779 H   0  0  0  0  0  0  0  0  0  0  0  0
  145.9194  136.9922  150.6068 H   0  0  0  0  0  0  0  0  0  0  0  0
  146.3944  135.3301  150.8339 H   0  0  0  0  0  0  0  0  0  0  0  0
  148.6233  140.4213  152.9301 H   0  0  0  0  0  0  0  0  0  0  0  0
  142.8845  134.1808  150.2749 H   0  0  0  0  0  0  0  0  0  0  0  0
  1  2  1  0  0  0  0
  1 21  1  0  0  0  0
  1 22  1  0  0  0  0
  1 23  1  0  0  0  0
  2  3  1  0  0  0  0
  2 24  1  0  0  0  0
  2 25  1  0  0  0  0
  3 20  1  0  0  0  0
  3  4  1  0  0  0  0
  4  5  2  0  0  0  0
  4 26  1  0  0  0  0
  5  6  1  0  0  0  0
  5 19  1  0  0  0  0
  6  7  1  0  0  0  0
  6 27  1  0  0  0  0
  7  8  2  0  0  0  0
  7  9  1  0  0  0  0
  9 10  1  0  0  0  0
  9 28  1  0  0  0  0
 10 18  1  0  0  0  0
 10 11  1  0  0  0  0
 10 29  1  0  0  0  0
 11 12  1  0  0  0  0
 11 30  1  0  0  0  0
 11 31  1  0  0  0  0
 12 13  1  0  0  0  0
 12 32  1  0  0  0  0
 12 33  1  0  0  0  0
 13 14  1  0  0  0  0
 13 17  1  0  0  0  0
 13 44  1  0  0  0  0
 14 16  1  0  0  0  0
 14 15  1  0  0  0  0
 14 34  1  0  0  0  0
 15 16  1  0  0  0  0
 15 35  1  0  0  0  0
 15 36  1  0  0  0  0
 16 37  1  0  0  0  0
 16 38  1  0  0  0  0
 17 18  1  0  0  0  0
 17 39  1  0  0  0  0
 17 40  1  0  0  0  0
 18 41  1  0  0  0  0
 18 42  1  0  0  0  0
 19 20  2  0  0  0  0
 19 43  1  0  0  0  0
M  CHG  1  13   1
M  END
> <s_m_source_file>
AV-unprocessed.smi

> <i_m_source_file_index>
1248

> <i_lp_mmshare_version>
43012

> <i_f3d_flags>
0

> <s_epik_input>
W0NIM11bQ0gyXW4xW2NIXWMoW2NIXW4xKVtOSF1DKD1PKVtOSF1bQ0hdMltDSDJdW0NIMl1OKFtDSDJdW0NIMl0yKVtDSF0zW0NIMl1bQ0gyXTM=

> <s_epik_cmdline>
J2VwaWtfcHl0aG9uJywgJy1waCcsICc3LjAnLCAnLXRuJywgJzgnLCAnLW1hJywgJzIwMCcsICctbWV0YWxfYmluZGluZycsICctaW1hZScsICc8aW5maWxlLm1hZT4nLCAnLW9tYWUnLCAnPG91dGZpbGUubWFlPic=

> <r_lp_tautomer_probability>
1

> <r_epik_Ionization_Penalty>
0.115699

> <r_epik_Ionization_Penalty_Charging>
0.115549

> <r_epik_Ionization_Penalty_Neutral>
0.00014958

> <r_epik_State_Penalty>
0.105184

> <r_epik_Charging_Adjusted_Penalty>
0.220733

> <i_epik_Tot_Q>
1

> <i_epik_Tot_abs_Q>
1

> <r_epik_Metal_State_Penalty>
0.105189

> <b_epik_Metal_Only>
0

> <s_lp_Force_Field>
OPLS_2005

> <r_lp_Energy>
31.7182

> <b_lp_Chiralities_Consistent>
1

> <s_lp_Variant>
AV-unprocessed.smi:1248-2

> <Gold.Version>
5.8.1

> <Gold.Id.Protein>
6NUR|6NUR_protein|mol2

> <Gold.PLP.Fitness>
41.9274

> <Gold.PLP.PLP>
-32.5519

> <Gold.PLP.part.hbond>
-4.0000

> <Gold.PLP.part.metal>
0.0000

> <Gold.PLP.part.buried>
1.2322

> <Gold.PLP.part.nonpolar>
-30.4161

> <Gold.PLP.part.repulsive>
0.3986

> <Gold.PLP.ligand.clash>
0.0000

> <Gold.PLP.ligand.torsion>
1.1512

> <Gold.PLP.Chemscore.Hbond>
2.7040

> <Gold.PLP.Chemscore.CHOScore>
0.7641

> <Gold.PLP.Chemscore.Metal>
0.0000

> <Gold.Chemscore.Hbonds>
donor molecule, donor type, donor heavy atom, donor atom, acceptor molecule, acceptor atom, score
      L1  H    13    44       P1 10186  2.00
      P1  H  7989  7998       L1    20  0.69
      L1  C    19    43       P1  7957  0.76

> <Gold.PLP.Chemscore.Internal.Correction>
1.2738

> <Gold.Rescore>
     Score         DG    S(hbond)    S(metal)    S(lipo)     H(rot)  DE(clash)    DE(int)     intcor
     13.87     -18.20       1.72        0.00      89.11       1.34       3.19       1.14       ----

> <Gold.Chemscore.Fitness>
13.8710

> <Gold.Chemscore.DG>
-18.1985

> <Gold.Chemscore.ZeroCoef>
-5.4800

> <Gold.Chemscore.Hbond>
1.7163

> <Gold.Chemscore.Metal>
0.0000

> <Gold.Chemscore.Lipo>
89.1135

> <Gold.Chemscore.Internal_Hbond>
0.0000

> <Gold.Chemscore.DEClash>
3.1853

> <Gold.Chemscore.DEInternal>
1.1422

> <Gold.Chemscore.Rot>
1.3438

> <Gold.Chemscore.Internal.Correction>
   9.000000E+99

> <Gold.Chemscore.Hbonds>
donor molecule, donor type, donor heavy atom, donor atom, acceptor molecule, acceptor atom, score
      L1  H    13    44       P1 10186  0.86
      P1  H  7989  7998       L1    20  0.12

> <Gold.Chemscore.Hbond.Weighted>
-5.7323

> <Gold.Chemscore.Metal.Weighted>
-0.0000

> <Gold.Chemscore.Lipo.Weighted>
-10.4263

> <Gold.Chemscore.Internal_Hbond.Weighted>
0.0000

> <Gold.Chemscore.DEClash.Weighted>
3.1853

> <Gold.Chemscore.DEInternal.Weighted>
1.1422

> <Gold.Chemscore.Rot.Weighted>
3.4401

> <Gold.Chemscore.Internal.Correction.Weighted>
   9.000000E+99

> <Gold.Protein.RotatedTorsions>
[ 6907 6896 6895 6894 ] final   49.49 input  -60.11 | X-H torsion
[ 7974 7965 7964 7962 ] final   90.20 input  175.53 | X-H torsion
[ 8008 7997 7996 7995 ] final -131.33 input   59.86 | X-H torsion
[ 10167 10162 10161 10158 ] final  114.02 input  -65.29 | X-H torsion
[ 10718 10713 10712 10709 ] final  -39.78 input   66.30 | X-H torsion
[ 10763 10752 10751 10750 ] final  175.86 input  -60.55 | X-H torsion
[ 11005 11000 10999 10996 ] final  -23.22 input  -57.11 | X-H torsion

> <Gold.Protein.ActiveResidues>
 VAL166  LYS551  ARG553  GLY616  TRP617  ASP618  TYR619  PRO620  LYS621  CYS622 
 ASP623  PHE694  ASN695  SER759  ASP760  ASP761  ALA762  ILE779  LEU786  VAL792 
 PHE793  MET794  SER795  GLU796  ALA797  LYS798  CYS799  TRP800  GLU811  SER814 

> <Gold.Protein.RotatedAtoms>
  152.2913  134.7718  160.0376 H   0  0  0  0  0  0  0  0  0  0  0  0  # atno 6907 bound_to 6896
  151.8263  133.3396  159.3607 H   0  0  0  0  0  0  0  0  0  0  0  0  # atno 6908 bound_to 6896
  150.7232  134.5455  159.5813 H   0  0  0  0  0  0  0  0  0  0  0  0  # atno 6909 bound_to 6896
  145.5221  139.2280  143.2666 H   0  0  0  0  0  0  0  0  0  0  0  0  # atno 7974 bound_to 7965
  155.3106  140.0457  157.3034 H   0  0  0  0  0  0  0  0  0  0  0  0  # atno 8008 bound_to 7997
  154.5435  140.2295  155.8568 H   0  0  0  0  0  0  0  0  0  0  0  0  # atno 8009 bound_to 7997
  156.1903  140.3052  155.9325 H   0  0  0  0  0  0  0  0  0  0  0  0  # atno 8010 bound_to 7997
  139.6419  144.7124  151.2220 H   0  0  0  0  0  0  0  0  0  0  0  0  # atno 10167 bound_to 10162
  156.2886  130.4225  149.8262 H   0  0  0  0  0  0  0  0  0  0  0  0  # atno 10718 bound_to 10713
  154.4733  135.2772  155.1626 H   0  0  0  0  0  0  0  0  0  0  0  0  # atno 10763 bound_to 10752
  154.3366  135.6179  153.5580 H   0  0  0  0  0  0  0  0  0  0  0  0  # atno 10764 bound_to 10752
  152.9866  135.5778  154.5119 H   0  0  0  0  0  0  0  0  0  0  0  0  # atno 10765 bound_to 10752
  140.8731  133.7706  156.0211 H   0  0  0  0  0  0  0  0  0  0  0  0  # atno 11005 bound_to 11000
  146.2099  140.6034  142.9064 LP  0  0  0  0  0  0  0  0  0  0  0  0  # atno 17320 bound_to 7965
  144.7670  140.5553  143.6696 LP  0  0  0  0  0  0  0  0  0  0  0  0  # atno 17321 bound_to 7965
  140.7495  143.6298  150.8434 LP  0  0  0  0  0  0  0  0  0  0  0  0  # atno 17342 bound_to 10162
  139.9936  143.5820  152.2901 LP  0  0  0  0  0  0  0  0  0  0  0  0  # atno 17343 bound_to 10162
  156.5683  130.8413  151.3349 LP  0  0  0  0  0  0  0  0  0  0  0  0  # atno 17370 bound_to 10713
  157.7336  130.9733  150.1985 LP  0  0  0  0  0  0  0  0  0  0  0  0  # atno 17371 bound_to 10713
  140.8549  134.2909  157.5259 LP  0  0  0  0  0  0  0  0  0  0  0  0  # atno 17394 bound_to 11000
  139.8713  134.9488  156.4006 LP  0  0  0  0  0  0  0  0  0  0  0  0  # atno 17395 bound_to 11000

$$$$
