AV-unprocessed.smi:772|AV-procd|sdf|3686|dock1
  -GOLD-   22720 1103D 1   1.00000     0.00000
 Structure written by MMmdl.
 46 47  0  0  0  0  0  0  0  0  1 V2000
  151.2502  144.9583  158.3287 C   0  0  0  0  0  0  0  0  0  0  0  0
  151.9255  144.0841  159.3646 C   0  0  0  0  0  0  0  0  0  0  0  0
  151.7421  144.3216  160.7430 C   0  0  0  0  0  0  0  0  0  0  0  0
  152.3955  143.4777  161.6612 C   0  0  0  0  0  0  0  0  0  0  0  0
  153.2054  142.4337  161.1685 C   0  0  0  0  0  0  0  0  0  0  0  0
  153.9507  141.5080  162.1140 C   0  0  0  0  0  0  0  0  0  0  0  0
  154.8688  140.5027  161.3943 C   0  0  0  0  0  0  0  0  0  0  0  0
  155.1261  139.3162  162.2068 N   0  0  0  0  0  0  0  0  0  0  0  0
  155.3358  138.0721  161.7410 C   0  0  0  0  0  0  0  0  0  0  0  0
  155.2950  137.8050  160.5393 O   0  0  0  0  0  0  0  0  0  0  0  0
  155.6148  137.1484  162.6958 N   0  0  0  0  0  0  0  0  0  0  0  0
  155.3955  137.3047  164.1426 C   0  0  0  0  0  0  0  0  0  0  0  0
  154.0635  136.6384  164.5189 C   0  0  0  0  0  0  0  0  0  0  0  0
  154.1125  134.8514  164.1797 S   0  0  0  0  0  0  0  0  0  0  0  0
  154.7359  134.8623  162.4604 C   0  0  2  0  0  0  0  0  0  0  0  0
  154.9790  133.4328  161.9135 C   0  0  0  0  0  0  0  0  0  0  0  0
  155.9719  132.6441  162.7842 C   0  0  0  0  0  0  0  0  0  0  0  0
  155.3968  133.3928  160.4316 C   0  0  0  0  0  0  0  0  0  0  0  0
  155.9815  135.7698  162.3492 C   0  0  0  0  0  0  0  0  0  0  0  0
  153.3208  142.2814  159.7707 C   0  0  0  0  0  0  0  0  0  0  0  0
  152.6968  143.0847  158.8828 N   0  0  0  0  0  0  0  0  0  0  0  0
  150.6597  145.7451  158.7988 H   0  0  0  0  0  0  0  0  0  0  0  0
  150.5850  144.3615  157.7041 H   0  0  0  0  0  0  0  0  0  0  0  0
  151.9949  145.4297  157.6869 H   0  0  0  0  0  0  0  0  0  0  0  0
  151.1179  145.1313  161.0914 H   0  0  0  0  0  0  0  0  0  0  0  0
  152.2825  143.6366  162.7235 H   0  0  0  0  0  0  0  0  0  0  0  0
  154.5387  142.1081  162.8096 H   0  0  0  0  0  0  0  0  0  0  0  0
  153.2223  140.9690  162.7209 H   0  0  0  0  0  0  0  0  0  0  0  0
  154.4001  140.1822  160.4638 H   0  0  0  0  0  0  0  0  0  0  0  0
  155.8035  140.9885  161.1091 H   0  0  0  0  0  0  0  0  0  0  0  0
  155.1763  139.4552  163.2054 H   0  0  0  0  0  0  0  0  0  0  0  0
  156.2129  136.8391  164.6954 H   0  0  0  0  0  0  0  0  0  0  0  0
  155.3976  138.3453  164.4673 H   0  0  0  0  0  0  0  0  0  0  0  0
  153.8492  136.7869  165.5773 H   0  0  0  0  0  0  0  0  0  0  0  0
  153.2411  137.0858  163.9594 H   0  0  0  0  0  0  0  0  0  0  0  0
  153.9505  135.3127  161.8511 H   0  0  0  0  0  0  0  0  0  0  0  0
  154.0280  132.9033  161.9856 H   0  0  0  0  0  0  0  0  0  0  0  0
  156.9724  133.0753  162.7476 H   0  0  0  0  0  0  0  0  0  0  0  0
  156.0490  131.6093  162.4495 H   0  0  0  0  0  0  0  0  0  0  0  0
  155.6545  132.6263  163.8270 H   0  0  0  0  0  0  0  0  0  0  0  0
  156.3530  133.8890  160.2662 H   0  0  0  0  0  0  0  0  0  0  0  0
  154.6569  133.8696  159.7898 H   0  0  0  0  0  0  0  0  0  0  0  0
  155.5015  132.3636  160.0875 H   0  0  0  0  0  0  0  0  0  0  0  0
  156.4052  135.7079  161.3454 H   0  0  0  0  0  0  0  0  0  0  0  0
  156.7728  135.4237  163.0149 H   0  0  0  0  0  0  0  0  0  0  0  0
  153.9356  141.4977  159.3532 H   0  0  0  0  0  0  0  0  0  0  0  0
  1  2  1  0  0  0  0
  1 22  1  0  0  0  0
  1 23  1  0  0  0  0
  1 24  1  0  0  0  0
  2 21  1  0  0  0  0
  2  3  2  0  0  0  0
  3  4  1  0  0  0  0
  3 25  1  0  0  0  0
  4  5  2  0  0  0  0
  4 26  1  0  0  0  0
  5  6  1  0  0  0  0
  5 20  1  0  0  0  0
  6  7  1  0  0  0  0
  6 27  1  0  0  0  0
  6 28  1  0  0  0  0
  7  8  1  0  0  0  0
  7 29  1  0  0  0  0
  7 30  1  0  0  0  0
  8  9  1  0  0  0  0
  8 31  1  0  0  0  0
  9 10  2  0  0  0  0
  9 11  1  0  0  0  0
 11 19  1  0  0  0  0
 11 12  1  0  0  0  0
 12 13  1  0  0  0  0
 12 32  1  0  0  0  0
 12 33  1  0  0  0  0
 13 14  1  0  0  0  0
 13 34  1  0  0  0  0
 13 35  1  0  0  0  0
 14 15  1  0  0  0  0
 15 16  1  0  0  0  0
 15 19  1  0  0  0  0
 15 36  1  0  0  0  0
 16 17  1  0  0  0  0
 16 18  1  0  0  0  0
 16 37  1  0  0  0  0
 17 38  1  0  0  0  0
 17 39  1  0  0  0  0
 17 40  1  0  0  0  0
 18 41  1  0  0  0  0
 18 42  1  0  0  0  0
 18 43  1  0  0  0  0
 19 44  1  0  0  0  0
 19 45  1  0  0  0  0
 20 21  2  0  0  0  0
 20 46  1  0  0  0  0
M  END
> <s_m_source_file>
AV-unprocessed.smi

> <i_m_source_file_index>
772

> <i_lp_mmshare_version>
43012

> <i_f3d_flags>
0

> <s_epik_input>
W0NIM11jMVtjSF1bY0hdYyhbY0hdbjEpW0NIMl1bQ0gyXVtOSF1DKD1PKU4yW0NIMl1bQ0gyXVNbQ0BIXShbQ0gyXTIpW0NIXShbQ0gzXSlbQ0gzXQ==

> <s_epik_cmdline>
J2VwaWtfcHl0aG9uJywgJy1waCcsICc3LjAnLCAnLXRuJywgJzgnLCAnLW1hJywgJzIwMCcsICctbWV0YWxfYmluZGluZycsICctaW1hZScsICc8aW5maWxlLm1hZT4nLCAnLW9tYWUnLCAnPG91dGZpbGUubWFlPic=

> <r_epik_Ionization_Penalty>
0.0566916

> <r_epik_Ionization_Penalty_Charging>
0

> <r_epik_Ionization_Penalty_Neutral>
0.0566916

> <r_epik_State_Penalty>
0.0488669

> <r_epik_Charging_Adjusted_Penalty>
0.0488669

> <i_epik_Tot_Q>
0

> <i_epik_Tot_abs_Q>
0

> <r_epik_Metal_State_Penalty>
0.0445784

> <b_epik_Metal_Only>
0

> <s_lp_Force_Field>
OPLS_2005

> <r_lp_Energy>
25.5588

> <b_lp_Chiralities_Consistent>
1

> <s_lp_Variant>
AV-unprocessed.smi:772-2

> <Gold.Version>
5.8.1

> <Gold.Id.Protein>
6NUR|6NUR_protein|mol2

> <Gold.PLP.Fitness>
43.9847

> <Gold.PLP.PLP>
-44.6451

> <Gold.PLP.part.hbond>
0.0000

> <Gold.PLP.part.metal>
0.0000

> <Gold.PLP.part.buried>
-3.7920

> <Gold.PLP.part.nonpolar>
-39.8902

> <Gold.PLP.part.repulsive>
0.0000

> <Gold.PLP.ligand.clash>
0.0000

> <Gold.PLP.ligand.torsion>
0.4073

> <Gold.PLP.Chemscore.Hbond>
0.0000

> <Gold.PLP.Chemscore.CHOScore>
0.0000

> <Gold.PLP.Chemscore.Metal>
0.0000

> <Gold.PLP.Chemscore.Internal.Correction>
0.1542

> <Gold.Rescore>
     Score         DG    S(hbond)    S(metal)    S(lipo)     H(rot)  DE(clash)    DE(int)     intcor
     17.60     -18.26       0.00        0.00     138.19       1.32       0.30       0.36       ----

> <Gold.Chemscore.Fitness>
17.6011

> <Gold.Chemscore.DG>
-18.2607

> <Gold.Chemscore.ZeroCoef>
-5.4800

> <Gold.Chemscore.Hbond>
0.0000

> <Gold.Chemscore.Metal>
0.0000

> <Gold.Chemscore.Lipo>
138.1907

> <Gold.Chemscore.Internal_Hbond>
0.0000

> <Gold.Chemscore.DEClash>
0.2958

> <Gold.Chemscore.DEInternal>
0.3639

> <Gold.Chemscore.Rot>
1.3233

> <Gold.Chemscore.Internal.Correction>
   9.000000E+99

> <Gold.Chemscore.Hbond.Weighted>
-0.0000

> <Gold.Chemscore.Metal.Weighted>
-0.0000

> <Gold.Chemscore.Lipo.Weighted>
-16.1683

> <Gold.Chemscore.Internal_Hbond.Weighted>
0.0000

> <Gold.Chemscore.DEClash.Weighted>
0.2958

> <Gold.Chemscore.DEInternal.Weighted>
0.3639

> <Gold.Chemscore.Rot.Weighted>
3.3876

> <Gold.Chemscore.Internal.Correction.Weighted>
   9.000000E+99

> <Gold.Protein.RotatedTorsions>
[ 6907 6896 6895 6894 ] final  -95.08 input  -60.11 | X-H torsion
[ 7974 7965 7964 7962 ] final  159.06 input  175.53 | X-H torsion
[ 8008 7997 7996 7995 ] final   -2.43 input   59.86 | X-H torsion
[ 10167 10162 10161 10158 ] final   21.12 input  -65.29 | X-H torsion
[ 10718 10713 10712 10709 ] final  148.43 input   66.30 | X-H torsion
[ 10763 10752 10751 10750 ] final -143.36 input  -60.55 | X-H torsion
[ 11005 11000 10999 10996 ] final -122.90 input  -57.11 | X-H torsion

> <Gold.Protein.ActiveResidues>
 VAL166  LYS551  ARG553  GLY616  TRP617  ASP618  TYR619  PRO620  LYS621  CYS622 
 ASP623  PHE694  ASN695  SER759  ASP760  ASP761  ALA762  ILE779  LEU786  VAL792 
 PHE793  MET794  SER795  GLU796  ALA797  LYS798  CYS799  TRP800  GLU811  SER814 

> <Gold.Protein.RotatedAtoms>
  150.6956  134.1712  159.4212 H   0  0  0  0  0  0  0  0  0  0  0  0  # atno 6907 bound_to 6896
  151.9690  135.0084  160.0561 H   0  0  0  0  0  0  0  0  0  0  0  0  # atno 6908 bound_to 6896
  152.1859  133.4704  159.5019 H   0  0  0  0  0  0  0  0  0  0  0  0  # atno 6909 bound_to 6896
  144.7811  139.7564  143.6259 H   0  0  0  0  0  0  0  0  0  0  0  0  # atno 7974 bound_to 7965
  154.6358  140.2534  155.7379 H   0  0  0  0  0  0  0  0  0  0  0  0  # atno 8008 bound_to 7997
  156.2503  140.2897  156.0651 H   0  0  0  0  0  0  0  0  0  0  0  0  # atno 8009 bound_to 7997
  155.1673  140.0385  157.2845 H   0  0  0  0  0  0  0  0  0  0  0  0  # atno 8010 bound_to 7997
  140.5451  143.9608  150.6543 H   0  0  0  0  0  0  0  0  0  0  0  0  # atno 10167 bound_to 10162
  157.3087  131.0884  151.1333 H   0  0  0  0  0  0  0  0  0  0  0  0  # atno 10718 bound_to 10713
  154.8473  135.3470  154.6175 H   0  0  0  0  0  0  0  0  0  0  0  0  # atno 10763 bound_to 10752
  153.6784  135.6981  153.5130 H   0  0  0  0  0  0  0  0  0  0  0  0  # atno 10764 bound_to 10752
  153.2687  135.4299  155.0923 H   0  0  0  0  0  0  0  0  0  0  0  0  # atno 10765 bound_to 10752
  140.9960  134.0471  157.3596 H   0  0  0  0  0  0  0  0  0  0  0  0  # atno 11005 bound_to 11000
  146.2020  139.5320  142.9737 LP  0  0  0  0  0  0  0  0  0  0  0  0  # atno 17320 bound_to 7965
  145.6048  141.0349  143.1999 LP  0  0  0  0  0  0  0  0  0  0  0  0  # atno 17321 bound_to 7965
  140.3019  143.3254  152.0963 LP  0  0  0  0  0  0  0  0  0  0  0  0  # atno 17342 bound_to 10162
  139.5004  144.6691  151.6286 LP  0  0  0  0  0  0  0  0  0  0  0  0  # atno 17343 bound_to 10162
  157.2664  130.6683  149.5998 LP  0  0  0  0  0  0  0  0  0  0  0  0  # atno 17370 bound_to 10713
  155.9676  130.4492  150.5651 LP  0  0  0  0  0  0  0  0  0  0  0  0  # atno 17371 bound_to 10713
  139.9015  135.0166  156.7290 LP  0  0  0  0  0  0  0  0  0  0  0  0  # atno 17394 bound_to 11000
  140.6965  133.9344  155.7998 LP  0  0  0  0  0  0  0  0  0  0  0  0  # atno 17395 bound_to 11000

$$$$
