AV-unprocessed.smi:2069|AV-procd|sdf|8437|dock6
  -GOLD-   2272011133D 1   1.00000     0.00000
 Structure written by MMmdl.
 38 39  0  0  0  0  0  0  0  0  3 V2000
  149.1089  141.0131  155.0202 C   0  0  0  0  0  0  0  0  0  0  0  0
  149.9125  139.7638  154.9024 C   0  0  0  0  0  0  0  0  0  0  0  0
  151.2460  139.7667  154.8336 N   0  0  0  0  0  0  0  0  0  0  0  0
  151.7665  138.4851  154.7258 N   0  0  0  0  0  0  0  0  0  0  0  0
  150.8220  137.5341  154.7016 C   0  0  0  0  0  0  0  0  0  0  0  0
  151.1182  136.2276  154.6013 N   0  5  0  0  0  0  0  0  0  0  0  0
  150.1728  135.2990  154.8690 C   0  0  0  0  0  0  0  0  0  0  0  0
  149.4143  135.2836  155.8411 O   0  0  0  0  0  0  0  0  0  0  0  0
  150.1019  134.3241  153.9539 N   0  0  0  0  0  0  0  0  0  0  0  0
  149.1740  133.1998  153.9960 C   0  0  0  0  0  0  0  0  0  0  0  0
  147.9371  133.4226  153.0865 C   0  0  2  0  0  0  0  0  0  0  0  0
  146.8174  134.1440  153.8747 C   0  0  0  0  0  0  0  0  0  0  0  0
  147.4203  132.1532  152.4737 N   0  3  0  0  0  0  0  0  0  0  0  0
  147.2911  131.0445  153.4599 C   0  0  0  0  0  0  0  0  0  0  0  0
  146.8116  129.7478  152.7875 C   0  0  0  0  0  0  0  0  0  0  0  0
  145.5709  129.9785  152.1387 O   0  0  0  0  0  0  0  0  0  0  0  0
  145.6997  130.9498  151.1126 C   0  0  0  0  0  0  0  0  0  0  0  0
  146.1460  132.2931  151.7143 C   0  0  0  0  0  0  0  0  0  0  0  0
  149.1823  138.1687  154.8385 S   0  0  0  0  0  0  0  0  0  0  0  0
  149.0281  141.4964  154.0466 H   0  0  0  0  0  0  0  0  0  0  0  0
  149.5833  141.7035  155.7180 H   0  0  0  0  0  0  0  0  0  0  0  0
  148.1064  140.7857  155.3830 H   0  0  0  0  0  0  0  0  0  0  0  0
  150.7385  134.3712  153.1716 H   0  0  0  0  0  0  0  0  0  0  0  0
  149.7440  132.3273  153.6761 H   0  0  0  0  0  0  0  0  0  0  0  0
  148.8576  133.0287  155.0264 H   0  0  0  0  0  0  0  0  0  0  0  0
  148.2544  134.0753  152.2711 H   0  0  0  0  0  0  0  0  0  0  0  0
  147.1735  135.0595  154.3466 H   0  0  0  0  0  0  0  0  0  0  0  0
  146.4179  133.5059  154.6634 H   0  0  0  0  0  0  0  0  0  0  0  0
  145.9878  134.4518  153.2412 H   0  0  0  0  0  0  0  0  0  0  0  0
  148.2416  130.8339  153.9451 H   0  0  0  0  0  0  0  0  0  0  0  0
  146.5898  131.3339  154.2441 H   0  0  0  0  0  0  0  0  0  0  0  0
  147.5510  129.3798  152.0743 H   0  0  0  0  0  0  0  0  0  0  0  0
  146.6759  128.9668  153.5359 H   0  0  0  0  0  0  0  0  0  0  0  0
  146.4081  130.6074  150.3562 H   0  0  0  0  0  0  0  0  0  0  0  0
  144.7367  131.0648  150.6150 H   0  0  0  0  0  0  0  0  0  0  0  0
  145.3692  132.6873  152.3717 H   0  0  0  0  0  0  0  0  0  0  0  0
  146.2603  132.9896  150.8850 H   0  0  0  0  0  0  0  0  0  0  0  0
  148.1132  131.8649  151.7977 H   0  0  0  0  0  0  0  0  0  0  0  0
  1  2  1  0  0  0  0
  1 20  1  0  0  0  0
  1 21  1  0  0  0  0
  1 22  1  0  0  0  0
  2 19  1  0  0  0  0
  2  3  2  0  0  0  0
  3  4  1  0  0  0  0
  4  5  2  0  0  0  0
  5  6  1  0  0  0  0
  5 19  1  0  0  0  0
  6  7  1  0  0  0  0
  7  8  2  0  0  0  0
  7  9  1  0  0  0  0
  9 10  1  0  0  0  0
  9 23  1  0  0  0  0
 10 11  1  0  0  0  0
 10 24  1  0  0  0  0
 10 25  1  0  0  0  0
 11 12  1  0  0  0  0
 11 13  1  0  0  0  0
 11 26  1  0  0  0  0
 12 27  1  0  0  0  0
 12 28  1  0  0  0  0
 12 29  1  0  0  0  0
 13 18  1  0  0  0  0
 13 14  1  0  0  0  0
 13 38  1  0  0  0  0
 14 15  1  0  0  0  0
 14 30  1  0  0  0  0
 14 31  1  0  0  0  0
 15 16  1  0  0  0  0
 15 32  1  0  0  0  0
 15 33  1  0  0  0  0
 16 17  1  0  0  0  0
 17 18  1  0  0  0  0
 17 34  1  0  0  0  0
 17 35  1  0  0  0  0
 18 36  1  0  0  0  0
 18 37  1  0  0  0  0
M  CHG  1   6  -1
M  CHG  1  13   1
M  END
> <s_m_source_file>
AV-unprocessed.smi

> <i_m_source_file_index>
2069

> <i_lp_mmshare_version>
43012

> <i_f3d_flags>
0

> <s_epik_input>
W0NIM11jMW5uYyhzMSlbTkhdQyg9TylbTkhdW0NIMl1bQ0BIXShbQ0gzXSlOMltDSDJdW0NIMl1PW0NIMl1bQ0gyXTI=

> <s_epik_cmdline>
J2VwaWtfcHl0aG9uJywgJy1waCcsICc3LjAnLCAnLXRuJywgJzgnLCAnLW1hJywgJzIwMCcsICctbWV0YWxfYmluZGluZycsICctaW1hZScsICc8aW5maWxlLm1hZT4nLCAnLW9tYWUnLCAnPG91dGZpbGUubWFlPic=

> <r_lp_tautomer_probability>
1

> <r_epik_Ionization_Penalty>
3.53072

> <r_epik_Ionization_Penalty_Charging>
3.4216

> <r_epik_Ionization_Penalty_Neutral>
0.109115

> <r_epik_State_Penalty>
3.61496

> <r_epik_Charging_Adjusted_Penalty>
7.03656

> <i_epik_Tot_Q>
0

> <i_epik_Tot_abs_Q>
2

> <r_epik_Metal_State_Penalty>
1.13918

> <b_epik_Metal_Only>
1

> <s_lp_Force_Field>
OPLS_2005

> <r_lp_Energy>
13.5119

> <b_lp_Chiralities_Consistent>
1

> <s_lp_Variant>
AV-unprocessed.smi:2069-7

> <Gold.Version>
5.8.1

> <Gold.Id.Protein>
6NUR|6NUR_protein|mol2

> <Gold.PLP.Fitness>
39.5150

> <Gold.PLP.PLP>
-29.7193

> <Gold.PLP.part.hbond>
-4.3288

> <Gold.PLP.part.metal>
0.0000

> <Gold.PLP.part.buried>
-2.5684

> <Gold.PLP.part.nonpolar>
-24.5427

> <Gold.PLP.part.repulsive>
0.6288

> <Gold.PLP.ligand.clash>
0.0000

> <Gold.PLP.ligand.torsion>
1.1358

> <Gold.PLP.Chemscore.Hbond>
4.0000

> <Gold.PLP.Chemscore.CHOScore>
0.0000

> <Gold.PLP.Chemscore.Metal>
0.0000

> <Gold.Chemscore.Hbonds>
donor molecule, donor type, donor heavy atom, donor atom, acceptor molecule, acceptor atom, score
      L1  H     9    23       P1  7949  0.03
      L1  H    13    38       P1 10747  1.00
      P1  H  7989  7998       L1     3  1.00
      P1  H 10752 10763       L1     6  2.00

> <Gold.PLP.Chemscore.Internal.Correction>
0.0674

> <Gold.Rescore>
     Score         DG    S(hbond)    S(metal)    S(lipo)     H(rot)  DE(clash)    DE(int)     intcor
     15.83     -18.00       2.69        0.00      65.69       1.62       0.83       1.34       ----

> <Gold.Chemscore.Fitness>
15.8318

> <Gold.Chemscore.DG>
-18.0017

> <Gold.Chemscore.ZeroCoef>
-5.4800

> <Gold.Chemscore.Hbond>
2.6890

> <Gold.Chemscore.Metal>
0.0000

> <Gold.Chemscore.Lipo>
65.6889

> <Gold.Chemscore.Internal_Hbond>
0.0000

> <Gold.Chemscore.DEClash>
0.8341

> <Gold.Chemscore.DEInternal>
1.3358

> <Gold.Chemscore.Rot>
1.6192

> <Gold.Chemscore.Internal.Correction>
   9.000000E+99

> <Gold.Chemscore.Hbonds>
donor molecule, donor type, donor heavy atom, donor atom, acceptor molecule, acceptor atom, score
      L1  H    13    38       P1 10747  0.95
      P1  H  7989  7998       L1     3  0.45
      P1  H 10752 10763       L1     6  0.93

> <Gold.Chemscore.Hbond.Weighted>
-8.9813

> <Gold.Chemscore.Metal.Weighted>
-0.0000

> <Gold.Chemscore.Lipo.Weighted>
-7.6856

> <Gold.Chemscore.Internal_Hbond.Weighted>
0.0000

> <Gold.Chemscore.DEClash.Weighted>
0.8341

> <Gold.Chemscore.DEInternal.Weighted>
1.3358

> <Gold.Chemscore.Rot.Weighted>
4.1452

> <Gold.Chemscore.Internal.Correction.Weighted>
   9.000000E+99

> <Gold.Protein.RotatedTorsions>
[ 6907 6896 6895 6894 ] final  -41.09 input  -60.11 | X-H torsion
[ 7974 7965 7964 7962 ] final  -98.61 input  175.53 | X-H torsion
[ 8008 7997 7996 7995 ] final  -96.10 input   59.86 | X-H torsion
[ 10167 10162 10161 10158 ] final  154.36 input  -65.29 | X-H torsion
[ 10718 10713 10712 10709 ] final -142.06 input   66.30 | X-H torsion
[ 10763 10752 10751 10750 ] final   50.73 input  -60.55 | X-H torsion
[ 11005 11000 10999 10996 ] final   -0.13 input  -57.11 | X-H torsion

> <Gold.Protein.ActiveResidues>
 VAL166  LYS551  ARG553  GLY616  TRP617  ASP618  TYR619  PRO620  LYS621  CYS622 
 ASP623  PHE694  ASN695  SER759  ASP760  ASP761  ALA762  ILE779  LEU786  VAL792 
 PHE793  MET794  SER795  GLU796  ALA797  LYS798  CYS799  TRP800  GLU811  SER814 

> <Gold.Protein.RotatedAtoms>
  150.9708  134.9081  159.7786 H   0  0  0  0  0  0  0  0  0  0  0  0  # atno 6907 bound_to 6896
  152.5189  134.3544  159.9272 H   0  0  0  0  0  0  0  0  0  0  0  0  # atno 6908 bound_to 6896
  151.3553  133.3869  159.2719 H   0  0  0  0  0  0  0  0  0  0  0  0  # atno 6909 bound_to 6896
  145.3183  140.9416  143.2730 H   0  0  0  0  0  0  0  0  0  0  0  0  # atno 7974 bound_to 7965
  154.7700  140.0474  157.1043 H   0  0  0  0  0  0  0  0  0  0  0  0  # atno 8008 bound_to 7997
  154.9833  140.3104  155.4918 H   0  0  0  0  0  0  0  0  0  0  0  0  # atno 8009 bound_to 7997
  156.2919  140.2232  156.4933 H   0  0  0  0  0  0  0  0  0  0  0  0  # atno 8010 bound_to 7997
  139.4823  144.5193  151.7901 H   0  0  0  0  0  0  0  0  0  0  0  0  # atno 10167 bound_to 10162
  156.3414  130.7639  151.1776 H   0  0  0  0  0  0  0  0  0  0  0  0  # atno 10718 bound_to 10713
  152.9784  135.5869  154.4300 H   0  0  0  0  0  0  0  0  0  0  0  0  # atno 10763 bound_to 10752
  154.3915  135.2768  155.2154 H   0  0  0  0  0  0  0  0  0  0  0  0  # atno 10764 bound_to 10752
  154.4024  135.6100  153.5959 H   0  0  0  0  0  0  0  0  0  0  0  0  # atno 10765 bound_to 10752
  140.6329  133.9559  155.8284 H   0  0  0  0  0  0  0  0  0  0  0  0  # atno 11005 bound_to 11000
  144.8960  139.4712  143.6655 LP  0  0  0  0  0  0  0  0  0  0  0  0  # atno 17320 bound_to 7965
  146.3092  139.7685  142.9033 LP  0  0  0  0  0  0  0  0  0  0  0  0  # atno 17321 bound_to 7965
  140.4705  144.1593  150.5917 LP  0  0  0  0  0  0  0  0  0  0  0  0  # atno 17342 bound_to 10162
  140.4387  143.2536  151.9501 LP  0  0  0  0  0  0  0  0  0  0  0  0  # atno 17343 bound_to 10162
  157.7447  131.0453  150.4838 LP  0  0  0  0  0  0  0  0  0  0  0  0  # atno 17370 bound_to 10713
  156.5018  130.4119  149.6349 LP  0  0  0  0  0  0  0  0  0  0  0  0  # atno 17371 bound_to 10713
  141.0662  134.0273  157.3590 LP  0  0  0  0  0  0  0  0  0  0  0  0  # atno 17394 bound_to 11000
  139.9109  135.0190  156.7687 LP  0  0  0  0  0  0  0  0  0  0  0  0  # atno 17395 bound_to 11000

$$$$
