AV-unprocessed.smi:2839|AV-procd|sdf|10930|dock9
  -GOLD-   2272015373D 1   1.00000     0.00000
 Structure written by MMmdl.
 32 33  0  0  0  0  0  0  0  0  1 V2000
  151.1489  136.3945  155.9314 C   0  0  0  0  0  0  0  0  0  0  0  0
  151.0986  137.8261  155.6642 N   0  0  0  0  0  0  0  0  0  0  0  0
  150.4793  138.3702  154.5625 C   0  0  0  0  0  0  0  0  0  0  0  0
  150.5825  139.6549  154.5406 N   0  0  0  0  0  0  0  0  0  0  0  0
  151.2913  139.9224  155.6696 N   0  0  0  0  0  0  0  0  0  0  0  0
  151.6033  141.3118  156.0094 C   0  0  0  0  0  0  0  0  0  0  0  0
  151.2227  141.6857  157.4485 C   0  0  0  0  0  0  0  0  0  0  0  0
  150.8310  140.8299  158.2436 O   0  0  0  0  0  0  0  0  0  0  0  0
  151.3315  142.9850  157.7638 N   0  0  0  0  0  0  0  0  0  0  0  0
  151.0229  143.5613  159.0700 C   0  0  0  0  0  0  0  0  0  0  0  0
  151.0776  145.1005  159.0168 C   0  0  0  0  0  0  0  0  0  0  0  0
  151.9339  145.5366  160.2072 C   0  0  0  0  0  0  0  0  0  0  0  0
  152.8958  144.3737  160.4271 C   0  0  0  0  0  0  0  0  0  0  0  0
  152.0534  143.1323  160.1337 C   0  0  0  0  0  0  0  0  0  0  0  0
  151.6239  138.8252  156.3646 C   0  0  0  0  0  0  0  0  0  0  0  0
  152.2690  138.7579  157.4107 O   0  0  0  0  0  0  0  0  0  0  0  0
  150.3585  135.8571  155.4052 H   0  0  0  0  0  0  0  0  0  0  0  0
  151.0315  136.1979  156.9979 H   0  0  0  0  0  0  0  0  0  0  0  0
  152.1090  135.9864  155.6140 H   0  0  0  0  0  0  0  0  0  0  0  0
  149.9839  137.7174  153.8418 H   0  0  0  0  0  0  0  0  0  0  0  0
  152.6714  141.4808  155.8625 H   0  0  0  0  0  0  0  0  0  0  0  0
  151.0866  141.9880  155.3267 H   0  0  0  0  0  0  0  0  0  0  0  0
  151.6567  143.6210  157.0503 H   0  0  0  0  0  0  0  0  0  0  0  0
  150.0255  143.2452  159.3819 H   0  0  0  0  0  0  0  0  0  0  0  0
  151.5548  145.4381  158.0954 H   0  0  0  0  0  0  0  0  0  0  0  0
  150.0839  145.5484  159.0455 H   0  0  0  0  0  0  0  0  0  0  0  0
  152.4493  146.4811  160.0308 H   0  0  0  0  0  0  0  0  0  0  0  0
  151.3031  145.6608  161.0883 H   0  0  0  0  0  0  0  0  0  0  0  0
  153.7185  144.4368  159.7134 H   0  0  0  0  0  0  0  0  0  0  0  0
  153.3227  144.3642  161.4302 H   0  0  0  0  0  0  0  0  0  0  0  0
  151.5270  142.8334  161.0410 H   0  0  0  0  0  0  0  0  0  0  0  0
  152.6689  142.2846  159.8289 H   0  0  0  0  0  0  0  0  0  0  0  0
  1  2  1  0  0  0  0
  1 17  1  0  0  0  0
  1 18  1  0  0  0  0
  1 19  1  0  0  0  0
  2 15  1  0  0  0  0
  2  3  1  0  0  0  0
  3  4  2  0  0  0  0
  3 20  1  0  0  0  0
  4  5  1  0  0  0  0
  5  6  1  0  0  0  0
  5 15  1  0  0  0  0
  6  7  1  0  0  0  0
  6 21  1  0  0  0  0
  6 22  1  0  0  0  0
  7  8  2  0  0  0  0
  7  9  1  0  0  0  0
  9 10  1  0  0  0  0
  9 23  1  0  0  0  0
 10 14  1  0  0  0  0
 10 11  1  0  0  0  0
 10 24  1  0  0  0  0
 11 12  1  0  0  0  0
 11 25  1  0  0  0  0
 11 26  1  0  0  0  0
 12 13  1  0  0  0  0
 12 27  1  0  0  0  0
 12 28  1  0  0  0  0
 13 14  1  0  0  0  0
 13 29  1  0  0  0  0
 13 30  1  0  0  0  0
 14 31  1  0  0  0  0
 14 32  1  0  0  0  0
 15 16  2  0  0  0  0
M  END
> <s_m_source_file>
AV-unprocessed.smi

> <i_m_source_file_index>
2839

> <i_lp_mmshare_version>
43012

> <i_f3d_flags>
0

> <s_epik_input>
W0NIM11uMVtjSF1ubihjMT1PKVtDSDJdQyg9TylbTkhdW0NIXTJbQ0gyXVtDSDJdW0NIMl1bQ0gyXTI=

> <s_epik_cmdline>
J2VwaWtfcHl0aG9uJywgJy1waCcsICc3LjAnLCAnLXRuJywgJzgnLCAnLW1hJywgJzIwMCcsICctbWV0YWxfYmluZGluZycsICctaW1hZScsICc8aW5maWxlLm1hZT4nLCAnLW9tYWUnLCAnPG91dGZpbGUubWFlPic=

> <r_lp_tautomer_probability>
1

> <r_epik_Ionization_Penalty>
1.58668e-07

> <r_epik_Ionization_Penalty_Charging>
8.23952e-09

> <r_epik_Ionization_Penalty_Neutral>
1.50429e-07

> <r_epik_State_Penalty>
-0

> <r_epik_Charging_Adjusted_Penalty>
8.23952e-09

> <i_epik_Tot_Q>
0

> <i_epik_Tot_abs_Q>
0

> <r_epik_Metal_State_Penalty>
-0

> <b_epik_Metal_Only>
0

> <s_lp_Force_Field>
OPLS_2005

> <r_lp_Energy>
35.3478

> <b_lp_Chiralities_Consistent>
1

> <s_lp_Variant>
AV-unprocessed.smi:2839-1

> <Gold.Version>
5.8.1

> <Gold.Id.Protein>
6NUR|6NUR_protein|mol2

> <Gold.PLP.Fitness>
41.7438

> <Gold.PLP.PLP>
-33.1592

> <Gold.PLP.part.hbond>
-2.7445

> <Gold.PLP.part.metal>
0.0000

> <Gold.PLP.part.buried>
1.5792

> <Gold.PLP.part.nonpolar>
-31.2565

> <Gold.PLP.part.repulsive>
0.1442

> <Gold.PLP.ligand.clash>
0.0000

> <Gold.PLP.ligand.torsion>
0.2096

> <Gold.PLP.Chemscore.Hbond>
2.0000

> <Gold.PLP.Chemscore.CHOScore>
1.0000

> <Gold.PLP.Chemscore.Metal>
0.0000

> <Gold.Chemscore.Hbonds>
donor molecule, donor type, donor heavy atom, donor atom, acceptor molecule, acceptor atom, score
      P1  H  7989  7998       L1     4  0.65
      L1  C     3    20       P1  7948  0.72

> <Gold.PLP.Chemscore.Internal.Correction>
0.0038

> <Gold.Rescore>
     Score         DG    S(hbond)    S(metal)    S(lipo)     H(rot)  DE(clash)    DE(int)     intcor
     12.37     -15.40       1.86        0.00      69.19       1.72       1.90       1.12       ----

> <Gold.Chemscore.Fitness>
12.3749

> <Gold.Chemscore.DG>
-15.3965

> <Gold.Chemscore.ZeroCoef>
-5.4800

> <Gold.Chemscore.Hbond>
1.8636

> <Gold.Chemscore.Metal>
0.0000

> <Gold.Chemscore.Lipo>
69.1914

> <Gold.Chemscore.Internal_Hbond>
0.0000

> <Gold.Chemscore.DEClash>
1.8976

> <Gold.Chemscore.DEInternal>
1.1240

> <Gold.Chemscore.Rot>
1.7201

> <Gold.Chemscore.Internal.Correction>
   9.000000E+99

> <Gold.Chemscore.Hbonds>
donor molecule, donor type, donor heavy atom, donor atom, acceptor molecule, acceptor atom, score
      P1  H  7989  7998       L1     4  0.06

> <Gold.Chemscore.Hbond.Weighted>
-6.2245

> <Gold.Chemscore.Metal.Weighted>
-0.0000

> <Gold.Chemscore.Lipo.Weighted>
-8.0954

> <Gold.Chemscore.Internal_Hbond.Weighted>
0.0000

> <Gold.Chemscore.DEClash.Weighted>
1.8976

> <Gold.Chemscore.DEInternal.Weighted>
1.1240

> <Gold.Chemscore.Rot.Weighted>
4.4033

> <Gold.Chemscore.Internal.Correction.Weighted>
   9.000000E+99

> <Gold.Protein.RotatedTorsions>
[ 6907 6896 6895 6894 ] final -121.71 input  -60.11 | X-H torsion
[ 7974 7965 7964 7962 ] final  168.75 input  175.53 | X-H torsion
[ 8008 7997 7996 7995 ] final  -17.95 input   59.86 | X-H torsion
[ 10167 10162 10161 10158 ] final  137.95 input  -65.29 | X-H torsion
[ 10718 10713 10712 10709 ] final   65.42 input   66.30 | X-H torsion
[ 10763 10752 10751 10750 ] final  -62.02 input  -60.55 | X-H torsion
[ 11005 11000 10999 10996 ] final  -61.27 input  -57.11 | X-H torsion

> <Gold.Protein.ActiveResidues>
 VAL166  LYS551  ARG553  GLY616  TRP617  ASP618  TYR619  PRO620  LYS621  CYS622 
 ASP623  PHE694  ASN695  SER759  ASP760  ASP761  ALA762  ILE779  LEU786  VAL792 
 PHE793  MET794  SER795  GLU796  ALA797  LYS798  CYS799  TRP800  GLU811  SER814 

> <Gold.Protein.RotatedAtoms>
  150.8508  133.7789  159.3025 H   0  0  0  0  0  0  0  0  0  0  0  0  # atno 6907 bound_to 6896
  151.5462  135.1066  159.9948 H   0  0  0  0  0  0  0  0  0  0  0  0  # atno 6908 bound_to 6896
  152.4551  133.7664  159.6831 H   0  0  0  0  0  0  0  0  0  0  0  0  # atno 6909 bound_to 6896
  144.7378  139.8953  143.6406 H   0  0  0  0  0  0  0  0  0  0  0  0  # atno 7974 bound_to 7965
  154.4941  140.2129  155.9484 H   0  0  0  0  0  0  0  0  0  0  0  0  # atno 8008 bound_to 7997
  156.1346  140.3191  155.8370 H   0  0  0  0  0  0  0  0  0  0  0  0  # atno 8009 bound_to 7997
  155.4233  140.0498  157.3015 H   0  0  0  0  0  0  0  0  0  0  0  0  # atno 8010 bound_to 7997
  139.5127  144.6381  151.5642 H   0  0  0  0  0  0  0  0  0  0  0  0  # atno 10167 bound_to 10162
  157.6104  130.9213  149.9974 H   0  0  0  0  0  0  0  0  0  0  0  0  # atno 10718 bound_to 10713
  154.2935  135.6248  153.5395 H   0  0  0  0  0  0  0  0  0  0  0  0  # atno 10763 bound_to 10752
  152.9849  135.5661  154.5363 H   0  0  0  0  0  0  0  0  0  0  0  0  # atno 10764 bound_to 10752
  154.4979  135.2870  155.1420 H   0  0  0  0  0  0  0  0  0  0  0  0  # atno 10765 bound_to 10752
  141.1318  133.6629  156.5350 H   0  0  0  0  0  0  0  0  0  0  0  0  # atno 11005 bound_to 11000
  146.1111  139.4116  143.0287 LP  0  0  0  0  0  0  0  0  0  0  0  0  # atno 17320 bound_to 7965
  145.7441  140.9997  143.1285 LP  0  0  0  0  0  0  0  0  0  0  0  0  # atno 17321 bound_to 7965
  140.6138  143.9387  150.6473 LP  0  0  0  0  0  0  0  0  0  0  0  0  # atno 17342 bound_to 10162
  140.2639  143.3504  152.1299 LP  0  0  0  0  0  0  0  0  0  0  0  0  # atno 17343 bound_to 10162
  156.1205  130.3646  149.9895 LP  0  0  0  0  0  0  0  0  0  0  0  0  # atno 17370 bound_to 10713
  156.7976  130.9279  151.3646 LP  0  0  0  0  0  0  0  0  0  0  0  0  # atno 17371 bound_to 10713
  140.4185  134.7209  157.4876 LP  0  0  0  0  0  0  0  0  0  0  0  0  # atno 17394 bound_to 11000
  140.0377  134.6313  155.9022 LP  0  0  0  0  0  0  0  0  0  0  0  0  # atno 17395 bound_to 11000

$$$$
