AV-unprocessed.smi:2368|AV-procd|sdf|9426|dock2
  -GOLD-   2272013 63D 1   1.00000     0.00000
 Structure written by MMmdl.
 35 36  0  0  0  0  0  0  0  0  1 V2000
  151.7060  140.2156  155.9750 C   0  0  0  0  0  0  0  0  0  0  0  0
  150.3570  140.3107  155.2871 C   0  0  0  0  0  0  0  0  0  0  0  0
  149.7439  141.5119  155.3666 N   0  0  0  0  0  0  0  0  0  0  0  0
  148.5386  141.6492  154.7772 C   0  0  0  0  0  0  0  0  0  0  0  0
  147.8928  140.6089  154.0822 C   0  0  0  0  0  0  0  0  0  0  0  0
  148.5396  139.3537  153.9825 C   0  0  0  0  0  0  0  0  0  0  0  0
  147.9697  138.2304  153.3204 N   0  0  0  0  0  0  0  0  0  0  0  0
  146.6843  137.8391  153.2851 C   0  0  0  0  0  0  0  0  0  0  0  0
  145.7492  138.4072  153.8490 O   0  0  0  0  0  0  0  0  0  0  0  0
  146.5334  136.7420  152.5298 N   0  0  0  0  0  0  0  0  0  0  0  0
  145.2609  136.0787  152.2681 C   0  0  1  0  0  0  0  0  0  0  0  0
  145.0194  135.9641  150.7869 C   0  0  0  0  0  0  0  0  0  0  0  0
  144.8410  134.7061  150.3893 C   0  0  0  0  0  0  0  0  0  0  0  0
  144.9472  133.7194  151.5232 C   0  0  2  0  0  0  0  0  0  0  0  0
  143.7083  132.8135  151.6576 C   0  0  0  0  0  0  0  0  0  0  0  0
  142.5400  133.5609  151.9332 O   0  0  0  0  0  0  0  0  0  0  0  0
  145.2333  134.6075  152.7621 C   0  0  0  0  0  0  0  0  0  0  0  0
  149.7971  139.2000  154.6129 C   0  0  0  0  0  0  0  0  0  0  0  0
  150.6386  137.6870  154.5539 Cl  0  0  0  0  0  0  0  0  0  0  0  0
  144.4402  136.6498  152.7059 H   0  0  0  0  0  0  0  0  0  0  0  0
  145.8175  133.0920  151.3263 H   0  0  0  0  0  0  0  0  0  0  0  0
  151.6890  139.4368  156.7374 H   0  0  0  0  0  0  0  0  0  0  0  0
  151.9771  141.1545  156.4597 H   0  0  0  0  0  0  0  0  0  0  0  0
  152.4838  139.9729  155.2506 H   0  0  0  0  0  0  0  0  0  0  0  0
  148.0703  142.6180  154.8675 H   0  0  0  0  0  0  0  0  0  0  0  0
  146.9189  140.7897  153.6545 H   0  0  0  0  0  0  0  0  0  0  0  0
  148.6071  137.7078  152.7375 H   0  0  0  0  0  0  0  0  0  0  0  0
  147.3536  136.3402  152.0998 H   0  0  0  0  0  0  0  0  0  0  0  0
  144.9848  136.8294  150.1415 H   0  0  0  0  0  0  0  0  0  0  0  0
  144.6489  134.3961  149.3727 H   0  0  0  0  0  0  0  0  0  0  0  0
  143.5519  132.2508  150.7368 H   0  0  0  0  0  0  0  0  0  0  0  0
  143.8578  132.0848  152.4546 H   0  0  0  0  0  0  0  0  0  0  0  0
  141.9769  133.5303  151.1749 H   0  0  0  0  0  0  0  0  0  0  0  0
  146.1805  134.3169  153.2188 H   0  0  0  0  0  0  0  0  0  0  0  0
  144.4703  134.4844  153.5317 H   0  0  0  0  0  0  0  0  0  0  0  0
  1  2  1  0  0  0  0
  1 22  1  0  0  0  0
  1 23  1  0  0  0  0
  1 24  1  0  0  0  0
  2 18  1  0  0  0  0
  2  3  2  0  0  0  0
  3  4  1  0  0  0  0
  4  5  2  0  0  0  0
  4 25  1  0  0  0  0
  5  6  1  0  0  0  0
  5 26  1  0  0  0  0
  6  7  1  0  0  0  0
  6 18  2  0  0  0  0
  7  8  1  0  0  0  0
  7 27  1  0  0  0  0
  8  9  2  0  0  0  0
  8 10  1  0  0  0  0
 10 11  1  0  0  0  0
 10 28  1  0  0  0  0
 11 20  1  0  0  0  0
 11 17  1  0  0  0  0
 11 12  1  0  0  0  0
 12 13  2  0  0  0  0
 12 29  1  0  0  0  0
 13 14  1  0  0  0  0
 13 30  1  0  0  0  0
 14 21  1  0  0  0  0
 14 15  1  0  0  0  0
 14 17  1  0  0  0  0
 15 16  1  0  0  0  0
 15 31  1  0  0  0  0
 15 32  1  0  0  0  0
 16 33  1  0  0  0  0
 17 34  1  0  0  0  0
 17 35  1  0  0  0  0
 18 19  1  0  0  0  0
M  END
> <s_m_source_file>
AV-unprocessed.smi

> <i_m_source_file_index>
2368

> <i_lp_mmshare_version>
43012

> <i_f3d_flags>
0

> <s_epik_input>
W0NIM11jMW5bY0hdW2NIXWMoYzFDbClbTkhdQyg9TylbTkhdW0NAQEhdMltDSF09W0NIXVtDQEBIXShbQ0gyXTIpW0NIMl1bT0hd

> <s_epik_cmdline>
J2VwaWtfcHl0aG9uJywgJy1waCcsICc3LjAnLCAnLXRuJywgJzgnLCAnLW1hJywgJzIwMCcsICctbWV0YWxfYmluZGluZycsICctaW1hZScsICc8aW5maWxlLm1hZT4nLCAnLW9tYWUnLCAnPG91dGZpbGUubWFlPic=

> <r_epik_Ionization_Penalty>
0.00964582

> <r_epik_Ionization_Penalty_Charging>
0

> <r_epik_Ionization_Penalty_Neutral>
0.00964582

> <r_epik_State_Penalty>
0.00730775

> <r_epik_Charging_Adjusted_Penalty>
0.00730775

> <i_epik_Tot_Q>
0

> <i_epik_Tot_abs_Q>
0

> <r_epik_Metal_State_Penalty>
0.00719079

> <b_epik_Metal_Only>
0

> <s_lp_Force_Field>
OPLS_2005

> <r_lp_Energy>
23.9809

> <b_lp_Chiralities_Consistent>
1

> <s_lp_Variant>
AV-unprocessed.smi:2368-2

> <Gold.Version>
5.8.1

> <Gold.Id.Protein>
6NUR|6NUR_protein|mol2

> <Gold.PLP.Fitness>
42.7024

> <Gold.PLP.PLP>
-31.3559

> <Gold.PLP.part.hbond>
-3.4491

> <Gold.PLP.part.metal>
0.0000

> <Gold.PLP.part.buried>
0.8226

> <Gold.PLP.part.nonpolar>
-29.4764

> <Gold.PLP.part.repulsive>
0.3433

> <Gold.PLP.ligand.clash>
0.0000

> <Gold.PLP.ligand.torsion>
0.2975

> <Gold.PLP.Chemscore.Hbond>
2.9760

> <Gold.PLP.Chemscore.CHOScore>
1.0000

> <Gold.PLP.Chemscore.Metal>
0.0000

> <Gold.Chemscore.Hbonds>
donor molecule, donor type, donor heavy atom, donor atom, acceptor molecule, acceptor atom, score
      L1  H     7    27       P1  7948  0.99
      L1  H    10    28       P1  7948  1.00
      L1  H    16    33       P1 10186  0.89
      L1  C     4    25       P1  8028  1.00

> <Gold.PLP.Chemscore.Internal.Correction>
0.0134

> <Gold.Rescore>
     Score         DG    S(hbond)    S(metal)    S(lipo)     H(rot)  DE(clash)    DE(int)     intcor
     16.88     -18.23       2.39        0.00      79.69       1.78       0.41       0.94       ----

> <Gold.Chemscore.Fitness>
16.8797

> <Gold.Chemscore.DG>
-18.2299

> <Gold.Chemscore.ZeroCoef>
-5.4800

> <Gold.Chemscore.Hbond>
2.3900

> <Gold.Chemscore.Metal>
0.0000

> <Gold.Chemscore.Lipo>
79.6862

> <Gold.Chemscore.Internal_Hbond>
0.0000

> <Gold.Chemscore.DEClash>
0.4149

> <Gold.Chemscore.DEInternal>
0.9353

> <Gold.Chemscore.Rot>
1.7796

> <Gold.Chemscore.Internal.Correction>
   9.000000E+99

> <Gold.Chemscore.Hbonds>
donor molecule, donor type, donor heavy atom, donor atom, acceptor molecule, acceptor atom, score
      L1  H     7    27       P1  7948  0.94
      L1  H    10    28       P1  7948  0.96
      L1  H    16    33       P1 10186  0.37

> <Gold.Chemscore.Hbond.Weighted>
-7.9825

> <Gold.Chemscore.Metal.Weighted>
-0.0000

> <Gold.Chemscore.Lipo.Weighted>
-9.3233

> <Gold.Chemscore.Internal_Hbond.Weighted>
0.0000

> <Gold.Chemscore.DEClash.Weighted>
0.4149

> <Gold.Chemscore.DEInternal.Weighted>
0.9353

> <Gold.Chemscore.Rot.Weighted>
4.5558

> <Gold.Chemscore.Internal.Correction.Weighted>
   9.000000E+99

> <Gold.Protein.RotatedTorsions>
[ 6907 6896 6895 6894 ] final -127.53 input  -60.11 | X-H torsion
[ 7974 7965 7964 7962 ] final   47.54 input  175.53 | X-H torsion
[ 8008 7997 7996 7995 ] final  -69.60 input   59.86 | X-H torsion
[ 10167 10162 10161 10158 ] final   84.47 input  -65.29 | X-H torsion
[ 10718 10713 10712 10709 ] final  -57.35 input   66.30 | X-H torsion
[ 10763 10752 10751 10750 ] final -106.64 input  -60.55 | X-H torsion
[ 11005 11000 10999 10996 ] final   44.61 input  -57.11 | X-H torsion

> <Gold.Protein.ActiveResidues>
 VAL166  LYS551  ARG553  GLY616  TRP617  ASP618  TYR619  PRO620  LYS621  CYS622 
 ASP623  PHE694  ASN695  SER759  ASP760  ASP761  ALA762  ILE779  LEU786  VAL792 
 PHE793  MET794  SER795  GLU796  ALA797  LYS798  CYS799  TRP800  GLU811  SER814 

> <Gold.Protein.RotatedAtoms>
  150.9083  133.7030  159.2861 H   0  0  0  0  0  0  0  0  0  0  0  0  # atno 6907 bound_to 6896
  151.4526  135.1030  159.9711 H   0  0  0  0  0  0  0  0  0  0  0  0  # atno 6908 bound_to 6896
  152.4915  133.8465  159.7235 H   0  0  0  0  0  0  0  0  0  0  0  0  # atno 6909 bound_to 6896
  146.0288  139.4738  142.9851 H   0  0  0  0  0  0  0  0  0  0  0  0  # atno 7974 bound_to 7965
  154.4951  140.0850  156.7678 H   0  0  0  0  0  0  0  0  0  0  0  0  # atno 8008 bound_to 7997
  155.4137  140.3442  155.4247 H   0  0  0  0  0  0  0  0  0  0  0  0  # atno 8009 bound_to 7997
  156.1382  140.1521  156.8949 H   0  0  0  0  0  0  0  0  0  0  0  0  # atno 8010 bound_to 7997
  139.9077  144.6291  150.8570 H   0  0  0  0  0  0  0  0  0  0  0  0  # atno 10167 bound_to 10162
  156.1217  130.4165  150.0429 H   0  0  0  0  0  0  0  0  0  0  0  0  # atno 10718 bound_to 10713
  154.8025  135.4704  154.0310 H   0  0  0  0  0  0  0  0  0  0  0  0  # atno 10763 bound_to 10752
  153.1805  135.6840  153.8491 H   0  0  0  0  0  0  0  0  0  0  0  0  # atno 10764 bound_to 10752
  153.8043  135.3225  155.3371 H   0  0  0  0  0  0  0  0  0  0  0  0  # atno 10765 bound_to 10752
  140.1536  134.4430  155.8365 H   0  0  0  0  0  0  0  0  0  0  0  0  # atno 11005 bound_to 11000
  145.7075  141.0117  143.1471 LP  0  0  0  0  0  0  0  0  0  0  0  0  # atno 17320 bound_to 7965
  144.7021  139.8717  143.7441 LP  0  0  0  0  0  0  0  0  0  0  0  0  # atno 17321 bound_to 7965
  140.7692  143.3389  151.2250 LP  0  0  0  0  0  0  0  0  0  0  0  0  # atno 17342 bound_to 10162
  139.6969  143.9597  152.2887 LP  0  0  0  0  0  0  0  0  0  0  0  0  # atno 17343 bound_to 10162
  156.8365  130.9411  151.3634 LP  0  0  0  0  0  0  0  0  0  0  0  0  # atno 17370 bound_to 10713
  157.6401  130.8798  149.9431 LP  0  0  0  0  0  0  0  0  0  0  0  0  # atno 17371 bound_to 10713
  141.2202  133.6883  156.7467 LP  0  0  0  0  0  0  0  0  0  0  0  0  # atno 17394 bound_to 11000
  140.2574  134.8493  157.3726 LP  0  0  0  0  0  0  0  0  0  0  0  0  # atno 17395 bound_to 11000

$$$$
