AV-unprocessed.smi:555|AV-procd|sdf|2910|dock4
  -GOLD-   2262023403D 1   1.00000     0.00000
 Structure written by MMmdl.
 50 51  0  0  0  0  0  0  0  0  2 V2000
  151.8145  140.7326  158.8819 C   0  0  0  0  0  0  0  0  0  0  0  0
  152.6731  139.9890  158.0355 O   0  0  0  0  0  0  0  0  0  0  0  0
  152.9522  138.6942  158.5445 C   0  0  0  0  0  0  0  0  0  0  0  0
  153.3697  137.7691  157.3894 C   0  0  0  0  0  0  0  0  0  0  0  0
  152.3402  137.7035  156.3462 N   0  0  0  0  0  0  0  0  0  0  0  0
  151.5397  136.5755  156.4164 N   0  0  0  0  0  0  0  0  0  0  0  0
  150.5696  136.4131  155.5761 C   0  0  0  0  0  0  0  0  0  0  0  0
  149.6781  135.2211  155.6284 C   0  0  0  0  0  0  0  0  0  0  0  0
  149.6910  134.4397  156.5809 O   0  0  0  0  0  0  0  0  0  0  0  0
  148.8688  135.0606  154.5657 N   0  0  0  0  0  0  0  0  0  0  0  0
  147.9175  133.9688  154.3849 C   0  0  2  0  0  0  0  0  0  0  0  0
  148.6509  132.6643  154.0232 C   0  0  0  0  0  0  0  0  0  0  0  0
  147.6586  131.5310  153.7125 C   0  0  0  0  0  0  0  0  0  0  0  0
  146.7157  131.9285  152.6338 N   0  3  1  0  0  0  0  0  0  0  0  0
  145.8872  130.7978  152.1221 C   0  0  0  0  0  0  0  0  0  0  0  0
  146.7356  129.5313  151.9193 C   0  0  0  0  0  0  0  0  0  0  0  0
  145.0786  131.1494  150.8580 C   0  0  0  0  0  0  0  0  0  0  0  0
  145.9592  133.1587  152.9940 C   0  0  0  0  0  0  0  0  0  0  0  0
  146.9191  134.3268  153.2723 C   0  0  0  0  0  0  0  0  0  0  0  0
  150.3089  137.3988  154.5409 C   0  0  0  0  0  0  0  0  0  0  0  0
  151.1028  138.4904  154.4800 C   0  0  0  0  0  0  0  0  0  0  0  0
  152.2021  138.7026  155.4233 C   0  0  0  0  0  0  0  0  0  0  0  0
  152.9325  139.6926  155.3944 O   0  0  0  0  0  0  0  0  0  0  0  0
  151.6322  141.7149  158.4461 H   0  0  0  0  0  0  0  0  0  0  0  0
  152.2612  140.8793  159.8660 H   0  0  0  0  0  0  0  0  0  0  0  0
  150.8520  140.2343  159.0044 H   0  0  0  0  0  0  0  0  0  0  0  0
  153.7361  138.7418  159.3021 H   0  0  0  0  0  0  0  0  0  0  0  0
  152.0601  138.2932  159.0279 H   0  0  0  0  0  0  0  0  0  0  0  0
  154.3123  138.1162  156.9627 H   0  0  0  0  0  0  0  0  0  0  0  0
  153.5804  136.7714  157.7784 H   0  0  0  0  0  0  0  0  0  0  0  0
  148.9224  135.7487  153.8279 H   0  0  0  0  0  0  0  0  0  0  0  0
  147.3574  133.8195  155.3103 H   0  0  0  0  0  0  0  0  0  0  0  0
  149.2937  132.8294  153.1572 H   0  0  0  0  0  0  0  0  0  0  0  0
  149.3070  132.3625  154.8405 H   0  0  0  0  0  0  0  0  0  0  0  0
  148.2165  130.6436  153.4117 H   0  0  0  0  0  0  0  0  0  0  0  0
  147.1036  131.2669  154.6133 H   0  0  0  0  0  0  0  0  0  0  0  0
  145.1704  130.5508  152.9064 H   0  0  0  0  0  0  0  0  0  0  0  0
  146.1021  128.6741  151.6891 H   0  0  0  0  0  0  0  0  0  0  0  0
  147.3009  129.2869  152.8192 H   0  0  0  0  0  0  0  0  0  0  0  0
  147.4433  129.6376  151.0972 H   0  0  0  0  0  0  0  0  0  0  0  0
  144.4189  130.3257  150.5836 H   0  0  0  0  0  0  0  0  0  0  0  0
  145.7235  131.3424  150.0003 H   0  0  0  0  0  0  0  0  0  0  0  0
  144.4493  132.0259  151.0106 H   0  0  0  0  0  0  0  0  0  0  0  0
  145.2825  133.4418  152.1886 H   0  0  0  0  0  0  0  0  0  0  0  0
  145.3445  132.9751  153.8763 H   0  0  0  0  0  0  0  0  0  0  0  0
  146.3481  135.2127  153.5533 H   0  0  0  0  0  0  0  0  0  0  0  0
  147.4555  134.5808  152.3564 H   0  0  0  0  0  0  0  0  0  0  0  0
  149.5042  137.2684  153.8319 H   0  0  0  0  0  0  0  0  0  0  0  0
  150.9215  139.2306  153.7146 H   0  0  0  0  0  0  0  0  0  0  0  0
  147.3050  132.1880  151.8553 H   0  0  0  0  0  0  0  0  0  0  0  0
  1  2  1  0  0  0  0
  1 24  1  0  0  0  0
  1 25  1  0  0  0  0
  1 26  1  0  0  0  0
  2  3  1  0  0  0  0
  3  4  1  0  0  0  0
  3 27  1  0  0  0  0
  3 28  1  0  0  0  0
  4  5  1  0  0  0  0
  4 29  1  0  0  0  0
  4 30  1  0  0  0  0
  5 22  1  0  0  0  0
  5  6  1  0  0  0  0
  6  7  2  0  0  0  0
  7  8  1  0  0  0  0
  7 20  1  0  0  0  0
  8  9  2  0  0  0  0
  8 10  1  0  0  0  0
 10 11  1  0  0  0  0
 10 31  1  0  0  0  0
 11 19  1  0  0  0  0
 11 12  1  0  0  0  0
 11 32  1  0  0  0  0
 12 13  1  0  0  0  0
 12 33  1  0  0  0  0
 12 34  1  0  0  0  0
 13 14  1  0  0  0  0
 13 35  1  0  0  0  0
 13 36  1  0  0  0  0
 14 15  1  0  0  0  0
 14 18  1  0  0  0  0
 14 50  1  0  0  0  0
 15 16  1  0  0  0  0
 15 17  1  0  0  0  0
 15 37  1  0  0  0  0
 16 38  1  0  0  0  0
 16 39  1  0  0  0  0
 16 40  1  0  0  0  0
 17 41  1  0  0  0  0
 17 42  1  0  0  0  0
 17 43  1  0  0  0  0
 18 19  1  0  0  0  0
 18 44  1  0  0  0  0
 18 45  1  0  0  0  0
 19 46  1  0  0  0  0
 19 47  1  0  0  0  0
 20 21  2  0  0  0  0
 20 48  1  0  0  0  0
 21 22  1  0  0  0  0
 21 49  1  0  0  0  0
 22 23  2  0  0  0  0
M  CHG  1  14   1
M  END
> <s_m_source_file>
AV-unprocessed.smi

> <i_m_source_file_index>
555

> <i_lp_mmshare_version>
43012

> <i_f3d_flags>
0

> <s_epik_input>
W0NIM11PW0NIMl1bQ0gyXW4xbmMoW2NIXVtjSF1jMT1PKUMoPU8pW05IXVtDSF0yW0NIMl1bQ0gyXU4oW0NIXShbQ0gzXSlbQ0gzXSlbQ0gyXVtDSDJdMg==

> <s_epik_cmdline>
J2VwaWtfcHl0aG9uJywgJy1waCcsICc3LjAnLCAnLXRuJywgJzgnLCAnLW1hJywgJzIwMCcsICctbWV0YWxfYmluZGluZycsICctaW1hZScsICc8aW5maWxlLm1hZT4nLCAnLW9tYWUnLCAnPG91dGZpbGUubWFlPic=

> <r_lp_tautomer_probability>
1

> <r_epik_Ionization_Penalty>
0.00560205

> <r_epik_Ionization_Penalty_Charging>
0.00559911

> <r_epik_Ionization_Penalty_Neutral>
2.94673e-06

> <r_epik_State_Penalty>
0.00410202

> <r_epik_Charging_Adjusted_Penalty>
0.00970113

> <i_epik_Tot_Q>
1

> <i_epik_Tot_abs_Q>
1

> <r_epik_Metal_State_Penalty>
-0

> <b_epik_Metal_Only>
0

> <s_lp_Force_Field>
OPLS_2005

> <r_lp_Energy>
40.4253

> <b_lp_Chiralities_Consistent>
1

> <s_lp_Variant>
AV-unprocessed.smi:555-1

> <Gold.Version>
5.8.1

> <Gold.Id.Protein>
6NUR|6NUR_protein|mol2

> <Gold.PLP.Fitness>
42.7553

> <Gold.PLP.PLP>
-35.2277

> <Gold.PLP.part.hbond>
-5.0000

> <Gold.PLP.part.metal>
0.0000

> <Gold.PLP.part.buried>
1.3270

> <Gold.PLP.part.nonpolar>
-29.8013

> <Gold.PLP.part.repulsive>
0.0460

> <Gold.PLP.ligand.clash>
0.1361

> <Gold.PLP.ligand.torsion>
0.7371

> <Gold.PLP.Chemscore.Hbond>
3.0011

> <Gold.PLP.Chemscore.CHOScore>
0.0000

> <Gold.PLP.Chemscore.Metal>
0.0000

> <Gold.Chemscore.Hbonds>
donor molecule, donor type, donor heavy atom, donor atom, acceptor molecule, acceptor atom, score
      L1  H    10    31       P1  7948  1.00
      P1  H  7997  8009       L1    23  1.00
      P1  H 10752 10763       L1     6  0.01

> <Gold.PLP.Chemscore.Internal.Correction>
0.1345

> <Gold.Rescore>
     Score         DG    S(hbond)    S(metal)    S(lipo)     H(rot)  DE(clash)    DE(int)     intcor
     14.38     -17.15       1.78        0.00      87.08       1.74       0.63       2.14       ----

> <Gold.Chemscore.Fitness>
14.3774

> <Gold.Chemscore.DG>
-17.1476

> <Gold.Chemscore.ZeroCoef>
-5.4800

> <Gold.Chemscore.Hbond>
1.7796

> <Gold.Chemscore.Metal>
0.0000

> <Gold.Chemscore.Lipo>
87.0763

> <Gold.Chemscore.Internal_Hbond>
0.0000

> <Gold.Chemscore.DEClash>
0.6318

> <Gold.Chemscore.DEInternal>
2.1384

> <Gold.Chemscore.Rot>
1.7438

> <Gold.Chemscore.Internal.Correction>
   9.000000E+99

> <Gold.Chemscore.Hbonds>
donor molecule, donor type, donor heavy atom, donor atom, acceptor molecule, acceptor atom, score
      L1  H    10    31       P1  7948  0.86
      P1  H  7997  8009       L1    23  1.00

> <Gold.Chemscore.Hbond.Weighted>
-5.9438

> <Gold.Chemscore.Metal.Weighted>
-0.0000

> <Gold.Chemscore.Lipo.Weighted>
-10.1879

> <Gold.Chemscore.Internal_Hbond.Weighted>
0.0000

> <Gold.Chemscore.DEClash.Weighted>
0.6318

> <Gold.Chemscore.DEInternal.Weighted>
2.1384

> <Gold.Chemscore.Rot.Weighted>
4.4642

> <Gold.Chemscore.Internal.Correction.Weighted>
   9.000000E+99

> <Gold.Protein.RotatedTorsions>
[ 6907 6896 6895 6894 ] final  164.63 input  -60.11 | X-H torsion
[ 7974 7965 7964 7962 ] final -133.52 input  175.53 | X-H torsion
[ 8008 7997 7996 7995 ] final -157.15 input   59.86 | X-H torsion
[ 10167 10162 10161 10158 ] final -131.45 input  -65.29 | X-H torsion
[ 10718 10713 10712 10709 ] final   66.35 input   66.30 | X-H torsion
[ 10763 10752 10751 10750 ] final   73.46 input  -60.55 | X-H torsion
[ 11005 11000 10999 10996 ] final   64.55 input  -57.11 | X-H torsion

> <Gold.Protein.ActiveResidues>
 VAL166  LYS551  ARG553  GLY616  TRP617  ASP618  TYR619  PRO620  LYS621  CYS622 
 ASP623  PHE694  ASN695  SER759  ASP760  ASP761  ALA762  ILE779  LEU786  VAL792 
 PHE793  MET794  SER795  GLU796  ALA797  LYS798  CYS799  TRP800  GLU811  SER814 

> <Gold.Protein.RotatedAtoms>
  151.9068  133.3551  159.3849 H   0  0  0  0  0  0  0  0  0  0  0  0  # atno 6907 bound_to 6896
  150.7067  134.4772  159.5462 H   0  0  0  0  0  0  0  0  0  0  0  0  # atno 6908 bound_to 6896
  152.2371  134.8265  160.0516 H   0  0  0  0  0  0  0  0  0  0  0  0  # atno 6909 bound_to 6896
  144.9185  140.6985  143.4980 H   0  0  0  0  0  0  0  0  0  0  0  0  # atno 7974 bound_to 7965
  155.7280  140.0798  157.2301 H   0  0  0  0  0  0  0  0  0  0  0  0  # atno 8008 bound_to 7997
  154.4036  140.1600  156.2532 H   0  0  0  0  0  0  0  0  0  0  0  0  # atno 8009 bound_to 7997
  155.9135  140.3402  155.6120 H   0  0  0  0  0  0  0  0  0  0  0  0  # atno 8010 bound_to 7997
  139.9188  143.6407  152.2558 H   0  0  0  0  0  0  0  0  0  0  0  0  # atno 10167 bound_to 10162
  157.6163  130.9263  150.0097 H   0  0  0  0  0  0  0  0  0  0  0  0  # atno 10718 bound_to 10713
  153.0523  135.5062  154.7897 H   0  0  0  0  0  0  0  0  0  0  0  0  # atno 10763 bound_to 10752
  154.6750  135.2959  154.9694 H   0  0  0  0  0  0  0  0  0  0  0  0  # atno 10764 bound_to 10752
  154.0499  135.6705  153.4852 H   0  0  0  0  0  0  0  0  0  0  0  0  # atno 10765 bound_to 10752
  139.9951  134.6529  156.0024 H   0  0  0  0  0  0  0  0  0  0  0  0  # atno 11005 bound_to 11000
  145.3335  139.1752  143.4524 LP  0  0  0  0  0  0  0  0  0  0  0  0  # atno 17320 bound_to 7965
  146.3193  140.3367  142.8644 LP  0  0  0  0  0  0  0  0  0  0  0  0  # atno 17321 bound_to 7965
  139.6879  144.7650  151.1491 LP  0  0  0  0  0  0  0  0  0  0  0  0  # atno 17342 bound_to 10162
  140.7667  143.5631  150.9077 LP  0  0  0  0  0  0  0  0  0  0  0  0  # atno 17343 bound_to 10162
  156.1287  130.3644  149.9767 LP  0  0  0  0  0  0  0  0  0  0  0  0  # atno 17370 bound_to 10713
  156.7832  130.9229  151.3646 LP  0  0  0  0  0  0  0  0  0  0  0  0  # atno 17371 bound_to 10713
  141.1598  133.6539  156.4280 LP  0  0  0  0  0  0  0  0  0  0  0  0  # atno 17394 bound_to 11000
  140.4833  134.6644  157.5180 LP  0  0  0  0  0  0  0  0  0  0  0  0  # atno 17395 bound_to 11000

$$$$
