AV-unprocessed.smi:1611|AV-procd|sdf|6474|dock10
  -GOLD-   22720 7133D 1   1.00000     0.00000
 Structure written by MMmdl.
 48 49  0  0  0  0  0  0  0  0  1 V2000
  144.7436  132.4710  149.7655 C   0  0  0  0  0  0  0  0  0  0  0  0
  145.4904  131.9046  150.9608 C   0  0  0  0  0  0  0  0  0  0  0  0
  145.4369  130.5170  151.2039 C   0  0  0  0  0  0  0  0  0  0  0  0
  146.1218  129.9587  152.2971 C   0  0  0  0  0  0  0  0  0  0  0  0
  146.8622  130.7842  153.1651 C   0  0  0  0  0  0  0  0  0  0  0  0
  147.6022  130.1665  154.3373 C   0  0  0  0  0  0  0  0  0  0  0  0
  146.9080  132.1794  152.9401 C   0  0  0  0  0  0  0  0  0  0  0  0
  147.6258  132.9741  153.7964 O   0  0  0  0  0  0  0  0  0  0  0  0
  146.8284  133.9133  154.5032 C   0  0  0  0  0  0  0  0  0  0  0  0
  146.7720  133.5033  155.9837 C   0  0  2  0  0  0  0  0  0  0  0  0
  145.6541  134.1540  156.5553 O   0  0  0  0  0  0  0  0  0  0  0  0
  148.0297  133.9598  156.7556 C   0  0  0  0  0  0  0  0  0  0  0  0
  147.7976  134.0145  158.2044 N   0  0  0  0  0  0  0  0  0  0  0  0
  147.5740  132.7808  158.7826 N   0  0  0  0  0  0  0  0  0  0  0  0
  147.3588  132.6607  160.0515 C   0  0  0  0  0  0  0  0  0  0  0  0
  147.1266  131.2668  160.5695 C   0  0  0  0  0  0  0  0  0  0  0  0
  147.3508  133.8488  160.8991 C   0  0  0  0  0  0  0  0  0  0  0  0
  147.0925  133.6460  162.3860 C   0  0  0  0  0  0  0  0  0  0  0  0
  147.5683  135.0554  160.3187 C   0  0  0  0  0  0  0  0  0  0  0  0
  147.5731  136.2717  161.0657 C   0  0  0  0  0  0  0  0  0  0  0  0
  147.5576  137.2541  161.6779 N   0  0  0  0  0  0  0  0  0  0  0  0
  147.8145  135.1981  158.8819 C   0  0  0  0  0  0  0  0  0  0  0  0
  148.0232  136.2772  158.3252 O   0  0  0  0  0  0  0  0  0  0  0  0
  146.2365  132.7434  151.8261 C   0  0  0  0  0  0  0  0  0  0  0  0
  146.3144  134.2412  151.5621 C   0  0  0  0  0  0  0  0  0  0  0  0
  144.1108  131.7158  149.2983 H   0  0  0  0  0  0  0  0  0  0  0  0
  145.4476  132.8301  149.0144 H   0  0  0  0  0  0  0  0  0  0  0  0
  144.1032  133.3001  150.0669 H   0  0  0  0  0  0  0  0  0  0  0  0
  144.8720  129.8708  150.5478 H   0  0  0  0  0  0  0  0  0  0  0  0
  146.0762  128.8928  152.4661 H   0  0  0  0  0  0  0  0  0  0  0  0
  148.5958  130.6035  154.4413 H   0  0  0  0  0  0  0  0  0  0  0  0
  147.7231  129.0911  154.2052 H   0  0  0  0  0  0  0  0  0  0  0  0
  147.0525  130.3367  155.2630 H   0  0  0  0  0  0  0  0  0  0  0  0
  147.2997  134.8925  154.4077 H   0  0  0  0  0  0  0  0  0  0  0  0
  145.8266  134.0022  154.0785 H   0  0  0  0  0  0  0  0  0  0  0  0
  146.6509  132.4217  156.0553 H   0  0  0  0  0  0  0  0  0  0  0  0
  144.8823  133.6425  156.3668 H   0  0  0  0  0  0  0  0  0  0  0  0
  148.8541  133.2703  156.5649 H   0  0  0  0  0  0  0  0  0  0  0  0
  148.3814  134.9225  156.3784 H   0  0  0  0  0  0  0  0  0  0  0  0
  146.1653  131.1977  161.0788 H   0  0  0  0  0  0  0  0  0  0  0  0
  147.9058  130.9829  161.2772 H   0  0  0  0  0  0  0  0  0  0  0  0
  147.1265  130.5288  159.7658 H   0  0  0  0  0  0  0  0  0  0  0  0
  147.1595  134.5775  162.9476 H   0  0  0  0  0  0  0  0  0  0  0  0
  147.8217  132.9566  162.8128 H   0  0  0  0  0  0  0  0  0  0  0  0
  146.0952  133.2356  162.5475 H   0  0  0  0  0  0  0  0  0  0  0  0
  147.1129  134.7201  152.1283 H   0  0  0  0  0  0  0  0  0  0  0  0
  145.3733  134.7185  151.8356 H   0  0  0  0  0  0  0  0  0  0  0  0
  146.5086  134.4416  150.5087 H   0  0  0  0  0  0  0  0  0  0  0  0
  1  2  1  0  0  0  0
  1 26  1  0  0  0  0
  1 27  1  0  0  0  0
  1 28  1  0  0  0  0
  2 24  1  0  0  0  0
  2  3  2  0  0  0  0
  3  4  1  0  0  0  0
  3 29  1  0  0  0  0
  4  5  2  0  0  0  0
  4 30  1  0  0  0  0
  5  6  1  0  0  0  0
  5  7  1  0  0  0  0
  6 31  1  0  0  0  0
  6 32  1  0  0  0  0
  6 33  1  0  0  0  0
  7  8  1  0  0  0  0
  7 24  2  0  0  0  0
  8  9  1  0  0  0  0
  9 10  1  0  0  0  0
  9 34  1  0  0  0  0
  9 35  1  0  0  0  0
 10 11  1  0  0  0  0
 10 12  1  0  0  0  0
 10 36  1  0  0  0  0
 11 37  1  0  0  0  0
 12 13  1  0  0  0  0
 12 38  1  0  0  0  0
 12 39  1  0  0  0  0
 13 22  1  0  0  0  0
 13 14  1  0  0  0  0
 14 15  2  0  0  0  0
 15 16  1  0  0  0  0
 15 17  1  0  0  0  0
 16 40  1  0  0  0  0
 16 41  1  0  0  0  0
 16 42  1  0  0  0  0
 17 18  1  0  0  0  0
 17 19  2  0  0  0  0
 18 43  1  0  0  0  0
 18 44  1  0  0  0  0
 18 45  1  0  0  0  0
 19 20  1  0  0  0  0
 19 22  1  0  0  0  0
 20 21  3  0  0  0  0
 22 23  2  0  0  0  0
 24 25  1  0  0  0  0
 25 46  1  0  0  0  0
 25 47  1  0  0  0  0
 25 48  1  0  0  0  0
M  END
> <s_m_source_file>
AV-unprocessed.smi

> <i_m_source_file_index>
1611

> <i_lp_mmshare_version>
43012

> <i_f3d_flags>
0

> <s_epik_input>
W0NIM11jMVtjSF1bY0hdYyhbQ0gzXSljKGMxW0NIM10pT1tDSDJdW0NASF0oW09IXSlbQ0gyXW4ybmMoW0NIM10pYyhbQ0gzXSljKEMjTiljMj1P

> <s_epik_cmdline>
J2VwaWtfcHl0aG9uJywgJy1waCcsICc3LjAnLCAnLXRuJywgJzgnLCAnLW1hJywgJzIwMCcsICctbWV0YWxfYmluZGluZycsICctaW1hZScsICc8aW5maWxlLm1hZT4nLCAnLW9tYWUnLCAnPG91dGZpbGUubWFlPic=

> <r_lp_tautomer_probability>
1

> <r_epik_Ionization_Penalty>
1.17331e-07

> <r_epik_Ionization_Penalty_Charging>
1.57223e-10

> <r_epik_Ionization_Penalty_Neutral>
1.17174e-07

> <r_epik_State_Penalty>
-0

> <r_epik_Charging_Adjusted_Penalty>
1.57223e-10

> <i_epik_Tot_Q>
0

> <i_epik_Tot_abs_Q>
0

> <r_epik_Metal_State_Penalty>
-0

> <b_epik_Metal_Only>
0

> <s_lp_Force_Field>
OPLS_2005

> <r_lp_Energy>
36.6232

> <b_lp_Chiralities_Consistent>
1

> <s_lp_Variant>
AV-unprocessed.smi:1611-1

> <Gold.Version>
5.8.1

> <Gold.Id.Protein>
6NUR|6NUR_protein|mol2

> <Gold.PLP.Fitness>
39.5834

> <Gold.PLP.PLP>
-35.8901

> <Gold.PLP.part.hbond>
-2.0000

> <Gold.PLP.part.metal>
0.0000

> <Gold.PLP.part.buried>
-5.3419

> <Gold.PLP.part.nonpolar>
-28.9565

> <Gold.PLP.part.repulsive>
0.0904

> <Gold.PLP.ligand.clash>
0.0000

> <Gold.PLP.ligand.torsion>
0.7738

> <Gold.PLP.Chemscore.Hbond>
1.7120

> <Gold.PLP.Chemscore.CHOScore>
0.0000

> <Gold.PLP.Chemscore.Metal>
0.0000

> <Gold.Chemscore.Hbonds>
donor molecule, donor type, donor heavy atom, donor atom, acceptor molecule, acceptor atom, score
      P1  H  6931  6943       L1    21  0.94
      P1  H  6934  6947       L1    21  0.75

> <Gold.PLP.Chemscore.Internal.Correction>
0.1049

> <Gold.Rescore>
     Score         DG    S(hbond)    S(metal)    S(lipo)     H(rot)  DE(clash)    DE(int)     intcor
     15.64     -17.49       1.75        0.00     102.47       2.27       0.11       1.74       ----

> <Gold.Chemscore.Fitness>
15.6417

> <Gold.Chemscore.DG>
-17.4886

> <Gold.Chemscore.ZeroCoef>
-5.4800

> <Gold.Chemscore.Hbond>
1.7463

> <Gold.Chemscore.Metal>
0.0000

> <Gold.Chemscore.Lipo>
102.4671

> <Gold.Chemscore.Internal_Hbond>
0.0000

> <Gold.Chemscore.DEClash>
0.1080

> <Gold.Chemscore.DEInternal>
1.7388

> <Gold.Chemscore.Rot>
2.2706

> <Gold.Chemscore.Internal.Correction>
   9.000000E+99

> <Gold.Chemscore.Hbonds>
donor molecule, donor type, donor heavy atom, donor atom, acceptor molecule, acceptor atom, score
      P1  H  6931  6943       L1    21  0.90
      P1  H  6934  6947       L1    21  0.75

> <Gold.Chemscore.Hbond.Weighted>
-5.8326

> <Gold.Chemscore.Metal.Weighted>
-0.0000

> <Gold.Chemscore.Lipo.Weighted>
-11.9886

> <Gold.Chemscore.Internal_Hbond.Weighted>
0.0000

> <Gold.Chemscore.DEClash.Weighted>
0.1080

> <Gold.Chemscore.DEInternal.Weighted>
1.7388

> <Gold.Chemscore.Rot.Weighted>
5.8127

> <Gold.Chemscore.Internal.Correction.Weighted>
   9.000000E+99

> <Gold.Protein.RotatedTorsions>
[ 6907 6896 6895 6894 ] final -175.61 input  -60.11 | X-H torsion
[ 7974 7965 7964 7962 ] final -112.07 input  175.53 | X-H torsion
[ 8008 7997 7996 7995 ] final   19.12 input   59.86 | X-H torsion
[ 10167 10162 10161 10158 ] final  -22.82 input  -65.29 | X-H torsion
[ 10718 10713 10712 10709 ] final  109.42 input   66.30 | X-H torsion
[ 10763 10752 10751 10750 ] final   51.17 input  -60.55 | X-H torsion
[ 11005 11000 10999 10996 ] final  -85.36 input  -57.11 | X-H torsion

> <Gold.Protein.ActiveResidues>
 VAL166  LYS551  ARG553  GLY616  TRP617  ASP618  TYR619  PRO620  LYS621  CYS622 
 ASP623  PHE694  ASN695  SER759  ASP760  ASP761  ALA762  ILE779  LEU786  VAL792 
 PHE793  MET794  SER795  GLU796  ALA797  LYS798  CYS799  TRP800  GLU811  SER814 

> <Gold.Protein.RotatedAtoms>
  151.5914  133.3366  159.3028 H   0  0  0  0  0  0  0  0  0  0  0  0  # atno 6907 bound_to 6896
  150.8258  134.7492  159.6823 H   0  0  0  0  0  0  0  0  0  0  0  0  # atno 6908 bound_to 6896
  152.4347  134.5715  159.9974 H   0  0  0  0  0  0  0  0  0  0  0  0  # atno 6909 bound_to 6896
  145.1485  140.8816  143.3660 H   0  0  0  0  0  0  0  0  0  0  0  0  # atno 7974 bound_to 7965
  154.9161  140.3021  155.5240 H   0  0  0  0  0  0  0  0  0  0  0  0  # atno 8008 bound_to 7997
  156.3012  140.2380  156.4141 H   0  0  0  0  0  0  0  0  0  0  0  0  # atno 8009 bound_to 7997
  154.8377  140.0415  157.1509 H   0  0  0  0  0  0  0  0  0  0  0  0  # atno 8010 bound_to 7997
  140.7287  143.4499  151.0531 H   0  0  0  0  0  0  0  0  0  0  0  0  # atno 10167 bound_to 10162
  157.6542  131.0913  150.6451 H   0  0  0  0  0  0  0  0  0  0  0  0  # atno 10718 bound_to 10713
  152.9785  135.5854  154.4372 H   0  0  0  0  0  0  0  0  0  0  0  0  # atno 10763 bound_to 10752
  154.3978  135.2768  155.2117 H   0  0  0  0  0  0  0  0  0  0  0  0  # atno 10764 bound_to 10752
  154.3961  135.6114  153.5925 H   0  0  0  0  0  0  0  0  0  0  0  0  # atno 10765 bound_to 10752
  141.1642  133.7395  156.9003 H   0  0  0  0  0  0  0  0  0  0  0  0  # atno 11005 bound_to 11000
  145.0456  139.3223  143.5954 LP  0  0  0  0  0  0  0  0  0  0  0  0  # atno 17320 bound_to 7965
  146.3497  139.9846  142.8692 LP  0  0  0  0  0  0  0  0  0  0  0  0  # atno 17321 bound_to 7965
  139.8175  143.7866  152.3175 LP  0  0  0  0  0  0  0  0  0  0  0  0  # atno 17342 bound_to 10162
  139.7937  144.7400  150.9920 LP  0  0  0  0  0  0  0  0  0  0  0  0  # atno 17343 bound_to 10162
  156.6759  130.4553  149.5643 LP  0  0  0  0  0  0  0  0  0  0  0  0  # atno 17370 bound_to 10713
  156.1964  130.6592  151.1119 LP  0  0  0  0  0  0  0  0  0  0  0  0  # atno 17371 bound_to 10713
  140.1587  134.9180  157.2687 LP  0  0  0  0  0  0  0  0  0  0  0  0  # atno 17394 bound_to 11000
  140.2637  134.3542  155.7397 LP  0  0  0  0  0  0  0  0  0  0  0  0  # atno 17395 bound_to 11000

$$$$
