AV-unprocessed.smi:1561|AV-procd|sdf|6284|dock8
  -GOLD-   22720 6483D 1   1.00000     0.00000
 Structure written by MMmdl.
 33 34  0  0  0  0  0  0  0  0  1 V2000
  148.6871  140.8024  156.5761 C   0  0  0  0  0  0  0  0  0  0  0  0
  150.0678  141.1118  155.9617 C   0  0  1  0  0  0  0  0  0  0  0  0
  150.9939  141.8584  156.9344 C   0  0  0  0  0  0  0  0  0  0  0  0
  151.6946  141.2381  157.7349 O   0  0  0  0  0  0  0  0  0  0  0  0
  150.9843  143.1986  156.8516 N   0  0  0  0  0  0  0  0  0  0  0  0
  151.7911  144.1051  157.6624 C   0  0  0  0  0  0  0  0  0  0  0  0
  151.6845  143.7844  159.1650 C   0  0  2  0  0  0  0  0  0  0  0  0
  151.8901  144.9870  160.0632 C   0  0  0  0  0  0  0  0  0  0  0  0
  152.1912  144.3342  161.4097 C   0  0  0  0  0  0  0  0  0  0  0  0
  152.8028  143.0821  161.1116 O   0  0  0  0  0  0  0  0  0  0  0  0
  152.7560  142.8383  159.7095 C   0  0  0  0  0  0  0  0  0  0  0  0
  150.7295  139.9159  155.4522 N   0  0  0  0  0  0  0  0  0  0  0  0
  151.4257  138.9633  156.1686 C   0  0  0  0  0  0  0  0  0  0  0  0
  151.8348  138.0035  155.2878 C   0  0  0  0  0  0  0  0  0  0  0  0
  151.3237  138.4518  154.0385 C   0  0  0  0  0  0  0  0  0  0  0  0
  150.6568  139.5894  154.1404 N   0  0  0  0  0  0  0  0  0  0  0  0
  148.1881  141.7165  156.8999 H   0  0  0  0  0  0  0  0  0  0  0  0
  148.7589  140.1425  157.4417 H   0  0  0  0  0  0  0  0  0  0  0  0
  148.0380  140.3184  155.8459 H   0  0  0  0  0  0  0  0  0  0  0  0
  149.8946  141.7687  155.1075 H   0  0  0  0  0  0  0  0  0  0  0  0
  150.3765  143.6234  156.1664 H   0  0  0  0  0  0  0  0  0  0  0  0
  152.8330  144.0947  157.3375 H   0  0  0  0  0  0  0  0  0  0  0  0
  151.4281  145.1172  157.4818 H   0  0  0  0  0  0  0  0  0  0  0  0
  150.7015  143.3601  159.3770 H   0  0  0  0  0  0  0  0  0  0  0  0
  152.7523  145.5673  159.7303 H   0  0  0  0  0  0  0  0  0  0  0  0
  151.0256  145.6510  160.0978 H   0  0  0  0  0  0  0  0  0  0  0  0
  152.8350  144.9531  162.0351 H   0  0  0  0  0  0  0  0  0  0  0  0
  151.2671  144.1458  161.9574 H   0  0  0  0  0  0  0  0  0  0  0  0
  152.5411  141.7912  159.4955 H   0  0  0  0  0  0  0  0  0  0  0  0
  153.7328  143.0772  159.2863 H   0  0  0  0  0  0  0  0  0  0  0  0
  151.5709  139.0470  157.2356 H   0  0  0  0  0  0  0  0  0  0  0  0
  152.4070  137.1137  155.5036 H   0  0  0  0  0  0  0  0  0  0  0  0
  151.4130  137.9855  153.0684 H   0  0  0  0  0  0  0  0  0  0  0  0
  1  2  1  0  0  0  0
  1 17  1  0  0  0  0
  1 18  1  0  0  0  0
  1 19  1  0  0  0  0
  2  3  1  0  0  0  0
  2 12  1  0  0  0  0
  2 20  1  0  0  0  0
  3  4  2  0  0  0  0
  3  5  1  0  0  0  0
  5  6  1  0  0  0  0
  5 21  1  0  0  0  0
  6  7  1  0  0  0  0
  6 22  1  0  0  0  0
  6 23  1  0  0  0  0
  7 11  1  0  0  0  0
  7  8  1  0  0  0  0
  7 24  1  0  0  0  0
  8  9  1  0  0  0  0
  8 25  1  0  0  0  0
  8 26  1  0  0  0  0
  9 10  1  0  0  0  0
  9 27  1  0  0  0  0
  9 28  1  0  0  0  0
 10 11  1  0  0  0  0
 11 29  1  0  0  0  0
 11 30  1  0  0  0  0
 12 16  1  0  0  0  0
 12 13  1  0  0  0  0
 13 14  2  0  0  0  0
 13 31  1  0  0  0  0
 14 15  1  0  0  0  0
 14 32  1  0  0  0  0
 15 16  2  0  0  0  0
 15 33  1  0  0  0  0
M  END
> <s_m_source_file>
AV-unprocessed.smi

> <i_m_source_file_index>
1561

> <i_lp_mmshare_version>
43012

> <i_f3d_flags>
0

> <s_epik_input>
bjFbY0hdW2NIXVtjSF1uMVtDQEhdKFtDSDNdKUMoPU8pW05IXVtDSDJdW0NAQEhdMltDSDJdW0NIMl1PW0NIMl0y

> <s_epik_cmdline>
J2VwaWtfcHl0aG9uJywgJy1waCcsICc3LjAnLCAnLXRuJywgJzgnLCAnLW1hJywgJzIwMCcsICctbWV0YWxfYmluZGluZycsICctaW1hZScsICc8aW5maWxlLm1hZT4nLCAnLW9tYWUnLCAnPG91dGZpbGUubWFlPic=

> <r_lp_tautomer_probability>
1

> <r_epik_Ionization_Penalty>
3.82077e-05

> <r_epik_Ionization_Penalty_Charging>
0

> <r_epik_Ionization_Penalty_Neutral>
3.82077e-05

> <r_epik_State_Penalty>
-0

> <r_epik_Charging_Adjusted_Penalty>
0

> <i_epik_Tot_Q>
0

> <i_epik_Tot_abs_Q>
0

> <r_epik_Metal_State_Penalty>
-0

> <b_epik_Metal_Only>
0

> <s_lp_Force_Field>
OPLS_2005

> <r_lp_Energy>
22.8323

> <b_lp_Chiralities_Consistent>
1

> <s_lp_Variant>
AV-unprocessed.smi:1561-2

> <Gold.Version>
5.8.1

> <Gold.Id.Protein>
6NUR|6NUR_protein|mol2

> <Gold.PLP.Fitness>
42.9547

> <Gold.PLP.PLP>
-37.1489

> <Gold.PLP.part.hbond>
-2.0000

> <Gold.PLP.part.metal>
0.0000

> <Gold.PLP.part.buried>
-5.9734

> <Gold.PLP.part.nonpolar>
-29.8669

> <Gold.PLP.part.repulsive>
0.2602

> <Gold.PLP.ligand.clash>
0.0000

> <Gold.PLP.ligand.torsion>
1.5771

> <Gold.PLP.Chemscore.Hbond>
2.0000

> <Gold.PLP.Chemscore.CHOScore>
0.9522

> <Gold.PLP.Chemscore.Metal>
0.0000

> <Gold.Chemscore.Hbonds>
donor molecule, donor type, donor heavy atom, donor atom, acceptor molecule, acceptor atom, score
      L1  H     5    21       P1  8028  1.00
      P1  H  7989  7998       L1    16  1.00
      L1  C    15    33       P1  7949  0.95

> <Gold.PLP.Chemscore.Internal.Correction>
0.1036

> <Gold.Rescore>
     Score         DG    S(hbond)    S(metal)    S(lipo)     H(rot)  DE(clash)    DE(int)     intcor
     12.54     -18.01       1.92        0.00      87.51       1.61       0.40       5.07       ----

> <Gold.Chemscore.Fitness>
12.5402

> <Gold.Chemscore.DG>
-18.0129

> <Gold.Chemscore.ZeroCoef>
-5.4800

> <Gold.Chemscore.Hbond>
1.9204

> <Gold.Chemscore.Metal>
0.0000

> <Gold.Chemscore.Lipo>
87.5124

> <Gold.Chemscore.Internal_Hbond>
0.0000

> <Gold.Chemscore.DEClash>
0.3991

> <Gold.Chemscore.DEInternal>
5.0737

> <Gold.Chemscore.Rot>
1.6094

> <Gold.Chemscore.Internal.Correction>
   9.000000E+99

> <Gold.Chemscore.Hbonds>
donor molecule, donor type, donor heavy atom, donor atom, acceptor molecule, acceptor atom, score
      L1  H     5    21       P1  8028  0.97
      P1  H  7989  7998       L1    16  0.17

> <Gold.Chemscore.Hbond.Weighted>
-6.4141

> <Gold.Chemscore.Metal.Weighted>
-0.0000

> <Gold.Chemscore.Lipo.Weighted>
-10.2389

> <Gold.Chemscore.Internal_Hbond.Weighted>
0.0000

> <Gold.Chemscore.DEClash.Weighted>
0.3991

> <Gold.Chemscore.DEInternal.Weighted>
5.0737

> <Gold.Chemscore.Rot.Weighted>
4.1201

> <Gold.Chemscore.Internal.Correction.Weighted>
   9.000000E+99

> <Gold.Protein.RotatedTorsions>
[ 6907 6896 6895 6894 ] final   45.72 input  -60.11 | X-H torsion
[ 7974 7965 7964 7962 ] final   52.28 input  175.53 | X-H torsion
[ 8008 7997 7996 7995 ] final   84.20 input   59.86 | X-H torsion
[ 10167 10162 10161 10158 ] final -157.81 input  -65.29 | X-H torsion
[ 10718 10713 10712 10709 ] final   14.75 input   66.30 | X-H torsion
[ 10763 10752 10751 10750 ] final  -74.07 input  -60.55 | X-H torsion
[ 11005 11000 10999 10996 ] final   86.56 input  -57.11 | X-H torsion

> <Gold.Protein.ActiveResidues>
 VAL166  LYS551  ARG553  GLY616  TRP617  ASP618  TYR619  PRO620  LYS621  CYS622 
 ASP623  PHE694  ASN695  SER759  ASP760  ASP761  ALA762  ILE779  LEU786  VAL792 
 PHE793  MET794  SER795  GLU796  ALA797  LYS798  CYS799  TRP800  GLU811  SER814 

> <Gold.Protein.RotatedAtoms>
  152.2479  134.8163  160.0450 H   0  0  0  0  0  0  0  0  0  0  0  0  # atno 6907 bound_to 6896
  151.8854  133.3499  159.3788 H   0  0  0  0  0  0  0  0  0  0  0  0  # atno 6908 bound_to 6896
  150.7074  134.4903  159.5557 H   0  0  0  0  0  0  0  0  0  0  0  0  # atno 6909 bound_to 6896
  145.9830  139.4261  143.0120 H   0  0  0  0  0  0  0  0  0  0  0  0  # atno 7974 bound_to 7965
  155.9339  140.3413  155.6271 H   0  0  0  0  0  0  0  0  0  0  0  0  # atno 8008 bound_to 7997
  155.7123  140.0773  157.2384 H   0  0  0  0  0  0  0  0  0  0  0  0  # atno 8009 bound_to 7997
  154.4090  140.1620  156.2298 H   0  0  0  0  0  0  0  0  0  0  0  0  # atno 8010 bound_to 7997
  139.6741  143.9693  152.2301 H   0  0  0  0  0  0  0  0  0  0  0  0  # atno 10167 bound_to 10162
  157.0436  130.6241  149.5755 H   0  0  0  0  0  0  0  0  0  0  0  0  # atno 10718 bound_to 10713
  154.4681  135.5876  153.6302 H   0  0  0  0  0  0  0  0  0  0  0  0  # atno 10763 bound_to 10752
  152.9831  135.6060  154.3401 H   0  0  0  0  0  0  0  0  0  0  0  0  # atno 10764 bound_to 10752
  154.3280  135.2843  155.2465 H   0  0  0  0  0  0  0  0  0  0  0  0  # atno 10765 bound_to 10752
  139.8941  134.8364  156.2738 H   0  0  0  0  0  0  0  0  0  0  0  0  # atno 11005 bound_to 11000
  145.7742  140.9883  143.1133 LP  0  0  0  0  0  0  0  0  0  0  0  0  # atno 17320 bound_to 7965
  144.6866  139.9485  143.7477 LP  0  0  0  0  0  0  0  0  0  0  0  0  # atno 17321 bound_to 7965
  139.9466  144.6648  150.8213 LP  0  0  0  0  0  0  0  0  0  0  0  0  # atno 17342 bound_to 10162
  140.7629  143.3210  151.2623 LP  0  0  0  0  0  0  0  0  0  0  0  0  # atno 17343 bound_to 10162
  156.0030  130.5112  150.7731 LP  0  0  0  0  0  0  0  0  0  0  0  0  # atno 17370 bound_to 10713
  157.5085  131.0924  151.0227 LP  0  0  0  0  0  0  0  0  0  0  0  0  # atno 17371 bound_to 10713
  141.0083  133.7110  156.1071 LP  0  0  0  0  0  0  0  0  0  0  0  0  # atno 17394 bound_to 11000
  140.7402  134.4158  157.5555 LP  0  0  0  0  0  0  0  0  0  0  0  0  # atno 17395 bound_to 11000

$$$$
