AV-unprocessed.smi:2329|AV-procd|sdf|9309|dock4
  -GOLD-   2272012523D 1   1.00000     0.00000
 Structure written by MMmdl.
 45 48  0  0  0  0  0  0  0  0  1 V2000
  143.7303  133.7992  151.0595 C   0  0  0  0  0  0  0  0  0  0  0  0
  144.1200  134.6103  152.2776 C   0  0  0  0  0  0  0  0  0  0  0  0
  143.1981  134.8481  153.3160 C   0  0  0  0  0  0  0  0  0  0  0  0
  143.6239  135.6097  154.4189 C   0  0  0  0  0  0  0  0  0  0  0  0
  144.9442  136.0985  154.4381 C   0  0  0  0  0  0  0  0  0  0  0  0
  145.8062  135.8135  153.3555 C   0  0  0  0  0  0  0  0  0  0  0  0
  147.1111  136.3587  153.4688 N   0  0  0  0  0  0  0  0  0  0  0  0
  147.8404  136.5647  154.5826 C   0  0  0  0  0  0  0  0  0  0  0  0
  147.4289  136.4082  155.7307 O   0  0  0  0  0  0  0  0  0  0  0  0
  149.0965  136.9798  154.3421 N   0  0  0  0  0  0  0  0  0  0  0  0
  150.1381  137.2911  155.3225 C   0  0  1  0  0  0  0  0  0  0  0  0
  151.3411  137.9834  154.6804 C   0  0  2  0  0  0  0  0  0  0  0  0
  152.7543  137.5928  154.4297 C   0  0  0  0  0  0  0  0  0  0  0  0
  153.4323  138.8868  154.9531 C   0  0  0  0  0  0  0  0  0  0  0  0
  152.3883  139.6428  155.6130 O   0  0  0  0  0  0  0  0  0  0  0  0
  151.4690  138.6547  156.0314 C   0  0  1  0  0  0  0  0  0  0  0  0
  149.9285  138.6550  156.0905 C   0  0  0  0  0  0  0  0  0  0  0  0
  149.1659  139.8113  155.4198 C   0  0  0  0  0  0  0  0  0  0  0  0
  147.7872  139.8686  156.0703 C   0  0  0  0  0  0  0  0  0  0  0  0
  148.0274  139.4344  157.5119 C   0  0  0  0  0  0  0  0  0  0  0  0
  149.3023  138.5823  157.4892 C   0  0  0  0  0  0  0  0  0  0  0  0
  145.3866  135.0782  152.2960 N   0  0  0  0  0  0  0  0  0  0  0  0
  142.6709  133.5421  151.0776 H   0  0  0  0  0  0  0  0  0  0  0  0
  144.3059  132.8739  151.0215 H   0  0  0  0  0  0  0  0  0  0  0  0
  143.9268  134.3639  150.1477 H   0  0  0  0  0  0  0  0  0  0  0  0
  142.1915  134.4592  153.2712 H   0  0  0  0  0  0  0  0  0  0  0  0
  142.9499  135.8166  155.2370 H   0  0  0  0  0  0  0  0  0  0  0  0
  145.2870  136.6861  155.2775 H   0  0  0  0  0  0  0  0  0  0  0  0
  147.5704  136.5671  152.5948 H   0  0  0  0  0  0  0  0  0  0  0  0
  149.3498  137.1132  153.3736 H   0  0  0  0  0  0  0  0  0  0  0  0
  150.4208  136.4484  155.9606 H   0  0  0  0  0  0  0  0  0  0  0  0
  151.0112  138.6757  153.8996 H   0  0  0  0  0  0  0  0  0  0  0  0
  153.0435  136.7156  155.0102 H   0  0  0  0  0  0  0  0  0  0  0  0
  152.9623  137.4074  153.3756 H   0  0  0  0  0  0  0  0  0  0  0  0
  154.2320  138.6491  155.6558 H   0  0  0  0  0  0  0  0  0  0  0  0
  153.8579  139.4807  154.1439 H   0  0  0  0  0  0  0  0  0  0  0  0
  151.9114  138.0175  156.8060 H   0  0  0  0  0  0  0  0  0  0  0  0
  149.6886  140.7515  155.6009 H   0  0  0  0  0  0  0  0  0  0  0  0
  149.0738  139.7082  154.3386 H   0  0  0  0  0  0  0  0  0  0  0  0
  147.3292  140.8556  155.9987 H   0  0  0  0  0  0  0  0  0  0  0  0
  147.1198  139.1589  155.5808 H   0  0  0  0  0  0  0  0  0  0  0  0
  148.1864  140.3125  158.1389 H   0  0  0  0  0  0  0  0  0  0  0  0
  147.1742  138.8904  157.9192 H   0  0  0  0  0  0  0  0  0  0  0  0
  149.0712  137.5527  157.7616 H   0  0  0  0  0  0  0  0  0  0  0  0
  149.9977  138.9454  158.2469 H   0  0  0  0  0  0  0  0  0  0  0  0
  1  2  1  0  0  0  0
  1 23  1  0  0  0  0
  1 24  1  0  0  0  0
  1 25  1  0  0  0  0
  2 22  1  0  0  0  0
  2  3  2  0  0  0  0
  3  4  1  0  0  0  0
  3 26  1  0  0  0  0
  4  5  2  0  0  0  0
  4 27  1  0  0  0  0
  5  6  1  0  0  0  0
  5 28  1  0  0  0  0
  6  7  1  0  0  0  0
  6 22  2  0  0  0  0
  7  8  1  0  0  0  0
  7 29  1  0  0  0  0
  8  9  2  0  0  0  0
  8 10  1  0  0  0  0
 10 11  1  0  0  0  0
 10 30  1  0  0  0  0
 11 17  1  0  0  0  0
 11 12  1  0  0  0  0
 11 31  1  0  0  0  0
 12 16  1  0  0  0  0
 12 13  1  0  0  0  0
 12 32  1  0  0  0  0
 13 14  1  0  0  0  0
 13 33  1  0  0  0  0
 13 34  1  0  0  0  0
 14 15  1  0  0  0  0
 14 35  1  0  0  0  0
 14 36  1  0  0  0  0
 15 16  1  0  0  0  0
 16 17  1  0  0  0  0
 16 37  1  0  0  0  0
 17 21  1  0  0  0  0
 17 18  1  0  0  0  0
 18 19  1  0  0  0  0
 18 38  1  0  0  0  0
 18 39  1  0  0  0  0
 19 20  1  0  0  0  0
 19 40  1  0  0  0  0
 19 41  1  0  0  0  0
 20 21  1  0  0  0  0
 20 42  1  0  0  0  0
 20 43  1  0  0  0  0
 21 44  1  0  0  0  0
 21 45  1  0  0  0  0
M  END
> <s_m_source_file>
AV-unprocessed.smi

> <i_m_source_file_index>
2329

> <i_lp_mmshare_version>
43012

> <i_f3d_flags>
0

> <s_epik_input>
W0NIM11jMVtjSF1bY0hdW2NIXWMobjEpW05IXUMoPU8pW05IXVtDQEBIXTJbQ0BASF0oW0NIMl1bQ0gyXU8zKVtDQEhdM0MyNFtDSDJdW0NIMl1bQ0gyXVtDSDJdNA==

> <s_epik_cmdline>
J2VwaWtfcHl0aG9uJywgJy1waCcsICc3LjAnLCAnLXRuJywgJzgnLCAnLW1hJywgJzIwMCcsICctbWV0YWxfYmluZGluZycsICctaW1hZScsICc8aW5maWxlLm1hZT4nLCAnLW9tYWUnLCAnPG91dGZpbGUubWFlPic=

> <r_lp_tautomer_probability>
1

> <r_epik_Ionization_Penalty>
8.97002e-05

> <r_epik_Ionization_Penalty_Charging>
0

> <r_epik_Ionization_Penalty_Neutral>
8.97002e-05

> <r_epik_State_Penalty>
-0

> <r_epik_Charging_Adjusted_Penalty>
0

> <i_epik_Tot_Q>
0

> <i_epik_Tot_abs_Q>
0

> <r_epik_Metal_State_Penalty>
-0

> <b_epik_Metal_Only>
0

> <s_lp_Force_Field>
OPLS_2005

> <r_lp_Energy>
86.4026

> <b_lp_Chiralities_Consistent>
1

> <s_lp_Variant>
AV-unprocessed.smi:2329-8

> <Gold.Version>
5.8.1

> <Gold.Id.Protein>
6NUR|6NUR_protein|mol2

> <Gold.PLP.Fitness>
36.9692

> <Gold.PLP.PLP>
-28.5228

> <Gold.PLP.part.hbond>
-3.0000

> <Gold.PLP.part.metal>
0.0000

> <Gold.PLP.part.buried>
-3.0970

> <Gold.PLP.part.nonpolar>
-22.5543

> <Gold.PLP.part.repulsive>
0.1620

> <Gold.PLP.ligand.clash>
0.0000

> <Gold.PLP.ligand.torsion>
0.3561

> <Gold.PLP.Chemscore.Hbond>
2.9600

> <Gold.PLP.Chemscore.CHOScore>
0.0000

> <Gold.PLP.Chemscore.Metal>
0.0000

> <Gold.Chemscore.Hbonds>
donor molecule, donor type, donor heavy atom, donor atom, acceptor molecule, acceptor atom, score
      L1  H     7    29       P1  7948  0.78
      L1  H    10    30       P1  7948  0.69

> <Gold.PLP.Chemscore.Internal.Correction>
0.2787

> <Gold.Rescore>
     Score         DG    S(hbond)    S(metal)    S(lipo)     H(rot)  DE(clash)    DE(int)     intcor
     18.42     -21.11       2.73        0.00      77.43       1.00       0.97       1.72       ----

> <Gold.Chemscore.Fitness>
18.4185

> <Gold.Chemscore.DG>
-21.1110

> <Gold.Chemscore.ZeroCoef>
-5.4800

> <Gold.Chemscore.Hbond>
2.7339

> <Gold.Chemscore.Metal>
0.0000

> <Gold.Chemscore.Lipo>
77.4332

> <Gold.Chemscore.Internal_Hbond>
0.0000

> <Gold.Chemscore.DEClash>
0.9726

> <Gold.Chemscore.DEInternal>
1.7200

> <Gold.Chemscore.Rot>
1.0000

> <Gold.Chemscore.Internal.Correction>
   9.000000E+99

> <Gold.Chemscore.Hbonds>
donor molecule, donor type, donor heavy atom, donor atom, acceptor molecule, acceptor atom, score
      L1  H     7    29       P1  7948  0.76
      L1  H    10    30       P1  7948  0.67

> <Gold.Chemscore.Hbond.Weighted>
-9.1314

> <Gold.Chemscore.Metal.Weighted>
-0.0000

> <Gold.Chemscore.Lipo.Weighted>
-9.0597

> <Gold.Chemscore.Internal_Hbond.Weighted>
0.0000

> <Gold.Chemscore.DEClash.Weighted>
0.9726

> <Gold.Chemscore.DEInternal.Weighted>
1.7200

> <Gold.Chemscore.Rot.Weighted>
2.5600

> <Gold.Chemscore.Internal.Correction.Weighted>
   9.000000E+99

> <Gold.Protein.RotatedTorsions>
[ 6907 6896 6895 6894 ] final  149.47 input  -60.11 | X-H torsion
[ 7974 7965 7964 7962 ] final  108.55 input  175.53 | X-H torsion
[ 8008 7997 7996 7995 ] final  -28.04 input   59.86 | X-H torsion
[ 10167 10162 10161 10158 ] final -133.02 input  -65.29 | X-H torsion
[ 10718 10713 10712 10709 ] final   36.92 input   66.30 | X-H torsion
[ 10763 10752 10751 10750 ] final  -51.97 input  -60.55 | X-H torsion
[ 11005 11000 10999 10996 ] final   39.73 input  -57.11 | X-H torsion

> <Gold.Protein.ActiveResidues>
 VAL166  LYS551  ARG553  GLY616  TRP617  ASP618  TYR619  PRO620  LYS621  CYS622 
 ASP623  PHE694  ASN695  SER759  ASP760  ASP761  ALA762  ILE779  LEU786  VAL792 
 PHE793  MET794  SER795  GLU796  ALA797  LYS798  CYS799  TRP800  GLU811  SER814 

> <Gold.Protein.RotatedAtoms>
  152.1275  133.4389  159.4704 H   0  0  0  0  0  0  0  0  0  0  0  0  # atno 6907 bound_to 6896
  150.6876  134.2460  159.4501 H   0  0  0  0  0  0  0  0  0  0  0  0  # atno 6908 bound_to 6896
  152.0342  134.9749  160.0623 H   0  0  0  0  0  0  0  0  0  0  0  0  # atno 6909 bound_to 6896
  145.2792  139.2638  143.3924 H   0  0  0  0  0  0  0  0  0  0  0  0  # atno 7974 bound_to 7965
  154.4350  140.1856  156.1027 H   0  0  0  0  0  0  0  0  0  0  0  0  # atno 8008 bound_to 7997
  156.0280  140.3333  155.7083 H   0  0  0  0  0  0  0  0  0  0  0  0  # atno 8009 bound_to 7997
  155.5881  140.0628  157.2756 H   0  0  0  0  0  0  0  0  0  0  0  0  # atno 8010 bound_to 7997
  139.9026  143.6589  152.2592 H   0  0  0  0  0  0  0  0  0  0  0  0  # atno 10167 bound_to 10162
  157.3407  130.7546  149.6910 H   0  0  0  0  0  0  0  0  0  0  0  0  # atno 10718 bound_to 10713
  154.1352  135.6514  153.4930 H   0  0  0  0  0  0  0  0  0  0  0  0  # atno 10763 bound_to 10752
  153.0183  135.5302  154.6960 H   0  0  0  0  0  0  0  0  0  0  0  0  # atno 10764 bound_to 10752
  154.6206  135.2964  155.0300 H   0  0  0  0  0  0  0  0  0  0  0  0  # atno 10765 bound_to 10752
  140.2000  134.3883  155.8101 H   0  0  0  0  0  0  0  0  0  0  0  0  # atno 11005 bound_to 11000
  146.3222  140.3255  142.8636 LP  0  0  0  0  0  0  0  0  0  0  0  0  # atno 17320 bound_to 7965
  144.9268  140.7930  143.5714 LP  0  0  0  0  0  0  0  0  0  0  0  0  # atno 17321 bound_to 7965
  139.7012  144.7634  151.1270 LP  0  0  0  0  0  0  0  0  0  0  0  0  # atno 17342 bound_to 10162
  140.7703  143.5455  150.9263 LP  0  0  0  0  0  0  0  0  0  0  0  0  # atno 17343 bound_to 10162
  155.9707  130.4168  150.4251 LP  0  0  0  0  0  0  0  0  0  0  0  0  # atno 17370 bound_to 10713
  157.2298  131.0501  151.2499 LP  0  0  0  0  0  0  0  0  0  0  0  0  # atno 17371 bound_to 10713
  141.2227  133.7089  156.8241 LP  0  0  0  0  0  0  0  0  0  0  0  0  # atno 17394 bound_to 11000
  140.2065  134.8859  157.3227 LP  0  0  0  0  0  0  0  0  0  0  0  0  # atno 17395 bound_to 11000

$$$$
