AV-unprocessed.smi:1670|AV-procd|sdf|6693|dock6
  -GOLD-   22720 7423D 1   1.00000     0.00000
 Structure written by MMmdl.
 41 42  0  0  0  0  0  0  0  0  1 V2000
  148.7453  135.2261  156.4999 C   0  0  0  0  0  0  0  0  0  0  0  0
  149.4401  134.4996  155.3401 C   0  0  2  0  0  0  0  0  0  0  0  0
  150.8727  135.0320  155.1209 C   0  0  0  0  0  0  0  0  0  0  0  0
  150.9716  136.4688  155.3121 N   0  0  0  0  0  0  0  0  0  0  0  0
  151.1674  137.4467  154.3600 C   0  0  0  0  0  0  0  0  0  0  0  0
  151.1709  138.6490  155.0072 C   0  0  0  0  0  0  0  0  0  0  0  0
  150.9688  138.2991  156.3716 C   0  0  0  0  0  0  0  0  0  0  0  0
  150.8556  136.9931  156.5521 N   0  0  0  0  0  0  0  0  0  0  0  0
  148.6347  134.6562  154.1293 N   0  0  0  0  0  0  0  0  0  0  0  0
  147.4889  134.0107  153.8665 C   0  0  0  0  0  0  0  0  0  0  0  0
  146.9464  133.2267  154.6455 O   0  0  0  0  0  0  0  0  0  0  0  0
  147.0252  134.3087  152.6429 N   0  0  0  0  0  0  0  0  0  0  0  0
  145.8419  133.7540  151.9836 C   0  0  2  0  0  0  0  0  0  0  0  0
  146.0722  132.3234  151.4508 C   0  0  0  0  0  0  0  0  0  0  0  0
  144.7832  131.7525  150.8377 C   0  0  0  0  0  0  0  0  0  0  0  0
  144.2356  132.6790  149.7367 C   0  0  1  0  0  0  0  0  0  0  0  0
  143.0196  132.1568  149.2443 O   0  0  0  0  0  0  0  0  0  0  0  0
  144.0025  134.1044  150.2698 C   0  0  0  0  0  0  0  0  0  0  0  0
  145.2883  134.6839  150.8815 C   0  0  0  0  0  0  0  0  0  0  0  0
  149.3039  135.1048  157.4282 H   0  0  0  0  0  0  0  0  0  0  0  0
  147.7427  134.8310  156.6666 H   0  0  0  0  0  0  0  0  0  0  0  0
  148.6547  136.2950  156.3033 H   0  0  0  0  0  0  0  0  0  0  0  0
  149.4976  133.4439  155.6113 H   0  0  0  0  0  0  0  0  0  0  0  0
  151.5761  134.5302  155.7880 H   0  0  0  0  0  0  0  0  0  0  0  0
  151.1998  134.8114  154.1040 H   0  0  0  0  0  0  0  0  0  0  0  0
  151.2796  137.2079  153.3124 H   0  0  0  0  0  0  0  0  0  0  0  0
  151.2949  139.6292  154.5714 H   0  0  0  0  0  0  0  0  0  0  0  0
  150.9033  138.9506  157.2305 H   0  0  0  0  0  0  0  0  0  0  0  0
  149.0000  135.2763  153.4214 H   0  0  0  0  0  0  0  0  0  0  0  0
  147.5607  134.9688  152.0983 H   0  0  0  0  0  0  0  0  0  0  0  0
  145.0857  133.6917  152.7672 H   0  0  0  0  0  0  0  0  0  0  0  0
  146.8561  132.3179  150.6930 H   0  0  0  0  0  0  0  0  0  0  0  0
  146.4152  131.6735  152.2565 H   0  0  0  0  0  0  0  0  0  0  0  0
  144.9775  130.7594  150.4306 H   0  0  0  0  0  0  0  0  0  0  0  0
  144.0357  131.6257  151.6222 H   0  0  0  0  0  0  0  0  0  0  0  0
  144.9449  132.7144  148.9088 H   0  0  0  0  0  0  0  0  0  0  0  0
  142.3299  132.7753  149.4303 H   0  0  0  0  0  0  0  0  0  0  0  0
  143.6514  134.7531  149.4663 H   0  0  0  0  0  0  0  0  0  0  0  0
  143.2157  134.0939  151.0257 H   0  0  0  0  0  0  0  0  0  0  0  0
  145.0867  135.6739  151.2922 H   0  0  0  0  0  0  0  0  0  0  0  0
  146.0254  134.8224  150.0901 H   0  0  0  0  0  0  0  0  0  0  0  0
  1  2  1  0  0  0  0
  1 20  1  0  0  0  0
  1 21  1  0  0  0  0
  1 22  1  0  0  0  0
  2  3  1  0  0  0  0
  2  9  1  0  0  0  0
  2 23  1  0  0  0  0
  3  4  1  0  0  0  0
  3 24  1  0  0  0  0
  3 25  1  0  0  0  0
  4  8  1  0  0  0  0
  4  5  1  0  0  0  0
  5  6  2  0  0  0  0
  5 26  1  0  0  0  0
  6  7  1  0  0  0  0
  6 27  1  0  0  0  0
  7  8  2  0  0  0  0
  7 28  1  0  0  0  0
  9 10  1  0  0  0  0
  9 29  1  0  0  0  0
 10 11  2  0  0  0  0
 10 12  1  0  0  0  0
 12 13  1  0  0  0  0
 12 30  1  0  0  0  0
 13 19  1  0  0  0  0
 13 14  1  0  0  0  0
 13 31  1  0  0  0  0
 14 15  1  0  0  0  0
 14 32  1  0  0  0  0
 14 33  1  0  0  0  0
 15 16  1  0  0  0  0
 15 34  1  0  0  0  0
 15 35  1  0  0  0  0
 16 17  1  0  0  0  0
 16 18  1  0  0  0  0
 16 36  1  0  0  0  0
 17 37  1  0  0  0  0
 18 19  1  0  0  0  0
 18 38  1  0  0  0  0
 18 39  1  0  0  0  0
 19 40  1  0  0  0  0
 19 41  1  0  0  0  0
M  END
> <s_m_source_file>
AV-unprocessed.smi

> <i_m_source_file_index>
1670

> <i_lp_mmshare_version>
43012

> <i_f3d_flags>
0

> <s_epik_input>
bjFbY0hdW2NIXVtjSF1uMVtDSDJdW0NAQEhdKFtDSDNdKVtOSF1DKD1PKVtOSF1bQ0BASF0yW0NIMl1bQ0gyXVtDQEBIXShbT0hdKVtDSDJdW0NIMl0y

> <s_epik_cmdline>
J2VwaWtfcHl0aG9uJywgJy1waCcsICc3LjAnLCAnLXRuJywgJzgnLCAnLW1hJywgJzIwMCcsICctbWV0YWxfYmluZGluZycsICctaW1hZScsICc8aW5maWxlLm1hZT4nLCAnLW9tYWUnLCAnPG91dGZpbGUubWFlPic=

> <r_lp_tautomer_probability>
1

> <r_epik_Ionization_Penalty>
7.33369e-05

> <r_epik_Ionization_Penalty_Charging>
0

> <r_epik_Ionization_Penalty_Neutral>
7.33369e-05

> <r_epik_State_Penalty>
-0

> <r_epik_Charging_Adjusted_Penalty>
0

> <i_epik_Tot_Q>
0

> <i_epik_Tot_abs_Q>
0

> <r_epik_Metal_State_Penalty>
-0

> <b_epik_Metal_Only>
0

> <s_lp_Force_Field>
OPLS_2005

> <r_lp_Energy>
5.26958

> <b_lp_Chiralities_Consistent>
1

> <s_lp_Variant>
AV-unprocessed.smi:1670-1

> <Gold.Version>
5.8.1

> <Gold.Id.Protein>
6NUR|6NUR_protein|mol2

> <Gold.PLP.Fitness>
44.7430

> <Gold.PLP.PLP>
-32.2785

> <Gold.PLP.part.hbond>
-4.7845

> <Gold.PLP.part.metal>
0.0000

> <Gold.PLP.part.buried>
-4.7524

> <Gold.PLP.part.nonpolar>
-23.7118

> <Gold.PLP.part.repulsive>
0.0512

> <Gold.PLP.ligand.clash>
0.0000

> <Gold.PLP.ligand.torsion>
0.8241

> <Gold.PLP.Chemscore.Hbond>
3.6900

> <Gold.PLP.Chemscore.CHOScore>
1.0000

> <Gold.PLP.Chemscore.Metal>
0.0000

> <Gold.Chemscore.Hbonds>
donor molecule, donor type, donor heavy atom, donor atom, acceptor molecule, acceptor atom, score
      L1  H     9    29       P1  7948  1.00
      L1  H    12    30       P1  7948  1.00
      L1  H    17    37       P1 10186  0.81
      P1  H 10785 10796       L1    17  0.86
      L1  C     5    26       P1  7949  1.00

> <Gold.PLP.Chemscore.Internal.Correction>
0.0426

> <Gold.Rescore>
     Score         DG    S(hbond)    S(metal)    S(lipo)     H(rot)  DE(clash)    DE(int)     intcor
     16.45     -18.60       3.02        0.00      74.49       2.22       0.00       2.15       ----

> <Gold.Chemscore.Fitness>
16.4511

> <Gold.Chemscore.DG>
-18.6021

> <Gold.Chemscore.ZeroCoef>
-5.4800

> <Gold.Chemscore.Hbond>
3.0228

> <Gold.Chemscore.Metal>
0.0000

> <Gold.Chemscore.Lipo>
74.4894

> <Gold.Chemscore.Internal_Hbond>
0.0000

> <Gold.Chemscore.DEClash>
0.0000

> <Gold.Chemscore.DEInternal>
2.1510

> <Gold.Chemscore.Rot>
2.2224

> <Gold.Chemscore.Internal.Correction>
   9.000000E+99

> <Gold.Chemscore.Hbonds>
donor molecule, donor type, donor heavy atom, donor atom, acceptor molecule, acceptor atom, score
      L1  H     9    29       P1  7948  0.49
      L1  H    12    30       P1  7948  0.88
      L1  H    17    37       P1 10186  0.80
      P1  H 10785 10796       L1    17  0.68

> <Gold.Chemscore.Hbond.Weighted>
-10.0961

> <Gold.Chemscore.Metal.Weighted>
-0.0000

> <Gold.Chemscore.Lipo.Weighted>
-8.7153

> <Gold.Chemscore.Internal_Hbond.Weighted>
0.0000

> <Gold.Chemscore.DEClash.Weighted>
0.0000

> <Gold.Chemscore.DEInternal.Weighted>
2.1510

> <Gold.Chemscore.Rot.Weighted>
5.6893

> <Gold.Chemscore.Internal.Correction.Weighted>
   9.000000E+99

> <Gold.Protein.RotatedTorsions>
[ 6907 6896 6895 6894 ] final  115.30 input  -60.11 | X-H torsion
[ 7974 7965 7964 7962 ] final   72.44 input  175.53 | X-H torsion
[ 8008 7997 7996 7995 ] final   52.51 input   59.86 | X-H torsion
[ 10167 10162 10161 10158 ] final -108.72 input  -65.29 | X-H torsion
[ 10718 10713 10712 10709 ] final  -24.97 input   66.30 | X-H torsion
[ 10763 10752 10751 10750 ] final -133.35 input  -60.55 | X-H torsion
[ 11005 11000 10999 10996 ] final  -14.26 input  -57.11 | X-H torsion

> <Gold.Protein.ActiveResidues>
 VAL166  LYS551  ARG553  GLY616  TRP617  ASP618  TYR619  PRO620  LYS621  CYS622 
 ASP623  PHE694  ASN695  SER759  ASP760  ASP761  ALA762  ILE779  LEU786  VAL792 
 PHE793  MET794  SER795  GLU796  ALA797  LYS798  CYS799  TRP800  GLU811  SER814 

> <Gold.Protein.RotatedAtoms>
  152.4750  133.8117  159.7006 H   0  0  0  0  0  0  0  0  0  0  0  0  # atno 6907 bound_to 6896
  150.8761  133.7427  159.2952 H   0  0  0  0  0  0  0  0  0  0  0  0  # atno 6908 bound_to 6896
  151.4946  135.1062  159.9865 H   0  0  0  0  0  0  0  0  0  0  0  0  # atno 6909 bound_to 6896
  145.7533  139.2769  143.1418 H   0  0  0  0  0  0  0  0  0  0  0  0  # atno 7974 bound_to 7965
  155.4531  140.3459  155.4303 H   0  0  0  0  0  0  0  0  0  0  0  0  # atno 8008 bound_to 7997
  156.1208  140.1486  156.9237 H   0  0  0  0  0  0  0  0  0  0  0  0  # atno 8009 bound_to 7997
  154.4822  140.0866  156.7383 H   0  0  0  0  0  0  0  0  0  0  0  0  # atno 8010 bound_to 7997
  140.1631  143.4104  152.1410 H   0  0  0  0  0  0  0  0  0  0  0  0  # atno 10167 bound_to 10162
  156.4705  130.4523  149.6872 H   0  0  0  0  0  0  0  0  0  0  0  0  # atno 10718 bound_to 10713
  154.8733  135.3769  154.4558 H   0  0  0  0  0  0  0  0  0  0  0  0  # atno 10763 bound_to 10752
  153.5230  135.7028  153.5727 H   0  0  0  0  0  0  0  0  0  0  0  0  # atno 10764 bound_to 10752
  153.3965  135.3959  155.1924 H   0  0  0  0  0  0  0  0  0  0  0  0  # atno 10765 bound_to 10752
  140.7845  133.8336  155.9323 H   0  0  0  0  0  0  0  0  0  0  0  0  # atno 11005 bound_to 11000
  146.0335  140.8235  142.9864 LP  0  0  0  0  0  0  0  0  0  0  0  0  # atno 17320 bound_to 7965
  144.6845  140.2804  143.7293 LP  0  0  0  0  0  0  0  0  0  0  0  0  # atno 17321 bound_to 7965
  139.5372  144.7221  151.4854 LP  0  0  0  0  0  0  0  0  0  0  0  0  # atno 17342 bound_to 10162
  140.6630  143.8458  150.6909 LP  0  0  0  0  0  0  0  0  0  0  0  0  # atno 17343 bound_to 10162
  156.3623  130.7488  151.2461 LP  0  0  0  0  0  0  0  0  0  0  0  0  # atno 17370 bound_to 10713
  157.7491  131.0347  150.4328 LP  0  0  0  0  0  0  0  0  0  0  0  0  # atno 17371 bound_to 10713
  140.9450  134.1852  157.4770 LP  0  0  0  0  0  0  0  0  0  0  0  0  # atno 17394 bound_to 11000
  139.8738  134.9887  156.5422 LP  0  0  0  0  0  0  0  0  0  0  0  0  # atno 17395 bound_to 11000

$$$$
