AV-unprocessed.smi:283|AV-procd|sdf|2153|dock4
  -GOLD-   2262021493D 1   1.00000     0.00000
 Structure written by MMmdl.
 48 51  0  0  0  0  0  0  0  0  1 V2000
  149.6252  142.3648  157.7656 C   0  0  0  0  0  0  0  0  0  0  0  0
  150.8319  141.6500  157.1431 C   0  0  2  0  0  0  0  0  0  0  0  0
  150.3902  140.4400  156.4510 N   0  0  0  0  0  0  0  0  0  0  0  0
  149.2560  140.4277  155.7150 C   0  0  0  0  0  0  0  0  0  0  0  0
  148.6719  141.5825  155.3010 N   0  0  0  0  0  0  0  0  0  0  0  0
  147.5528  141.5418  154.5730 C   0  0  0  0  0  0  0  0  0  0  0  0
  146.8638  140.4750  154.1633 N   0  0  0  0  0  0  0  0  0  0  0  0
  147.4399  139.3111  154.5821 C   0  0  0  0  0  0  0  0  0  0  0  0
  148.6289  139.2062  155.3574 C   0  0  0  0  0  0  0  0  0  0  0  0
  148.9174  137.8698  155.5991 N   0  0  0  0  0  0  0  0  0  0  0  0
  147.9506  137.2255  155.0029 C   0  0  0  0  0  0  0  0  0  0  0  0
  147.0155  138.0133  154.3685 N   0  0  0  0  0  0  0  0  0  0  0  0
  145.8061  137.5500  153.6119 C   0  0  2  0  0  0  0  0  0  0  0  0
  145.6435  136.1737  153.7945 O   0  0  0  0  0  0  0  0  0  0  0  0
  145.6635  135.4960  152.5394 C   0  0  1  0  0  0  0  0  0  0  0  0
  144.7510  134.2622  152.6214 C   0  0  0  0  0  0  0  0  0  0  0  0
  144.8230  133.6715  153.9015 O   0  0  0  0  0  0  0  0  0  0  0  0
  145.2162  136.5707  151.5447 C   0  0  2  0  0  0  0  0  0  0  0  0
  145.5846  136.2976  150.2062 O   0  0  0  0  0  0  0  0  0  0  0  0
  145.8905  137.8192  152.0966 C   0  0  2  0  0  0  0  0  0  0  0  0
  147.2181  137.9806  151.6195 O   0  0  0  0  0  0  0  0  0  0  0  0
  151.9192  141.4181  158.1953 C   0  0  0  0  0  0  0  0  0  0  0  0
  152.2783  140.0982  158.5548 C   0  0  0  0  0  0  0  0  0  0  0  0
  153.2783  139.8629  159.5169 C   0  0  0  0  0  0  0  0  0  0  0  0
  153.9259  140.9467  160.1368 C   0  0  0  0  0  0  0  0  0  0  0  0
  153.5687  142.2642  159.7955 C   0  0  0  0  0  0  0  0  0  0  0  0
  152.5688  142.5057  158.8320 C   0  0  0  0  0  0  0  0  0  0  0  0
  152.1640  144.1453  158.4607 Cl  0  0  0  0  0  0  0  0  0  0  0  0
  144.9699  138.0665  154.0847 H   0  0  0  0  0  0  0  0  0  0  0  0
  146.6919  135.1956  152.3337 H   0  0  0  0  0  0  0  0  0  0  0  0
  144.1334  136.6928  151.5978 H   0  0  0  0  0  0  0  0  0  0  0  0
  145.3292  138.7222  151.8546 H   0  0  0  0  0  0  0  0  0  0  0  0
  149.9206  143.3147  158.2128 H   0  0  0  0  0  0  0  0  0  0  0  0
  149.1629  141.7590  158.5457 H   0  0  0  0  0  0  0  0  0  0  0  0
  148.8645  142.5789  157.0143 H   0  0  0  0  0  0  0  0  0  0  0  0
  151.2275  142.3058  156.3682 H   0  0  0  0  0  0  0  0  0  0  0  0
  151.0296  139.6590  156.4825 H   0  0  0  0  0  0  0  0  0  0  0  0
  147.1522  142.5000  154.2770 H   0  0  0  0  0  0  0  0  0  0  0  0
  147.8913  136.1469  155.0118 H   0  0  0  0  0  0  0  0  0  0  0  0
  143.7157  134.5538  152.4432 H   0  0  0  0  0  0  0  0  0  0  0  0
  145.0137  133.5271  151.8602 H   0  0  0  0  0  0  0  0  0  0  0  0
  144.1295  133.0338  153.9775 H   0  0  0  0  0  0  0  0  0  0  0  0
  145.2633  137.0010  149.6624 H   0  0  0  0  0  0  0  0  0  0  0  0
  147.7710  137.3488  152.0535 H   0  0  0  0  0  0  0  0  0  0  0  0
  151.7883  139.2549  158.0908 H   0  0  0  0  0  0  0  0  0  0  0  0
  153.5480  138.8506  159.7789 H   0  0  0  0  0  0  0  0  0  0  0  0
  154.6937  140.7682  160.8750 H   0  0  0  0  0  0  0  0  0  0  0  0
  154.0647  143.0941  160.2770 H   0  0  0  0  0  0  0  0  0  0  0  0
  1  2  1  0  0  0  0
  1 33  1  0  0  0  0
  1 34  1  0  0  0  0
  1 35  1  0  0  0  0
  2  3  1  0  0  0  0
  2 22  1  0  0  0  0
  2 36  1  0  0  0  0
  3  4  1  0  0  0  0
  3 37  1  0  0  0  0
  4  9  1  0  0  0  0
  4  5  2  0  0  0  0
  5  6  1  0  0  0  0
  6  7  2  0  0  0  0
  6 38  1  0  0  0  0
  7  8  1  0  0  0  0
  8 12  1  0  0  0  0
  8  9  2  0  0  0  0
  9 10  1  0  0  0  0
 10 11  2  0  0  0  0
 11 12  1  0  0  0  0
 11 39  1  0  0  0  0
 12 13  1  0  0  0  0
 13 29  1  0  0  0  0
 13 20  1  0  0  0  0
 13 14  1  0  0  0  0
 14 15  1  0  0  0  0
 15 30  1  0  0  0  0
 15 16  1  0  0  0  0
 15 18  1  0  0  0  0
 16 17  1  0  0  0  0
 16 40  1  0  0  0  0
 16 41  1  0  0  0  0
 17 42  1  0  0  0  0
 18 31  1  0  0  0  0
 18 19  1  0  0  0  0
 18 20  1  0  0  0  0
 19 43  1  0  0  0  0
 20 32  1  0  0  0  0
 20 21  1  0  0  0  0
 21 44  1  0  0  0  0
 22 27  1  0  0  0  0
 22 23  2  0  0  0  0
 23 24  1  0  0  0  0
 23 45  1  0  0  0  0
 24 25  2  0  0  0  0
 24 46  1  0  0  0  0
 25 26  1  0  0  0  0
 25 47  1  0  0  0  0
 26 27  2  0  0  0  0
 26 48  1  0  0  0  0
 27 28  1  0  0  0  0
M  END
> <s_m_source_file>
AV-unprocessed.smi

> <i_m_source_file_index>
283

> <i_lp_mmshare_version>
43012

> <i_f3d_flags>
0

> <s_epik_input>
Q2xjMVtjSF1bY0hdW2NIXVtjSF1jMVtDQEhdKFtDSDNdKVtOSF1jKG5bY0hdbjIpYyhjMjMpbltjSF1uM1tDQEBIXTRPW0NASF0oW0NIMl1bT0hdKVtDQEBIXShbT0hdKVtDQEhdNFtPSF0=

> <s_epik_cmdline>
J2VwaWtfcHl0aG9uJywgJy1waCcsICc3LjAnLCAnLXRuJywgJzgnLCAnLW1hJywgJzIwMCcsICctbWV0YWxfYmluZGluZycsICctaW1hZScsICc8aW5maWxlLm1hZT4nLCAnLW9tYWUnLCAnPG91dGZpbGUubWFlPic=

> <r_lp_tautomer_probability>
1

> <r_epik_Ionization_Penalty>
0.000266407

> <r_epik_Ionization_Penalty_Charging>
0

> <r_epik_Ionization_Penalty_Neutral>
0.000266407

> <r_epik_State_Penalty>
-0

> <r_epik_Charging_Adjusted_Penalty>
0

> <i_epik_Tot_Q>
0

> <i_epik_Tot_abs_Q>
0

> <r_epik_Metal_State_Penalty>
-0

> <b_epik_Metal_Only>
0

> <s_epik_Chemistry_Notes>
This compound contains an acetal/aminal-like group ( X-CH(R)-Y where X, Y are N, S, or O) that may be acid/base labile, releasing an aldehyde.

> <s_lp_Force_Field>
OPLS_2005

> <r_lp_Energy>
51.2739

> <b_lp_Chiralities_Consistent>
1

> <s_lp_Variant>
AV-unprocessed.smi:283-29

> <Gold.Version>
5.8.1

> <Gold.Id.Protein>
6NUR|6NUR_protein|mol2

> <Gold.PLP.Fitness>
48.9897

> <Gold.PLP.PLP>
-41.1150

> <Gold.PLP.part.hbond>
-5.3539

> <Gold.PLP.part.metal>
0.0000

> <Gold.PLP.part.buried>
-5.4048

> <Gold.PLP.part.nonpolar>
-32.7481

> <Gold.PLP.part.repulsive>
0.4102

> <Gold.PLP.ligand.clash>
0.0000

> <Gold.PLP.ligand.torsion>
0.7904

> <Gold.PLP.Chemscore.Hbond>
3.1240

> <Gold.PLP.Chemscore.CHOScore>
0.0000

> <Gold.PLP.Chemscore.Metal>
0.0000

> <Gold.Chemscore.Hbonds>
donor molecule, donor type, donor heavy atom, donor atom, acceptor molecule, acceptor atom, score
      L1  H    17    42       P1 10957  0.84
      L1  H    19    43       P1 10171  0.66
      L1  H    21    44       P1  7948  0.88
      P1  H  7954  7966       L1    21  0.70

> <Gold.PLP.Chemscore.Internal.Correction>
0.0836

> <Gold.Rescore>
     Score         DG    S(hbond)    S(metal)    S(lipo)     H(rot)  DE(clash)    DE(int)     intcor
     13.49     -15.78       2.86        0.00      96.17       4.10       0.03       2.27       ----

> <Gold.Chemscore.Fitness>
13.4867

> <Gold.Chemscore.DG>
-15.7846

> <Gold.Chemscore.ZeroCoef>
-5.4800

> <Gold.Chemscore.Hbond>
2.8564

> <Gold.Chemscore.Metal>
0.0000

> <Gold.Chemscore.Lipo>
96.1711

> <Gold.Chemscore.Internal_Hbond>
0.0000

> <Gold.Chemscore.DEClash>
0.0308

> <Gold.Chemscore.DEInternal>
2.2671

> <Gold.Chemscore.Rot>
4.0968

> <Gold.Chemscore.Internal.Correction>
   9.000000E+99

> <Gold.Chemscore.Hbonds>
donor molecule, donor type, donor heavy atom, donor atom, acceptor molecule, acceptor atom, score
      L1  H    17    42       P1 10957  0.79
      L1  H    19    43       P1 10171  0.64
      L1  H    21    44       P1  7948  0.86
      P1  H  7954  7966       L1    21  0.07

> <Gold.Chemscore.Hbond.Weighted>
-9.5405

> <Gold.Chemscore.Metal.Weighted>
-0.0000

> <Gold.Chemscore.Lipo.Weighted>
-11.2520

> <Gold.Chemscore.Internal_Hbond.Weighted>
0.0000

> <Gold.Chemscore.DEClash.Weighted>
0.0308

> <Gold.Chemscore.DEInternal.Weighted>
2.2671

> <Gold.Chemscore.Rot.Weighted>
10.4879

> <Gold.Chemscore.Internal.Correction.Weighted>
   9.000000E+99

> <Gold.Protein.RotatedTorsions>
[ 6907 6896 6895 6894 ] final   77.20 input  -60.11 | X-H torsion
[ 7974 7965 7964 7962 ] final  -20.36 input  175.53 | X-H torsion
[ 8008 7997 7996 7995 ] final -103.80 input   59.86 | X-H torsion
[ 10167 10162 10161 10158 ] final   -8.77 input  -65.29 | X-H torsion
[ 10718 10713 10712 10709 ] final  128.74 input   66.30 | X-H torsion
[ 10763 10752 10751 10750 ] final  -78.61 input  -60.55 | X-H torsion
[ 11005 11000 10999 10996 ] final -114.91 input  -57.11 | X-H torsion

> <Gold.Protein.ActiveResidues>
 VAL166  LYS551  ARG553  GLY616  TRP617  ASP618  TYR619  PRO620  LYS621  CYS622 
 ASP623  PHE694  ASN695  SER759  ASP760  ASP761  ALA762  ILE779  LEU786  VAL792 
 PHE793  MET794  SER795  GLU796  ALA797  LYS798  CYS799  TRP800  GLU811  SER814 

> <Gold.Protein.RotatedAtoms>
  152.5107  134.3853  159.9364 H   0  0  0  0  0  0  0  0  0  0  0  0  # atno 6907 bound_to 6896
  151.3811  133.3815  159.2718 H   0  0  0  0  0  0  0  0  0  0  0  0  # atno 6908 bound_to 6896
  150.9504  134.8924  159.7727 H   0  0  0  0  0  0  0  0  0  0  0  0  # atno 6909 bound_to 6896
  146.1792  140.4192  142.8501 H   0  0  0  0  0  0  0  0  0  0  0  0  # atno 7974 bound_to 7965
  154.8762  140.0421  157.1754 H   0  0  0  0  0  0  0  0  0  0  0  0  # atno 8008 bound_to 7997
  154.8687  140.2955  155.5473 H   0  0  0  0  0  0  0  0  0  0  0  0  # atno 8009 bound_to 7997
  156.2999  140.2433  156.3673 H   0  0  0  0  0  0  0  0  0  0  0  0  # atno 8010 bound_to 7997
  140.7068  143.5931  150.8873 H   0  0  0  0  0  0  0  0  0  0  0  0  # atno 10167 bound_to 10162
  157.5218  131.1098  150.9143 H   0  0  0  0  0  0  0  0  0  0  0  0  # atno 10718 bound_to 10713
  154.5281  135.5724  153.6736 H   0  0  0  0  0  0  0  0  0  0  0  0  # atno 10763 bound_to 10752
  152.9933  135.6198  154.2665 H   0  0  0  0  0  0  0  0  0  0  0  0  # atno 10764 bound_to 10752
  154.2590  135.2856  155.2765 H   0  0  0  0  0  0  0  0  0  0  0  0  # atno 10765 bound_to 10752
  141.0522  133.9670  157.2817 H   0  0  0  0  0  0  0  0  0  0  0  0  # atno 11005 bound_to 11000
  144.8286  140.6670  143.6305 LP  0  0  0  0  0  0  0  0  0  0  0  0  # atno 17320 bound_to 7965
  145.4125  139.1577  143.4118 LP  0  0  0  0  0  0  0  0  0  0  0  0  # atno 17321 bound_to 7965
  139.9657  143.6114  152.2989 LP  0  0  0  0  0  0  0  0  0  0  0  0  # atno 17342 bound_to 10162
  139.6682  144.7661  151.1833 LP  0  0  0  0  0  0  0  0  0  0  0  0  # atno 17343 bound_to 10162
  156.9751  130.5505  149.5293 LP  0  0  0  0  0  0  0  0  0  0  0  0  # atno 17370 bound_to 10713
  156.0358  130.5446  150.8651 LP  0  0  0  0  0  0  0  0  0  0  0  0  # atno 17371 bound_to 10713
  139.9359  135.0196  156.8555 LP  0  0  0  0  0  0  0  0  0  0  0  0  # atno 17394 bound_to 11000
  140.6034  134.0150  155.7546 LP  0  0  0  0  0  0  0  0  0  0  0  0  # atno 17395 bound_to 11000

$$$$
