AV-unprocessed.smi:2979|AV-procd|sdf|11370|dock6
  -GOLD-   2272016283D 1   1.00000     0.00000
 Structure written by MMmdl.
 35 36  0  0  0  0  0  0  0  0  1 V2000
  151.4988  145.3422  159.8685 C   0  0  0  0  0  0  0  0  0  0  0  0
  152.4597  144.8256  158.9653 O   0  0  0  0  0  0  0  0  0  0  0  0
  151.8912  144.4557  157.7194 C   0  0  0  0  0  0  0  0  0  0  0  0
  151.0053  143.2148  157.9005 C   0  0  0  0  0  0  0  0  0  0  0  0
  151.7756  142.0105  158.1854 N   0  0  0  0  0  0  0  0  0  0  0  0
  151.9062  140.8866  157.4331 C   0  0  0  0  0  0  0  0  0  0  0  0
  151.2567  140.7197  156.0913 C   0  0  0  0  0  0  0  0  0  0  0  0
  150.4014  139.4462  156.0049 C   0  0  0  0  0  0  0  0  0  0  0  0
  149.9774  139.1231  154.5666 C   0  0  0  0  0  0  0  0  0  0  0  0
  149.6581  140.3149  153.8818 O   0  0  0  0  0  0  0  0  0  0  0  0
  152.6674  139.9249  157.9566 N   0  0  0  0  0  0  0  0  0  0  0  0
  153.0813  140.4785  159.1516 C   0  0  0  0  0  0  0  0  0  0  0  0
  153.9170  139.9552  160.1641 C   0  0  0  0  0  0  0  0  0  0  0  0
  154.2076  140.7172  161.3144 C   0  0  0  0  0  0  0  0  0  0  0  0
  153.6684  142.0107  161.4679 C   0  0  0  0  0  0  0  0  0  0  0  0
  152.8325  142.5501  160.4714 C   0  0  0  0  0  0  0  0  0  0  0  0
  152.5436  141.7849  159.3250 C   0  0  0  0  0  0  0  0  0  0  0  0
  151.9841  145.6035  160.8088 H   0  0  0  0  0  0  0  0  0  0  0  0
  150.7222  144.6067  160.0821 H   0  0  0  0  0  0  0  0  0  0  0  0
  151.0294  146.2428  159.4706 H   0  0  0  0  0  0  0  0  0  0  0  0
  151.2957  145.2789  157.3223 H   0  0  0  0  0  0  0  0  0  0  0  0
  152.6782  144.2528  156.9934 H   0  0  0  0  0  0  0  0  0  0  0  0
  150.3113  143.3842  158.7239 H   0  0  0  0  0  0  0  0  0  0  0  0
  150.3840  143.0479  157.0209 H   0  0  0  0  0  0  0  0  0  0  0  0
  150.6310  141.5933  155.9038 H   0  0  0  0  0  0  0  0  0  0  0  0
  152.0066  140.7178  155.3022 H   0  0  0  0  0  0  0  0  0  0  0  0
  150.9556  138.6023  156.4166 H   0  0  0  0  0  0  0  0  0  0  0  0
  149.5146  139.5619  156.6296 H   0  0  0  0  0  0  0  0  0  0  0  0
  150.7794  138.6110  154.0344 H   0  0  0  0  0  0  0  0  0  0  0  0
  149.1070  138.4665  154.5598 H   0  0  0  0  0  0  0  0  0  0  0  0
  149.3773  140.0935  153.0071 H   0  0  0  0  0  0  0  0  0  0  0  0
  154.3362  138.9659  160.0543 H   0  0  0  0  0  0  0  0  0  0  0  0
  154.8483  140.3079  162.0817 H   0  0  0  0  0  0  0  0  0  0  0  0
  153.8977  142.5892  162.3510 H   0  0  0  0  0  0  0  0  0  0  0  0
  152.4216  143.5419  160.5869 H   0  0  0  0  0  0  0  0  0  0  0  0
  1  2  1  0  0  0  0
  1 18  1  0  0  0  0
  1 19  1  0  0  0  0
  1 20  1  0  0  0  0
  2  3  1  0  0  0  0
  3  4  1  0  0  0  0
  3 21  1  0  0  0  0
  3 22  1  0  0  0  0
  4  5  1  0  0  0  0
  4 23  1  0  0  0  0
  4 24  1  0  0  0  0
  5 17  1  0  0  0  0
  5  6  1  0  0  0  0
  6  7  1  0  0  0  0
  6 11  2  0  0  0  0
  7  8  1  0  0  0  0
  7 25  1  0  0  0  0
  7 26  1  0  0  0  0
  8  9  1  0  0  0  0
  8 27  1  0  0  0  0
  8 28  1  0  0  0  0
  9 10  1  0  0  0  0
  9 29  1  0  0  0  0
  9 30  1  0  0  0  0
 10 31  1  0  0  0  0
 11 12  1  0  0  0  0
 12 17  2  0  0  0  0
 12 13  1  0  0  0  0
 13 14  2  0  0  0  0
 13 32  1  0  0  0  0
 14 15  1  0  0  0  0
 14 33  1  0  0  0  0
 15 16  2  0  0  0  0
 15 34  1  0  0  0  0
 16 17  1  0  0  0  0
 16 35  1  0  0  0  0
M  END
> <s_m_source_file>
AV-unprocessed.smi

> <i_m_source_file_index>
2979

> <i_lp_mmshare_version>
43012

> <i_f3d_flags>
0

> <s_epik_input>
W2NIXTFbY0hdW2NIXVtjSF1jKGMxMiluKFtDSDJdW0NIMl1PW0NIM10pYyhuMilbQ0gyXVtDSDJdW0NIMl1bT0hd

> <s_epik_cmdline>
J2VwaWtfcHl0aG9uJywgJy1waCcsICc3LjAnLCAnLXRuJywgJzgnLCAnLW1hJywgJzIwMCcsICctbWV0YWxfYmluZGluZycsICctaW1hZScsICc8aW5maWxlLm1hZT4nLCAnLW9tYWUnLCAnPG91dGZpbGUubWFlPic=

> <r_epik_Ionization_Penalty>
0.183246

> <r_epik_Ionization_Penalty_Charging>
0

> <r_epik_Ionization_Penalty_Neutral>
0.183246

> <r_epik_State_Penalty>
0.172781

> <r_epik_Charging_Adjusted_Penalty>
0.172781

> <i_epik_Tot_Q>
0

> <i_epik_Tot_abs_Q>
0

> <r_epik_Metal_State_Penalty>
0.000200578

> <b_epik_Metal_Only>
0

> <s_lp_Force_Field>
OPLS_2005

> <r_lp_Energy>
6.05289

> <b_lp_Chiralities_Consistent>
1

> <s_lp_Variant>
AV-unprocessed.smi:2979-1

> <Gold.Version>
5.8.1

> <Gold.Id.Protein>
6NUR|6NUR_protein|mol2

> <Gold.PLP.Fitness>
51.2604

> <Gold.PLP.PLP>
-43.4819

> <Gold.PLP.part.hbond>
-3.0000

> <Gold.PLP.part.metal>
0.0000

> <Gold.PLP.part.buried>
-6.6924

> <Gold.PLP.part.nonpolar>
-34.0026

> <Gold.PLP.part.repulsive>
0.0089

> <Gold.PLP.ligand.clash>
0.0000

> <Gold.PLP.ligand.torsion>
0.2401

> <Gold.PLP.Chemscore.Hbond>
2.7360

> <Gold.PLP.Chemscore.CHOScore>
0.0000

> <Gold.PLP.Chemscore.Metal>
0.0000

> <Gold.Chemscore.Hbonds>
donor molecule, donor type, donor heavy atom, donor atom, acceptor molecule, acceptor atom, score
      L1  H    10    31       P1  7957  1.00
      P1  H  7989  7998       L1    10  0.49
      P1  H  7997  8010       L1    11  0.76

> <Gold.PLP.Chemscore.Internal.Correction>
0.0507

> <Gold.Rescore>
     Score         DG    S(hbond)    S(metal)    S(lipo)     H(rot)  DE(clash)    DE(int)     intcor
     16.98     -17.59       1.77        0.00     106.44       2.45       0.07       0.55       ----

> <Gold.Chemscore.Fitness>
16.9762

> <Gold.Chemscore.DG>
-17.5935

> <Gold.Chemscore.ZeroCoef>
-5.4800

> <Gold.Chemscore.Hbond>
1.7742

> <Gold.Chemscore.Metal>
0.0000

> <Gold.Chemscore.Lipo>
106.4357

> <Gold.Chemscore.Internal_Hbond>
0.0000

> <Gold.Chemscore.DEClash>
0.0702

> <Gold.Chemscore.DEInternal>
0.5472

> <Gold.Chemscore.Rot>
2.4474

> <Gold.Chemscore.Internal.Correction>
   9.000000E+99

> <Gold.Chemscore.Hbonds>
donor molecule, donor type, donor heavy atom, donor atom, acceptor molecule, acceptor atom, score
      L1  H    10    31       P1  7957  0.96
      P1  H  7989  7998       L1    10  0.02
      P1  H  7997  8010       L1    11  0.07

> <Gold.Chemscore.Hbond.Weighted>
-5.9259

> <Gold.Chemscore.Metal.Weighted>
-0.0000

> <Gold.Chemscore.Lipo.Weighted>
-12.4530

> <Gold.Chemscore.Internal_Hbond.Weighted>
0.0000

> <Gold.Chemscore.DEClash.Weighted>
0.0702

> <Gold.Chemscore.DEInternal.Weighted>
0.5472

> <Gold.Chemscore.Rot.Weighted>
6.2654

> <Gold.Chemscore.Internal.Correction.Weighted>
   9.000000E+99

> <Gold.Protein.RotatedTorsions>
[ 6907 6896 6895 6894 ] final  -27.38 input  -60.11 | X-H torsion
[ 7974 7965 7964 7962 ] final   63.28 input  175.53 | X-H torsion
[ 8008 7997 7996 7995 ] final   43.99 input   59.86 | X-H torsion
[ 10167 10162 10161 10158 ] final  -28.00 input  -65.29 | X-H torsion
[ 10718 10713 10712 10709 ] final -127.79 input   66.30 | X-H torsion
[ 10763 10752 10751 10750 ] final   52.77 input  -60.55 | X-H torsion
[ 11005 11000 10999 10996 ] final  115.01 input  -57.11 | X-H torsion

> <Gold.Protein.ActiveResidues>
 VAL166  LYS551  ARG553  GLY616  TRP617  ASP618  TYR619  PRO620  LYS621  CYS622 
 ASP623  PHE694  ASN695  SER759  ASP760  ASP761  ALA762  ILE779  LEU786  VAL792 
 PHE793  MET794  SER795  GLU796  ALA797  LYS798  CYS799  TRP800  GLU811  SER814 

> <Gold.Protein.RotatedAtoms>
  151.1477  135.0211  159.8653 H   0  0  0  0  0  0  0  0  0  0  0  0  # atno 6907 bound_to 6896
  152.5453  134.1425  159.8495 H   0  0  0  0  0  0  0  0  0  0  0  0  # atno 6908 bound_to 6896
  151.1507  133.4863  159.2628 H   0  0  0  0  0  0  0  0  0  0  0  0  # atno 6909 bound_to 6896
  145.8637  139.3331  143.0804 H   0  0  0  0  0  0  0  0  0  0  0  0  # atno 7974 bound_to 7965
  155.3118  140.3391  155.4243 H   0  0  0  0  0  0  0  0  0  0  0  0  # atno 8008 bound_to 7997
  156.1952  140.1712  156.8051 H   0  0  0  0  0  0  0  0  0  0  0  0  # atno 8009 bound_to 7997
  154.5490  140.0709  156.8620 H   0  0  0  0  0  0  0  0  0  0  0  0  # atno 8010 bound_to 7997
  140.7273  143.4046  151.1207 H   0  0  0  0  0  0  0  0  0  0  0  0  # atno 10167 bound_to 10162
  156.1890  130.6783  151.0401 H   0  0  0  0  0  0  0  0  0  0  0  0  # atno 10718 bound_to 10713
  152.9791  135.5801  154.4632 H   0  0  0  0  0  0  0  0  0  0  0  0  # atno 10763 bound_to 10752
  154.4205  135.2771  155.1980 H   0  0  0  0  0  0  0  0  0  0  0  0  # atno 10764 bound_to 10752
  154.3731  135.6163  153.5804 H   0  0  0  0  0  0  0  0  0  0  0  0  # atno 10765 bound_to 10752
  139.8997  134.9577  156.6980 H   0  0  0  0  0  0  0  0  0  0  0  0  # atno 11005 bound_to 11000
  145.9218  140.9110  143.0401 LP  0  0  0  0  0  0  0  0  0  0  0  0  # atno 17320 bound_to 7965
  144.6726  140.1299  143.7444 LP  0  0  0  0  0  0  0  0  0  0  0  0  # atno 17321 bound_to 7965
  139.7671  143.8549  152.3113 LP  0  0  0  0  0  0  0  0  0  0  0  0  # atno 17342 bound_to 10162
  139.8455  144.7190  150.9278 LP  0  0  0  0  0  0  0  0  0  0  0  0  # atno 17343 bound_to 10162
  157.6917  131.0807  150.7088 LP  0  0  0  0  0  0  0  0  0  0  0  0  # atno 17370 bound_to 10713
  156.7144  130.4661  149.5539 LP  0  0  0  0  0  0  0  0  0  0  0  0  # atno 17371 bound_to 10713
  140.7173  133.9171  155.8123 LP  0  0  0  0  0  0  0  0  0  0  0  0  # atno 17394 bound_to 11000
  141.0255  134.0830  157.4073 LP  0  0  0  0  0  0  0  0  0  0  0  0  # atno 17395 bound_to 11000

$$$$
