AV-unprocessed.smi:2880|AV-procd|sdf|11054|dock1
  -GOLD-   2272015523D 1   1.00000     0.00000
 Structure written by MMmdl.
 47 48  0  0  0  0  0  0  0  0  1 V2000
  149.9207  130.2376  154.1119 C   0  0  0  0  0  0  0  0  0  0  0  0
  150.8459  130.6515  155.2732 C   0  0  0  0  0  0  0  0  0  0  0  0
  150.3544  129.9523  156.5630 C   0  0  0  0  0  0  0  0  0  0  0  0
  152.2860  130.1861  154.9832 C   0  0  0  0  0  0  0  0  0  0  0  0
  150.8337  132.1155  155.3950 N   0  0  0  0  0  0  0  0  0  0  0  0
  151.5022  132.8963  156.3232 C   0  0  0  0  0  0  0  0  0  0  0  0
  151.2038  134.2048  156.0710 C   0  0  0  0  0  0  0  0  0  0  0  0
  150.3296  134.1289  154.9544 C   0  0  0  0  0  0  0  0  0  0  0  0
  149.7900  135.3053  154.3750 N   0  0  0  0  0  0  0  0  0  0  0  0
  149.4785  136.4564  154.9947 C   0  0  0  0  0  0  0  0  0  0  0  0
  149.6474  136.6842  156.1932 O   0  0  0  0  0  0  0  0  0  0  0  0
  148.9454  137.3377  154.1352 N   0  0  0  0  0  0  0  0  0  0  0  0
  148.4548  138.6745  154.4685 C   0  0  1  0  0  0  0  0  0  0  0  0
  149.6525  139.5420  154.9045 C   0  0  0  0  0  0  0  0  0  0  0  0
  149.2224  140.9764  155.2405 C   0  0  0  0  0  0  0  0  0  0  0  0
  148.4894  141.6165  154.0553 C   0  0  0  0  0  0  0  0  0  0  0  0
  147.2875  140.7620  153.6259 C   0  0  0  0  0  0  0  0  0  0  0  0
  147.6952  139.3150  153.2724 C   0  0  2  0  0  0  0  0  0  0  0  0
  146.4490  138.5129  152.8305 C   0  0  0  0  0  0  0  0  0  0  0  0
  145.9384  138.9688  151.5943 O   0  0  0  0  0  0  0  0  0  0  0  0
  150.1055  132.8870  154.5520 N   0  0  0  0  0  0  0  0  0  0  0  0
  149.8944  129.1539  153.9939 H   0  0  0  0  0  0  0  0  0  0  0  0
  150.2492  130.6584  153.1612 H   0  0  0  0  0  0  0  0  0  0  0  0
  148.8975  130.5738  154.2842 H   0  0  0  0  0  0  0  0  0  0  0  0
  149.3324  130.2399  156.8126 H   0  0  0  0  0  0  0  0  0  0  0  0
  150.9869  130.1927  157.4187 H   0  0  0  0  0  0  0  0  0  0  0  0
  150.3648  128.8675  156.4510 H   0  0  0  0  0  0  0  0  0  0  0  0
  152.3415  129.1005  154.8951 H   0  0  0  0  0  0  0  0  0  0  0  0
  152.9660  130.4857  155.7817 H   0  0  0  0  0  0  0  0  0  0  0  0
  152.6680  130.6062  154.0523 H   0  0  0  0  0  0  0  0  0  0  0  0
  152.1329  132.4593  157.0830 H   0  0  0  0  0  0  0  0  0  0  0  0
  151.5567  135.0760  156.6025 H   0  0  0  0  0  0  0  0  0  0  0  0
  149.6012  135.2591  153.3845 H   0  0  0  0  0  0  0  0  0  0  0  0
  148.8450  137.0519  153.1723 H   0  0  0  0  0  0  0  0  0  0  0  0
  147.7642  138.6187  155.3122 H   0  0  0  0  0  0  0  0  0  0  0  0
  150.1409  139.0959  155.7720 H   0  0  0  0  0  0  0  0  0  0  0  0
  150.3993  139.5669  154.1094 H   0  0  0  0  0  0  0  0  0  0  0  0
  148.5713  140.9696  156.1157 H   0  0  0  0  0  0  0  0  0  0  0  0
  150.0939  141.5747  155.5072 H   0  0  0  0  0  0  0  0  0  0  0  0
  148.1566  142.6201  154.3217 H   0  0  0  0  0  0  0  0  0  0  0  0
  149.1765  141.7308  153.2160 H   0  0  0  0  0  0  0  0  0  0  0  0
  146.5475  140.7493  154.4274 H   0  0  0  0  0  0  0  0  0  0  0  0
  146.8039  141.2330  152.7693 H   0  0  0  0  0  0  0  0  0  0  0  0
  148.3764  139.3761  152.4217 H   0  0  0  0  0  0  0  0  0  0  0  0
  146.6759  137.4483  152.7634 H   0  0  0  0  0  0  0  0  0  0  0  0
  145.6477  138.6198  153.5621 H   0  0  0  0  0  0  0  0  0  0  0  0
  145.1072  139.3907  151.7506 H   0  0  0  0  0  0  0  0  0  0  0  0
  1  2  1  0  0  0  0
  1 22  1  0  0  0  0
  1 23  1  0  0  0  0
  1 24  1  0  0  0  0
  2  3  1  0  0  0  0
  2  4  1  0  0  0  0
  2  5  1  0  0  0  0
  3 25  1  0  0  0  0
  3 26  1  0  0  0  0
  3 27  1  0  0  0  0
  4 28  1  0  0  0  0
  4 29  1  0  0  0  0
  4 30  1  0  0  0  0
  5 21  1  0  0  0  0
  5  6  1  0  0  0  0
  6  7  2  0  0  0  0
  6 31  1  0  0  0  0
  7  8  1  0  0  0  0
  7 32  1  0  0  0  0
  8  9  1  0  0  0  0
  8 21  2  0  0  0  0
  9 10  1  0  0  0  0
  9 33  1  0  0  0  0
 10 11  2  0  0  0  0
 10 12  1  0  0  0  0
 12 13  1  0  0  0  0
 12 34  1  0  0  0  0
 13 18  1  0  0  0  0
 13 14  1  0  0  0  0
 13 35  1  0  0  0  0
 14 15  1  0  0  0  0
 14 36  1  0  0  0  0
 14 37  1  0  0  0  0
 15 16  1  0  0  0  0
 15 38  1  0  0  0  0
 15 39  1  0  0  0  0
 16 17  1  0  0  0  0
 16 40  1  0  0  0  0
 16 41  1  0  0  0  0
 17 18  1  0  0  0  0
 17 42  1  0  0  0  0
 17 43  1  0  0  0  0
 18 19  1  0  0  0  0
 18 44  1  0  0  0  0
 19 20  1  0  0  0  0
 19 45  1  0  0  0  0
 19 46  1  0  0  0  0
 20 47  1  0  0  0  0
M  END
> <s_m_source_file>
AV-unprocessed.smi

> <i_m_source_file_index>
2880

> <i_lp_mmshare_version>
43012

> <i_f3d_flags>
0

> <s_epik_input>
W0NIM11DKFtDSDNdKShbQ0gzXSluMVtjSF1bY0hdYyhuMSlbTkhdQyg9TylbTkhdW0NAQEhdMltDSDJdW0NIMl1bQ0gyXVtDSDJdW0NASF0yW0NIMl1bT0hd

> <s_epik_cmdline>
J2VwaWtfcHl0aG9uJywgJy1waCcsICc3LjAnLCAnLXRuJywgJzgnLCAnLW1hJywgJzIwMCcsICctbWV0YWxfYmluZGluZycsICctaW1hZScsICc8aW5maWxlLm1hZT4nLCAnLW9tYWUnLCAnPG91dGZpbGUubWFlPic=

> <r_lp_tautomer_probability>
1

> <r_epik_Ionization_Penalty>
3.89283e-05

> <r_epik_Ionization_Penalty_Charging>
0

> <r_epik_Ionization_Penalty_Neutral>
3.89283e-05

> <r_epik_State_Penalty>
-0

> <r_epik_Charging_Adjusted_Penalty>
0

> <i_epik_Tot_Q>
0

> <i_epik_Tot_abs_Q>
0

> <r_epik_Metal_State_Penalty>
-0

> <b_epik_Metal_Only>
0

> <s_lp_Force_Field>
OPLS_2005

> <r_lp_Energy>
21.9333

> <b_lp_Chiralities_Consistent>
1

> <s_lp_Variant>
AV-unprocessed.smi:2880-4

> <Gold.Version>
5.8.1

> <Gold.Id.Protein>
6NUR|6NUR_protein|mol2

> <Gold.PLP.Fitness>
40.6849

> <Gold.PLP.PLP>
-33.5142

> <Gold.PLP.part.hbond>
-3.9449

> <Gold.PLP.part.metal>
0.0000

> <Gold.PLP.part.buried>
-1.1995

> <Gold.PLP.part.nonpolar>
-28.3010

> <Gold.PLP.part.repulsive>
0.1269

> <Gold.PLP.ligand.clash>
0.0000

> <Gold.PLP.ligand.torsion>
0.3261

> <Gold.PLP.Chemscore.Hbond>
2.6032

> <Gold.PLP.Chemscore.CHOScore>
0.0000

> <Gold.PLP.Chemscore.Metal>
0.0000

> <Gold.Chemscore.Hbonds>
donor molecule, donor type, donor heavy atom, donor atom, acceptor molecule, acceptor atom, score
      L1  H     9    33       P1  7948  0.46
      L1  H    12    34       P1  7948  1.00
      L1  H    20    47       P1 10175  1.00

> <Gold.PLP.Chemscore.Internal.Correction>
0.0133

> <Gold.Rescore>
     Score         DG    S(hbond)    S(metal)    S(lipo)     H(rot)  DE(clash)    DE(int)     intcor
     14.18     -15.81       2.14        0.00      70.26       1.97       0.03       1.60       ----

> <Gold.Chemscore.Fitness>
14.1774

> <Gold.Chemscore.DG>
-15.8135

> <Gold.Chemscore.ZeroCoef>
-5.4800

> <Gold.Chemscore.Hbond>
2.1403

> <Gold.Chemscore.Metal>
0.0000

> <Gold.Chemscore.Lipo>
70.2635

> <Gold.Chemscore.Internal_Hbond>
0.0000

> <Gold.Chemscore.DEClash>
0.0329

> <Gold.Chemscore.DEInternal>
1.6032

> <Gold.Chemscore.Rot>
1.9672

> <Gold.Chemscore.Internal.Correction>
   9.000000E+99

> <Gold.Chemscore.Hbonds>
donor molecule, donor type, donor heavy atom, donor atom, acceptor molecule, acceptor atom, score
      L1  H     9    33       P1  7948  0.02
      L1  H    12    34       P1  7948  0.93
      L1  H    20    47       P1 10175  0.90

> <Gold.Chemscore.Hbond.Weighted>
-7.1487

> <Gold.Chemscore.Metal.Weighted>
-0.0000

> <Gold.Chemscore.Lipo.Weighted>
-8.2208

> <Gold.Chemscore.Internal_Hbond.Weighted>
0.0000

> <Gold.Chemscore.DEClash.Weighted>
0.0329

> <Gold.Chemscore.DEInternal.Weighted>
1.6032

> <Gold.Chemscore.Rot.Weighted>
5.0360

> <Gold.Chemscore.Internal.Correction.Weighted>
   9.000000E+99

> <Gold.Protein.RotatedTorsions>
[ 6907 6896 6895 6894 ] final   86.34 input  -60.11 | X-H torsion
[ 7974 7965 7964 7962 ] final  -17.62 input  175.53 | X-H torsion
[ 8008 7997 7996 7995 ] final   96.76 input   59.86 | X-H torsion
[ 10167 10162 10161 10158 ] final  126.72 input  -65.29 | X-H torsion
[ 10718 10713 10712 10709 ] final   79.25 input   66.30 | X-H torsion
[ 10763 10752 10751 10750 ] final    7.86 input  -60.55 | X-H torsion
[ 11005 11000 10999 10996 ] final  150.47 input  -57.11 | X-H torsion

> <Gold.Protein.ActiveResidues>
 VAL166  LYS551  ARG553  GLY616  TRP617  ASP618  TYR619  PRO620  LYS621  CYS622 
 ASP623  PHE694  ASN695  SER759  ASP760  ASP761  ALA762  ILE779  LEU786  VAL792 
 PHE793  MET794  SER795  GLU796  ALA797  LYS798  CYS799  TRP800  GLU811  SER814 

> <Gold.Protein.RotatedAtoms>
  152.5392  134.2447  159.8875 H   0  0  0  0  0  0  0  0  0  0  0  0  # atno 6907 bound_to 6896
  151.2412  133.4391  159.2615 H   0  0  0  0  0  0  0  0  0  0  0  0  # atno 6908 bound_to 6896
  151.0624  134.9759  159.8323 H   0  0  0  0  0  0  0  0  0  0  0  0  # atno 6909 bound_to 6896
  146.1932  140.3805  142.8450 H   0  0  0  0  0  0  0  0  0  0  0  0  # atno 7974 bound_to 7965
  156.0830  140.3268  155.7718 H   0  0  0  0  0  0  0  0  0  0  0  0  # atno 8008 bound_to 7997
  155.5122  140.0578  157.2939 H   0  0  0  0  0  0  0  0  0  0  0  0  # atno 8009 bound_to 7997
  154.4593  140.1958  156.0307 H   0  0  0  0  0  0  0  0  0  0  0  0  # atno 8010 bound_to 7997
  139.5616  144.6885  151.4027 H   0  0  0  0  0  0  0  0  0  0  0  0  # atno 10167 bound_to 10162
  157.6771  130.9905  150.1905 H   0  0  0  0  0  0  0  0  0  0  0  0  # atno 10718 bound_to 10713
  153.2316  135.6893  153.7884 H   0  0  0  0  0  0  0  0  0  0  0  0  # atno 10763 bound_to 10752
  153.7046  135.3292  155.3233 H   0  0  0  0  0  0  0  0  0  0  0  0  # atno 10764 bound_to 10752
  154.8316  135.4576  154.1203 H   0  0  0  0  0  0  0  0  0  0  0  0  # atno 10765 bound_to 10752
  140.1134  134.8910  157.1969 H   0  0  0  0  0  0  0  0  0  0  0  0  # atno 11005 bound_to 11000
  144.8528  140.7026  143.6157 LP  0  0  0  0  0  0  0  0  0  0  0  0  # atno 17320 bound_to 7965
  145.3726  139.1655  143.4323 LP  0  0  0  0  0  0  0  0  0  0  0  0  # atno 17321 bound_to 7965
  140.6896  143.7892  150.7236 LP  0  0  0  0  0  0  0  0  0  0  0  0  # atno 17342 bound_to 10162
  140.1371  143.4474  152.2218 LP  0  0  0  0  0  0  0  0  0  0  0  0  # atno 17343 bound_to 10162
  156.2617  130.3711  149.8123 LP  0  0  0  0  0  0  0  0  0  0  0  0  # atno 17370 bound_to 10713
  156.5866  130.8488  151.3397 LP  0  0  0  0  0  0  0  0  0  0  0  0  # atno 17371 bound_to 10713
  140.3061  134.3077  155.7278 LP  0  0  0  0  0  0  0  0  0  0  0  0  # atno 17394 bound_to 11000
  141.2135  133.7621  156.9709 LP  0  0  0  0  0  0  0  0  0  0  0  0  # atno 17395 bound_to 11000

$$$$
