AV-unprocessed.smi:2975|AV-procd|sdf|11357|dock4
  -GOLD-   2272016273D 1   1.00000     0.00000
 Structure written by MMmdl.
 40 42  0  0  0  0  0  0  0  0  2 V2000
  152.9856  138.4394  154.4594 C   0  0  0  0  0  0  0  0  0  0  0  0
  151.6519  137.8049  154.8741 C   0  0  2  0  0  0  0  0  0  0  0  0
  151.5098  136.5693  154.2043 O   0  0  0  0  0  0  0  0  0  0  0  0
  150.5100  138.7332  154.5967 C   0  0  0  0  0  0  0  0  0  0  0  0
  149.4273  138.4618  153.8128 N   0  3  0  0  0  0  0  0  0  0  0  0
  148.5739  139.5652  153.7841 C   0  0  0  0  0  0  0  0  0  0  0  0
  147.3589  139.7612  153.1351 C   0  0  0  0  0  0  0  0  0  0  0  0
  146.7386  141.0144  153.3187 C   0  0  0  0  0  0  0  0  0  0  0  0
  147.3255  142.0135  154.1225 C   0  0  0  0  0  0  0  0  0  0  0  0
  148.5584  141.8034  154.7749 C   0  0  0  0  0  0  0  0  0  0  0  0
  149.1669  140.5628  154.5848 C   0  0  0  0  0  0  0  0  0  0  0  0
  150.3638  140.0105  155.0537 N   0  0  0  0  0  0  0  0  0  0  0  0
  151.2375  140.8138  155.9185 C   0  0  0  0  0  0  0  0  0  0  0  0
  150.7235  140.8605  157.3621 C   0  0  0  0  0  0  0  0  0  0  0  0
  151.7823  141.3006  158.1991 O   0  0  0  0  0  0  0  0  0  0  0  0
  151.7460  142.5945  158.6742 C   0  0  0  0  0  0  0  0  0  0  0  0
  151.1468  143.6792  157.9839 C   0  0  0  0  0  0  0  0  0  0  0  0
  151.1533  144.9718  158.5434 C   0  0  0  0  0  0  0  0  0  0  0  0
  151.7560  145.1973  159.7948 C   0  0  0  0  0  0  0  0  0  0  0  0
  152.3535  144.1280  160.4866 C   0  0  0  0  0  0  0  0  0  0  0  0
  152.3486  142.8353  159.9277 C   0  0  0  0  0  0  0  0  0  0  0  0
  152.9267  141.8141  160.6042 F   0  0  0  0  0  0  0  0  0  0  0  0
  153.1574  139.3746  154.9934 H   0  0  0  0  0  0  0  0  0  0  0  0
  153.0078  138.6571  153.3909 H   0  0  0  0  0  0  0  0  0  0  0  0
  153.8218  137.7757  154.6819 H   0  0  0  0  0  0  0  0  0  0  0  0
  151.6766  137.5896  155.9426 H   0  0  0  0  0  0  0  0  0  0  0  0
  151.5198  136.7295  153.2728 H   0  0  0  0  0  0  0  0  0  0  0  0
  146.9066  138.9966  152.5202 H   0  0  0  0  0  0  0  0  0  0  0  0
  145.7935  141.2130  152.8342 H   0  0  0  0  0  0  0  0  0  0  0  0
  146.8199  142.9611  154.2407 H   0  0  0  0  0  0  0  0  0  0  0  0
  148.9981  142.5753  155.3892 H   0  0  0  0  0  0  0  0  0  0  0  0
  152.2329  140.3701  155.8879 H   0  0  0  0  0  0  0  0  0  0  0  0
  151.3358  141.8160  155.5004 H   0  0  0  0  0  0  0  0  0  0  0  0
  149.8741  141.5415  157.4352 H   0  0  0  0  0  0  0  0  0  0  0  0
  150.3931  139.8656  157.6654 H   0  0  0  0  0  0  0  0  0  0  0  0
  150.6755  143.5466  157.0221 H   0  0  0  0  0  0  0  0  0  0  0  0
  150.6944  145.7918  158.0109 H   0  0  0  0  0  0  0  0  0  0  0  0
  151.7598  146.1888  160.2232 H   0  0  0  0  0  0  0  0  0  0  0  0
  152.8162  144.2980  161.4478 H   0  0  0  0  0  0  0  0  0  0  0  0
  149.2877  137.5802  153.3358 H   0  0  0  0  0  0  0  0  0  0  0  0
  1  2  1  0  0  0  0
  1 23  1  0  0  0  0
  1 24  1  0  0  0  0
  1 25  1  0  0  0  0
  2  3  1  0  0  0  0
  2  4  1  0  0  0  0
  2 26  1  0  0  0  0
  3 27  1  0  0  0  0
  4 12  1  0  0  0  0
  4  5  2  0  0  0  0
  5  6  1  0  0  0  0
  5 40  1  0  0  0  0
  6 11  2  0  0  0  0
  6  7  1  0  0  0  0
  7  8  2  0  0  0  0
  7 28  1  0  0  0  0
  8  9  1  0  0  0  0
  8 29  1  0  0  0  0
  9 10  2  0  0  0  0
  9 30  1  0  0  0  0
 10 11  1  0  0  0  0
 10 31  1  0  0  0  0
 11 12  1  0  0  0  0
 12 13  1  0  0  0  0
 13 14  1  0  0  0  0
 13 32  1  0  0  0  0
 13 33  1  0  0  0  0
 14 15  1  0  0  0  0
 14 34  1  0  0  0  0
 14 35  1  0  0  0  0
 15 16  1  0  0  0  0
 16 21  1  0  0  0  0
 16 17  2  0  0  0  0
 17 18  1  0  0  0  0
 17 36  1  0  0  0  0
 18 19  2  0  0  0  0
 18 37  1  0  0  0  0
 19 20  1  0  0  0  0
 19 38  1  0  0  0  0
 20 21  2  0  0  0  0
 20 39  1  0  0  0  0
 21 22  1  0  0  0  0
M  CHG  1   5   1
M  END
> <s_m_source_file>
AV-unprocessed.smi

> <i_m_source_file_index>
2975

> <i_lp_mmshare_version>
43012

> <i_f3d_flags>
0

> <s_epik_input>
W2NIXTFbY0hdW2NIXVtjSF1jKGMxMiluKGMobjIpW0NASF0oW0NIM10pW09IXSlbQ0gyXVtDSDJdT2MzW2NIXVtjSF1bY0hdW2NIXWMzRg==

> <s_epik_cmdline>
J2VwaWtfcHl0aG9uJywgJy1waCcsICc3LjAnLCAnLXRuJywgJzgnLCAnLW1hJywgJzIwMCcsICctbWV0YWxfYmluZGluZycsICctaW1hZScsICc8aW5maWxlLm1hZT4nLCAnLW9tYWUnLCAnPG91dGZpbGUubWFlPic=

> <r_lp_tautomer_probability>
1

> <r_epik_Ionization_Penalty>
1.61121

> <r_epik_Ionization_Penalty_Charging>
1.61119

> <r_epik_Ionization_Penalty_Neutral>
2.92192e-05

> <r_epik_State_Penalty>
1.71016

> <r_epik_Charging_Adjusted_Penalty>
3.32134

> <i_epik_Tot_Q>
1

> <i_epik_Tot_abs_Q>
1

> <r_epik_Metal_State_Penalty>
5.76893

> <b_epik_Metal_Only>
0

> <s_lp_Force_Field>
OPLS_2005

> <r_lp_Energy>
21.0124

> <b_lp_Chiralities_Consistent>
1

> <s_lp_Variant>
AV-unprocessed.smi:2975-3

> <Gold.Version>
5.8.1

> <Gold.Id.Protein>
6NUR|6NUR_protein|mol2

> <Gold.PLP.Fitness>
66.6911

> <Gold.PLP.PLP>
-56.8725

> <Gold.PLP.part.hbond>
-3.8284

> <Gold.PLP.part.metal>
0.0000

> <Gold.PLP.part.buried>
-0.4388

> <Gold.PLP.part.nonpolar>
-51.8957

> <Gold.PLP.part.repulsive>
0.0530

> <Gold.PLP.ligand.clash>
0.0000

> <Gold.PLP.ligand.torsion>
1.0280

> <Gold.PLP.Chemscore.Hbond>
3.9440

> <Gold.PLP.Chemscore.CHOScore>
0.0000

> <Gold.PLP.Chemscore.Metal>
0.0000

> <Gold.Chemscore.Hbonds>
donor molecule, donor type, donor heavy atom, donor atom, acceptor molecule, acceptor atom, score
      L1  H     3    27       P1  7949  0.91
      L1  H     5    40       P1  7948  2.00
      P1  H 10752 10764       L1     3  1.00

> <Gold.PLP.Chemscore.Internal.Correction>
0.0426

> <Gold.Rescore>
     Score         DG    S(hbond)    S(metal)    S(lipo)     H(rot)  DE(clash)    DE(int)     intcor
     20.99     -22.36       1.97        0.00     137.98       2.28       0.38       0.99       ----

> <Gold.Chemscore.Fitness>
20.9863

> <Gold.Chemscore.DG>
-22.3604

> <Gold.Chemscore.ZeroCoef>
-5.4800

> <Gold.Chemscore.Hbond>
1.9663

> <Gold.Chemscore.Metal>
0.0000

> <Gold.Chemscore.Lipo>
137.9770

> <Gold.Chemscore.Internal_Hbond>
0.0000

> <Gold.Chemscore.DEClash>
0.3801

> <Gold.Chemscore.DEInternal>
0.9940

> <Gold.Chemscore.Rot>
2.2774

> <Gold.Chemscore.Internal.Correction>
   9.000000E+99

> <Gold.Chemscore.Hbonds>
donor molecule, donor type, donor heavy atom, donor atom, acceptor molecule, acceptor atom, score
      L1  H     3    27       P1  7949  0.80
      L1  H     5    40       P1  7948  0.94
      P1  H 10752 10764       L1     3  0.35

> <Gold.Chemscore.Hbond.Weighted>
-6.5673

> <Gold.Chemscore.Metal.Weighted>
-0.0000

> <Gold.Chemscore.Lipo.Weighted>
-16.1433

> <Gold.Chemscore.Internal_Hbond.Weighted>
0.0000

> <Gold.Chemscore.DEClash.Weighted>
0.3801

> <Gold.Chemscore.DEInternal.Weighted>
0.9940

> <Gold.Chemscore.Rot.Weighted>
5.8302

> <Gold.Chemscore.Internal.Correction.Weighted>
   9.000000E+99

> <Gold.Protein.RotatedTorsions>
[ 6907 6896 6895 6894 ] final  -45.60 input  -60.11 | X-H torsion
[ 7974 7965 7964 7962 ] final  -97.63 input  175.53 | X-H torsion
[ 8008 7997 7996 7995 ] final   63.83 input   59.86 | X-H torsion
[ 10167 10162 10161 10158 ] final  152.94 input  -65.29 | X-H torsion
[ 10718 10713 10712 10709 ] final -107.29 input   66.30 | X-H torsion
[ 10763 10752 10751 10750 ] final  -63.53 input  -60.55 | X-H torsion
[ 11005 11000 10999 10996 ] final -149.57 input  -57.11 | X-H torsion

> <Gold.Protein.ActiveResidues>
 VAL166  LYS551  ARG553  GLY616  TRP617  ASP618  TYR619  PRO620  LYS621  CYS622 
 ASP623  PHE694  ASN695  SER759  ASP760  ASP761  ALA762  ILE779  LEU786  VAL792 
 PHE793  MET794  SER795  GLU796  ALA797  LYS798  CYS799  TRP800  GLU811  SER814 

> <Gold.Protein.RotatedAtoms>
  150.9202  134.8620  159.7483 H   0  0  0  0  0  0  0  0  0  0  0  0  # atno 6907 bound_to 6896
  152.4989  134.4229  159.9496 H   0  0  0  0  0  0  0  0  0  0  0  0  # atno 6908 bound_to 6896
  151.4264  133.3643  159.2798 H   0  0  0  0  0  0  0  0  0  0  0  0  # atno 6909 bound_to 6896
  145.3312  140.9442  143.2661 H   0  0  0  0  0  0  0  0  0  0  0  0  # atno 7974 bound_to 7965
  155.6364  140.3496  155.4700 H   0  0  0  0  0  0  0  0  0  0  0  0  # atno 8008 bound_to 7997
  155.9961  140.1203  157.0615 H   0  0  0  0  0  0  0  0  0  0  0  0  # atno 8009 bound_to 7997
  154.4234  140.1110  156.5619 H   0  0  0  0  0  0  0  0  0  0  0  0  # atno 8010 bound_to 7997
  139.4830  144.5315  151.7715 H   0  0  0  0  0  0  0  0  0  0  0  0  # atno 10167 bound_to 10162
  156.0430  130.5655  150.7801 H   0  0  0  0  0  0  0  0  0  0  0  0  # atno 10718 bound_to 10713
  154.3164  135.6205  153.5488 H   0  0  0  0  0  0  0  0  0  0  0  0  # atno 10763 bound_to 10752
  152.9824  135.5713  154.5119 H   0  0  0  0  0  0  0  0  0  0  0  0  # atno 10764 bound_to 10752
  154.4779  135.2862  155.1570 H   0  0  0  0  0  0  0  0  0  0  0  0  # atno 10765 bound_to 10752
  140.7494  134.3424  157.5129 H   0  0  0  0  0  0  0  0  0  0  0  0  # atno 11005 bound_to 11000
  144.8863  139.4835  143.6699 LP  0  0  0  0  0  0  0  0  0  0  0  0  # atno 17320 bound_to 7965
  146.3045  139.7533  142.9067 LP  0  0  0  0  0  0  0  0  0  0  0  0  # atno 17321 bound_to 7965
  140.4842  144.1405  150.5938 LP  0  0  0  0  0  0  0  0  0  0  0  0  # atno 17342 bound_to 10162
  140.4244  143.2597  151.9675 LP  0  0  0  0  0  0  0  0  0  0  0  0  # atno 17343 bound_to 10162
  157.5271  131.0934  151.0003 LP  0  0  0  0  0  0  0  0  0  0  0  0  # atno 17370 bound_to 10713
  157.0319  130.5715  149.5344 LP  0  0  0  0  0  0  0  0  0  0  0  0  # atno 17371 bound_to 10713
  139.8790  134.9132  156.3078 LP  0  0  0  0  0  0  0  0  0  0  0  0  # atno 17394 bound_to 11000
  140.9765  133.7294  156.0609 LP  0  0  0  0  0  0  0  0  0  0  0  0  # atno 17395 bound_to 11000

$$$$
