AV-unprocessed.smi:2895|AV-procd|sdf|11134|dock8
  -GOLD-   2272016 13D 1   1.00000     0.00000
 Structure written by MMmdl.
 54 57  0  0  0  0  0  0  0  0  3 V2000
  149.4727  141.1358  153.9798 O   0  0  0  0  0  0  0  0  0  0  0  0
  148.8581  140.3924  154.7456 C   0  0  0  0  0  0  0  0  0  0  0  0
  148.7613  140.6487  156.0615 N   0  0  0  0  0  0  0  0  0  0  0  0
  149.3592  141.7930  156.7404 C   0  0  0  0  0  0  0  0  0  0  0  0
  150.8914  141.6800  156.8045 C   0  0  0  0  0  0  0  0  0  0  0  0
  151.4805  142.5337  157.9111 C   0  0  0  0  0  0  0  0  0  0  0  0
  152.0673  141.9280  159.0441 C   0  0  0  0  0  0  0  0  0  0  0  0
  152.6117  142.7443  160.0566 C   0  0  0  0  0  0  0  0  0  0  0  0
  152.5665  144.0892  159.9334 N   0  3  0  0  0  0  0  0  0  0  0  0
  152.0150  144.7082  158.8663 C   0  0  0  0  0  0  0  0  0  0  0  0
  151.4557  143.9431  157.8221 C   0  0  0  0  0  0  0  0  0  0  0  0
  148.1775  139.2950  154.3284 N   0  0  0  0  0  0  0  0  0  0  0  0
  148.1660  138.7548  152.9598 C   0  0  0  0  0  0  0  0  0  0  0  0
  146.7805  138.9981  152.3227 C   0  0  0  0  0  0  0  0  0  0  0  0
  145.6683  138.4349  153.1464 N   0  3  0  0  0  0  0  0  0  0  0  0
  145.5128  136.9518  152.9980 C   0  0  2  0  0  0  0  0  0  0  0  0
  145.4631  136.5069  151.5103 C   0  0  0  0  0  0  0  0  0  0  0  0
  144.1828  135.6620  151.4212 C   0  0  1  0  0  0  0  0  0  0  0  0
  144.3676  134.3536  152.2080 C   0  0  0  0  0  0  0  0  0  0  0  0
  144.3278  134.8353  153.6687 C   0  0  0  0  0  0  0  0  0  0  0  0
  144.1717  136.3623  153.5252 C   0  0  2  0  0  0  0  0  0  0  0  0
  143.2444  136.4549  152.3188 C   0  0  0  0  0  0  0  0  0  0  0  0
  145.7642  138.9271  154.5520 C   0  0  0  0  0  0  0  0  0  0  0  0
  147.1529  138.6573  155.1622 C   0  0  0  0  0  0  0  0  0  0  0  0
  148.2182  140.0145  156.6294 H   0  0  0  0  0  0  0  0  0  0  0  0
  149.0630  142.7173  156.2411 H   0  0  0  0  0  0  0  0  0  0  0  0
  148.9476  141.8406  157.7491 H   0  0  0  0  0  0  0  0  0  0  0  0
  151.1839  140.6405  156.9591 H   0  0  0  0  0  0  0  0  0  0  0  0
  151.3351  141.9851  155.8559 H   0  0  0  0  0  0  0  0  0  0  0  0
  152.1024  140.8518  159.1359 H   0  0  0  0  0  0  0  0  0  0  0  0
  153.0790  142.3649  160.9537 H   0  0  0  0  0  0  0  0  0  0  0  0
  152.0385  145.7882  158.8798 H   0  0  0  0  0  0  0  0  0  0  0  0
  151.0159  144.4333  156.9656 H   0  0  0  0  0  0  0  0  0  0  0  0
  148.9310  139.1810  152.3112 H   0  0  0  0  0  0  0  0  0  0  0  0
  148.3873  137.6878  152.9991 H   0  0  0  0  0  0  0  0  0  0  0  0
  146.6177  140.0730  152.2329 H   0  0  0  0  0  0  0  0  0  0  0  0
  146.7708  138.6175  151.3028 H   0  0  0  0  0  0  0  0  0  0  0  0
  146.3460  136.4648  153.5050 H   0  0  0  0  0  0  0  0  0  0  0  0
  145.3622  137.3552  150.8322 H   0  0  0  0  0  0  0  0  0  0  0  0
  146.3522  135.9495  151.2132 H   0  0  0  0  0  0  0  0  0  0  0  0
  143.8277  135.5131  150.4010 H   0  0  0  0  0  0  0  0  0  0  0  0
  143.5500  133.6593  152.0102 H   0  0  0  0  0  0  0  0  0  0  0  0
  145.3032  133.8512  151.9592 H   0  0  0  0  0  0  0  0  0  0  0  0
  143.4686  134.4067  154.1863 H   0  0  0  0  0  0  0  0  0  0  0  0
  145.2222  134.5549  154.2265 H   0  0  0  0  0  0  0  0  0  0  0  0
  143.7683  136.8008  154.4340 H   0  0  0  0  0  0  0  0  0  0  0  0
  143.0770  137.4783  151.9786 H   0  0  0  0  0  0  0  0  0  0  0  0
  142.2804  135.9668  152.4745 H   0  0  0  0  0  0  0  0  0  0  0  0
  145.5947  140.0047  154.5350 H   0  0  0  0  0  0  0  0  0  0  0  0
  144.9807  138.5365  155.1948 H   0  0  0  0  0  0  0  0  0  0  0  0
  147.3472  137.5856  155.2168 H   0  0  0  0  0  0  0  0  0  0  0  0
  147.1741  139.0077  156.1950 H   0  0  0  0  0  0  0  0  0  0  0  0
  144.8140  138.8240  152.7733 H   0  0  0  0  0  0  0  0  0  0  0  0
  152.9662  144.6615  160.6777 H   0  0  0  0  0  0  0  0  0  0  0  0
  1  2  2  0  0  0  0
  2  3  1  0  0  0  0
  2 12  1  0  0  0  0
  3  4  1  0  0  0  0
  3 25  1  0  0  0  0
  4  5  1  0  0  0  0
  4 26  1  0  0  0  0
  4 27  1  0  0  0  0
  5  6  1  0  0  0  0
  5 28  1  0  0  0  0
  5 29  1  0  0  0  0
  6 11  1  0  0  0  0
  6  7  2  0  0  0  0
  7  8  1  0  0  0  0
  7 30  1  0  0  0  0
  8  9  2  0  0  0  0
  8 31  1  0  0  0  0
  9 10  1  0  0  0  0
  9 54  1  0  0  0  0
 10 11  2  0  0  0  0
 10 32  1  0  0  0  0
 11 33  1  0  0  0  0
 12 24  1  0  0  0  0
 12 13  1  0  0  0  0
 13 14  1  0  0  0  0
 13 34  1  0  0  0  0
 13 35  1  0  0  0  0
 14 15  1  0  0  0  0
 14 36  1  0  0  0  0
 14 37  1  0  0  0  0
 15 16  1  0  0  0  0
 15 23  1  0  0  0  0
 15 53  1  0  0  0  0
 16 21  1  0  0  0  0
 16 17  1  0  0  0  0
 16 38  1  0  0  0  0
 17 18  1  0  0  0  0
 17 39  1  0  0  0  0
 17 40  1  0  0  0  0
 18 22  1  0  0  0  0
 18 19  1  0  0  0  0
 18 41  1  0  0  0  0
 19 20  1  0  0  0  0
 19 42  1  0  0  0  0
 19 43  1  0  0  0  0
 20 21  1  0  0  0  0
 20 44  1  0  0  0  0
 20 45  1  0  0  0  0
 21 22  1  0  0  0  0
 21 46  1  0  0  0  0
 22 47  1  0  0  0  0
 22 48  1  0  0  0  0
 23 24  1  0  0  0  0
 23 49  1  0  0  0  0
 23 50  1  0  0  0  0
 24 51  1  0  0  0  0
 24 52  1  0  0  0  0
M  CHG  1   9   1
M  CHG  1  15   1
M  END
> <s_m_source_file>
AV-unprocessed.smi

> <i_m_source_file_index>
2895

> <i_lp_mmshare_version>
43012

> <i_f3d_flags>
0

> <s_epik_input>
W0NIMl0xW0NIMl1bQ0BASF0oW0NIMl0yKVtDQEBIXShbQ0gyXVtDQEhdMTIpTihbQ0gyXVtDSDJdMylbQ0gyXVtDSDJdTjNDKD1PKVtOSF1bQ0gyXVtDSDJdYzRbY0hdW2NIXW5bY0hdW2NIXTQ=

> <s_epik_cmdline>
J2VwaWtfcHl0aG9uJywgJy1waCcsICc3LjAnLCAnLXRuJywgJzgnLCAnLW1hJywgJzIwMCcsICctbWV0YWxfYmluZGluZycsICctaW1hZScsICc8aW5maWxlLm1hZT4nLCAnLW9tYWUnLCAnPG91dGZpbGUubWFlPic=

> <r_epik_Ionization_Penalty>
1.44916

> <r_epik_Ionization_Penalty_Charging>
1.44913

> <r_epik_Ionization_Penalty_Neutral>
2.64641e-05

> <r_epik_State_Penalty>
1.53218

> <r_epik_Charging_Adjusted_Penalty>
2.98131

> <i_epik_Tot_Q>
2

> <i_epik_Tot_abs_Q>
2

> <r_epik_Metal_State_Penalty>
1.58241

> <b_epik_Metal_Only>
0

> <s_lp_Force_Field>
OPLS_2005

> <r_lp_Energy>
108.082

> <b_lp_Chiralities_Consistent>
1

> <s_lp_Variant>
AV-unprocessed.smi:2895-7

> <Gold.Version>
5.8.1

> <Gold.Id.Protein>
6NUR|6NUR_protein|mol2

> <Gold.PLP.Fitness>
45.0969

> <Gold.PLP.PLP>
-37.7126

> <Gold.PLP.part.hbond>
-3.0000

> <Gold.PLP.part.metal>
0.0000

> <Gold.PLP.part.buried>
3.5645

> <Gold.PLP.part.nonpolar>
-37.8840

> <Gold.PLP.part.repulsive>
1.4327

> <Gold.PLP.ligand.clash>
1.3306

> <Gold.PLP.ligand.torsion>
0.3926

> <Gold.PLP.Chemscore.Hbond>
3.1309

> <Gold.PLP.Chemscore.CHOScore>
0.0000

> <Gold.PLP.Chemscore.Metal>
0.0000

> <Gold.Chemscore.Hbonds>
donor molecule, donor type, donor heavy atom, donor atom, acceptor molecule, acceptor atom, score
      L1  H    15    53       P1 10175  1.95
      P1  H  7989  7998       L1     1  0.22
      P1  H  8011  8017       L1     1  0.69

> <Gold.PLP.Chemscore.Internal.Correction>
0.1075

> <Gold.Rescore>
     Score         DG    S(hbond)    S(metal)    S(lipo)     H(rot)  DE(clash)    DE(int)     intcor
     19.03     -22.61       2.08        0.00     118.88       1.46       3.27       0.32       ----

> <Gold.Chemscore.Fitness>
19.0273

> <Gold.Chemscore.DG>
-22.6110

> <Gold.Chemscore.ZeroCoef>
-5.4800

> <Gold.Chemscore.Hbond>
2.0815

> <Gold.Chemscore.Metal>
0.0000

> <Gold.Chemscore.Lipo>
118.8823

> <Gold.Chemscore.Internal_Hbond>
0.0000

> <Gold.Chemscore.DEClash>
3.2651

> <Gold.Chemscore.DEInternal>
0.3185

> <Gold.Chemscore.Rot>
1.4572

> <Gold.Chemscore.Internal.Correction>
   9.000000E+99

> <Gold.Chemscore.Hbonds>
donor molecule, donor type, donor heavy atom, donor atom, acceptor molecule, acceptor atom, score
      L1  H    15    53       P1 10175  0.88
      P1  H  7989  7998       L1     1  0.21
      P1  H  8011  8017       L1     1  0.65

> <Gold.Chemscore.Hbond.Weighted>
-6.9523

> <Gold.Chemscore.Metal.Weighted>
-0.0000

> <Gold.Chemscore.Lipo.Weighted>
-13.9092

> <Gold.Chemscore.Internal_Hbond.Weighted>
0.0000

> <Gold.Chemscore.DEClash.Weighted>
3.2651

> <Gold.Chemscore.DEInternal.Weighted>
0.3185

> <Gold.Chemscore.Rot.Weighted>
3.7305

> <Gold.Chemscore.Internal.Correction.Weighted>
   9.000000E+99

> <Gold.Protein.RotatedTorsions>
[ 6907 6896 6895 6894 ] final  150.56 input  -60.11 | X-H torsion
[ 7974 7965 7964 7962 ] final  139.20 input  175.53 | X-H torsion
[ 8008 7997 7996 7995 ] final  116.71 input   59.86 | X-H torsion
[ 10167 10162 10161 10158 ] final   64.69 input  -65.29 | X-H torsion
[ 10718 10713 10712 10709 ] final  -95.28 input   66.30 | X-H torsion
[ 10763 10752 10751 10750 ] final -103.95 input  -60.55 | X-H torsion
[ 11005 11000 10999 10996 ] final  167.34 input  -57.11 | X-H torsion

> <Gold.Protein.ActiveResidues>
 VAL166  LYS551  ARG553  GLY616  TRP617  ASP618  TYR619  PRO620  LYS621  CYS622 
 ASP623  PHE694  ASN695  SER759  ASP760  ASP761  ALA762  ILE779  LEU786  VAL792 
 PHE793  MET794  SER795  GLU796  ALA797  LYS798  CYS799  TRP800  GLU811  SER814 

> <Gold.Protein.RotatedAtoms>
  152.1127  133.4309  159.4638 H   0  0  0  0  0  0  0  0  0  0  0  0  # atno 6907 bound_to 6896
  150.6868  134.2629  159.4566 H   0  0  0  0  0  0  0  0  0  0  0  0  # atno 6908 bound_to 6896
  152.0499  134.9659  160.0625 H   0  0  0  0  0  0  0  0  0  0  0  0  # atno 6909 bound_to 6896
  144.9301  139.5058  143.5622 H   0  0  0  0  0  0  0  0  0  0  0  0  # atno 7974 bound_to 7965
  156.2454  140.2912  156.0565 H   0  0  0  0  0  0  0  0  0  0  0  0  # atno 8008 bound_to 7997
  155.1823  140.0404  157.2902 H   0  0  0  0  0  0  0  0  0  0  0  0  # atno 8009 bound_to 7997
  154.6251  140.2485  155.7508 H   0  0  0  0  0  0  0  0  0  0  0  0  # atno 8010 bound_to 7997
  140.1195  144.4744  150.6929 H   0  0  0  0  0  0  0  0  0  0  0  0  # atno 10167 bound_to 10162
  156.0041  130.5103  150.6053 H   0  0  0  0  0  0  0  0  0  0  0  0  # atno 10718 bound_to 10713
  154.7844  135.4804  153.9913 H   0  0  0  0  0  0  0  0  0  0  0  0  # atno 10763 bound_to 10752
  153.1539  135.6796  153.8849 H   0  0  0  0  0  0  0  0  0  0  0  0  # atno 10764 bound_to 10752
  153.8484  135.3170  155.3409 H   0  0  0  0  0  0  0  0  0  0  0  0  # atno 10765 bound_to 10752
  140.2758  134.7790  157.3715 H   0  0  0  0  0  0  0  0  0  0  0  0  # atno 11005 bound_to 11000
  146.3243  139.8244  142.8920 LP  0  0  0  0  0  0  0  0  0  0  0  0  # atno 17320 bound_to 7965
  145.3156  141.0231  143.3529 LP  0  0  0  0  0  0  0  0  0  0  0  0  # atno 17321 bound_to 7965
  140.6880  143.2360  151.5208 LP  0  0  0  0  0  0  0  0  0  0  0  0  # atno 17342 bound_to 10162
  139.5576  144.2236  152.1639 LP  0  0  0  0  0  0  0  0  0  0  0  0  # atno 17343 bound_to 10162
  157.3895  131.0793  151.1406 LP  0  0  0  0  0  0  0  0  0  0  0  0  # atno 17370 bound_to 10713
  157.2102  130.6434  149.5771 LP  0  0  0  0  0  0  0  0  0  0  0  0  # atno 17371 bound_to 10713
  140.1330  134.5070  155.8090 LP  0  0  0  0  0  0  0  0  0  0  0  0  # atno 17394 bound_to 11000
  141.2170  133.6797  156.7073 LP  0  0  0  0  0  0  0  0  0  0  0  0  # atno 17395 bound_to 11000

$$$$
