AV-unprocessed.smi:35|AV-procd|sdf|274|dock5
  -GOLD-   2262016 43D 1   1.00000     0.00000
 Structure written by MMmdl.
 28 29  0  0  0  0  0  0  0  0  2 V2000
  152.1896  132.4550  157.5277 O   0  0  0  0  0  0  0  0  0  0  0  0
  151.3868  132.6579  156.6185 C   0  0  0  0  0  0  0  0  0  0  0  0
  150.8680  133.8899  156.3490 N   0  5  0  0  0  0  0  0  0  0  0  0
  149.9679  134.1078  155.3453 C   0  0  0  0  0  0  0  0  0  0  0  0
  149.5214  135.2230  155.0772 O   0  0  0  0  0  0  0  0  0  0  0  0
  149.5219  133.0052  154.5627 N   0  0  0  0  0  0  0  0  0  0  0  0
  148.5323  133.2617  153.4362 C   0  0  1  0  0  0  0  0  0  0  0  0
  148.1275  132.0523  152.8672 O   0  0  0  0  0  0  0  0  0  0  0  0
  146.9274  131.6103  153.4869 C   0  0  2  0  0  0  0  0  0  0  0  0
  146.2267  130.5970  152.5683 C   0  0  0  0  0  0  0  0  0  0  0  0
  146.2913  131.0175  151.2218 O   0  0  0  0  0  0  0  0  0  0  0  0
  146.1545  132.9118  153.7171 C   0  0  1  0  0  0  0  0  0  0  0  0
  145.3301  132.7898  154.8594 O   0  0  0  0  0  0  0  0  0  0  0  0
  147.2491  133.9537  153.9517 C   0  0  2  0  0  0  0  0  0  0  0  0
  146.9655  135.1270  153.2158 O   0  0  0  0  0  0  0  0  0  0  0  0
  150.0658  131.7498  154.7897 C   0  0  0  0  0  0  0  0  0  0  0  0
  150.9624  131.5444  155.7756 C   0  0  0  0  0  0  0  0  0  0  0  0
  151.6494  129.6971  155.9826 Br  0  0  0  0  0  0  0  0  0  0  0  0
  149.0968  133.8430  152.7047 H   0  0  0  0  0  0  0  0  0  0  0  0
  147.1798  131.1441  154.4408 H   0  0  0  0  0  0  0  0  0  0  0  0
  146.6728  129.6068  152.6647 H   0  0  0  0  0  0  0  0  0  0  0  0
  145.1767  130.5053  152.8477 H   0  0  0  0  0  0  0  0  0  0  0  0
  147.0887  130.6824  150.8408 H   0  0  0  0  0  0  0  0  0  0  0  0
  145.5538  133.1586  152.8401 H   0  0  0  0  0  0  0  0  0  0  0  0
  144.5425  132.3305  154.6100 H   0  0  0  0  0  0  0  0  0  0  0  0
  147.3501  134.2006  155.0099 H   0  0  0  0  0  0  0  0  0  0  0  0
  147.7801  135.4856  152.8999 H   0  0  0  0  0  0  0  0  0  0  0  0
  149.7880  130.9085  154.1745 H   0  0  0  0  0  0  0  0  0  0  0  0
  1  2  2  0  0  0  0
  2 17  1  0  0  0  0
  2  3  1  0  0  0  0
  3  4  1  0  0  0  0
  4  5  2  0  0  0  0
  4  6  1  0  0  0  0
  6  7  1  0  0  0  0
  6 16  1  0  0  0  0
  7 14  1  0  0  0  0
  7  8  1  0  0  0  0
  7 19  1  0  0  0  0
  8  9  1  0  0  0  0
  9 10  1  0  0  0  0
  9 12  1  0  0  0  0
  9 20  1  0  0  0  0
 10 11  1  0  0  0  0
 10 21  1  0  0  0  0
 10 22  1  0  0  0  0
 11 23  1  0  0  0  0
 12 13  1  0  0  0  0
 12 14  1  0  0  0  0
 12 24  1  0  0  0  0
 13 25  1  0  0  0  0
 14 15  1  0  0  0  0
 14 26  1  0  0  0  0
 15 27  1  0  0  0  0
 16 17  2  0  0  0  0
 16 28  1  0  0  0  0
 17 18  1  0  0  0  0
M  CHG  1   3  -1
M  END
> <s_m_source_file>
AV-unprocessed.smi

> <i_m_source_file_index>
35

> <i_lp_mmshare_version>
43012

> <i_f3d_flags>
0

> <s_epik_input>
Tz1jMVtuSF1jKD1PKW4oW2NIXWMxQnIpW0NAQEhdMk9bQ0BASF0oW0NIMl1bT0hdKVtDQEBIXShbT0hdKVtDQEhdMltPSF0=

> <s_epik_cmdline>
J2VwaWtfcHl0aG9uJywgJy1waCcsICc3LjAnLCAnLXRuJywgJzgnLCAnLW1hJywgJzIwMCcsICctbWV0YWxfYmluZGluZycsICctaW1hZScsICc8aW5maWxlLm1hZT4nLCAnLW9tYWUnLCAnPG91dGZpbGUubWFlPic=

> <r_epik_Ionization_Penalty>
1.06112

> <r_epik_Ionization_Penalty_Charging>
2.1796e-09

> <r_epik_Ionization_Penalty_Neutral>
1.06112

> <r_epik_State_Penalty>
1.11484

> <r_epik_Charging_Adjusted_Penalty>
1.11484

> <i_epik_Tot_Q>
-1

> <i_epik_Tot_abs_Q>
1

> <r_epik_Metal_State_Penalty>
0.0032876

> <b_epik_Metal_Only>
0

> <s_epik_Chemistry_Notes>
This compound contains an acetal/aminal-like group ( X-CH(R)-Y where X, Y are N, S, or O) that may be acid/base labile, releasing an aldehyde.

> <s_lp_Force_Field>
OPLS_2005

> <r_lp_Energy>
36.7062

> <b_lp_Chiralities_Consistent>
1

> <s_lp_Variant>
AV-unprocessed.smi:35-28

> <Gold.Version>
5.8.1

> <Gold.Id.Protein>
6NUR|6NUR_protein|mol2

> <Gold.PLP.Fitness>
37.1108

> <Gold.PLP.PLP>
-25.5247

> <Gold.PLP.part.hbond>
-4.0000

> <Gold.PLP.part.metal>
0.0000

> <Gold.PLP.part.buried>
-5.0529

> <Gold.PLP.part.nonpolar>
-18.2155

> <Gold.PLP.part.repulsive>
1.7388

> <Gold.PLP.ligand.clash>
0.0000

> <Gold.PLP.ligand.torsion>
0.2215

> <Gold.PLP.Chemscore.Hbond>
4.0000

> <Gold.PLP.Chemscore.CHOScore>
0.0000

> <Gold.PLP.Chemscore.Metal>
0.0000

> <Gold.Chemscore.Hbonds>
donor molecule, donor type, donor heavy atom, donor atom, acceptor molecule, acceptor atom, score
      L1  H    11    23       P1 10747  1.00
      L1  H    13    25       P1 10957  1.00
      L1  H    15    27       P1  7948  1.00
      P1  H  6896  6908       L1     1  1.00

> <Gold.PLP.Chemscore.Internal.Correction>
0.0292

> <Gold.Rescore>
     Score         DG    S(hbond)    S(metal)    S(lipo)     H(rot)  DE(clash)    DE(int)     intcor
     11.32     -12.51       3.81        0.00      30.71       3.63       0.01       1.18       ----

> <Gold.Chemscore.Fitness>
11.3174

> <Gold.Chemscore.DG>
-12.5137

> <Gold.Chemscore.ZeroCoef>
-5.4800

> <Gold.Chemscore.Hbond>
3.8095

> <Gold.Chemscore.Metal>
0.0000

> <Gold.Chemscore.Lipo>
30.7089

> <Gold.Chemscore.Internal_Hbond>
0.0000

> <Gold.Chemscore.DEClash>
0.0149

> <Gold.Chemscore.DEInternal>
1.1815

> <Gold.Chemscore.Rot>
3.6261

> <Gold.Chemscore.Internal.Correction>
   9.000000E+99

> <Gold.Chemscore.Hbonds>
donor molecule, donor type, donor heavy atom, donor atom, acceptor molecule, acceptor atom, score
      L1  H    11    23       P1 10747  0.96
      L1  H    13    25       P1 10957  0.68
      L1  H    15    27       P1  7948  1.00
      P1  H  6896  6908       L1     1  0.90

> <Gold.Chemscore.Hbond.Weighted>
-12.7236

> <Gold.Chemscore.Metal.Weighted>
-0.0000

> <Gold.Chemscore.Lipo.Weighted>
-3.5929

> <Gold.Chemscore.Internal_Hbond.Weighted>
0.0000

> <Gold.Chemscore.DEClash.Weighted>
0.0149

> <Gold.Chemscore.DEInternal.Weighted>
1.1815

> <Gold.Chemscore.Rot.Weighted>
9.2828

> <Gold.Chemscore.Internal.Correction.Weighted>
   9.000000E+99

> <Gold.Protein.RotatedTorsions>
[ 6907 6896 6895 6894 ] final   53.04 input  -60.11 | X-H torsion
[ 7974 7965 7964 7962 ] final  142.65 input  175.53 | X-H torsion
[ 8008 7997 7996 7995 ] final    2.36 input   59.86 | X-H torsion
[ 10167 10162 10161 10158 ] final -120.23 input  -65.29 | X-H torsion
[ 10718 10713 10712 10709 ] final  101.40 input   66.30 | X-H torsion
[ 10763 10752 10751 10750 ] final   36.93 input  -60.55 | X-H torsion
[ 11005 11000 10999 10996 ] final   83.68 input  -57.11 | X-H torsion

> <Gold.Protein.ActiveResidues>
 VAL166  LYS551  ARG553  GLY616  TRP617  ASP618  TYR619  PRO620  LYS621  CYS622 
 ASP623  PHE694  ASN695  SER759  ASP760  ASP761  ALA762  ILE779  LEU786  VAL792 
 PHE793  MET794  SER795  GLU796  ALA797  LYS798  CYS799  TRP800  GLU811  SER814 

> <Gold.Protein.RotatedAtoms>
  152.3295  134.7277  160.0292 H   0  0  0  0  0  0  0  0  0  0  0  0  # atno 6907 bound_to 6896
  151.7699  133.3335  159.3449 H   0  0  0  0  0  0  0  0  0  0  0  0  # atno 6908 bound_to 6896
  150.7415  134.5960  159.6056 H   0  0  0  0  0  0  0  0  0  0  0  0  # atno 6909 bound_to 6896
  144.8989  139.5451  143.5763 H   0  0  0  0  0  0  0  0  0  0  0  0  # atno 7974 bound_to 7965
  154.6906  140.2652  155.6816 H   0  0  0  0  0  0  0  0  0  0  0  0  # atno 8008 bound_to 7997
  156.2731  140.2792  156.1406 H   0  0  0  0  0  0  0  0  0  0  0  0  # atno 8009 bound_to 7997
  155.0902  140.0373  157.2656 H   0  0  0  0  0  0  0  0  0  0  0  0  # atno 8010 bound_to 7997
  140.0380  143.5181  152.2144 H   0  0  0  0  0  0  0  0  0  0  0  0  # atno 10167 bound_to 10162
  157.6830  131.0725  150.5246 H   0  0  0  0  0  0  0  0  0  0  0  0  # atno 10718 bound_to 10713
  153.0057  135.6292  154.2064 H   0  0  0  0  0  0  0  0  0  0  0  0  # atno 10763 bound_to 10752
  154.1808  135.2813  155.3054 H   0  0  0  0  0  0  0  0  0  0  0  0  # atno 10764 bound_to 10752
  154.5836  135.5639  153.7269 H   0  0  0  0  0  0  0  0  0  0  0  0  # atno 10765 bound_to 10752
  139.9023  134.8162  156.2342 H   0  0  0  0  0  0  0  0  0  0  0  0  # atno 11005 bound_to 11000
  146.3097  139.7703  142.9029 LP  0  0  0  0  0  0  0  0  0  0  0  0  # atno 17320 bound_to 7965
  145.3651  141.0333  143.3263 LP  0  0  0  0  0  0  0  0  0  0  0  0  # atno 17321 bound_to 7965
  139.6032  144.7589  151.3123 LP  0  0  0  0  0  0  0  0  0  0  0  0  # atno 17342 bound_to 10162
  140.7273  143.6968  150.7877 LP  0  0  0  0  0  0  0  0  0  0  0  0  # atno 17343 bound_to 10162
  156.5558  130.4243  149.6086 LP  0  0  0  0  0  0  0  0  0  0  0  0  # atno 17370 bound_to 10713
  156.2863  130.7099  151.1937 LP  0  0  0  0  0  0  0  0  0  0  0  0  # atno 17371 bound_to 10713
  141.0326  133.6980  156.1457 LP  0  0  0  0  0  0  0  0  0  0  0  0  # atno 17394 bound_to 11000
  140.7074  134.4499  157.5583 LP  0  0  0  0  0  0  0  0  0  0  0  0  # atno 17395 bound_to 11000

$$$$
