AV-unprocessed.smi:3183|AV-procd|sdf|12154|dock4
  -GOLD-   2272017593D 1   1.00000     0.00000
 Structure written by MMmdl.
 43 44  0  0  0  0  0  0  0  0  2 V2000
  152.1919  143.1401  161.4196 C   0  0  0  0  0  0  0  0  0  0  0  0
  152.8955  143.4683  160.0871 C   0  0  1  0  0  0  0  0  0  0  0  0
  153.0456  142.2152  159.1990 C   0  0  0  0  0  0  0  0  0  0  0  0
  151.7097  141.7762  158.5754 C   0  0  0  0  0  0  0  0  0  0  0  0
  151.0632  142.9218  157.7779 C   0  0  1  0  0  0  0  0  0  0  0  0
  149.7588  142.4935  157.2284 N   0  3  0  0  0  0  0  0  0  0  0  0
  149.8197  141.3094  156.3482 C   0  0  0  0  0  0  0  0  0  0  0  0
  149.5063  141.6839  154.8924 C   0  0  0  0  0  0  0  0  0  0  0  0
  148.5348  140.7647  154.2150 C   0  0  0  0  0  0  0  0  0  0  0  0
  147.3403  141.0206  153.5977 C   0  0  0  0  0  0  0  0  0  0  0  0
  146.8950  139.7454  153.1541 C   0  0  0  0  0  0  0  0  0  0  0  0
  147.7381  138.7782  153.4677 N   0  0  0  0  0  0  0  0  0  0  0  0
  148.7443  139.3990  154.1182 N   0  0  0  0  0  0  0  0  0  0  0  0
  149.8509  138.5956  154.6031 C   0  0  0  0  0  0  0  0  0  0  0  0
  150.8896  144.1719  158.6597 C   0  0  0  0  0  0  0  0  0  0  0  0
  152.2294  144.6153  159.2832 C   0  0  1  0  0  0  0  0  0  0  0  0
  152.0828  145.9169  160.0884 C   0  0  0  0  0  0  0  0  0  0  0  0
  151.1463  142.8683  161.2784 H   0  0  0  0  0  0  0  0  0  0  0  0
  152.2244  143.9854  162.1070 H   0  0  0  0  0  0  0  0  0  0  0  0
  152.6820  142.3061  161.9222 H   0  0  0  0  0  0  0  0  0  0  0  0
  153.9039  143.7938  160.3471 H   0  0  0  0  0  0  0  0  0  0  0  0
  153.7564  142.4276  158.3991 H   0  0  0  0  0  0  0  0  0  0  0  0
  153.4770  141.3940  159.7726 H   0  0  0  0  0  0  0  0  0  0  0  0
  151.8784  140.9187  157.9230 H   0  0  0  0  0  0  0  0  0  0  0  0
  151.0305  141.4352  159.3577 H   0  0  0  0  0  0  0  0  0  0  0  0
  151.7332  143.1802  156.9557 H   0  0  0  0  0  0  0  0  0  0  0  0
  149.1414  142.2875  158.0008 H   0  0  0  0  0  0  0  0  0  0  0  0
  150.8156  140.8685  156.4146 H   0  0  0  0  0  0  0  0  0  0  0  0
  149.1066  140.5647  156.7053 H   0  0  0  0  0  0  0  0  0  0  0  0
  149.1108  142.7002  154.8633 H   0  0  0  0  0  0  0  0  0  0  0  0
  150.4354  141.6996  154.3208 H   0  0  0  0  0  0  0  0  0  0  0  0
  146.8518  141.9762  153.4776 H   0  0  0  0  0  0  0  0  0  0  0  0
  145.9914  139.4955  152.6176 H   0  0  0  0  0  0  0  0  0  0  0  0
  150.5913  139.2139  155.1093 H   0  0  0  0  0  0  0  0  0  0  0  0
  150.3316  138.0895  153.7654 H   0  0  0  0  0  0  0  0  0  0  0  0
  149.4812  137.8475  155.3049 H   0  0  0  0  0  0  0  0  0  0  0  0
  150.4808  144.9853  158.0584 H   0  0  0  0  0  0  0  0  0  0  0  0
  150.1579  143.9774  159.4450 H   0  0  0  0  0  0  0  0  0  0  0  0
  152.9014  144.8466  158.4551 H   0  0  0  0  0  0  0  0  0  0  0  0
  151.3555  145.8154  160.8940 H   0  0  0  0  0  0  0  0  0  0  0  0
  151.7478  146.7342  159.4493 H   0  0  0  0  0  0  0  0  0  0  0  0
  153.0340  146.2154  160.5299 H   0  0  0  0  0  0  0  0  0  0  0  0
  149.3679  143.2630  156.7035 H   0  0  0  0  0  0  0  0  0  0  0  0
  1  2  1  0  0  0  0
  1 18  1  0  0  0  0
  1 19  1  0  0  0  0
  1 20  1  0  0  0  0
  2 16  1  0  0  0  0
  2  3  1  0  0  0  0
  2 21  1  0  0  0  0
  3  4  1  0  0  0  0
  3 22  1  0  0  0  0
  3 23  1  0  0  0  0
  4  5  1  0  0  0  0
  4 24  1  0  0  0  0
  4 25  1  0  0  0  0
  5  6  1  0  0  0  0
  5 15  1  0  0  0  0
  5 26  1  0  0  0  0
  6  7  1  0  0  0  0
  6 27  1  0  0  0  0
  6 43  1  0  0  0  0
  7  8  1  0  0  0  0
  7 28  1  0  0  0  0
  7 29  1  0  0  0  0
  8  9  1  0  0  0  0
  8 30  1  0  0  0  0
  8 31  1  0  0  0  0
  9 13  1  0  0  0  0
  9 10  2  0  0  0  0
 10 11  1  0  0  0  0
 10 32  1  0  0  0  0
 11 12  2  0  0  0  0
 11 33  1  0  0  0  0
 12 13  1  0  0  0  0
 13 14  1  0  0  0  0
 14 34  1  0  0  0  0
 14 35  1  0  0  0  0
 14 36  1  0  0  0  0
 15 16  1  0  0  0  0
 15 37  1  0  0  0  0
 15 38  1  0  0  0  0
 16 17  1  0  0  0  0
 16 39  1  0  0  0  0
 17 40  1  0  0  0  0
 17 41  1  0  0  0  0
 17 42  1  0  0  0  0
M  CHG  1   6   1
M  END
> <s_m_source_file>
AV-unprocessed.smi

> <i_m_source_file_index>
3183

> <i_lp_mmshare_version>
43012

> <i_f3d_flags>
0

> <s_epik_input>
W0NIM11bQ0BASF0xW0NIMl1bQ0gyXVtDQEhdKFtDSDJdW0NASF0xW0NIM10pW05IXVtDSDJdW0NIMl1jMltjSF1bY0hdbm4yW0NIM10=

> <s_epik_cmdline>
J2VwaWtfcHl0aG9uJywgJy1waCcsICc3LjAnLCAnLXRuJywgJzgnLCAnLW1hJywgJzIwMCcsICctbWV0YWxfYmluZGluZycsICctaW1hZScsICc8aW5maWxlLm1hZT4nLCAnLW9tYWUnLCAnPG91dGZpbGUubWFlPic=

> <r_lp_tautomer_probability>
1

> <r_epik_Ionization_Penalty>
0.000327718

> <r_epik_Ionization_Penalty_Charging>
0.000294043

> <r_epik_Ionization_Penalty_Neutral>
3.36755e-05

> <r_epik_State_Penalty>
-0

> <r_epik_Charging_Adjusted_Penalty>
0.000294043

> <i_epik_Tot_Q>
1

> <i_epik_Tot_abs_Q>
1

> <r_epik_Metal_State_Penalty>
-0

> <b_epik_Metal_Only>
0

> <s_lp_Force_Field>
OPLS_2005

> <r_lp_Energy>
15.8905

> <b_lp_Chiralities_Consistent>
1

> <s_lp_Variant>
AV-unprocessed.smi:3183-2

> <Gold.Version>
5.8.1

> <Gold.Id.Protein>
6NUR|6NUR_protein|mol2

> <Gold.PLP.Fitness>
50.5538

> <Gold.PLP.PLP>
-42.9417

> <Gold.PLP.part.hbond>
-1.0000

> <Gold.PLP.part.metal>
0.0000

> <Gold.PLP.part.buried>
-3.0531

> <Gold.PLP.part.nonpolar>
-39.2696

> <Gold.PLP.part.repulsive>
0.2371

> <Gold.PLP.ligand.clash>
0.0000

> <Gold.PLP.ligand.torsion>
0.7013

> <Gold.PLP.Chemscore.Hbond>
2.0000

> <Gold.PLP.Chemscore.CHOScore>
1.0000

> <Gold.PLP.Chemscore.Metal>
0.0000

> <Gold.Chemscore.Hbonds>
donor molecule, donor type, donor heavy atom, donor atom, acceptor molecule, acceptor atom, score
      L1  H     6    43       P1  8028  2.00
      L1  C    11    33       P1 10175  1.00

> <Gold.PLP.Chemscore.Internal.Correction>
0.0147

> <Gold.Rescore>
     Score         DG    S(hbond)    S(metal)    S(lipo)     H(rot)  DE(clash)    DE(int)     intcor
     19.59     -20.54       1.00        0.00     130.32       1.38       0.30       0.66       ----

> <Gold.Chemscore.Fitness>
19.5888

> <Gold.Chemscore.DG>
-20.5404

> <Gold.Chemscore.ZeroCoef>
-5.4800

> <Gold.Chemscore.Hbond>
0.9992

> <Gold.Chemscore.Metal>
0.0000

> <Gold.Chemscore.Lipo>
130.3239

> <Gold.Chemscore.Internal_Hbond>
0.0000

> <Gold.Chemscore.DEClash>
0.2952

> <Gold.Chemscore.DEInternal>
0.6564

> <Gold.Chemscore.Rot>
1.3768

> <Gold.Chemscore.Internal.Correction>
   9.000000E+99

> <Gold.Chemscore.Hbonds>
donor molecule, donor type, donor heavy atom, donor atom, acceptor molecule, acceptor atom, score
      L1  H     6    43       P1  8028  1.00

> <Gold.Chemscore.Hbond.Weighted>
-3.3372

> <Gold.Chemscore.Metal.Weighted>
-0.0000

> <Gold.Chemscore.Lipo.Weighted>
-15.2479

> <Gold.Chemscore.Internal_Hbond.Weighted>
0.0000

> <Gold.Chemscore.DEClash.Weighted>
0.2952

> <Gold.Chemscore.DEInternal.Weighted>
0.6564

> <Gold.Chemscore.Rot.Weighted>
3.5247

> <Gold.Chemscore.Internal.Correction.Weighted>
   9.000000E+99

> <Gold.Protein.RotatedTorsions>
[ 6907 6896 6895 6894 ] final  137.32 input  -60.11 | X-H torsion
[ 7974 7965 7964 7962 ] final  -54.53 input  175.53 | X-H torsion
[ 8008 7997 7996 7995 ] final   87.12 input   59.86 | X-H torsion
[ 10167 10162 10161 10158 ] final   69.50 input  -65.29 | X-H torsion
[ 10718 10713 10712 10709 ] final -156.30 input   66.30 | X-H torsion
[ 10763 10752 10751 10750 ] final   77.95 input  -60.55 | X-H torsion
[ 11005 11000 10999 10996 ] final  -73.85 input  -57.11 | X-H torsion

> <Gold.Protein.ActiveResidues>
 VAL166  LYS551  ARG553  GLY616  TRP617  ASP618  TYR619  PRO620  LYS621  CYS622 
 ASP623  PHE694  ASN695  SER759  ASP760  ASP761  ALA762  ILE779  LEU786  VAL792 
 PHE793  MET794  SER795  GLU796  ALA797  LYS798  CYS799  TRP800  GLU811  SER814 

> <Gold.Protein.RotatedAtoms>
  152.2794  133.5456  159.5487 H   0  0  0  0  0  0  0  0  0  0  0  0  # atno 6907 bound_to 6896
  150.7190  134.0586  159.3832 H   0  0  0  0  0  0  0  0  0  0  0  0  # atno 6908 bound_to 6896
  151.8497  135.0562  160.0508 H   0  0  0  0  0  0  0  0  0  0  0  0  # atno 6909 bound_to 6896
  145.8846  140.8118  142.9822 H   0  0  0  0  0  0  0  0  0  0  0  0  # atno 7974 bound_to 7965
  155.9713  140.3385  155.6578 H   0  0  0  0  0  0  0  0  0  0  0  0  # atno 8008 bound_to 7997
  155.6670  140.0722  157.2552 H   0  0  0  0  0  0  0  0  0  0  0  0  # atno 8009 bound_to 7997
  154.4167  140.1698  156.1826 H   0  0  0  0  0  0  0  0  0  0  0  0  # atno 8010 bound_to 7997
  140.0671  144.5184  150.7253 H   0  0  0  0  0  0  0  0  0  0  0  0  # atno 10167 bound_to 10162
  156.5247  130.8494  151.2695 H   0  0  0  0  0  0  0  0  0  0  0  0  # atno 10718 bound_to 10713
  153.0837  135.4895  154.8555 H   0  0  0  0  0  0  0  0  0  0  0  0  # atno 10763 bound_to 10752
  154.7184  135.3034  154.9089 H   0  0  0  0  0  0  0  0  0  0  0  0  # atno 10764 bound_to 10752
  153.9761  135.6795  153.4801 H   0  0  0  0  0  0  0  0  0  0  0  0  # atno 10765 bound_to 10752
  141.1628  133.6892  156.7275 H   0  0  0  0  0  0  0  0  0  0  0  0  # atno 11005 bound_to 11000
  144.6728  140.1435  143.7435 LP  0  0  0  0  0  0  0  0  0  0  0  0  # atno 17320 bound_to 7965
  145.8983  139.2415  143.1509 LP  0  0  0  0  0  0  0  0  0  0  0  0  # atno 17321 bound_to 7965
  140.7144  143.2531  151.4482 LP  0  0  0  0  0  0  0  0  0  0  0  0  # atno 17342 bound_to 10162
  139.5858  144.1607  152.2027 LP  0  0  0  0  0  0  0  0  0  0  0  0  # atno 17343 bound_to 10162
  157.7431  130.9905  150.2569 LP  0  0  0  0  0  0  0  0  0  0  0  0  # atno 17370 bound_to 10713
  156.3116  130.3773  149.7656 LP  0  0  0  0  0  0  0  0  0  0  0  0  # atno 17371 bound_to 10713
  140.2770  134.8347  157.3899 LP  0  0  0  0  0  0  0  0  0  0  0  0  # atno 17394 bound_to 11000
  140.1468  134.4901  155.7990 LP  0  0  0  0  0  0  0  0  0  0  0  0  # atno 17395 bound_to 11000

$$$$
