AV-unprocessed.smi:1740|AV-procd|sdf|7006|dock10
  -GOLD-   22720 8223D 1   1.00000     0.00000
 Structure written by MMmdl.
 51 53  0  0  0  0  0  0  0  0  1 V2000
  145.5951  128.4894  152.7751 N   0  0  0  0  0  0  0  0  0  0  0  0
  146.0328  129.2645  151.7802 C   0  0  0  0  0  0  0  0  0  0  0  0
  147.0256  128.9791  151.1140 O   0  0  0  0  0  0  0  0  0  0  0  0
  145.2374  130.5423  151.4853 C   0  0  0  0  0  0  0  0  0  0  0  0
  145.9732  131.8002  151.7485 N   0  0  0  0  0  0  0  0  0  0  0  0
  146.6267  131.7108  153.0587 C   0  0  0  0  0  0  0  0  0  0  0  0
  147.5053  132.9476  153.3151 C   0  0  0  0  0  0  0  0  0  0  0  0
  146.6753  134.2390  153.2393 C   0  0  0  0  0  0  0  0  0  0  0  0
  147.5291  135.4167  153.3585 N   0  0  0  0  0  0  0  0  0  0  0  0
  147.0933  136.6726  153.5283 C   0  0  0  0  0  0  0  0  0  0  0  0
  145.9027  136.9770  153.6043 O   0  0  0  0  0  0  0  0  0  0  0  0
  148.1189  137.5383  153.5833 N   0  0  0  0  0  0  0  0  0  0  0  0
  148.0643  138.9549  153.7116 C   0  0  0  0  0  0  0  0  0  0  0  0
  146.9151  139.6887  153.3285 C   0  0  0  0  0  0  0  0  0  0  0  0
  146.8820  141.0781  153.5382 C   0  0  0  0  0  0  0  0  0  0  0  0
  147.9961  141.6854  154.1405 C   0  0  0  0  0  0  0  0  0  0  0  0
  149.0913  140.9997  154.5242 N   0  0  0  0  0  0  0  0  0  0  0  0
  149.1444  139.6609  154.3149 C   0  0  0  0  0  0  0  0  0  0  0  0
  150.3253  138.9966  154.7183 N   0  0  0  0  0  0  0  0  0  0  0  0
  151.0397  138.2097  153.7170 C   0  0  0  0  0  0  0  0  0  0  0  0
  152.5335  138.4018  153.9995 C   0  0  0  0  0  0  0  0  0  0  0  0
  152.5698  138.8399  155.4602 C   0  0  0  0  0  0  0  0  0  0  0  0
  151.2921  139.6651  155.5832 C   0  0  0  0  0  0  0  0  0  0  0  0
  145.9250  134.2696  151.9011 C   0  0  0  0  0  0  0  0  0  0  0  0
  145.1038  132.9850  151.6919 C   0  0  0  0  0  0  0  0  0  0  0  0
  146.0898  127.6388  153.0010 H   0  0  0  0  0  0  0  0  0  0  0  0
  144.7726  128.7544  153.2970 H   0  0  0  0  0  0  0  0  0  0  0  0
  144.8910  130.5302  150.4500 H   0  0  0  0  0  0  0  0  0  0  0  0
  144.3437  130.5092  152.1099 H   0  0  0  0  0  0  0  0  0  0  0  0
  145.8815  131.6079  153.8497 H   0  0  0  0  0  0  0  0  0  0  0  0
  147.2549  130.8199  153.0980 H   0  0  0  0  0  0  0  0  0  0  0  0
  147.9802  132.8626  154.2931 H   0  0  0  0  0  0  0  0  0  0  0  0
  148.3124  132.9777  152.5811 H   0  0  0  0  0  0  0  0  0  0  0  0
  145.9396  134.2409  154.0462 H   0  0  0  0  0  0  0  0  0  0  0  0
  148.5253  135.2622  153.3058 H   0  0  0  0  0  0  0  0  0  0  0  0
  149.0366  137.1551  153.4096 H   0  0  0  0  0  0  0  0  0  0  0  0
  146.0506  139.2059  152.8991 H   0  0  0  0  0  0  0  0  0  0  0  0
  146.0181  141.6611  153.2558 H   0  0  0  0  0  0  0  0  0  0  0  0
  148.0066  142.7494  154.3253 H   0  0  0  0  0  0  0  0  0  0  0  0
  150.7714  137.1598  153.8384 H   0  0  0  0  0  0  0  0  0  0  0  0
  150.7854  138.5086  152.6989 H   0  0  0  0  0  0  0  0  0  0  0  0
  153.1201  137.5028  153.8078 H   0  0  0  0  0  0  0  0  0  0  0  0
  152.9261  139.2007  153.3688 H   0  0  0  0  0  0  0  0  0  0  0  0
  152.5166  137.9674  156.1128 H   0  0  0  0  0  0  0  0  0  0  0  0
  153.4671  139.4035  155.7167 H   0  0  0  0  0  0  0  0  0  0  0  0
  151.4851  140.6822  155.2395 H   0  0  0  0  0  0  0  0  0  0  0  0
  150.9367  139.7117  156.6129 H   0  0  0  0  0  0  0  0  0  0  0  0
  145.2656  135.1375  151.8633 H   0  0  0  0  0  0  0  0  0  0  0  0
  146.6326  134.3828  151.0780 H   0  0  0  0  0  0  0  0  0  0  0  0
  144.6074  133.0585  150.7244 H   0  0  0  0  0  0  0  0  0  0  0  0
  144.3174  132.9111  152.4452 H   0  0  0  0  0  0  0  0  0  0  0  0
  1  2  1  0  0  0  0
  1 26  1  0  0  0  0
  1 27  1  0  0  0  0
  2  3  2  0  0  0  0
  2  4  1  0  0  0  0
  4  5  1  0  0  0  0
  4 28  1  0  0  0  0
  4 29  1  0  0  0  0
  5 25  1  0  0  0  0
  5  6  1  0  0  0  0
  6  7  1  0  0  0  0
  6 30  1  0  0  0  0
  6 31  1  0  0  0  0
  7  8  1  0  0  0  0
  7 32  1  0  0  0  0
  7 33  1  0  0  0  0
  8  9  1  0  0  0  0
  8 24  1  0  0  0  0
  8 34  1  0  0  0  0
  9 10  1  0  0  0  0
  9 35  1  0  0  0  0
 10 11  2  0  0  0  0
 10 12  1  0  0  0  0
 12 13  1  0  0  0  0
 12 36  1  0  0  0  0
 13 18  1  0  0  0  0
 13 14  2  0  0  0  0
 14 15  1  0  0  0  0
 14 37  1  0  0  0  0
 15 16  2  0  0  0  0
 15 38  1  0  0  0  0
 16 17  1  0  0  0  0
 16 39  1  0  0  0  0
 17 18  2  0  0  0  0
 18 19  1  0  0  0  0
 19 23  1  0  0  0  0
 19 20  1  0  0  0  0
 20 21  1  0  0  0  0
 20 40  1  0  0  0  0
 20 41  1  0  0  0  0
 21 22  1  0  0  0  0
 21 42  1  0  0  0  0
 21 43  1  0  0  0  0
 22 23  1  0  0  0  0
 22 44  1  0  0  0  0
 22 45  1  0  0  0  0
 23 46  1  0  0  0  0
 23 47  1  0  0  0  0
 24 25  1  0  0  0  0
 24 48  1  0  0  0  0
 24 49  1  0  0  0  0
 25 50  1  0  0  0  0
 25 51  1  0  0  0  0
M  END
> <s_m_source_file>
AV-unprocessed.smi

> <i_m_source_file_index>
1740

> <i_lp_mmshare_version>
43012

> <i_f3d_flags>
0

> <s_epik_input>
W05IMl1DKD1PKVtDSDJdTjFbQ0gyXVtDSDJdW0NIXShbQ0gyXVtDSDJdMSlbTkhdQyg9TylbTkhdYzJbY0hdW2NIXVtjSF1uYzJOM1tDSDJdW0NIMl1bQ0gyXVtDSDJdMw==

> <s_epik_cmdline>
J2VwaWtfcHl0aG9uJywgJy1waCcsICc3LjAnLCAnLXRuJywgJzgnLCAnLW1hJywgJzIwMCcsICctbWV0YWxfYmluZGluZycsICctaW1hZScsICc8aW5maWxlLm1hZT4nLCAnLW9tYWUnLCAnPG91dGZpbGUubWFlPic=

> <r_lp_tautomer_probability>
1

> <r_epik_Ionization_Penalty>
0.268698

> <r_epik_Ionization_Penalty_Charging>
0

> <r_epik_Ionization_Penalty_Neutral>
0.268698

> <r_epik_State_Penalty>
0.247497

> <r_epik_Charging_Adjusted_Penalty>
0.247497

> <i_epik_Tot_Q>
0

> <i_epik_Tot_abs_Q>
0

> <r_epik_Metal_State_Penalty>
0.244805

> <b_epik_Metal_Only>
0

> <s_lp_Force_Field>
OPLS_2005

> <r_lp_Energy>
39.8984

> <b_lp_Chiralities_Consistent>
1

> <s_lp_Variant>
AV-unprocessed.smi:1740-1

> <Gold.Version>
5.8.1

> <Gold.Id.Protein>
6NUR|6NUR_protein|mol2

> <Gold.PLP.Fitness>
43.8779

> <Gold.PLP.PLP>
-38.3375

> <Gold.PLP.part.hbond>
-2.1090

> <Gold.PLP.part.metal>
0.0000

> <Gold.PLP.part.buried>
-4.6894

> <Gold.PLP.part.nonpolar>
-32.6558

> <Gold.PLP.part.repulsive>
1.8508

> <Gold.PLP.ligand.clash>
0.0009

> <Gold.PLP.ligand.torsion>
0.5146

> <Gold.PLP.Chemscore.Hbond>
1.0800

> <Gold.PLP.Chemscore.CHOScore>
1.0000

> <Gold.PLP.Chemscore.Metal>
0.0000

> <Gold.Chemscore.Hbonds>
donor molecule, donor type, donor heavy atom, donor atom, acceptor molecule, acceptor atom, score
      L1  H     1    27       P1 10956  0.49
      L1  H     9    35       P1  7948  0.05
      L1  H    12    36       P1  7948  0.18
      L1  C    16    39       P1  8028  1.00

> <Gold.PLP.Chemscore.Internal.Correction>
0.3305

> <Gold.Rescore>
     Score         DG    S(hbond)    S(metal)    S(lipo)     H(rot)  DE(clash)    DE(int)     intcor
     10.38     -13.75       1.09        0.00      86.97       2.16       1.62       1.75       ----

> <Gold.Chemscore.Fitness>
10.3783

> <Gold.Chemscore.DG>
-13.7483

> <Gold.Chemscore.ZeroCoef>
-5.4800

> <Gold.Chemscore.Hbond>
1.0872

> <Gold.Chemscore.Metal>
0.0000

> <Gold.Chemscore.Lipo>
86.9698

> <Gold.Chemscore.Internal_Hbond>
0.0000

> <Gold.Chemscore.DEClash>
1.6159

> <Gold.Chemscore.DEInternal>
1.7541

> <Gold.Chemscore.Rot>
2.1635

> <Gold.Chemscore.Internal.Correction>
   9.000000E+99

> <Gold.Chemscore.Hbonds>
donor molecule, donor type, donor heavy atom, donor atom, acceptor molecule, acceptor atom, score
      L1  H     1    27       P1 10956  0.44
      L1  H     9    35       P1  7948  0.07
      L1  H    12    36       P1  7948  0.19

> <Gold.Chemscore.Hbond.Weighted>
-3.6313

> <Gold.Chemscore.Metal.Weighted>
-0.0000

> <Gold.Chemscore.Lipo.Weighted>
-10.1755

> <Gold.Chemscore.Internal_Hbond.Weighted>
0.0000

> <Gold.Chemscore.DEClash.Weighted>
1.6159

> <Gold.Chemscore.DEInternal.Weighted>
1.7541

> <Gold.Chemscore.Rot.Weighted>
5.5385

> <Gold.Chemscore.Internal.Correction.Weighted>
   9.000000E+99

> <Gold.Protein.RotatedTorsions>
[ 6907 6896 6895 6894 ] final  150.60 input  -60.11 | X-H torsion
[ 7974 7965 7964 7962 ] final  142.83 input  175.53 | X-H torsion
[ 8008 7997 7996 7995 ] final   49.91 input   59.86 | X-H torsion
[ 10167 10162 10161 10158 ] final -155.46 input  -65.29 | X-H torsion
[ 10718 10713 10712 10709 ] final  114.40 input   66.30 | X-H torsion
[ 10763 10752 10751 10750 ] final   71.08 input  -60.55 | X-H torsion
[ 11005 11000 10999 10996 ] final   43.79 input  -57.11 | X-H torsion

> <Gold.Protein.ActiveResidues>
 VAL166  LYS551  ARG553  GLY616  TRP617  ASP618  TYR619  PRO620  LYS621  CYS622 
 ASP623  PHE694  ASN695  SER759  ASP760  ASP761  ALA762  ILE779  LEU786  VAL792 
 PHE793  MET794  SER795  GLU796  ALA797  LYS798  CYS799  TRP800  GLU811  SER814 

> <Gold.Protein.RotatedAtoms>
  152.1122  133.4307  159.4636 H   0  0  0  0  0  0  0  0  0  0  0  0  # atno 6907 bound_to 6896
  150.6868  134.2634  159.4568 H   0  0  0  0  0  0  0  0  0  0  0  0  # atno 6908 bound_to 6896
  152.0504  134.9656  160.0625 H   0  0  0  0  0  0  0  0  0  0  0  0  # atno 6909 bound_to 6896
  144.8973  139.5472  143.5770 H   0  0  0  0  0  0  0  0  0  0  0  0  # atno 7974 bound_to 7965
  155.4101  140.3442  155.4263 H   0  0  0  0  0  0  0  0  0  0  0  0  # atno 8008 bound_to 7997
  156.1454  140.1554  156.8887 H   0  0  0  0  0  0  0  0  0  0  0  0  # atno 8009 bound_to 7997
  154.5006  140.0816  156.7770 H   0  0  0  0  0  0  0  0  0  0  0  0  # atno 8010 bound_to 7997
  139.6929  143.9390  152.2393 H   0  0  0  0  0  0  0  0  0  0  0  0  # atno 10167 bound_to 10162
  157.6283  131.0998  150.7180 H   0  0  0  0  0  0  0  0  0  0  0  0  # atno 10718 bound_to 10713
  153.0378  135.5150  154.7539 H   0  0  0  0  0  0  0  0  0  0  0  0  # atno 10763 bound_to 10752
  154.6501  135.2924  155.0000 H   0  0  0  0  0  0  0  0  0  0  0  0  # atno 10764 bound_to 10752
  154.0887  135.6653  153.4901 H   0  0  0  0  0  0  0  0  0  0  0  0  # atno 10765 bound_to 10752
  140.1612  134.4339  155.8316 H   0  0  0  0  0  0  0  0  0  0  0  0  # atno 11005 bound_to 11000
  146.3089  139.7675  142.9035 LP  0  0  0  0  0  0  0  0  0  0  0  0  # atno 17320 bound_to 7965
  145.3677  141.0337  143.3249 LP  0  0  0  0  0  0  0  0  0  0  0  0  # atno 17321 bound_to 7965
  139.9211  144.6799  150.8461 LP  0  0  0  0  0  0  0  0  0  0  0  0  # atno 17342 bound_to 10162
  140.7688  143.3374  151.2279 LP  0  0  0  0  0  0  0  0  0  0  0  0  # atno 17343 bound_to 10162
  156.7524  130.4773  149.5454 LP  0  0  0  0  0  0  0  0  0  0  0  0  # atno 17370 bound_to 10713
  156.1470  130.6283  151.0544 LP  0  0  0  0  0  0  0  0  0  0  0  0  # atno 17371 bound_to 10713
  141.2209  133.6914  156.7597 LP  0  0  0  0  0  0  0  0  0  0  0  0  # atno 17394 bound_to 11000
  140.2487  134.8557  157.3646 LP  0  0  0  0  0  0  0  0  0  0  0  0  # atno 17395 bound_to 11000

$$$$
