AV-unprocessed.smi:1033|AV-procd|sdf|4511|dock1
  -GOLD-   22720 2513D 1   1.00000     0.00000
 Structure written by MMmdl.
 57 59  0  0  0  0  0  0  0  0  3 V2000
  152.6988  128.6174  156.7031 C   0  0  0  0  0  0  0  0  0  0  0  0
  151.9018  129.8351  156.2688 C   0  0  0  0  0  0  0  0  0  0  0  0
  152.0621  131.0486  156.9747 C   0  0  0  0  0  0  0  0  0  0  0  0
  151.3410  132.2039  156.6024 C   0  0  0  0  0  0  0  0  0  0  0  0
  151.3387  133.4768  157.1464 N   0  0  0  0  0  0  0  0  0  0  0  0
  150.4620  134.1013  156.3662 C   0  0  0  0  0  0  0  0  0  0  0  0
  149.8858  133.3794  155.3859 N   0  0  0  0  0  0  0  0  0  0  0  0
  148.8956  133.8421  154.4310 C   0  0  0  0  0  0  0  0  0  0  0  0
  148.1727  135.1188  154.9037 C   0  0  1  0  0  0  0  0  0  0  0  0
  148.9083  136.2302  154.4340 O   0  0  0  0  0  0  0  0  0  0  0  0
  146.7188  135.2316  154.3924 C   0  0  0  0  0  0  0  0  0  0  0  0
  146.6188  135.1085  152.9153 N   0  3  2  0  0  0  0  0  0  0  0  0
  145.4665  135.8466  152.3348 C   0  0  0  0  0  0  0  0  0  0  0  0
  145.4420  135.7340  150.7961 C   0  0  0  0  0  0  0  0  0  0  0  0
  145.4849  134.3221  150.3315 N   0  3  2  0  0  0  0  0  0  0  0  0
  144.1950  133.5884  150.4454 C   0  0  0  0  0  0  0  0  0  0  0  0
  144.1396  132.3533  149.5253 C   0  0  2  0  0  0  0  0  0  0  0  0
  143.7554  132.7213  148.0864 C   0  0  0  0  0  0  0  0  0  0  0  0
  143.1742  131.4495  150.0231 O   0  0  0  0  0  0  0  0  0  0  0  0
  146.6346  133.5990  150.9300 C   0  0  0  0  0  0  0  0  0  0  0  0
  146.6319  133.6937  152.4673 C   0  0  0  0  0  0  0  0  0  0  0  0
  150.4457  132.1106  155.4968 C   0  0  0  0  0  0  0  0  0  0  0  0
  150.2777  130.9088  154.7859 C   0  0  0  0  0  0  0  0  0  0  0  0
  151.0075  129.7645  155.1703 C   0  0  0  0  0  0  0  0  0  0  0  0
  150.8233  128.4724  154.3942 C   0  0  0  0  0  0  0  0  0  0  0  0
  153.3466  128.8465  157.5499 H   0  0  0  0  0  0  0  0  0  0  0  0
  153.3284  128.2612  155.8875 H   0  0  0  0  0  0  0  0  0  0  0  0
  152.0303  127.8100  157.0029 H   0  0  0  0  0  0  0  0  0  0  0  0
  152.7438  131.1026  157.8111 H   0  0  0  0  0  0  0  0  0  0  0  0
  150.2179  135.1424  156.5203 H   0  0  0  0  0  0  0  0  0  0  0  0
  149.3993  134.0221  153.4799 H   0  0  0  0  0  0  0  0  0  0  0  0
  148.1798  133.0380  154.2553 H   0  0  0  0  0  0  0  0  0  0  0  0
  148.1940  135.1398  155.9928 H   0  0  0  0  0  0  0  0  0  0  0  0
  149.1327  136.0852  153.5268 H   0  0  0  0  0  0  0  0  0  0  0  0
  146.1266  134.4489  154.8693 H   0  0  0  0  0  0  0  0  0  0  0  0
  146.2672  136.1776  154.6928 H   0  0  0  0  0  0  0  0  0  0  0  0
  144.5370  135.4659  152.7600 H   0  0  0  0  0  0  0  0  0  0  0  0
  145.5185  136.9001  152.6061 H   0  0  0  0  0  0  0  0  0  0  0  0
  144.5733  136.2527  150.3926 H   0  0  0  0  0  0  0  0  0  0  0  0
  146.3130  136.2483  150.3875 H   0  0  0  0  0  0  0  0  0  0  0  0
  144.0504  133.2555  151.4746 H   0  0  0  0  0  0  0  0  0  0  0  0
  143.3634  134.2593  150.2298 H   0  0  0  0  0  0  0  0  0  0  0  0
  145.1031  131.8451  149.5038 H   0  0  0  0  0  0  0  0  0  0  0  0
  144.4861  133.4021  147.6486 H   0  0  0  0  0  0  0  0  0  0  0  0
  142.7808  133.2090  148.0448 H   0  0  0  0  0  0  0  0  0  0  0  0
  143.7118  131.8355  147.4516 H   0  0  0  0  0  0  0  0  0  0  0  0
  142.3124  131.7773  149.8140 H   0  0  0  0  0  0  0  0  0  0  0  0
  146.6410  132.5573  150.6073 H   0  0  0  0  0  0  0  0  0  0  0  0
  147.5544  134.0394  150.5427 H   0  0  0  0  0  0  0  0  0  0  0  0
  147.5201  133.1945  152.8564 H   0  0  0  0  0  0  0  0  0  0  0  0
  145.7689  133.1697  152.8812 H   0  0  0  0  0  0  0  0  0  0  0  0
  149.5947  130.8672  153.9506 H   0  0  0  0  0  0  0  0  0  0  0  0
  150.0801  128.5845  153.6042 H   0  0  0  0  0  0  0  0  0  0  0  0
  150.4904  127.6719  155.0552 H   0  0  0  0  0  0  0  0  0  0  0  0
  151.7621  128.1704  153.9295 H   0  0  0  0  0  0  0  0  0  0  0  0
  145.6705  134.3528  149.3380 H   0  0  0  0  0  0  0  0  0  0  0  0
  147.4587  135.5300  152.5432 H   0  0  0  0  0  0  0  0  0  0  0  0
  1  2  1  0  0  0  0
  1 26  1  0  0  0  0
  1 27  1  0  0  0  0
  1 28  1  0  0  0  0
  2 24  1  0  0  0  0
  2  3  2  0  0  0  0
  3  4  1  0  0  0  0
  3 29  1  0  0  0  0
  4 22  2  0  0  0  0
  4  5  1  0  0  0  0
  5  6  2  0  0  0  0
  6  7  1  0  0  0  0
  6 30  1  0  0  0  0
  7  8  1  0  0  0  0
  7 22  1  0  0  0  0
  8  9  1  0  0  0  0
  8 31  1  0  0  0  0
  8 32  1  0  0  0  0
  9 10  1  0  0  0  0
  9 11  1  0  0  0  0
  9 33  1  0  0  0  0
 10 34  1  0  0  0  0
 11 12  1  0  0  0  0
 11 35  1  0  0  0  0
 11 36  1  0  0  0  0
 12 21  1  0  0  0  0
 12 13  1  0  0  0  0
 12 57  1  0  0  0  0
 13 14  1  0  0  0  0
 13 37  1  0  0  0  0
 13 38  1  0  0  0  0
 14 15  1  0  0  0  0
 14 39  1  0  0  0  0
 14 40  1  0  0  0  0
 15 16  1  0  0  0  0
 15 20  1  0  0  0  0
 15 56  1  0  0  0  0
 16 17  1  0  0  0  0
 16 41  1  0  0  0  0
 16 42  1  0  0  0  0
 17 18  1  0  0  0  0
 17 19  1  0  0  0  0
 17 43  1  0  0  0  0
 18 44  1  0  0  0  0
 18 45  1  0  0  0  0
 18 46  1  0  0  0  0
 19 47  1  0  0  0  0
 20 21  1  0  0  0  0
 20 48  1  0  0  0  0
 20 49  1  0  0  0  0
 21 50  1  0  0  0  0
 21 51  1  0  0  0  0
 22 23  1  0  0  0  0
 23 24  2  0  0  0  0
 23 52  1  0  0  0  0
 24 25  1  0  0  0  0
 25 53  1  0  0  0  0
 25 54  1  0  0  0  0
 25 55  1  0  0  0  0
M  CHG  1  12   1
M  CHG  1  15   1
M  END
> <s_m_source_file>
AV-unprocessed.smi

> <i_m_source_file_index>
1033

> <i_lp_mmshare_version>
43012

> <i_f3d_flags>
0

> <s_epik_input>
W0NIM11jKFtjSF0xKWMoW0NIM10pW2NIXWMoYzEyKW4oW2NIXW4yKVtDSDJdW0NASF0oW09IXSlbQ0gyXU4zW0NIMl1bQ0gyXU4oW0NIMl1bQ0gyXTMpW0NIMl1bQ0BIXShbQ0gzXSlbT0hd

> <s_epik_cmdline>
J2VwaWtfcHl0aG9uJywgJy1waCcsICc3LjAnLCAnLXRuJywgJzgnLCAnLW1hJywgJzIwMCcsICctbWV0YWxfYmluZGluZycsICctaW1hZScsICc8aW5maWxlLm1hZT4nLCAnLW9tYWUnLCAnPG91dGZpbGUubWFlPic=

> <r_epik_Ionization_Penalty>
3.16016

> <r_epik_Ionization_Penalty_Charging>
3.07679

> <r_epik_Ionization_Penalty_Neutral>
0.083365

> <r_epik_State_Penalty>
2.09701

> <r_epik_Charging_Adjusted_Penalty>
5.1738

> <i_epik_Tot_Q>
2

> <i_epik_Tot_abs_Q>
2

> <r_epik_Metal_State_Penalty>
2.02534

> <b_epik_Metal_Only>
0

> <s_lp_Force_Field>
OPLS_2005

> <r_lp_Energy>
29.7714

> <b_lp_Chiralities_Consistent>
1

> <s_lp_Variant>
AV-unprocessed.smi:1033-22

> <Gold.Version>
5.8.1

> <Gold.Id.Protein>
6NUR|6NUR_protein|mol2

> <Gold.PLP.Fitness>
58.4244

> <Gold.PLP.PLP>
-43.2119

> <Gold.PLP.part.hbond>
-6.0000

> <Gold.PLP.part.metal>
0.0000

> <Gold.PLP.part.buried>
-3.7248

> <Gold.PLP.part.nonpolar>
-34.8736

> <Gold.PLP.part.repulsive>
0.0729

> <Gold.PLP.ligand.clash>
0.0000

> <Gold.PLP.ligand.torsion>
1.3126

> <Gold.PLP.Chemscore.Hbond>
5.8688

> <Gold.PLP.Chemscore.CHOScore>
0.0000

> <Gold.PLP.Chemscore.Metal>
0.0000

> <Gold.Chemscore.Hbonds>
donor molecule, donor type, donor heavy atom, donor atom, acceptor molecule, acceptor atom, score
      L1  H    10    34       P1  7948  1.00
      L1  H    12    57       P1  7948  2.00
      L1  H    15    56       P1  7921  1.00
      L1  H    19    47       P1 10952  0.30
      P1  H  6896  6907       L1     5  0.61
      P1  H 10785 10796       L1    19  0.80

> <Gold.PLP.Chemscore.Internal.Correction>
0.2311

> <Gold.Rescore>
     Score         DG    S(hbond)    S(metal)    S(lipo)     H(rot)  DE(clash)    DE(int)     intcor
     22.28     -24.81       4.73        0.00      98.90       3.14       0.01       2.52       ----

> <Gold.Chemscore.Fitness>
22.2824

> <Gold.Chemscore.DG>
-24.8075

> <Gold.Chemscore.ZeroCoef>
-5.4800

> <Gold.Chemscore.Hbond>
4.7275

> <Gold.Chemscore.Metal>
0.0000

> <Gold.Chemscore.Lipo>
98.8977

> <Gold.Chemscore.Internal_Hbond>
0.0000

> <Gold.Chemscore.DEClash>
0.0072

> <Gold.Chemscore.DEInternal>
2.5179

> <Gold.Chemscore.Rot>
3.1380

> <Gold.Chemscore.Internal.Correction>
   9.000000E+99

> <Gold.Chemscore.Hbonds>
donor molecule, donor type, donor heavy atom, donor atom, acceptor molecule, acceptor atom, score
      L1  H    10    34       P1  7948  0.89
      L1  H    12    57       P1  7948  1.00
      L1  H    15    56       P1  7921  0.82
      L1  H    19    47       P1 10952  0.29
      P1  H  6896  6907       L1     5  0.48
      P1  H 10785 10796       L1    19  0.04

> <Gold.Chemscore.Hbond.Weighted>
-15.7897

> <Gold.Chemscore.Metal.Weighted>
-0.0000

> <Gold.Chemscore.Lipo.Weighted>
-11.5710

> <Gold.Chemscore.Internal_Hbond.Weighted>
0.0000

> <Gold.Chemscore.DEClash.Weighted>
0.0072

> <Gold.Chemscore.DEInternal.Weighted>
2.5179

> <Gold.Chemscore.Rot.Weighted>
8.0332

> <Gold.Chemscore.Internal.Correction.Weighted>
   9.000000E+99

> <Gold.Protein.RotatedTorsions>
[ 6907 6896 6895 6894 ] final -154.71 input  -60.11 | X-H torsion
[ 7974 7965 7964 7962 ] final   86.92 input  175.53 | X-H torsion
[ 8008 7997 7996 7995 ] final   23.86 input   59.86 | X-H torsion
[ 10167 10162 10161 10158 ] final  134.30 input  -65.29 | X-H torsion
[ 10718 10713 10712 10709 ] final -177.33 input   66.30 | X-H torsion
[ 10763 10752 10751 10750 ] final -117.29 input  -60.55 | X-H torsion
[ 11005 11000 10999 10996 ] final  -70.61 input  -57.11 | X-H torsion

> <Gold.Protein.ActiveResidues>
 VAL166  LYS551  ARG553  GLY616  TRP617  ASP618  TYR619  PRO620  LYS621  CYS622 
 ASP623  PHE694  ASN695  SER759  ASP760  ASP761  ALA762  ILE779  LEU786  VAL792 
 PHE793  MET794  SER795  GLU796  ALA797  LYS798  CYS799  TRP800  GLU811  SER814 

> <Gold.Protein.RotatedAtoms>
  151.2616  133.4299  159.2616 H   0  0  0  0  0  0  0  0  0  0  0  0  # atno 6907 bound_to 6896
  151.0525  134.9683  159.8229 H   0  0  0  0  0  0  0  0  0  0  0  0  # atno 6908 bound_to 6896
  152.5385  134.2570  159.8973 H   0  0  0  0  0  0  0  0  0  0  0  0  # atno 6909 bound_to 6896
  145.5658  139.2308  143.2434 H   0  0  0  0  0  0  0  0  0  0  0  0  # atno 7974 bound_to 7965
  154.9873  140.3109  155.4921 H   0  0  0  0  0  0  0  0  0  0  0  0  # atno 8008 bound_to 7997
  156.2945  140.2255  156.4916 H   0  0  0  0  0  0  0  0  0  0  0  0  # atno 8009 bound_to 7997
  154.7735  140.0451  157.1058 H   0  0  0  0  0  0  0  0  0  0  0  0  # atno 8010 bound_to 7997
  139.5262  144.6574  151.5120 H   0  0  0  0  0  0  0  0  0  0  0  0  # atno 10167 bound_to 10162
  156.8279  130.9643  151.3108 H   0  0  0  0  0  0  0  0  0  0  0  0  # atno 10718 bound_to 10713
  154.8549  135.4315  154.1956 H   0  0  0  0  0  0  0  0  0  0  0  0  # atno 10763 bound_to 10752
  153.3014  135.6969  153.7205 H   0  0  0  0  0  0  0  0  0  0  0  0  # atno 10764 bound_to 10752
  153.6334  135.3481  155.3023 H   0  0  0  0  0  0  0  0  0  0  0  0  # atno 10765 bound_to 10752
  141.1577  133.6795  156.6779 H   0  0  0  0  0  0  0  0  0  0  0  0  # atno 11005 bound_to 11000
  146.1819  140.6484  142.9185 LP  0  0  0  0  0  0  0  0  0  0  0  0  # atno 17320 bound_to 7965
  144.7461  140.5071  143.6835 LP  0  0  0  0  0  0  0  0  0  0  0  0  # atno 17321 bound_to 7965
  140.6406  143.8897  150.6688 LP  0  0  0  0  0  0  0  0  0  0  0  0  # atno 17342 bound_to 10162
  140.2230  143.3794  152.1627 LP  0  0  0  0  0  0  0  0  0  0  0  0  # atno 17343 bound_to 10162
  157.6422  130.8815  149.9470 LP  0  0  0  0  0  0  0  0  0  0  0  0  # atno 17370 bound_to 10713
  156.0951  130.3660  150.0322 LP  0  0  0  0  0  0  0  0  0  0  0  0  # atno 17371 bound_to 10713
  140.3124  134.8075  157.4187 LP  0  0  0  0  0  0  0  0  0  0  0  0  # atno 17394 bound_to 11000
  140.1167  134.5274  155.8219 LP  0  0  0  0  0  0  0  0  0  0  0  0  # atno 17395 bound_to 11000

$$$$
