AV-unprocessed.smi:1465|AV-procd|sdf|5952|dock7
  -GOLD-   22720 6 33D 1   1.00000     0.00000
 Structure written by MMmdl.
 54 55  0  0  0  0  0  0  0  0  2 V2000
  151.7862  145.1778  159.7123 C   0  0  0  0  0  0  0  0  0  0  0  0
  151.7064  143.7750  159.8970 O   0  0  0  0  0  0  0  0  0  0  0  0
  151.9175  143.0578  158.6928 C   0  0  0  0  0  0  0  0  0  0  0  0
  151.7025  141.5607  158.9594 C   0  0  0  0  0  0  0  0  0  0  0  0
  151.6055  140.8041  157.7043 N   0  0  0  0  0  0  0  0  0  0  0  0
  150.5795  141.1765  156.8146 C   0  0  0  0  0  0  0  0  0  0  0  0
  150.3801  140.5490  155.6391 C   0  0  0  0  0  0  0  0  0  0  0  0
  149.2845  140.9780  154.7669 C   0  0  0  0  0  0  0  0  0  0  0  0
  149.4343  141.4715  153.6484 O   0  0  0  0  0  0  0  0  0  0  0  0
  148.0648  140.7875  155.2988 N   0  0  0  0  0  0  0  0  0  0  0  0
  146.7933  141.1388  154.6677 C   0  0  2  0  0  0  0  0  0  0  0  0
  145.6310  140.4123  155.3652 C   0  0  0  0  0  0  0  0  0  0  0  0
  145.6265  138.9027  155.0621 C   0  0  0  0  0  0  0  0  0  0  0  0
  145.6011  138.6468  153.5970 N   0  3  2  0  0  0  0  0  0  0  0  0
  145.4691  137.2072  153.2515 C   0  0  0  0  0  0  0  0  0  0  0  0
  144.1591  136.8774  152.5025 C   0  0  0  0  0  0  0  0  0  0  0  0
  142.9427  137.3548  153.3096 C   0  0  0  0  0  0  0  0  0  0  0  0
  144.0389  135.3765  152.1885 C   0  0  0  0  0  0  0  0  0  0  0  0
  146.7565  139.2831  152.9135 C   0  0  0  0  0  0  0  0  0  0  0  0
  146.7858  140.8013  153.1640 C   0  0  0  0  0  0  0  0  0  0  0  0
  151.2808  139.4546  155.3068 C   0  0  0  0  0  0  0  0  0  0  0  0
  152.2583  139.0891  156.1593 C   0  0  0  0  0  0  0  0  0  0  0  0
  152.4583  139.7688  157.4427 C   0  0  0  0  0  0  0  0  0  0  0  0
  153.3371  139.4251  158.2335 O   0  0  0  0  0  0  0  0  0  0  0  0
  151.6165  145.6830  160.6632 H   0  0  0  0  0  0  0  0  0  0  0  0
  151.0312  145.5263  159.0060 H   0  0  0  0  0  0  0  0  0  0  0  0
  152.7709  145.4723  159.3459 H   0  0  0  0  0  0  0  0  0  0  0  0
  151.2268  143.4093  157.9245 H   0  0  0  0  0  0  0  0  0  0  0  0
  152.9317  143.2320  158.3295 H   0  0  0  0  0  0  0  0  0  0  0  0
  152.5249  141.1760  159.5647 H   0  0  0  0  0  0  0  0  0  0  0  0
  150.8103  141.4153  159.5711 H   0  0  0  0  0  0  0  0  0  0  0  0
  149.9661  141.9957  157.1635 H   0  0  0  0  0  0  0  0  0  0  0  0
  148.0185  140.3849  156.2234 H   0  0  0  0  0  0  0  0  0  0  0  0
  146.6421  142.2130  154.7895 H   0  0  0  0  0  0  0  0  0  0  0  0
  145.6730  140.5785  156.4425 H   0  0  0  0  0  0  0  0  0  0  0  0
  144.6868  140.8440  155.0298 H   0  0  0  0  0  0  0  0  0  0  0  0
  146.5048  138.4263  155.5006 H   0  0  0  0  0  0  0  0  0  0  0  0
  144.7573  138.4554  155.5418 H   0  0  0  0  0  0  0  0  0  0  0  0
  146.3048  136.9071  152.6174 H   0  0  0  0  0  0  0  0  0  0  0  0
  145.5528  136.6119  154.1621 H   0  0  0  0  0  0  0  0  0  0  0  0
  144.1378  137.4199  151.5581 H   0  0  0  0  0  0  0  0  0  0  0  0
  142.8801  136.8474  154.2729 H   0  0  0  0  0  0  0  0  0  0  0  0
  142.0137  137.1620  152.7720 H   0  0  0  0  0  0  0  0  0  0  0  0
  142.9927  138.4272  153.5008 H   0  0  0  0  0  0  0  0  0  0  0  0
  144.0558  134.7775  153.0998 H   0  0  0  0  0  0  0  0  0  0  0  0
  144.8529  135.0344  151.5491 H   0  0  0  0  0  0  0  0  0  0  0  0
  143.1061  135.1591  151.6672 H   0  0  0  0  0  0  0  0  0  0  0  0
  147.6847  138.8224  153.2554 H   0  0  0  0  0  0  0  0  0  0  0  0
  146.6925  139.1046  151.8395 H   0  0  0  0  0  0  0  0  0  0  0  0
  145.9065  141.2529  152.7027 H   0  0  0  0  0  0  0  0  0  0  0  0
  147.6471  141.2460  152.6644 H   0  0  0  0  0  0  0  0  0  0  0  0
  151.1902  138.9137  154.3765 H   0  0  0  0  0  0  0  0  0  0  0  0
  152.9144  138.2739  155.8918 H   0  0  0  0  0  0  0  0  0  0  0  0
  144.7759  139.1011  153.2322 H   0  0  0  0  0  0  0  0  0  0  0  0
  1  2  1  0  0  0  0
  1 25  1  0  0  0  0
  1 26  1  0  0  0  0
  1 27  1  0  0  0  0
  2  3  1  0  0  0  0
  3  4  1  0  0  0  0
  3 28  1  0  0  0  0
  3 29  1  0  0  0  0
  4  5  1  0  0  0  0
  4 30  1  0  0  0  0
  4 31  1  0  0  0  0
  5 23  1  0  0  0  0
  5  6  1  0  0  0  0
  6  7  2  0  0  0  0
  6 32  1  0  0  0  0
  7  8  1  0  0  0  0
  7 21  1  0  0  0  0
  8  9  2  0  0  0  0
  8 10  1  0  0  0  0
 10 11  1  0  0  0  0
 10 33  1  0  0  0  0
 11 20  1  0  0  0  0
 11 12  1  0  0  0  0
 11 34  1  0  0  0  0
 12 13  1  0  0  0  0
 12 35  1  0  0  0  0
 12 36  1  0  0  0  0
 13 14  1  0  0  0  0
 13 37  1  0  0  0  0
 13 38  1  0  0  0  0
 14 15  1  0  0  0  0
 14 19  1  0  0  0  0
 14 54  1  0  0  0  0
 15 16  1  0  0  0  0
 15 39  1  0  0  0  0
 15 40  1  0  0  0  0
 16 17  1  0  0  0  0
 16 18  1  0  0  0  0
 16 41  1  0  0  0  0
 17 42  1  0  0  0  0
 17 43  1  0  0  0  0
 17 44  1  0  0  0  0
 18 45  1  0  0  0  0
 18 46  1  0  0  0  0
 18 47  1  0  0  0  0
 19 20  1  0  0  0  0
 19 48  1  0  0  0  0
 19 49  1  0  0  0  0
 20 50  1  0  0  0  0
 20 51  1  0  0  0  0
 21 22  2  0  0  0  0
 21 52  1  0  0  0  0
 22 23  1  0  0  0  0
 22 53  1  0  0  0  0
 23 24  2  0  0  0  0
M  CHG  1  14   1
M  END
> <s_m_source_file>
AV-unprocessed.smi

> <i_m_source_file_index>
1465

> <i_lp_mmshare_version>
43012

> <i_f3d_flags>
0

> <s_epik_input>
W0NIM11PW0NIMl1bQ0gyXW4xW2NIXWMoW2NIXVtjSF1jMT1PKUMoPU8pW05IXVtDSF0yW0NIMl1bQ0gyXU4oW0NIMl1bQ0gyXTIpW0NIMl1bQ0hdKFtDSDNdKVtDSDNd

> <s_epik_cmdline>
J2VwaWtfcHl0aG9uJywgJy1waCcsICc3LjAnLCAnLXRuJywgJzgnLCAnLW1hJywgJzIwMCcsICctbWV0YWxfYmluZGluZycsICctaW1hZScsICc8aW5maWxlLm1hZT4nLCAnLW9tYWUnLCAnPG91dGZpbGUubWFlPic=

> <r_lp_tautomer_probability>
1

> <r_epik_Ionization_Penalty>
0.00386091

> <r_epik_Ionization_Penalty_Charging>
0.0038603

> <r_epik_Ionization_Penalty_Neutral>
6.13806e-07

> <r_epik_State_Penalty>
0.00275716

> <r_epik_Charging_Adjusted_Penalty>
0.00661746

> <i_epik_Tot_Q>
1

> <i_epik_Tot_abs_Q>
1

> <r_epik_Metal_State_Penalty>
-0

> <b_epik_Metal_Only>
0

> <s_lp_Force_Field>
OPLS_2005

> <r_lp_Energy>
34.4783

> <b_lp_Chiralities_Consistent>
1

> <s_lp_Variant>
AV-unprocessed.smi:1465-2

> <Gold.Version>
5.8.1

> <Gold.Id.Protein>
6NUR|6NUR_protein|mol2

> <Gold.PLP.Fitness>
47.2104

> <Gold.PLP.PLP>
-39.9253

> <Gold.PLP.part.hbond>
-3.9149

> <Gold.PLP.part.metal>
0.0000

> <Gold.PLP.part.buried>
-2.0292

> <Gold.PLP.part.nonpolar>
-36.7179

> <Gold.PLP.part.repulsive>
2.5960

> <Gold.PLP.ligand.clash>
0.0000

> <Gold.PLP.ligand.torsion>
2.2675

> <Gold.PLP.Chemscore.Hbond>
3.8940

> <Gold.PLP.Chemscore.CHOScore>
0.0000

> <Gold.PLP.Chemscore.Metal>
0.0000

> <Gold.Chemscore.Hbonds>
donor molecule, donor type, donor heavy atom, donor atom, acceptor molecule, acceptor atom, score
      L1  H    14    54       P1 10175  2.00
      P1  H  7989  7998       L1     9  0.05
      P1  H  7997  8008       L1    24  0.94
      P1  H  8011  8017       L1     9  0.82

> <Gold.PLP.Chemscore.Internal.Correction>
0.1382

> <Gold.Rescore>
     Score         DG    S(hbond)    S(metal)    S(lipo)     H(rot)  DE(clash)    DE(int)     intcor
     14.37     -19.94       2.20        0.00      99.72       1.78       1.89       3.68       ----

> <Gold.Chemscore.Fitness>
14.3670

> <Gold.Chemscore.DG>
-19.9357

> <Gold.Chemscore.ZeroCoef>
-5.4800

> <Gold.Chemscore.Hbond>
2.1967

> <Gold.Chemscore.Metal>
0.0000

> <Gold.Chemscore.Lipo>
99.7237

> <Gold.Chemscore.Internal_Hbond>
0.0000

> <Gold.Chemscore.DEClash>
1.8888

> <Gold.Chemscore.DEInternal>
3.6799

> <Gold.Chemscore.Rot>
1.7769

> <Gold.Chemscore.Internal.Correction>
   9.000000E+99

> <Gold.Chemscore.Hbonds>
donor molecule, donor type, donor heavy atom, donor atom, acceptor molecule, acceptor atom, score
      L1  H    14    54       P1 10175  0.99
      P1  H  7989  7998       L1     9  0.01
      P1  H  7997  8008       L1    24  0.20
      P1  H  8011  8017       L1     9  0.81

> <Gold.Chemscore.Hbond.Weighted>
-7.3370

> <Gold.Chemscore.Metal.Weighted>
-0.0000

> <Gold.Chemscore.Lipo.Weighted>
-11.6677

> <Gold.Chemscore.Internal_Hbond.Weighted>
0.0000

> <Gold.Chemscore.DEClash.Weighted>
1.8888

> <Gold.Chemscore.DEInternal.Weighted>
3.6799

> <Gold.Chemscore.Rot.Weighted>
4.5490

> <Gold.Chemscore.Internal.Correction.Weighted>
   9.000000E+99

> <Gold.Protein.RotatedTorsions>
[ 6907 6896 6895 6894 ] final    5.67 input  -60.11 | X-H torsion
[ 7974 7965 7964 7962 ] final  -89.13 input  175.53 | X-H torsion
[ 8008 7997 7996 7995 ] final -108.15 input   59.86 | X-H torsion
[ 10167 10162 10161 10158 ] final  107.70 input  -65.29 | X-H torsion
[ 10718 10713 10712 10709 ] final  -66.79 input   66.30 | X-H torsion
[ 10763 10752 10751 10750 ] final -168.40 input  -60.55 | X-H torsion
[ 11005 11000 10999 10996 ] final -156.33 input  -57.11 | X-H torsion

> <Gold.Protein.ActiveResidues>
 VAL166  LYS551  ARG553  GLY616  TRP617  ASP618  TYR619  PRO620  LYS621  CYS622 
 ASP623  PHE694  ASN695  SER759  ASP760  ASP761  ALA762  ILE779  LEU786  VAL792 
 PHE793  MET794  SER795  GLU796  ALA797  LYS798  CYS799  TRP800  GLU811  SER814 

> <Gold.Protein.RotatedAtoms>
  151.6613  135.0989  160.0179 H   0  0  0  0  0  0  0  0  0  0  0  0  # atno 6907 bound_to 6896
  152.3945  133.6722  159.6273 H   0  0  0  0  0  0  0  0  0  0  0  0  # atno 6908 bound_to 6896
  150.7854  133.8814  159.3328 H   0  0  0  0  0  0  0  0  0  0  0  0  # atno 6909 bound_to 6896
  145.4439  140.9559  143.2060 H   0  0  0  0  0  0  0  0  0  0  0  0  # atno 7974 bound_to 7965
  154.9400  140.0403  157.2091 H   0  0  0  0  0  0  0  0  0  0  0  0  # atno 8008 bound_to 7997
  154.8078  140.2863  155.5853 H   0  0  0  0  0  0  0  0  0  0  0  0  # atno 8009 bound_to 7997
  156.2968  140.2542  156.2960 H   0  0  0  0  0  0  0  0  0  0  0  0  # atno 8010 bound_to 7997
  139.6906  144.7108  151.1355 H   0  0  0  0  0  0  0  0  0  0  0  0  # atno 10167 bound_to 10162
  156.0593  130.4267  150.1760 H   0  0  0  0  0  0  0  0  0  0  0  0  # atno 10718 bound_to 10713
  154.6632  135.2928  154.9839 H   0  0  0  0  0  0  0  0  0  0  0  0  # atno 10763 bound_to 10752
  154.0892  135.6593  153.4853 H   0  0  0  0  0  0  0  0  0  0  0  0  # atno 10764 bound_to 10752
  153.0442  135.5216  154.7593 H   0  0  0  0  0  0  0  0  0  0  0  0  # atno 10765 bound_to 10752
  140.6767  134.4188  157.5229 H   0  0  0  0  0  0  0  0  0  0  0  0  # atno 11005 bound_to 11000
  144.8104  139.5972  143.7032 LP  0  0  0  0  0  0  0  0  0  0  0  0  # atno 17320 bound_to 7965
  146.2541  139.6264  142.9407 LP  0  0  0  0  0  0  0  0  0  0  0  0  # atno 17321 bound_to 7965
  140.7681  143.5565  150.9146 LP  0  0  0  0  0  0  0  0  0  0  0  0  # atno 17342 bound_to 10162
  139.9242  143.6569  152.3090 LP  0  0  0  0  0  0  0  0  0  0  0  0  # atno 17343 bound_to 10162
  156.9831  130.9870  151.3432 LP  0  0  0  0  0  0  0  0  0  0  0  0  # atno 17370 bound_to 10713
  157.5588  130.8232  149.8239 LP  0  0  0  0  0  0  0  0  0  0  0  0  # atno 17371 bound_to 10713
  139.8964  134.8660  156.2088 LP  0  0  0  0  0  0  0  0  0  0  0  0  # atno 17394 bound_to 11000
  141.0349  133.6968  156.1495 LP  0  0  0  0  0  0  0  0  0  0  0  0  # atno 17395 bound_to 11000

$$$$
