AV-unprocessed.smi:3335|AV-procd|sdf|12850|dock6
  -GOLD-   2272019243D 1   1.00000     0.00000
 Structure written by MMmdl.
 46 47  0  0  0  0  0  0  0  0  1 V2000
  152.6038  143.7707  159.3709 C   0  0  0  0  0  0  0  0  0  0  0  0
  151.8435  142.7195  158.6152 C   0  0  0  0  0  0  0  0  0  0  0  0
  151.1649  142.8542  157.3715 C   0  0  0  0  0  0  0  0  0  0  0  0
  150.5981  141.7285  156.9719 N   0  0  0  0  0  0  0  0  0  0  0  0
  150.8824  140.8347  157.9464 N   0  0  0  0  0  0  0  0  0  0  0  0
  150.4425  139.4448  157.8390 C   0  0  1  0  0  0  0  0  0  0  0  0
  150.6832  138.8614  156.4324 C   0  0  0  0  0  0  0  0  0  0  0  0
  150.9870  138.5417  158.9797 C   0  0  2  0  0  0  0  0  0  0  0  0
  152.5289  138.5413  159.0208 C   0  0  0  0  0  0  0  0  0  0  0  0
  150.4366  137.1904  158.8356 N   0  0  0  0  0  0  0  0  0  0  0  0
  148.9969  137.0212  159.1024 C   0  0  1  0  0  0  0  0  0  0  0  0
  148.1976  137.4419  157.8596 C   0  0  0  0  0  0  0  0  0  0  0  0
  148.6309  135.5695  159.4772 C   0  0  0  0  0  0  0  0  0  0  0  0
  148.9897  134.6573  158.7303 O   0  0  0  0  0  0  0  0  0  0  0  0
  147.9392  135.3282  160.6120 N   0  0  0  0  0  0  0  0  0  0  0  0
  147.5922  133.9817  161.0634 C   0  0  0  0  0  0  0  0  0  0  0  0
  147.0569  134.1438  162.4857 C   0  0  0  0  0  0  0  0  0  0  0  0
  146.5291  135.5704  162.5223 C   0  0  0  0  0  0  0  0  0  0  0  0
  147.4350  136.3287  161.5524 C   0  0  0  0  0  0  0  0  0  0  0  0
  151.6410  141.4098  158.9460 C   0  0  0  0  0  0  0  0  0  0  0  0
  152.6437  144.7137  158.8252 H   0  0  0  0  0  0  0  0  0  0  0  0
  153.6330  143.4649  159.5585 H   0  0  0  0  0  0  0  0  0  0  0  0
  152.1473  143.9787  160.3385 H   0  0  0  0  0  0  0  0  0  0  0  0
  151.0718  143.7312  156.7481 H   0  0  0  0  0  0  0  0  0  0  0  0
  149.3582  139.4691  157.9588 H   0  0  0  0  0  0  0  0  0  0  0  0
  150.2577  137.8610  156.3480 H   0  0  0  0  0  0  0  0  0  0  0  0
  151.7445  138.7882  156.1943 H   0  0  0  0  0  0  0  0  0  0  0  0
  150.2154  139.4817  155.6675 H   0  0  0  0  0  0  0  0  0  0  0  0
  150.6240  138.9582  159.9203 H   0  0  0  0  0  0  0  0  0  0  0  0
  152.9193  139.5576  158.9661 H   0  0  0  0  0  0  0  0  0  0  0  0
  152.9570  137.9781  158.1910 H   0  0  0  0  0  0  0  0  0  0  0  0
  152.9077  138.1158  159.9491 H   0  0  0  0  0  0  0  0  0  0  0  0
  151.0035  136.5053  159.3160 H   0  0  0  0  0  0  0  0  0  0  0  0
  148.7280  137.7085  159.9030 H   0  0  0  0  0  0  0  0  0  0  0  0
  147.1238  137.3555  158.0304 H   0  0  0  0  0  0  0  0  0  0  0  0
  148.4471  136.8276  156.9931 H   0  0  0  0  0  0  0  0  0  0  0  0
  148.4024  138.4803  157.5974 H   0  0  0  0  0  0  0  0  0  0  0  0
  146.8217  133.5744  160.4072 H   0  0  0  0  0  0  0  0  0  0  0  0
  148.4498  133.3074  161.0397 H   0  0  0  0  0  0  0  0  0  0  0  0
  146.2972  133.4038  162.7386 H   0  0  0  0  0  0  0  0  0  0  0  0
  147.8760  134.0399  163.1985 H   0  0  0  0  0  0  0  0  0  0  0  0
  145.5026  135.5884  162.1540 H   0  0  0  0  0  0  0  0  0  0  0  0
  146.5317  135.9973  163.5255 H   0  0  0  0  0  0  0  0  0  0  0  0
  148.2765  136.7714  162.0874 H   0  0  0  0  0  0  0  0  0  0  0  0
  146.8869  137.1274  161.0508 H   0  0  0  0  0  0  0  0  0  0  0  0
  151.9760  140.8418  159.8013 H   0  0  0  0  0  0  0  0  0  0  0  0
  1  2  1  0  0  0  0
  1 21  1  0  0  0  0
  1 22  1  0  0  0  0
  1 23  1  0  0  0  0
  2 20  2  0  0  0  0
  2  3  1  0  0  0  0
  3  4  2  0  0  0  0
  3 24  1  0  0  0  0
  4  5  1  0  0  0  0
  5  6  1  0  0  0  0
  5 20  1  0  0  0  0
  6  7  1  0  0  0  0
  6  8  1  0  0  0  0
  6 25  1  0  0  0  0
  7 26  1  0  0  0  0
  7 27  1  0  0  0  0
  7 28  1  0  0  0  0
  8  9  1  0  0  0  0
  8 10  1  0  0  0  0
  8 29  1  0  0  0  0
  9 30  1  0  0  0  0
  9 31  1  0  0  0  0
  9 32  1  0  0  0  0
 10 11  1  0  0  0  0
 10 33  1  0  0  0  0
 11 12  1  0  0  0  0
 11 13  1  0  0  0  0
 11 34  1  0  0  0  0
 12 35  1  0  0  0  0
 12 36  1  0  0  0  0
 12 37  1  0  0  0  0
 13 14  2  0  0  0  0
 13 15  1  0  0  0  0
 15 19  1  0  0  0  0
 15 16  1  0  0  0  0
 16 17  1  0  0  0  0
 16 38  1  0  0  0  0
 16 39  1  0  0  0  0
 17 18  1  0  0  0  0
 17 40  1  0  0  0  0
 17 41  1  0  0  0  0
 18 19  1  0  0  0  0
 18 42  1  0  0  0  0
 18 43  1  0  0  0  0
 19 44  1  0  0  0  0
 19 45  1  0  0  0  0
 20 46  1  0  0  0  0
M  END
> <s_m_source_file>
AV-unprocessed.smi

> <i_m_source_file_index>
3335

> <i_lp_mmshare_version>
43012

> <i_f3d_flags>
0

> <s_epik_input>
W0NIM11jMVtjSF1ubihbY0hdMSlbQ0BIXShbQ0gzXSlbQ0BIXShbQ0gzXSlbTkhdW0NASF0oW0NIM10pQyg9TylOMltDSDJdW0NIMl1bQ0gyXVtDSDJdMg==

> <s_epik_cmdline>
J2VwaWtfcHl0aG9uJywgJy1waCcsICc3LjAnLCAnLXRuJywgJzgnLCAnLW1hJywgJzIwMCcsICctbWV0YWxfYmluZGluZycsICctaW1hZScsICc8aW5maWxlLm1hZT4nLCAnLW9tYWUnLCAnPG91dGZpbGUubWFlPic=

> <r_lp_tautomer_probability>
1

> <r_epik_Ionization_Penalty>
0.918803

> <r_epik_Ionization_Penalty_Charging>
0

> <r_epik_Ionization_Penalty_Neutral>
0.918803

> <r_epik_State_Penalty>
0.958258

> <r_epik_Charging_Adjusted_Penalty>
0.958258

> <i_epik_Tot_Q>
0

> <i_epik_Tot_abs_Q>
0

> <r_epik_Metal_State_Penalty>
0.956786

> <b_epik_Metal_Only>
0

> <s_lp_Force_Field>
OPLS_2005

> <r_lp_Energy>
40.2433

> <b_lp_Chiralities_Consistent>
1

> <s_lp_Variant>
AV-unprocessed.smi:3335-14

> <Gold.Version>
5.8.1

> <Gold.Id.Protein>
6NUR|6NUR_protein|mol2

> <Gold.PLP.Fitness>
41.9021

> <Gold.PLP.PLP>
-37.0283

> <Gold.PLP.part.hbond>
-1.0000

> <Gold.PLP.part.metal>
0.0000

> <Gold.PLP.part.buried>
-5.4621

> <Gold.PLP.part.nonpolar>
-31.7769

> <Gold.PLP.part.repulsive>
0.0861

> <Gold.PLP.ligand.clash>
0.0000

> <Gold.PLP.ligand.torsion>
0.6639

> <Gold.PLP.Chemscore.Hbond>
1.0000

> <Gold.PLP.Chemscore.CHOScore>
0.9860

> <Gold.PLP.Chemscore.Metal>
0.0000

> <Gold.Chemscore.Hbonds>
donor molecule, donor type, donor heavy atom, donor atom, acceptor molecule, acceptor atom, score
      P1  H  6896  6907       L1    14  1.00
      L1  C     3    24       P1  8028  0.77

> <Gold.PLP.Chemscore.Internal.Correction>
0.2435

> <Gold.Rescore>
     Score         DG    S(hbond)    S(metal)    S(lipo)     H(rot)  DE(clash)    DE(int)     intcor
     15.31     -16.15       0.95        0.00      99.48       1.62       0.12       0.71       ----

> <Gold.Chemscore.Fitness>
15.3131

> <Gold.Chemscore.DG>
-16.1487

> <Gold.Chemscore.ZeroCoef>
-5.4800

> <Gold.Chemscore.Hbond>
0.9515

> <Gold.Chemscore.Metal>
0.0000

> <Gold.Chemscore.Lipo>
99.4775

> <Gold.Chemscore.Internal_Hbond>
0.0000

> <Gold.Chemscore.DEClash>
0.1211

> <Gold.Chemscore.DEInternal>
0.7145

> <Gold.Chemscore.Rot>
1.6204

> <Gold.Chemscore.Internal.Correction>
   9.000000E+99

> <Gold.Chemscore.Hbonds>
donor molecule, donor type, donor heavy atom, donor atom, acceptor molecule, acceptor atom, score
      P1  H  6896  6907       L1    14  0.45

> <Gold.Chemscore.Hbond.Weighted>
-3.1780

> <Gold.Chemscore.Metal.Weighted>
-0.0000

> <Gold.Chemscore.Lipo.Weighted>
-11.6389

> <Gold.Chemscore.Internal_Hbond.Weighted>
0.0000

> <Gold.Chemscore.DEClash.Weighted>
0.1211

> <Gold.Chemscore.DEInternal.Weighted>
0.7145

> <Gold.Chemscore.Rot.Weighted>
4.1482

> <Gold.Chemscore.Internal.Correction.Weighted>
   9.000000E+99

> <Gold.Protein.RotatedTorsions>
[ 6907 6896 6895 6894 ] final  -97.63 input  -60.11 | X-H torsion
[ 7974 7965 7964 7962 ] final -127.18 input  175.53 | X-H torsion
[ 8008 7997 7996 7995 ] final  -28.94 input   59.86 | X-H torsion
[ 10167 10162 10161 10158 ] final   -9.25 input  -65.29 | X-H torsion
[ 10718 10713 10712 10709 ] final  108.59 input   66.30 | X-H torsion
[ 10763 10752 10751 10750 ] final   -4.49 input  -60.55 | X-H torsion
[ 11005 11000 10999 10996 ] final  128.87 input  -57.11 | X-H torsion

> <Gold.Protein.ActiveResidues>
 VAL166  LYS551  ARG553  GLY616  TRP617  ASP618  TYR619  PRO620  LYS621  CYS622 
 ASP623  PHE694  ASN695  SER759  ASP760  ASP761  ALA762  ILE779  LEU786  VAL792 
 PHE793  MET794  SER795  GLU796  ALA797  LYS798  CYS799  TRP800  GLU811  SER814 

> <Gold.Protein.RotatedAtoms>
  150.7022  134.1318  159.4072 H   0  0  0  0  0  0  0  0  0  0  0  0  # atno 6907 bound_to 6896
  151.9304  135.0256  160.0538 H   0  0  0  0  0  0  0  0  0  0  0  0  # atno 6908 bound_to 6896
  152.2180  133.4926  159.5183 H   0  0  0  0  0  0  0  0  0  0  0  0  # atno 6909 bound_to 6896
  144.9796  140.7627  143.4620 H   0  0  0  0  0  0  0  0  0  0  0  0  # atno 7974 bound_to 7965
  154.4310  140.1831  156.1170 H   0  0  0  0  0  0  0  0  0  0  0  0  # atno 8008 bound_to 7997
  156.0173  140.3344  155.6977 H   0  0  0  0  0  0  0  0  0  0  0  0  # atno 8009 bound_to 7997
  155.6026  140.0642  157.2719 H   0  0  0  0  0  0  0  0  0  0  0  0  # atno 8010 bound_to 7997
  140.7082  143.5878  150.8924 H   0  0  0  0  0  0  0  0  0  0  0  0  # atno 10167 bound_to 10162
  157.6579  131.0897  150.6328 H   0  0  0  0  0  0  0  0  0  0  0  0  # atno 10718 bound_to 10713
  153.3855  135.7000  153.6533 H   0  0  0  0  0  0  0  0  0  0  0  0  # atno 10763 bound_to 10752
  153.5127  135.3628  155.2595 H   0  0  0  0  0  0  0  0  0  0  0  0  # atno 10764 bound_to 10752
  154.8697  135.4139  154.3162 H   0  0  0  0  0  0  0  0  0  0  0  0  # atno 10765 bound_to 10752
  139.9584  134.9608  156.9065 H   0  0  0  0  0  0  0  0  0  0  0  0  # atno 11005 bound_to 11000
  145.2439  139.2060  143.4978 LP  0  0  0  0  0  0  0  0  0  0  0  0  # atno 17320 bound_to 7965
  146.3404  140.2340  142.8594 LP  0  0  0  0  0  0  0  0  0  0  0  0  # atno 17321 bound_to 7965
  139.9604  143.6170  152.3004 LP  0  0  0  0  0  0  0  0  0  0  0  0  # atno 17342 bound_to 10162
  139.6721  144.7660  151.1764 LP  0  0  0  0  0  0  0  0  0  0  0  0  # atno 17343 bound_to 10162
  156.6633  130.4518  149.5681 LP  0  0  0  0  0  0  0  0  0  0  0  0  # atno 17370 bound_to 10713
  156.2051  130.6644  151.1210 LP  0  0  0  0  0  0  0  0  0  0  0  0  # atno 17371 bound_to 10713
  140.5556  134.0585  155.7382 LP  0  0  0  0  0  0  0  0  0  0  0  0  # atno 17394 bound_to 11000
  141.1258  133.9385  157.2637 LP  0  0  0  0  0  0  0  0  0  0  0  0  # atno 17395 bound_to 11000

$$$$
