AV-unprocessed.smi:66|AV-procd|sdf|628|dock7
  -GOLD-   2262016523D 1   1.00000     0.00000
 Structure written by MMmdl.
 27 29  0  0  0  0  0  0  0  0  3 V2000
  151.6609  139.2682  154.5863 O   0  0  0  0  0  0  0  0  0  0  0  0
  151.7162  139.6029  155.7900 C   0  0  0  0  0  0  0  0  0  0  0  0
  152.6750  139.3711  156.5603 O   0  5  0  0  0  0  0  0  0  0  0  0
  150.4958  140.3450  156.3596 C   0  0  1  0  0  0  0  0  0  0  0  0
  150.2631  141.7026  155.6744 C   0  0  0  0  0  0  0  0  0  0  0  0
  149.2117  141.3957  154.6090 C   0  0  2  0  0  0  0  0  0  0  0  0
  148.4617  142.5361  154.2455 O   0  0  0  0  0  0  0  0  0  0  0  0
  148.3515  140.3176  155.2705 C   0  0  0  0  0  0  0  0  0  0  0  0
  149.2586  139.5881  156.1466 N   0  0  0  0  0  0  0  0  0  0  0  0
  148.8186  138.6003  157.0613 C   0  0  0  0  0  0  0  0  0  0  0  0
  147.5415  138.1572  156.9289 N   0  0  0  0  0  0  0  0  0  0  0  0
  147.1002  137.2270  157.7808 C   0  0  0  0  0  0  0  0  0  0  0  0
  147.7864  136.6588  158.7749 N   0  0  0  0  0  0  0  0  0  0  0  0
  149.0569  137.0832  158.9262 C   0  0  0  0  0  0  0  0  0  0  0  0
  150.0015  136.7471  159.7898 N   0  5  0  0  0  0  0  0  0  0  0  0
  151.0986  137.4884  159.4961 C   0  0  0  0  0  0  0  0  0  0  0  0
  150.9204  138.3198  158.4503 N   0  0  0  0  0  0  0  0  0  0  0  0
  149.6261  138.0532  158.0980 C   0  0  0  0  0  0  0  0  0  0  0  0
  150.6594  140.5177  157.4244 H   0  0  0  0  0  0  0  0  0  0  0  0
  149.8620  142.4055  156.4061 H   0  0  0  0  0  0  0  0  0  0  0  0
  151.1678  142.1465  155.2563 H   0  0  0  0  0  0  0  0  0  0  0  0
  149.6968  140.9871  153.7215 H   0  0  0  0  0  0  0  0  0  0  0  0
  148.8007  143.2773  154.7232 H   0  0  0  0  0  0  0  0  0  0  0  0
  147.5566  140.7625  155.8714 H   0  0  0  0  0  0  0  0  0  0  0  0
  147.9032  139.6691  154.5177 H   0  0  0  0  0  0  0  0  0  0  0  0
  146.0802  136.8976  157.6487 H   0  0  0  0  0  0  0  0  0  0  0  0
  151.9992  137.3751  160.0871 H   0  0  0  0  0  0  0  0  0  0  0  0
  1  2  2  0  0  0  0
  2  3  1  0  0  0  0
  2  4  1  0  0  0  0
  4  5  1  0  0  0  0
  4 19  1  0  0  0  0
  4  9  1  0  0  0  0
  5  6  1  0  0  0  0
  5 20  1  0  0  0  0
  5 21  1  0  0  0  0
  6  7  1  0  0  0  0
  6  8  1  0  0  0  0
  6 22  1  0  0  0  0
  7 23  1  0  0  0  0
  8 24  1  0  0  0  0
  8 25  1  0  0  0  0
  8  9  1  0  0  0  0
  9 10  1  0  0  0  0
 10 11  1  0  0  0  0
 10 18  2  0  0  0  0
 11 12  2  0  0  0  0
 12 26  1  0  0  0  0
 12 13  1  0  0  0  0
 13 14  2  0  0  0  0
 14 15  1  0  0  0  0
 14 18  1  0  0  0  0
 15 16  1  0  0  0  0
 16 17  2  0  0  0  0
 16 27  1  0  0  0  0
 17 18  1  0  0  0  0
M  CHG  1   3  -1
M  CHG  1  15  -1
M  END
> <s_m_source_file>
AV-unprocessed.smi

> <i_m_source_file_index>
66

> <i_lp_mmshare_version>
43012

> <i_f3d_flags>
0

> <s_epik_input>
Tz1DKFtPSF0pW0NAQEhdMVtDSDJdW0NAQEhdKFtPSF0pW0NIMl1OMWMobltjSF1uMiljKGMyMylbbkhdW2NIXW4z

> <s_epik_cmdline>
J2VwaWtfcHl0aG9uJywgJy1waCcsICc3LjAnLCAnLXRuJywgJzgnLCAnLW1hJywgJzIwMCcsICctbWV0YWxfYmluZGluZycsICctaW1hZScsICc8aW5maWxlLm1hZT4nLCAnLW9tYWUnLCAnPG91dGZpbGUubWFlPic=

> <r_lp_tautomer_probability>
0.955585

> <r_epik_Ionization_Penalty>
7.65809

> <r_epik_Ionization_Penalty_Charging>
3.4974

> <r_epik_Ionization_Penalty_Neutral>
4.16069

> <r_epik_State_Penalty>
3.51624

> <r_epik_Charging_Adjusted_Penalty>
7.01364

> <i_epik_Tot_Q>
-2

> <i_epik_Tot_abs_Q>
2

> <r_epik_Metal_State_Penalty>
0.522662

> <b_epik_Metal_Only>
1

> <s_lp_Force_Field>
OPLS_2005

> <r_lp_Energy>
43.3227

> <b_lp_Chiralities_Consistent>
1

> <s_lp_Variant>
AV-unprocessed.smi:66-12

> <Gold.Version>
5.8.1

> <Gold.Id.Protein>
6NUR|6NUR_protein|mol2

> <Gold.PLP.Fitness>
41.2059

> <Gold.PLP.PLP>
-23.2536

> <Gold.PLP.part.hbond>
-5.6684

> <Gold.PLP.part.metal>
0.0000

> <Gold.PLP.part.buried>
-3.6665

> <Gold.PLP.part.nonpolar>
-14.5544

> <Gold.PLP.part.repulsive>
0.1021

> <Gold.PLP.ligand.clash>
0.0000

> <Gold.PLP.ligand.torsion>
0.1084

> <Gold.PLP.Chemscore.Hbond>
6.0053

> <Gold.PLP.Chemscore.CHOScore>
0.0000

> <Gold.PLP.Chemscore.Metal>
0.0000

> <Gold.Chemscore.Hbonds>
donor molecule, donor type, donor heavy atom, donor atom, acceptor molecule, acceptor atom, score
      L1  H     7    23       P1  8028  1.00
      P1  H  6896  6908       L1    15  1.30
      P1  H  7989  7998       L1     1  1.00
      P1  H  7997  8009       L1     3  2.00
      P1  H  8011  8017       L1     7  0.01

> <Gold.PLP.Chemscore.Internal.Correction>
0.1532

> <Gold.Rescore>
     Score         DG    S(hbond)    S(metal)    S(lipo)     H(rot)  DE(clash)    DE(int)     intcor
     13.52     -16.35       3.72        0.00      25.51       1.78       0.16       2.68       ----

> <Gold.Chemscore.Fitness>
13.5151

> <Gold.Chemscore.DG>
-16.3494

> <Gold.Chemscore.ZeroCoef>
-5.4800

> <Gold.Chemscore.Hbond>
3.7214

> <Gold.Chemscore.Metal>
0.0000

> <Gold.Chemscore.Lipo>
25.5136

> <Gold.Chemscore.Internal_Hbond>
0.0000

> <Gold.Chemscore.DEClash>
0.1576

> <Gold.Chemscore.DEInternal>
2.6767

> <Gold.Chemscore.Rot>
1.7754

> <Gold.Chemscore.Internal.Correction>
   9.000000E+99

> <Gold.Chemscore.Hbonds>
donor molecule, donor type, donor heavy atom, donor atom, acceptor molecule, acceptor atom, score
      L1  H     7    23       P1  8028  1.00
      P1  H  6896  6908       L1    15  0.05
      P1  H  7989  7998       L1     1  0.68
      P1  H  7997  8009       L1     3  0.99

> <Gold.Chemscore.Hbond.Weighted>
-12.4294

> <Gold.Chemscore.Metal.Weighted>
-0.0000

> <Gold.Chemscore.Lipo.Weighted>
-2.9851

> <Gold.Chemscore.Internal_Hbond.Weighted>
0.0000

> <Gold.Chemscore.DEClash.Weighted>
0.1576

> <Gold.Chemscore.DEInternal.Weighted>
2.6767

> <Gold.Chemscore.Rot.Weighted>
4.5451

> <Gold.Chemscore.Internal.Correction.Weighted>
   9.000000E+99

> <Gold.Protein.RotatedTorsions>
[ 6907 6896 6895 6894 ] final -153.94 input  -60.11 | X-H torsion
[ 7974 7965 7964 7962 ] final -159.40 input  175.53 | X-H torsion
[ 8008 7997 7996 7995 ] final -161.45 input   59.86 | X-H torsion
[ 10167 10162 10161 10158 ] final    6.03 input  -65.29 | X-H torsion
[ 10718 10713 10712 10709 ] final  173.90 input   66.30 | X-H torsion
[ 10763 10752 10751 10750 ] final   18.56 input  -60.55 | X-H torsion
[ 11005 11000 10999 10996 ] final   55.18 input  -57.11 | X-H torsion

> <Gold.Protein.ActiveResidues>
 VAL166  LYS551  ARG553  GLY616  TRP617  ASP618  TYR619  PRO620  LYS621  CYS622 
 ASP623  PHE694  ASN695  SER759  ASP760  ASP761  ALA762  ILE779  LEU786  VAL792 
 PHE793  MET794  SER795  GLU796  ALA797  LYS798  CYS799  TRP800  GLU811  SER814 

> <Gold.Protein.RotatedAtoms>
  151.2501  133.4354  159.2610 H   0  0  0  0  0  0  0  0  0  0  0  0  # atno 6907 bound_to 6896
  151.0625  134.9746  159.8278 H   0  0  0  0  0  0  0  0  0  0  0  0  # atno 6908 bound_to 6896
  152.5400  134.2451  159.8929 H   0  0  0  0  0  0  0  0  0  0  0  0  # atno 6909 bound_to 6896
  144.7467  140.3690  143.6080 H   0  0  0  0  0  0  0  0  0  0  0  0  # atno 7974 bound_to 7965
  155.7924  140.0880  157.2002 H   0  0  0  0  0  0  0  0  0  0  0  0  # atno 8008 bound_to 7997
  154.3985  140.1487  156.3236 H   0  0  0  0  0  0  0  0  0  0  0  0  # atno 8009 bound_to 7997
  155.8546  140.3433  155.5718 H   0  0  0  0  0  0  0  0  0  0  0  0  # atno 8010 bound_to 7997
  140.6450  143.7683  150.7485 H   0  0  0  0  0  0  0  0  0  0  0  0  # atno 10167 bound_to 10162
  156.9575  131.0050  151.2935 H   0  0  0  0  0  0  0  0  0  0  0  0  # atno 10718 bound_to 10713
  153.1238  135.6725  153.9290 H   0  0  0  0  0  0  0  0  0  0  0  0  # atno 10763 bound_to 10752
  153.8797  135.3059  155.3446 H   0  0  0  0  0  0  0  0  0  0  0  0  # atno 10764 bound_to 10752
  154.7646  135.4970  153.9610 H   0  0  0  0  0  0  0  0  0  0  0  0  # atno 10765 bound_to 10752
  140.0627  134.5579  155.9133 H   0  0  0  0  0  0  0  0  0  0  0  0  # atno 11005 bound_to 11000
  145.7098  139.1682  143.2545 LP  0  0  0  0  0  0  0  0  0  0  0  0  # atno 17320 bound_to 7965
  146.1355  140.7128  142.9392 LP  0  0  0  0  0  0  0  0  0  0  0  0  # atno 17321 bound_to 7965
  140.1323  143.4515  152.2246 LP  0  0  0  0  0  0  0  0  0  0  0  0  # atno 17342 bound_to 10162
  139.5660  144.7435  151.4021 LP  0  0  0  0  0  0  0  0  0  0  0  0  # atno 17343 bound_to 10162
  157.5680  130.8291  149.8353 LP  0  0  0  0  0  0  0  0  0  0  0  0  # atno 17370 bound_to 10713
  156.0336  130.3757  150.1620 LP  0  0  0  0  0  0  0  0  0  0  0  0  # atno 17371 bound_to 10713
  141.1980  133.6599  156.5769 LP  0  0  0  0  0  0  0  0  0  0  0  0  # atno 17394 bound_to 11000
  140.3745  134.7577  157.4621 LP  0  0  0  0  0  0  0  0  0  0  0  0  # atno 17395 bound_to 11000

$$$$
