AV-unprocessed.smi:1403|AV-procd|sdf|5698|dock8
  -GOLD-   22720 5333D 1   1.00000     0.00000
 Structure written by MMmdl.
 36 37  0  0  0  0  0  0  0  0  1 V2000
  150.9052  140.7730  157.8340 C   0  0  0  0  0  0  0  0  0  0  0  0
  151.0162  142.0784  157.0330 C   0  0  1  0  0  0  0  0  0  0  0  0
  149.9674  142.0936  156.0146 N   0  0  0  0  0  0  0  0  0  0  0  0
  149.7837  141.1720  155.0562 C   0  0  0  0  0  0  0  0  0  0  0  0
  150.5149  140.1917  154.9100 O   0  0  0  0  0  0  0  0  0  0  0  0
  148.6061  141.4203  154.1029 C   0  0  0  0  0  0  0  0  0  0  0  0
  147.3878  141.8629  154.7961 N   0  0  0  0  0  0  0  0  0  0  0  0
  146.6109  142.8834  154.2659 C   0  0  0  0  0  0  0  0  0  0  0  0
  145.4727  143.3323  154.8460 C   0  0  0  0  0  0  0  0  0  0  0  0
  144.9973  142.7435  156.0935 C   0  0  0  0  0  0  0  0  0  0  0  0
  143.9809  143.0819  156.6955 O   0  0  0  0  0  0  0  0  0  0  0  0
  145.8046  141.7184  156.5940 N   0  0  0  0  0  0  0  0  0  0  0  0
  146.9779  141.2500  156.0006 C   0  0  0  0  0  0  0  0  0  0  0  0
  147.6137  140.3361  156.5247 O   0  0  0  0  0  0  0  0  0  0  0  0
  150.9057  143.3208  157.9414 C   0  0  2  0  0  0  0  0  0  0  0  0
  151.9417  144.4140  157.6738 C   0  0  0  0  0  0  0  0  0  0  0  0
  151.9436  145.1587  158.9888 C   0  0  0  0  0  0  0  0  0  0  0  0
  151.7823  144.0238  159.9968 C   0  0  0  0  0  0  0  0  0  0  0  0
  151.1196  142.9670  159.3053 O   0  0  0  0  0  0  0  0  0  0  0  0
  145.5136  141.2786  157.4550 H   0  0  0  0  0  0  0  0  0  0  0  0
  151.6989  140.6981  158.5779 H   0  0  0  0  0  0  0  0  0  0  0  0
  150.9873  139.9030  157.1812 H   0  0  0  0  0  0  0  0  0  0  0  0
  149.9513  140.7075  158.3583 H   0  0  0  0  0  0  0  0  0  0  0  0
  151.9973  142.0865  156.5548 H   0  0  0  0  0  0  0  0  0  0  0  0
  149.3208  142.8683  156.0481 H   0  0  0  0  0  0  0  0  0  0  0  0
  148.8916  142.1510  153.3433 H   0  0  0  0  0  0  0  0  0  0  0  0
  148.4152  140.4963  153.5551 H   0  0  0  0  0  0  0  0  0  0  0  0
  146.9220  143.3461  153.3399 H   0  0  0  0  0  0  0  0  0  0  0  0
  144.9097  144.1304  154.3840 H   0  0  0  0  0  0  0  0  0  0  0  0
  149.9068  143.7542  157.8640 H   0  0  0  0  0  0  0  0  0  0  0  0
  152.9249  143.9774  157.4914 H   0  0  0  0  0  0  0  0  0  0  0  0
  151.6846  145.0486  156.8253 H   0  0  0  0  0  0  0  0  0  0  0  0
  152.8473  145.7469  159.1494 H   0  0  0  0  0  0  0  0  0  0  0  0
  151.0850  145.8299  159.0374 H   0  0  0  0  0  0  0  0  0  0  0  0
  152.7565  143.6624  160.3275 H   0  0  0  0  0  0  0  0  0  0  0  0
  151.2198  144.3345  160.8775 H   0  0  0  0  0  0  0  0  0  0  0  0
  1  2  1  0  0  0  0
  1 21  1  0  0  0  0
  1 22  1  0  0  0  0
  1 23  1  0  0  0  0
  2  3  1  0  0  0  0
  2 15  1  0  0  0  0
  2 24  1  0  0  0  0
  3  4  1  0  0  0  0
  3 25  1  0  0  0  0
  4  5  2  0  0  0  0
  4  6  1  0  0  0  0
  6  7  1  0  0  0  0
  6 26  1  0  0  0  0
  6 27  1  0  0  0  0
  7 13  1  0  0  0  0
  7  8  1  0  0  0  0
  8  9  2  0  0  0  0
  8 28  1  0  0  0  0
  9 10  1  0  0  0  0
  9 29  1  0  0  0  0
 10 11  2  0  0  0  0
 10 12  1  0  0  0  0
 12 20  1  0  0  0  0
 12 13  1  0  0  0  0
 13 14  2  0  0  0  0
 15 19  1  0  0  0  0
 15 16  1  0  0  0  0
 15 30  1  0  0  0  0
 16 17  1  0  0  0  0
 16 31  1  0  0  0  0
 16 32  1  0  0  0  0
 17 18  1  0  0  0  0
 17 33  1  0  0  0  0
 17 34  1  0  0  0  0
 18 19  1  0  0  0  0
 18 35  1  0  0  0  0
 18 36  1  0  0  0  0
M  END
> <s_m_source_file>
AV-unprocessed.smi

> <i_m_source_file_index>
1403

> <i_lp_mmshare_version>
43012

> <i_f3d_flags>
0

> <s_epik_input>
TzFbQ0gyXVtDSDJdW0NIMl1bQ0BIXTFbQ0BIXShbQ0gzXSlbTkhdQyg9TylbQ0gyXW4yW2NIXVtjSF1jKD1PKVtuSF1jMj1P

> <s_epik_cmdline>
J2VwaWtfcHl0aG9uJywgJy1waCcsICc3LjAnLCAnLXRuJywgJzgnLCAnLW1hJywgJzIwMCcsICctbWV0YWxfYmluZGluZycsICctaW1hZScsICc8aW5maWxlLm1hZT4nLCAnLW9tYWUnLCAnPG91dGZpbGUubWFlPic=

> <r_lp_tautomer_probability>
0.999537

> <r_epik_Ionization_Penalty>
0.00331407

> <r_epik_Ionization_Penalty_Charging>
0.00331405

> <r_epik_Ionization_Penalty_Neutral>
2.30132e-08

> <r_epik_State_Penalty>
0.00234266

> <r_epik_Charging_Adjusted_Penalty>
0.00565671

> <i_epik_Tot_Q>
0

> <i_epik_Tot_abs_Q>
0

> <r_epik_Metal_State_Penalty>
0.365604

> <b_epik_Metal_Only>
0

> <s_lp_Force_Field>
OPLS_2005

> <r_lp_Energy>
17.659

> <b_lp_Chiralities_Consistent>
1

> <s_lp_Variant>
AV-unprocessed.smi:1403-2

> <Gold.Version>
5.8.1

> <Gold.Id.Protein>
6NUR|6NUR_protein|mol2

> <Gold.PLP.Fitness>
42.2547

> <Gold.PLP.PLP>
-39.7261

> <Gold.PLP.part.hbond>
-2.0000

> <Gold.PLP.part.metal>
0.0000

> <Gold.PLP.part.buried>
-4.5467

> <Gold.PLP.part.nonpolar>
-33.4258

> <Gold.PLP.part.repulsive>
0.2295

> <Gold.PLP.ligand.clash>
0.0000

> <Gold.PLP.ligand.torsion>
1.7061

> <Gold.PLP.Chemscore.Hbond>
1.9760

> <Gold.PLP.Chemscore.CHOScore>
0.0000

> <Gold.PLP.Chemscore.Metal>
0.0000

> <Gold.Chemscore.Hbonds>
donor molecule, donor type, donor heavy atom, donor atom, acceptor molecule, acceptor atom, score
      L1  H     3    25       P1  8028  1.00
      P1  H  7989  7998       L1     5  0.90

> <Gold.PLP.Chemscore.Internal.Correction>
0.0129

> <Gold.Rescore>
     Score         DG    S(hbond)    S(metal)    S(lipo)     H(rot)  DE(clash)    DE(int)     intcor
     12.12     -15.46       1.66        0.00      82.45       2.04       0.65       2.70       ----

> <Gold.Chemscore.Fitness>
12.1171

> <Gold.Chemscore.DG>
-15.4586

> <Gold.Chemscore.ZeroCoef>
-5.4800

> <Gold.Chemscore.Hbond>
1.6624

> <Gold.Chemscore.Metal>
0.0000

> <Gold.Chemscore.Lipo>
82.4546

> <Gold.Chemscore.Internal_Hbond>
0.0000

> <Gold.Chemscore.DEClash>
0.6456

> <Gold.Chemscore.DEInternal>
2.6958

> <Gold.Chemscore.Rot>
2.0395

> <Gold.Chemscore.Internal.Correction>
   9.000000E+99

> <Gold.Chemscore.Hbonds>
donor molecule, donor type, donor heavy atom, donor atom, acceptor molecule, acceptor atom, score
      L1  H     3    25       P1  8028  0.94
      P1  H  7989  7998       L1     5  0.18

> <Gold.Chemscore.Hbond.Weighted>
-5.5525

> <Gold.Chemscore.Metal.Weighted>
-0.0000

> <Gold.Chemscore.Lipo.Weighted>
-9.6472

> <Gold.Chemscore.Internal_Hbond.Weighted>
0.0000

> <Gold.Chemscore.DEClash.Weighted>
0.6456

> <Gold.Chemscore.DEInternal.Weighted>
2.6958

> <Gold.Chemscore.Rot.Weighted>
5.2211

> <Gold.Chemscore.Internal.Correction.Weighted>
   9.000000E+99

> <Gold.Protein.RotatedTorsions>
[ 6907 6896 6895 6894 ] final -169.45 input  -60.11 | X-H torsion
[ 7974 7965 7964 7962 ] final  -50.90 input  175.53 | X-H torsion
[ 8008 7997 7996 7995 ] final   -4.52 input   59.86 | X-H torsion
[ 10167 10162 10161 10158 ] final  132.69 input  -65.29 | X-H torsion
[ 10718 10713 10712 10709 ] final  120.84 input   66.30 | X-H torsion
[ 10763 10752 10751 10750 ] final  172.42 input  -60.55 | X-H torsion
[ 11005 11000 10999 10996 ] final  100.86 input  -57.11 | X-H torsion

> <Gold.Protein.ActiveResidues>
 VAL166  LYS551  ARG553  GLY616  TRP617  ASP618  TYR619  PRO620  LYS621  CYS622 
 ASP623  PHE694  ASN695  SER759  ASP760  ASP761  ALA762  ILE779  LEU786  VAL792 
 PHE793  MET794  SER795  GLU796  ALA797  LYS798  CYS799  TRP800  GLU811  SER814 

> <Gold.Protein.RotatedAtoms>
  151.4919  133.3523  159.2854 H   0  0  0  0  0  0  0  0  0  0  0  0  # atno 6907 bound_to 6896
  150.8829  134.8225  159.7249 H   0  0  0  0  0  0  0  0  0  0  0  0  # atno 6908 bound_to 6896
  152.4774  134.4819  159.9720 H   0  0  0  0  0  0  0  0  0  0  0  0  # atno 6909 bound_to 6896
  145.9248  140.7802  142.9629 H   0  0  0  0  0  0  0  0  0  0  0  0  # atno 7974 bound_to 7965
  154.6135  140.2482  155.7639 H   0  0  0  0  0  0  0  0  0  0  0  0  # atno 8008 bound_to 7997
  156.2385  140.2941  156.0327 H   0  0  0  0  0  0  0  0  0  0  0  0  # atno 8009 bound_to 7997
  155.2014  140.0394  157.2908 H   0  0  0  0  0  0  0  0  0  0  0  0  # atno 8010 bound_to 7997
  139.5328  144.6650  151.4889 H   0  0  0  0  0  0  0  0  0  0  0  0  # atno 10167 bound_to 10162
  157.5861  131.1069  150.8091 H   0  0  0  0  0  0  0  0  0  0  0  0  # atno 10718 bound_to 10713
  154.4257  135.2759  155.1946 H   0  0  0  0  0  0  0  0  0  0  0  0  # atno 10763 bound_to 10752
  154.3872  135.6074  153.5827 H   0  0  0  0  0  0  0  0  0  0  0  0  # atno 10764 bound_to 10752
  152.9834  135.5894  154.4561 H   0  0  0  0  0  0  0  0  0  0  0  0  # atno 10765 bound_to 10752
  139.8772  134.9158  156.4819 H   0  0  0  0  0  0  0  0  0  0  0  0  # atno 11005 bound_to 11000
  144.6757  140.2033  143.7385 LP  0  0  0  0  0  0  0  0  0  0  0  0  # atno 17320 bound_to 7965
  145.8503  139.2172  143.1776 LP  0  0  0  0  0  0  0  0  0  0  0  0  # atno 17321 bound_to 7965
  140.6518  143.8682  150.6793 LP  0  0  0  0  0  0  0  0  0  0  0  0  # atno 17342 bound_to 10162
  140.2049  143.3930  152.1763 LP  0  0  0  0  0  0  0  0  0  0  0  0  # atno 17343 bound_to 10162
  156.8524  130.5085  149.5310 LP  0  0  0  0  0  0  0  0  0  0  0  0  # atno 17370 bound_to 10713
  156.0911  130.5896  150.9734 LP  0  0  0  0  0  0  0  0  0  0  0  0  # atno 17371 bound_to 10713
  140.8721  133.7981  155.9375 LP  0  0  0  0  0  0  0  0  0  0  0  0  # atno 17394 bound_to 11000
  140.8942  134.2458  157.5078 LP  0  0  0  0  0  0  0  0  0  0  0  0  # atno 17395 bound_to 11000

$$$$
