AV-unprocessed.smi:2233|AV-procd|sdf|9041|dock2
  -GOLD-   2272012253D 1   1.00000     0.00000
 Structure written by MMmdl.
 42 43  0  0  0  0  0  0  0  0  1 V2000
  143.9832  131.9398  150.6123 C   0  0  0  0  0  0  0  0  0  0  0  0
  143.7478  132.9214  151.2993 C   0  0  0  0  0  0  0  0  0  0  0  0
  143.4461  134.1023  152.1275 C   0  0  0  0  0  0  0  0  0  0  0  0
  143.7961  135.4523  151.4747 C   0  0  0  0  0  0  0  0  0  0  0  0
  145.3055  135.6971  151.2960 C   0  0  0  0  0  0  0  0  0  0  0  0
  146.0341  135.8640  152.6418 C   0  0  0  0  0  0  0  0  0  0  0  0
  145.9901  137.2963  153.1856 C   0  0  0  0  0  0  0  0  0  0  0  0
  144.9095  137.8409  153.4112 O   0  0  0  0  0  0  0  0  0  0  0  0
  147.1888  137.8675  153.3981 N   0  0  0  0  0  0  0  0  0  0  0  0
  147.4783  139.1743  153.8844 C   0  0  0  0  0  0  0  0  0  0  0  0
  146.5360  140.2327  153.8673 C   0  0  0  0  0  0  0  0  0  0  0  0
  146.8075  141.4815  154.3007 N   0  0  0  0  0  0  0  0  0  0  0  0
  148.0461  141.7327  154.7698 C   0  0  0  0  0  0  0  0  0  0  0  0
  149.0649  140.7629  154.8185 C   0  0  0  0  0  0  0  0  0  0  0  0
  148.7823  139.4563  154.3610 C   0  0  0  0  0  0  0  0  0  0  0  0
  149.7623  138.4504  154.3891 N   0  0  0  0  0  0  0  0  0  0  0  0
  151.1271  138.9388  154.5376 C   0  0  0  0  0  0  0  0  0  0  0  0
  152.1156  137.7686  154.3964 C   0  0  0  0  0  0  0  0  0  0  0  0
  151.7951  136.7578  155.3486 O   0  0  0  0  0  0  0  0  0  0  0  0
  150.4828  136.2355  155.1564 C   0  0  0  0  0  0  0  0  0  0  0  0
  149.4484  137.3647  155.3078 C   0  0  0  0  0  0  0  0  0  0  0  0
  144.1843  131.0804  150.0128 H   0  0  0  0  0  0  0  0  0  0  0  0
  142.3862  134.0688  152.3811 H   0  0  0  0  0  0  0  0  0  0  0  0
  143.9971  133.9904  153.0616 H   0  0  0  0  0  0  0  0  0  0  0  0
  143.3135  135.4981  150.4977 H   0  0  0  0  0  0  0  0  0  0  0  0
  143.3621  136.2636  152.0611 H   0  0  0  0  0  0  0  0  0  0  0  0
  145.7487  134.8663  150.7456 H   0  0  0  0  0  0  0  0  0  0  0  0
  145.4551  136.5888  150.6854 H   0  0  0  0  0  0  0  0  0  0  0  0
  145.5947  135.1894  153.3782 H   0  0  0  0  0  0  0  0  0  0  0  0
  147.0796  135.5725  152.5355 H   0  0  0  0  0  0  0  0  0  0  0  0
  147.9929  137.2712  153.2644 H   0  0  0  0  0  0  0  0  0  0  0  0
  145.5391  140.1005  153.4765 H   0  0  0  0  0  0  0  0  0  0  0  0
  148.2336  142.7395  155.1128 H   0  0  0  0  0  0  0  0  0  0  0  0
  150.0401  141.0229  155.2032 H   0  0  0  0  0  0  0  0  0  0  0  0
  151.3327  139.6986  153.7829 H   0  0  0  0  0  0  0  0  0  0  0  0
  151.2516  139.4085  155.5140 H   0  0  0  0  0  0  0  0  0  0  0  0
  152.0867  137.3547  153.3871 H   0  0  0  0  0  0  0  0  0  0  0  0
  153.1349  138.1129  154.5713 H   0  0  0  0  0  0  0  0  0  0  0  0
  150.4067  135.7689  154.1729 H   0  0  0  0  0  0  0  0  0  0  0  0
  150.2989  135.4551  155.8949 H   0  0  0  0  0  0  0  0  0  0  0  0
  149.4529  137.7378  156.3329 H   0  0  0  0  0  0  0  0  0  0  0  0
  148.4462  136.9842  155.1061 H   0  0  0  0  0  0  0  0  0  0  0  0
  1  2  3  0  0  0  0
  1 22  1  0  0  0  0
  2  3  1  0  0  0  0
  3  4  1  0  0  0  0
  3 23  1  0  0  0  0
  3 24  1  0  0  0  0
  4  5  1  0  0  0  0
  4 25  1  0  0  0  0
  4 26  1  0  0  0  0
  5  6  1  0  0  0  0
  5 27  1  0  0  0  0
  5 28  1  0  0  0  0
  6  7  1  0  0  0  0
  6 29  1  0  0  0  0
  6 30  1  0  0  0  0
  7  8  2  0  0  0  0
  7  9  1  0  0  0  0
  9 10  1  0  0  0  0
  9 31  1  0  0  0  0
 10 15  1  0  0  0  0
 10 11  2  0  0  0  0
 11 12  1  0  0  0  0
 11 32  1  0  0  0  0
 12 13  2  0  0  0  0
 13 14  1  0  0  0  0
 13 33  1  0  0  0  0
 14 15  2  0  0  0  0
 14 34  1  0  0  0  0
 15 16  1  0  0  0  0
 16 21  1  0  0  0  0
 16 17  1  0  0  0  0
 17 18  1  0  0  0  0
 17 35  1  0  0  0  0
 17 36  1  0  0  0  0
 18 19  1  0  0  0  0
 18 37  1  0  0  0  0
 18 38  1  0  0  0  0
 19 20  1  0  0  0  0
 20 21  1  0  0  0  0
 20 39  1  0  0  0  0
 20 40  1  0  0  0  0
 21 41  1  0  0  0  0
 21 42  1  0  0  0  0
M  END
> <s_m_source_file>
AV-unprocessed.smi

> <i_m_source_file_index>
2233

> <i_lp_mmshare_version>
43012

> <i_f3d_flags>
0

> <s_epik_input>
W0NIXSNDW0NIMl1bQ0gyXVtDSDJdW0NIMl1DKD1PKVtOSF1jMVtjSF1uW2NIXVtjSF1jMU4yW0NIMl1bQ0gyXU9bQ0gyXVtDSDJdMg==

> <s_epik_cmdline>
J2VwaWtfcHl0aG9uJywgJy1waCcsICc3LjAnLCAnLXRuJywgJzgnLCAnLW1hJywgJzIwMCcsICctbWV0YWxfYmluZGluZycsICctaW1hZScsICc8aW5maWxlLm1hZT4nLCAnLW9tYWUnLCAnPG91dGZpbGUubWFlPic=

> <r_lp_tautomer_probability>
1

> <r_epik_Ionization_Penalty>
0.8765

> <r_epik_Ionization_Penalty_Charging>
0

> <r_epik_Ionization_Penalty_Neutral>
0.8765

> <r_epik_State_Penalty>
0.914306

> <r_epik_Charging_Adjusted_Penalty>
0.914306

> <i_epik_Tot_Q>
0

> <i_epik_Tot_abs_Q>
0

> <r_epik_Metal_State_Penalty>
0.361009

> <b_epik_Metal_Only>
0

> <s_lp_Force_Field>
OPLS_2005

> <r_lp_Energy>
23.7364

> <b_lp_Chiralities_Consistent>
1

> <s_lp_Variant>
AV-unprocessed.smi:2233-2

> <Gold.Version>
5.8.1

> <Gold.Id.Protein>
6NUR|6NUR_protein|mol2

> <Gold.PLP.Fitness>
44.0936

> <Gold.PLP.PLP>
-33.1849

> <Gold.PLP.part.hbond>
-2.0000

> <Gold.PLP.part.metal>
0.0000

> <Gold.PLP.part.buried>
-2.3667

> <Gold.PLP.part.nonpolar>
-29.9809

> <Gold.PLP.part.repulsive>
1.0729

> <Gold.PLP.ligand.clash>
0.0000

> <Gold.PLP.ligand.torsion>
0.4911

> <Gold.PLP.Chemscore.Hbond>
1.9120

> <Gold.PLP.Chemscore.CHOScore>
2.0000

> <Gold.PLP.Chemscore.Metal>
0.0000

> <Gold.Chemscore.Hbonds>
donor molecule, donor type, donor heavy atom, donor atom, acceptor molecule, acceptor atom, score
      L1  H     9    31       P1  7948  0.83
      P1  H 10752 10764       L1    19  0.60
      L1  C    11    32       P1 10175  1.00
      L1  C    13    33       P1  8028  1.00

> <Gold.PLP.Chemscore.Internal.Correction>
0.1550

> <Gold.Rescore>
     Score         DG    S(hbond)    S(metal)    S(lipo)     H(rot)  DE(clash)    DE(int)     intcor
     13.78     -17.11       1.35        0.00      93.41       1.49       0.93       2.40       ----

> <Gold.Chemscore.Fitness>
13.7760

> <Gold.Chemscore.DG>
-17.1089

> <Gold.Chemscore.ZeroCoef>
-5.4800

> <Gold.Chemscore.Hbond>
1.3503

> <Gold.Chemscore.Metal>
0.0000

> <Gold.Chemscore.Lipo>
93.4072

> <Gold.Chemscore.Internal_Hbond>
0.0000

> <Gold.Chemscore.DEClash>
0.9283

> <Gold.Chemscore.DEInternal>
2.4045

> <Gold.Chemscore.Rot>
1.4882

> <Gold.Chemscore.Internal.Correction>
   9.000000E+99

> <Gold.Chemscore.Hbonds>
donor molecule, donor type, donor heavy atom, donor atom, acceptor molecule, acceptor atom, score
      L1  H     9    31       P1  7948  0.80
      P1  H 10752 10764       L1    19  0.03

> <Gold.Chemscore.Hbond.Weighted>
-4.5101

> <Gold.Chemscore.Metal.Weighted>
-0.0000

> <Gold.Chemscore.Lipo.Weighted>
-10.9286

> <Gold.Chemscore.Internal_Hbond.Weighted>
0.0000

> <Gold.Chemscore.DEClash.Weighted>
0.9283

> <Gold.Chemscore.DEInternal.Weighted>
2.4045

> <Gold.Chemscore.Rot.Weighted>
3.8099

> <Gold.Chemscore.Internal.Correction.Weighted>
   9.000000E+99

> <Gold.Protein.RotatedTorsions>
[ 6907 6896 6895 6894 ] final   35.17 input  -60.11 | X-H torsion
[ 7974 7965 7964 7962 ] final   69.53 input  175.53 | X-H torsion
[ 8008 7997 7996 7995 ] final -177.83 input   59.86 | X-H torsion
[ 10167 10162 10161 10158 ] final  149.18 input  -65.29 | X-H torsion
[ 10718 10713 10712 10709 ] final   37.72 input   66.30 | X-H torsion
[ 10763 10752 10751 10750 ] final  -58.87 input  -60.55 | X-H torsion
[ 11005 11000 10999 10996 ] final -126.57 input  -57.11 | X-H torsion

> <Gold.Protein.ActiveResidues>
 VAL166  LYS551  ARG553  GLY616  TRP617  ASP618  TYR619  PRO620  LYS621  CYS622 
 ASP623  PHE694  ASN695  SER759  ASP760  ASP761  ALA762  ILE779  LEU786  VAL792 
 PHE793  MET794  SER795  GLU796  ALA797  LYS798  CYS799  TRP800  GLU811  SER814 

> <Gold.Protein.RotatedAtoms>
  152.1124  134.9264  160.0565 H   0  0  0  0  0  0  0  0  0  0  0  0  # atno 6907 bound_to 6896
  152.0437  133.3983  159.4356 H   0  0  0  0  0  0  0  0  0  0  0  0  # atno 6908 bound_to 6896
  150.6844  134.3307  159.4869 H   0  0  0  0  0  0  0  0  0  0  0  0  # atno 6909 bound_to 6896
  145.7893  139.2926  143.1219 H   0  0  0  0  0  0  0  0  0  0  0  0  # atno 7974 bound_to 7965
  156.0116  140.1242  157.0448 H   0  0  0  0  0  0  0  0  0  0  0  0  # atno 8008 bound_to 7997
  154.4278  140.1086  156.5907 H   0  0  0  0  0  0  0  0  0  0  0  0  # atno 8009 bound_to 7997
  155.6071  140.3471  155.4613 H   0  0  0  0  0  0  0  0  0  0  0  0  # atno 8010 bound_to 7997
  139.4865  144.5622  151.7211 H   0  0  0  0  0  0  0  0  0  0  0  0  # atno 10167 bound_to 10162
  157.3503  130.7595  149.6974 H   0  0  0  0  0  0  0  0  0  0  0  0  # atno 10718 bound_to 10713
  154.2449  135.6337  153.5220 H   0  0  0  0  0  0  0  0  0  0  0  0  # atno 10763 bound_to 10752
  152.9923  135.5551  154.5871 H   0  0  0  0  0  0  0  0  0  0  0  0  # atno 10764 bound_to 10752
  154.5385  135.2893  155.1092 H   0  0  0  0  0  0  0  0  0  0  0  0  # atno 10765 bound_to 10752
  140.9671  134.0857  157.3909 H   0  0  0  0  0  0  0  0  0  0  0  0  # atno 11005 bound_to 11000
  145.9993  140.8534  143.0027 LP  0  0  0  0  0  0  0  0  0  0  0  0  # atno 17320 bound_to 7965
  144.6784  140.2329  143.7353 LP  0  0  0  0  0  0  0  0  0  0  0  0  # atno 17321 bound_to 7965
  140.5193  144.0903  150.6018 LP  0  0  0  0  0  0  0  0  0  0  0  0  # atno 17342 bound_to 10162
  140.3856  143.2779  152.0120 LP  0  0  0  0  0  0  0  0  0  0  0  0  # atno 17343 bound_to 10162
  155.9720  130.4142  150.4122 LP  0  0  0  0  0  0  0  0  0  0  0  0  # atno 17370 bound_to 10713
  157.2184  131.0476  151.2560 LP  0  0  0  0  0  0  0  0  0  0  0  0  # atno 17371 bound_to 10713
  139.8898  135.0108  156.6701 LP  0  0  0  0  0  0  0  0  0  0  0  0  # atno 17394 bound_to 11000
  140.7384  133.8999  155.8260 LP  0  0  0  0  0  0  0  0  0  0  0  0  # atno 17395 bound_to 11000

$$$$
