AV-unprocessed.smi:806|AV-procd|sdf|3800|dock10
  -GOLD-   22720 1233D 1   1.00000     0.00000
 Structure written by MMmdl.
 45 46  0  0  0  0  0  0  0  0  2 V2000
  147.1038  141.0032  153.2178 C   0  0  0  0  0  0  0  0  0  0  0  0
  147.7205  139.7782  153.7623 N   0  0  0  0  0  0  0  0  0  0  0  0
  147.4297  138.5450  153.2553 C   0  0  0  0  0  0  0  0  0  0  0  0
  147.9520  137.5159  153.6871 O   0  0  0  0  0  0  0  0  0  0  0  0
  146.4132  138.4016  152.1048 C   0  0  0  0  0  0  0  0  0  0  0  0
  146.5547  137.1351  151.3531 N   0  3  0  0  0  0  0  0  0  0  0  0
  145.4571  136.1638  151.5522 C   0  0  0  0  0  0  0  0  0  0  0  0
  146.0061  134.7480  151.7916 C   0  0  0  0  0  0  0  0  0  0  0  0
  145.4044  133.7708  150.9015 N   0  0  0  0  0  0  0  0  0  0  0  0
  146.0106  132.7232  150.2403 C   0  0  0  0  0  0  0  0  0  0  0  0
  145.0447  132.0888  149.5131 C   0  0  0  0  0  0  0  0  0  0  0  0
  143.8626  132.8246  149.8055 C   0  0  0  0  0  0  0  0  0  0  0  0
  144.0811  133.8285  150.6393 N   0  0  0  0  0  0  0  0  0  0  0  0
  148.7036  139.9473  154.8813 C   0  0  0  0  0  0  0  0  0  0  0  0
  148.2634  139.1938  156.0773 C   0  0  0  0  0  0  0  0  0  0  0  0
  147.9177  138.6044  157.0118 N   0  0  0  0  0  0  0  0  0  0  0  0
  150.0986  139.4442  154.4118 C   0  0  0  0  0  0  0  0  0  0  0  0
  151.1875  139.5963  155.4892 C   0  0  0  0  0  0  0  0  0  0  0  0
  151.3060  141.0510  155.9617 C   0  0  0  0  0  0  0  0  0  0  0  0
  149.9506  141.5901  156.4370 C   0  0  0  0  0  0  0  0  0  0  0  0
  148.8811  141.4283  155.3413 C   0  0  0  0  0  0  0  0  0  0  0  0
  146.4131  140.8654  152.3894 H   0  0  0  0  0  0  0  0  0  0  0  0
  147.8756  141.6755  152.8432 H   0  0  0  0  0  0  0  0  0  0  0  0
  146.5328  141.5225  153.9872 H   0  0  0  0  0  0  0  0  0  0  0  0
  145.4096  138.4069  152.5311 H   0  0  0  0  0  0  0  0  0  0  0  0
  146.4878  139.2421  151.4134 H   0  0  0  0  0  0  0  0  0  0  0  0
  146.6106  137.3636  150.3703 H   0  0  0  0  0  0  0  0  0  0  0  0
  144.8564  136.4791  152.4058 H   0  0  0  0  0  0  0  0  0  0  0  0
  144.7928  136.1619  150.6871 H   0  0  0  0  0  0  0  0  0  0  0  0
  147.0881  134.7307  151.6556 H   0  0  0  0  0  0  0  0  0  0  0  0
  145.8130  134.4389  152.8198 H   0  0  0  0  0  0  0  0  0  0  0  0
  147.0674  132.5207  150.3355 H   0  0  0  0  0  0  0  0  0  0  0  0
  145.1633  131.2282  148.8714 H   0  0  0  0  0  0  0  0  0  0  0  0
  142.8596  132.6603  149.4402 H   0  0  0  0  0  0  0  0  0  0  0  0
  150.0606  138.3961  154.1170 H   0  0  0  0  0  0  0  0  0  0  0  0
  150.4011  139.9943  153.5196 H   0  0  0  0  0  0  0  0  0  0  0  0
  150.9631  138.9504  156.3387 H   0  0  0  0  0  0  0  0  0  0  0  0
  152.1463  139.2586  155.0948 H   0  0  0  0  0  0  0  0  0  0  0  0
  152.0397  141.1240  156.7652 H   0  0  0  0  0  0  0  0  0  0  0  0
  151.6791  141.6704  155.1451 H   0  0  0  0  0  0  0  0  0  0  0  0
  149.6450  141.0722  157.3467 H   0  0  0  0  0  0  0  0  0  0  0  0
  150.0475  142.6425  156.7053 H   0  0  0  0  0  0  0  0  0  0  0  0
  149.1795  142.0672  154.5105 H   0  0  0  0  0  0  0  0  0  0  0  0
  147.9366  141.8217  155.7192 H   0  0  0  0  0  0  0  0  0  0  0  0
  147.4171  136.6894  151.6312 H   0  0  0  0  0  0  0  0  0  0  0  0
  1  2  1  0  0  0  0
  1 22  1  0  0  0  0
  1 23  1  0  0  0  0
  1 24  1  0  0  0  0
  2  3  1  0  0  0  0
  2 14  1  0  0  0  0
  3  4  2  0  0  0  0
  3  5  1  0  0  0  0
  5  6  1  0  0  0  0
  5 25  1  0  0  0  0
  5 26  1  0  0  0  0
  6  7  1  0  0  0  0
  6 27  1  0  0  0  0
  6 45  1  0  0  0  0
  7  8  1  0  0  0  0
  7 28  1  0  0  0  0
  7 29  1  0  0  0  0
  8  9  1  0  0  0  0
  8 30  1  0  0  0  0
  8 31  1  0  0  0  0
  9 13  1  0  0  0  0
  9 10  1  0  0  0  0
 10 11  2  0  0  0  0
 10 32  1  0  0  0  0
 11 12  1  0  0  0  0
 11 33  1  0  0  0  0
 12 13  2  0  0  0  0
 12 34  1  0  0  0  0
 14 21  1  0  0  0  0
 14 15  1  0  0  0  0
 14 17  1  0  0  0  0
 15 16  3  0  0  0  0
 17 18  1  0  0  0  0
 17 35  1  0  0  0  0
 17 36  1  0  0  0  0
 18 19  1  0  0  0  0
 18 37  1  0  0  0  0
 18 38  1  0  0  0  0
 19 20  1  0  0  0  0
 19 39  1  0  0  0  0
 19 40  1  0  0  0  0
 20 21  1  0  0  0  0
 20 41  1  0  0  0  0
 20 42  1  0  0  0  0
 21 43  1  0  0  0  0
 21 44  1  0  0  0  0
M  CHG  1   6   1
M  END
> <s_m_source_file>
AV-unprocessed.smi

> <i_m_source_file_index>
806

> <i_lp_mmshare_version>
43012

> <i_f3d_flags>
0

> <s_epik_input>
W0NIMl0xW0NIMl1bQ0gyXVtDSDJdW0NIMl1DMShDI04pTihbQ0gzXSlDKD1PKVtDSDJdW05IXVtDSDJdW0NIMl1uMltjSF1bY0hdW2NIXW4y

> <s_epik_cmdline>
J2VwaWtfcHl0aG9uJywgJy1waCcsICc3LjAnLCAnLXRuJywgJzgnLCAnLW1hJywgJzIwMCcsICctbWV0YWxfYmluZGluZycsICctaW1hZScsICc8aW5maWxlLm1hZT4nLCAnLW9tYWUnLCAnPG91dGZpbGUubWFlPic=

> <r_lp_tautomer_probability>
1

> <r_epik_Ionization_Penalty>
0.349033

> <r_epik_Ionization_Penalty_Charging>
0.349031

> <r_epik_Ionization_Penalty_Neutral>
2.24604e-06

> <r_epik_State_Penalty>
0.345151

> <r_epik_Charging_Adjusted_Penalty>
0.694182

> <i_epik_Tot_Q>
1

> <i_epik_Tot_abs_Q>
1

> <r_epik_Metal_State_Penalty>
0.345887

> <b_epik_Metal_Only>
0

> <s_lp_Force_Field>
OPLS_2005

> <r_lp_Energy>
26.3561

> <b_lp_Chiralities_Consistent>
1

> <s_lp_Variant>
AV-unprocessed.smi:806-1

> <Gold.Version>
5.8.1

> <Gold.Id.Protein>
6NUR|6NUR_protein|mol2

> <Gold.PLP.Fitness>
43.5138

> <Gold.PLP.PLP>
-35.1257

> <Gold.PLP.part.hbond>
-1.0000

> <Gold.PLP.part.metal>
0.0000

> <Gold.PLP.part.buried>
-4.0627

> <Gold.PLP.part.nonpolar>
-35.4355

> <Gold.PLP.part.repulsive>
4.7960

> <Gold.PLP.ligand.clash>
0.0000

> <Gold.PLP.ligand.torsion>
1.5990

> <Gold.PLP.Chemscore.Hbond>
2.0000

> <Gold.PLP.Chemscore.CHOScore>
1.8338

> <Gold.PLP.Chemscore.Metal>
0.0000

> <Gold.Chemscore.Hbonds>
donor molecule, donor type, donor heavy atom, donor atom, acceptor molecule, acceptor atom, score
      L1  H     6    45       P1  7948  2.00
      L1  C    10    32       P1 10747  1.00
      L1  C    12    34       P1 10186  0.83

> <Gold.PLP.Chemscore.Internal.Correction>
0.0848

> <Gold.Rescore>
     Score         DG    S(hbond)    S(metal)    S(lipo)     H(rot)  DE(clash)    DE(int)     intcor
      9.98     -14.78       1.00        0.00      96.74       2.09       1.64       3.16       ----

> <Gold.Chemscore.Fitness>
9.9832

> <Gold.Chemscore.DG>
-14.7810

> <Gold.Chemscore.ZeroCoef>
-5.4800

> <Gold.Chemscore.Hbond>
0.9974

> <Gold.Chemscore.Metal>
0.0000

> <Gold.Chemscore.Lipo>
96.7386

> <Gold.Chemscore.Internal_Hbond>
0.0000

> <Gold.Chemscore.DEClash>
1.6380

> <Gold.Chemscore.DEInternal>
3.1598

> <Gold.Chemscore.Rot>
2.0893

> <Gold.Chemscore.Internal.Correction>
   9.000000E+99

> <Gold.Chemscore.Hbonds>
donor molecule, donor type, donor heavy atom, donor atom, acceptor molecule, acceptor atom, score
      L1  H     6    45       P1  7948  0.98

> <Gold.Chemscore.Hbond.Weighted>
-3.3312

> <Gold.Chemscore.Metal.Weighted>
-0.0000

> <Gold.Chemscore.Lipo.Weighted>
-11.3184

> <Gold.Chemscore.Internal_Hbond.Weighted>
0.0000

> <Gold.Chemscore.DEClash.Weighted>
1.6380

> <Gold.Chemscore.DEInternal.Weighted>
3.1598

> <Gold.Chemscore.Rot.Weighted>
5.3486

> <Gold.Chemscore.Internal.Correction.Weighted>
   9.000000E+99

> <Gold.Protein.RotatedTorsions>
[ 6907 6896 6895 6894 ] final  144.10 input  -60.11 | X-H torsion
[ 7974 7965 7964 7962 ] final  -89.89 input  175.53 | X-H torsion
[ 8008 7997 7996 7995 ] final  -55.92 input   59.86 | X-H torsion
[ 10167 10162 10161 10158 ] final  -80.65 input  -65.29 | X-H torsion
[ 10718 10713 10712 10709 ] final -108.54 input   66.30 | X-H torsion
[ 10763 10752 10751 10750 ] final  -75.28 input  -60.55 | X-H torsion
[ 11005 11000 10999 10996 ] final  134.67 input  -57.11 | X-H torsion

> <Gold.Protein.ActiveResidues>
 VAL166  LYS551  ARG553  GLY616  TRP617  ASP618  TYR619  PRO620  LYS621  CYS622 
 ASP623  PHE694  ASN695  SER759  ASP760  ASP761  ALA762  ILE779  LEU786  VAL792 
 PHE793  MET794  SER795  GLU796  ALA797  LYS798  CYS799  TRP800  GLU811  SER814 

> <Gold.Protein.RotatedAtoms>
  152.1979  133.4820  159.5042 H   0  0  0  0  0  0  0  0  0  0  0  0  # atno 6907 bound_to 6896
  150.6964  134.1628  159.4192 H   0  0  0  0  0  0  0  0  0  0  0  0  # atno 6908 bound_to 6896
  151.9545  135.0153  160.0594 H   0  0  0  0  0  0  0  0  0  0  0  0  # atno 6909 bound_to 6896
  145.4337  140.9557  143.2113 H   0  0  0  0  0  0  0  0  0  0  0  0  # atno 7974 bound_to 7965
  154.4212  140.1141  156.5554 H   0  0  0  0  0  0  0  0  0  0  0  0  # atno 8008 bound_to 7997
  155.6366  140.3496  155.4681 H   0  0  0  0  0  0  0  0  0  0  0  0  # atno 8009 bound_to 7997
  155.9905  140.1178  157.0632 H   0  0  0  0  0  0  0  0  0  0  0  0  # atno 8010 bound_to 7997
  140.4484  143.2491  151.8525 H   0  0  0  0  0  0  0  0  0  0  0  0  # atno 10167 bound_to 10162
  156.0490  130.5718  150.7975 H   0  0  0  0  0  0  0  0  0  0  0  0  # atno 10718 bound_to 10713
  154.4845  135.5836  153.6413 H   0  0  0  0  0  0  0  0  0  0  0  0  # atno 10763 bound_to 10752
  152.9852  135.6098  154.3204 H   0  0  0  0  0  0  0  0  0  0  0  0  # atno 10764 bound_to 10752
  154.3098  135.2845  155.2550 H   0  0  0  0  0  0  0  0  0  0  0  0  # atno 10765 bound_to 10752
  139.9930  134.9508  156.9900 H   0  0  0  0  0  0  0  0  0  0  0  0  # atno 11005 bound_to 11000
  144.8166  139.5866  143.7006 LP  0  0  0  0  0  0  0  0  0  0  0  0  # atno 17320 bound_to 7965
  146.2593  139.6374  142.9373 LP  0  0  0  0  0  0  0  0  0  0  0  0  # atno 17321 bound_to 7965
  139.4794  144.5149  151.8882 LP  0  0  0  0  0  0  0  0  0  0  0  0  # atno 17342 bound_to 10162
  140.4237  144.2209  150.5887 LP  0  0  0  0  0  0  0  0  0  0  0  0  # atno 17343 bound_to 10162
  157.5398  131.0940  150.9843 LP  0  0  0  0  0  0  0  0  0  0  0  0  # atno 17370 bound_to 10713
  157.0129  130.5644  149.5323 LP  0  0  0  0  0  0  0  0  0  0  0  0  # atno 17371 bound_to 10713
  140.4872  134.1230  155.7226 LP  0  0  0  0  0  0  0  0  0  0  0  0  # atno 17394 bound_to 11000
  141.1581  133.8844  157.1921 LP  0  0  0  0  0  0  0  0  0  0  0  0  # atno 17395 bound_to 11000

$$$$
