AV-unprocessed.smi:743|AV-procd|sdf|3560|dock10
  -GOLD-   22720 0563D 1   1.00000     0.00000
 Structure written by MMmdl.
 29 30  0  0  0  0  0  0  0  0  2 V2000
  142.1187  137.6824  154.7754 C   0  0  0  0  0  0  0  0  0  0  0  0
  142.6104  136.6981  153.8352 N   0  0  0  0  0  0  0  0  0  0  0  0
  143.2288  136.9013  152.6212 C   0  0  0  0  0  0  0  0  0  0  0  0
  143.5074  135.6723  152.0860 C   0  0  0  0  0  0  0  0  0  0  0  0
  144.1692  135.3179  150.7692 C   0  0  2  0  0  0  0  0  0  0  0  0
  143.6552  134.0462  150.2538 N   0  0  0  0  0  0  0  0  0  0  0  0
  144.2339  132.8370  150.3786 C   0  0  0  0  0  0  0  0  0  0  0  0
  143.6621  131.8136  150.0121 O   0  0  0  0  0  0  0  0  0  0  0  0
  145.6612  132.7409  150.9440 C   0  0  0  0  0  0  0  0  0  0  0  0
  146.1595  134.0226  151.6364 C   0  0  0  0  0  0  0  0  0  0  0  0
  145.7135  135.2751  150.8702 C   0  0  2  0  0  0  0  0  0  0  0  0
  146.2779  136.5054  151.4560 N   0  3  0  0  0  0  0  0  0  0  0  0
  143.0222  134.7722  153.0791 C   0  0  0  0  0  0  0  0  0  0  0  0
  142.4809  135.3864  154.1170 N   0  0  0  0  0  0  0  0  0  0  0  0
  146.1194  135.2081  149.8596 H   0  0  0  0  0  0  0  0  0  0  0  0
  142.2802  138.6871  154.3842 H   0  0  0  0  0  0  0  0  0  0  0  0
  142.6467  137.5828  155.7243 H   0  0  0  0  0  0  0  0  0  0  0  0
  141.0511  137.5346  154.9412 H   0  0  0  0  0  0  0  0  0  0  0  0
  143.4125  137.8947  152.2381 H   0  0  0  0  0  0  0  0  0  0  0  0
  143.9068  136.0712  150.0252 H   0  0  0  0  0  0  0  0  0  0  0  0
  142.7365  134.0731  149.8345 H   0  0  0  0  0  0  0  0  0  0  0  0
  145.7260  131.8962  151.6304 H   0  0  0  0  0  0  0  0  0  0  0  0
  146.3202  132.5081  150.1070 H   0  0  0  0  0  0  0  0  0  0  0  0
  145.7909  134.0539  152.6627 H   0  0  0  0  0  0  0  0  0  0  0  0
  147.2474  133.9937  151.7058 H   0  0  0  0  0  0  0  0  0  0  0  0
  146.1100  137.2813  150.8314 H   0  0  0  0  0  0  0  0  0  0  0  0
  147.2724  136.3910  151.5906 H   0  0  0  0  0  0  0  0  0  0  0  0
  143.0417  133.6923  153.0714 H   0  0  0  0  0  0  0  0  0  0  0  0
  145.8370  136.6887  152.3462 H   0  0  0  0  0  0  0  0  0  0  0  0
  1  2  1  0  0  0  0
  1 16  1  0  0  0  0
  1 17  1  0  0  0  0
  1 18  1  0  0  0  0
  2 14  1  0  0  0  0
  2  3  1  0  0  0  0
  3  4  2  0  0  0  0
  3 19  1  0  0  0  0
  4  5  1  0  0  0  0
  4 13  1  0  0  0  0
  5 11  1  0  0  0  0
  5  6  1  0  0  0  0
  5 20  1  0  0  0  0
  6  7  1  0  0  0  0
  6 21  1  0  0  0  0
  7  8  2  0  0  0  0
  7  9  1  0  0  0  0
  9 10  1  0  0  0  0
  9 22  1  0  0  0  0
  9 23  1  0  0  0  0
 10 11  1  0  0  0  0
 10 24  1  0  0  0  0
 10 25  1  0  0  0  0
 11 15  1  0  0  0  0
 11 12  1  0  0  0  0
 12 26  1  0  0  0  0
 12 27  1  0  0  0  0
 12 29  1  0  0  0  0
 13 14  2  0  0  0  0
 13 28  1  0  0  0  0
M  CHG  1  12   1
M  END
> <s_m_source_file>
AV-unprocessed.smi

> <i_m_source_file_index>
743

> <i_lp_mmshare_version>
43012

> <i_f3d_flags>
0

> <s_epik_input>
W0NIM11uMVtjSF1jKFtjSF1uMSlbQ0BASF0yW05IXUMoPU8pW0NIMl1bQ0gyXVtDQEBIXTJbTkgyXQ==

> <s_epik_cmdline>
J2VwaWtfcHl0aG9uJywgJy1waCcsICc3LjAnLCAnLXRuJywgJzgnLCAnLW1hJywgJzIwMCcsICctbWV0YWxfYmluZGluZycsICctaW1hZScsICc8aW5maWxlLm1hZT4nLCAnLW9tYWUnLCAnPG91dGZpbGUubWFlPic=

> <r_lp_tautomer_probability>
1

> <r_epik_Ionization_Penalty>
0.00878543

> <r_epik_Ionization_Penalty_Charging>
0.00874185

> <r_epik_Ionization_Penalty_Neutral>
4.35793e-05

> <r_epik_State_Penalty>
0.00660351

> <r_epik_Charging_Adjusted_Penalty>
0.0153454

> <i_epik_Tot_Q>
1

> <i_epik_Tot_abs_Q>
1

> <r_epik_Metal_State_Penalty>
0.00660727

> <b_epik_Metal_Only>
0

> <s_lp_Force_Field>
OPLS_2005

> <r_lp_Energy>
11.1602

> <b_lp_Chiralities_Consistent>
1

> <s_lp_Variant>
AV-unprocessed.smi:743-1

> <Gold.Version>
5.8.1

> <Gold.Id.Protein>
6NUR|6NUR_protein|mol2

> <Gold.PLP.Fitness>
43.3206

> <Gold.PLP.PLP>
-25.5547

> <Gold.PLP.part.hbond>
-2.9677

> <Gold.PLP.part.metal>
0.0000

> <Gold.PLP.part.buried>
-6.5462

> <Gold.PLP.part.nonpolar>
-17.3299

> <Gold.PLP.part.repulsive>
0.3857

> <Gold.PLP.ligand.clash>
0.0000

> <Gold.PLP.ligand.torsion>
0.7373

> <Gold.PLP.Chemscore.Hbond>
3.6635

> <Gold.PLP.Chemscore.CHOScore>
2.7437

> <Gold.PLP.Chemscore.Metal>
0.0000

> <Gold.Chemscore.Hbonds>
donor molecule, donor type, donor heavy atom, donor atom, acceptor molecule, acceptor atom, score
      L1  H     6    21       P1 10186  1.00
      L1  H    12    27       P1  7948  2.00
      P1  H 10785 10796       L1     8  0.66
      L1  C     3    19       P1 10171  0.92
      L1  C     3    19       P1 10175  0.94
      L1  C    13    28       P1 10957  0.83

> <Gold.PLP.Chemscore.Internal.Correction>
0.0189

> <Gold.Rescore>
     Score         DG    S(hbond)    S(metal)    S(lipo)     H(rot)  DE(clash)    DE(int)     intcor
     17.03     -17.63       2.94        0.00      41.67       1.00       0.05       0.55       ----

> <Gold.Chemscore.Fitness>
17.0334

> <Gold.Chemscore.DG>
-17.6307

> <Gold.Chemscore.ZeroCoef>
-5.4800

> <Gold.Chemscore.Hbond>
2.9447

> <Gold.Chemscore.Metal>
0.0000

> <Gold.Chemscore.Lipo>
41.6699

> <Gold.Chemscore.Internal_Hbond>
0.0000

> <Gold.Chemscore.DEClash>
0.0460

> <Gold.Chemscore.DEInternal>
0.5512

> <Gold.Chemscore.Rot>
1.0000

> <Gold.Chemscore.Internal.Correction>
   9.000000E+99

> <Gold.Chemscore.Hbonds>
donor molecule, donor type, donor heavy atom, donor atom, acceptor molecule, acceptor atom, score
      L1  H     6    21       P1 10186  1.00
      L1  H    12    27       P1  7948  1.00
      P1  H 10785 10796       L1     8  0.63

> <Gold.Chemscore.Hbond.Weighted>
-9.8353

> <Gold.Chemscore.Metal.Weighted>
-0.0000

> <Gold.Chemscore.Lipo.Weighted>
-4.8754

> <Gold.Chemscore.Internal_Hbond.Weighted>
0.0000

> <Gold.Chemscore.DEClash.Weighted>
0.0460

> <Gold.Chemscore.DEInternal.Weighted>
0.5512

> <Gold.Chemscore.Rot.Weighted>
2.5600

> <Gold.Chemscore.Internal.Correction.Weighted>
   9.000000E+99

> <Gold.Protein.RotatedTorsions>
[ 6907 6896 6895 6894 ] final -151.58 input  -60.11 | X-H torsion
[ 7974 7965 7964 7962 ] final   -3.75 input  175.53 | X-H torsion
[ 8008 7997 7996 7995 ] final  -45.18 input   59.86 | X-H torsion
[ 10167 10162 10161 10158 ] final   80.14 input  -65.29 | X-H torsion
[ 10718 10713 10712 10709 ] final   24.33 input   66.30 | X-H torsion
[ 10763 10752 10751 10750 ] final -103.20 input  -60.55 | X-H torsion
[ 11005 11000 10999 10996 ] final -157.08 input  -57.11 | X-H torsion

> <Gold.Protein.ActiveResidues>
 VAL166  LYS551  ARG553  GLY616  TRP617  ASP618  TYR619  PRO620  LYS621  CYS622 
 ASP623  PHE694  ASN695  SER759  ASP760  ASP761  ALA762  ILE779  LEU786  VAL792 
 PHE793  MET794  SER795  GLU796  ALA797  LYS798  CYS799  TRP800  GLU811  SER814 

> <Gold.Protein.RotatedAtoms>
  151.2152  133.4533  159.2598 H   0  0  0  0  0  0  0  0  0  0  0  0  # atno 6907 bound_to 6896
  151.0938  134.9932  159.8426 H   0  0  0  0  0  0  0  0  0  0  0  0  # atno 6908 bound_to 6896
  152.5437  134.2083  159.8793 H   0  0  0  0  0  0  0  0  0  0  0  0  # atno 6909 bound_to 6896
  146.2384  140.1768  142.8332 H   0  0  0  0  0  0  0  0  0  0  0  0  # atno 7974 bound_to 7965
  154.4000  140.1403  156.3805 H   0  0  0  0  0  0  0  0  0  0  0  0  # atno 8008 bound_to 7997
  155.8008  140.3476  155.5381 H   0  0  0  0  0  0  0  0  0  0  0  0  # atno 8009 bound_to 7997
  155.8486  140.0938  157.1680 H   0  0  0  0  0  0  0  0  0  0  0  0  # atno 8010 bound_to 7997
  139.9529  144.6014  150.8144 H   0  0  0  0  0  0  0  0  0  0  0  0  # atno 10167 bound_to 10162
  157.1784  130.6791  149.6104 H   0  0  0  0  0  0  0  0  0  0  0  0  # atno 10718 bound_to 10713
  154.7790  135.4832  153.9804 H   0  0  0  0  0  0  0  0  0  0  0  0  # atno 10763 bound_to 10752
  153.1467  135.6783  153.8951 H   0  0  0  0  0  0  0  0  0  0  0  0  # atno 10764 bound_to 10752
  153.8608  135.3155  155.3416 H   0  0  0  0  0  0  0  0  0  0  0  0  # atno 10765 bound_to 10752
  140.6685  134.4272  157.5232 H   0  0  0  0  0  0  0  0  0  0  0  0  # atno 11005 bound_to 11000
  144.9967  140.8595  143.5306 LP  0  0  0  0  0  0  0  0  0  0  0  0  # atno 17320 bound_to 7965
  145.1781  139.2367  143.5307 LP  0  0  0  0  0  0  0  0  0  0  0  0  # atno 17321 bound_to 7965
  140.7577  143.3092  151.2886 LP  0  0  0  0  0  0  0  0  0  0  0  0  # atno 17342 bound_to 10162
  139.6614  144.0182  152.2695 LP  0  0  0  0  0  0  0  0  0  0  0  0  # atno 17343 bound_to 10162
  155.9728  130.4655  150.6256 LP  0  0  0  0  0  0  0  0  0  0  0  0  # atno 17370 bound_to 10713
  157.3976  131.0805  151.1337 LP  0  0  0  0  0  0  0  0  0  0  0  0  # atno 17371 bound_to 10713
  139.8989  134.8603  156.1982 LP  0  0  0  0  0  0  0  0  0  0  0  0  # atno 17394 bound_to 11000
  141.0410  133.6938  156.1598 LP  0  0  0  0  0  0  0  0  0  0  0  0  # atno 17395 bound_to 11000

$$$$
