AV-unprocessed.smi:1800|AV-procd|sdf|7263|dock5
  -GOLD-   22720 8513D 1   1.00000     0.00000
 Structure written by MMmdl.
 36 37  0  0  0  0  0  0  0  0  1 V2000
  155.0722  140.1992  159.3479 C   0  0  0  0  0  0  0  0  0  0  0  0
  153.8870  141.1415  159.1026 C   0  0  2  0  0  0  0  0  0  0  0  0
  153.7595  142.2187  160.1966 C   0  0  0  0  0  0  0  0  0  0  0  0
  152.5701  143.0367  160.0322 N   0  0  0  0  0  0  0  0  0  0  0  0
  152.1668  144.1208  160.7832 C   0  0  0  0  0  0  0  0  0  0  0  0
  150.9954  144.5734  160.2475 C   0  0  0  0  0  0  0  0  0  0  0  0
  150.7565  143.6870  159.1606 C   0  0  0  0  0  0  0  0  0  0  0  0
  151.6989  142.7664  159.0360 N   0  0  0  0  0  0  0  0  0  0  0  0
  152.6531  140.3535  159.0237 N   0  0  0  0  0  0  0  0  0  0  0  0
  152.5048  139.1555  157.7921 S   0  0  0  0  0  0  0  0  0  0  0  0
  152.6036  139.8434  156.4951 O   0  0  0  0  0  0  0  0  0  0  0  0
  153.4487  138.0772  158.1235 O   0  0  0  0  0  0  0  0  0  0  0  0
  150.7646  138.5581  158.0414 C   0  0  0  0  0  0  0  0  0  0  0  0
  150.3607  137.5643  156.9490 C   0  0  0  0  0  0  0  0  0  0  0  0
  149.9623  138.4407  155.7592 C   0  0  0  0  0  0  0  0  0  0  0  0
  149.4172  139.7425  156.3665 C   0  0  0  0  0  0  0  0  0  0  0  0
  149.7488  139.6933  157.8660 C   0  0  0  0  0  0  0  0  0  0  0  0
  156.0112  140.7521  159.3805 H   0  0  0  0  0  0  0  0  0  0  0  0
  155.1552  139.4574  158.5528 H   0  0  0  0  0  0  0  0  0  0  0  0
  154.9674  139.6662  160.2935 H   0  0  0  0  0  0  0  0  0  0  0  0
  154.0528  141.6376  158.1452 H   0  0  0  0  0  0  0  0  0  0  0  0
  153.7497  141.7619  161.1878 H   0  0  0  0  0  0  0  0  0  0  0  0
  154.6249  142.8820  160.1692 H   0  0  0  0  0  0  0  0  0  0  0  0
  152.7447  144.4796  161.6220 H   0  0  0  0  0  0  0  0  0  0  0  0
  150.4009  145.4111  160.5803 H   0  0  0  0  0  0  0  0  0  0  0  0
  149.9325  143.6856  158.4624 H   0  0  0  0  0  0  0  0  0  0  0  0
  152.3892  139.9834  159.9364 H   0  0  0  0  0  0  0  0  0  0  0  0
  150.7066  138.0995  159.0290 H   0  0  0  0  0  0  0  0  0  0  0  0
  151.1417  136.8456  156.7010 H   0  0  0  0  0  0  0  0  0  0  0  0
  149.4927  136.9948  157.2842 H   0  0  0  0  0  0  0  0  0  0  0  0
  150.8432  138.6605  155.1545 H   0  0  0  0  0  0  0  0  0  0  0  0
  149.2360  137.9480  155.1121 H   0  0  0  0  0  0  0  0  0  0  0  0
  149.8819  140.6072  155.8910 H   0  0  0  0  0  0  0  0  0  0  0  0
  148.3406  139.8291  156.2164 H   0  0  0  0  0  0  0  0  0  0  0  0
  148.8439  139.4519  158.4250 H   0  0  0  0  0  0  0  0  0  0  0  0
  150.1119  140.6476  158.2467 H   0  0  0  0  0  0  0  0  0  0  0  0
  1  2  1  0  0  0  0
  1 18  1  0  0  0  0
  1 19  1  0  0  0  0
  1 20  1  0  0  0  0
  2  3  1  0  0  0  0
  2  9  1  0  0  0  0
  2 21  1  0  0  0  0
  3  4  1  0  0  0  0
  3 22  1  0  0  0  0
  3 23  1  0  0  0  0
  4  8  1  0  0  0  0
  4  5  1  0  0  0  0
  5  6  2  0  0  0  0
  5 24  1  0  0  0  0
  6  7  1  0  0  0  0
  6 25  1  0  0  0  0
  7  8  2  0  0  0  0
  7 26  1  0  0  0  0
  9 10  1  0  0  0  0
  9 27  1  0  0  0  0
 10 11  2  0  0  0  0
 10 12  2  0  0  0  0
 10 13  1  0  0  0  0
 13 17  1  0  0  0  0
 13 14  1  0  0  0  0
 13 28  1  0  0  0  0
 14 15  1  0  0  0  0
 14 29  1  0  0  0  0
 14 30  1  0  0  0  0
 15 16  1  0  0  0  0
 15 31  1  0  0  0  0
 15 32  1  0  0  0  0
 16 17  1  0  0  0  0
 16 33  1  0  0  0  0
 16 34  1  0  0  0  0
 17 35  1  0  0  0  0
 17 36  1  0  0  0  0
M  END
> <s_m_source_file>
AV-unprocessed.smi

> <i_m_source_file_index>
1800

> <i_lp_mmshare_version>
43012

> <i_f3d_flags>
0

> <s_epik_input>
bjFbY0hdW2NIXVtjSF1uMVtDSDJdW0NAQEhdKFtDSDNdKVtOSF1TKD1PKSg9TylbQ0hdMltDSDJdW0NIMl1bQ0gyXVtDSDJdMg==

> <s_epik_cmdline>
J2VwaWtfcHl0aG9uJywgJy1waCcsICc3LjAnLCAnLXRuJywgJzgnLCAnLW1hJywgJzIwMCcsICctbWV0YWxfYmluZGluZycsICctaW1hZScsICc8aW5maWxlLm1hZT4nLCAnLW9tYWUnLCAnPG91dGZpbGUubWFlPic=

> <r_lp_tautomer_probability>
1

> <r_epik_Ionization_Penalty>
1.44925e-05

> <r_epik_Ionization_Penalty_Charging>
0

> <r_epik_Ionization_Penalty_Neutral>
1.44925e-05

> <r_epik_State_Penalty>
-0

> <r_epik_Charging_Adjusted_Penalty>
0

> <i_epik_Tot_Q>
0

> <i_epik_Tot_abs_Q>
0

> <r_epik_Metal_State_Penalty>
0.00862991

> <b_epik_Metal_Only>
0

> <s_lp_Force_Field>
OPLS_2005

> <r_lp_Energy>
14.2601

> <b_lp_Chiralities_Consistent>
1

> <s_lp_Variant>
AV-unprocessed.smi:1800-1

> <Gold.Version>
5.8.1

> <Gold.Id.Protein>
6NUR|6NUR_protein|mol2

> <Gold.PLP.Fitness>
41.1035

> <Gold.PLP.PLP>
-35.2204

> <Gold.PLP.part.hbond>
-1.0000

> <Gold.PLP.part.metal>
0.0000

> <Gold.PLP.part.buried>
-3.7762

> <Gold.PLP.part.nonpolar>
-29.8291

> <Gold.PLP.part.repulsive>
0.0361

> <Gold.PLP.ligand.clash>
0.0000

> <Gold.PLP.ligand.torsion>
0.2078

> <Gold.PLP.Chemscore.Hbond>
1.0000

> <Gold.PLP.Chemscore.CHOScore>
1.0000

> <Gold.PLP.Chemscore.Metal>
0.0000

> <Gold.Chemscore.Hbonds>
donor molecule, donor type, donor heavy atom, donor atom, acceptor molecule, acceptor atom, score
      P1  H  7997  8010       L1    11  1.00

> <Gold.PLP.Chemscore.Internal.Correction>
0.2988

> <Gold.Rescore>
     Score         DG    S(hbond)    S(metal)    S(lipo)     H(rot)  DE(clash)    DE(int)     intcor
     13.10     -14.62       1.00        0.00      88.11       1.76       0.02       1.50       ----

> <Gold.Chemscore.Fitness>
13.1048

> <Gold.Chemscore.DG>
-14.6249

> <Gold.Chemscore.ZeroCoef>
-5.4800

> <Gold.Chemscore.Hbond>
0.9992

> <Gold.Chemscore.Metal>
0.0000

> <Gold.Chemscore.Lipo>
88.1149

> <Gold.Chemscore.Internal_Hbond>
0.0000

> <Gold.Chemscore.DEClash>
0.0203

> <Gold.Chemscore.DEInternal>
1.4998

> <Gold.Chemscore.Rot>
1.7585

> <Gold.Chemscore.Internal.Correction>
   9.000000E+99

> <Gold.Chemscore.Hbonds>
donor molecule, donor type, donor heavy atom, donor atom, acceptor molecule, acceptor atom, score
      P1  H  7997  8010       L1    11  0.40

> <Gold.Chemscore.Hbond.Weighted>
-3.3374

> <Gold.Chemscore.Metal.Weighted>
-0.0000

> <Gold.Chemscore.Lipo.Weighted>
-10.3094

> <Gold.Chemscore.Internal_Hbond.Weighted>
0.0000

> <Gold.Chemscore.DEClash.Weighted>
0.0203

> <Gold.Chemscore.DEInternal.Weighted>
1.4998

> <Gold.Chemscore.Rot.Weighted>
4.5019

> <Gold.Chemscore.Internal.Correction.Weighted>
   9.000000E+99

> <Gold.Protein.RotatedTorsions>
[ 6907 6896 6895 6894 ] final   30.94 input  -60.11 | X-H torsion
[ 7974 7965 7964 7962 ] final   70.38 input  175.53 | X-H torsion
[ 8008 7997 7996 7995 ] final   77.62 input   59.86 | X-H torsion
[ 10167 10162 10161 10158 ] final  -31.18 input  -65.29 | X-H torsion
[ 10718 10713 10712 10709 ] final  169.69 input   66.30 | X-H torsion
[ 10763 10752 10751 10750 ] final   -8.25 input  -60.55 | X-H torsion
[ 11005 11000 10999 10996 ] final  -17.52 input  -57.11 | X-H torsion

> <Gold.Protein.ActiveResidues>
 VAL166  LYS551  ARG553  GLY616  TRP617  ASP618  TYR619  PRO620  LYS621  CYS622 
 ASP623  PHE694  ASN695  SER759  ASP760  ASP761  ALA762  ILE779  LEU786  VAL792 
 PHE793  MET794  SER795  GLU796  ALA797  LYS798  CYS799  TRP800  GLU811  SER814 

> <Gold.Protein.RotatedAtoms>
  152.0531  134.9641  160.0574 H   0  0  0  0  0  0  0  0  0  0  0  0  # atno 6907 bound_to 6896
  152.1034  133.4257  159.4606 H   0  0  0  0  0  0  0  0  0  0  0  0  # atno 6908 bound_to 6896
  150.6840  134.2653  159.4609 H   0  0  0  0  0  0  0  0  0  0  0  0  # atno 6909 bound_to 6896
  145.7788  139.2878  143.1278 H   0  0  0  0  0  0  0  0  0  0  0  0  # atno 7974 bound_to 7965
  155.8442  140.3461  155.5651 H   0  0  0  0  0  0  0  0  0  0  0  0  # atno 8008 bound_to 7997
  155.8108  140.0898  157.1924 H   0  0  0  0  0  0  0  0  0  0  0  0  # atno 8009 bound_to 7997
  154.4006  140.1448  156.3372 H   0  0  0  0  0  0  0  0  0  0  0  0  # atno 8010 bound_to 7997
  140.7239  143.3791  151.1635 H   0  0  0  0  0  0  0  0  0  0  0  0  # atno 10167 bound_to 10162
  157.0189  131.0226  151.2780 H   0  0  0  0  0  0  0  0  0  0  0  0  # atno 10718 bound_to 10713
  153.4378  135.7013  153.6188 H   0  0  0  0  0  0  0  0  0  0  0  0  # atno 10763 bound_to 10752
  153.4576  135.3743  155.2320 H   0  0  0  0  0  0  0  0  0  0  0  0  # atno 10764 bound_to 10752
  154.8727  135.4012  154.3772 H   0  0  0  0  0  0  0  0  0  0  0  0  # atno 10765 bound_to 10752
  140.8177  133.8092  155.9627 H   0  0  0  0  0  0  0  0  0  0  0  0  # atno 11005 bound_to 11000
  146.0095  140.8448  142.9978 LP  0  0  0  0  0  0  0  0  0  0  0  0  # atno 17320 bound_to 7965
  144.6800  140.2469  143.7336 LP  0  0  0  0  0  0  0  0  0  0  0  0  # atno 17321 bound_to 7965
  139.7376  143.8974  152.3040 LP  0  0  0  0  0  0  0  0  0  0  0  0  # atno 17342 bound_to 10162
  139.8785  144.7030  150.8905 LP  0  0  0  0  0  0  0  0  0  0  0  0  # atno 17343 bound_to 10162
  157.5264  130.8030  149.7867 LP  0  0  0  0  0  0  0  0  0  0  0  0  # atno 17370 bound_to 10713
  156.0109  130.3834  150.2268 LP  0  0  0  0  0  0  0  0  0  0  0  0  # atno 17371 bound_to 10713
  140.9132  134.2234  157.4973 LP  0  0  0  0  0  0  0  0  0  0  0  0  # atno 17394 bound_to 11000
  139.8710  134.9759  156.4902 LP  0  0  0  0  0  0  0  0  0  0  0  0  # atno 17395 bound_to 11000

$$$$
