AV-unprocessed.smi:3189|AV-procd|sdf|12190|dock3
  -GOLD-   2272018 33D 1   1.00000     0.00000
 Structure written by MMmdl.
 30 31  0  0  0  0  0  0  0  0  1 V2000
  146.8121  139.7909  152.5684 C   0  0  0  0  0  0  0  0  0  0  0  0
  147.9382  139.7187  153.5827 C   0  0  0  0  0  0  0  0  0  0  0  0
  148.5285  138.5112  153.7168 N   0  0  0  0  0  0  0  0  0  0  0  0
  149.5312  138.3910  154.6108 C   0  0  0  0  0  0  0  0  0  0  0  0
  149.9948  139.4577  155.4043 C   0  0  0  0  0  0  0  0  0  0  0  0
  149.3874  140.7281  155.2569 C   0  0  0  0  0  0  0  0  0  0  0  0
  149.7588  141.8783  156.0078 N   0  0  0  0  0  0  0  0  0  0  0  0
  150.6828  142.0145  156.9795 C   0  0  0  0  0  0  0  0  0  0  0  0
  151.3932  141.1083  157.4093 O   0  0  0  0  0  0  0  0  0  0  0  0
  150.8182  143.2752  157.4282 N   0  0  0  0  0  0  0  0  0  0  0  0
  151.7084  143.7424  158.4472 C   0  0  1  0  0  0  0  0  0  0  0  0
  152.7803  144.7211  158.0225 C   0  0  0  0  0  0  0  0  0  0  0  0
  151.6254  145.1945  158.8669 C   0  0  2  0  0  0  0  0  0  0  0  0
  151.8493  145.5935  160.3093 C   0  0  0  0  0  0  0  0  0  0  0  0
  148.3257  140.8553  154.3304 C   0  0  0  0  0  0  0  0  0  0  0  0
  147.5184  142.3732  154.1133 Cl  0  0  0  0  0  0  0  0  0  0  0  0
  147.0205  140.5580  151.8223 H   0  0  0  0  0  0  0  0  0  0  0  0
  145.8728  140.0366  153.0643 H   0  0  0  0  0  0  0  0  0  0  0  0
  146.6813  138.8421  152.0461 H   0  0  0  0  0  0  0  0  0  0  0  0
  149.9755  137.4109  154.7010 H   0  0  0  0  0  0  0  0  0  0  0  0
  150.7910  139.2734  156.1079 H   0  0  0  0  0  0  0  0  0  0  0  0
  149.3052  142.7339  155.7216 H   0  0  0  0  0  0  0  0  0  0  0  0
  150.2844  143.9862  156.9491 H   0  0  0  0  0  0  0  0  0  0  0  0
  152.0239  143.0227  159.2016 H   0  0  0  0  0  0  0  0  0  0  0  0
  153.7547  144.6337  158.4996 H   0  0  0  0  0  0  0  0  0  0  0  0
  152.8008  145.0386  156.9816 H   0  0  0  0  0  0  0  0  0  0  0  0
  150.8795  145.8015  158.3568 H   0  0  0  0  0  0  0  0  0  0  0  0
  152.5928  144.9488  160.7788 H   0  0  0  0  0  0  0  0  0  0  0  0
  150.9166  145.5106  160.8674 H   0  0  0  0  0  0  0  0  0  0  0  0
  152.1981  146.6248  160.3634 H   0  0  0  0  0  0  0  0  0  0  0  0
  1  2  1  0  0  0  0
  1 17  1  0  0  0  0
  1 18  1  0  0  0  0
  1 19  1  0  0  0  0
  2 15  1  0  0  0  0
  2  3  2  0  0  0  0
  3  4  1  0  0  0  0
  4  5  2  0  0  0  0
  4 20  1  0  0  0  0
  5  6  1  0  0  0  0
  5 21  1  0  0  0  0
  6  7  1  0  0  0  0
  6 15  2  0  0  0  0
  7  8  1  0  0  0  0
  7 22  1  0  0  0  0
  8  9  2  0  0  0  0
  8 10  1  0  0  0  0
 10 11  1  0  0  0  0
 10 23  1  0  0  0  0
 11 13  1  0  0  0  0
 11 12  1  0  0  0  0
 11 24  1  0  0  0  0
 12 13  1  0  0  0  0
 12 25  1  0  0  0  0
 12 26  1  0  0  0  0
 13 14  1  0  0  0  0
 13 27  1  0  0  0  0
 14 28  1  0  0  0  0
 14 29  1  0  0  0  0
 14 30  1  0  0  0  0
 15 16  1  0  0  0  0
M  END
> <s_m_source_file>
AV-unprocessed.smi

> <i_m_source_file_index>
3189

> <i_lp_mmshare_version>
43012

> <i_f3d_flags>
0

> <s_epik_input>
W0NIM11jMW5bY0hdW2NIXWMoYzFDbClbTkhdQyg9TylbTkhdW0NAQEhdMltDSDJdW0NASF0yW0NIM10=

> <s_epik_cmdline>
J2VwaWtfcHl0aG9uJywgJy1waCcsICc3LjAnLCAnLXRuJywgJzgnLCAnLW1hJywgJzIwMCcsICctbWV0YWxfYmluZGluZycsICctaW1hZScsICc8aW5maWxlLm1hZT4nLCAnLW9tYWUnLCAnPG91dGZpbGUubWFlPic=

> <r_epik_Ionization_Penalty>
0.00994309

> <r_epik_Ionization_Penalty_Charging>
0

> <r_epik_Ionization_Penalty_Neutral>
0.00994309

> <r_epik_State_Penalty>
0.00754503

> <r_epik_Charging_Adjusted_Penalty>
0.00754503

> <i_epik_Tot_Q>
0

> <i_epik_Tot_abs_Q>
0

> <r_epik_Metal_State_Penalty>
0.00742071

> <b_epik_Metal_Only>
0

> <s_lp_Force_Field>
OPLS_2005

> <r_lp_Energy>
33.6012

> <b_lp_Chiralities_Consistent>
1

> <s_lp_Variant>
AV-unprocessed.smi:3189-4

> <Gold.Version>
5.8.1

> <Gold.Id.Protein>
6NUR|6NUR_protein|mol2

> <Gold.PLP.Fitness>
40.2068

> <Gold.PLP.PLP>
-34.2091

> <Gold.PLP.part.hbond>
-2.0000

> <Gold.PLP.part.metal>
0.0000

> <Gold.PLP.part.buried>
-1.8256

> <Gold.PLP.part.nonpolar>
-32.3458

> <Gold.PLP.part.repulsive>
1.3454

> <Gold.PLP.ligand.clash>
0.0000

> <Gold.PLP.ligand.torsion>
0.0192

> <Gold.PLP.Chemscore.Hbond>
2.0000

> <Gold.PLP.Chemscore.CHOScore>
0.0000

> <Gold.PLP.Chemscore.Metal>
0.0000

> <Gold.Chemscore.Hbonds>
donor molecule, donor type, donor heavy atom, donor atom, acceptor molecule, acceptor atom, score
      L1  H     7    22       P1  8028  1.00
      L1  H    10    23       P1  8028  1.00

> <Gold.PLP.Chemscore.Internal.Correction>
0.0360

> <Gold.Rescore>
     Score         DG    S(hbond)    S(metal)    S(lipo)     H(rot)  DE(clash)    DE(int)     intcor
     18.65     -19.99       1.84        0.00      93.29       1.00       0.13       1.20       ----

> <Gold.Chemscore.Fitness>
18.6541

> <Gold.Chemscore.DG>
-19.9886

> <Gold.Chemscore.ZeroCoef>
-5.4800

> <Gold.Chemscore.Hbond>
1.8424

> <Gold.Chemscore.Metal>
0.0000

> <Gold.Chemscore.Lipo>
93.2913

> <Gold.Chemscore.Internal_Hbond>
0.0000

> <Gold.Chemscore.DEClash>
0.1296

> <Gold.Chemscore.DEInternal>
1.2049

> <Gold.Chemscore.Rot>
1.0000

> <Gold.Chemscore.Internal.Correction>
   9.000000E+99

> <Gold.Chemscore.Hbonds>
donor molecule, donor type, donor heavy atom, donor atom, acceptor molecule, acceptor atom, score
      L1  H     7    22       P1  8028  0.93
      L1  H    10    23       P1  8028  0.92

> <Gold.Chemscore.Hbond.Weighted>
-6.1535

> <Gold.Chemscore.Metal.Weighted>
-0.0000

> <Gold.Chemscore.Lipo.Weighted>
-10.9151

> <Gold.Chemscore.Internal_Hbond.Weighted>
0.0000

> <Gold.Chemscore.DEClash.Weighted>
0.1296

> <Gold.Chemscore.DEInternal.Weighted>
1.2049

> <Gold.Chemscore.Rot.Weighted>
2.5600

> <Gold.Chemscore.Internal.Correction.Weighted>
   9.000000E+99

> <Gold.Protein.RotatedTorsions>
[ 6907 6896 6895 6894 ] final  102.26 input  -60.11 | X-H torsion
[ 7974 7965 7964 7962 ] final  112.68 input  175.53 | X-H torsion
[ 8008 7997 7996 7995 ] final  -75.03 input   59.86 | X-H torsion
[ 10167 10162 10161 10158 ] final  -75.11 input  -65.29 | X-H torsion
[ 10718 10713 10712 10709 ] final   32.08 input   66.30 | X-H torsion
[ 10763 10752 10751 10750 ] final  -22.94 input  -60.55 | X-H torsion
[ 11005 11000 10999 10996 ] final  -36.43 input  -57.11 | X-H torsion

> <Gold.Protein.ActiveResidues>
 VAL166  LYS551  ARG553  GLY616  TRP617  ASP618  TYR619  PRO620  LYS621  CYS622 
 ASP623  PHE694  ASN695  SER759  ASP760  ASP761  ALA762  ILE779  LEU786  VAL792 
 PHE793  MET794  SER795  GLU796  ALA797  LYS798  CYS799  TRP800  GLU811  SER814 

> <Gold.Protein.RotatedAtoms>
  152.5328  134.0002  159.7890 H   0  0  0  0  0  0  0  0  0  0  0  0  # atno 6907 bound_to 6896
  151.0222  133.5858  159.2677 H   0  0  0  0  0  0  0  0  0  0  0  0  # atno 6908 bound_to 6896
  151.2893  135.0744  159.9252 H   0  0  0  0  0  0  0  0  0  0  0  0  # atno 6909 bound_to 6896
  145.2264  139.2839  143.4191 H   0  0  0  0  0  0  0  0  0  0  0  0  # atno 7974 bound_to 7965
  154.5382  140.0751  156.8464 H   0  0  0  0  0  0  0  0  0  0  0  0  # atno 8008 bound_to 7997
  155.3235  140.3397  155.4222 H   0  0  0  0  0  0  0  0  0  0  0  0  # atno 8009 bound_to 7997
  156.1848  140.1665  156.8191 H   0  0  0  0  0  0  0  0  0  0  0  0  # atno 8010 bound_to 7997
  140.4970  143.2368  151.7814 H   0  0  0  0  0  0  0  0  0  0  0  0  # atno 10167 bound_to 10162
  157.2807  130.7253  149.6555 H   0  0  0  0  0  0  0  0  0  0  0  0  # atno 10718 bound_to 10713
  153.6598  135.6977  153.5181 H   0  0  0  0  0  0  0  0  0  0  0  0  # atno 10763 bound_to 10752
  153.2640  135.4235  155.0922 H   0  0  0  0  0  0  0  0  0  0  0  0  # atno 10764 bound_to 10752
  154.8455  135.3562  154.6143 H   0  0  0  0  0  0  0  0  0  0  0  0  # atno 10765 bound_to 10752
  140.9874  133.7023  156.1789 H   0  0  0  0  0  0  0  0  0  0  0  0  # atno 11005 bound_to 11000
  146.3363  140.2586  142.8601 LP  0  0  0  0  0  0  0  0  0  0  0  0  # atno 17320 bound_to 7965
  144.9717  140.8375  143.5451 LP  0  0  0  0  0  0  0  0  0  0  0  0  # atno 17321 bound_to 7965
  139.4863  144.4573  151.9583 LP  0  0  0  0  0  0  0  0  0  0  0  0  # atno 17342 bound_to 10162
  140.3661  144.2913  150.5926 LP  0  0  0  0  0  0  0  0  0  0  0  0  # atno 17343 bound_to 10162
  155.9664  130.4339  150.5025 LP  0  0  0  0  0  0  0  0  0  0  0  0  # atno 17370 bound_to 10713
  157.2969  131.0637  151.2095 LP  0  0  0  0  0  0  0  0  0  0  0  0  # atno 17371 bound_to 10713
  140.7093  134.4478  157.5582 LP  0  0  0  0  0  0  0  0  0  0  0  0  # atno 17394 bound_to 11000
  139.8976  134.8631  156.2035 LP  0  0  0  0  0  0  0  0  0  0  0  0  # atno 17395 bound_to 11000

$$$$
