AV-unprocessed.smi:104|AV-procd|sdf|994|dock10
  -GOLD-   2262017573D 1   1.00000     0.00000
 Structure written by MMmdl.
 47 49  0  0  0  0  0  0  0  0  1 V2000
  151.6544  138.8026  154.9115 C   0  0  0  0  0  0  0  0  0  0  0  0
  151.0526  137.4214  155.1375 C   0  0  0  0  0  0  0  0  0  0  0  0
  151.3656  136.4631  154.4312 O   0  0  0  0  0  0  0  0  0  0  0  0
  150.1872  137.3988  156.1625 O   0  0  0  0  0  0  0  0  0  0  0  0
  149.3745  136.2559  156.3784 C   0  0  0  0  0  0  0  0  0  0  0  0
  147.8908  136.6297  156.2097 C   0  0  1  0  0  0  0  0  0  0  0  0
  147.5147  136.2908  154.8739 O   0  0  0  0  0  0  0  0  0  0  0  0
  146.4977  135.3353  154.8796 C   0  0  1  0  0  0  0  0  0  0  0  0
  146.7174  134.3584  153.7655 N   0  0  0  0  0  0  0  0  0  0  0  0
  147.8471  133.6244  153.4879 C   0  0  0  0  0  0  0  0  0  0  0  0
  149.4180  133.7463  154.5566 Br  0  0  0  0  0  0  0  0  0  0  0  0
  147.8157  132.8518  152.4388 N   0  0  0  0  0  0  0  0  0  0  0  0
  146.5438  133.0819  151.9297 C   0  0  0  0  0  0  0  0  0  0  0  0
  145.8337  132.5974  150.8024 C   0  0  0  0  0  0  0  0  0  0  0  0
  146.3497  131.7122  149.9380 N   0  0  0  0  0  0  0  0  0  0  0  0
  144.5780  133.0524  150.5843 N   0  0  0  0  0  0  0  0  0  0  0  0
  144.0417  133.9389  151.4291 C   0  0  0  0  0  0  0  0  0  0  0  0
  144.5802  134.4806  152.5245 N   0  0  0  0  0  0  0  0  0  0  0  0
  145.8463  134.0198  152.7472 C   0  0  0  0  0  0  0  0  0  0  0  0
  146.5009  134.6752  156.2641 C   0  0  1  0  0  0  0  0  0  0  0  0
  147.4588  133.6189  156.3418 O   0  0  0  0  0  0  0  0  0  0  0  0
  147.5647  132.8629  157.4490 C   0  0  0  0  0  0  0  0  0  0  0  0
  148.7272  131.8829  157.3696 C   0  0  0  0  0  0  0  0  0  0  0  0
  146.8220  132.9023  158.4297 O   0  0  0  0  0  0  0  0  0  0  0  0
  146.9081  135.8627  157.1150 C   0  0  1  0  0  0  0  0  0  0  0  0
  147.4199  135.4538  158.3795 O   0  0  0  0  0  0  0  0  0  0  0  0
  147.5836  136.3499  159.3674 C   0  0  0  0  0  0  0  0  0  0  0  0
  148.3364  135.7695  160.5567 C   0  0  0  0  0  0  0  0  0  0  0  0
  147.2041  137.5207  159.3545 O   0  0  0  0  0  0  0  0  0  0  0  0
  151.1364  139.5566  155.5051 H   0  0  0  0  0  0  0  0  0  0  0  0
  151.5776  139.0799  153.8601 H   0  0  0  0  0  0  0  0  0  0  0  0
  152.7071  138.8043  155.1942 H   0  0  0  0  0  0  0  0  0  0  0  0
  149.6524  135.5037  155.6393 H   0  0  0  0  0  0  0  0  0  0  0  0
  149.5507  135.8190  157.3620 H   0  0  0  0  0  0  0  0  0  0  0  0
  147.7693  137.7054  156.3421 H   0  0  0  0  0  0  0  0  0  0  0  0
  145.5526  135.8283  154.6513 H   0  0  0  0  0  0  0  0  0  0  0  0
  147.2863  131.3605  150.0766 H   0  0  0  0  0  0  0  0  0  0  0  0
  145.8020  131.3989  149.1497 H   0  0  0  0  0  0  0  0  0  0  0  0
  143.0376  134.2604  151.1945 H   0  0  0  0  0  0  0  0  0  0  0  0
  145.4965  134.3335  156.5177 H   0  0  0  0  0  0  0  0  0  0  0  0
  148.8066  131.4668  156.3647 H   0  0  0  0  0  0  0  0  0  0  0  0
  148.5813  131.0611  158.0711 H   0  0  0  0  0  0  0  0  0  0  0  0
  149.6631  132.3856  157.6129 H   0  0  0  0  0  0  0  0  0  0  0  0
  146.0160  136.4764  157.2534 H   0  0  0  0  0  0  0  0  0  0  0  0
  147.9388  134.7889  160.8185 H   0  0  0  0  0  0  0  0  0  0  0  0
  148.2432  136.4228  161.4246 H   0  0  0  0  0  0  0  0  0  0  0  0
  149.3941  135.6622  160.3164 H   0  0  0  0  0  0  0  0  0  0  0  0
  1  2  1  0  0  0  0
  1 30  1  0  0  0  0
  1 31  1  0  0  0  0
  1 32  1  0  0  0  0
  2  3  2  0  0  0  0
  2  4  1  0  0  0  0
  4  5  1  0  0  0  0
  5  6  1  0  0  0  0
  5 33  1  0  0  0  0
  5 34  1  0  0  0  0
  6 25  1  0  0  0  0
  6  7  1  0  0  0  0
  6 35  1  0  0  0  0
  7  8  1  0  0  0  0
  8  9  1  0  0  0  0
  8 20  1  0  0  0  0
  8 36  1  0  0  0  0
  9 19  1  0  0  0  0
  9 10  1  0  0  0  0
 10 11  1  0  0  0  0
 10 12  2  0  0  0  0
 12 13  1  0  0  0  0
 13 19  2  0  0  0  0
 13 14  1  0  0  0  0
 14 15  1  0  0  0  0
 14 16  2  0  0  0  0
 15 37  1  0  0  0  0
 15 38  1  0  0  0  0
 16 17  1  0  0  0  0
 17 18  2  0  0  0  0
 17 39  1  0  0  0  0
 18 19  1  0  0  0  0
 20 21  1  0  0  0  0
 20 25  1  0  0  0  0
 20 40  1  0  0  0  0
 21 22  1  0  0  0  0
 22 23  1  0  0  0  0
 22 24  2  0  0  0  0
 23 41  1  0  0  0  0
 23 42  1  0  0  0  0
 23 43  1  0  0  0  0
 25 26  1  0  0  0  0
 25 44  1  0  0  0  0
 26 27  1  0  0  0  0
 27 28  1  0  0  0  0
 27 29  2  0  0  0  0
 28 45  1  0  0  0  0
 28 46  1  0  0  0  0
 28 47  1  0  0  0  0
M  END
> <s_m_source_file>
AV-unprocessed.smi

> <i_m_source_file_index>
104

> <i_lp_mmshare_version>
43012

> <i_f3d_flags>
0

> <s_epik_input>
W0NIM11DKD1PKU9bQ0gyXVtDQEBIXTFPW0NASF0oW0NAQEhdKE9DKD1PKVtDSDNdKVtDQEhdMU9DKD1PKVtDSDNdKW4oYyhCciluMiljKGMyMyluW2NIXW5jM1tOSDJd

> <s_epik_cmdline>
J2VwaWtfcHl0aG9uJywgJy1waCcsICc3LjAnLCAnLXRuJywgJzgnLCAnLW1hJywgJzIwMCcsICctbWV0YWxfYmluZGluZycsICctaW1hZScsICc8aW5maWxlLm1hZT4nLCAnLW9tYWUnLCAnPG91dGZpbGUubWFlPic=

> <r_lp_tautomer_probability>
1

> <r_epik_Ionization_Penalty>
7.36622e-05

> <r_epik_Ionization_Penalty_Charging>
0

> <r_epik_Ionization_Penalty_Neutral>
7.36622e-05

> <r_epik_State_Penalty>
-0

> <r_epik_Charging_Adjusted_Penalty>
0

> <i_epik_Tot_Q>
0

> <i_epik_Tot_abs_Q>
0

> <r_epik_Metal_State_Penalty>
-0

> <b_epik_Metal_Only>
0

> <s_epik_Chemistry_Notes>
This compound has an ester and may undergo hydrolysis at high or low pH. This compound contains an acetal/aminal-like group ( X-CH(R)-Y where X, Y are N, S, or O) that may be acid/base labile, releasing an aldehyde.

> <s_lp_Force_Field>
OPLS_2005

> <r_lp_Energy>
22.6214

> <b_lp_Chiralities_Consistent>
1

> <s_lp_Variant>
AV-unprocessed.smi:104-2

> <Gold.Version>
5.8.1

> <Gold.Id.Protein>
6NUR|6NUR_protein|mol2

> <Gold.PLP.Fitness>
35.2669

> <Gold.PLP.PLP>
-27.0753

> <Gold.PLP.part.hbond>
-3.0000

> <Gold.PLP.part.metal>
0.0000

> <Gold.PLP.part.buried>
-6.5219

> <Gold.PLP.part.nonpolar>
-20.0724

> <Gold.PLP.part.repulsive>
1.4365

> <Gold.PLP.ligand.clash>
0.0000

> <Gold.PLP.ligand.torsion>
1.2453

> <Gold.PLP.Chemscore.Hbond>
2.5200

> <Gold.PLP.Chemscore.CHOScore>
0.9663

> <Gold.PLP.Chemscore.Metal>
0.0000

> <Gold.Chemscore.Hbonds>
donor molecule, donor type, donor heavy atom, donor atom, acceptor molecule, acceptor atom, score
      L1  H    15    37       P1 10747  1.00
      P1  H  6934  6947       L1    29  0.54
      P1  H 10752 10763       L1     3  1.00
      L1  C    17    39       P1 10186  0.81

> <Gold.PLP.Chemscore.Internal.Correction>
0.2234

> <Gold.Rescore>
     Score         DG    S(hbond)    S(metal)    S(lipo)     H(rot)  DE(clash)    DE(int)     intcor
      3.48      -7.81       2.94        0.00      30.28       4.31       0.01       4.32       ----

> <Gold.Chemscore.Fitness>
3.4764

> <Gold.Chemscore.DG>
-7.8079

> <Gold.Chemscore.ZeroCoef>
-5.4800

> <Gold.Chemscore.Hbond>
2.9374

> <Gold.Chemscore.Metal>
0.0000

> <Gold.Chemscore.Lipo>
30.2804

> <Gold.Chemscore.Internal_Hbond>
0.0000

> <Gold.Chemscore.DEClash>
0.0128

> <Gold.Chemscore.DEInternal>
4.3188

> <Gold.Chemscore.Rot>
4.3070

> <Gold.Chemscore.Internal.Correction>
   9.000000E+99

> <Gold.Chemscore.Hbonds>
donor molecule, donor type, donor heavy atom, donor atom, acceptor molecule, acceptor atom, score
      L1  H    15    37       P1 10747  1.00
      P1  H  6934  6947       L1    29  0.53
      P1  H 10752 10763       L1     3  1.00

> <Gold.Chemscore.Hbond.Weighted>
-9.8110

> <Gold.Chemscore.Metal.Weighted>
-0.0000

> <Gold.Chemscore.Lipo.Weighted>
-3.5428

> <Gold.Chemscore.Internal_Hbond.Weighted>
0.0000

> <Gold.Chemscore.DEClash.Weighted>
0.0128

> <Gold.Chemscore.DEInternal.Weighted>
4.3188

> <Gold.Chemscore.Rot.Weighted>
11.0259

> <Gold.Chemscore.Internal.Correction.Weighted>
   9.000000E+99

> <Gold.Protein.RotatedTorsions>
[ 6907 6896 6895 6894 ] final -117.27 input  -60.11 | X-H torsion
[ 7974 7965 7964 7962 ] final   91.81 input  175.53 | X-H torsion
[ 8008 7997 7996 7995 ] final -151.21 input   59.86 | X-H torsion
[ 10167 10162 10161 10158 ] final  -17.23 input  -65.29 | X-H torsion
[ 10718 10713 10712 10709 ] final -104.50 input   66.30 | X-H torsion
[ 10763 10752 10751 10750 ] final   41.59 input  -60.55 | X-H torsion
[ 11005 11000 10999 10996 ] final -119.82 input  -57.11 | X-H torsion

> <Gold.Protein.ActiveResidues>
 VAL166  LYS551  ARG553  GLY616  TRP617  ASP618  TYR619  PRO620  LYS621  CYS622 
 ASP623  PHE694  ASN695  SER759  ASP760  ASP761  ALA762  ILE779  LEU786  VAL792 
 PHE793  MET794  SER795  GLU796  ALA797  LYS798  CYS799  TRP800  GLU811  SER814 

> <Gold.Protein.RotatedAtoms>
  150.8123  133.8400  159.3176 H   0  0  0  0  0  0  0  0  0  0  0  0  # atno 6907 bound_to 6896
  151.6182  135.1032  160.0105 H   0  0  0  0  0  0  0  0  0  0  0  0  # atno 6908 bound_to 6896
  152.4215  133.7083  159.6521 H   0  0  0  0  0  0  0  0  0  0  0  0  # atno 6909 bound_to 6896
  145.5006  139.2276  143.2779 H   0  0  0  0  0  0  0  0  0  0  0  0  # atno 7974 bound_to 7965
  155.6358  140.0696  157.2634 H   0  0  0  0  0  0  0  0  0  0  0  0  # atno 8008 bound_to 7997
  154.4195  140.1759  156.1570 H   0  0  0  0  0  0  0  0  0  0  0  0  # atno 8009 bound_to 7997
  155.9896  140.3346  155.6743 H   0  0  0  0  0  0  0  0  0  0  0  0  # atno 8010 bound_to 7997
  140.7244  143.5036  150.9837 H   0  0  0  0  0  0  0  0  0  0  0  0  # atno 10167 bound_to 10162
  156.0307  130.5518  150.7405 H   0  0  0  0  0  0  0  0  0  0  0  0  # atno 10718 bound_to 10713
  152.9904  135.6157  154.2812 H   0  0  0  0  0  0  0  0  0  0  0  0  # atno 10763 bound_to 10752
  154.2541  135.2784  155.2806 H   0  0  0  0  0  0  0  0  0  0  0  0  # atno 10764 bound_to 10752
  154.5263  135.5801  153.6779 H   0  0  0  0  0  0  0  0  0  0  0  0  # atno 10765 bound_to 10752
  141.0188  134.0156  157.3312 H   0  0  0  0  0  0  0  0  0  0  0  0  # atno 11005 bound_to 11000
  146.2228  140.5807  142.9009 LP  0  0  0  0  0  0  0  0  0  0  0  0  # atno 17320 bound_to 7965
  144.7782  140.5784  143.6623 LP  0  0  0  0  0  0  0  0  0  0  0  0  # atno 17321 bound_to 7965
  139.8747  143.7148  152.3163 LP  0  0  0  0  0  0  0  0  0  0  0  0  # atno 17342 bound_to 10162
  139.7409  144.7559  151.0654 LP  0  0  0  0  0  0  0  0  0  0  0  0  # atno 17343 bound_to 10162
  157.4975  131.0916  151.0354 LP  0  0  0  0  0  0  0  0  0  0  0  0  # atno 17370 bound_to 10713
  157.0744  130.5877  149.5408 LP  0  0  0  0  0  0  0  0  0  0  0  0  # atno 17371 bound_to 10713
  139.9133  135.0193  156.7780 LP  0  0  0  0  0  0  0  0  0  0  0  0  # atno 17394 bound_to 11000
  140.6609  133.9646  155.7804 LP  0  0  0  0  0  0  0  0  0  0  0  0  # atno 17395 bound_to 11000

$$$$
