AV-unprocessed.smi:3170|AV-procd|sdf|12107|dock4
  -GOLD-   2272017543D 1   1.00000     0.00000
 Structure written by MMmdl.
 36 37  0  0  0  0  0  0  0  0  2 V2000
  148.7483  133.3820  155.3745 O   0  0  0  0  0  0  0  0  0  0  0  0
  148.6966  134.1862  154.4436 C   0  0  0  0  0  0  0  0  0  0  0  0
  148.0933  133.9413  153.2719 N   0  0  0  0  0  0  0  0  0  0  0  0
  147.4371  132.6896  152.9045 C   0  0  0  0  0  0  0  0  0  0  0  0
  145.9217  132.7169  153.1790 C   0  0  0  0  0  0  0  0  0  0  0  0
  145.1209  132.7389  151.9510 N   0  0  0  0  0  0  0  0  0  0  0  0
  145.4522  132.1970  150.7356 C   0  0  0  0  0  0  0  0  0  0  0  0
  144.4012  132.4539  149.8937 C   0  0  0  0  0  0  0  0  0  0  0  0
  143.4757  133.1456  150.6285 N   0  3  0  0  0  0  0  0  0  0  0  0
  143.9166  133.3212  151.8783 C   0  0  0  0  0  0  0  0  0  0  0  0
  149.2314  135.4141  154.4812 N   0  0  0  0  0  0  0  0  0  0  0  0
  149.9589  135.9758  155.6142 C   0  0  0  0  0  0  0  0  0  0  0  0
  150.9300  137.0921  155.1842 C   0  0  2  0  0  0  0  0  0  0  0  0
  151.5846  137.8170  156.3417 C   0  0  0  0  0  0  0  0  0  0  0  0
  152.0765  139.0933  155.6675 C   0  0  0  0  0  0  0  0  0  0  0  0
  151.1129  139.3898  154.6614 O   0  0  0  0  0  0  0  0  0  0  0  0
  150.2808  138.2558  154.4305 C   0  0  0  0  0  0  0  0  0  0  0  0
  148.1082  134.6677  152.5705 H   0  0  0  0  0  0  0  0  0  0  0  0
  147.6019  132.5423  151.8370 H   0  0  0  0  0  0  0  0  0  0  0  0
  147.9082  131.8398  153.4019 H   0  0  0  0  0  0  0  0  0  0  0  0
  145.6177  131.8626  153.7863 H   0  0  0  0  0  0  0  0  0  0  0  0
  145.6643  133.6133  153.7444 H   0  0  0  0  0  0  0  0  0  0  0  0
  146.3839  131.6768  150.5666 H   0  0  0  0  0  0  0  0  0  0  0  0
  144.2464  132.2023  148.8547 H   0  0  0  0  0  0  0  0  0  0  0  0
  143.3970  133.8248  152.6739 H   0  0  0  0  0  0  0  0  0  0  0  0
  149.1359  136.0021  153.6657 H   0  0  0  0  0  0  0  0  0  0  0  0
  149.2276  136.3674  156.3219 H   0  0  0  0  0  0  0  0  0  0  0  0
  150.4999  135.1853  156.1370 H   0  0  0  0  0  0  0  0  0  0  0  0
  151.7194  136.6703  154.5595 H   0  0  0  0  0  0  0  0  0  0  0  0
  150.8477  138.0598  157.1088 H   0  0  0  0  0  0  0  0  0  0  0  0
  152.3884  137.2455  156.8071 H   0  0  0  0  0  0  0  0  0  0  0  0
  152.1908  139.9205  156.3684 H   0  0  0  0  0  0  0  0  0  0  0  0
  153.0401  138.9207  155.1863 H   0  0  0  0  0  0  0  0  0  0  0  0
  150.1761  138.0519  153.3645 H   0  0  0  0  0  0  0  0  0  0  0  0
  149.2894  138.4729  154.8303 H   0  0  0  0  0  0  0  0  0  0  0  0
  142.5848  133.4754  150.2788 H   0  0  0  0  0  0  0  0  0  0  0  0
  1  2  2  0  0  0  0
  2  3  1  0  0  0  0
  2 11  1  0  0  0  0
  3  4  1  0  0  0  0
  3 18  1  0  0  0  0
  4  5  1  0  0  0  0
  4 19  1  0  0  0  0
  4 20  1  0  0  0  0
  5  6  1  0  0  0  0
  5 21  1  0  0  0  0
  5 22  1  0  0  0  0
  6 10  1  0  0  0  0
  6  7  1  0  0  0  0
  7  8  2  0  0  0  0
  7 23  1  0  0  0  0
  8  9  1  0  0  0  0
  8 24  1  0  0  0  0
  9 10  2  0  0  0  0
  9 36  1  0  0  0  0
 10 25  1  0  0  0  0
 11 12  1  0  0  0  0
 11 26  1  0  0  0  0
 12 13  1  0  0  0  0
 12 27  1  0  0  0  0
 12 28  1  0  0  0  0
 13 17  1  0  0  0  0
 13 14  1  0  0  0  0
 13 29  1  0  0  0  0
 14 15  1  0  0  0  0
 14 30  1  0  0  0  0
 14 31  1  0  0  0  0
 15 16  1  0  0  0  0
 15 32  1  0  0  0  0
 15 33  1  0  0  0  0
 16 17  1  0  0  0  0
 17 34  1  0  0  0  0
 17 35  1  0  0  0  0
M  CHG  1   9   1
M  END
> <s_m_source_file>
AV-unprocessed.smi

> <i_m_source_file_index>
3170

> <i_lp_mmshare_version>
43012

> <i_f3d_flags>
0

> <s_epik_input>
W0NIMl0xT1tDSDJdW0NIMl1bQ0BIXTFbQ0gyXVtOSF1DKD1PKVtOSF1bQ0gyXVtDSDJdbjJbY0hdW2NIXW5bY0hdMg==

> <s_epik_cmdline>
J2VwaWtfcHl0aG9uJywgJy1waCcsICc3LjAnLCAnLXRuJywgJzgnLCAnLW1hJywgJzIwMCcsICctbWV0YWxfYmluZGluZycsICctaW1hZScsICc8aW5maWxlLm1hZT4nLCAnLW9tYWUnLCAnPG91dGZpbGUubWFlPic=

> <r_lp_tautomer_probability>
1

> <r_epik_Ionization_Penalty>
0.255699

> <r_epik_Ionization_Penalty_Charging>
0

> <r_epik_Ionization_Penalty_Neutral>
0.255699

> <r_epik_State_Penalty>
0.247169

> <r_epik_Charging_Adjusted_Penalty>
0.247169

> <i_epik_Tot_Q>
1

> <i_epik_Tot_abs_Q>
1

> <r_epik_Metal_State_Penalty>
0.536793

> <b_epik_Metal_Only>
0

> <s_lp_Force_Field>
OPLS_2005

> <r_lp_Energy>
19.7141

> <b_lp_Chiralities_Consistent>
1

> <s_lp_Variant>
AV-unprocessed.smi:3170-1

> <Gold.Version>
5.8.1

> <Gold.Id.Protein>
6NUR|6NUR_protein|mol2

> <Gold.PLP.Fitness>
45.9366

> <Gold.PLP.PLP>
-30.4254

> <Gold.PLP.part.hbond>
-3.9817

> <Gold.PLP.part.metal>
0.0000

> <Gold.PLP.part.buried>
-5.3596

> <Gold.PLP.part.nonpolar>
-21.6714

> <Gold.PLP.part.repulsive>
0.1756

> <Gold.PLP.ligand.clash>
0.0000

> <Gold.PLP.ligand.torsion>
1.0886

> <Gold.PLP.Chemscore.Hbond>
4.9745

> <Gold.PLP.Chemscore.CHOScore>
0.9083

> <Gold.PLP.Chemscore.Metal>
0.0000

> <Gold.Chemscore.Hbonds>
donor molecule, donor type, donor heavy atom, donor atom, acceptor molecule, acceptor atom, score
      L1  H     3    18       P1  7948  0.98
      L1  H     9    36       P1 10186  2.00
      L1  H    11    26       P1  7948  1.00
      P1  H  7989  7998       L1    16  1.00
      L1  C     7    23       P1 10747  0.50

> <Gold.PLP.Chemscore.Internal.Correction>
0.0398

> <Gold.Rescore>
     Score         DG    S(hbond)    S(metal)    S(lipo)     H(rot)  DE(clash)    DE(int)     intcor
     16.83     -17.84       3.52        0.00      56.10       2.33       0.00       1.01       ----

> <Gold.Chemscore.Fitness>
16.8343

> <Gold.Chemscore.DG>
-17.8413

> <Gold.Chemscore.ZeroCoef>
-5.4800

> <Gold.Chemscore.Hbond>
3.5207

> <Gold.Chemscore.Metal>
0.0000

> <Gold.Chemscore.Lipo>
56.1011

> <Gold.Chemscore.Internal_Hbond>
0.0000

> <Gold.Chemscore.DEClash>
0.0000

> <Gold.Chemscore.DEInternal>
1.0070

> <Gold.Chemscore.Rot>
2.3288

> <Gold.Chemscore.Internal.Correction>
   9.000000E+99

> <Gold.Chemscore.Hbonds>
donor molecule, donor type, donor heavy atom, donor atom, acceptor molecule, acceptor atom, score
      L1  H     3    18       P1  7948  0.47
      L1  H     9    36       P1 10186  0.98
      L1  H    11    26       P1  7948  0.84
      P1  H  7989  7998       L1    16  0.84

> <Gold.Chemscore.Hbond.Weighted>
-11.7591

> <Gold.Chemscore.Metal.Weighted>
-0.0000

> <Gold.Chemscore.Lipo.Weighted>
-6.5638

> <Gold.Chemscore.Internal_Hbond.Weighted>
0.0000

> <Gold.Chemscore.DEClash.Weighted>
0.0000

> <Gold.Chemscore.DEInternal.Weighted>
1.0070

> <Gold.Chemscore.Rot.Weighted>
5.9617

> <Gold.Chemscore.Internal.Correction.Weighted>
   9.000000E+99

> <Gold.Protein.RotatedTorsions>
[ 6907 6896 6895 6894 ] final  133.12 input  -60.11 | X-H torsion
[ 7974 7965 7964 7962 ] final   77.71 input  175.53 | X-H torsion
[ 8008 7997 7996 7995 ] final   66.55 input   59.86 | X-H torsion
[ 10167 10162 10161 10158 ] final -151.11 input  -65.29 | X-H torsion
[ 10718 10713 10712 10709 ] final   18.83 input   66.30 | X-H torsion
[ 10763 10752 10751 10750 ] final -158.81 input  -60.55 | X-H torsion
[ 11005 11000 10999 10996 ] final  -97.73 input  -57.11 | X-H torsion

> <Gold.Protein.ActiveResidues>
 VAL166  LYS551  ARG553  GLY616  TRP617  ASP618  TYR619  PRO620  LYS621  CYS622 
 ASP623  PHE694  ASN695  SER759  ASP760  ASP761  ALA762  ILE779  LEU786  VAL792 
 PHE793  MET794  SER795  GLU796  ALA797  LYS798  CYS799  TRP800  GLU811  SER814 

> <Gold.Protein.RotatedAtoms>
  152.3253  133.5898  159.5771 H   0  0  0  0  0  0  0  0  0  0  0  0  # atno 6907 bound_to 6896
  150.7393  133.9950  159.3628 H   0  0  0  0  0  0  0  0  0  0  0  0  # atno 6908 bound_to 6896
  151.7831  135.0757  160.0427 H   0  0  0  0  0  0  0  0  0  0  0  0  # atno 6909 bound_to 6896
  145.6865  139.2539  143.1784 H   0  0  0  0  0  0  0  0  0  0  0  0  # atno 7974 bound_to 7965
  155.6791  140.3496  155.4848 H   0  0  0  0  0  0  0  0  0  0  0  0  # atno 8008 bound_to 7997
  155.9622  140.1139  157.0908 H   0  0  0  0  0  0  0  0  0  0  0  0  # atno 8009 bound_to 7997
  154.4146  140.1173  156.5181 H   0  0  0  0  0  0  0  0  0  0  0  0  # atno 8010 bound_to 7997
  139.7296  143.8829  152.2530 H   0  0  0  0  0  0  0  0  0  0  0  0  # atno 10167 bound_to 10162
  157.1018  130.6471  149.5874 H   0  0  0  0  0  0  0  0  0  0  0  0  # atno 10718 bound_to 10713
  154.7526  135.3096  154.8529 H   0  0  0  0  0  0  0  0  0  0  0  0  # atno 10763 bound_to 10752
  153.9312  135.6785  153.4749 H   0  0  0  0  0  0  0  0  0  0  0  0  # atno 10764 bound_to 10752
  153.1123  135.4861  154.8984 H   0  0  0  0  0  0  0  0  0  0  0  0  # atno 10765 bound_to 10752
  141.1369  133.8192  157.0745 H   0  0  0  0  0  0  0  0  0  0  0  0  # atno 11005 bound_to 11000
  146.0919  140.7646  142.9591 LP  0  0  0  0  0  0  0  0  0  0  0  0  # atno 17320 bound_to 7965
  144.7009  140.3650  143.7156 LP  0  0  0  0  0  0  0  0  0  0  0  0  # atno 17321 bound_to 7965
  139.8748  144.7049  150.8945 LP  0  0  0  0  0  0  0  0  0  0  0  0  # atno 17342 bound_to 10162
  140.7769  143.3708  151.1652 LP  0  0  0  0  0  0  0  0  0  0  0  0  # atno 17343 bound_to 10162
  155.9872  130.4910  150.7113 LP  0  0  0  0  0  0  0  0  0  0  0  0  # atno 17370 bound_to 10713
  157.4634  131.0885  151.0721 LP  0  0  0  0  0  0  0  0  0  0  0  0  # atno 17371 bound_to 10713
  140.0490  134.9815  157.1102 LP  0  0  0  0  0  0  0  0  0  0  0  0  # atno 17394 bound_to 11000
  140.4018  134.2074  155.7163 LP  0  0  0  0  0  0  0  0  0  0  0  0  # atno 17395 bound_to 11000

$$$$
