AV-unprocessed.smi:1196|AV-procd|sdf|5001|dock5
  -GOLD-   22720 4 13D 1   1.00000     0.00000
 Structure written by MMmdl.
 36 37  0  0  0  0  0  0  0  0  2 V2000
  151.9675  144.2023  157.3239 C   0  0  0  0  0  0  0  0  0  0  0  0
  151.3057  142.8217  157.4568 C   0  0  1  0  0  0  0  0  0  0  0  0
  150.7488  142.6002  158.8763 C   0  0  0  0  0  0  0  0  0  0  0  0
  151.8011  142.4578  159.8671 N   0  0  0  0  0  0  0  0  0  0  0  0
  152.9301  141.6686  159.8076 C   0  0  0  0  0  0  0  0  0  0  0  0
  153.6203  141.8580  160.9705 C   0  0  0  0  0  0  0  0  0  0  0  0
  152.8221  142.7923  161.6884 C   0  0  0  0  0  0  0  0  0  0  0  0
  151.7349  143.1509  161.0247 N   0  0  0  0  0  0  0  0  0  0  0  0
  150.2362  142.6855  156.4699 N   0  0  0  0  0  0  0  0  0  0  0  0
  150.1009  141.6728  155.6003 C   0  0  0  0  0  0  0  0  0  0  0  0
  150.8882  140.7281  155.5361 O   0  0  0  0  0  0  0  0  0  0  0  0
  148.8897  141.7442  154.6667 C   0  0  0  0  0  0  0  0  0  0  0  0
  147.5507  141.8197  155.4256 C   0  0  0  0  0  0  0  0  0  0  0  0
  146.3440  142.0653  154.4952 C   0  0  2  0  0  0  0  0  0  0  0  0
  146.3438  143.4178  153.9650 N   0  5  0  0  0  0  0  0  0  0  0  0
  145.1889  144.0221  154.3308 C   0  0  0  0  0  0  0  0  0  0  0  0
  144.8198  145.1633  154.0630 O   0  0  0  0  0  0  0  0  0  0  0  0
  144.4361  143.1979  155.0666 N   0  0  0  0  0  0  0  0  0  0  0  0
  145.0245  142.0191  155.2409 C   0  0  0  0  0  0  0  0  0  0  0  0
  144.5986  141.0578  155.8795 O   0  0  0  0  0  0  0  0  0  0  0  0
  152.7790  144.3181  158.0425 H   0  0  0  0  0  0  0  0  0  0  0  0
  151.2502  145.0047  157.4996 H   0  0  0  0  0  0  0  0  0  0  0  0
  152.3897  144.3449  156.3288 H   0  0  0  0  0  0  0  0  0  0  0  0
  152.0664  142.0613  157.2701 H   0  0  0  0  0  0  0  0  0  0  0  0
  150.1290  143.4480  159.1705 H   0  0  0  0  0  0  0  0  0  0  0  0
  150.1041  141.7199  158.9067 H   0  0  0  0  0  0  0  0  0  0  0  0
  153.1444  141.0437  158.9530 H   0  0  0  0  0  0  0  0  0  0  0  0
  154.5521  141.3983  161.2642 H   0  0  0  0  0  0  0  0  0  0  0  0
  152.9999  143.2181  162.6649 H   0  0  0  0  0  0  0  0  0  0  0  0
  149.5345  143.4117  156.4575 H   0  0  0  0  0  0  0  0  0  0  0  0
  149.0049  142.6149  154.0205 H   0  0  0  0  0  0  0  0  0  0  0  0
  148.8879  140.8695  154.0146 H   0  0  0  0  0  0  0  0  0  0  0  0
  147.3996  140.8813  155.9623 H   0  0  0  0  0  0  0  0  0  0  0  0
  147.5982  142.5987  156.1892 H   0  0  0  0  0  0  0  0  0  0  0  0
  146.3184  141.3096  153.7089 H   0  0  0  0  0  0  0  0  0  0  0  0
  143.5367  143.4457  155.4509 H   0  0  0  0  0  0  0  0  0  0  0  0
  1  2  1  0  0  0  0
  1 21  1  0  0  0  0
  1 22  1  0  0  0  0
  1 23  1  0  0  0  0
  2  3  1  0  0  0  0
  2  9  1  0  0  0  0
  2 24  1  0  0  0  0
  3  4  1  0  0  0  0
  3 25  1  0  0  0  0
  3 26  1  0  0  0  0
  4  8  1  0  0  0  0
  4  5  1  0  0  0  0
  5  6  2  0  0  0  0
  5 27  1  0  0  0  0
  6  7  1  0  0  0  0
  6 28  1  0  0  0  0
  7  8  2  0  0  0  0
  7 29  1  0  0  0  0
  9 10  1  0  0  0  0
  9 30  1  0  0  0  0
 10 11  2  0  0  0  0
 10 12  1  0  0  0  0
 12 13  1  0  0  0  0
 12 31  1  0  0  0  0
 12 32  1  0  0  0  0
 13 14  1  0  0  0  0
 13 33  1  0  0  0  0
 13 34  1  0  0  0  0
 14 19  1  0  0  0  0
 14 15  1  0  0  0  0
 14 35  1  0  0  0  0
 15 16  1  0  0  0  0
 16 17  2  0  0  0  0
 16 18  1  0  0  0  0
 18 19  1  0  0  0  0
 18 36  1  0  0  0  0
 19 20  2  0  0  0  0
M  CHG  1  15  -1
M  END
> <s_m_source_file>
AV-unprocessed.smi

> <i_m_source_file_index>
1196

> <i_lp_mmshare_version>
43012

> <i_f3d_flags>
0

> <s_epik_input>
bjFbY0hdW2NIXVtjSF1uMVtDSDJdW0NAQEhdKFtDSDNdKVtOSF1DKD1PKVtDSDJdW0NIMl1bQ0BASF0yW05IXUMoPU8pW05IXUMyPU8=

> <s_epik_cmdline>
J2VwaWtfcHl0aG9uJywgJy1waCcsICc3LjAnLCAnLXRuJywgJzgnLCAnLW1hJywgJzIwMCcsICctbWV0YWxfYmluZGluZycsICctaW1hZScsICc8aW5maWxlLm1hZT4nLCAnLW9tYWUnLCAnPG91dGZpbGUubWFlPic=

> <r_lp_tautomer_probability>
1

> <r_epik_Ionization_Penalty>
5.79547

> <r_epik_Ionization_Penalty_Charging>
5.79516

> <r_epik_Ionization_Penalty_Neutral>
0.000313087

> <r_epik_State_Penalty>
5.80096

> <r_epik_Charging_Adjusted_Penalty>
11.5961

> <i_epik_Tot_Q>
-1

> <i_epik_Tot_abs_Q>
1

> <r_epik_Metal_State_Penalty>
2.14443

> <b_epik_Metal_Only>
1

> <s_lp_Force_Field>
OPLS_2005

> <r_lp_Energy>
12.2353

> <b_lp_Chiralities_Consistent>
1

> <s_lp_Variant>
AV-unprocessed.smi:1196-6

> <Gold.Version>
5.8.1

> <Gold.Id.Protein>
6NUR|6NUR_protein|mol2

> <Gold.PLP.Fitness>
44.4541

> <Gold.PLP.PLP>
-40.6729

> <Gold.PLP.part.hbond>
-3.3663

> <Gold.PLP.part.metal>
0.0000

> <Gold.PLP.part.buried>
-2.9387

> <Gold.PLP.part.nonpolar>
-31.9116

> <Gold.PLP.part.repulsive>
0.6827

> <Gold.PLP.ligand.clash>
0.0000

> <Gold.PLP.ligand.torsion>
0.3317

> <Gold.PLP.Chemscore.Hbond>
1.4534

> <Gold.PLP.Chemscore.CHOScore>
0.0000

> <Gold.PLP.Chemscore.Metal>
0.0000

> <Gold.Chemscore.Hbonds>
donor molecule, donor type, donor heavy atom, donor atom, acceptor molecule, acceptor atom, score
      L1  H     9    30       P1  8028  0.96
      P1  H  7989  7998       L1    11  0.55

> <Gold.PLP.Chemscore.Internal.Correction>
0.0846

> <Gold.Rescore>
     Score         DG    S(hbond)    S(metal)    S(lipo)     H(rot)  DE(clash)    DE(int)     intcor
     11.01     -11.37       0.99        0.00      85.34       2.89       0.05       0.31       ----

> <Gold.Chemscore.Fitness>
11.0130

> <Gold.Chemscore.DG>
-11.3666

> <Gold.Chemscore.ZeroCoef>
-5.4800

> <Gold.Chemscore.Hbond>
0.9915

> <Gold.Chemscore.Metal>
0.0000

> <Gold.Chemscore.Lipo>
85.3442

> <Gold.Chemscore.Internal_Hbond>
0.0000

> <Gold.Chemscore.DEClash>
0.0452

> <Gold.Chemscore.DEInternal>
0.3085

> <Gold.Chemscore.Rot>
2.8946

> <Gold.Chemscore.Internal.Correction>
   9.000000E+99

> <Gold.Chemscore.Hbonds>
donor molecule, donor type, donor heavy atom, donor atom, acceptor molecule, acceptor atom, score
      L1  H     9    30       P1  8028  0.92
      P1  H  7989  7998       L1    11  0.19

> <Gold.Chemscore.Hbond.Weighted>
-3.3115

> <Gold.Chemscore.Metal.Weighted>
-0.0000

> <Gold.Chemscore.Lipo.Weighted>
-9.9853

> <Gold.Chemscore.Internal_Hbond.Weighted>
0.0000

> <Gold.Chemscore.DEClash.Weighted>
0.0452

> <Gold.Chemscore.DEInternal.Weighted>
0.3085

> <Gold.Chemscore.Rot.Weighted>
7.4101

> <Gold.Chemscore.Internal.Correction.Weighted>
   9.000000E+99

> <Gold.Protein.RotatedTorsions>
[ 6907 6896 6895 6894 ] final    9.50 input  -60.11 | X-H torsion
[ 7974 7965 7964 7962 ] final  -16.44 input  175.53 | X-H torsion
[ 8008 7997 7996 7995 ] final  157.69 input   59.86 | X-H torsion
[ 10167 10162 10161 10158 ] final -145.44 input  -65.29 | X-H torsion
[ 10718 10713 10712 10709 ] final   62.02 input   66.30 | X-H torsion
[ 10763 10752 10751 10750 ] final  -99.93 input  -60.55 | X-H torsion
[ 11005 11000 10999 10996 ] final  169.74 input  -57.11 | X-H torsion

> <Gold.Protein.ActiveResidues>
 VAL166  LYS551  ARG553  GLY616  TRP617  ASP618  TYR619  PRO620  LYS621  CYS622 
 ASP623  PHE694  ASN695  SER759  ASP760  ASP761  ALA762  ILE779  LEU786  VAL792 
 PHE793  MET794  SER795  GLU796  ALA797  LYS798  CYS799  TRP800  GLU811  SER814 

> <Gold.Protein.RotatedAtoms>
  151.7232  135.0890  160.0287 H   0  0  0  0  0  0  0  0  0  0  0  0  # atno 6907 bound_to 6896
  152.3589  133.6267  159.6008 H   0  0  0  0  0  0  0  0  0  0  0  0  # atno 6908 bound_to 6896
  150.7590  133.9372  159.3486 H   0  0  0  0  0  0  0  0  0  0  0  0  # atno 6909 bound_to 6896
  146.1987  140.3636  142.8431 H   0  0  0  0  0  0  0  0  0  0  0  0  # atno 7974 bound_to 7965
  156.2348  140.1878  156.7147 H   0  0  0  0  0  0  0  0  0  0  0  0  # atno 8008 bound_to 7997
  154.6087  140.0625  156.9493 H   0  0  0  0  0  0  0  0  0  0  0  0  # atno 8009 bound_to 7997
  155.2052  140.3295  155.4339 H   0  0  0  0  0  0  0  0  0  0  0  0  # atno 8010 bound_to 7997
  139.7805  143.8107  152.2638 H   0  0  0  0  0  0  0  0  0  0  0  0  # atno 10167 bound_to 10162
  157.5870  130.9027  149.9534 H   0  0  0  0  0  0  0  0  0  0  0  0  # atno 10718 bound_to 10713
  154.7538  135.4954  153.9337 H   0  0  0  0  0  0  0  0  0  0  0  0  # atno 10763 bound_to 10752
  153.1173  135.6723  153.9404 H   0  0  0  0  0  0  0  0  0  0  0  0  # atno 10764 bound_to 10752
  153.9146  135.3095  155.3427 H   0  0  0  0  0  0  0  0  0  0  0  0  # atno 10765 bound_to 10752
  140.3010  134.7595  157.3916 H   0  0  0  0  0  0  0  0  0  0  0  0  # atno 11005 bound_to 11000
  144.8636  140.7175  143.6091 LP  0  0  0  0  0  0  0  0  0  0  0  0  # atno 17320 bound_to 7965
  145.3556  139.1695  143.4411 LP  0  0  0  0  0  0  0  0  0  0  0  0  # atno 17321 bound_to 7965
  139.8169  144.7312  150.9624 LP  0  0  0  0  0  0  0  0  0  0  0  0  # atno 17342 bound_to 10162
  140.7818  143.4197  151.0862 LP  0  0  0  0  0  0  0  0  0  0  0  0  # atno 17343 bound_to 10162
  156.0920  130.3662  150.0376 LP  0  0  0  0  0  0  0  0  0  0  0  0  # atno 17370 bound_to 10713
  156.8506  130.9457  151.3626 LP  0  0  0  0  0  0  0  0  0  0  0  0  # atno 17371 bound_to 10713
  140.1109  134.5346  155.8267 LP  0  0  0  0  0  0  0  0  0  0  0  0  # atno 17394 bound_to 11000
  141.2128  133.6724  156.6688 LP  0  0  0  0  0  0  0  0  0  0  0  0  # atno 17395 bound_to 11000

$$$$
