AV-unprocessed.smi:1291|AV-procd|sdf|5391|dock8
  -GOLD-   22720 4543D 1   1.00000     0.00000
 Structure written by MMmdl.
 43 45  0  0  0  0  0  0  0  0  1 V2000
  152.6557  137.4995  154.2422 O   0  0  0  0  0  0  0  0  0  0  0  0
  151.3554  137.9717  154.5193 C   0  0  0  0  0  0  0  0  0  0  0  0
  151.3594  139.1741  155.4124 C   0  0  0  0  0  0  0  0  0  0  0  0
  150.8719  140.3479  155.0085 N   0  0  0  0  0  0  0  0  0  0  0  0
  151.0946  141.1629  156.1008 C   0  0  0  0  0  0  0  0  0  0  0  0
  150.8052  142.5319  156.2994 C   0  0  0  0  0  0  0  0  0  0  0  0
  151.1350  143.1618  157.5172 C   0  0  0  0  0  0  0  0  0  0  0  0
  151.7583  142.4340  158.5515 C   0  0  0  0  0  0  0  0  0  0  0  0
  152.0545  141.0688  158.3747 C   0  0  0  0  0  0  0  0  0  0  0  0
  151.7212  140.4439  157.1577 C   0  0  0  0  0  0  0  0  0  0  0  0
  151.8687  139.1488  156.6707 N   0  0  0  0  0  0  0  0  0  0  0  0
  152.4629  138.0307  157.3892 C   0  0  0  0  0  0  0  0  0  0  0  0
  151.7678  137.7712  158.7458 C   0  0  2  0  0  0  0  0  0  0  0  0
  152.3526  136.6249  159.3319 O   0  0  0  0  0  0  0  0  0  0  0  0
  150.2581  137.5245  158.5941 C   0  0  0  0  0  0  0  0  0  0  0  0
  149.8483  136.5407  159.5335 O   0  0  0  0  0  0  0  0  0  0  0  0
  148.5036  136.1127  159.3654 C   0  0  0  0  0  0  0  0  0  0  0  0
  147.8952  135.5389  160.6356 C   0  0  0  0  0  0  0  0  0  0  0  0
  147.7919  136.3504  161.7851 C   0  0  0  0  0  0  0  0  0  0  0  0
  147.2276  135.8368  162.9688 C   0  0  0  0  0  0  0  0  0  0  0  0
  146.7603  134.5092  163.0074 C   0  0  0  0  0  0  0  0  0  0  0  0
  146.8553  133.6972  161.8610 C   0  0  0  0  0  0  0  0  0  0  0  0
  147.4196  134.2089  160.6759 C   0  0  0  0  0  0  0  0  0  0  0  0
  147.5054  133.4132  159.5827 F   0  0  0  0  0  0  0  0  0  0  0  0
  153.2409  137.8193  154.9114 H   0  0  0  0  0  0  0  0  0  0  0  0
  150.8735  138.2294  153.5755 H   0  0  0  0  0  0  0  0  0  0  0  0
  150.7616  137.1720  154.9603 H   0  0  0  0  0  0  0  0  0  0  0  0
  150.3298  143.0986  155.5123 H   0  0  0  0  0  0  0  0  0  0  0  0
  150.9099  144.2088  157.6580 H   0  0  0  0  0  0  0  0  0  0  0  0
  152.0090  142.9245  159.4808 H   0  0  0  0  0  0  0  0  0  0  0  0
  152.5333  140.5107  159.1654 H   0  0  0  0  0  0  0  0  0  0  0  0
  152.4013  137.1496  156.7498 H   0  0  0  0  0  0  0  0  0  0  0  0
  153.5319  138.2100  157.5065 H   0  0  0  0  0  0  0  0  0  0  0  0
  151.9274  138.6184  159.4150 H   0  0  0  0  0  0  0  0  0  0  0  0
  153.2621  136.8093  159.5090 H   0  0  0  0  0  0  0  0  0  0  0  0
  149.7160  138.4456  158.8142 H   0  0  0  0  0  0  0  0  0  0  0  0
  150.0096  137.2396  157.5705 H   0  0  0  0  0  0  0  0  0  0  0  0
  147.9108  136.9799  159.0744 H   0  0  0  0  0  0  0  0  0  0  0  0
  148.4378  135.4074  158.5361 H   0  0  0  0  0  0  0  0  0  0  0  0
  148.1496  137.3695  161.7607 H   0  0  0  0  0  0  0  0  0  0  0  0
  147.1535  136.4612  163.8469 H   0  0  0  0  0  0  0  0  0  0  0  0
  146.3285  134.1140  163.9152 H   0  0  0  0  0  0  0  0  0  0  0  0
  146.4951  132.6794  161.8902 H   0  0  0  0  0  0  0  0  0  0  0  0
  1  2  1  0  0  0  0
  1 25  1  0  0  0  0
  2  3  1  0  0  0  0
  2 26  1  0  0  0  0
  2 27  1  0  0  0  0
  3 11  1  0  0  0  0
  3  4  2  0  0  0  0
  4  5  1  0  0  0  0
  5 10  2  0  0  0  0
  5  6  1  0  0  0  0
  6  7  2  0  0  0  0
  6 28  1  0  0  0  0
  7  8  1  0  0  0  0
  7 29  1  0  0  0  0
  8  9  2  0  0  0  0
  8 30  1  0  0  0  0
  9 10  1  0  0  0  0
  9 31  1  0  0  0  0
 10 11  1  0  0  0  0
 11 12  1  0  0  0  0
 12 13  1  0  0  0  0
 12 32  1  0  0  0  0
 12 33  1  0  0  0  0
 13 14  1  0  0  0  0
 13 15  1  0  0  0  0
 13 34  1  0  0  0  0
 14 35  1  0  0  0  0
 15 16  1  0  0  0  0
 15 36  1  0  0  0  0
 15 37  1  0  0  0  0
 16 17  1  0  0  0  0
 17 18  1  0  0  0  0
 17 38  1  0  0  0  0
 17 39  1  0  0  0  0
 18 23  1  0  0  0  0
 18 19  2  0  0  0  0
 19 20  1  0  0  0  0
 19 40  1  0  0  0  0
 20 21  2  0  0  0  0
 20 41  1  0  0  0  0
 21 22  1  0  0  0  0
 21 42  1  0  0  0  0
 22 23  2  0  0  0  0
 22 43  1  0  0  0  0
 23 24  1  0  0  0  0
M  END
> <s_m_source_file>
AV-unprocessed.smi

> <i_m_source_file_index>
1291

> <i_lp_mmshare_version>
43012

> <i_f3d_flags>
0

> <s_epik_input>
W2NIXTFbY0hdW2NIXVtjSF1jKGMxMiluKGMobjIpW0NIMl1bT0hdKVtDSDJdW0NASF0oW09IXSlbQ0gyXU9bQ0gyXWMzW2NIXVtjSF1bY0hdW2NIXWMzRg==

> <s_epik_cmdline>
J2VwaWtfcHl0aG9uJywgJy1waCcsICc3LjAnLCAnLXRuJywgJzgnLCAnLW1hJywgJzIwMCcsICctbWV0YWxfYmluZGluZycsICctaW1hZScsICc8aW5maWxlLm1hZT4nLCAnLW9tYWUnLCAnPG91dGZpbGUubWFlPic=

> <r_epik_Ionization_Penalty>
0.0649918

> <r_epik_Ionization_Penalty_Charging>
0

> <r_epik_Ionization_Penalty_Neutral>
0.0649918

> <r_epik_State_Penalty>
0.0565791

> <r_epik_Charging_Adjusted_Penalty>
0.0565791

> <i_epik_Tot_Q>
0

> <i_epik_Tot_abs_Q>
0

> <r_epik_Metal_State_Penalty>
5.93658e-05

> <b_epik_Metal_Only>
0

> <s_lp_Force_Field>
OPLS_2005

> <r_lp_Energy>
20.1032

> <b_lp_Chiralities_Consistent>
1

> <s_lp_Variant>
AV-unprocessed.smi:1291-1

> <Gold.Version>
5.8.1

> <Gold.Id.Protein>
6NUR|6NUR_protein|mol2

> <Gold.PLP.Fitness>
56.5517

> <Gold.PLP.PLP>
-49.0145

> <Gold.PLP.part.hbond>
-4.0000

> <Gold.PLP.part.metal>
0.0000

> <Gold.PLP.part.buried>
-4.3006

> <Gold.PLP.part.nonpolar>
-40.2865

> <Gold.PLP.part.repulsive>
0.0526

> <Gold.PLP.ligand.clash>
0.0000

> <Gold.PLP.ligand.torsion>
0.6699

> <Gold.PLP.Chemscore.Hbond>
2.9280

> <Gold.PLP.Chemscore.CHOScore>
0.0000

> <Gold.PLP.Chemscore.Metal>
0.0000

> <Gold.Chemscore.Hbonds>
donor molecule, donor type, donor heavy atom, donor atom, acceptor molecule, acceptor atom, score
      P1  H  6896  6907       L1    14  0.29
      P1  H  6896  6909       L1    16  1.00
      P1  H  7989  7998       L1     4  1.00
      P1  H 10752 10765       L1     1  0.56

> <Gold.PLP.Chemscore.Internal.Correction>
0.0929

> <Gold.Rescore>
     Score         DG    S(hbond)    S(metal)    S(lipo)     H(rot)  DE(clash)    DE(int)     intcor
     17.67     -18.53       2.25        0.00     120.29       3.33       0.02       0.84       ----

> <Gold.Chemscore.Fitness>
17.6728

> <Gold.Chemscore.DG>
-18.5274

> <Gold.Chemscore.ZeroCoef>
-5.4800

> <Gold.Chemscore.Hbond>
2.2460

> <Gold.Chemscore.Metal>
0.0000

> <Gold.Chemscore.Lipo>
120.2949

> <Gold.Chemscore.Internal_Hbond>
0.0000

> <Gold.Chemscore.DEClash>
0.0152

> <Gold.Chemscore.DEInternal>
0.8394

> <Gold.Chemscore.Rot>
3.3316

> <Gold.Chemscore.Internal.Correction>
   9.000000E+99

> <Gold.Chemscore.Hbonds>
donor molecule, donor type, donor heavy atom, donor atom, acceptor molecule, acceptor atom, score
      P1  H  6896  6907       L1    14  0.04
      P1  H  6896  6909       L1    16  0.23
      P1  H  7989  7998       L1     4  0.70
      P1  H 10752 10765       L1     1  0.31

> <Gold.Chemscore.Hbond.Weighted>
-7.5017

> <Gold.Chemscore.Metal.Weighted>
-0.0000

> <Gold.Chemscore.Lipo.Weighted>
-14.0745

> <Gold.Chemscore.Internal_Hbond.Weighted>
0.0000

> <Gold.Chemscore.DEClash.Weighted>
0.0152

> <Gold.Chemscore.DEInternal.Weighted>
0.8394

> <Gold.Chemscore.Rot.Weighted>
8.5288

> <Gold.Chemscore.Internal.Correction.Weighted>
   9.000000E+99

> <Gold.Protein.RotatedTorsions>
[ 6907 6896 6895 6894 ] final   59.96 input  -60.11 | X-H torsion
[ 7974 7965 7964 7962 ] final   28.72 input  175.53 | X-H torsion
[ 8008 7997 7996 7995 ] final   76.32 input   59.86 | X-H torsion
[ 10167 10162 10161 10158 ] final -118.13 input  -65.29 | X-H torsion
[ 10718 10713 10712 10709 ] final   -6.43 input   66.30 | X-H torsion
[ 10763 10752 10751 10750 ] final  141.29 input  -60.55 | X-H torsion
[ 11005 11000 10999 10996 ] final -170.81 input  -57.11 | X-H torsion

> <Gold.Protein.ActiveResidues>
 VAL166  LYS551  ARG553  GLY616  TRP617  ASP618  TYR619  PRO620  LYS621  CYS622 
 ASP623  PHE694  ASN695  SER759  ASP760  ASP761  ALA762  ILE779  LEU786  VAL792 
 PHE793  MET794  SER795  GLU796  ALA797  LYS798  CYS799  TRP800  GLU811  SER814 

> <Gold.Protein.RotatedAtoms>
  152.3961  134.6363  160.0088 H   0  0  0  0  0  0  0  0  0  0  0  0  # atno 6907 bound_to 6896
  151.6583  133.3312  159.3176 H   0  0  0  0  0  0  0  0  0  0  0  0  # atno 6908 bound_to 6896
  150.7868  134.6903  159.6538 H   0  0  0  0  0  0  0  0  0  0  0  0  # atno 6909 bound_to 6896
  146.1713  139.7018  142.8965 H   0  0  0  0  0  0  0  0  0  0  0  0  # atno 7974 bound_to 7965
  155.8256  140.3468  155.5541 H   0  0  0  0  0  0  0  0  0  0  0  0  # atno 8008 bound_to 7997
  155.8296  140.0925  157.1820 H   0  0  0  0  0  0  0  0  0  0  0  0  # atno 8009 bound_to 7997
  154.4004  140.1415  156.3585 H   0  0  0  0  0  0  0  0  0  0  0  0  # atno 8010 bound_to 7997
  140.0609  143.4969  152.2032 H   0  0  0  0  0  0  0  0  0  0  0  0  # atno 10167 bound_to 10162
  156.7319  130.5183  149.5843 H   0  0  0  0  0  0  0  0  0  0  0  0  # atno 10718 bound_to 10713
  153.9368  135.2984  155.3444 H   0  0  0  0  0  0  0  0  0  0  0  0  # atno 10763 bound_to 10752
  154.7498  135.4985  153.9272 H   0  0  0  0  0  0  0  0  0  0  0  0  # atno 10764 bound_to 10752
  153.1063  135.6747  153.9686 H   0  0  0  0  0  0  0  0  0  0  0  0  # atno 10765 bound_to 10752
  140.5153  134.5762  157.5031 H   0  0  0  0  0  0  0  0  0  0  0  0  # atno 11005 bound_to 11000
  145.4332  141.0417  143.2899 LP  0  0  0  0  0  0  0  0  0  0  0  0  # atno 17320 bound_to 7965
  144.8167  139.5864  143.7005 LP  0  0  0  0  0  0  0  0  0  0  0  0  # atno 17321 bound_to 7965
  139.5894  144.7544  151.3437 LP  0  0  0  0  0  0  0  0  0  0  0  0  # atno 17342 bound_to 10162
  140.7172  143.7233  150.7679 LP  0  0  0  0  0  0  0  0  0  0  0  0  # atno 17343 bound_to 10162
  156.1523  130.6318  151.0611 LP  0  0  0  0  0  0  0  0  0  0  0  0  # atno 17370 bound_to 10713
  157.6855  131.0826  150.7254 LP  0  0  0  0  0  0  0  0  0  0  0  0  # atno 17371 bound_to 10713
  139.9636  134.7411  156.0185 LP  0  0  0  0  0  0  0  0  0  0  0  0  # atno 17394 bound_to 11000
  141.1363  133.6574  156.3604 LP  0  0  0  0  0  0  0  0  0  0  0  0  # atno 17395 bound_to 11000

$$$$
