AV-unprocessed.smi:2600|AV-procd|sdf|10181|dock8
  -GOLD-   2272014193D 1   1.00000     0.00000
 Structure written by MMmdl.
 44 45  0  0  0  0  0  0  0  0  1 V2000
  145.8834  132.1406  149.7516 C   0  0  0  0  0  0  0  0  0  0  0  0
  146.1727  132.2116  151.2600 C   0  0  0  0  0  0  0  0  0  0  0  0
  145.4429  133.3402  152.0269 C   0  0  1  0  0  0  0  0  0  0  0  0
  145.7304  133.1624  153.5361 C   0  0  0  0  0  0  0  0  0  0  0  0
  145.8693  134.7458  151.5243 C   0  0  0  0  0  0  0  0  0  0  0  0
  145.0128  135.7704  152.1389 N   0  0  0  0  0  0  0  0  0  0  0  0
  145.3772  136.6958  153.0609 C   0  0  0  0  0  0  0  0  0  0  0  0
  144.5665  137.3694  153.6986 O   0  0  0  0  0  0  0  0  0  0  0  0
  146.7039  136.8254  153.2304 N   0  0  0  0  0  0  0  0  0  0  0  0
  147.3454  137.7156  154.1900 C   0  0  0  0  0  0  0  0  0  0  0  0
  147.4995  139.1359  153.6207 C   0  0  0  0  0  0  0  0  0  0  0  0
  148.5293  139.9511  154.3361 C   0  0  0  0  0  0  0  0  0  0  0  0
  148.4540  141.2269  154.8206 C   0  0  0  0  0  0  0  0  0  0  0  0
  149.7322  141.4537  155.4006 C   0  0  0  0  0  0  0  0  0  0  0  0
  150.5336  140.4088  155.2870 N   0  0  0  0  0  0  0  0  0  0  0  0
  149.7995  139.4848  154.6310 N   0  0  0  0  0  0  0  0  0  0  0  0
  150.3940  138.1930  154.3423 C   0  0  0  0  0  0  0  0  0  0  0  0
  143.6212  135.5581  151.7378 C   0  0  0  0  0  0  0  0  0  0  0  0
  143.1728  134.1847  152.2636 C   0  0  0  0  0  0  0  0  0  0  0  0
  144.0418  133.1575  151.7801 O   0  0  0  0  0  0  0  0  0  0  0  0
  146.3543  131.2598  149.3150 H   0  0  0  0  0  0  0  0  0  0  0  0
  146.2747  133.0075  149.2203 H   0  0  0  0  0  0  0  0  0  0  0  0
  144.8140  132.0735  149.5507 H   0  0  0  0  0  0  0  0  0  0  0  0
  145.8971  131.2516  151.6990 H   0  0  0  0  0  0  0  0  0  0  0  0
  147.2495  132.3069  151.4058 H   0  0  0  0  0  0  0  0  0  0  0  0
  146.7999  133.2257  153.7388 H   0  0  0  0  0  0  0  0  0  0  0  0
  145.3866  132.1899  153.8888 H   0  0  0  0  0  0  0  0  0  0  0  0
  145.2468  133.9183  154.1536 H   0  0  0  0  0  0  0  0  0  0  0  0
  146.9349  134.8947  151.6995 H   0  0  0  0  0  0  0  0  0  0  0  0
  145.7455  134.8268  150.4447 H   0  0  0  0  0  0  0  0  0  0  0  0
  147.3106  136.2475  152.6672 H   0  0  0  0  0  0  0  0  0  0  0  0
  146.7320  137.7420  155.0911 H   0  0  0  0  0  0  0  0  0  0  0  0
  148.3126  137.3074  154.4860 H   0  0  0  0  0  0  0  0  0  0  0  0
  147.7476  139.0901  152.5598 H   0  0  0  0  0  0  0  0  0  0  0  0
  146.5388  139.6494  153.6746 H   0  0  0  0  0  0  0  0  0  0  0  0
  147.6094  141.8980  154.7689 H   0  0  0  0  0  0  0  0  0  0  0  0
  150.0985  142.3398  155.8974 H   0  0  0  0  0  0  0  0  0  0  0  0
  150.0440  137.8222  153.3791 H   0  0  0  0  0  0  0  0  0  0  0  0
  150.1176  137.4814  155.1206 H   0  0  0  0  0  0  0  0  0  0  0  0
  151.4812  138.2744  154.3069 H   0  0  0  0  0  0  0  0  0  0  0  0
  142.9494  136.3345  152.1060 H   0  0  0  0  0  0  0  0  0  0  0  0
  143.5460  135.5876  150.6497 H   0  0  0  0  0  0  0  0  0  0  0  0
  143.1400  134.1781  153.3531 H   0  0  0  0  0  0  0  0  0  0  0  0
  142.1600  133.9678  151.9240 H   0  0  0  0  0  0  0  0  0  0  0  0
  1  2  1  0  0  0  0
  1 21  1  0  0  0  0
  1 22  1  0  0  0  0
  1 23  1  0  0  0  0
  2  3  1  0  0  0  0
  2 24  1  0  0  0  0
  2 25  1  0  0  0  0
  3 20  1  0  0  0  0
  3  4  1  0  0  0  0
  3  5  1  0  0  0  0
  4 26  1  0  0  0  0
  4 27  1  0  0  0  0
  4 28  1  0  0  0  0
  5  6  1  0  0  0  0
  5 29  1  0  0  0  0
  5 30  1  0  0  0  0
  6  7  1  0  0  0  0
  6 18  1  0  0  0  0
  7  8  2  0  0  0  0
  7  9  1  0  0  0  0
  9 10  1  0  0  0  0
  9 31  1  0  0  0  0
 10 11  1  0  0  0  0
 10 32  1  0  0  0  0
 10 33  1  0  0  0  0
 11 12  1  0  0  0  0
 11 34  1  0  0  0  0
 11 35  1  0  0  0  0
 12 16  1  0  0  0  0
 12 13  2  0  0  0  0
 13 14  1  0  0  0  0
 13 36  1  0  0  0  0
 14 15  2  0  0  0  0
 14 37  1  0  0  0  0
 15 16  1  0  0  0  0
 16 17  1  0  0  0  0
 17 38  1  0  0  0  0
 17 39  1  0  0  0  0
 17 40  1  0  0  0  0
 18 19  1  0  0  0  0
 18 41  1  0  0  0  0
 18 42  1  0  0  0  0
 19 20  1  0  0  0  0
 19 43  1  0  0  0  0
 19 44  1  0  0  0  0
M  END
> <s_m_source_file>
AV-unprocessed.smi

> <i_m_source_file_index>
2600

> <i_lp_mmshare_version>
43012

> <i_f3d_flags>
0

> <s_epik_input>
W0NIM11bQ0gyXVtDQEBdMShbQ0gzXSlbQ0gyXU4oW0NIMl1bQ0gyXU8xKUMoPU8pW05IXVtDSDJdW0NIMl1jMltjSF1bY0hdbm4yW0NIM10=

> <s_epik_cmdline>
J2VwaWtfcHl0aG9uJywgJy1waCcsICc3LjAnLCAnLXRuJywgJzgnLCAnLW1hJywgJzIwMCcsICctbWV0YWxfYmluZGluZycsICctaW1hZScsICc8aW5maWxlLm1hZT4nLCAnLW9tYWUnLCAnPG91dGZpbGUubWFlPic=

> <r_lp_tautomer_probability>
1

> <r_epik_Ionization_Penalty>
0.00252014

> <r_epik_Ionization_Penalty_Charging>
0

> <r_epik_Ionization_Penalty_Neutral>
0.00252014

> <r_epik_State_Penalty>
0.00172506

> <r_epik_Charging_Adjusted_Penalty>
0.00172506

> <i_epik_Tot_Q>
0

> <i_epik_Tot_abs_Q>
0

> <r_epik_Metal_State_Penalty>
-0

> <b_epik_Metal_Only>
0

> <s_lp_Force_Field>
OPLS_2005

> <r_lp_Energy>
28.913

> <b_lp_Chiralities_Consistent>
1

> <s_lp_Variant>
AV-unprocessed.smi:2600-1

> <Gold.Version>
5.8.1

> <Gold.Id.Protein>
6NUR|6NUR_protein|mol2

> <Gold.PLP.Fitness>
40.9051

> <Gold.PLP.PLP>
-34.3563

> <Gold.PLP.part.hbond>
-2.0000

> <Gold.PLP.part.metal>
0.0000

> <Gold.PLP.part.buried>
-2.6727

> <Gold.PLP.part.nonpolar>
-29.8756

> <Gold.PLP.part.repulsive>
0.3863

> <Gold.PLP.ligand.clash>
0.0000

> <Gold.PLP.ligand.torsion>
0.4514

> <Gold.PLP.Chemscore.Hbond>
1.5408

> <Gold.PLP.Chemscore.CHOScore>
0.9347

> <Gold.PLP.Chemscore.Metal>
0.0000

> <Gold.Chemscore.Hbonds>
donor molecule, donor type, donor heavy atom, donor atom, acceptor molecule, acceptor atom, score
      L1  H     9    31       P1  7948  0.86
      P1  H  7989  7998       L1    15  0.43
      L1  C    14    37       P1  8028  0.53

> <Gold.PLP.Chemscore.Internal.Correction>
0.0251

> <Gold.Rescore>
     Score         DG    S(hbond)    S(metal)    S(lipo)     H(rot)  DE(clash)    DE(int)     intcor
     13.95     -14.35       0.96        0.00      80.54       1.47       0.04       0.36       ----

> <Gold.Chemscore.Fitness>
13.9472

> <Gold.Chemscore.DG>
-14.3490

> <Gold.Chemscore.ZeroCoef>
-5.4800

> <Gold.Chemscore.Hbond>
0.9633

> <Gold.Chemscore.Metal>
0.0000

> <Gold.Chemscore.Lipo>
80.5428

> <Gold.Chemscore.Internal_Hbond>
0.0000

> <Gold.Chemscore.DEClash>
0.0393

> <Gold.Chemscore.DEInternal>
0.3625

> <Gold.Chemscore.Rot>
1.4735

> <Gold.Chemscore.Internal.Correction>
   9.000000E+99

> <Gold.Chemscore.Hbonds>
donor molecule, donor type, donor heavy atom, donor atom, acceptor molecule, acceptor atom, score
      L1  H     9    31       P1  7948  0.85
      P1  H  7989  7998       L1    15  0.01

> <Gold.Chemscore.Hbond.Weighted>
-3.2176

> <Gold.Chemscore.Metal.Weighted>
-0.0000

> <Gold.Chemscore.Lipo.Weighted>
-9.4235

> <Gold.Chemscore.Internal_Hbond.Weighted>
0.0000

> <Gold.Chemscore.DEClash.Weighted>
0.0393

> <Gold.Chemscore.DEInternal.Weighted>
0.3625

> <Gold.Chemscore.Rot.Weighted>
3.7721

> <Gold.Chemscore.Internal.Correction.Weighted>
   9.000000E+99

> <Gold.Protein.RotatedTorsions>
[ 6907 6896 6895 6894 ] final   44.64 input  -60.11 | X-H torsion
[ 7974 7965 7964 7962 ] final -103.00 input  175.53 | X-H torsion
[ 8008 7997 7996 7995 ] final  -56.86 input   59.86 | X-H torsion
[ 10167 10162 10161 10158 ] final  -34.22 input  -65.29 | X-H torsion
[ 10718 10713 10712 10709 ] final  160.25 input   66.30 | X-H torsion
[ 10763 10752 10751 10750 ] final  146.28 input  -60.55 | X-H torsion
[ 11005 11000 10999 10996 ] final -108.38 input  -57.11 | X-H torsion

> <Gold.Protein.ActiveResidues>
 VAL166  LYS551  ARG553  GLY616  TRP617  ASP618  TYR619  PRO620  LYS621  CYS622 
 ASP623  PHE694  ASN695  SER759  ASP760  ASP761  ALA762  ILE779  LEU786  VAL792 
 PHE793  MET794  SER795  GLU796  ALA797  LYS798  CYS799  TRP800  GLU811  SER814 

> <Gold.Protein.RotatedAtoms>
  152.2349  134.8286  160.0468 H   0  0  0  0  0  0  0  0  0  0  0  0  # atno 6907 bound_to 6896
  151.9021  133.3535  159.3842 H   0  0  0  0  0  0  0  0  0  0  0  0  # atno 6908 bound_to 6896
  150.7036  134.4743  159.5484 H   0  0  0  0  0  0  0  0  0  0  0  0  # atno 6909 bound_to 6896
  145.2615  140.9270  143.3038 H   0  0  0  0  0  0  0  0  0  0  0  0  # atno 7974 bound_to 7965
  154.4246  140.1120  156.5705 H   0  0  0  0  0  0  0  0  0  0  0  0  # atno 8008 bound_to 7997
  155.6217  140.3495  155.4635 H   0  0  0  0  0  0  0  0  0  0  0  0  # atno 8009 bound_to 7997
  156.0019  140.1201  157.0529 H   0  0  0  0  0  0  0  0  0  0  0  0  # atno 8010 bound_to 7997
  140.7190  143.3564  151.2051 H   0  0  0  0  0  0  0  0  0  0  0  0  # atno 10167 bound_to 10162
  157.1529  131.0568  151.2271 H   0  0  0  0  0  0  0  0  0  0  0  0  # atno 10718 bound_to 10713
  154.0193  135.2907  155.3383 H   0  0  0  0  0  0  0  0  0  0  0  0  # atno 10763 bound_to 10752
  154.7056  135.5171  153.8593 H   0  0  0  0  0  0  0  0  0  0  0  0  # atno 10764 bound_to 10752
  153.0688  135.6640  154.0416 H   0  0  0  0  0  0  0  0  0  0  0  0  # atno 10765 bound_to 10752
  141.0904  133.9064  157.2088 H   0  0  0  0  0  0  0  0  0  0  0  0  # atno 11005 bound_to 11000
  144.9414  139.4184  143.6447 LP  0  0  0  0  0  0  0  0  0  0  0  0  # atno 17320 bound_to 7965
  146.3274  139.8376  142.8896 LP  0  0  0  0  0  0  0  0  0  0  0  0  # atno 17321 bound_to 7965
  139.7106  143.9383  152.2946 LP  0  0  0  0  0  0  0  0  0  0  0  0  # atno 17342 bound_to 10162
  139.9107  144.6858  150.8566 LP  0  0  0  0  0  0  0  0  0  0  0  0  # atno 17343 bound_to 10162
  157.4203  130.7434  149.6908 LP  0  0  0  0  0  0  0  0  0  0  0  0  # atno 17370 bound_to 10713
  155.9767  130.4072  150.3760 LP  0  0  0  0  0  0  0  0  0  0  0  0  # atno 17371 bound_to 10713
  139.9729  135.0122  156.9559 LP  0  0  0  0  0  0  0  0  0  0  0  0  # atno 17394 bound_to 11000
  140.5264  134.0856  155.7305 LP  0  0  0  0  0  0  0  0  0  0  0  0  # atno 17395 bound_to 11000

$$$$
