AV-unprocessed.smi:2510|AV-procd|sdf|9873|dock1
  -GOLD-   2272013503D 1   1.00000     0.00000
 Structure written by MMmdl.
 48 49  0  0  0  0  0  0  0  0  1 V2000
  151.4651  140.3390  156.8393 C   0  0  0  0  0  0  0  0  0  0  0  0
  150.5696  139.0893  156.8752 C   0  0  0  0  0  0  0  0  0  0  0  0
  150.5328  138.2712  155.5606 C   0  0  0  0  0  0  0  0  0  0  0  0
  151.9479  137.7124  155.2701 C   0  0  0  0  0  0  0  0  0  0  0  0
  152.9677  138.7492  154.7738 C   0  0  0  0  0  0  0  0  0  0  0  0
  149.3248  137.2877  155.4840 C   0  0  2  0  0  0  0  0  0  0  0  0
  149.5785  136.1020  154.6662 N   0  0  0  0  0  0  0  0  0  0  0  0
  149.2420  134.8489  155.0078 C   0  0  0  0  0  0  0  0  0  0  0  0
  148.5976  134.5720  156.0191 O   0  0  0  0  0  0  0  0  0  0  0  0
  149.7277  133.7373  154.0757 C   0  0  0  0  0  0  0  0  0  0  0  0
  148.5486  133.0456  153.4422 C   0  0  0  0  0  0  0  0  0  0  0  0
  147.5476  133.6145  152.5996 C   0  0  0  0  0  0  0  0  0  0  0  0
  146.7411  132.5610  152.2734 C   0  0  0  0  0  0  0  0  0  0  0  0
  145.5251  132.4787  151.4154 C   0  0  0  0  0  0  0  0  0  0  0  0
  147.2652  131.4627  152.9149 N   0  0  0  0  0  0  0  0  0  0  0  0
  148.3671  131.7461  153.6337 N   0  0  0  0  0  0  0  0  0  0  0  0
  148.5211  138.3525  154.7157 C   0  0  2  0  0  0  0  0  0  0  0  0
  147.5497  137.9452  153.6103 C   0  0  0  0  0  0  0  0  0  0  0  0
  149.8726  138.9858  154.3552 C   0  0  1  0  0  0  0  0  0  0  0  0
  149.9234  140.4011  154.4585 O   0  0  0  0  0  0  0  0  0  0  0  0
  148.7123  141.0312  154.0811 C   0  0  0  0  0  0  0  0  0  0  0  0
  146.8878  130.5267  152.8709 H   0  0  0  0  0  0  0  0  0  0  0  0
  151.5297  140.7897  157.8296 H   0  0  0  0  0  0  0  0  0  0  0  0
  151.0722  141.1007  156.1665 H   0  0  0  0  0  0  0  0  0  0  0  0
  152.4796  140.0998  156.5211 H   0  0  0  0  0  0  0  0  0  0  0  0
  150.9288  138.4599  157.6897 H   0  0  0  0  0  0  0  0  0  0  0  0
  149.5651  139.3788  157.1826 H   0  0  0  0  0  0  0  0  0  0  0  0
  152.3484  137.1904  156.1389 H   0  0  0  0  0  0  0  0  0  0  0  0
  151.8928  136.9515  154.4922 H   0  0  0  0  0  0  0  0  0  0  0  0
  153.8923  138.2582  154.4702 H   0  0  0  0  0  0  0  0  0  0  0  0
  153.2276  139.4698  155.5483 H   0  0  0  0  0  0  0  0  0  0  0  0
  152.5884  139.2983  153.9117 H   0  0  0  0  0  0  0  0  0  0  0  0
  148.8732  137.0593  156.4506 H   0  0  0  0  0  0  0  0  0  0  0  0
  150.1046  136.2379  153.8151 H   0  0  0  0  0  0  0  0  0  0  0  0
  150.3867  134.1576  153.3145 H   0  0  0  0  0  0  0  0  0  0  0  0
  150.3249  133.0271  154.6485 H   0  0  0  0  0  0  0  0  0  0  0  0
  147.4473  134.6395  152.2739 H   0  0  0  0  0  0  0  0  0  0  0  0
  145.3806  133.4033  150.8562 H   0  0  0  0  0  0  0  0  0  0  0  0
  144.6349  132.3082  152.0210 H   0  0  0  0  0  0  0  0  0  0  0  0
  145.6103  131.6620  150.6983 H   0  0  0  0  0  0  0  0  0  0  0  0
  148.0112  138.9858  155.4438 H   0  0  0  0  0  0  0  0  0  0  0  0
  148.0633  137.4652  152.7771 H   0  0  0  0  0  0  0  0  0  0  0  0
  147.0192  138.8092  153.2111 H   0  0  0  0  0  0  0  0  0  0  0  0
  146.8004  137.2471  153.9836 H   0  0  0  0  0  0  0  0  0  0  0  0
  150.2640  138.6182  153.4038 H   0  0  0  0  0  0  0  0  0  0  0  0
  148.8306  142.1129  154.1420 H   0  0  0  0  0  0  0  0  0  0  0  0
  147.8937  140.7485  154.7427 H   0  0  0  0  0  0  0  0  0  0  0  0
  148.4388  140.7801  153.0557 H   0  0  0  0  0  0  0  0  0  0  0  0
  1  2  1  0  0  0  0
  1 23  1  0  0  0  0
  1 24  1  0  0  0  0
  1 25  1  0  0  0  0
  2  3  1  0  0  0  0
  2 26  1  0  0  0  0
  2 27  1  0  0  0  0
  3 19  1  0  0  0  0
  3  4  1  0  0  0  0
  3  6  1  0  0  0  0
  4  5  1  0  0  0  0
  4 28  1  0  0  0  0
  4 29  1  0  0  0  0
  5 30  1  0  0  0  0
  5 31  1  0  0  0  0
  5 32  1  0  0  0  0
  6  7  1  0  0  0  0
  6 17  1  0  0  0  0
  6 33  1  0  0  0  0
  7  8  1  0  0  0  0
  7 34  1  0  0  0  0
  8  9  2  0  0  0  0
  8 10  1  0  0  0  0
 10 11  1  0  0  0  0
 10 35  1  0  0  0  0
 10 36  1  0  0  0  0
 11 16  2  0  0  0  0
 11 12  1  0  0  0  0
 12 13  2  0  0  0  0
 12 37  1  0  0  0  0
 13 14  1  0  0  0  0
 13 15  1  0  0  0  0
 14 38  1  0  0  0  0
 14 39  1  0  0  0  0
 14 40  1  0  0  0  0
 15 22  1  0  0  0  0
 15 16  1  0  0  0  0
 17 18  1  0  0  0  0
 17 19  1  0  0  0  0
 17 41  1  0  0  0  0
 18 42  1  0  0  0  0
 18 43  1  0  0  0  0
 18 44  1  0  0  0  0
 19 20  1  0  0  0  0
 19 45  1  0  0  0  0
 20 21  1  0  0  0  0
 21 46  1  0  0  0  0
 21 47  1  0  0  0  0
 21 48  1  0  0  0  0
M  END
> <s_m_source_file>
AV-unprocessed.smi

> <i_m_source_file_index>
2510

> <i_lp_mmshare_version>
43012

> <i_f3d_flags>
0

> <s_epik_input>
W0NIM11PW0NAQEhdMVtDQEhdKFtDSDNdKVtDQEBIXShDMShbQ0gyXVtDSDNdKVtDSDJdW0NIM10pW05IXUMoPU8pW0NIMl1jMltjSF1jKFtDSDNdKVtuSF1uMg==

> <s_epik_cmdline>
J2VwaWtfcHl0aG9uJywgJy1waCcsICc3LjAnLCAnLXRuJywgJzgnLCAnLW1hJywgJzIwMCcsICctbWV0YWxfYmluZGluZycsICctaW1hZScsICc8aW5maWxlLm1hZT4nLCAnLW9tYWUnLCAnPG91dGZpbGUubWFlPic=

> <r_lp_tautomer_probability>
0.5

> <r_epik_Ionization_Penalty>
9.73156e-05

> <r_epik_Ionization_Penalty_Charging>
0

> <r_epik_Ionization_Penalty_Neutral>
9.73156e-05

> <r_epik_State_Penalty>
0.41068

> <r_epik_Charging_Adjusted_Penalty>
0.41068

> <i_epik_Tot_Q>
0

> <i_epik_Tot_abs_Q>
0

> <r_epik_Metal_State_Penalty>
0.410699

> <b_epik_Metal_Only>
0

> <s_lp_Force_Field>
OPLS_2005

> <r_lp_Energy>
25.1692

> <b_lp_Chiralities_Consistent>
1

> <s_lp_Variant>
AV-unprocessed.smi:2510-4

> <Gold.Version>
5.8.1

> <Gold.Id.Protein>
6NUR|6NUR_protein|mol2

> <Gold.PLP.Fitness>
32.6831

> <Gold.PLP.PLP>
-30.5583

> <Gold.PLP.part.hbond>
-2.4791

> <Gold.PLP.part.metal>
0.0000

> <Gold.PLP.part.buried>
-1.4282

> <Gold.PLP.part.nonpolar>
-27.4252

> <Gold.PLP.part.repulsive>
0.2527

> <Gold.PLP.ligand.clash>
0.0000

> <Gold.PLP.ligand.torsion>
0.8411

> <Gold.PLP.Chemscore.Hbond>
1.0302

> <Gold.PLP.Chemscore.CHOScore>
0.0000

> <Gold.PLP.Chemscore.Metal>
0.0000

> <Gold.Chemscore.Hbonds>
donor molecule, donor type, donor heavy atom, donor atom, acceptor molecule, acceptor atom, score
      L1  H     7    34       P1  7948  0.15
      P1  H  7989  7998       L1    20  0.88

> <Gold.PLP.Chemscore.Internal.Correction>
0.7164

> <Gold.Rescore>
     Score         DG    S(hbond)    S(metal)    S(lipo)     H(rot)  DE(clash)    DE(int)     intcor
      9.20     -13.09       0.73        0.00      83.66       1.81       0.65       3.24       ----

> <Gold.Chemscore.Fitness>
9.1987

> <Gold.Chemscore.DG>
-13.0867

> <Gold.Chemscore.ZeroCoef>
-5.4800

> <Gold.Chemscore.Hbond>
0.7343

> <Gold.Chemscore.Metal>
0.0000

> <Gold.Chemscore.Lipo>
83.6608

> <Gold.Chemscore.Internal_Hbond>
0.0000

> <Gold.Chemscore.DEClash>
0.6521

> <Gold.Chemscore.DEInternal>
3.2359

> <Gold.Chemscore.Rot>
1.8102

> <Gold.Chemscore.Internal.Correction>
   9.000000E+99

> <Gold.Chemscore.Hbonds>
donor molecule, donor type, donor heavy atom, donor atom, acceptor molecule, acceptor atom, score
      L1  H     7    34       P1  7948  0.02
      P1  H  7989  7998       L1    20  0.36

> <Gold.Chemscore.Hbond.Weighted>
-2.4525

> <Gold.Chemscore.Metal.Weighted>
-0.0000

> <Gold.Chemscore.Lipo.Weighted>
-9.7883

> <Gold.Chemscore.Internal_Hbond.Weighted>
0.0000

> <Gold.Chemscore.DEClash.Weighted>
0.6521

> <Gold.Chemscore.DEInternal.Weighted>
3.2359

> <Gold.Chemscore.Rot.Weighted>
4.6341

> <Gold.Chemscore.Internal.Correction.Weighted>
   9.000000E+99

> <Gold.Protein.RotatedTorsions>
[ 6907 6896 6895 6894 ] final  -37.35 input  -60.11 | X-H torsion
[ 7974 7965 7964 7962 ] final  -59.30 input  175.53 | X-H torsion
[ 8008 7997 7996 7995 ] final   83.49 input   59.86 | X-H torsion
[ 10167 10162 10161 10158 ] final  -28.07 input  -65.29 | X-H torsion
[ 10718 10713 10712 10709 ] final -134.57 input   66.30 | X-H torsion
[ 10763 10752 10751 10750 ] final -151.53 input  -60.55 | X-H torsion
[ 11005 11000 10999 10996 ] final  -21.64 input  -57.11 | X-H torsion

> <Gold.Protein.ActiveResidues>
 VAL166  LYS551  ARG553  GLY616  TRP617  ASP618  TYR619  PRO620  LYS621  CYS622 
 ASP623  PHE694  ASN695  SER759  ASP760  ASP761  ALA762  ILE779  LEU786  VAL792 
 PHE793  MET794  SER795  GLU796  ALA797  LYS798  CYS799  TRP800  GLU811  SER814 

> <Gold.Protein.RotatedAtoms>
  151.0158  134.9431  159.8031 H   0  0  0  0  0  0  0  0  0  0  0  0  # atno 6907 bound_to 6896
  152.5313  134.2968  159.9074 H   0  0  0  0  0  0  0  0  0  0  0  0  # atno 6908 bound_to 6896
  151.2975  133.4095  159.2671 H   0  0  0  0  0  0  0  0  0  0  0  0  # atno 6909 bound_to 6896
  145.8291  140.8491  143.0093 H   0  0  0  0  0  0  0  0  0  0  0  0  # atno 7974 bound_to 7965
  155.9246  140.3419  155.6200 H   0  0  0  0  0  0  0  0  0  0  0  0  # atno 8008 bound_to 7997
  155.7232  140.0786  157.2340 H   0  0  0  0  0  0  0  0  0  0  0  0  # atno 8009 bound_to 7997
  154.4075  140.1601  156.2412 H   0  0  0  0  0  0  0  0  0  0  0  0  # atno 8010 bound_to 7997
  140.7273  143.4041  151.1216 H   0  0  0  0  0  0  0  0  0  0  0  0  # atno 10167 bound_to 10162
  156.2569  130.7186  151.1106 H   0  0  0  0  0  0  0  0  0  0  0  0  # atno 10718 bound_to 10713
  154.8052  135.3258  154.7450 H   0  0  0  0  0  0  0  0  0  0  0  0  # atno 10763 bound_to 10752
  153.8110  135.6895  153.4845 H   0  0  0  0  0  0  0  0  0  0  0  0  # atno 10764 bound_to 10752
  153.1792  135.4593  154.9950 H   0  0  0  0  0  0  0  0  0  0  0  0  # atno 10765 bound_to 10752
  140.8581  133.7808  156.0042 H   0  0  0  0  0  0  0  0  0  0  0  0  # atno 11005 bound_to 11000
  144.6741  140.0646  143.7475 LP  0  0  0  0  0  0  0  0  0  0  0  0  # atno 17320 bound_to 7965
  145.9591  139.2787  143.1166 LP  0  0  0  0  0  0  0  0  0  0  0  0  # atno 17321 bound_to 7965
  139.7665  143.8558  152.3111 LP  0  0  0  0  0  0  0  0  0  0  0  0  # atno 17342 bound_to 10162
  139.8462  144.7186  150.9270 LP  0  0  0  0  0  0  0  0  0  0  0  0  # atno 17343 bound_to 10162
  157.7236  131.0665  150.6031 LP  0  0  0  0  0  0  0  0  0  0  0  0  # atno 17370 bound_to 10713
  156.6115  130.4381  149.5857 LP  0  0  0  0  0  0  0  0  0  0  0  0  # atno 17371 bound_to 10713
  140.8714  134.2721  157.5188 LP  0  0  0  0  0  0  0  0  0  0  0  0  # atno 17394 bound_to 11000
  139.8706  134.9569  156.4252 LP  0  0  0  0  0  0  0  0  0  0  0  0  # atno 17395 bound_to 11000

$$$$
