AV-unprocessed.smi:2698|AV-procd|sdf|10420|dock1
  -GOLD-   2272014453D 1   1.00000     0.00000
 Structure written by MMmdl.
 33 33  0  0  0  0  0  0  0  0  2 V2000
  152.6174  143.6182  160.1359 C   0  0  0  0  0  0  0  0  0  0  0  0
  152.5545  142.1502  159.6882 C   0  0  0  0  0  0  0  0  0  0  0  0
  153.8674  141.4268  160.0411 C   0  0  0  0  0  0  0  0  0  0  0  0
  152.1866  142.0555  158.1889 C   0  0  0  0  0  0  0  0  0  0  0  0
  151.7651  140.6501  157.7498 C   0  0  0  0  0  0  0  0  0  0  0  0
  151.7078  139.7366  158.5733 O   0  0  0  0  0  0  0  0  0  0  0  0
  151.4798  140.4953  156.4468 N   0  0  0  0  0  0  0  0  0  0  0  0
  151.0376  139.2615  155.7966 C   0  0  1  0  0  0  0  0  0  0  0  0
  150.4869  139.5251  154.3763 C   0  0  0  0  0  0  0  0  0  0  0  0
  149.1412  140.2076  154.3088 C   0  0  0  0  0  0  0  0  0  0  0  0
  148.7073  141.4221  154.7934 C   0  0  0  0  0  0  0  0  0  0  0  0
  147.3693  141.6229  154.4435 N   0  0  0  0  0  0  0  0  0  0  0  0
  147.0473  140.5323  153.7577 C   0  0  0  0  0  0  0  0  0  0  0  0
  148.0540  139.6623  153.6464 N   0  0  0  0  0  0  0  0  0  0  0  0
  152.1692  138.2277  155.8170 C   0  0  0  0  0  0  0  0  0  0  0  0
  153.2809  138.6014  156.2540 O   0  0  0  0  0  0  0  0  0  0  0  0
  151.9069  137.0813  155.3917 O   0  5  0  0  0  0  0  0  0  0  0  0
  148.0319  138.7761  153.1624 H   0  0  0  0  0  0  0  0  0  0  0  0
  153.4012  144.1605  159.6063 H   0  0  0  0  0  0  0  0  0  0  0  0
  152.8215  143.6957  161.2042 H   0  0  0  0  0  0  0  0  0  0  0  0
  151.6727  144.1289  159.9467 H   0  0  0  0  0  0  0  0  0  0  0  0
  151.7556  141.6776  160.2617 H   0  0  0  0  0  0  0  0  0  0  0  0
  154.7027  141.8178  159.4594 H   0  0  0  0  0  0  0  0  0  0  0  0
  153.8041  140.3550  159.8551 H   0  0  0  0  0  0  0  0  0  0  0  0
  154.1113  141.5515  161.0962 H   0  0  0  0  0  0  0  0  0  0  0  0
  151.3729  142.7470  157.9639 H   0  0  0  0  0  0  0  0  0  0  0  0
  153.0299  142.3753  157.5756 H   0  0  0  0  0  0  0  0  0  0  0  0
  151.5775  141.2991  155.8434 H   0  0  0  0  0  0  0  0  0  0  0  0
  150.2225  138.8342  156.3846 H   0  0  0  0  0  0  0  0  0  0  0  0
  151.1984  140.1192  153.8008 H   0  0  0  0  0  0  0  0  0  0  0  0
  150.3967  138.5739  153.8501 H   0  0  0  0  0  0  0  0  0  0  0  0
  149.2538  142.1650  155.3556 H   0  0  0  0  0  0  0  0  0  0  0  0
  146.0698  140.3665  153.3293 H   0  0  0  0  0  0  0  0  0  0  0  0
  1  2  1  0  0  0  0
  1 19  1  0  0  0  0
  1 20  1  0  0  0  0
  1 21  1  0  0  0  0
  2  3  1  0  0  0  0
  2  4  1  0  0  0  0
  2 22  1  0  0  0  0
  3 23  1  0  0  0  0
  3 24  1  0  0  0  0
  3 25  1  0  0  0  0
  4  5  1  0  0  0  0
  4 26  1  0  0  0  0
  4 27  1  0  0  0  0
  5  6  2  0  0  0  0
  5  7  1  0  0  0  0
  7  8  1  0  0  0  0
  7 28  1  0  0  0  0
  8  9  1  0  0  0  0
  8 15  1  0  0  0  0
  8 29  1  0  0  0  0
  9 30  1  0  0  0  0
  9 31  1  0  0  0  0
  9 10  1  0  0  0  0
 10 11  2  0  0  0  0
 10 14  1  0  0  0  0
 11 32  1  0  0  0  0
 11 12  1  0  0  0  0
 12 13  2  0  0  0  0
 13 14  1  0  0  0  0
 13 33  1  0  0  0  0
 14 18  1  0  0  0  0
 15 16  2  0  0  0  0
 15 17  1  0  0  0  0
M  CHG  1  17  -1
M  END
> <s_m_source_file>
AV-unprocessed.smi

> <i_m_source_file_index>
2698

> <i_lp_mmshare_version>
43012

> <i_f3d_flags>
0

> <s_epik_input>
W0NIM11bQ0hdKFtDSDNdKVtDSDJdQyg9TylbTkhdW0NAQEhdKEMoPU8pW09IXSlbQ0gyXWMxW2NIXVtuSF1bY0hdbjE=

> <s_epik_cmdline>
J2VwaWtfcHl0aG9uJywgJy1waCcsICc3LjAnLCAnLXRuJywgJzgnLCAnLW1hJywgJzIwMCcsICctbWV0YWxfYmluZGluZycsICctaW1hZScsICc8aW5maWxlLm1hZT4nLCAnLW9tYWUnLCAnPG91dGZpbGUubWFlPic=

> <r_lp_tautomer_probability>
0.5

> <r_epik_Ionization_Penalty>
0.536153

> <r_epik_Ionization_Penalty_Charging>
0.536153

> <r_epik_Ionization_Penalty_Neutral>
4.95393e-08

> <r_epik_State_Penalty>
0.778213

> <r_epik_Charging_Adjusted_Penalty>
1.31437

> <i_epik_Tot_Q>
-1

> <i_epik_Tot_abs_Q>
1

> <r_epik_Metal_State_Penalty>
0.658344

> <b_epik_Metal_Only>
0

> <s_lp_Force_Field>
OPLS_2005

> <r_lp_Energy>
2.9569

> <b_lp_Chiralities_Consistent>
1

> <s_lp_Variant>
AV-unprocessed.smi:2698-4

> <Gold.Version>
5.8.1

> <Gold.Id.Protein>
6NUR|6NUR_protein|mol2

> <Gold.PLP.Fitness>
49.1668

> <Gold.PLP.PLP>
-31.6662

> <Gold.PLP.part.hbond>
-3.0000

> <Gold.PLP.part.metal>
0.0000

> <Gold.PLP.part.buried>
-3.2033

> <Gold.PLP.part.nonpolar>
-26.5452

> <Gold.PLP.part.repulsive>
0.3939

> <Gold.PLP.ligand.clash>
0.0000

> <Gold.PLP.ligand.torsion>
0.3312

> <Gold.PLP.Chemscore.Hbond>
3.9840

> <Gold.PLP.Chemscore.CHOScore>
1.9346

> <Gold.PLP.Chemscore.Metal>
0.0000

> <Gold.Chemscore.Hbonds>
donor molecule, donor type, donor heavy atom, donor atom, acceptor molecule, acceptor atom, score
      P1  H  7997  8009       L1    16  1.95
      P1  H 10752 10764       L1    17  2.00
      L1  C    11    32       P1  8028  0.84
      L1  C    13    33       P1 10175  0.99

> <Gold.PLP.Chemscore.Internal.Correction>
0.4072

> <Gold.Rescore>
     Score         DG    S(hbond)    S(metal)    S(lipo)     H(rot)  DE(clash)    DE(int)     intcor
     11.58     -12.36       1.86        0.00      71.79       3.01       0.16       0.62       ----

> <Gold.Chemscore.Fitness>
11.5805

> <Gold.Chemscore.DG>
-12.3626

> <Gold.Chemscore.ZeroCoef>
-5.4800

> <Gold.Chemscore.Hbond>
1.8565

> <Gold.Chemscore.Metal>
0.0000

> <Gold.Chemscore.Lipo>
71.7874

> <Gold.Chemscore.Internal_Hbond>
0.0000

> <Gold.Chemscore.DEClash>
0.1600

> <Gold.Chemscore.DEInternal>
0.6221

> <Gold.Chemscore.Rot>
3.0145

> <Gold.Chemscore.Internal.Correction>
   9.000000E+99

> <Gold.Chemscore.Hbonds>
donor molecule, donor type, donor heavy atom, donor atom, acceptor molecule, acceptor atom, score
      P1  H  7997  8009       L1    16  0.93
      P1  H 10752 10764       L1    17  0.93

> <Gold.Chemscore.Hbond.Weighted>
-6.2006

> <Gold.Chemscore.Metal.Weighted>
-0.0000

> <Gold.Chemscore.Lipo.Weighted>
-8.3991

> <Gold.Chemscore.Internal_Hbond.Weighted>
0.0000

> <Gold.Chemscore.DEClash.Weighted>
0.1600

> <Gold.Chemscore.DEInternal.Weighted>
0.6221

> <Gold.Chemscore.Rot.Weighted>
7.7171

> <Gold.Chemscore.Internal.Correction.Weighted>
   9.000000E+99

> <Gold.Protein.RotatedTorsions>
[ 6907 6896 6895 6894 ] final  121.72 input  -60.11 | X-H torsion
[ 7974 7965 7964 7962 ] final -105.05 input  175.53 | X-H torsion
[ 8008 7997 7996 7995 ] final -166.26 input   59.86 | X-H torsion
[ 10167 10162 10161 10158 ] final  170.40 input  -65.29 | X-H torsion
[ 10718 10713 10712 10709 ] final -101.27 input   66.30 | X-H torsion
[ 10763 10752 10751 10750 ] final  -53.74 input  -60.55 | X-H torsion
[ 11005 11000 10999 10996 ] final  -29.14 input  -57.11 | X-H torsion

> <Gold.Protein.ActiveResidues>
 VAL166  LYS551  ARG553  GLY616  TRP617  ASP618  TYR619  PRO620  LYS621  CYS622 
 ASP623  PHE694  ASN695  SER759  ASP760  ASP761  ALA762  ILE779  LEU786  VAL792 
 PHE793  MET794  SER795  GLU796  ALA797  LYS798  CYS799  TRP800  GLU811  SER814 

> <Gold.Protein.RotatedAtoms>
  152.4299  133.7260  159.6560 H   0  0  0  0  0  0  0  0  0  0  0  0  # atno 6907 bound_to 6896
  150.8178  133.8296  159.3158 H   0  0  0  0  0  0  0  0  0  0  0  0  # atno 6908 bound_to 6896
  151.5987  135.1051  160.0107 H   0  0  0  0  0  0  0  0  0  0  0  0  # atno 6909 bound_to 6896
  145.2353  140.9185  143.3181 H   0  0  0  0  0  0  0  0  0  0  0  0  # atno 7974 bound_to 7965
  155.8613  140.0978  157.1611 H   0  0  0  0  0  0  0  0  0  0  0  0  # atno 8008 bound_to 7997
  154.3990  140.1364  156.4027 H   0  0  0  0  0  0  0  0  0  0  0  0  # atno 8009 bound_to 7997
  155.7853  140.3457  155.5322 H   0  0  0  0  0  0  0  0  0  0  0  0  # atno 8010 bound_to 7997
  139.5018  144.3600  151.9834 H   0  0  0  0  0  0  0  0  0  0  0  0  # atno 10167 bound_to 10162
  156.0189  130.5365  150.6938 H   0  0  0  0  0  0  0  0  0  0  0  0  # atno 10718 bound_to 10713
  154.1637  135.6470  153.4992 H   0  0  0  0  0  0  0  0  0  0  0  0  # atno 10763 bound_to 10752
  153.0103  135.5367  154.6684 H   0  0  0  0  0  0  0  0  0  0  0  0  # atno 10764 bound_to 10752
  154.6004  135.2943  155.0513 H   0  0  0  0  0  0  0  0  0  0  0  0  # atno 10765 bound_to 10752
  140.9270  133.7362  156.0881 H   0  0  0  0  0  0  0  0  0  0  0  0  # atno 11005 bound_to 11000
  144.9639  139.3951  143.6342 LP  0  0  0  0  0  0  0  0  0  0  0  0  # atno 17320 bound_to 7965
  146.3342  139.8704  142.8841 LP  0  0  0  0  0  0  0  0  0  0  0  0  # atno 17321 bound_to 7965
  140.3036  144.3618  150.6053 LP  0  0  0  0  0  0  0  0  0  0  0  0  # atno 17342 bound_to 10162
  140.5854  143.2170  151.7352 LP  0  0  0  0  0  0  0  0  0  0  0  0  # atno 17343 bound_to 10162
  157.4614  131.0883  151.0742 LP  0  0  0  0  0  0  0  0  0  0  0  0  # atno 17370 bound_to 10713
  157.1229  130.6069  149.5509 LP  0  0  0  0  0  0  0  0  0  0  0  0  # atno 17371 bound_to 10713
  140.7913  134.3614  157.5464 LP  0  0  0  0  0  0  0  0  0  0  0  0  # atno 17394 bound_to 11000
  139.8787  134.9142  156.3101 LP  0  0  0  0  0  0  0  0  0  0  0  0  # atno 17395 bound_to 11000

$$$$
