AV-unprocessed.smi:3074|AV-procd|sdf|11721|dock4
  -GOLD-   2272017123D 1   1.00000     0.00000
 Structure written by MMmdl.
 19 20  0  0  0  0  0  0  0  0  2 V2000
  152.7738  143.0139  162.1953 C   0  0  0  0  0  0  0  0  0  0  0  0
  152.1864  143.4937  161.0464 C   0  0  0  0  0  0  0  0  0  0  0  0
  152.7586  142.7970  159.9901 N   0  0  0  0  0  0  0  0  0  0  0  0
  152.4934  143.0001  158.5977 C   0  0  0  0  0  0  0  0  0  0  0  0
  152.1951  144.3953  158.0510 C   0  0  0  0  0  0  0  0  0  0  0  0
  151.2973  143.7620  157.0932 N   0  3  0  0  0  0  0  0  0  0  0  0
  151.1426  142.6237  157.9907 C   0  0  0  0  0  0  0  0  0  0  0  0
  153.6759  141.9921  160.5437 C   0  0  0  0  0  0  0  0  0  0  0  0
  153.7293  142.0545  161.8676 N   0  0  0  0  0  0  0  0  0  0  0  0
  152.5952  143.2943  163.2230 H   0  0  0  0  0  0  0  0  0  0  0  0
  151.4267  144.2477  160.9012 H   0  0  0  0  0  0  0  0  0  0  0  0
  153.3144  142.5306  158.0510 H   0  0  0  0  0  0  0  0  0  0  0  0
  151.6592  145.0361  158.7542 H   0  0  0  0  0  0  0  0  0  0  0  0
  153.0455  144.9041  157.5962 H   0  0  0  0  0  0  0  0  0  0  0  0
  150.4433  144.2756  156.9278 H   0  0  0  0  0  0  0  0  0  0  0  0
  151.1171  141.6583  157.4845 H   0  0  0  0  0  0  0  0  0  0  0  0
  150.3025  142.7525  158.6762 H   0  0  0  0  0  0  0  0  0  0  0  0
  154.3179  141.3439  159.9648 H   0  0  0  0  0  0  0  0  0  0  0  0
  151.7842  143.5025  156.2470 H   0  0  0  0  0  0  0  0  0  0  0  0
  1  9  1  0  0  0  0
  1  2  2  0  0  0  0
  1 10  1  0  0  0  0
  2  3  1  0  0  0  0
  2 11  1  0  0  0  0
  3  4  1  0  0  0  0
  3  8  1  0  0  0  0
  4  7  1  0  0  0  0
  4  5  1  0  0  0  0
  4 12  1  0  0  0  0
  5  6  1  0  0  0  0
  5 13  1  0  0  0  0
  5 14  1  0  0  0  0
  6  7  1  0  0  0  0
  6 15  1  0  0  0  0
  6 19  1  0  0  0  0
  7 16  1  0  0  0  0
  7 17  1  0  0  0  0
  8  9  2  0  0  0  0
  8 18  1  0  0  0  0
M  CHG  1   6   1
M  END
> <s_m_source_file>
AV-unprocessed.smi

> <i_m_source_file_index>
3074

> <i_lp_mmshare_version>
43012

> <i_f3d_flags>
0

> <s_epik_input>
W2NIXTFuW2NIXVtjSF1uMVtDSF0yW0NIMl1bTkhdW0NIMl0y

> <s_epik_cmdline>
J2VwaWtfcHl0aG9uJywgJy1waCcsICc3LjAnLCAnLXRuJywgJzgnLCAnLW1hJywgJzIwMCcsICctbWV0YWxfYmluZGluZycsICctaW1hZScsICc8aW5maWxlLm1hZT4nLCAnLW9tYWUnLCAnPG91dGZpbGUubWFlPic=

> <r_lp_tautomer_probability>
1

> <r_epik_Ionization_Penalty>
0.0670812

> <r_epik_Ionization_Penalty_Charging>
0.0670812

> <r_epik_Ionization_Penalty_Neutral>
0

> <r_epik_State_Penalty>
0.102677

> <r_epik_Charging_Adjusted_Penalty>
0.169758

> <i_epik_Tot_Q>
1

> <i_epik_Tot_abs_Q>
1

> <r_epik_Metal_State_Penalty>
0.000102988

> <b_epik_Metal_Only>
0

> <s_lp_Force_Field>
OPLS_2005

> <r_lp_Energy>
18.1517

> <b_lp_Chiralities_Consistent>
1

> <s_lp_Variant>
AV-unprocessed.smi:3074-1

> <Gold.Version>
5.8.1

> <Gold.Id.Protein>
6NUR|6NUR_protein|mol2

> <Gold.PLP.Fitness>
35.7157

> <Gold.PLP.PLP>
-30.1993

> <Gold.PLP.part.hbond>
-1.4007

> <Gold.PLP.part.metal>
0.0000

> <Gold.PLP.part.buried>
-3.6305

> <Gold.PLP.part.nonpolar>
-24.3783

> <Gold.PLP.part.repulsive>
0.0245

> <Gold.PLP.ligand.clash>
0.0000

> <Gold.PLP.ligand.torsion>
0.3584

> <Gold.PLP.Chemscore.Hbond>
1.9840

> <Gold.PLP.Chemscore.CHOScore>
0.0000

> <Gold.PLP.Chemscore.Metal>
0.0000

> <Gold.Chemscore.Hbonds>
donor molecule, donor type, donor heavy atom, donor atom, acceptor molecule, acceptor atom, score
      L1  H     6    15       P1  8028  1.98

> <Gold.PLP.Chemscore.Internal.Correction>
0.2811

> <Gold.Rescore>
     Score         DG    S(hbond)    S(metal)    S(lipo)     H(rot)  DE(clash)    DE(int)     intcor
     12.80     -13.13       0.99        0.00      59.00       1.00       0.00       0.33       ----

> <Gold.Chemscore.Fitness>
12.8030

> <Gold.Chemscore.DG>
-13.1346

> <Gold.Chemscore.ZeroCoef>
-5.4800

> <Gold.Chemscore.Hbond>
0.9916

> <Gold.Chemscore.Metal>
0.0000

> <Gold.Chemscore.Lipo>
58.9961

> <Gold.Chemscore.Internal_Hbond>
0.0000

> <Gold.Chemscore.DEClash>
0.0000

> <Gold.Chemscore.DEInternal>
0.3316

> <Gold.Chemscore.Rot>
1.0000

> <Gold.Chemscore.Internal.Correction>
   9.000000E+99

> <Gold.Chemscore.Hbonds>
donor molecule, donor type, donor heavy atom, donor atom, acceptor molecule, acceptor atom, score
      L1  H     6    15       P1  8028  0.84

> <Gold.Chemscore.Hbond.Weighted>
-3.3121

> <Gold.Chemscore.Metal.Weighted>
-0.0000

> <Gold.Chemscore.Lipo.Weighted>
-6.9025

> <Gold.Chemscore.Internal_Hbond.Weighted>
0.0000

> <Gold.Chemscore.DEClash.Weighted>
0.0000

> <Gold.Chemscore.DEInternal.Weighted>
0.3316

> <Gold.Chemscore.Rot.Weighted>
2.5600

> <Gold.Chemscore.Internal.Correction.Weighted>
   9.000000E+99

> <Gold.Protein.RotatedTorsions>
[ 6907 6896 6895 6894 ] final -174.51 input  -60.11 | X-H torsion
[ 7974 7965 7964 7962 ] final   18.44 input  175.53 | X-H torsion
[ 8008 7997 7996 7995 ] final  105.36 input   59.86 | X-H torsion
[ 10167 10162 10161 10158 ] final   76.14 input  -65.29 | X-H torsion
[ 10718 10713 10712 10709 ] final  111.48 input   66.30 | X-H torsion
[ 10763 10752 10751 10750 ] final  -56.94 input  -60.55 | X-H torsion
[ 11005 11000 10999 10996 ] final   24.74 input  -57.11 | X-H torsion

> <Gold.Protein.ActiveResidues>
 VAL166  LYS551  ARG553  GLY616  TRP617  ASP618  TYR619  PRO620  LYS621  CYS622 
 ASP623  PHE694  ASN695  SER759  ASP760  ASP761  ALA762  ILE779  LEU786  VAL792 
 PHE793  MET794  SER795  GLU796  ALA797  LYS798  CYS799  TRP800  GLU811  SER814 

> <Gold.Protein.RotatedAtoms>
  151.5735  133.3387  159.2994 H   0  0  0  0  0  0  0  0  0  0  0  0  # atno 6907 bound_to 6896
  150.8354  134.7627  159.6899 H   0  0  0  0  0  0  0  0  0  0  0  0  # atno 6908 bound_to 6896
  152.4431  134.5557  159.9931 H   0  0  0  0  0  0  0  0  0  0  0  0  # atno 6909 bound_to 6896
  146.2185  139.8457  142.8632 H   0  0  0  0  0  0  0  0  0  0  0  0  # atno 7974 bound_to 7965
  156.1652  140.3132  155.8876 H   0  0  0  0  0  0  0  0  0  0  0  0  # atno 8008 bound_to 7997
  155.3701  140.0481  157.3062 H   0  0  0  0  0  0  0  0  0  0  0  0  # atno 8009 bound_to 7997
  154.5185  140.2190  155.9030 H   0  0  0  0  0  0  0  0  0  0  0  0  # atno 8010 bound_to 7997
  139.9955  144.5725  150.7781 H   0  0  0  0  0  0  0  0  0  0  0  0  # atno 10167 bound_to 10162
  157.6442  131.0951  150.6754 H   0  0  0  0  0  0  0  0  0  0  0  0  # atno 10718 bound_to 10713
  154.2146  135.6388  153.5126 H   0  0  0  0  0  0  0  0  0  0  0  0  # atno 10763 bound_to 10752
  152.9982  135.5482  154.6179 H   0  0  0  0  0  0  0  0  0  0  0  0  # atno 10764 bound_to 10752
  154.5624  135.2910  155.0880 H   0  0  0  0  0  0  0  0  0  0  0  0  # atno 10765 bound_to 10752
  140.3554  134.2183  155.7676 H   0  0  0  0  0  0  0  0  0  0  0  0  # atno 11005 bound_to 11000
  145.2853  141.0151  143.3694 LP  0  0  0  0  0  0  0  0  0  0  0  0  # atno 17320 bound_to 7965
  144.9119  139.4518  143.6583 LP  0  0  0  0  0  0  0  0  0  0  0  0  # atno 17321 bound_to 7965
  140.7439  143.2852  151.3483 LP  0  0  0  0  0  0  0  0  0  0  0  0  # atno 17342 bound_to 10162
  139.6309  144.0722  152.2475 LP  0  0  0  0  0  0  0  0  0  0  0  0  # atno 17343 bound_to 10162
  156.7074  130.4641  149.5556 LP  0  0  0  0  0  0  0  0  0  0  0  0  # atno 17370 bound_to 10713
  156.1753  130.6464  151.0887 LP  0  0  0  0  0  0  0  0  0  0  0  0  # atno 17371 bound_to 10713
  141.2000  133.7998  157.0511 LP  0  0  0  0  0  0  0  0  0  0  0  0  # atno 17394 bound_to 11000
  140.0669  134.9724  157.1401 LP  0  0  0  0  0  0  0  0  0  0  0  0  # atno 17395 bound_to 11000

$$$$
