AV-unprocessed.smi:34|AV-procd|sdf|235|dock2
  -GOLD-   2262015573D 1   1.00000     0.00000
 Structure written by MMmdl.
 54 58  0  0  0  0  0  0  0  0  2 V2000
  152.0175  139.5846  159.0560 O   0  0  0  0  0  0  0  0  0  0  0  0
  152.1157  140.4194  158.1538 C   0  0  0  0  0  0  0  0  0  0  0  0
  152.2734  140.1960  156.8243 N   0  5  0  0  0  0  0  0  0  0  0  0
  151.3775  139.4453  156.1653 C   0  0  0  0  0  0  0  0  0  0  0  0
  150.8434  139.8815  154.9955 N   0  0  0  0  0  0  0  0  0  0  0  0
  149.9552  139.1294  154.3350 C   0  0  0  0  0  0  0  0  0  0  0  0
  149.4646  137.9287  154.6586 N   0  0  0  0  0  0  0  0  0  0  0  0
  149.9848  137.4859  155.8404 C   0  0  0  0  0  0  0  0  0  0  0  0
  150.9314  138.1836  156.6456 C   0  0  0  0  0  0  0  0  0  0  0  0
  151.2415  137.4532  157.7839 N   0  0  0  0  0  0  0  0  0  0  0  0
  150.4885  136.3673  157.6199 C   0  0  0  0  0  0  0  0  0  0  0  0
  149.7325  136.2990  156.5052 N   0  0  0  0  0  0  0  0  0  0  0  0
  148.8136  135.2056  156.0736 C   0  0  2  0  0  0  0  0  0  0  0  0
  148.6723  134.3329  157.1537 O   0  0  0  0  0  0  0  0  0  0  0  0
  148.6885  132.9856  156.6986 C   0  0  1  0  0  0  0  0  0  0  0  0
  147.2635  132.5627  156.3048 C   0  0  0  0  0  0  0  0  0  0  0  0
  146.4675  132.4418  157.4721 O   0  0  0  0  0  0  0  0  0  0  0  0
  145.1641  132.7847  157.4362 C   0  0  0  0  0  0  0  0  0  0  0  0
  144.7076  133.6518  156.6880 O   0  0  0  0  0  0  0  0  0  0  0  0
  144.3318  132.0102  158.4014 C   0  0  0  0  0  0  0  0  0  0  0  0
  142.9219  132.0810  158.3125 C   0  0  0  0  0  0  0  0  0  0  0  0
  142.1095  131.3635  159.2119 C   0  0  0  0  0  0  0  0  0  0  0  0
  142.6972  130.5650  160.2103 C   0  0  0  0  0  0  0  0  0  0  0  0
  144.0986  130.4849  160.3083 C   0  0  0  0  0  0  0  0  0  0  0  0
  144.9127  131.2027  159.4104 C   0  0  0  0  0  0  0  0  0  0  0  0
  149.6467  133.0327  155.5079 C   0  0  2  0  0  0  0  0  0  0  0  0
  150.9015  132.9316  155.9490 F   0  0  0  0  0  0  0  0  0  0  0  0
  149.4295  134.4150  154.9059 C   0  0  1  0  0  0  0  0  0  0  0  0
  148.5548  134.3381  153.7981 O   0  0  0  0  0  0  0  0  0  0  0  0
  152.1353  141.8794  158.5183 C   0  0  0  0  0  0  0  0  0  0  0  0
  152.6901  142.2849  159.7537 C   0  0  0  0  0  0  0  0  0  0  0  0
  152.6940  143.6433  160.1259 C   0  0  0  0  0  0  0  0  0  0  0  0
  152.1330  144.6101  159.2706 C   0  0  0  0  0  0  0  0  0  0  0  0
  151.5656  144.2168  158.0441 C   0  0  0  0  0  0  0  0  0  0  0  0
  151.5627  142.8586  157.6704 C   0  0  0  0  0  0  0  0  0  0  0  0
  149.5848  139.5507  153.4123 H   0  0  0  0  0  0  0  0  0  0  0  0
  150.4896  135.5721  158.3507 H   0  0  0  0  0  0  0  0  0  0  0  0
  147.8664  135.6897  155.8320 H   0  0  0  0  0  0  0  0  0  0  0  0
  149.0663  132.3213  157.4773 H   0  0  0  0  0  0  0  0  0  0  0  0
  146.8249  133.2840  155.6137 H   0  0  0  0  0  0  0  0  0  0  0  0
  147.2868  131.5971  155.7983 H   0  0  0  0  0  0  0  0  0  0  0  0
  142.4479  132.6881  157.5546 H   0  0  0  0  0  0  0  0  0  0  0  0
  141.0339  131.4265  159.1349 H   0  0  0  0  0  0  0  0  0  0  0  0
  142.0739  130.0149  160.8998 H   0  0  0  0  0  0  0  0  0  0  0  0
  144.5508  129.8714  161.0735 H   0  0  0  0  0  0  0  0  0  0  0  0
  145.9848  131.1191  159.5131 H   0  0  0  0  0  0  0  0  0  0  0  0
  149.5014  132.2152  154.8005 H   0  0  0  0  0  0  0  0  0  0  0  0
  150.3670  134.8619  154.5709 H   0  0  0  0  0  0  0  0  0  0  0  0
  148.8550  134.9394  153.1339 H   0  0  0  0  0  0  0  0  0  0  0  0
  153.1220  141.5543  160.4223 H   0  0  0  0  0  0  0  0  0  0  0  0
  153.1259  143.9424  161.0691 H   0  0  0  0  0  0  0  0  0  0  0  0
  152.1339  145.6513  159.5569 H   0  0  0  0  0  0  0  0  0  0  0  0
  151.1284  144.9567  157.3900 H   0  0  0  0  0  0  0  0  0  0  0  0
  151.1125  142.5759  156.7297 H   0  0  0  0  0  0  0  0  0  0  0  0
  1  2  2  0  0  0  0
  2  3  1  0  0  0  0
  2 30  1  0  0  0  0
  3  4  1  0  0  0  0
  4  9  1  0  0  0  0
  4  5  2  0  0  0  0
  5  6  1  0  0  0  0
  6  7  2  0  0  0  0
  6 36  1  0  0  0  0
  7  8  1  0  0  0  0
  8 12  1  0  0  0  0
  8  9  2  0  0  0  0
  9 10  1  0  0  0  0
 10 11  2  0  0  0  0
 11 12  1  0  0  0  0
 11 37  1  0  0  0  0
 12 13  1  0  0  0  0
 13 28  1  0  0  0  0
 13 14  1  0  0  0  0
 13 38  1  0  0  0  0
 14 15  1  0  0  0  0
 15 16  1  0  0  0  0
 15 26  1  0  0  0  0
 15 39  1  0  0  0  0
 16 17  1  0  0  0  0
 16 40  1  0  0  0  0
 16 41  1  0  0  0  0
 17 18  1  0  0  0  0
 18 19  2  0  0  0  0
 18 20  1  0  0  0  0
 20 25  1  0  0  0  0
 20 21  2  0  0  0  0
 21 22  1  0  0  0  0
 21 42  1  0  0  0  0
 22 23  2  0  0  0  0
 22 43  1  0  0  0  0
 23 24  1  0  0  0  0
 23 44  1  0  0  0  0
 24 25  2  0  0  0  0
 24 45  1  0  0  0  0
 25 46  1  0  0  0  0
 26 27  1  0  0  0  0
 26 28  1  0  0  0  0
 26 47  1  0  0  0  0
 28 29  1  0  0  0  0
 28 48  1  0  0  0  0
 29 49  1  0  0  0  0
 30 35  1  0  0  0  0
 30 31  2  0  0  0  0
 31 32  1  0  0  0  0
 31 50  1  0  0  0  0
 32 33  2  0  0  0  0
 32 51  1  0  0  0  0
 33 34  1  0  0  0  0
 33 52  1  0  0  0  0
 34 35  2  0  0  0  0
 34 53  1  0  0  0  0
 35 54  1  0  0  0  0
M  CHG  1   3  -1
M  END
> <s_m_source_file>
AV-unprocessed.smi

> <i_m_source_file_index>
34

> <i_lp_mmshare_version>
43012

> <i_f3d_flags>
0

> <s_epik_input>
W2NIXTFbY0hdW2NIXVtjSF1bY0hdYzFDKD1PKVtOSF1jKG5bY0hdbjIpYyhjMjMpbltjSF1uM1tDQEBIXTRPW0NASF0oW0NAQEhdKEYpW0NASF00W09IXSlbQ0gyXU9DKD1PKWM1W2NIXVtjSF1bY0hdW2NIXVtjSF01

> <s_epik_cmdline>
J2VwaWtfcHl0aG9uJywgJy1waCcsICc3LjAnLCAnLXRuJywgJzgnLCAnLW1hJywgJzIwMCcsICctbWV0YWxfYmluZGluZycsICctaW1hZScsICc8aW5maWxlLm1hZT4nLCAnLW9tYWUnLCAnPG91dGZpbGUubWFlPic=

> <r_lp_tautomer_probability>
1

> <r_epik_Ionization_Penalty>
4.33227

> <r_epik_Ionization_Penalty_Charging>
3.41027

> <r_epik_Ionization_Penalty_Neutral>
0.922001

> <r_epik_State_Penalty>
3.41358

> <r_epik_Charging_Adjusted_Penalty>
6.82385

> <i_epik_Tot_Q>
-1

> <i_epik_Tot_abs_Q>
1

> <r_epik_Metal_State_Penalty>
0.496292

> <b_epik_Metal_Only>
1

> <s_epik_Chemistry_Notes>
This compound has an ester and may undergo hydrolysis at high or low pH. This compound contains an acetal/aminal-like group ( X-CH(R)-Y where X, Y are N, S, or O) that may be acid/base labile, releasing an aldehyde.

> <s_lp_Force_Field>
OPLS_2005

> <r_lp_Energy>
42.8672

> <b_lp_Chiralities_Consistent>
1

> <s_lp_Variant>
AV-unprocessed.smi:34-21

> <Gold.Version>
5.8.1

> <Gold.Id.Protein>
6NUR|6NUR_protein|mol2

> <Gold.PLP.Fitness>
56.6651

> <Gold.PLP.PLP>
-46.0688

> <Gold.PLP.part.hbond>
-3.0000

> <Gold.PLP.part.metal>
0.0000

> <Gold.PLP.part.buried>
-7.2350

> <Gold.PLP.part.nonpolar>
-36.2186

> <Gold.PLP.part.repulsive>
0.3544

> <Gold.PLP.ligand.clash>
0.0000

> <Gold.PLP.ligand.torsion>
2.3648

> <Gold.PLP.Chemscore.Hbond>
4.0000

> <Gold.PLP.Chemscore.CHOScore>
1.0000

> <Gold.PLP.Chemscore.Metal>
0.0000

> <Gold.Chemscore.Hbonds>
donor molecule, donor type, donor heavy atom, donor atom, acceptor molecule, acceptor atom, score
      L1  H    29    49       P1  7948  1.00
      P1  H  7989  7998       L1     5  1.00
      P1  H  7997  8010       L1     3  1.69
      L1  C     6    36       P1  7957  1.00

> <Gold.PLP.Chemscore.Internal.Correction>
0.3258

> <Gold.Rescore>
     Score         DG    S(hbond)    S(metal)    S(lipo)     H(rot)  DE(clash)    DE(int)     intcor
     11.53     -16.48       1.56        0.00     108.49       2.69       0.16       4.79       ----

> <Gold.Chemscore.Fitness>
11.5305

> <Gold.Chemscore.DG>
-16.4755

> <Gold.Chemscore.ZeroCoef>
-5.4800

> <Gold.Chemscore.Hbond>
1.5567

> <Gold.Chemscore.Metal>
0.0000

> <Gold.Chemscore.Lipo>
108.4936

> <Gold.Chemscore.Internal_Hbond>
0.0000

> <Gold.Chemscore.DEClash>
0.1589

> <Gold.Chemscore.DEInternal>
4.7861

> <Gold.Chemscore.Rot>
2.6944

> <Gold.Chemscore.Internal.Correction>
   9.000000E+99

> <Gold.Chemscore.Hbonds>
donor molecule, donor type, donor heavy atom, donor atom, acceptor molecule, acceptor atom, score
      L1  H    29    49       P1  7948  0.26
      P1  H  7989  7998       L1     5  0.25
      P1  H  7997  8010       L1     3  0.44

> <Gold.Chemscore.Hbond.Weighted>
-5.1993

> <Gold.Chemscore.Metal.Weighted>
-0.0000

> <Gold.Chemscore.Lipo.Weighted>
-12.6938

> <Gold.Chemscore.Internal_Hbond.Weighted>
0.0000

> <Gold.Chemscore.DEClash.Weighted>
0.1589

> <Gold.Chemscore.DEInternal.Weighted>
4.7861

> <Gold.Chemscore.Rot.Weighted>
6.8975

> <Gold.Chemscore.Internal.Correction.Weighted>
   9.000000E+99

> <Gold.Protein.RotatedTorsions>
[ 6907 6896 6895 6894 ] final -107.99 input  -60.11 | X-H torsion
[ 7974 7965 7964 7962 ] final  -74.13 input  175.53 | X-H torsion
[ 8008 7997 7996 7995 ] final   69.07 input   59.86 | X-H torsion
[ 10167 10162 10161 10158 ] final -173.09 input  -65.29 | X-H torsion
[ 10718 10713 10712 10709 ] final   90.59 input   66.30 | X-H torsion
[ 10763 10752 10751 10750 ] final   14.82 input  -60.55 | X-H torsion
[ 11005 11000 10999 10996 ] final  139.89 input  -57.11 | X-H torsion

> <Gold.Protein.ActiveResidues>
 VAL166  LYS551  ARG553  GLY616  TRP617  ASP618  TYR619  PRO620  LYS621  CYS622 
 ASP623  PHE694  ASN695  SER759  ASP760  ASP761  ALA762  ILE779  LEU786  VAL792 
 PHE793  MET794  SER795  GLU796  ALA797  LYS798  CYS799  TRP800  GLU811  SER814 

> <Gold.Protein.RotatedAtoms>
  150.7475  133.9744  159.3555 H   0  0  0  0  0  0  0  0  0  0  0  0  # atno 6907 bound_to 6896
  151.7680  135.0791  160.0365 H   0  0  0  0  0  0  0  0  0  0  0  0  # atno 6908 bound_to 6896
  152.3358  133.5973  159.5877 H   0  0  0  0  0  0  0  0  0  0  0  0  # atno 6909 bound_to 6896
  145.6431  140.9305  143.1025 H   0  0  0  0  0  0  0  0  0  0  0  0  # atno 7974 bound_to 7965
  155.7179  140.3493  155.5003 H   0  0  0  0  0  0  0  0  0  0  0  0  # atno 8008 bound_to 7997
  155.9296  140.1082  157.1164 H   0  0  0  0  0  0  0  0  0  0  0  0  # atno 8009 bound_to 7997
  154.4083  140.1234  156.4772 H   0  0  0  0  0  0  0  0  0  0  0  0  # atno 8010 bound_to 7997
  139.5708  144.1647  152.1380 H   0  0  0  0  0  0  0  0  0  0  0  0  # atno 10167 bound_to 10162
  157.6959  131.0376  150.3601 H   0  0  0  0  0  0  0  0  0  0  0  0  # atno 10718 bound_to 10713
  153.1585  135.6791  153.8777 H   0  0  0  0  0  0  0  0  0  0  0  0  # atno 10763 bound_to 10752
  153.8180  135.3134  155.3408 H   0  0  0  0  0  0  0  0  0  0  0  0  # atno 10764 bound_to 10752
  154.7915  135.4832  154.0152 H   0  0  0  0  0  0  0  0  0  0  0  0  # atno 10765 bound_to 10752
  140.0287  134.9362  157.0620 H   0  0  0  0  0  0  0  0  0  0  0  0  # atno 11005 bound_to 11000
  144.7150  139.8231  143.7402 LP  0  0  0  0  0  0  0  0  0  0  0  0  # atno 17320 bound_to 7965
  146.1264  139.4291  143.0196 LP  0  0  0  0  0  0  0  0  0  0  0  0  # atno 17321 bound_to 7965
  140.1180  144.5399  150.6881 LP  0  0  0  0  0  0  0  0  0  0  0  0  # atno 17342 bound_to 10162
  140.6992  143.2423  151.4914 LP  0  0  0  0  0  0  0  0  0  0  0  0  # atno 17343 bound_to 10162
  156.4038  130.3921  149.6940 LP  0  0  0  0  0  0  0  0  0  0  0  0  # atno 17370 bound_to 10713
  156.4248  130.7786  151.2805 LP  0  0  0  0  0  0  0  0  0  0  0  0  # atno 17371 bound_to 10713
  140.4262  134.1829  155.7166 LP  0  0  0  0  0  0  0  0  0  0  0  0  # atno 17394 bound_to 11000
  141.1818  133.8397  157.1229 LP  0  0  0  0  0  0  0  0  0  0  0  0  # atno 17395 bound_to 11000

$$$$
