AV-unprocessed.smi:66|AV-procd|sdf|626|dock2
  -GOLD-   2262016513D 1   1.00000     0.00000
 Structure written by MMmdl.
 27 29  0  0  0  0  0  0  0  0  3 V2000
  153.9160  139.9446  158.8845 O   0  0  0  0  0  0  0  0  0  0  0  0
  153.3315  140.8041  159.5798 C   0  0  0  0  0  0  0  0  0  0  0  0
  153.7158  141.2133  160.6982 O   0  5  0  0  0  0  0  0  0  0  0  0
  152.0275  141.3827  159.0108 C   0  0  1  0  0  0  0  0  0  0  0  0
  152.0872  142.9106  158.8682 C   0  0  0  0  0  0  0  0  0  0  0  0
  151.0909  143.1745  157.7434 C   0  0  1  0  0  0  0  0  0  0  0  0
  151.3056  144.4151  157.1033 O   0  0  0  0  0  0  0  0  0  0  0  0
  151.2918  141.9808  156.8071 C   0  0  0  0  0  0  0  0  0  0  0  0
  151.7239  140.8845  157.6664 N   0  0  0  0  0  0  0  0  0  0  0  0
  151.2141  139.5844  157.4502 C   0  0  0  0  0  0  0  0  0  0  0  0
  151.0268  138.7788  158.5274 N   0  0  0  0  0  0  0  0  0  0  0  0
  150.5392  137.5516  158.3158 C   0  0  0  0  0  0  0  0  0  0  0  0
  150.2023  137.0108  157.1414 N   0  0  0  0  0  0  0  0  0  0  0  0
  150.3866  137.7954  156.0601 C   0  0  0  0  0  0  0  0  0  0  0  0
  150.1765  137.5920  154.7695 N   0  5  0  0  0  0  0  0  0  0  0  0
  150.5478  138.7228  154.1165 C   0  0  0  0  0  0  0  0  0  0  0  0
  151.0048  139.6920  154.9354 N   0  0  0  0  0  0  0  0  0  0  0  0
  150.8902  139.0924  156.1582 C   0  0  0  0  0  0  0  0  0  0  0  0
  151.1992  141.1291  159.6743 H   0  0  0  0  0  0  0  0  0  0  0  0
  151.8267  143.4301  159.7908 H   0  0  0  0  0  0  0  0  0  0  0  0
  153.0843  143.2381  158.5669 H   0  0  0  0  0  0  0  0  0  0  0  0
  150.0782  143.1510  158.1487 H   0  0  0  0  0  0  0  0  0  0  0  0
  150.4674  144.7653  156.8445 H   0  0  0  0  0  0  0  0  0  0  0  0
  150.3733  141.7609  156.2615 H   0  0  0  0  0  0  0  0  0  0  0  0
  152.0825  142.1753  156.0811 H   0  0  0  0  0  0  0  0  0  0  0  0
  150.3966  136.9332  159.1896 H   0  0  0  0  0  0  0  0  0  0  0  0
  150.4603  138.7749  153.0384 H   0  0  0  0  0  0  0  0  0  0  0  0
  1  2  2  0  0  0  0
  2  3  1  0  0  0  0
  2  4  1  0  0  0  0
  4  5  1  0  0  0  0
  4 19  1  0  0  0  0
  4  9  1  0  0  0  0
  5  6  1  0  0  0  0
  5 20  1  0  0  0  0
  5 21  1  0  0  0  0
  6  7  1  0  0  0  0
  6  8  1  0  0  0  0
  6 22  1  0  0  0  0
  7 23  1  0  0  0  0
  8 24  1  0  0  0  0
  8 25  1  0  0  0  0
  8  9  1  0  0  0  0
  9 10  1  0  0  0  0
 10 11  1  0  0  0  0
 10 18  2  0  0  0  0
 11 12  2  0  0  0  0
 12 26  1  0  0  0  0
 12 13  1  0  0  0  0
 13 14  2  0  0  0  0
 14 15  1  0  0  0  0
 14 18  1  0  0  0  0
 15 16  1  0  0  0  0
 16 17  2  0  0  0  0
 16 27  1  0  0  0  0
 17 18  1  0  0  0  0
M  CHG  1   3  -1
M  CHG  1  15  -1
M  END
> <s_m_source_file>
AV-unprocessed.smi

> <i_m_source_file_index>
66

> <i_lp_mmshare_version>
43012

> <i_f3d_flags>
0

> <s_epik_input>
Tz1DKFtPSF0pW0NAQEhdMVtDSDJdW0NAQEhdKFtPSF0pW0NIMl1OMWMobltjSF1uMiljKGMyMylbbkhdW2NIXW4z

> <s_epik_cmdline>
J2VwaWtfcHl0aG9uJywgJy1waCcsICc3LjAnLCAnLXRuJywgJzgnLCAnLW1hJywgJzIwMCcsICctbWV0YWxfYmluZGluZycsICctaW1hZScsICc8aW5maWxlLm1hZT4nLCAnLW9tYWUnLCAnPG91dGZpbGUubWFlPic=

> <r_lp_tautomer_probability>
0.955585

> <r_epik_Ionization_Penalty>
7.65809

> <r_epik_Ionization_Penalty_Charging>
3.4974

> <r_epik_Ionization_Penalty_Neutral>
4.16069

> <r_epik_State_Penalty>
3.51624

> <r_epik_Charging_Adjusted_Penalty>
7.01364

> <i_epik_Tot_Q>
-2

> <i_epik_Tot_abs_Q>
2

> <r_epik_Metal_State_Penalty>
0.522662

> <b_epik_Metal_Only>
1

> <s_lp_Force_Field>
OPLS_2005

> <r_lp_Energy>
45.116

> <b_lp_Chiralities_Consistent>
1

> <s_lp_Variant>
AV-unprocessed.smi:66-10

> <Gold.Version>
5.8.1

> <Gold.Id.Protein>
6NUR|6NUR_protein|mol2

> <Gold.PLP.Fitness>
39.7046

> <Gold.PLP.PLP>
-25.3779

> <Gold.PLP.part.hbond>
-3.0000

> <Gold.PLP.part.metal>
0.0000

> <Gold.PLP.part.buried>
-5.0569

> <Gold.PLP.part.nonpolar>
-16.9235

> <Gold.PLP.part.repulsive>
0.2232

> <Gold.PLP.ligand.clash>
0.0000

> <Gold.PLP.ligand.torsion>
0.2465

> <Gold.PLP.Chemscore.Hbond>
3.8500

> <Gold.PLP.Chemscore.CHOScore>
1.0000

> <Gold.PLP.Chemscore.Metal>
0.0000

> <Gold.Chemscore.Hbonds>
donor molecule, donor type, donor heavy atom, donor atom, acceptor molecule, acceptor atom, score
      L1  H     7    23       P1  8028  1.00
      P1  H  7989  7998       L1    17  0.75
      P1  H  7997  8009       L1     1  2.00
      L1  C    16    27       P1  7957  1.00

> <Gold.PLP.Chemscore.Internal.Correction>
0.2697

> <Gold.Rescore>
     Score         DG    S(hbond)    S(metal)    S(lipo)     H(rot)  DE(clash)    DE(int)     intcor
     13.02     -15.07       2.78        0.00      41.60       1.78       0.26       1.80       ----

> <Gold.Chemscore.Fitness>
13.0165

> <Gold.Chemscore.DG>
-15.0721

> <Gold.Chemscore.ZeroCoef>
-5.4800

> <Gold.Chemscore.Hbond>
2.7754

> <Gold.Chemscore.Metal>
0.0000

> <Gold.Chemscore.Lipo>
41.6009

> <Gold.Chemscore.Internal_Hbond>
0.0000

> <Gold.Chemscore.DEClash>
0.2582

> <Gold.Chemscore.DEInternal>
1.7974

> <Gold.Chemscore.Rot>
1.7754

> <Gold.Chemscore.Internal.Correction>
   9.000000E+99

> <Gold.Chemscore.Hbonds>
donor molecule, donor type, donor heavy atom, donor atom, acceptor molecule, acceptor atom, score
      L1  H     7    23       P1  8028  0.71
      P1  H  7989  7998       L1    17  0.09
      P1  H  7997  8009       L1     1  0.97

> <Gold.Chemscore.Hbond.Weighted>
-9.2699

> <Gold.Chemscore.Metal.Weighted>
-0.0000

> <Gold.Chemscore.Lipo.Weighted>
-4.8673

> <Gold.Chemscore.Internal_Hbond.Weighted>
0.0000

> <Gold.Chemscore.DEClash.Weighted>
0.2582

> <Gold.Chemscore.DEInternal.Weighted>
1.7974

> <Gold.Chemscore.Rot.Weighted>
4.5451

> <Gold.Chemscore.Internal.Correction.Weighted>
   9.000000E+99

> <Gold.Protein.RotatedTorsions>
[ 6907 6896 6895 6894 ] final -159.44 input  -60.11 | X-H torsion
[ 7974 7965 7964 7962 ] final  -77.10 input  175.53 | X-H torsion
[ 8008 7997 7996 7995 ] final  134.23 input   59.86 | X-H torsion
[ 10167 10162 10161 10158 ] final -162.88 input  -65.29 | X-H torsion
[ 10718 10713 10712 10709 ] final   86.14 input   66.30 | X-H torsion
[ 10763 10752 10751 10750 ] final -162.78 input  -60.55 | X-H torsion
[ 11005 11000 10999 10996 ] final   80.54 input  -57.11 | X-H torsion

> <Gold.Protein.ActiveResidues>
 VAL166  LYS551  ARG553  GLY616  TRP617  ASP618  TYR619  PRO620  LYS621  CYS622 
 ASP623  PHE694  ASN695  SER759  ASP760  ASP761  ALA762  ILE779  LEU786  VAL792 
 PHE793  MET794  SER795  GLU796  ALA797  LYS798  CYS799  TRP800  GLU811  SER814 

> <Gold.Protein.RotatedAtoms>
  151.3336  133.3990  159.2664 H   0  0  0  0  0  0  0  0  0  0  0  0  # atno 6907 bound_to 6896
  150.9935  134.9265  159.7924 H   0  0  0  0  0  0  0  0  0  0  0  0  # atno 6908 bound_to 6896
  152.5254  134.3301  159.9232 H   0  0  0  0  0  0  0  0  0  0  0  0  # atno 6909 bound_to 6896
  145.6042  140.9402  143.1224 H   0  0  0  0  0  0  0  0  0  0  0  0  # atno 7974 bound_to 7965
  156.2998  140.2501  156.3383 H   0  0  0  0  0  0  0  0  0  0  0  0  # atno 8008 bound_to 7997
  154.9079  140.0404  157.1949 H   0  0  0  0  0  0  0  0  0  0  0  0  # atno 8009 bound_to 7997
  154.8435  140.2894  155.5648 H   0  0  0  0  0  0  0  0  0  0  0  0  # atno 8010 bound_to 7997
  139.6361  144.0348  152.2055 H   0  0  0  0  0  0  0  0  0  0  0  0  # atno 10167 bound_to 10162
  157.6925  131.0203  150.2928 H   0  0  0  0  0  0  0  0  0  0  0  0  # atno 10718 bound_to 10713
  154.7182  135.3020  154.9089 H   0  0  0  0  0  0  0  0  0  0  0  0  # atno 10763 bound_to 10752
  153.9969  135.6712  153.4761 H   0  0  0  0  0  0  0  0  0  0  0  0  # atno 10764 bound_to 10752
  153.0812  135.5008  154.8422 H   0  0  0  0  0  0  0  0  0  0  0  0  # atno 10765 bound_to 10752
  139.9130  134.7928  156.1923 H   0  0  0  0  0  0  0  0  0  0  0  0  # atno 11005 bound_to 11000
  144.7297  139.7764  143.7352 LP  0  0  0  0  0  0  0  0  0  0  0  0  # atno 17320 bound_to 7965
  146.1553  139.4649  143.0022 LP  0  0  0  0  0  0  0  0  0  0  0  0  # atno 17321 bound_to 7965
  140.0026  144.6282  150.7717 LP  0  0  0  0  0  0  0  0  0  0  0  0  # atno 17342 bound_to 10162
  140.7466  143.2893  151.3376 LP  0  0  0  0  0  0  0  0  0  0  0  0  # atno 17343 bound_to 10162
  156.3456  130.3822  149.7372 LP  0  0  0  0  0  0  0  0  0  0  0  0  # atno 17370 bound_to 10713
  156.4866  130.8065  151.3077 LP  0  0  0  0  0  0  0  0  0  0  0  0  # atno 17371 bound_to 10713
  141.0576  133.6857  156.1890 LP  0  0  0  0  0  0  0  0  0  0  0  0  # atno 17394 bound_to 11000
  140.6712  134.4865  157.5587 LP  0  0  0  0  0  0  0  0  0  0  0  0  # atno 17395 bound_to 11000

$$$$
