AV-unprocessed.smi:1295|AV-procd|sdf|5408|dock4
  -GOLD-   22720 4563D 1   1.00000     0.00000
 Structure written by MMmdl.
 43 44  0  0  0  0  0  0  0  0  1 V2000
  144.4627  143.8952  154.8093 C   0  0  0  0  0  0  0  0  0  0  0  0
  145.5790  142.9247  155.1295 C   0  0  0  0  0  0  0  0  0  0  0  0
  145.8935  142.0732  154.0831 N   0  0  0  0  0  0  0  0  0  0  0  0
  146.9022  141.1475  154.2829 C   0  0  0  0  0  0  0  0  0  0  0  0
  147.1821  140.2513  153.0886 C   0  0  0  0  0  0  0  0  0  0  0  0
  147.5629  141.0726  155.4661 C   0  0  0  0  0  0  0  0  0  0  0  0
  148.6762  140.0595  155.7265 C   0  0  0  0  0  0  0  0  0  0  0  0
  150.0586  140.6561  156.0002 C   0  0  0  0  0  0  0  0  0  0  0  0
  150.9702  140.5036  155.1873 O   0  0  0  0  0  0  0  0  0  0  0  0
  150.1941  141.3365  157.1490 N   0  0  0  0  0  0  0  0  0  0  0  0
  151.4013  142.0267  157.6014 C   0  0  1  0  0  0  0  0  0  0  0  0
  151.0964  143.5344  157.6968 C   0  0  0  0  0  0  0  0  0  0  0  0
  152.3006  144.3260  158.2260 C   0  0  0  0  0  0  0  0  0  0  0  0
  152.7626  143.7792  159.5830 C   0  0  0  0  0  0  0  0  0  0  0  0
  153.0851  142.2804  159.4908 C   0  0  0  0  0  0  0  0  0  0  0  0
  151.8894  141.4625  158.9608 C   0  0  2  0  0  0  0  0  0  0  0  0
  152.2512  139.9681  158.8884 C   0  0  0  0  0  0  0  0  0  0  0  0
  147.1790  142.0078  156.5499 C   0  0  0  0  0  0  0  0  0  0  0  0
  147.7324  141.9835  157.6483 O   0  0  0  0  0  0  0  0  0  0  0  0
  146.1518  142.9308  156.2945 N   0  0  0  0  0  0  0  0  0  0  0  0
  145.4250  142.0926  153.1889 H   0  0  0  0  0  0  0  0  0  0  0  0
  144.3596  144.6435  155.5961 H   0  0  0  0  0  0  0  0  0  0  0  0
  143.5150  143.3641  154.7167 H   0  0  0  0  0  0  0  0  0  0  0  0
  144.6630  144.4144  153.8715 H   0  0  0  0  0  0  0  0  0  0  0  0
  148.2069  140.3864  152.7423 H   0  0  0  0  0  0  0  0  0  0  0  0
  146.5160  140.4738  152.2539 H   0  0  0  0  0  0  0  0  0  0  0  0
  147.0432  139.2036  153.3559 H   0  0  0  0  0  0  0  0  0  0  0  0
  148.7664  139.3588  154.8961 H   0  0  0  0  0  0  0  0  0  0  0  0
  148.3824  139.4436  156.5774 H   0  0  0  0  0  0  0  0  0  0  0  0
  149.3876  141.3988  157.7534 H   0  0  0  0  0  0  0  0  0  0  0  0
  152.2021  141.8988  156.8706 H   0  0  0  0  0  0  0  0  0  0  0  0
  150.8091  143.9190  156.7174 H   0  0  0  0  0  0  0  0  0  0  0  0
  150.2416  143.6980  158.3549 H   0  0  0  0  0  0  0  0  0  0  0  0
  153.1204  144.2685  157.5089 H   0  0  0  0  0  0  0  0  0  0  0  0
  152.0417  145.3811  158.3174 H   0  0  0  0  0  0  0  0  0  0  0  0
  153.6408  144.3279  159.9242 H   0  0  0  0  0  0  0  0  0  0  0  0
  151.9852  143.9432  160.3303 H   0  0  0  0  0  0  0  0  0  0  0  0
  153.9468  142.1363  158.8377 H   0  0  0  0  0  0  0  0  0  0  0  0
  153.3810  141.9133  160.4744 H   0  0  0  0  0  0  0  0  0  0  0  0
  151.0768  141.5667  159.6814 H   0  0  0  0  0  0  0  0  0  0  0  0
  153.0289  139.7857  158.1461 H   0  0  0  0  0  0  0  0  0  0  0  0
  151.3886  139.3567  158.6237 H   0  0  0  0  0  0  0  0  0  0  0  0
  152.6179  139.6066  159.8493 H   0  0  0  0  0  0  0  0  0  0  0  0
  1 22  1  0  0  0  0
  1 23  1  0  0  0  0
  1 24  1  0  0  0  0
  1  2  1  0  0  0  0
  2  3  1  0  0  0  0
  2 20  2  0  0  0  0
  3  4  1  0  0  0  0
  3 21  1  0  0  0  0
  4  6  2  0  0  0  0
  4  5  1  0  0  0  0
  5 25  1  0  0  0  0
  5 26  1  0  0  0  0
  5 27  1  0  0  0  0
  6 18  1  0  0  0  0
  6  7  1  0  0  0  0
  7  8  1  0  0  0  0
  7 28  1  0  0  0  0
  7 29  1  0  0  0  0
  8  9  2  0  0  0  0
  8 10  1  0  0  0  0
 10 11  1  0  0  0  0
 10 30  1  0  0  0  0
 11 16  1  0  0  0  0
 11 12  1  0  0  0  0
 11 31  1  0  0  0  0
 12 13  1  0  0  0  0
 12 32  1  0  0  0  0
 12 33  1  0  0  0  0
 13 14  1  0  0  0  0
 13 34  1  0  0  0  0
 13 35  1  0  0  0  0
 14 15  1  0  0  0  0
 14 36  1  0  0  0  0
 14 37  1  0  0  0  0
 15 16  1  0  0  0  0
 15 38  1  0  0  0  0
 15 39  1  0  0  0  0
 16 17  1  0  0  0  0
 16 40  1  0  0  0  0
 17 41  1  0  0  0  0
 17 42  1  0  0  0  0
 17 43  1  0  0  0  0
 18 19  2  0  0  0  0
 18 20  1  0  0  0  0
M  END
> <s_m_source_file>
AV-unprocessed.smi

> <i_m_source_file_index>
1295

> <i_lp_mmshare_version>
43012

> <i_f3d_flags>
0

> <s_epik_input>
W0NIM11jMW5jKFtDSDNdKWMoYyg9TylbbkhdMSlbQ0gyXUMoPU8pW05IXVtDQEBIXTJbQ0gyXVtDSDJdW0NIMl1bQ0gyXVtDQEhdMltDSDNd

> <s_epik_cmdline>
J2VwaWtfcHl0aG9uJywgJy1waCcsICc3LjAnLCAnLXRuJywgJzgnLCAnLW1hJywgJzIwMCcsICctbWV0YWxfYmluZGluZycsICctaW1hZScsICc8aW5maWxlLm1hZT4nLCAnLW9tYWUnLCAnPG91dGZpbGUubWFlPic=

> <r_lp_tautomer_probability>
0.156392

> <r_epik_Ionization_Penalty>
0.0136057

> <r_epik_Ionization_Penalty_Charging>
0.0134742

> <r_epik_Ionization_Penalty_Neutral>
0.000131572

> <r_epik_State_Penalty>
1.15342

> <r_epik_Charging_Adjusted_Penalty>
1.16689

> <i_epik_Tot_Q>
0

> <i_epik_Tot_abs_Q>
0

> <r_epik_Metal_State_Penalty>
1.31351

> <b_epik_Metal_Only>
0

> <s_lp_Force_Field>
OPLS_2005

> <r_lp_Energy>
15.3725

> <b_lp_Chiralities_Consistent>
1

> <s_lp_Variant>
AV-unprocessed.smi:1295-8

> <Gold.Version>
5.8.1

> <Gold.Id.Protein>
6NUR|6NUR_protein|mol2

> <Gold.PLP.Fitness>
38.8546

> <Gold.PLP.PLP>
-36.0286

> <Gold.PLP.part.hbond>
-1.5393

> <Gold.PLP.part.metal>
0.0000

> <Gold.PLP.part.buried>
-3.6685

> <Gold.PLP.part.nonpolar>
-31.5826

> <Gold.PLP.part.repulsive>
0.4400

> <Gold.PLP.ligand.clash>
0.0000

> <Gold.PLP.ligand.torsion>
0.0785

> <Gold.PLP.Chemscore.Hbond>
0.9920

> <Gold.PLP.Chemscore.CHOScore>
0.0000

> <Gold.PLP.Chemscore.Metal>
0.0000

> <Gold.Chemscore.Hbonds>
donor molecule, donor type, donor heavy atom, donor atom, acceptor molecule, acceptor atom, score
      P1  H  7989  7998       L1     9  0.99

> <Gold.PLP.Chemscore.Internal.Correction>
0.0070

> <Gold.Rescore>
     Score         DG    S(hbond)    S(metal)    S(lipo)     H(rot)  DE(clash)    DE(int)     intcor
     16.44     -18.54       1.75        0.00      93.95       1.48       0.34       1.76       ----

> <Gold.Chemscore.Fitness>
16.4443

> <Gold.Chemscore.DG>
-18.5405

> <Gold.Chemscore.ZeroCoef>
-5.4800

> <Gold.Chemscore.Hbond>
1.7537

> <Gold.Chemscore.Metal>
0.0000

> <Gold.Chemscore.Lipo>
93.9510

> <Gold.Chemscore.Internal_Hbond>
0.0000

> <Gold.Chemscore.DEClash>
0.3405

> <Gold.Chemscore.DEInternal>
1.7557

> <Gold.Chemscore.Rot>
1.4801

> <Gold.Chemscore.Internal.Correction>
   9.000000E+99

> <Gold.Chemscore.Hbonds>
donor molecule, donor type, donor heavy atom, donor atom, acceptor molecule, acceptor atom, score
      P1  H  7989  7998       L1     9  0.93

> <Gold.Chemscore.Hbond.Weighted>
-5.8573

> <Gold.Chemscore.Metal.Weighted>
-0.0000

> <Gold.Chemscore.Lipo.Weighted>
-10.9923

> <Gold.Chemscore.Internal_Hbond.Weighted>
0.0000

> <Gold.Chemscore.DEClash.Weighted>
0.3405

> <Gold.Chemscore.DEInternal.Weighted>
1.7557

> <Gold.Chemscore.Rot.Weighted>
3.7891

> <Gold.Chemscore.Internal.Correction.Weighted>
   9.000000E+99

> <Gold.Protein.RotatedTorsions>
[ 6907 6896 6895 6894 ] final  160.85 input  -60.11 | X-H torsion
[ 7974 7965 7964 7962 ] final  143.95 input  175.53 | X-H torsion
[ 8008 7997 7996 7995 ] final -120.63 input   59.86 | X-H torsion
[ 10167 10162 10161 10158 ] final  -60.86 input  -65.29 | X-H torsion
[ 10718 10713 10712 10709 ] final  131.33 input   66.30 | X-H torsion
[ 10763 10752 10751 10750 ] final  148.09 input  -60.55 | X-H torsion
[ 11005 11000 10999 10996 ] final  -92.23 input  -57.11 | X-H torsion

> <Gold.Protein.ActiveResidues>
 VAL166  LYS551  ARG553  GLY616  TRP617  ASP618  TYR619  PRO620  LYS621  CYS622 
 ASP623  PHE694  ASN695  SER759  ASP760  ASP761  ALA762  ILE779  LEU786  VAL792 
 PHE793  MET794  SER795  GLU796  ALA797  LYS798  CYS799  TRP800  GLU811  SER814 

> <Gold.Protein.RotatedAtoms>
  151.9644  133.3705  159.4047 H   0  0  0  0  0  0  0  0  0  0  0  0  # atno 6907 bound_to 6896
  150.6959  134.4206  159.5212 H   0  0  0  0  0  0  0  0  0  0  0  0  # atno 6908 bound_to 6896
  152.1900  134.8680  160.0569 H   0  0  0  0  0  0  0  0  0  0  0  0  # atno 6909 bound_to 6896
  144.8877  139.5604  143.5813 H   0  0  0  0  0  0  0  0  0  0  0  0  # atno 7974 bound_to 7965
  155.1349  140.0401  157.2784 H   0  0  0  0  0  0  0  0  0  0  0  0  # atno 8008 bound_to 7997
  154.6516  140.2570  155.7182 H   0  0  0  0  0  0  0  0  0  0  0  0  # atno 8009 bound_to 7997
  156.2579  140.2835  156.0951 H   0  0  0  0  0  0  0  0  0  0  0  0  # atno 8010 bound_to 7997
  140.6043  143.2369  151.5856 H   0  0  0  0  0  0  0  0  0  0  0  0  # atno 10167 bound_to 10162
  157.4978  131.1093  150.9469 H   0  0  0  0  0  0  0  0  0  0  0  0  # atno 10718 bound_to 10713
  154.0491  135.2883  155.3343 H   0  0  0  0  0  0  0  0  0  0  0  0  # atno 10763 bound_to 10752
  154.6881  135.5237  153.8357 H   0  0  0  0  0  0  0  0  0  0  0  0  # atno 10764 bound_to 10752
  153.0568  135.6598  154.0689 H   0  0  0  0  0  0  0  0  0  0  0  0  # atno 10765 bound_to 10752
  141.1526  133.7807  156.9991 H   0  0  0  0  0  0  0  0  0  0  0  0  # atno 11005 bound_to 11000
  146.3035  139.7502  142.9074 LP  0  0  0  0  0  0  0  0  0  0  0  0  # atno 17320 bound_to 7965
  145.3839  141.0362  143.3162 LP  0  0  0  0  0  0  0  0  0  0  0  0  # atno 17321 bound_to 7965
  139.5314  144.2906  152.1155 LP  0  0  0  0  0  0  0  0  0  0  0  0  # atno 17342 bound_to 10162
  140.2093  144.4579  150.6393 LP  0  0  0  0  0  0  0  0  0  0  0  0  # atno 17343 bound_to 10162
  157.0150  130.5651  149.5325 LP  0  0  0  0  0  0  0  0  0  0  0  0  # atno 17370 bound_to 10713
  156.0211  130.5305  150.8277 LP  0  0  0  0  0  0  0  0  0  0  0  0  # atno 17371 bound_to 10713
  140.0952  134.9569  157.1838 LP  0  0  0  0  0  0  0  0  0  0  0  0  # atno 17394 bound_to 11000
  140.3392  134.2723  155.7215 LP  0  0  0  0  0  0  0  0  0  0  0  0  # atno 17395 bound_to 11000

$$$$
