AV-unprocessed.smi:2916|AV-procd|sdf|11188|dock2
  -GOLD-   2272016 83D 1   1.00000     0.00000
 Structure written by MMmdl.
 38 39  0  0  0  0  0  0  0  0  2 V2000
  151.6231  139.6406  156.8010 N   0  0  0  0  0  0  0  0  0  0  0  0
  150.9585  140.1384  155.7526 C   0  0  0  0  0  0  0  0  0  0  0  0
  151.1478  139.7013  154.6191 O   0  0  0  0  0  0  0  0  0  0  0  0
  149.9090  141.2510  156.0176 C   0  0  0  0  0  0  0  0  0  0  0  0
  150.6252  142.4374  156.5615 N   0  3  0  0  0  0  0  0  0  0  0  0
  150.7488  142.5680  158.0348 C   0  0  0  0  0  0  0  0  0  0  0  0
  152.0067  143.3687  158.4132 C   0  0  0  0  0  0  0  0  0  0  0  0
  152.3562  143.2384  159.8176 N   0  0  0  0  0  0  0  0  0  0  0  0
  152.9950  142.1902  160.4463 C   0  0  0  0  0  0  0  0  0  0  0  0
  153.0915  142.5080  161.7706 C   0  0  0  0  0  0  0  0  0  0  0  0
  152.4623  143.7809  161.8602 C   0  0  0  0  0  0  0  0  0  0  0  0
  152.0194  144.2128  160.6906 N   0  0  0  0  0  0  0  0  0  0  0  0
  149.2224  141.6959  154.6944 C   0  0  0  0  0  0  0  0  0  0  0  0
  148.3032  140.6220  154.0845 C   0  0  0  0  0  0  0  0  0  0  0  0
  147.2152  140.2063  155.0826 C   0  0  0  0  0  0  0  0  0  0  0  0
  147.8343  139.7322  156.4039 C   0  0  0  0  0  0  0  0  0  0  0  0
  148.7855  140.7913  156.9980 C   0  0  0  0  0  0  0  0  0  0  0  0
  152.3290  138.9333  156.6516 H   0  0  0  0  0  0  0  0  0  0  0  0
  151.4409  139.9843  157.7327 H   0  0  0  0  0  0  0  0  0  0  0  0
  151.5556  142.4413  156.1696 H   0  0  0  0  0  0  0  0  0  0  0  0
  149.8698  143.0595  158.4507 H   0  0  0  0  0  0  0  0  0  0  0  0
  150.8062  141.5819  158.4956 H   0  0  0  0  0  0  0  0  0  0  0  0
  152.8572  143.0325  157.8190 H   0  0  0  0  0  0  0  0  0  0  0  0
  151.8627  144.4256  158.1847 H   0  0  0  0  0  0  0  0  0  0  0  0
  153.3267  141.3159  159.9057 H   0  0  0  0  0  0  0  0  0  0  0  0
  153.5386  141.9182  162.5571 H   0  0  0  0  0  0  0  0  0  0  0  0
  152.3139  144.3985  162.7337 H   0  0  0  0  0  0  0  0  0  0  0  0
  148.6226  142.5870  154.8868 H   0  0  0  0  0  0  0  0  0  0  0  0
  149.9590  142.0055  153.9519 H   0  0  0  0  0  0  0  0  0  0  0  0
  147.8392  141.0070  153.1760 H   0  0  0  0  0  0  0  0  0  0  0  0
  148.8848  139.7499  153.7841 H   0  0  0  0  0  0  0  0  0  0  0  0
  146.5512  141.0508  155.2725 H   0  0  0  0  0  0  0  0  0  0  0  0
  146.5967  139.4166  154.6548 H   0  0  0  0  0  0  0  0  0  0  0  0
  147.0426  139.5077  157.1193 H   0  0  0  0  0  0  0  0  0  0  0  0
  148.3653  138.7944  156.2403 H   0  0  0  0  0  0  0  0  0  0  0  0
  149.2068  140.3907  157.9206 H   0  0  0  0  0  0  0  0  0  0  0  0
  148.1938  141.6583  157.2963 H   0  0  0  0  0  0  0  0  0  0  0  0
  150.1404  143.2601  156.2316 H   0  0  0  0  0  0  0  0  0  0  0  0
  1  2  1  0  0  0  0
  1 18  1  0  0  0  0
  1 19  1  0  0  0  0
  2  3  2  0  0  0  0
  2  4  1  0  0  0  0
  4 17  1  0  0  0  0
  4  5  1  0  0  0  0
  4 13  1  0  0  0  0
  5  6  1  0  0  0  0
  5 20  1  0  0  0  0
  5 38  1  0  0  0  0
  6  7  1  0  0  0  0
  6 21  1  0  0  0  0
  6 22  1  0  0  0  0
  7  8  1  0  0  0  0
  7 23  1  0  0  0  0
  7 24  1  0  0  0  0
  8 12  1  0  0  0  0
  8  9  1  0  0  0  0
  9 10  2  0  0  0  0
  9 25  1  0  0  0  0
 10 11  1  0  0  0  0
 10 26  1  0  0  0  0
 11 12  2  0  0  0  0
 11 27  1  0  0  0  0
 13 14  1  0  0  0  0
 13 28  1  0  0  0  0
 13 29  1  0  0  0  0
 14 15  1  0  0  0  0
 14 30  1  0  0  0  0
 14 31  1  0  0  0  0
 15 16  1  0  0  0  0
 15 32  1  0  0  0  0
 15 33  1  0  0  0  0
 16 17  1  0  0  0  0
 16 34  1  0  0  0  0
 16 35  1  0  0  0  0
 17 36  1  0  0  0  0
 17 37  1  0  0  0  0
M  CHG  1   5   1
M  END
> <s_m_source_file>
AV-unprocessed.smi

> <i_m_source_file_index>
2916

> <i_lp_mmshare_version>
43012

> <i_f3d_flags>
0

> <s_epik_input>
W0NIMl0xW0NIMl1bQ0gyXVtDSDJdW0NIMl1DMShDKD1PKVtOSDJdKVtOSF1bQ0gyXVtDSDJdbjJbY0hdW2NIXVtjSF1uMg==

> <s_epik_cmdline>
J2VwaWtfcHl0aG9uJywgJy1waCcsICc3LjAnLCAnLXRuJywgJzgnLCAnLW1hJywgJzIwMCcsICctbWV0YWxfYmluZGluZycsICctaW1hZScsICc8aW5maWxlLm1hZT4nLCAnLW9tYWUnLCAnPG91dGZpbGUubWFlPic=

> <r_lp_tautomer_probability>
1

> <r_epik_Ionization_Penalty>
0.147888

> <r_epik_Ionization_Penalty_Charging>
0.147883

> <r_epik_Ionization_Penalty_Neutral>
4.65475e-06

> <r_epik_State_Penalty>
0.137176

> <r_epik_Charging_Adjusted_Penalty>
0.285059

> <i_epik_Tot_Q>
1

> <i_epik_Tot_abs_Q>
1

> <r_epik_Metal_State_Penalty>
0.137393

> <b_epik_Metal_Only>
0

> <s_lp_Force_Field>
OPLS_2005

> <r_lp_Energy>
14.4928

> <b_lp_Chiralities_Consistent>
1

> <s_lp_Variant>
AV-unprocessed.smi:2916-1

> <Gold.Version>
5.8.1

> <Gold.Id.Protein>
6NUR|6NUR_protein|mol2

> <Gold.PLP.Fitness>
44.2393

> <Gold.PLP.PLP>
-37.3206

> <Gold.PLP.part.hbond>
-2.0000

> <Gold.PLP.part.metal>
0.0000

> <Gold.PLP.part.buried>
-4.9584

> <Gold.PLP.part.nonpolar>
-30.2284

> <Gold.PLP.part.repulsive>
0.3528

> <Gold.PLP.ligand.clash>
0.0000

> <Gold.PLP.ligand.torsion>
1.0837

> <Gold.PLP.Chemscore.Hbond>
3.0000

> <Gold.PLP.Chemscore.CHOScore>
0.0000

> <Gold.PLP.Chemscore.Metal>
0.0000

> <Gold.Chemscore.Hbonds>
donor molecule, donor type, donor heavy atom, donor atom, acceptor molecule, acceptor atom, score
      L1  H     5    38       P1  8028  2.00
      P1  H  7989  7998       L1     3  1.00

> <Gold.PLP.Chemscore.Internal.Correction>
0.0861

> <Gold.Rescore>
     Score         DG    S(hbond)    S(metal)    S(lipo)     H(rot)  DE(clash)    DE(int)     intcor
     14.74     -15.95       1.97        0.00      82.84       2.26       0.04       1.17       ----

> <Gold.Chemscore.Fitness>
14.7374

> <Gold.Chemscore.DG>
-15.9519

> <Gold.Chemscore.ZeroCoef>
-5.4800

> <Gold.Chemscore.Hbond>
1.9669

> <Gold.Chemscore.Metal>
0.0000

> <Gold.Chemscore.Lipo>
82.8440

> <Gold.Chemscore.Internal_Hbond>
0.0000

> <Gold.Chemscore.DEClash>
0.0450

> <Gold.Chemscore.DEInternal>
1.1695

> <Gold.Chemscore.Rot>
2.2619

> <Gold.Chemscore.Internal.Correction>
   9.000000E+99

> <Gold.Chemscore.Hbonds>
donor molecule, donor type, donor heavy atom, donor atom, acceptor molecule, acceptor atom, score
      L1  H     5    38       P1  8028  0.96
      P1  H  7989  7998       L1     3  0.91

> <Gold.Chemscore.Hbond.Weighted>
-6.5696

> <Gold.Chemscore.Metal.Weighted>
-0.0000

> <Gold.Chemscore.Lipo.Weighted>
-9.6927

> <Gold.Chemscore.Internal_Hbond.Weighted>
0.0000

> <Gold.Chemscore.DEClash.Weighted>
0.0450

> <Gold.Chemscore.DEInternal.Weighted>
1.1695

> <Gold.Chemscore.Rot.Weighted>
5.7904

> <Gold.Chemscore.Internal.Correction.Weighted>
   9.000000E+99

> <Gold.Protein.RotatedTorsions>
[ 6907 6896 6895 6894 ] final   28.69 input  -60.11 | X-H torsion
[ 7974 7965 7964 7962 ] final -151.35 input  175.53 | X-H torsion
[ 8008 7997 7996 7995 ] final   -9.25 input   59.86 | X-H torsion
[ 10167 10162 10161 10158 ] final   50.87 input  -65.29 | X-H torsion
[ 10718 10713 10712 10709 ] final -121.96 input   66.30 | X-H torsion
[ 10763 10752 10751 10750 ] final   13.91 input  -60.55 | X-H torsion
[ 11005 11000 10999 10996 ] final -154.74 input  -57.11 | X-H torsion

> <Gold.Protein.ActiveResidues>
 VAL166  LYS551  ARG553  GLY616  TRP617  ASP618  TYR619  PRO620  LYS621  CYS622 
 ASP623  PHE694  ASN695  SER759  ASP760  ASP761  ALA762  ILE779  LEU786  VAL792 
 PHE793  MET794  SER795  GLU796  ALA797  LYS798  CYS799  TRP800  GLU811  SER814 

> <Gold.Protein.RotatedAtoms>
  152.0207  134.9824  160.0570 H   0  0  0  0  0  0  0  0  0  0  0  0  # atno 6907 bound_to 6896
  152.1340  133.4420  159.4743 H   0  0  0  0  0  0  0  0  0  0  0  0  # atno 6908 bound_to 6896
  150.6859  134.2304  159.4475 H   0  0  0  0  0  0  0  0  0  0  0  0  # atno 6909 bound_to 6896
  144.7855  140.4809  143.5809 H   0  0  0  0  0  0  0  0  0  0  0  0  # atno 7974 bound_to 7965
  154.5665  140.2360  155.8256 H   0  0  0  0  0  0  0  0  0  0  0  0  # atno 8008 bound_to 7997
  156.2072  140.3036  155.9611 H   0  0  0  0  0  0  0  0  0  0  0  0  # atno 8009 bound_to 7997
  155.2792  140.0421  157.3004 H   0  0  0  0  0  0  0  0  0  0  0  0  # atno 8010 bound_to 7997
  140.2679  144.3299  150.6298 H   0  0  0  0  0  0  0  0  0  0  0  0  # atno 10167 bound_to 10162
  156.1380  130.6445  150.9726 H   0  0  0  0  0  0  0  0  0  0  0  0  # atno 10718 bound_to 10713
  153.1674  135.6806  153.8656 H   0  0  0  0  0  0  0  0  0  0  0  0  # atno 10763 bound_to 10752
  153.8031  135.3153  155.3393 H   0  0  0  0  0  0  0  0  0  0  0  0  # atno 10764 bound_to 10752
  154.7975  135.4798  154.0286 H   0  0  0  0  0  0  0  0  0  0  0  0  # atno 10765 bound_to 10752
  140.6940  134.4010  157.5216 H   0  0  0  0  0  0  0  0  0  0  0  0  # atno 11005 bound_to 11000
  145.5934  139.1497  143.3169 LP  0  0  0  0  0  0  0  0  0  0  0  0  # atno 17320 bound_to 7965
  146.2084  140.6059  142.9070 LP  0  0  0  0  0  0  0  0  0  0  0  0  # atno 17321 bound_to 7965
  140.5913  143.2168  151.7247 LP  0  0  0  0  0  0  0  0  0  0  0  0  # atno 17342 bound_to 10162
  139.4997  144.3934  152.0256 LP  0  0  0  0  0  0  0  0  0  0  0  0  # atno 17343 bound_to 10162
  157.6550  131.0891  150.7968 LP  0  0  0  0  0  0  0  0  0  0  0  0  # atno 17370 bound_to 10713
  156.8046  130.4932  149.5364 LP  0  0  0  0  0  0  0  0  0  0  0  0  # atno 17371 bound_to 10713
  139.8915  134.8778  156.2316 LP  0  0  0  0  0  0  0  0  0  0  0  0  # atno 17394 bound_to 11000
  141.0218  133.7037  156.1281 LP  0  0  0  0  0  0  0  0  0  0  0  0  # atno 17395 bound_to 11000

$$$$
